
     RDKit          3D

 38 41  0  0  0  0  0  0  0  0999 V2000
   -2.0320    5.3550    0.5600 C   0  0  0  0  0  0  0  0  0  0  0  0
   -1.7670    4.1190    0.9210 C   0  0  0  0  0  0  0  0  0  0  0  0
   -2.3470    2.9820    0.4130 C   0  0  0  0  0  0  0  0  0  0  0  0
   -1.7820    1.9170    1.0670 C   0  0  0  0  0  0  0  0  0  0  0  0
   -2.0880    0.4850    0.8560 C   0  0  2  0  0  0  0  0  0  0  0  0
   -0.9440   -0.3090    1.1000 O   0  0  0  0  0  0  0  0  0  0  0  0
   -2.5500    0.2430   -0.5780 C   0  0  2  0  0  0  0  0  0  0  0  0
   -2.8790   -1.2500   -0.6080 C   0  0  0  0  0  0  0  0  0  0  0  0
   -3.9350   -1.3860    0.3990 N   0  0  0  0  0  0  0  0  0  0  0  0
   -4.3980   -2.7400    0.5320 C   0  0  2  0  0  0  0  0  0  0  0  0
   -5.0050   -3.1960   -0.7570 C   0  0  0  0  0  0  0  0  0  0  0  0
   -5.7370   -4.4780   -0.5190 C   0  0  0  0  0  0  0  0  0  0  0  0
   -6.5040   -4.1590    1.1000 S   0  0  0  0  0  0  0  0  0  0  0  0
   -7.9450   -3.7210    0.9360 O   0  0  0  0  0  0  0  0  0  0  0  0
   -5.5320   -2.6890    1.5570 C   0  0  0  0  0  0  0  0  0  0  0  0
   -1.5620    0.6580   -1.5990 C   0  0  2  0  0  0  0  0  0  0  0  0
   -2.1600    0.3930   -2.9830 C   0  0  0  0  0  0  0  0  0  0  0  0
   -1.4900   -0.8410   -3.4720 C   0  0  0  0  0  0  0  0  0  0  0  0
   -0.4180   -1.1380   -2.4940 C   0  0  0  0  0  0  0  0  0  0  0  0
   -0.2970    0.0470   -1.6540 N   0  0  0  0  0  0  0  0  0  0  0  0
    0.9210    0.4900   -1.0350 C   0  0  0  0  0  0  0  0  0  0  0  0
    0.9850    1.5380   -0.3590 O   0  0  0  0  0  0  0  0  0  0  0  0
    2.1230   -0.2640   -1.1710 N   0  0  0  0  0  0  0  0  0  0  0  0
    3.3860    0.0390   -0.6220 C   0  0  0  0  0  0  0  0  0  0  0  0
    4.4690   -0.6840   -1.1450 C   0  0  0  0  0  0  0  0  0  0  0  0
    5.7610   -0.5130   -0.7070 C   0  0  0  0  0  0  0  0  0  0  0  0
    6.7810   -1.2660   -1.2730 O   0  0  0  0  0  0  0  0  0  0  0  0
    6.5780   -2.2100   -2.2850 C   0  0  0  0  0  0  0  0  0  0  0  0
    5.9850    0.4050    0.2820 C   0  0  0  0  0  0  0  0  0  0  0  0
    7.2580    0.6250    0.7670 O   0  0  0  0  0  0  0  0  0  0  0  0
    7.7000   -0.1650    1.8780 C   0  0  0  0  0  0  0  0  0  0  0  0
    4.9400    1.1260    0.8110 C   0  0  0  0  0  0  0  0  0  0  0  0
    5.2020    2.0490    1.8120 O   0  0  0  0  0  0  0  0  0  0  0  0
    4.1640    2.8190    2.3940 C   0  0  0  0  0  0  0  0  0  0  0  0
    3.6220    0.9560    0.3690 C   0  0  0  0  0  0  0  0  0  0  0  0
   -0.9000    2.4080    1.9300 O   0  0  0  0  0  0  0  0  0  0  0  0
   -0.8640    3.7150    1.8710 C   0  0  0  0  0  0  0  0  0  0  0  0
   -0.0860    4.5040    2.6070 C   0  0  0  0  0  0  0  0  0  0  0  0
  1  2  2  0
  2  3  1  0
  2 37  1  0
  3  4  2  0
  4  5  1  0
  4 36  1  0
  5  6  1  6
  5  7  1  0
  7  8  1  1
  7 16  1  0
  8  9  1  0
 10  9  1  6
 10 11  1  0
 10 15  1  0
 11 12  1  0
 13 12  1  6
 13 14  2  0
 13 15  1  0
 16 17  1  6
 16 20  1  0
 17 18  1  0
 18 19  1  0
 19 20  1  0
 20 21  1  0
 21 22  2  0
 21 23  1  0
 23 24  1  0
 24 25  2  0
 24 35  1  0
 25 26  1  0
 26 27  1  0
 26 29  2  0
 27 28  1  0
 29 30  1  0
 29 32  1  0
 30 31  1  0
 32 33  1  0
 32 35  2  0
 33 34  1  0
 36 37  1  0
 37 38  2  0
M  END
