
     RDKit          3D

 38 42  0  0  0  0  0  0  0  0999 V2000
   -9.1600   -0.5960    1.5250 C   0  0  0  0  0  0  0  0  0  0  0  0
   -7.7350   -0.6530    1.9090 C   0  0  2  0  0  0  0  0  0  0  0  0
   -7.0320    0.6260    2.1840 C   0  0  0  0  0  0  0  0  0  0  0  0
   -5.7570    0.9610    1.5870 C   0  0  2  0  0  0  0  0  0  0  0  0
   -5.7080    1.8970    0.4060 C   0  0  0  0  0  0  0  0  0  0  0  0
   -6.4130    1.5080   -0.8000 C   0  0  0  0  0  0  0  0  0  0  0  0
   -5.7780    1.2790   -1.9570 C   0  0  0  0  0  0  0  0  0  0  0  0
   -6.7260    0.9090   -2.9970 C   0  0  0  0  0  0  0  0  0  0  0  0
   -8.0270    0.9660   -2.3110 C   0  0  0  0  0  0  0  0  0  0  0  0
   -7.8150    1.3090   -1.0570 C   0  0  0  0  0  0  0  0  0  0  0  0
   -4.8250   -0.1870    1.3500 C   0  0  0  0  0  0  0  0  0  0  0  0
   -3.5180   -0.2540    1.3460 N   0  0  0  0  0  0  0  0  0  0  0  0
   -2.8090   -1.1420    1.1330 C   0  0  0  0  0  0  0  0  0  0  0  0
   -1.4180   -1.5580    1.0410 N   0  0  0  0  0  0  0  0  0  0  0  0
   -0.3880   -0.6000    1.2980 C   0  0  0  0  0  0  0  0  0  0  0  0
   -0.7690    0.5380    1.6060 O   0  0  0  0  0  0  0  0  0  0  0  0
    1.0360   -0.9440    1.2020 C   0  0  0  0  0  0  0  0  0  0  0  0
    2.0370    0.1150    1.2350 C   0  0  0  0  0  0  0  0  0  0  0  0
    2.1990    1.1390    0.2280 C   0  0  1  0  0  0  0  0  0  0  0  0
    0.9870    2.0740    0.0010 C   0  0  0  0  0  0  0  0  0  0  0  0
    3.2240    2.1590    0.8720 C   0  0  0  0  0  0  0  0  0  0  0  0
    2.7940    0.8770   -1.1040 C   0  0  0  0  0  0  0  0  0  0  0  0
    4.1270    0.3960   -1.1950 N   0  0  0  0  0  0  0  0  0  0  0  0
    4.5680   -0.8880   -0.7930 C   0  0  0  0  0  0  0  0  0  0  0  0
    3.7660   -1.7260   -0.3340 O   0  0  0  0  0  0  0  0  0  0  0  0
    6.0050   -1.2210   -0.9300 C   0  0  0  0  0  0  0  0  0  0  0  0
    6.3880   -2.4500   -1.3460 C   0  0  0  0  0  0  0  0  0  0  0  0
    7.7490   -2.6970   -1.4450 C   0  0  0  0  0  0  0  0  0  0  0  0
    8.7020   -1.7170   -1.1270 C   0  0  0  0  0  0  0  0  0  0  0  0
    8.2870   -0.4870   -0.7090 C   0  0  0  0  0  0  0  0  0  0  0  0
    6.9130   -0.2450   -0.6120 C   0  0  0  0  0  0  0  0  0  0  0  0
    9.4820    0.3500   -0.4270 C   0  0  0  0  0  0  0  0  0  0  0  0
   10.6200   -0.3610   -1.0920 C   0  0  0  0  0  0  0  0  0  0  0  0
   10.1720   -1.7920   -1.1740 C   0  0  0  0  0  0  0  0  0  0  0  0
   -4.0960   -2.4840    0.7920 S   0  0  0  0  0  0  0  0  0  0  0  0
   -5.4560   -1.4210    1.0420 C   0  0  0  0  0  0  0  0  0  0  0  0
   -6.8940   -1.5270    1.0150 C   0  0  0  0  0  0  0  0  0  0  0  0
   -7.4460   -2.3300    0.2630 O   0  0  0  0  0  0  0  0  0  0  0  0
  2  1  1  6
  2  3  1  0
  2 37  1  0
  3  4  1  0
  4  5  1  6
  4 11  1  0
  5  6  1  0
  6  7  2  0
  6 10  1  0
  7  8  1  0
  8  9  1  0
  9 10  2  0
 11 12  1  0
 11 36  2  0
 12 13  2  0
 13 14  1  0
 13 35  1  0
 14 15  1  0
 15 16  2  0
 15 17  1  0
 17 18  1  0
 18 19  1  0
 19 20  1  6
 19 21  1  0
 19 22  1  0
 22 23  1  0
 23 24  1  0
 24 25  2  0
 24 26  1  0
 26 27  2  0
 26 31  1  0
 27 28  1  0
 28 29  2  0
 29 30  1  0
 29 34  1  0
 30 31  2  0
 30 32  1  0
 32 33  1  0
 33 34  1  0
 35 36  1  0
 36 37  1  0
 37 38  2  0
M  END
