
     RDKit          3D

 38 41  0  0  0  0  0  0  0  0999 V2000
    4.3770   -1.6580    4.9330 C   0  0  0  0  0  0  0  0  0  0  0  0
    4.2470   -0.8830    3.6580 C   0  0  0  0  0  0  0  0  0  0  0  0
    3.1130   -0.1760    3.2410 C   0  0  0  0  0  0  0  0  0  0  0  0
    3.3480    0.4200    2.0160 C   0  0  0  0  0  0  0  0  0  0  0  0
    2.4780    1.2250    1.2350 N   0  0  0  0  0  0  0  0  0  0  0  0
    1.1610    1.5730    1.6240 C   0  0  0  0  0  0  0  0  0  0  0  0
    0.7160    1.1610    2.7090 O   0  0  0  0  0  0  0  0  0  0  0  0
    0.3070    2.4140    0.7690 C   0  0  0  0  0  0  0  0  0  0  0  0
    0.7580    2.8350   -0.3520 O   0  0  0  0  0  0  0  0  0  0  0  0
   -1.0550    2.7750    1.1880 C   0  0  2  0  0  0  0  0  0  0  0  0
   -1.6720    3.6590    0.1240 C   0  0  0  0  0  0  0  0  0  0  0  0
   -1.0050    3.6270    2.4570 C   0  0  0  0  0  0  0  0  0  0  0  0
   -1.9390    1.6020    1.5180 C   0  0  0  0  0  0  0  0  0  0  0  0
   -2.1300    0.6670    0.3780 C   0  0  0  0  0  0  0  0  0  0  0  0
   -1.3580   -0.2550    0.2020 O   0  0  0  0  0  0  0  0  0  0  0  0
   -3.2640    0.8490   -0.5550 C   0  0  0  0  0  0  0  0  0  0  0  0
   -3.3220   -0.2380   -1.6080 C   0  0  2  0  0  0  0  0  0  0  0  0
   -4.5240    0.1030   -2.4830 C   0  0  0  0  0  0  0  0  0  0  0  0
   -5.7440   -0.4360   -1.8110 C   0  0  1  0  0  0  0  0  0  0  0  0
   -7.2950    0.2320   -2.4060 S   0  0  0  0  0  0  0  0  0  0  0  0
   -8.5210   -1.1250   -2.2230 C   0  0  0  0  0  0  0  0  0  0  0  0
   -7.9240   -2.3310   -2.8490 C   0  0  0  0  0  0  0  0  0  0  0  0
   -6.5900   -2.7220   -2.3410 C   0  0  0  0  0  0  0  0  0  0  0  0
   -5.6770   -1.9150   -1.9050 C   0  0  0  0  0  0  0  0  0  0  0  0
   -4.3910   -2.4730   -1.4410 C   0  0  0  0  0  0  0  0  0  0  0  0
   -4.1530   -3.7630   -1.4590 C   0  0  0  0  0  0  0  0  0  0  0  0
   -5.1580   -4.7180   -1.9430 C   0  0  0  0  0  0  0  0  0  0  0  0
   -6.3210   -4.0810   -2.3430 O   0  0  0  0  0  0  0  0  0  0  0  0
   -3.4740   -1.5220   -0.9930 O   0  0  0  0  0  0  0  0  0  0  0  0
    4.6360    0.0670    1.6930 C   0  0  0  0  0  0  0  0  0  0  0  0
    5.3600    0.4540    0.4730 C   0  0  0  0  0  0  0  0  0  0  0  0
    4.8690    1.1540   -0.4180 O   0  0  0  0  0  0  0  0  0  0  0  0
    6.7020    0.0190    0.2730 N   0  0  0  0  0  0  0  0  0  0  0  0
    7.4780    0.3620   -0.9040 C   0  0  1  0  0  0  0  0  0  0  0  0
    8.6100    1.3040   -0.5710 C   0  0  0  0  0  0  0  0  0  0  0  0
    7.9710   -0.8170   -1.6760 C   0  0  0  0  0  0  0  0  0  0  0  0
    8.6950   -0.3300   -2.7640 O   0  0  0  0  0  0  0  0  0  0  0  0
    5.1450   -0.7090    2.6900 N   0  0  0  0  0  0  0  0  0  0  0  0
  1  2  1  0
  2  3  2  0
  2 38  1  0
  3  4  1  0
  4  5  1  0
  4 30  2  0
  5  6  1  0
  6  7  2  0
  6  8  1  0
  8  9  2  0
  8 10  1  0
 10 11  1  6
 10 12  1  0
 10 13  1  0
 13 14  1  0
 14 15  2  0
 14 16  1  0
 17 16  1  1
 17 18  1  0
 17 29  1  0
 19 18  1  6
 19 20  1  0
 19 24  1  0
 20 21  1  0
 21 22  1  0
 22 23  1  0
 23 24  2  0
 23 28  1  0
 24 25  1  0
 25 26  2  0
 25 29  1  0
 26 27  1  0
 27 28  1  0
 30 31  1  0
 30 38  1  0
 31 32  2  0
 31 33  1  0
 33 34  1  0
 34 35  1  1
 34 36  1  0
 36 37  1  0
M  END
