
     RDKit          3D

 38 42  0  0  0  0  0  0  0  0999 V2000
   10.7120    0.1950    0.3900 C   0  0  0  0  0  0  0  0  0  0  0  0
    9.9390    1.3740    0.9440 C   0  0  0  0  0  0  0  0  0  0  0  0
    8.5510    1.4150    0.3810 C   0  0  0  0  0  0  0  0  0  0  0  0
    7.3800    0.8470    0.8340 C   0  0  0  0  0  0  0  0  0  0  0  0
    6.2670    1.0550    0.1120 C   0  0  0  0  0  0  0  0  0  0  0  0
    4.9350    0.4620    0.5440 C   0  0  0  0  0  0  0  0  0  0  0  0
    4.0500    1.4900    1.1470 C   0  0  0  0  0  0  0  0  0  0  0  0
    2.8100    0.8900    1.5450 N   0  0  0  0  0  0  0  0  0  0  0  0
    1.9740    0.3050    0.5750 C   0  0  0  0  0  0  0  0  0  0  0  0
    2.3350    0.3310   -0.6180 O   0  0  0  0  0  0  0  0  0  0  0  0
    0.6660   -0.3470    0.9320 C   0  0  0  0  0  0  0  0  0  0  0  0
    0.0590   -0.8530   -0.3280 C   0  0  0  0  0  0  0  0  0  0  0  0
   -1.2040   -1.4970   -0.2310 N   0  0  0  0  0  0  0  0  0  0  0  0
   -1.2830   -2.9030    0.0840 C   0  0  0  0  0  0  0  0  0  0  0  0
   -0.2210   -3.6040    0.0590 O   0  0  0  0  0  0  0  0  0  0  0  0
   -2.5540   -3.5630    0.4350 C   0  0  0  0  0  0  0  0  0  0  0  0
   -3.7310   -2.8670   -0.1340 C   0  0  1  0  0  0  0  0  0  0  0  0
   -4.0530   -3.5560   -1.4760 C   0  0  0  0  0  0  0  0  0  0  0  0
   -4.9230   -2.9980    0.6550 N   0  0  0  0  0  0  0  0  0  0  0  0
   -4.8710   -2.4780    1.9770 C   0  0  0  0  0  0  0  0  0  0  0  0
   -6.3120   -2.7620    2.4320 C   0  0  0  0  0  0  0  0  0  0  0  0
   -6.6750   -4.0540    1.6880 C   0  0  0  0  0  0  0  0  0  0  0  0
   -5.4950   -4.2960    0.7360 C   0  0  0  0  0  0  0  0  0  0  0  0
   -3.5490   -1.4290   -0.4490 C   0  0  0  0  0  0  0  0  0  0  0  0
   -4.7940   -0.6210   -0.7370 C   0  0  0  0  0  0  0  0  0  0  0  0
   -2.3990   -0.7900   -0.4970 C   0  0  0  0  0  0  0  0  0  0  0  0
   -2.4320    0.6280   -0.9180 C   0  0  0  0  0  0  0  0  0  0  0  0
   -2.9160    0.8260   -2.2100 C   0  0  0  0  0  0  0  0  0  0  0  0
   -3.0240    2.1070   -2.6940 C   0  0  0  0  0  0  0  0  0  0  0  0
   -2.6660    3.2040   -1.9360 C   0  0  0  0  0  0  0  0  0  0  0  0
   -2.1950    2.9710   -0.6720 C   0  0  0  0  0  0  0  0  0  0  0  0
   -2.0760    1.6780   -0.1560 C   0  0  0  0  0  0  0  0  0  0  0  0
   -1.8580    4.2760   -0.0140 C   0  0  0  0  0  0  0  0  0  0  0  0
   -2.6420    5.2620   -0.8310 C   0  0  0  0  0  0  0  0  0  0  0  0
   -2.6950    4.6820   -2.2350 C   0  0  0  0  0  0  0  0  0  0  0  0
    6.3340    1.8000   -1.0130 C   0  0  0  0  0  0  0  0  0  0  0  0
    5.3300    2.2070   -2.0040 C   0  0  0  0  0  0  0  0  0  0  0  0
    8.0230    2.2510   -1.0970 S   0  0  0  0  0  0  0  0  0  0  0  0
  1  2  1  0
  2  3  1  0
  3  4  2  0
  3 38  1  0
  4  5  1  0
  5  6  1  0
  5 36  2  0
  6  7  1  0
  7  8  1  0
  8  9  1  0
  9 10  2  0
  9 11  1  0
 11 12  1  0
 12 13  1  0
 13 14  1  0
 13 26  1  0
 14 15  2  0
 14 16  1  0
 16 17  1  0
 17 18  1  6
 17 19  1  0
 17 24  1  0
 19 20  1  0
 19 23  1  0
 20 21  1  0
 21 22  1  0
 22 23  1  0
 24 25  1  0
 24 26  2  0
 26 27  1  0
 27 28  2  0
 27 32  1  0
 28 29  1  0
 29 30  2  0
 30 31  1  0
 30 35  1  0
 31 32  2  0
 31 33  1  0
 33 34  1  0
 34 35  1  0
 36 37  1  0
 36 38  1  0
M  END
