
     RDKit          3D

 38 41  0  0  0  0  0  0  0  0999 V2000
    2.1850   -4.1900   -0.2050 C   0  0  0  0  0  0  0  0  0  0  0  0
    1.9020   -2.9560   -1.0850 C   0  0  2  0  0  0  0  0  0  0  0  0
    2.8030   -3.0870   -2.2730 C   0  0  0  0  0  0  0  0  0  0  0  0
    2.1160   -1.7700   -0.2300 C   0  0  0  0  0  0  0  0  0  0  0  0
    1.9190   -0.4880   -0.7780 N   0  0  0  0  0  0  0  0  0  0  0  0
    0.8240    0.2510   -0.2340 C   0  0  0  0  0  0  0  0  0  0  0  0
   -0.2460    0.6290   -1.2180 C   0  0  1  0  0  0  0  0  0  0  0  0
   -0.7090   -0.5980   -1.7730 O   0  0  0  0  0  0  0  0  0  0  0  0
   -1.4630    1.2160   -0.5660 C   0  0  2  0  0  0  0  0  0  0  0  0
   -1.3820    2.6400   -0.1530 C   0  0  0  0  0  0  0  0  0  0  0  0
   -1.1270    3.5760   -1.2720 C   0  0  0  0  0  0  0  0  0  0  0  0
    0.1280    3.9880   -1.6390 C   0  0  0  0  0  0  0  0  0  0  0  0
    0.3430    4.8520   -2.6880 C   0  0  0  0  0  0  0  0  0  0  0  0
   -0.7100    5.3410   -3.4150 C   0  0  0  0  0  0  0  0  0  0  0  0
   -1.9870    4.9520   -3.0760 C   0  0  0  0  0  0  0  0  0  0  0  0
   -2.1920    4.0870   -2.0260 C   0  0  0  0  0  0  0  0  0  0  0  0
   -1.9980    0.3540    0.4720 N   0  0  0  0  0  0  0  0  0  0  0  0
   -3.2330   -0.2920    0.3530 C   0  0  0  0  0  0  0  0  0  0  0  0
   -3.9010   -0.1140   -0.6960 O   0  0  0  0  0  0  0  0  0  0  0  0
   -3.7860   -1.1250    1.3180 O   0  0  0  0  0  0  0  0  0  0  0  0
   -5.0340   -1.7250    1.1010 C   0  0  1  0  0  0  0  0  0  0  0  0
   -4.9800   -3.2400    1.1540 C   0  0  0  0  0  0  0  0  0  0  0  0
   -6.2100   -3.6760    1.5700 O   0  0  0  0  0  0  0  0  0  0  0  0
   -6.9220   -2.6500    2.1130 C   0  0  1  0  0  0  0  0  0  0  0  0
   -7.2520   -2.8480    3.4880 O   0  0  0  0  0  0  0  0  0  0  0  0
   -6.1980   -2.3680    4.2730 C   0  0  0  0  0  0  0  0  0  0  0  0
   -5.4540   -1.5270    3.5390 C   0  0  0  0  0  0  0  0  0  0  0  0
   -6.0340   -1.4350    2.1940 C   0  0  1  0  0  0  0  0  0  0  0  0
    3.2300    0.3590   -1.3700 S   0  0  1  0  0  0  0  0  0  0  0  0
    3.9620   -0.2200   -2.5180 O   0  0  0  0  0  0  0  0  0  0  0  0
    2.7520    1.7290   -1.8320 O   0  0  0  0  0  0  0  0  0  0  0  0
    4.4270    0.6900   -0.1200 C   0  0  0  0  0  0  0  0  0  0  0  0
    5.4390   -0.2230    0.1080 C   0  0  0  0  0  0  0  0  0  0  0  0
    6.4080   -0.0590    1.0470 C   0  0  0  0  0  0  0  0  0  0  0  0
    6.3990    1.0710    1.8240 C   0  0  0  0  0  0  0  0  0  0  0  0
    7.4080    1.2350    2.7980 N   0  0  0  0  0  0  0  0  0  0  0  0
    5.3880    2.0140    1.6190 C   0  0  0  0  0  0  0  0  0  0  0  0
    4.4110    1.8260    0.6570 C   0  0  0  0  0  0  0  0  0  0  0  0
  2  1  1  1
  2  3  1  0
  2  4  1  0
  4  5  1  0
  5  6  1  0
 29  5  1  1
  6  7  1  0
  7  8  1  1
  7  9  1  0
  9 10  1  1
  9 17  1  0
 10 11  1  0
 11 12  2  0
 11 16  1  0
 12 13  1  0
 13 14  2  0
 14 15  1  0
 15 16  2  0
 17 18  1  0
 18 19  2  0
 18 20  1  0
 21 20  1  1
 21 22  1  0
 21 28  1  0
 22 23  1  0
 24 23  1  1
 24 25  1  0
 24 28  1  0
 25 26  1  0
 26 27  2  0
 28 27  1  1
 29 30  2  0
 29 31  2  0
 29 32  1  0
 32 33  2  0
 32 38  1  0
 33 34  1  0
 34 35  2  0
 35 36  1  0
 35 37  1  0
 37 38  2  0
M  END
