
     RDKit          3D

 37 39  0  0  0  0  0  0  0  0999 V2000
    8.5310   -1.2230    1.5480 C   0  0  0  0  0  0  0  0  0  0  0  0
    7.7990   -0.0550    0.3530 S   0  0  0  0  0  0  0  0  0  0  0  0
    6.5100    0.9050    1.1620 C   0  0  1  0  0  0  0  0  0  0  0  0
    5.2940    0.1350    1.5490 C   0  0  0  0  0  0  0  0  0  0  0  0
    4.6110   -0.4540    0.3770 C   0  0  1  0  0  0  0  0  0  0  0  0
    4.1670    0.6080   -0.6170 C   0  0  0  0  0  0  0  0  0  0  0  0
    5.4730   -1.4450   -0.3350 C   0  0  0  0  0  0  0  0  0  0  0  0
    4.4550   -2.3800   -0.8970 C   0  0  0  0  0  0  0  0  0  0  0  0
    3.3270   -2.2460   -0.2440 C   0  0  0  0  0  0  0  0  0  0  0  0
    2.0950   -3.0230   -0.5380 C   0  0  2  0  0  0  0  0  0  0  0  0
    1.7280   -3.8320    0.6930 C   0  0  0  0  0  0  0  0  0  0  0  0
    2.4140   -4.0180   -1.6290 C   0  0  0  0  0  0  0  0  0  0  0  0
    1.0170   -2.2260   -0.9740 O   0  0  0  0  0  0  0  0  0  0  0  0
    0.4320   -1.2080   -0.2450 C   0  0  0  0  0  0  0  0  0  0  0  0
    0.9020   -0.9760    0.9060 O   0  0  0  0  0  0  0  0  0  0  0  0
   -0.6450   -0.4280   -0.7090 N   0  0  0  0  0  0  0  0  0  0  0  0
   -1.1940    0.6140    0.1220 C   0  0  0  0  0  0  0  0  0  0  0  0
   -2.3500    1.3490   -0.4600 C   0  0  2  0  0  0  0  0  0  0  0  0
   -2.7250    2.4110    0.5670 C   0  0  0  0  0  0  0  0  0  0  0  0
   -1.8150    3.1270    1.1000 O   0  0  0  0  0  0  0  0  0  0  0  0
   -4.0870    2.6110    0.9370 N   0  0  0  0  0  0  0  0  0  0  0  0
   -4.3080    2.9540    2.3260 C   0  0  0  0  0  0  0  0  0  0  0  0
   -5.0750    2.4580   -0.0590 C   0  0  2  0  0  0  0  0  0  0  0  0
   -6.4950    2.4900    0.3970 C   0  0  1  0  0  0  0  0  0  0  0  0
   -6.8140    1.4010    1.3990 C   0  0  0  0  0  0  0  0  0  0  0  0
   -6.9480    3.8610    0.8370 C   0  0  0  0  0  0  0  0  0  0  0  0
   -4.7620    1.2050   -0.8390 C   0  0  0  0  0  0  0  0  0  0  0  0
   -5.4470    0.8630   -1.8800 C   0  0  0  0  0  0  0  0  0  0  0  0
   -5.1850   -0.3360   -2.6530 C   0  0  0  0  0  0  0  0  0  0  0  0
   -4.1890   -1.0970   -2.2260 C   0  0  0  0  0  0  0  0  0  0  0  0
   -3.8500   -2.3560   -2.9810 C   0  0  0  0  0  0  0  0  0  0  0  0
   -3.4750   -0.7940   -1.0430 N   0  0  0  0  0  0  0  0  0  0  0  0
   -3.5770    0.4320   -0.4050 C   0  0  1  0  0  0  0  0  0  0  0  0
    3.4940   -1.2670    0.7490 O   0  0  0  0  0  0  0  0  0  0  0  0
    7.1020    1.4920    2.4190 C   0  0  0  0  0  0  0  0  0  0  0  0
    8.2810    1.2660    2.7370 O   0  0  0  0  0  0  0  0  0  0  0  0
    6.3270    2.2990    3.2430 O   0  0  0  0  0  0  0  0  0  0  0  0
  1  2  1  0
  2  3  1  0
  3  4  1  1
  3 35  1  0
  4  5  1  0
  5  6  1  6
  5  7  1  0
  5 34  1  0
  7  8  1  0
  8  9  2  0
  9 10  1  0
  9 34  1  0
 10 11  1  1
 10 12  1  0
 10 13  1  0
 13 14  1  0
 14 15  2  0
 14 16  1  0
 16 17  1  0
 18 17  1  1
 18 19  1  0
 18 33  1  0
 19 20  2  0
 19 21  1  0
 21 22  1  0
 23 21  1  1
 23 24  1  0
 23 27  1  0
 24 25  1  1
 24 26  1  0
 27 28  2  0
 27 33  1  0
 28 29  1  0
 29 30  2  0
 30 31  1  0
 30 32  1  0
 33 32  1  6
 35 36  2  0
 35 37  1  0
M  END
