
     RDKit          3D

 34 37  0  0  0  0  0  0  0  0999 V2000
    5.9850    4.1810    1.1770 C   0  0  0  0  0  0  0  0  0  0  0  0
    5.2800    3.0140    0.5450 C   0  0  0  0  0  0  0  0  0  0  0  0
    4.0820    3.0690   -0.1080 C   0  0  0  0  0  0  0  0  0  0  0  0
    3.8550    1.7430   -0.5060 C   0  0  0  0  0  0  0  0  0  0  0  0
    4.8910    0.9630   -0.0920 C   0  0  0  0  0  0  0  0  0  0  0  0
    5.1610   -0.4920   -0.2410 C   0  0  2  0  0  0  0  0  0  0  0  0
    5.4370   -0.7480   -1.7100 C   0  0  0  0  0  0  0  0  0  0  0  0
    6.4810   -1.2250   -2.0990 O   0  0  0  0  0  0  0  0  0  0  0  0
    3.8420   -1.5170    0.3710 S   0  0  0  0  0  0  0  0  0  0  0  0
    2.4500   -1.5470   -0.7140 C   0  0  0  0  0  0  0  0  0  0  0  0
    2.4480   -0.9860   -1.9180 N   0  0  0  0  0  0  0  0  0  0  0  0
    1.4200   -1.0180   -2.7960 C   0  0  0  0  0  0  0  0  0  0  0  0
    1.4780   -0.4730   -3.9100 O   0  0  0  0  0  0  0  0  0  0  0  0
    0.2660   -1.6940   -2.4090 C   0  0  0  0  0  0  0  0  0  0  0  0
    0.2340   -2.2800   -1.1830 C   0  0  0  0  0  0  0  0  0  0  0  0
   -0.9050   -2.9860   -0.7660 N   0  0  0  0  0  0  0  0  0  0  0  0
   -2.0000   -2.3560   -0.5420 C   0  0  0  0  0  0  0  0  0  0  0  0
   -2.1480   -0.8900   -0.6990 C   0  0  0  0  0  0  0  0  0  0  0  0
   -2.6640   -0.3280    0.4920 O   0  0  0  0  0  0  0  0  0  0  0  0
   -2.9130    1.0000    0.6750 C   0  0  0  0  0  0  0  0  0  0  0  0
   -2.6740    1.9530   -0.3080 C   0  0  0  0  0  0  0  0  0  0  0  0
   -2.9380    3.2870   -0.0870 C   0  0  0  0  0  0  0  0  0  0  0  0
   -3.4500    3.7220    1.1270 C   0  0  0  0  0  0  0  0  0  0  0  0
   -3.8080    5.4000    1.4660 Cl  0  0  0  0  0  0  0  0  0  0  0  0
   -3.6930    2.7960    2.1150 C   0  0  0  0  0  0  0  0  0  0  0  0
   -3.4200    1.4630    1.8650 C   0  0  0  0  0  0  0  0  0  0  0  0
   -3.7250    0.5290    3.0040 C   0  0  0  0  0  0  0  0  0  0  0  0
   -3.1080   -3.1680   -0.1340 N   0  0  0  0  0  0  0  0  0  0  0  0
   -4.0220   -3.7020   -0.9520 C   0  0  0  0  0  0  0  0  0  0  0  0
   -4.9500   -4.4300   -0.2310 C   0  0  0  0  0  0  0  0  0  0  0  0
   -4.5730   -4.3260    1.0910 C   0  0  0  0  0  0  0  0  0  0  0  0
   -3.4330   -3.5410    1.1130 C   0  0  0  0  0  0  0  0  0  0  0  0
    1.2960   -2.2040   -0.3700 N   0  0  0  0  0  0  0  0  0  0  0  0
    5.7330    1.8010    0.5470 O   0  0  0  0  0  0  0  0  0  0  0  0
  1  2  1  0
  2  3  2  0
  2 34  1  0
  3  4  1  0
  4  5  2  0
  5  6  1  0
  5 34  1  0
  6  7  1  0
  6  9  1  6
  7  8  2  0
  9 10  1  0
 10 11  2  0
 10 33  1  0
 11 12  1  0
 12 13  2  0
 12 14  1  0
 14 15  2  0
 15 16  1  0
 15 33  1  0
 16 17  2  3
 17 18  1  0
 17 28  1  0
 18 19  1  0
 19 20  1  0
 20 21  2  0
 20 26  1  0
 21 22  1  0
 22 23  2  0
 23 24  1  0
 23 25  1  0
 25 26  2  0
 26 27  1  0
 28 29  1  0
 28 32  1  0
 29 30  2  0
 30 31  1  0
 31 32  2  0
M  END
