
     RDKit          3D

 34 37  0  0  0  0  0  0  0  0999 V2000
   -1.6520   -0.1300    0.6360 C   0  0  0  0  0  0  0  0  0  0  0  0
   -1.3170   -0.7630   -0.6620 C   0  0  1  0  0  0  0  0  0  0  0  0
   -0.6840   -2.1190   -0.5900 C   0  0  0  0  0  0  0  0  0  0  0  0
   -2.5740   -0.9130   -1.4930 C   0  0  0  0  0  0  0  0  0  0  0  0
   -3.6360   -1.7020   -0.8630 C   0  0  0  0  0  0  0  0  0  0  0  0
   -3.6680   -3.0350   -0.9830 O   0  0  0  0  0  0  0  0  0  0  0  0
   -4.5410   -3.8190   -0.4710 C   0  0  0  0  0  0  0  0  0  0  0  0
   -5.5830   -3.3340    0.2920 C   0  0  0  0  0  0  0  0  0  0  0  0
   -5.6240   -1.9770    0.4630 C   0  0  0  0  0  0  0  0  0  0  0  0
   -6.5590   -1.4890    1.1530 O   0  0  0  0  0  0  0  0  0  0  0  0
   -4.6420   -1.1540   -0.1210 C   0  0  0  0  0  0  0  0  0  0  0  0
   -4.8220    0.2680    0.0740 C   0  0  0  0  0  0  0  0  0  0  0  0
   -5.1300    1.1200   -0.9940 C   0  0  0  0  0  0  0  0  0  0  0  0
   -5.3400    2.4640   -0.7990 C   0  0  0  0  0  0  0  0  0  0  0  0
   -5.2580    3.0350    0.4480 C   0  0  0  0  0  0  0  0  0  0  0  0
   -4.9550    2.2080    1.5140 C   0  0  0  0  0  0  0  0  0  0  0  0
   -4.8390    2.8810    3.1260 Cl  0  0  0  0  0  0  0  0  0  0  0  0
   -4.7430    0.8410    1.3090 C   0  0  0  0  0  0  0  0  0  0  0  0
   -0.3810    0.1300   -1.4810 C   0  0  0  0  0  0  0  0  0  0  0  0
    1.1260    0.5220   -0.7350 S   0  0  2  0  0  0  0  0  0  0  0  0
    0.9340    1.3570    0.5270 O   0  0  0  0  0  0  0  0  0  0  0  0
    1.8620    1.4780   -1.6780 O   0  0  0  0  0  0  0  0  0  0  0  0
    2.1830   -0.8090   -0.3200 C   0  0  0  0  0  0  0  0  0  0  0  0
    3.4420   -0.3510    0.3160 C   0  0  0  0  0  0  0  0  0  0  0  0
    4.6350    0.0070   -0.2660 C   0  0  0  0  0  0  0  0  0  0  0  0
    5.5000    0.3620    0.7620 C   0  0  0  0  0  0  0  0  0  0  0  0
    6.8800    0.8140    0.6330 C   0  0  0  0  0  0  0  0  0  0  0  0
    7.4760    0.9350   -0.5750 N   0  0  0  0  0  0  0  0  0  0  0  0
    8.7580    1.3540   -0.6840 C   0  0  0  0  0  0  0  0  0  0  0  0
    9.4790    1.6640    0.4470 C   0  0  0  0  0  0  0  0  0  0  0  0
    8.8740    1.5420    1.6780 C   0  0  0  0  0  0  0  0  0  0  0  0
    7.6000    1.1210    1.7150 N   0  0  0  0  0  0  0  0  0  0  0  0
    4.8070    0.2050    1.8910 N   0  0  0  0  0  0  0  0  0  0  0  0
    3.6000   -0.2130    1.6360 N   0  0  0  0  0  0  0  0  0  0  0  0
  2  1  1  1
  2  3  1  0
  2  4  1  0
  2 19  1  0
  4  5  1  0
  5  6  1  0
  5 11  2  0
  6  7  1  0
  7  8  2  0
  8  9  1  0
  9 10  2  0
  9 11  1  0
 11 12  1  0
 12 13  2  0
 12 18  1  0
 13 14  1  0
 14 15  2  0
 15 16  1  0
 16 17  1  0
 16 18  2  0
 20 19  1  6
 20 21  2  0
 20 22  2  0
 20 23  1  0
 23 24  1  0
 24 25  1  0
 24 34  2  0
 25 26  2  0
 26 27  1  0
 26 33  1  0
 27 28  2  0
 27 32  1  0
 28 29  1  0
 29 30  2  0
 30 31  1  0
 31 32  2  0
 33 34  1  0
M  END
