
     RDKit          3D

 35 37  0  0  0  0  0  0  0  0999 V2000
    0.7650   -3.1250    0.6060 C   0  0  0  0  0  0  0  0  0  0  0  0
    2.1550   -2.7120    1.0090 C   0  0  2  0  0  0  0  0  0  0  0  0
    2.7380   -3.9040    1.7800 C   0  0  0  0  0  0  0  0  0  0  0  0
    2.1820   -1.4990    1.8560 C   0  0  0  0  0  0  0  0  0  0  0  0
    1.6110   -0.3150    1.2620 N   0  0  0  0  0  0  0  0  0  0  0  0
    0.7240    0.3930    2.1020 C   0  0  0  0  0  0  0  0  0  0  0  0
   -0.7020    0.2210    1.7670 C   0  0  1  0  0  0  0  0  0  0  0  0
   -1.4770    0.9140    2.7300 O   0  0  0  0  0  0  0  0  0  0  0  0
   -1.1210    0.5890    0.3960 C   0  0  2  0  0  0  0  0  0  0  0  0
   -1.1910    2.1080    0.2990 C   0  0  0  0  0  0  0  0  0  0  0  0
   -1.6260    2.6230   -0.9950 C   0  0  0  0  0  0  0  0  0  0  0  0
   -3.0110    2.8030   -1.1490 C   0  0  0  0  0  0  0  0  0  0  0  0
   -3.5640    3.2790   -2.3120 C   0  0  0  0  0  0  0  0  0  0  0  0
   -2.7810    3.6030   -3.3770 C   0  0  0  0  0  0  0  0  0  0  0  0
   -1.4160    3.4290   -3.2320 C   0  0  0  0  0  0  0  0  0  0  0  0
   -0.8640    2.9510   -2.0690 C   0  0  0  0  0  0  0  0  0  0  0  0
   -2.4820    0.1650    0.0980 N   0  0  0  0  0  0  0  0  0  0  0  0
   -2.7970   -0.6700   -0.9800 C   0  0  0  0  0  0  0  0  0  0  0  0
   -1.8250   -1.0540   -1.7030 O   0  0  0  0  0  0  0  0  0  0  0  0
   -4.0600   -1.0970   -1.3060 O   0  0  0  0  0  0  0  0  0  0  0  0
   -4.2450   -1.9430   -2.4210 C   0  0  1  0  0  0  0  0  0  0  0  0
   -5.0540   -3.1670   -2.0720 C   0  0  0  0  0  0  0  0  0  0  0  0
   -5.9320   -3.3340   -3.2650 C   0  0  0  0  0  0  0  0  0  0  0  0
   -5.9560   -2.1820   -3.9940 O   0  0  0  0  0  0  0  0  0  0  0  0
   -5.1230   -1.2590   -3.4410 C   0  0  0  0  0  0  0  0  0  0  0  0
    2.6630    0.5380    0.2670 S   0  0  1  0  0  0  0  0  0  0  0  0
    3.1100   -0.3620   -0.8850 O   0  0  0  0  0  0  0  0  0  0  0  0
    1.9840    1.6970   -0.3660 O   0  0  0  0  0  0  0  0  0  0  0  0
    4.0790    1.1340    1.1230 C   0  0  0  0  0  0  0  0  0  0  0  0
    4.0860    2.3740    1.7190 C   0  0  0  0  0  0  0  0  0  0  0  0
    5.1800    2.8650    2.3970 C   0  0  0  0  0  0  0  0  0  0  0  0
    6.3000    2.0850    2.4790 C   0  0  0  0  0  0  0  0  0  0  0  0
    7.4270    2.6150    3.1910 N   0  0  0  0  0  0  0  0  0  0  0  0
    6.3200    0.8390    1.8910 C   0  0  0  0  0  0  0  0  0  0  0  0
    5.2160    0.3650    1.2160 C   0  0  0  0  0  0  0  0  0  0  0  0
  2  1  1  1
  2  3  1  0
  2  4  1  0
  4  5  1  0
  5  6  1  0
 26  5  1  1
  6  7  1  0
  7  8  1  1
  7  9  1  0
  9 10  1  1
  9 17  1  0
 10 11  1  0
 11 12  2  0
 11 16  1  0
 12 13  1  0
 13 14  2  0
 14 15  1  0
 15 16  2  0
 17 18  1  0
 18 19  2  0
 18 20  1  0
 21 20  1  1
 21 22  1  0
 21 25  1  0
 22 23  1  0
 23 24  1  0
 24 25  1  0
 26 27  2  0
 26 28  2  0
 26 29  1  0
 29 30  2  0
 29 35  1  0
 30 31  1  0
 31 32  2  0
 32 33  1  0
 32 34  1  0
 34 35  2  0
M  END
