
     RDKit          3D

 34 37  0  0  0  0  0  0  0  0999 V2000
   -1.8230   -0.2980   -1.4480 O   0  0  0  0  0  0  0  0  0  0  0  0
   -2.6050   -0.9690   -0.7930 C   0  0  0  0  0  0  0  0  0  0  0  0
   -2.1490   -2.2380   -0.3330 O   0  0  0  0  0  0  0  0  0  0  0  0
   -0.8300   -2.6100   -0.6770 C   0  0  0  0  0  0  0  0  0  0  0  0
    0.1390   -1.6130   -0.1180 C   0  0  0  0  0  0  0  0  0  0  0  0
    0.6900   -0.6040   -0.3860 N   0  0  0  0  0  0  0  0  0  0  0  0
    1.5290    0.0200    0.4140 N   0  0  0  0  0  0  0  0  0  0  0  0
    1.8260   -0.3370    1.4610 C   0  0  0  0  0  0  0  0  0  0  0  0
    2.6740    0.0060    2.6490 N   0  0  0  0  0  0  0  0  0  0  0  0
    3.8990   -0.3490    2.6300 C   0  0  0  0  0  0  0  0  0  0  0  0
    4.4980   -1.0580    1.5260 N   0  0  0  0  0  0  0  0  0  0  0  0
    4.3650   -2.3920    1.3170 C   0  0  0  0  0  0  0  0  0  0  0  0
    5.0450   -2.7340    0.2050 C   0  0  0  0  0  0  0  0  0  0  0  0
    5.6100   -1.6050   -0.2880 C   0  0  0  0  0  0  0  0  0  0  0  0
    5.2540   -0.5410    0.5640 C   0  0  0  0  0  0  0  0  0  0  0  0
    5.6860    0.8390    0.3450 C   0  0  0  0  0  0  0  0  0  0  0  0
    6.4870    1.1350   -0.7530 C   0  0  0  0  0  0  0  0  0  0  0  0
    6.9220    2.4190   -1.0050 C   0  0  0  0  0  0  0  0  0  0  0  0
    6.5870    3.4730   -0.1890 C   0  0  0  0  0  0  0  0  0  0  0  0
    7.1720    5.0830   -0.5640 Cl  0  0  0  0  0  0  0  0  0  0  0  0
    5.8010    3.2010    0.8940 C   0  0  0  0  0  0  0  0  0  0  0  0
    5.3590    1.8900    1.1500 C   0  0  0  0  0  0  0  0  0  0  0  0
    0.8080   -1.9290    1.5940 S   0  0  0  0  0  0  0  0  0  0  0  0
   -3.9870   -0.5370   -0.4540 C   0  0  0  0  0  0  0  0  0  0  0  0
   -4.6510   -1.3920    0.2460 C   0  0  0  0  0  0  0  0  0  0  0  0
   -5.9520   -1.4930    0.8240 C   0  0  0  0  0  0  0  0  0  0  0  0
   -6.3080   -2.5980    1.5170 C   0  0  0  0  0  0  0  0  0  0  0  0
   -5.4700   -3.6700    1.7080 O   0  0  0  0  0  0  0  0  0  0  0  0
   -4.4690    0.7130   -0.9350 C   0  0  0  0  0  0  0  0  0  0  0  0
   -3.7190    1.5450   -1.6300 C   0  0  0  0  0  0  0  0  0  0  0  0
   -4.2310    2.8710   -2.1400 C   0  0  0  0  0  0  0  0  0  0  0  0
   -5.2800    3.2790   -1.3520 O   0  0  0  0  0  0  0  0  0  0  0  0
   -6.3030    2.3420   -1.5110 C   0  0  0  0  0  0  0  0  0  0  0  0
   -5.8720    1.1290   -0.6970 C   0  0  0  0  0  0  0  0  0  0  0  0
  1  2  2  0
  2  3  1  0
  2 24  1  0
  3  4  1  0
  4  5  1  0
  5  6  2  0
  5 23  1  0
  6  7  1  0
  7  8  2  0
  8  9  1  0
  8 23  1  0
  9 10  2  3
 10 11  1  0
 11 12  1  0
 11 15  1  0
 12 13  2  0
 13 14  1  0
 14 15  2  0
 15 16  1  0
 16 17  2  0
 16 22  1  0
 17 18  1  0
 18 19  2  0
 19 20  1  0
 19 21  1  0
 21 22  2  0
 24 25  2  3
 24 29  1  0
 25 26  1  0
 26 27  2  3
 27 28  1  0
 29 30  2  0
 29 34  1  0
 30 31  1  0
 31 32  1  0
 32 33  1  0
 33 34  1  0
M  END
