
     RDKit          3D

 34 37  0  0  0  0  0  0  0  0999 V2000
   -4.0570    3.9150   -0.0470 C   0  0  0  0  0  0  0  0  0  0  0  0
   -5.0070    3.2510   -0.7230 C   0  0  0  0  0  0  0  0  0  0  0  0
   -5.9420    2.3280   -0.0180 C   0  0  0  0  0  0  0  0  0  0  0  0
   -5.7580    0.9720   -0.6080 C   0  0  0  0  0  0  0  0  0  0  0  0
   -6.5040    0.5720   -1.6870 C   0  0  0  0  0  0  0  0  0  0  0  0
   -6.3180   -0.6820   -2.2130 C   0  0  0  0  0  0  0  0  0  0  0  0
   -5.3780   -1.4980   -1.6280 C   0  0  0  0  0  0  0  0  0  0  0  0
   -5.1770   -2.7630   -2.1430 C   0  0  0  0  0  0  0  0  0  0  0  0
   -6.1210   -3.3130   -3.5350 Cl  0  0  0  0  0  0  0  0  0  0  0  0
   -4.2420   -3.5950   -1.5730 C   0  0  0  0  0  0  0  0  0  0  0  0
   -3.4920   -3.2210   -0.5030 C   0  0  0  0  0  0  0  0  0  0  0  0
   -3.6640   -1.9390    0.0550 C   0  0  0  0  0  0  0  0  0  0  0  0
   -2.8520   -1.5640    1.1960 C   0  0  0  0  0  0  0  0  0  0  0  0
   -2.8410   -0.5080    1.8250 O   0  0  0  0  0  0  0  0  0  0  0  0
   -1.9270   -2.5230    1.6870 O   0  0  0  0  0  0  0  0  0  0  0  0
   -1.0920   -2.2510    2.7960 C   0  0  0  0  0  0  0  0  0  0  0  0
   -0.1930   -1.1070    2.6040 C   0  0  0  0  0  0  0  0  0  0  0  0
   -0.4720    0.1900    2.8800 N   0  0  0  0  0  0  0  0  0  0  0  0
    0.5960    0.9220    2.5730 N   0  0  0  0  0  0  0  0  0  0  0  0
    1.5710    0.1190    2.1000 C   0  0  0  0  0  0  0  0  0  0  0  0
    3.1640    0.6780    1.5760 S   0  0  0  0  0  0  0  0  0  0  0  0
    4.1430   -0.7620    1.0140 C   0  0  1  0  0  0  0  0  0  0  0  0
    3.5050   -1.3080   -0.2230 C   0  0  0  0  0  0  0  0  0  0  0  0
    5.5720   -0.4410    0.8570 C   0  0  0  0  0  0  0  0  0  0  0  0
    6.4030   -1.0290    1.6360 O   0  0  0  0  0  0  0  0  0  0  0  0
    6.1030    0.4630   -0.0820 N   0  0  0  0  0  0  0  0  0  0  0  0
    7.5590    0.6950   -0.1110 C   0  0  0  0  0  0  0  0  0  0  0  0
    7.7600    1.7270   -1.2300 C   0  0  0  0  0  0  0  0  0  0  0  0
    6.9770    2.8360   -0.8650 O   0  0  0  0  0  0  0  0  0  0  0  0
    5.6310    2.6160   -1.1550 C   0  0  0  0  0  0  0  0  0  0  0  0
    5.2610    1.1560   -1.0100 C   0  0  0  0  0  0  0  0  0  0  0  0
    1.0570   -1.1230    2.1300 N   0  0  0  0  0  0  0  0  0  0  0  0
   -4.6000   -1.1190   -0.5250 C   0  0  0  0  0  0  0  0  0  0  0  0
   -4.8110    0.1480   -0.0190 C   0  0  0  0  0  0  0  0  0  0  0  0
  1  2  2  0
  2  3  1  0
  3  4  1  0
  4  5  2  0
  4 34  1  0
  5  6  1  0
  6  7  2  0
  7  8  1  0
  7 33  1  0
  8  9  1  0
  8 10  2  0
 10 11  1  0
 11 12  2  0
 12 13  1  0
 12 33  1  0
 13 14  2  0
 13 15  1  0
 15 16  1  0
 16 17  1  0
 17 18  2  0
 17 32  1  0
 18 19  1  0
 19 20  2  0
 20 21  1  0
 20 32  1  0
 21 22  1  0
 22 23  1  6
 22 24  1  0
 24 25  2  0
 24 26  1  0
 26 27  1  0
 26 31  1  0
 27 28  1  0
 28 29  1  0
 29 30  1  0
 30 31  1  0
 33 34  2  0
M  END
