
     RDKit          3D

 34 36  0  0  0  0  0  0  0  0999 V2000
   -0.3330   -3.4420   -0.5520 C   0  0  0  0  0  0  0  0  0  0  0  0
   -0.8310   -2.4350    0.2750 O   0  0  0  0  0  0  0  0  0  0  0  0
   -1.2850   -1.1990   -0.1180 C   0  0  0  0  0  0  0  0  0  0  0  0
   -2.6160   -1.0350   -0.4350 C   0  0  0  0  0  0  0  0  0  0  0  0
   -3.5900   -2.1310   -0.3390 C   0  0  0  0  0  0  0  0  0  0  0  0
   -4.1380   -2.4110    1.0110 C   0  0  2  0  0  0  0  0  0  0  0  0
   -5.1280   -3.5830    0.9010 C   0  0  0  0  0  0  0  0  0  0  0  0
   -4.9560   -1.2550    1.5620 C   0  0  0  0  0  0  0  0  0  0  0  0
   -3.1380   -2.8000    2.0610 C   0  0  0  0  0  0  0  0  0  0  0  0
   -2.9960    0.2180   -0.8210 N   0  0  0  0  0  0  0  0  0  0  0  0
   -2.1390    1.2540   -0.8970 C   0  0  0  0  0  0  0  0  0  0  0  0
   -2.5620    2.3820   -1.2610 O   0  0  0  0  0  0  0  0  0  0  0  0
   -0.8090    1.0990   -0.5810 C   0  0  0  0  0  0  0  0  0  0  0  0
    0.0840    2.2440   -0.6730 C   0  0  0  0  0  0  0  0  0  0  0  0
   -0.3550    3.3870   -1.0430 N   0  0  0  0  0  0  0  0  0  0  0  0
    0.5860    4.4760   -1.1110 C   0  0  0  0  0  0  0  0  0  0  0  0
    1.8720    4.4060   -1.3920 C   0  0  0  0  0  0  0  0  0  0  0  0
    2.4970    5.7540   -1.3620 C   0  0  0  0  0  0  0  0  0  0  0  0
    1.3650    6.6360   -1.0150 C   0  0  0  0  0  0  0  0  0  0  0  0
    1.4640    8.3950   -0.8220 Cl  0  0  0  0  0  0  0  0  0  0  0  0
    0.2920    5.8820   -0.8780 C   0  0  0  0  0  0  0  0  0  0  0  0
   -1.0810    6.3900   -0.5250 C   0  0  0  0  0  0  0  0  0  0  0  0
   -0.3860   -0.1470   -0.1880 C   0  0  0  0  0  0  0  0  0  0  0  0
    0.9960   -0.4120    0.1630 C   0  0  0  0  0  0  0  0  0  0  0  0
    1.3510   -0.2640    1.3550 O   0  0  0  0  0  0  0  0  0  0  0  0
    1.8510   -0.8240   -0.8890 N   0  0  0  0  0  0  0  0  0  0  0  0
    2.9930   -1.2720   -0.7620 C   0  0  0  0  0  0  0  0  0  0  0  0
    3.9140   -1.7000   -1.6450 N   0  0  0  0  0  0  0  0  0  0  0  0
    5.0580   -2.1330   -1.2650 C   0  0  0  0  0  0  0  0  0  0  0  0
    5.4010   -2.1830    0.0720 C   0  0  0  0  0  0  0  0  0  0  0  0
    6.5440   -2.5940    0.7980 C   0  0  0  0  0  0  0  0  0  0  0  0
    6.5490   -2.4990    2.2810 C   0  0  0  0  0  0  0  0  0  0  0  0
    7.5760   -3.0450    0.2520 O   0  0  0  0  0  0  0  0  0  0  0  0
    3.8650   -1.5180    0.8210 S   0  0  0  0  0  0  0  0  0  0  0  0
  1  2  1  0
  2  3  1  0
  3  4  2  0
  3 23  1  0
  4  5  1  0
  4 10  1  0
  5  6  1  0
  6  7  1  6
  6  8  1  0
  6  9  1  0
 10 11  1  0
 11 12  2  0
 11 13  1  0
 13 14  1  0
 13 23  2  0
 14 15  2  3
 15 16  1  0
 16 17  2  0
 16 21  1  0
 17 18  1  0
 18 19  1  0
 19 20  1  0
 19 21  2  0
 21 22  1  0
 23 24  1  0
 24 25  2  0
 24 26  1  0
 26 27  2  3
 27 28  1  0
 27 34  1  0
 28 29  1  0
 29 30  2  0
 30 31  1  0
 30 34  1  0
 31 32  1  0
 31 33  2  0
M  END
