
     RDKit          3D

 34 37  0  0  0  0  0  0  0  0999 V2000
   -4.3890   -0.6920   -1.8730 C   0  0  0  0  0  0  0  0  0  0  0  0
   -4.9870    0.6670   -1.8570 C   0  0  0  0  0  0  0  0  0  0  0  0
   -5.1400    1.3510   -0.5510 C   0  0  2  0  0  0  0  0  0  0  0  0
   -3.9550    1.6830    0.2120 C   0  0  0  0  0  0  0  0  0  0  0  0
   -4.0030    2.7560    0.9310 O   0  0  0  0  0  0  0  0  0  0  0  0
   -2.7770    0.9640    0.2480 N   0  0  0  0  0  0  0  0  0  0  0  0
   -1.5900    1.3110    1.0580 C   0  0  0  0  0  0  0  0  0  0  0  0
   -0.5280    0.2650    0.7440 C   0  0  0  0  0  0  0  0  0  0  0  0
    0.2000   -0.0810   -0.0900 N   0  0  0  0  0  0  0  0  0  0  0  0
    1.0470   -1.0860   -0.0820 C   0  0  0  0  0  0  0  0  0  0  0  0
    1.9970   -1.3570   -1.2310 C   0  0  0  0  0  0  0  0  0  0  0  0
    3.2120   -0.5490   -0.9570 C   0  0  0  0  0  0  0  0  0  0  0  0
    3.7760   -0.0800   -2.0050 O   0  0  0  0  0  0  0  0  0  0  0  0
    3.7070   -0.3030    0.3170 O   0  0  0  0  0  0  0  0  0  0  0  0
    4.8590    0.5140    0.3200 C   0  0  0  0  0  0  0  0  0  0  0  0
    4.6970    1.8850    0.1840 C   0  0  0  0  0  0  0  0  0  0  0  0
    3.0860    2.5740    0.0120 Cl  0  0  0  0  0  0  0  0  0  0  0  0
    5.8110    2.7020    0.1850 C   0  0  0  0  0  0  0  0  0  0  0  0
    7.0840    2.1880    0.3180 C   0  0  0  0  0  0  0  0  0  0  0  0
    7.2610    0.8150    0.4540 C   0  0  0  0  0  0  0  0  0  0  0  0
    6.1300    0.0290    0.4480 C   0  0  0  0  0  0  0  0  0  0  0  0
    6.5800   -1.3450    0.5970 C   0  0  0  0  0  0  0  0  0  0  0  0
    7.8910   -1.3980    0.6890 C   0  0  0  0  0  0  0  0  0  0  0  0
    8.4660   -0.0360    0.6110 C   0  0  0  0  0  0  0  0  0  0  0  0
    1.0830   -1.8400    1.0640 C   0  0  0  0  0  0  0  0  0  0  0  0
    1.8250   -3.0470    1.4810 C   0  0  0  0  0  0  0  0  0  0  0  0
   -0.1360   -1.0140    2.0660 S   0  0  0  0  0  0  0  0  0  0  0  0
   -6.0950    0.6060    0.3040 N   0  0  0  0  0  0  0  0  0  0  0  0
   -5.7070   -0.0720    1.3670 C   0  0  0  0  0  0  0  0  0  0  0  0
   -6.6240   -0.7390    2.1130 N   0  0  0  0  0  0  0  0  0  0  0  0
   -7.9590   -0.7400    1.8070 C   0  0  0  0  0  0  0  0  0  0  0  0
   -8.3450   -0.0260    0.6930 C   0  0  0  0  0  0  0  0  0  0  0  0
   -7.3760    0.6490   -0.0550 C   0  0  0  0  0  0  0  0  0  0  0  0
   -7.7130    1.2990   -1.0710 O   0  0  0  0  0  0  0  0  0  0  0  0
  1  2  1  0
  3  2  1  6
  3  4  1  0
  3 28  1  0
  4  5  2  0
  4  6  1  0
  6  7  1  0
  7  8  1  0
  8  9  2  0
  8 27  1  0
  9 10  1  0
 10 11  1  0
 10 25  2  0
 11 12  1  0
 12 13  2  0
 12 14  1  0
 14 15  1  0
 15 16  2  0
 15 21  1  0
 16 17  1  0
 16 18  1  0
 18 19  2  0
 19 20  1  0
 20 21  2  0
 20 24  1  0
 21 22  1  0
 22 23  2  0
 23 24  1  0
 25 26  1  0
 25 27  1  0
 28 29  1  0
 28 33  1  0
 29 30  2  0
 30 31  1  0
 31 32  2  0
 32 33  1  0
 33 34  2  0
M  END
