
     RDKit          3D

 38 42  0  0  0  0  0  0  0  0999 V2000
    7.8230   -0.6940   -2.0580 C   0  0  0  0  0  0  0  0  0  0  0  0
    8.0640    0.6420   -1.4300 C   0  0  0  0  0  0  0  0  0  0  0  0
    7.2320    0.7280   -0.1950 C   0  0  0  0  0  0  0  0  0  0  0  0
    6.4100   -0.1890    0.4080 C   0  0  0  0  0  0  0  0  0  0  0  0
    5.7580    0.1630    1.5250 C   0  0  0  0  0  0  0  0  0  0  0  0
    4.8370   -0.7860    2.2600 C   0  0  0  0  0  0  0  0  0  0  0  0
    3.3940   -0.5090    2.0270 C   0  0  0  0  0  0  0  0  0  0  0  0
    3.0620   -0.6040    0.6430 N   0  0  0  0  0  0  0  0  0  0  0  0
    1.6930   -0.4110    0.1690 C   0  0  0  0  0  0  0  0  0  0  0  0
    0.8490   -0.1690    1.0540 O   0  0  0  0  0  0  0  0  0  0  0  0
    1.4510   -0.5170   -1.2400 C   0  0  0  0  0  0  0  0  0  0  0  0
    0.1900   -0.1370   -1.8900 C   0  0  0  0  0  0  0  0  0  0  0  0
   -1.0230   -0.7020   -1.3760 N   0  0  0  0  0  0  0  0  0  0  0  0
   -1.2440   -2.1120   -1.6200 C   0  0  0  0  0  0  0  0  0  0  0  0
   -0.7380   -2.6810   -2.6260 O   0  0  0  0  0  0  0  0  0  0  0  0
   -2.0870   -2.8120   -0.6230 C   0  0  0  0  0  0  0  0  0  0  0  0
   -3.3930   -2.0520   -0.5680 C   0  0  1  0  0  0  0  0  0  0  0  0
   -3.9980   -2.2810   -1.9700 C   0  0  0  0  0  0  0  0  0  0  0  0
   -4.2790   -2.5910    0.4420 N   0  0  0  0  0  0  0  0  0  0  0  0
   -4.6850   -3.9470    0.1360 C   0  0  0  0  0  0  0  0  0  0  0  0
   -4.3910   -4.8120    1.3210 C   0  0  0  0  0  0  0  0  0  0  0  0
   -3.4080   -4.0210    2.1500 C   0  0  0  0  0  0  0  0  0  0  0  0
   -3.7680   -2.6100    1.7680 C   0  0  0  0  0  0  0  0  0  0  0  0
   -3.2230   -0.6130   -0.3240 C   0  0  0  0  0  0  0  0  0  0  0  0
   -4.2860    0.1830    0.3320 C   0  0  0  0  0  0  0  0  0  0  0  0
   -2.0700   -0.0160   -0.7290 C   0  0  0  0  0  0  0  0  0  0  0  0
   -2.0730    1.4180   -0.6550 C   0  0  0  0  0  0  0  0  0  0  0  0
   -1.1720    2.2350   -0.0780 C   0  0  0  0  0  0  0  0  0  0  0  0
   -1.2640    3.6400   -0.0920 C   0  0  0  0  0  0  0  0  0  0  0  0
   -2.3250    4.2310   -0.7260 C   0  0  0  0  0  0  0  0  0  0  0  0
   -3.2600    3.4160   -1.3260 C   0  0  0  0  0  0  0  0  0  0  0  0
   -3.1460    2.0550   -1.2970 C   0  0  0  0  0  0  0  0  0  0  0  0
   -4.3180    4.2920   -1.9630 C   0  0  0  0  0  0  0  0  0  0  0  0
   -3.5500    5.5820   -2.1770 C   0  0  0  0  0  0  0  0  0  0  0  0
   -2.7150    5.6770   -0.9110 C   0  0  0  0  0  0  0  0  0  0  0  0
    5.9480    1.4310    2.0090 C   0  0  0  0  0  0  0  0  0  0  0  0
    5.3590    2.0760    3.2090 C   0  0  0  0  0  0  0  0  0  0  0  0
    7.0730    2.1450    0.8640 S   0  0  0  0  0  0  0  0  0  0  0  0
  1  2  1  0
  2  3  1  0
  3  4  2  0
  3 38  1  0
  4  5  1  0
  5  6  1  0
  5 36  2  0
  6  7  1  0
  7  8  1  0
  8  9  1  0
  9 10  2  0
  9 11  1  0
 11 12  1  0
 12 13  1  0
 13 14  1  0
 13 26  1  0
 14 15  2  0
 14 16  1  0
 16 17  1  0
 17 18  1  6
 17 19  1  0
 17 24  1  0
 19 20  1  0
 19 23  1  0
 20 21  1  0
 21 22  1  0
 22 23  1  0
 24 25  1  0
 24 26  2  0
 26 27  1  0
 27 28  2  0
 27 32  1  0
 28 29  1  0
 29 30  2  0
 30 31  1  0
 30 35  1  0
 31 32  2  0
 31 33  1  0
 33 34  1  0
 34 35  1  0
 36 37  1  0
 36 38  1  0
M  END
