
     RDKit          3D

 38 41  0  0  0  0  0  0  0  0999 V2000
   10.8570   -1.6820    0.7220 C   0  0  0  0  0  0  0  0  0  0  0  0
   10.9460   -0.7010    1.8870 C   0  0  0  0  0  0  0  0  0  0  0  0
    9.7410   -0.7220    2.6840 N   0  0  0  0  0  0  0  0  0  0  0  0
    8.4810   -0.3510    2.1360 C   0  0  0  0  0  0  0  0  0  0  0  0
    8.3940    0.0910    0.8380 C   0  0  0  0  0  0  0  0  0  0  0  0
    7.1250    0.4320    0.3580 C   0  0  0  0  0  0  0  0  0  0  0  0
    5.9980    0.3490    1.1000 C   0  0  0  0  0  0  0  0  0  0  0  0
    4.7260    0.6480    0.6140 N   0  0  0  0  0  0  0  0  0  0  0  0
    4.4080    0.5190   -0.7830 C   0  0  0  0  0  0  0  0  0  0  0  0
    5.2400    0.1290   -1.6210 O   0  0  0  0  0  0  0  0  0  0  0  0
    3.1320    0.8350   -1.2280 O   0  0  0  0  0  0  0  0  0  0  0  0
    2.6860    0.7390   -2.5710 C   0  0  0  0  0  0  0  0  0  0  0  0
    1.2620    1.2000   -2.6610 C   0  0  0  0  0  0  0  0  0  0  0  0
    0.9280    2.2250   -3.4350 C   0  0  0  0  0  0  0  0  0  0  0  0
   -0.4410    2.6960   -3.5440 C   0  0  0  0  0  0  0  0  0  0  0  0
   -1.4470    2.1060   -2.8520 C   0  0  0  0  0  0  0  0  0  0  0  0
   -2.7170    2.6320   -3.0230 O   0  0  0  0  0  0  0  0  0  0  0  0
   -2.9250    4.0400   -2.7580 C   0  0  0  0  0  0  0  0  0  0  0  0
   -1.1040    0.9970   -2.0090 C   0  0  0  0  0  0  0  0  0  0  0  0
   -1.9870    0.3320   -1.2860 C   0  0  0  0  0  0  0  0  0  0  0  0
   -1.3840   -0.7820   -0.4790 C   0  0  0  0  0  0  0  0  0  0  0  0
   -0.1270   -0.9920   -0.5420 O   0  0  0  0  0  0  0  0  0  0  0  0
   -3.4050    0.4600   -1.2120 C   0  0  0  0  0  0  0  0  0  0  0  0
   -4.1390    1.2510   -1.8670 O   0  0  0  0  0  0  0  0  0  0  0  0
   -4.1710   -0.3620   -0.3080 N   0  0  0  0  0  0  0  0  0  0  0  0
   -5.6110   -0.2300   -0.2440 C   0  0  2  0  0  0  0  0  0  0  0  0
   -6.0090    0.8020    0.8140 C   0  0  0  0  0  0  0  0  0  0  0  0
   -7.8060    0.4680    0.8780 S   0  0  0  0  0  0  0  0  0  0  0  0
   -7.8090   -1.1070   -0.0760 C   0  0  2  0  0  0  0  0  0  0  0  0
   -8.6330   -2.1690    0.5960 C   0  0  0  0  0  0  0  0  0  0  0  0
   -8.4710   -1.9910    2.0820 C   0  0  2  0  0  0  0  0  0  0  0  0
   -9.1820   -0.8540    2.4580 O   0  0  0  0  0  0  0  0  0  0  0  0
   -7.0390   -1.8090    2.4950 C   0  0  0  0  0  0  0  0  0  0  0  0
   -6.0230   -2.0450    1.4440 C   0  0  0  0  0  0  0  0  0  0  0  0
   -6.3300   -1.4790    0.0840 C   0  0  2  0  0  0  0  0  0  0  0  0
    0.2620    0.5900   -1.9530 O   0  0  0  0  0  0  0  0  0  0  0  0
    6.0990   -0.0980    2.4090 C   0  0  0  0  0  0  0  0  0  0  0  0
    7.3260   -0.4470    2.9280 C   0  0  0  0  0  0  0  0  0  0  0  0
  1  2  1  0
  2  3  1  0
  3  4  1  0
  4  5  2  0
  4 38  1  0
  5  6  1  0
  6  7  2  0
  7  8  1  0
  7 37  1  0
  8  9  1  0
  9 10  2  0
  9 11  1  0
 11 12  1  0
 12 13  1  0
 13 14  2  0
 13 36  1  0
 14 15  1  0
 15 16  2  0
 16 17  1  0
 16 19  1  0
 17 18  1  0
 19 20  2  3
 19 36  1  0
 20 21  1  0
 20 23  1  0
 21 22  2  0
 23 24  2  0
 23 25  1  0
 26 25  1  1
 26 27  1  0
 26 35  1  0
 27 28  1  0
 28 29  1  0
 29 30  1  1
 29 35  1  0
 30 31  1  0
 31 32  1  6
 31 33  1  0
 33 34  1  0
 35 34  1  1
 37 38  2  0
M  END
