
     RDKit          3D

 38 41  0  0  0  0  0  0  0  0999 V2000
   -2.8340    6.2990    0.2150 C   0  0  0  0  0  0  0  0  0  0  0  0
   -3.1590    5.0370    0.0440 C   0  0  0  0  0  0  0  0  0  0  0  0
   -2.4750    4.0620   -0.6510 C   0  0  0  0  0  0  0  0  0  0  0  0
   -3.1870    2.8770   -0.5620 C   0  0  0  0  0  0  0  0  0  0  0  0
   -2.8530    1.5830   -1.1470 C   0  0  2  0  0  0  0  0  0  0  0  0
   -3.9810    0.7750   -1.3570 O   0  0  0  0  0  0  0  0  0  0  0  0
   -1.6770    0.8250   -0.6440 C   0  0  2  0  0  0  0  0  0  0  0  0
   -1.6140   -0.4640   -1.4780 C   0  0  0  0  0  0  0  0  0  0  0  0
   -2.7030   -1.3080   -1.4910 N   0  0  0  0  0  0  0  0  0  0  0  0
   -3.1750   -2.1200   -0.4830 C   0  0  2  0  0  0  0  0  0  0  0  0
   -2.0980   -3.1360   -0.1140 C   0  0  0  0  0  0  0  0  0  0  0  0
   -2.7530   -4.0530    0.9280 C   0  0  0  0  0  0  0  0  0  0  0  0
   -4.3320   -4.3630    0.0720 S   0  0  0  0  0  0  0  0  0  0  0  0
   -4.1510   -5.7090   -0.6440 O   0  0  0  0  0  0  0  0  0  0  0  0
   -4.2580   -3.0450   -1.1670 C   0  0  0  0  0  0  0  0  0  0  0  0
   -1.6220    0.5490    0.7640 C   0  0  2  0  0  0  0  0  0  0  0  0
   -1.6100    1.7540    1.7260 C   0  0  0  0  0  0  0  0  0  0  0  0
   -1.3330    1.0300    3.0670 C   0  0  0  0  0  0  0  0  0  0  0  0
   -1.0530   -0.4380    2.6790 C   0  0  0  0  0  0  0  0  0  0  0  0
   -0.4740   -0.1190    1.3170 N   0  0  0  0  0  0  0  0  0  0  0  0
    0.8290   -0.5000    1.0360 C   0  0  0  0  0  0  0  0  0  0  0  0
    1.4690   -1.2200    1.9330 O   0  0  0  0  0  0  0  0  0  0  0  0
    1.6280   -0.2320   -0.0990 N   0  0  0  0  0  0  0  0  0  0  0  0
    2.9570   -0.6740   -0.3160 C   0  0  0  0  0  0  0  0  0  0  0  0
    3.5730   -1.7150    0.2720 C   0  0  0  0  0  0  0  0  0  0  0  0
    4.9060   -2.0210   -0.0170 C   0  0  0  0  0  0  0  0  0  0  0  0
    5.5050   -3.1000    0.6060 O   0  0  0  0  0  0  0  0  0  0  0  0
    4.8970   -3.9530    1.5280 C   0  0  0  0  0  0  0  0  0  0  0  0
    5.6520   -1.2870   -0.9050 C   0  0  0  0  0  0  0  0  0  0  0  0
    6.9880   -1.6080   -1.1820 O   0  0  0  0  0  0  0  0  0  0  0  0
    7.9700   -0.9940   -0.3570 C   0  0  0  0  0  0  0  0  0  0  0  0
    5.0300   -0.2080   -1.5210 C   0  0  0  0  0  0  0  0  0  0  0  0
    5.7960    0.5190   -2.4110 O   0  0  0  0  0  0  0  0  0  0  0  0
    5.3430    1.6360   -3.1300 C   0  0  0  0  0  0  0  0  0  0  0  0
    3.7150    0.0760   -1.2220 C   0  0  0  0  0  0  0  0  0  0  0  0
   -4.2480    3.1620    0.1620 O   0  0  0  0  0  0  0  0  0  0  0  0
   -4.2810    4.3990    0.5400 C   0  0  0  0  0  0  0  0  0  0  0  0
   -5.2280    4.9430    1.2690 C   0  0  0  0  0  0  0  0  0  0  0  0
  1  2  2  0
  2  3  1  0
  2 37  1  0
  3  4  2  0
  4  5  1  0
  4 36  1  0
  5  6  1  1
  5  7  1  0
  7  8  1  6
  7 16  1  0
  8  9  1  0
 10  9  1  6
 10 11  1  0
 10 15  1  0
 11 12  1  0
 13 12  1  1
 13 14  2  0
 13 15  1  0
 16 17  1  1
 16 20  1  0
 17 18  1  0
 18 19  1  0
 19 20  1  0
 20 21  1  0
 21 22  2  0
 21 23  1  0
 23 24  1  0
 24 25  2  0
 24 35  1  0
 25 26  1  0
 26 27  1  0
 26 29  2  0
 27 28  1  0
 29 30  1  0
 29 32  1  0
 30 31  1  0
 32 33  1  0
 32 35  2  0
 33 34  1  0
 36 37  1  0
 37 38  2  0
M  END
