
     RDKit          3D

 38 41  0  0  0  0  0  0  0  0999 V2000
    0.2960   -6.9130   -1.2010 C   0  0  0  0  0  0  0  0  0  0  0  0
    1.3720   -5.9700   -1.6980 C   0  0  0  0  0  0  0  0  0  0  0  0
    1.3550   -4.7580   -0.9890 O   0  0  0  0  0  0  0  0  0  0  0  0
    0.2550   -3.9370   -0.9720 C   0  0  0  0  0  0  0  0  0  0  0  0
   -0.7540   -4.2870   -1.6080 O   0  0  0  0  0  0  0  0  0  0  0  0
    0.2930   -2.6650   -0.2080 C   0  0  1  0  0  0  0  0  0  0  0  0
   -0.9920   -2.0210   -0.4640 N   0  0  0  0  0  0  0  0  0  0  0  0
   -1.3510   -0.7590    0.0420 C   0  0  0  0  0  0  0  0  0  0  0  0
   -0.4560   -0.1870    0.7580 O   0  0  0  0  0  0  0  0  0  0  0  0
   -2.6170   -0.0890   -0.1840 C   0  0  0  0  0  0  0  0  0  0  0  0
   -3.6780   -0.4320   -0.8560 C   0  0  0  0  0  0  0  0  0  0  0  0
   -3.7800   -1.6870   -1.5730 N   0  0  0  0  0  0  0  0  0  0  0  0
   -4.7470    0.4690   -0.8510 N   0  0  0  0  0  0  0  0  0  0  0  0
   -4.3650    1.8570   -0.6770 C   0  0  1  0  0  0  0  0  0  0  0  0
   -5.4090    2.6610   -0.0370 C   0  0  0  0  0  0  0  0  0  0  0  0
   -6.7040    2.5430   -0.4520 C   0  0  0  0  0  0  0  0  0  0  0  0
   -7.7480    3.2720    0.1080 C   0  0  0  0  0  0  0  0  0  0  0  0
   -7.4900    4.1630    1.1310 C   0  0  0  0  0  0  0  0  0  0  0  0
   -8.5600    4.9710    1.7700 C   0  0  0  0  0  0  0  0  0  0  0  0
   -6.1890    4.2910    1.5570 C   0  0  0  0  0  0  0  0  0  0  0  0
   -5.1480    3.5610    0.9960 C   0  0  0  0  0  0  0  0  0  0  0  0
   -2.9890    1.5370    0.4880 S   0  0  0  0  0  0  0  0  0  0  0  0
   -1.8400    2.4650    0.2080 O   0  0  0  0  0  0  0  0  0  0  0  0
    0.5060   -2.9080    1.2490 C   0  0  0  0  0  0  0  0  0  0  0  0
    1.8310   -3.5640    1.5010 C   0  0  0  0  0  0  0  0  0  0  0  0
    2.9740   -2.8290    0.8700 C   0  0  0  0  0  0  0  0  0  0  0  0
    2.5090   -1.5710    0.2190 C   0  0  1  0  0  0  0  0  0  0  0  0
    3.5980   -0.8730   -0.5630 C   0  0  0  0  0  0  0  0  0  0  0  0
    4.7690   -0.4790    0.2770 C   0  0  0  0  0  0  0  0  0  0  0  0
    4.4730    0.3850    1.3050 O   0  0  0  0  0  0  0  0  0  0  0  0
    3.9340    1.5750    0.8990 C   0  0  0  0  0  0  0  0  0  0  0  0
    4.8080    2.3860   -0.0140 C   0  0  1  0  0  0  0  0  0  0  0  0
    4.0900    3.7230   -0.2220 C   0  0  0  0  0  0  0  0  0  0  0  0
    4.7420    4.3710   -1.2510 O   0  0  0  0  0  0  0  0  0  0  0  0
    6.0500    3.9830   -1.4230 C   0  0  0  0  0  0  0  0  0  0  0  0
    6.7430    3.5800   -0.1580 C   0  0  0  0  0  0  0  0  0  0  0  0
    6.0040    2.6920    0.6170 O   0  0  0  0  0  0  0  0  0  0  0  0
    1.3820   -1.8070   -0.7560 C   0  0  0  0  0  0  0  0  0  0  0  0
  1  2  1  0
  2  3  1  0
  3  4  1  0
  4  5  2  0
  4  6  1  0
  6  7  1  1
  6 24  1  0
  6 38  1  0
  7  8  1  0
  8  9  2  0
  8 10  1  0
 10 11  2  0
 22 10  1  6
 11 12  1  0
 11 13  1  0
 13 14  1  0
 14 15  1  1
 14 22  1  0
 15 16  2  0
 15 21  1  0
 16 17  1  0
 17 18  2  0
 18 19  1  0
 18 20  1  0
 20 21  2  0
 22 23  2  0
 24 25  1  0
 25 26  1  0
 26 27  1  0
 27 28  1  6
 27 38  1  0
 28 29  1  0
 29 30  1  0
 30 31  1  0
 32 31  1  1
 32 33  1  0
 32 37  1  0
 33 34  1  0
 34 35  1  0
 35 36  1  0
 36 37  1  0
M  END
