
     RDKit          3D

 38 41  0  0  0  0  0  0  0  0999 V2000
    7.4800   -0.3750   -2.3130 C   0  0  0  0  0  0  0  0  0  0  0  0
    7.2740   -1.0710   -0.9930 C   0  0  0  0  0  0  0  0  0  0  0  0
    6.3590   -0.2510   -0.1830 C   0  0  0  0  0  0  0  0  0  0  0  0
    6.9220    0.5750    0.7920 C   0  0  0  0  0  0  0  0  0  0  0  0
    6.0870    1.3840    1.5490 C   0  0  0  0  0  0  0  0  0  0  0  0
    4.7050    1.3860    1.3580 C   0  0  0  0  0  0  0  0  0  0  0  0
    3.8730    2.1810    2.3000 C   0  0  0  0  0  0  0  0  0  0  0  0
    4.1160    0.5870    0.4060 C   0  0  0  0  0  0  0  0  0  0  0  0
    2.8580    0.5080    0.1270 O   0  0  0  0  0  0  0  0  0  0  0  0
    1.7600    0.7520   -0.6200 C   0  0  0  0  0  0  0  0  0  0  0  0
    0.5900    0.2820    0.1510 C   0  0  0  0  0  0  0  0  0  0  0  0
   -0.7950    0.1070   -0.3800 C   0  0  0  0  0  0  0  0  0  0  0  0
   -1.5680   -0.1480    0.9770 N   0  0  0  0  0  0  0  0  0  0  0  0
   -1.3140   -1.4100    1.4380 C   0  0  0  0  0  0  0  0  0  0  0  0
   -2.4400   -2.3430    1.6730 C   0  0  0  0  0  0  0  0  0  0  0  0
   -3.1830   -2.1670    2.8920 C   0  0  0  0  0  0  0  0  0  0  0  0
   -3.9890   -3.1800    3.3640 C   0  0  0  0  0  0  0  0  0  0  0  0
   -4.1280   -4.3850    2.7040 C   0  0  0  0  0  0  0  0  0  0  0  0
   -3.4440   -4.5520    1.5570 C   0  0  0  0  0  0  0  0  0  0  0  0
   -2.6260   -3.5350    1.0750 C   0  0  0  0  0  0  0  0  0  0  0  0
   -2.0550   -3.7670   -0.2140 N   0  0  0  0  0  0  0  0  0  0  0  0
   -2.8700   -4.4300   -1.2610 C   0  0  0  0  0  0  0  0  0  0  0  0
   -4.0370   -5.1920   -0.6610 C   0  0  0  0  0  0  0  0  0  0  0  0
   -3.5510   -5.7550    0.6790 C   0  0  0  0  0  0  0  0  0  0  0  0
   -2.0730    1.0700    1.4210 C   0  0  0  0  0  0  0  0  0  0  0  0
   -2.3680    1.2650    2.6350 O   0  0  0  0  0  0  0  0  0  0  0  0
   -2.3080    2.1890    0.4670 C   0  0  0  0  0  0  0  0  0  0  0  0
   -2.9020    3.7560    1.0850 S   0  0  0  0  0  0  0  0  0  0  0  0
   -3.3330    4.7390   -0.3430 C   0  0  0  0  0  0  0  0  0  0  0  0
   -4.6120    4.8040   -0.8400 C   0  0  0  0  0  0  0  0  0  0  0  0
   -4.9520    5.5430   -1.9870 C   0  0  0  0  0  0  0  0  0  0  0  0
   -6.2680    5.5600   -2.5290 C   0  0  0  0  0  0  0  0  0  0  0  0
   -7.1900    4.8510   -2.1310 O   0  0  0  0  0  0  0  0  0  0  0  0
   -3.9120    6.2190   -2.6110 C   0  0  0  0  0  0  0  0  0  0  0  0
   -2.6340    6.1530   -2.1180 C   0  0  0  0  0  0  0  0  0  0  0  0
   -2.3770    5.4270   -1.0120 N   0  0  0  0  0  0  0  0  0  0  0  0
    5.0160   -0.2310   -0.3530 C   0  0  0  0  0  0  0  0  0  0  0  0
    4.3280   -1.1200   -1.3700 C   0  0  0  0  0  0  0  0  0  0  0  0
  1  2  1  0
  2  3  1  0
  3  4  2  0
  3 37  1  0
  4  5  1  0
  5  6  2  0
  6  7  1  0
  6  8  1  0
  8  9  1  0
  8 37  2  0
  9 10  1  0
 10 11  1  0
 11 12  1  0
 12 13  1  0
 13 14  1  0
 13 25  1  0
 14 15  1  0
 15 16  2  0
 15 20  1  0
 16 17  1  0
 17 18  2  0
 18 19  1  0
 19 20  2  0
 19 24  1  0
 20 21  1  0
 21 22  1  0
 22 23  1  0
 23 24  1  0
 25 26  2  0
 25 27  1  0
 27 28  1  0
 28 29  1  0
 29 30  2  0
 29 36  1  0
 30 31  1  0
 31 32  1  0
 31 34  2  0
 32 33  2  0
 34 35  1  0
 35 36  2  0
 37 38  1  0
M  END
