
     RDKit          3D

 37 40  0  0  0  0  0  0  0  0999 V2000
   -7.6410    2.5370    1.7300 C   0  0  0  0  0  0  0  0  0  0  0  0
   -6.5750    1.7880    2.3260 O   0  0  0  0  0  0  0  0  0  0  0  0
   -5.4010    1.6140    1.5760 C   0  0  0  0  0  0  0  0  0  0  0  0
   -5.3080    2.1020    0.4310 O   0  0  0  0  0  0  0  0  0  0  0  0
   -4.2960    0.8520    2.1650 C   0  0  0  0  0  0  0  0  0  0  0  0
   -3.1540    0.8010    1.1630 C   0  0  2  0  0  0  0  0  0  0  0  0
   -3.6070    0.1300   -0.1090 C   0  0  0  0  0  0  0  0  0  0  0  0
   -2.7380   -1.0040   -0.2790 N   0  0  0  0  0  0  0  0  0  0  0  0
   -2.9630   -2.1480   -1.1840 C   0  0  1  0  0  0  0  0  0  0  0  0
   -4.2620   -2.8450   -0.9240 C   0  0  0  0  0  0  0  0  0  0  0  0
   -5.2550   -2.1970   -1.8400 C   0  0  0  0  0  0  0  0  0  0  0  0
   -4.4840   -1.3420   -2.8140 C   0  0  0  0  0  0  0  0  0  0  0  0
   -3.0480   -1.6740   -2.5880 C   0  0  0  0  0  0  0  0  0  0  0  0
   -1.6200   -0.8180    0.5730 C   0  0  0  0  0  0  0  0  0  0  0  0
   -0.4480   -1.2170    0.3490 O   0  0  0  0  0  0  0  0  0  0  0  0
   -2.0900   -0.0780    1.7560 C   0  0  2  0  0  0  0  0  0  0  0  0
   -2.6280   -1.0060    2.6480 O   0  0  0  0  0  0  0  0  0  0  0  0
   -1.0120    0.6660    2.4680 C   0  0  0  0  0  0  0  0  0  0  0  0
   -0.2510    1.6150    1.6540 C   0  0  0  0  0  0  0  0  0  0  0  0
   -0.4950    1.7760    0.4400 O   0  0  0  0  0  0  0  0  0  0  0  0
    0.7820    2.3670    2.2550 N   0  0  0  0  0  0  0  0  0  0  0  0
    1.5920    3.3150    1.5670 C   0  0  0  0  0  0  0  0  0  0  0  0
    2.3450    2.6200    0.4580 C   0  0  0  0  0  0  0  0  0  0  0  0
    3.1920    1.5580    1.1000 C   0  0  0  0  0  0  0  0  0  0  0  0
    3.2030    1.3930    2.3290 O   0  0  0  0  0  0  0  0  0  0  0  0
    3.9750    0.7490    0.2690 N   0  0  0  0  0  0  0  0  0  0  0  0
    4.8370   -0.3100    0.7520 C   0  0  0  0  0  0  0  0  0  0  0  0
    5.5300   -0.9870   -0.3590 C   0  0  0  0  0  0  0  0  0  0  0  0
    5.4010   -2.3020   -0.6250 C   0  0  0  0  0  0  0  0  0  0  0  0
    4.6060   -3.3370    0.0590 C   0  0  0  0  0  0  0  0  0  0  0  0
    6.2110   -2.6080   -1.7730 O   0  0  0  0  0  0  0  0  0  0  0  0
    6.2280   -1.3850   -2.5140 C   0  0  2  0  0  0  0  0  0  0  0  0
    7.4400   -1.2130   -3.7520 S   0  0  0  0  0  0  0  0  0  0  0  0
    8.3310    0.3020   -3.4620 C   0  0  0  0  0  0  0  0  0  0  0  0
    8.1620    0.9960   -2.3580 C   0  0  0  0  0  0  0  0  0  0  0  0
    7.2390    0.5770   -1.3270 C   0  0  0  0  0  0  0  0  0  0  0  0
    6.4790   -0.4620   -1.3490 C   0  0  0  0  0  0  0  0  0  0  0  0
  1  2  1  0
  2  3  1  0
  3  4  2  0
  3  5  1  0
  6  5  1  1
  6  7  1  0
  6 16  1  0
  7  8  1  0
  9  8  1  1
  8 14  1  0
  9 10  1  0
  9 13  1  0
 10 11  1  0
 11 12  1  0
 12 13  1  0
 14 15  2  0
 14 16  1  0
 16 17  1  1
 16 18  1  0
 18 19  1  0
 19 20  2  0
 19 21  1  0
 21 22  1  0
 22 23  1  0
 23 24  1  0
 24 25  2  0
 24 26  1  0
 26 27  1  0
 27 28  1  0
 28 29  2  0
 28 37  1  0
 29 30  1  0
 29 31  1  0
 32 31  1  1
 32 33  1  0
 32 37  1  0
 33 34  1  0
 34 35  2  0
 35 36  1  0
 36 37  2  0
M  END
