
     RDKit          3D

 37 39  0  0  0  0  0  0  0  0999 V2000
    9.1130    1.7660   -0.6800 C   0  0  0  0  0  0  0  0  0  0  0  0
    8.9520    0.8260    0.8460 S   0  0  0  0  0  0  0  0  0  0  0  0
    7.6320   -0.3510    0.8330 C   0  0  1  0  0  0  0  0  0  0  0  0
    6.2470    0.0920    0.9250 C   0  0  0  0  0  0  0  0  0  0  0  0
    5.5900    0.9980   -0.0020 C   0  0  1  0  0  0  0  0  0  0  0  0
    6.0750    2.3810   -0.1690 C   0  0  0  0  0  0  0  0  0  0  0  0
    5.3440    0.3640   -1.3780 C   0  0  0  0  0  0  0  0  0  0  0  0
    4.1140   -0.4360   -1.1890 C   0  0  0  0  0  0  0  0  0  0  0  0
    3.4920    0.0250   -0.1280 C   0  0  0  0  0  0  0  0  0  0  0  0
    2.2180   -0.4950    0.4130 C   0  0  2  0  0  0  0  0  0  0  0  0
    2.4230   -0.9940    1.8450 C   0  0  0  0  0  0  0  0  0  0  0  0
    1.7560   -1.6450   -0.4200 C   0  0  0  0  0  0  0  0  0  0  0  0
    1.2940    0.5870    0.4100 O   0  0  0  0  0  0  0  0  0  0  0  0
   -0.0120    0.4670    0.8520 C   0  0  0  0  0  0  0  0  0  0  0  0
   -0.3840   -0.6470    1.2680 O   0  0  0  0  0  0  0  0  0  0  0  0
   -0.8710    1.5830    0.8210 N   0  0  0  0  0  0  0  0  0  0  0  0
   -2.2390    1.5090    1.2700 C   0  0  0  0  0  0  0  0  0  0  0  0
   -2.9870    0.4880    0.4380 C   0  0  2  0  0  0  0  0  0  0  0  0
   -2.9450    0.9080   -0.9810 C   0  0  0  0  0  0  0  0  0  0  0  0
   -1.9320    1.5630   -1.4270 O   0  0  0  0  0  0  0  0  0  0  0  0
   -3.9760    0.6300   -1.9080 N   0  0  0  0  0  0  0  0  0  0  0  0
   -3.9010    1.1960   -3.2490 C   0  0  0  0  0  0  0  0  0  0  0  0
   -5.0830   -0.2110   -1.5020 C   0  0  2  0  0  0  0  0  0  0  0  0
   -6.3920    0.3600   -2.0130 C   0  0  2  0  0  0  0  0  0  0  0  0
   -6.6800    1.7350   -1.5050 C   0  0  0  0  0  0  0  0  0  0  0  0
   -7.5090   -0.5650   -1.6510 C   0  0  0  0  0  0  0  0  0  0  0  0
   -5.0960   -0.5240   -0.0700 C   0  0  0  0  0  0  0  0  0  0  0  0
   -5.6330   -1.6370    0.3850 C   0  0  0  0  0  0  0  0  0  0  0  0
   -5.6660   -1.9760    1.7880 C   0  0  0  0  0  0  0  0  0  0  0  0
   -5.1480   -1.1640    2.6900 C   0  0  0  0  0  0  0  0  0  0  0  0
   -5.2010   -1.5520    4.1270 C   0  0  0  0  0  0  0  0  0  0  0  0
   -4.5710    0.0490    2.2480 N   0  0  0  0  0  0  0  0  0  0  0  0
   -4.4660    0.4460    0.8550 C   0  0  1  0  0  0  0  0  0  0  0  0
    4.2010    1.0730    0.4190 O   0  0  0  0  0  0  0  0  0  0  0  0
    7.8570   -1.3990   -0.2230 C   0  0  0  0  0  0  0  0  0  0  0  0
    8.8350   -1.2230   -0.9860 O   0  0  0  0  0  0  0  0  0  0  0  0
    7.0700   -2.5070   -0.3880 O   0  0  0  0  0  0  0  0  0  0  0  0
  1  2  1  0
  2  3  1  0
  3  4  1  6
  3 35  1  0
  4  5  1  0
  5  6  1  6
  5  7  1  0
  5 34  1  0
  7  8  1  0
  8  9  2  0
  9 10  1  0
  9 34  1  0
 10 11  1  1
 10 12  1  0
 10 13  1  0
 13 14  1  0
 14 15  2  0
 14 16  1  0
 16 17  1  0
 18 17  1  1
 18 19  1  0
 18 33  1  0
 19 20  2  0
 19 21  1  0
 21 22  1  0
 23 21  1  1
 23 24  1  0
 23 27  1  0
 24 25  1  1
 24 26  1  0
 27 28  2  0
 27 33  1  0
 28 29  1  0
 29 30  2  0
 30 31  1  0
 30 32  1  0
 33 32  1  1
 35 36  2  0
 35 37  1  0
M  END
