
     RDKit          3D

 47 50  0  0  0  0  0  0  0  0999 V2000
   -0.4410    4.0090   -4.8980 C   0  0  0  0  0  0  0  0  0  0  0  0
   -0.7060    2.7020   -4.1340 C   0  0  0  0  0  0  0  0  0  0  0  0
   -1.3370    3.1230   -2.8050 C   0  0  0  0  0  0  0  0  0  0  0  0
   -1.6420    2.0920   -1.8920 C   0  0  0  0  0  0  0  0  0  0  0  0
   -2.7420    1.6040   -1.2880 C   0  0  0  0  0  0  0  0  0  0  0  0
   -2.5030    0.4880   -0.3910 C   0  0  0  0  0  0  0  0  0  0  0  0
   -2.9910   -0.3380    0.3870 C   0  0  0  0  0  0  0  0  0  0  0  0
   -2.0370   -1.3160    1.0530 C   0  0  0  0  0  0  0  0  0  0  0  0
   -2.5890   -2.1230    1.8450 O   0  0  0  0  0  0  0  0  0  0  0  0
   -0.6800   -1.4210    0.8730 N   0  0  0  0  0  0  0  0  0  0  0  0
    0.1000   -2.5080    1.4840 C   0  0  0  0  0  0  0  0  0  0  0  0
   -0.5520   -3.7120    1.7250 C   0  0  0  0  0  0  0  0  0  0  0  0
    0.1130   -4.8630    2.1470 C   0  0  0  0  0  0  0  0  0  0  0  0
    1.4540   -4.7590    2.3160 C   0  0  0  0  0  0  0  0  0  0  0  0
    2.1010   -3.5960    2.0860 C   0  0  0  0  0  0  0  0  0  0  0  0
    1.4570   -2.4060    1.6540 C   0  0  0  0  0  0  0  0  0  0  0  0
    2.2460   -1.2140    1.4400 C   0  0  0  0  0  0  0  0  0  0  0  0
    1.7070   -0.1360    1.1410 O   0  0  0  0  0  0  0  0  0  0  0  0
    3.6670   -1.1850    1.5410 N   0  0  0  0  0  0  0  0  0  0  0  0
    4.4550   -0.0070    1.3030 C   0  0  0  0  0  0  0  0  0  0  0  0
    4.0420    1.2690    1.5660 C   0  0  0  0  0  0  0  0  0  0  0  0
    4.7940    2.3720    1.2140 C   0  0  0  0  0  0  0  0  0  0  0  0
    6.0230    2.1910    0.5640 C   0  0  0  0  0  0  0  0  0  0  0  0
    6.4460    0.9250    0.3010 C   0  0  0  0  0  0  0  0  0  0  0  0
    5.6780   -0.1680    0.6630 C   0  0  0  0  0  0  0  0  0  0  0  0
    7.7240    0.7530   -0.4240 C   0  0  2  0  0  0  0  0  0  0  0  0
    8.8990    0.7000    0.3650 N   0  0  0  0  0  0  0  0  0  0  0  0
    8.7790    1.1600    1.7290 C   0  0  0  0  0  0  0  0  0  0  0  0
    7.7230    1.7380   -1.5510 C   0  0  0  0  0  0  0  0  0  0  0  0
    7.4300    3.1450   -1.2290 C   0  0  0  0  0  0  0  0  0  0  0  0
    6.8340    3.3630    0.1540 C   0  0  0  0  0  0  0  0  0  0  0  0
   -4.3870   -0.8250    0.6470 C   0  0  0  0  0  0  0  0  0  0  0  0
   -5.3140   -0.5660   -0.0590 O   0  0  0  0  0  0  0  0  0  0  0  0
   -4.5350   -1.6180    1.8010 O   0  0  0  0  0  0  0  0  0  0  0  0
   -5.8260   -2.2580    2.1230 C   0  0  1  0  0  0  0  0  0  0  0  0
   -6.2520   -1.9330    3.4400 C   0  0  0  0  0  0  0  0  0  0  0  0
   -6.8350   -1.7810    1.0750 C   0  0  0  0  0  0  0  0  0  0  0  0
   -7.7200   -0.8240    1.2500 C   0  0  0  0  0  0  0  0  0  0  0  0
   -8.6270   -0.4910    0.1950 C   0  0  0  0  0  0  0  0  0  0  0  0
   -8.5970   -1.1530   -1.0040 C   0  0  0  0  0  0  0  0  0  0  0  0
   -7.6610   -2.1630   -1.1840 C   0  0  0  0  0  0  0  0  0  0  0  0
   -6.7640   -2.5020   -0.1680 C   0  0  0  0  0  0  0  0  0  0  0  0
   -5.8530   -3.4480   -0.2840 O   0  0  0  0  0  0  0  0  0  0  0  0
   -5.2110   -4.3990   -0.9470 C   0  0  0  0  0  0  0  0  0  0  0  0
   -4.0270    2.1440   -1.6050 C   0  0  0  0  0  0  0  0  0  0  0  0
   -4.2910    3.1650   -2.6930 C   0  0  0  0  0  0  0  0  0  0  0  0
   -5.0810    1.7850   -0.9790 O   0  0  0  0  0  0  0  0  0  0  0  0
  1  2  1  0
  2  3  1  0
  3  4  1  0
  4  5  2  3
  5  6  1  0
  5 45  1  0
  6  7  2  3
  7  8  1  0
  7 32  1  0
  8  9  2  0
  8 10  1  0
 10 11  1  0
 11 12  2  0
 11 16  1  0
 12 13  1  0
 13 14  2  0
 14 15  1  0
 15 16  2  0
 16 17  1  0
 17 18  2  0
 17 19  1  0
 19 20  1  0
 20 21  2  0
 20 25  1  0
 21 22  1  0
 22 23  2  0
 23 24  1  0
 23 31  1  0
 24 25  2  0
 24 26  1  0
 26 27  1  1
 26 29  1  0
 27 28  1  0
 29 30  1  0
 30 31  1  0
 32 33  2  0
 32 34  1  0
 34 35  1  0
 35 36  1  1
 35 37  1  0
 37 38  2  0
 37 42  1  0
 38 39  1  0
 39 40  2  0
 40 41  1  0
 41 42  2  0
 42 43  1  0
 43 44  1  0
 45 46  1  0
 45 47  2  0
M  CHG  1  27   1
M  END
