
     RDKit          3D

 48 53  0  0  0  0  0  0  0  0999 V2000
    6.0060   -2.5860    1.9010 C   0  0  0  0  0  0  0  0  0  0  0  0
    6.4100   -1.5020    1.0830 O   0  0  0  0  0  0  0  0  0  0  0  0
    5.7360   -0.2710    1.1420 C   0  0  0  0  0  0  0  0  0  0  0  0
    4.6680   -0.1570    2.0220 C   0  0  0  0  0  0  0  0  0  0  0  0
    3.9860    1.0340    2.1040 C   0  0  0  0  0  0  0  0  0  0  0  0
    2.9310    1.1210    2.9860 O   0  0  0  0  0  0  0  0  0  0  0  0
    1.6050    0.9010    2.6960 C   0  0  0  0  0  0  0  0  0  0  0  0
    0.9830   -0.3180    2.8000 C   0  0  0  0  0  0  0  0  0  0  0  0
   -0.3680   -0.5120    2.4990 C   0  0  0  0  0  0  0  0  0  0  0  0
   -1.1370    0.5430    2.0780 C   0  0  0  0  0  0  0  0  0  0  0  0
   -2.5600    0.4310    1.7560 C   0  0  0  0  0  0  0  0  0  0  0  0
   -3.1400    1.2240    0.8020 C   0  0  0  0  0  0  0  0  0  0  0  0
   -4.5030    1.1100    0.5250 C   0  0  0  0  0  0  0  0  0  0  0  0
   -5.2930    0.2050    1.1980 C   0  0  0  0  0  0  0  0  0  0  0  0
   -6.7190    0.1060    0.9100 C   0  0  0  0  0  0  0  0  0  0  0  0
   -7.4540    1.2220    0.5180 C   0  0  0  0  0  0  0  0  0  0  0  0
   -8.8120    1.1460    0.2510 C   0  0  0  0  0  0  0  0  0  0  0  0
   -9.4960   -0.0460    0.3620 C   0  0  0  0  0  0  0  0  0  0  0  0
  -10.8900   -0.0990    0.0920 N   0  0  1  0  0  0  0  0  0  0  0  0
  -11.3630    1.2070   -0.2750 C   0  0  0  0  0  0  0  0  0  0  0  0
  -12.8320    0.8980   -0.5960 C   0  0  0  0  0  0  0  0  0  0  0  0
  -12.6890   -0.4360   -1.3120 C   0  0  0  0  0  0  0  0  0  0  0  0
  -11.2570   -0.9100   -1.0250 C   0  0  2  0  0  0  0  0  0  0  0  0
  -11.3970   -2.3830   -0.6620 C   0  0  0  0  0  0  0  0  0  0  0  0
  -10.3740   -0.7290   -2.2320 C   0  0  0  0  0  0  0  0  0  0  0  0
   -8.7770   -1.1550    0.7490 C   0  0  0  0  0  0  0  0  0  0  0  0
   -7.4070   -1.0820    1.0200 C   0  0  0  0  0  0  0  0  0  0  0  0
   -4.6610   -0.5760    2.1530 C   0  0  0  0  0  0  0  0  0  0  0  0
   -3.3340   -0.4800    2.4390 C   0  0  0  0  0  0  0  0  0  0  0  0
   -0.5170    1.7850    1.9670 C   0  0  0  0  0  0  0  0  0  0  0  0
    0.8130    1.9750    2.2630 C   0  0  0  0  0  0  0  0  0  0  0  0
    4.3680    2.1070    1.3120 C   0  0  0  0  0  0  0  0  0  0  0  0
    5.4490    1.9410    0.4430 C   0  0  0  0  0  0  0  0  0  0  0  0
    6.1480    0.7780    0.3340 C   0  0  0  0  0  0  0  0  0  0  0  0
    7.2460    0.5940   -0.5100 N   0  0  0  0  0  0  0  0  0  0  0  0
    7.8040    1.4810   -1.4510 C   0  0  0  0  0  0  0  0  0  0  0  0
    7.2410    2.6230   -1.5780 O   0  0  0  0  0  0  0  0  0  0  0  0
    8.9230    1.2100   -2.2530 N   0  0  0  0  0  0  0  0  0  0  0  0
    9.3890    2.2290   -3.1940 C   0  0  0  0  0  0  0  0  0  0  0  0
   10.8870    2.1610   -3.2600 C   0  0  0  0  0  0  0  0  0  0  0  0
   11.4370    2.7150   -4.2510 O   0  0  0  0  0  0  0  0  0  0  0  0
   11.5270    1.5090   -2.2480 O   0  0  0  0  0  0  0  0  0  0  0  0
   11.0470    0.3420   -1.6660 C   0  0  2  0  0  0  0  0  0  0  0  0
   12.0660   -0.7690   -1.9100 C   0  0  0  0  0  0  0  0  0  0  0  0
   13.3460   -0.3670   -1.2900 C   0  0  0  0  0  0  0  0  0  0  0  0
   14.5680   -1.2210   -1.3520 C   0  0  0  0  0  0  0  0  0  0  0  0
   13.4390    0.6950   -0.6990 O   0  0  0  0  0  0  0  0  0  0  0  0
    9.6820   -0.0050   -2.2220 C   0  0  0  0  0  0  0  0  0  0  0  0
  1  2  1  0
  2  3  1  0
  3  4  2  0
  3 34  1  0
  4  5  1  0
  5  6  1  0
  5 32  2  0
  6  7  1  0
  7  8  2  0
  7 31  1  0
  8  9  1  0
  9 10  2  0
 10 11  1  0
 10 30  1  0
 11 12  2  0
 11 29  1  0
 12 13  1  0
 13 14  2  0
 14 15  1  0
 14 28  1  0
 15 16  2  0
 15 27  1  0
 16 17  1  0
 17 18  2  0
 19 18  1  6
 18 26  1  0
 19 20  1  0
 19 23  1  0
 20 21  1  0
 21 22  1  0
 22 23  1  0
 23 24  1  1
 23 25  1  0
 26 27  2  0
 28 29  2  0
 30 31  2  0
 32 33  1  0
 33 34  2  0
 34 35  1  0
 35 36  1  0
 36 37  2  0
 36 38  1  0
 38 39  1  0
 38 48  1  0
 39 40  1  0
 40 41  2  0
 40 42  1  0
 42 43  1  0
 43 44  1  6
 43 48  1  0
 44 45  1  0
 45 46  1  0
 45 47  2  0
M  CHG  1  19   1
M  END
