
     RDKit          3D

 47 52  0  0  0  0  0  0  0  0999 V2000
   -6.8140   -4.6250   -1.4840 C   0  0  0  0  0  0  0  0  0  0  0  0
   -5.8400   -4.1950   -0.4220 C   0  0  0  0  0  0  0  0  0  0  0  0
   -5.9330   -4.6970    0.8580 C   0  0  0  0  0  0  0  0  0  0  0  0
   -5.0290   -4.2830    1.7970 C   0  0  0  0  0  0  0  0  0  0  0  0
   -4.0390   -3.3840    1.4900 C   0  0  0  0  0  0  0  0  0  0  0  0
   -3.9170   -2.8620    0.2170 C   0  0  0  0  0  0  0  0  0  0  0  0
   -2.8410   -1.8710   -0.1550 C   0  0  1  0  0  0  0  0  0  0  0  0
   -1.8710   -2.4990   -1.1390 C   0  0  0  0  0  0  0  0  0  0  0  0
   -0.7870   -3.2500   -0.4460 C   0  0  0  0  0  0  0  0  0  0  0  0
   -0.8500   -4.5260   -0.6310 O   0  0  0  0  0  0  0  0  0  0  0  0
    0.1910   -2.7470    0.3090 O   0  0  0  0  0  0  0  0  0  0  0  0
    1.2830   -1.9480    0.2180 C   0  0  0  0  0  0  0  0  0  0  0  0
    1.2490   -0.7930   -0.6970 C   0  0  0  0  0  0  0  0  0  0  0  0
    1.1510   -1.0970   -1.9390 O   0  0  0  0  0  0  0  0  0  0  0  0
    1.3130    0.5730   -0.3740 N   0  0  0  0  0  0  0  0  0  0  0  0
    2.2790    1.3840   -1.1440 C   0  0  0  0  0  0  0  0  0  0  0  0
    3.6030    1.3640   -0.4670 C   0  0  0  0  0  0  0  0  0  0  0  0
    3.9920    2.3200    0.4470 C   0  0  0  0  0  0  0  0  0  0  0  0
    5.2190    2.2790    1.0610 C   0  0  0  0  0  0  0  0  0  0  0  0
    6.1210    1.2380    0.7620 C   0  0  0  0  0  0  0  0  0  0  0  0
    5.7580    0.2790   -0.1420 C   0  0  0  0  0  0  0  0  0  0  0  0
    6.6130   -0.7840   -0.4800 N   0  0  0  0  0  0  0  0  0  0  0  0
    7.9030   -1.0400    0.0030 C   0  0  0  0  0  0  0  0  0  0  0  0
    8.4320   -0.2930    0.8280 O   0  0  0  0  0  0  0  0  0  0  0  0
    8.6350   -2.1910   -0.4620 N   0  0  0  0  0  0  0  0  0  0  0  0
    9.9680   -2.4650    0.0310 C   0  0  1  0  0  0  0  0  0  0  0  0
   10.4090   -3.9090    0.1470 C   0  0  0  0  0  0  0  0  0  0  0  0
   10.9230   -3.0570   -0.9610 C   0  0  0  0  0  0  0  0  0  0  0  0
    4.5000    0.3640   -0.7380 C   0  0  0  0  0  0  0  0  0  0  0  0
    0.5770    1.2980    0.6180 C   0  0  0  0  0  0  0  0  0  0  0  0
   -0.8010    1.7730    0.1820 C   0  0  2  0  0  0  0  0  0  0  0  0
   -0.7780    2.3940   -1.1870 C   0  0  0  0  0  0  0  0  0  0  0  0
   -1.2370    2.7280    1.2750 C   0  0  0  0  0  0  0  0  0  0  0  0
   -2.5510    3.3310    1.1230 C   0  0  0  0  0  0  0  0  0  0  0  0
   -3.6120    2.8180    1.8310 C   0  0  0  0  0  0  0  0  0  0  0  0
   -4.8640    3.3380    1.7220 C   0  0  0  0  0  0  0  0  0  0  0  0
   -5.1140    4.4100    0.8870 C   0  0  0  0  0  0  0  0  0  0  0  0
   -4.0490    4.9330    0.1700 C   0  0  0  0  0  0  0  0  0  0  0  0
   -2.7640    4.3970    0.2840 C   0  0  0  0  0  0  0  0  0  0  0  0
   -1.9410    5.1520   -0.5610 O   0  0  0  0  0  0  0  0  0  0  0  0
   -2.5820    6.3430   -0.9500 C   0  0  0  0  0  0  0  0  0  0  0  0
   -4.0630    6.0760   -0.7840 C   0  0  0  0  0  0  0  0  0  0  0  0
   -1.6610    0.5370    0.2250 C   0  0  0  0  0  0  0  0  0  0  0  0
   -2.7400    0.5320   -0.7200 N   0  0  0  0  0  0  0  0  0  0  0  0
   -3.5230   -0.6540   -0.6670 C   0  0  2  0  0  0  0  0  0  0  0  0
   -4.7080   -0.3750    0.2680 C   0  0  0  0  0  0  0  0  0  0  0  0
   -4.8380   -3.2960   -0.7030 C   0  0  0  0  0  0  0  0  0  0  0  0
  1  2  1  0
  2  3  2  0
  2 47  1  0
  3  4  1  0
  4  5  2  0
  5  6  1  0
  7  6  1  6
  6 47  2  0
  7  8  1  0
  7 45  1  0
  8  9  1  0
  9 10  2  0
  9 11  1  0
 11 12  1  0
 12 13  1  0
 13 14  2  0
 13 15  1  0
 15 16  1  0
 15 30  1  0
 16 17  1  0
 17 18  2  0
 17 29  1  0
 18 19  1  0
 19 20  2  0
 20 21  1  0
 21 22  1  0
 21 29  2  0
 22 23  1  0
 23 24  2  0
 23 25  1  0
 26 25  1  6
 26 27  1  0
 26 28  1  0
 27 28  1  0
 30 31  1  0
 31 32  1  6
 31 33  1  0
 31 43  1  0
 33 34  1  0
 34 35  2  0
 34 39  1  0
 35 36  1  0
 36 37  2  0
 37 38  1  0
 38 39  2  0
 38 42  1  0
 39 40  1  0
 40 41  1  0
 41 42  1  0
 43 44  1  0
 44 45  1  0
 45 46  1  1
M  CHG  1  44   1
M  END
