
     RDKit          3D

 48 52  0  0  0  0  0  0  0  0999 V2000
    7.6860    6.3020    2.9960 C   0  0  0  0  0  0  0  0  0  0  0  0
    7.0330    5.1780    2.2450 C   0  0  0  0  0  0  0  0  0  0  0  0
    7.7440    4.4020    1.3550 C   0  0  0  0  0  0  0  0  0  0  0  0
    7.1480    3.3700    0.6620 C   0  0  0  0  0  0  0  0  0  0  0  0
    5.7920    3.0590    0.8280 C   0  0  0  0  0  0  0  0  0  0  0  0
    5.1910    2.0030    0.1100 N   0  0  0  0  0  0  0  0  0  0  0  0
    5.1390    0.6100    0.4950 C   0  0  0  0  0  0  0  0  0  0  0  0
    5.6150    0.1440    1.5510 O   0  0  0  0  0  0  0  0  0  0  0  0
    4.4160   -0.1120   -0.6060 C   0  0  0  0  0  0  0  0  0  0  0  0
    4.6720   -1.3380   -0.9450 C   0  0  0  0  0  0  0  0  0  0  0  0
    5.6410   -2.2570   -0.3950 C   0  0  0  0  0  0  0  0  0  0  0  0
    6.3990   -1.9330    0.5400 O   0  0  0  0  0  0  0  0  0  0  0  0
    5.7760   -3.5880   -0.8970 N   0  0  0  0  0  0  0  0  0  0  0  0
    6.7680   -4.4670   -0.2940 C   0  0  0  0  0  0  0  0  0  0  0  0
    4.9830   -4.1080   -1.9790 C   0  0  0  0  0  0  0  0  0  0  0  0
    3.5020    0.9330   -1.0980 C   0  0  2  0  0  0  0  0  0  0  0  0
    2.7370    0.7830   -2.3130 C   0  0  0  0  0  0  0  0  0  0  0  0
    1.7220   -0.3050   -2.3850 C   0  0  0  0  0  0  0  0  0  0  0  0
    0.6790   -0.2060   -1.2720 C   0  0  0  0  0  0  0  0  0  0  0  0
   -0.3210   -1.2790   -1.4370 C   0  0  0  0  0  0  0  0  0  0  0  0
   -0.3790   -1.9000   -2.5410 O   0  0  0  0  0  0  0  0  0  0  0  0
   -1.2190   -1.6180   -0.3790 N   0  0  0  0  0  0  0  0  0  0  0  0
   -1.1980   -1.0200    0.9230 C   0  0  0  0  0  0  0  0  0  0  0  0
   -2.4750   -0.2720    1.1800 C   0  0  0  0  0  0  0  0  0  0  0  0
   -3.5320   -0.7660    0.2650 C   0  0  0  0  0  0  0  0  0  0  0  0
   -4.4230    0.0500   -0.2230 C   0  0  0  0  0  0  0  0  0  0  0  0
   -4.4910    1.4680    0.0580 C   0  0  0  0  0  0  0  0  0  0  0  0
   -4.3860    2.0070    1.3170 C   0  0  0  0  0  0  0  0  0  0  0  0
   -4.4470    3.3620    1.5610 C   0  0  0  0  0  0  0  0  0  0  0  0
   -4.6210    4.2460    0.5180 C   0  0  0  0  0  0  0  0  0  0  0  0
   -4.7320    3.7420   -0.7740 C   0  0  0  0  0  0  0  0  0  0  0  0
   -4.9100    4.6920   -1.7990 N   0  0  0  0  0  0  0  0  0  0  0  0
   -4.6680    2.3770   -0.9950 C   0  0  0  0  0  0  0  0  0  0  0  0
   -3.6010   -2.2200   -0.1060 C   0  0  2  0  0  0  0  0  0  0  0  0
   -4.5370   -2.3440   -1.1210 O   0  0  0  0  0  0  0  0  0  0  0  0
   -3.8820   -3.0860    1.0630 C   0  0  0  0  0  0  0  0  0  0  0  0
   -5.1300   -2.9110    1.8220 C   0  0  0  0  0  0  0  0  0  0  0  0
   -6.3850   -3.1320    1.0860 C   0  0  0  0  0  0  0  0  0  0  0  0
   -7.1350   -2.1240    0.5240 C   0  0  0  0  0  0  0  0  0  0  0  0
   -8.3050   -2.4110   -0.1700 C   0  0  0  0  0  0  0  0  0  0  0  0
   -8.7580   -3.6970   -0.3250 C   0  0  0  0  0  0  0  0  0  0  0  0
   -8.0060   -4.6930    0.2370 C   0  0  0  0  0  0  0  0  0  0  0  0
   -6.8510   -4.4360    0.9250 C   0  0  0  0  0  0  0  0  0  0  0  0
   -2.2370   -2.6510   -0.6460 C   0  0  0  0  0  0  0  0  0  0  0  0
    4.5140    2.0740   -1.1600 C   0  0  0  0  0  0  0  0  0  0  0  0
    4.6840    2.8540   -2.0930 O   0  0  0  0  0  0  0  0  0  0  0  0
    5.0940    3.8400    1.7190 C   0  0  0  0  0  0  0  0  0  0  0  0
    5.6950    4.8820    2.4190 C   0  0  0  0  0  0  0  0  0  0  0  0
  1  2  1  0
  2  3  2  0
  2 48  1  0
  3  4  1  0
  4  5  2  0
  5  6  1  0
  5 47  1  0
  6  7  1  0
  6 45  1  0
  7  8  2  0
  7  9  1  0
  9 10  2  3
  9 16  1  0
 10 11  1  0
 11 12  2  0
 11 13  1  0
 13 14  1  0
 13 15  1  0
 16 17  1  6
 16 45  1  0
 17 18  1  0
 18 19  1  0
 19 20  1  0
 20 21  2  0
 20 22  1  0
 22 23  1  0
 22 44  1  0
 23 24  1  0
 24 25  1  0
 25 26  2  3
 25 34  1  0
 26 27  1  0
 27 28  2  0
 27 33  1  0
 28 29  1  0
 29 30  2  0
 30 31  1  0
 31 32  1  0
 31 33  2  0
 34 35  1  6
 34 36  1  0
 34 44  1  0
 36 37  1  0
 37 38  1  0
 38 39  2  0
 38 43  1  0
 39 40  1  0
 40 41  2  0
 41 42  1  0
 42 43  2  0
 45 46  2  0
 47 48  2  0
M  CHG  1  32   1
M  END
