
     RDKit          3D

 47 51  0  0  0  0  0  0  0  0999 V2000
   -2.8400   -0.1600    5.3990 C   0  0  0  0  0  0  0  0  0  0  0  0
   -1.9430    0.4340    4.4900 O   0  0  0  0  0  0  0  0  0  0  0  0
   -2.1100    1.7220    3.9760 C   0  0  0  0  0  0  0  0  0  0  0  0
   -3.1140    2.3960    4.3410 O   0  0  0  0  0  0  0  0  0  0  0  0
   -1.1370    2.2670    3.0390 C   0  0  0  0  0  0  0  0  0  0  0  0
   -0.9770    1.1930    1.8830 C   0  0  0  0  0  0  0  0  0  0  0  0
   -2.2670    1.0050    1.2200 C   0  0  0  0  0  0  0  0  0  0  0  0
   -3.2480    1.5270    1.9420 O   0  0  0  0  0  0  0  0  0  0  0  0
   -2.6340    0.3990   -0.0260 C   0  0  0  0  0  0  0  0  0  0  0  0
   -3.9400    0.5110   -0.3380 C   0  0  0  0  0  0  0  0  0  0  0  0
   -5.0170    1.1540    0.4460 C   0  0  0  0  0  0  0  0  0  0  0  0
   -6.0550    0.0550    0.7690 C   0  0  1  0  0  0  0  0  0  0  0  0
   -5.4590   -1.0810    1.5410 C   0  0  0  0  0  0  0  0  0  0  0  0
   -7.1510    0.6520    1.6410 C   0  0  0  0  0  0  0  0  0  0  0  0
   -6.6260   -0.4470   -0.5300 C   0  0  0  0  0  0  0  0  0  0  0  0
   -4.3630    0.0040   -1.5270 O   0  0  0  0  0  0  0  0  0  0  0  0
   -3.5680   -0.6240   -2.4380 C   0  0  0  0  0  0  0  0  0  0  0  0
   -4.2920   -1.0760   -3.6680 C   0  0  0  0  0  0  0  0  0  0  0  0
   -2.2790   -0.8250   -2.2290 C   0  0  0  0  0  0  0  0  0  0  0  0
   -1.4870   -1.4610   -3.2630 C   0  0  0  0  0  0  0  0  0  0  0  0
   -1.8030   -1.5100   -4.5370 N   0  0  0  0  0  0  0  0  0  0  0  0
   -0.8610   -2.2070   -5.3410 C   0  0  0  0  0  0  0  0  0  0  0  0
    0.0610   -2.7730   -4.3670 C   0  0  0  0  0  0  0  0  0  0  0  0
    1.1320   -3.5830   -4.2180 N   0  0  0  0  0  0  0  0  0  0  0  0
    1.4810   -3.6350   -2.9660 N   0  0  0  0  0  0  0  0  0  0  0  0
    0.6490   -2.8550   -2.2230 C   0  0  0  0  0  0  0  0  0  0  0  0
   -0.2610   -2.2950   -3.0880 C   0  0  0  0  0  0  0  0  0  0  0  0
   -1.7590   -0.3360   -0.9270 C   0  0  1  0  0  0  0  0  0  0  0  0
   -0.3210   -0.1160   -0.8370 C   0  0  0  0  0  0  0  0  0  0  0  0
    0.4010    0.5410   -1.7260 C   0  0  0  0  0  0  0  0  0  0  0  0
   -0.2850    1.1320   -2.9220 C   0  0  0  0  0  0  0  0  0  0  0  0
    1.8600    0.6470   -1.6000 C   0  0  0  0  0  0  0  0  0  0  0  0
    2.3400    0.8210   -0.2080 C   0  0  2  0  0  0  0  0  0  0  0  0
    3.8610    0.7860   -0.1680 C   0  0  0  0  0  0  0  0  0  0  0  0
    4.4650    0.7000   -1.2470 O   0  0  0  0  0  0  0  0  0  0  0  0
    4.5430    0.8480    1.0530 N   0  0  0  0  0  0  0  0  0  0  0  0
    5.9510    0.8130    1.1730 C   0  0  0  0  0  0  0  0  0  0  0  0
    6.5170    0.5430    2.4340 C   0  0  0  0  0  0  0  0  0  0  0  0
    7.8490    0.4940    2.6360 C   0  0  0  0  0  0  0  0  0  0  0  0
    8.4720    0.2020    3.9730 C   0  0  0  0  0  0  0  0  0  0  0  0
    8.7150    0.7120    1.5800 C   0  0  0  0  0  0  0  0  0  0  0  0
    8.1990    0.9760    0.3480 C   0  0  0  0  0  0  0  0  0  0  0  0
    9.1630    1.2070   -0.7820 C   0  0  0  0  0  0  0  0  0  0  0  0
    6.8440    1.0230    0.1590 C   0  0  0  0  0  0  0  0  0  0  0  0
    1.7890   -0.2220    0.7010 C   0  0  0  0  0  0  0  0  0  0  0  0
    0.4510   -0.6950    0.2840 C   0  0  0  0  0  0  0  0  0  0  0  0
   -0.0540   -1.6640    0.9410 O   0  0  0  0  0  0  0  0  0  0  0  0
  1  2  1  0
  2  3  1  0
  3  4  2  0
  3  5  1  0
  5  6  1  0
  6  7  1  0
  7  8  2  0
  7  9  1  0
  9 10  2  0
  9 28  1  0
 10 11  1  0
 10 16  1  0
 11 12  1  0
 12 13  1  1
 12 14  1  0
 12 15  1  0
 16 17  1  0
 17 18  1  0
 17 19  2  0
 19 20  1  0
 19 28  1  0
 20 21  2  0
 20 27  1  0
 21 22  1  0
 22 23  1  0
 23 24  1  0
 23 27  2  0
 24 25  1  0
 25 26  2  0
 26 27  1  0
 28 29  1  6
 29 30  2  0
 29 46  1  0
 30 31  1  0
 30 32  1  0
 32 33  1  0
 33 34  1  6
 33 45  1  0
 34 35  2  0
 34 36  1  0
 36 37  1  0
 37 38  2  0
 37 44  1  0
 38 39  1  0
 39 40  1  0
 39 41  2  0
 41 42  1  0
 42 43  1  0
 42 44  2  0
 45 46  1  0
 46 47  2  0
M  CHG  1  21   1
M  END
