
     RDKit          3D

 13 13  0  0  0  0  0  0  0  0999 V2000
   -2.9120    2.6310    0.3870 C   0  0  0  0  0  0  0  0  0  0  0  0
   -3.0620    0.9060   -0.0820 S   0  0  0  0  0  0  0  0  0  0  0  0
   -1.3970    0.1980   -0.1790 C   0  0  0  0  0  0  0  0  0  0  0  0
   -0.3380    0.9270    0.0720 C   0  0  0  0  0  0  0  0  0  0  0  0
    1.0130    0.3920    0.0040 C   0  0  0  0  0  0  0  0  0  0  0  0
    2.1030    1.2270    0.2840 O   0  0  0  0  0  0  0  0  0  0  0  0
    2.9180    1.0430    1.4140 C   0  0  0  0  0  0  0  0  0  0  0  0
    3.4830   -0.2300    1.3240 O   0  0  0  0  0  0  0  0  0  0  0  0
    1.1800   -0.8740   -0.3220 C   0  0  0  0  0  0  0  0  0  0  0  0
    0.0860   -1.7900   -0.6240 C   0  0  2  0  0  0  0  0  0  0  0  0
    0.3270   -2.3450   -1.9600 N   0  0  0  0  0  0  0  0  0  0  0  0
   -1.2740   -1.2150   -0.5500 C   0  0  1  0  0  0  0  0  0  0  0  0
   -2.0840   -2.0280    0.2740 O   0  0  0  0  0  0  0  0  0  0  0  0
  1  2  1  0
  2  3  1  0
  3  4  2  0
  3 12  1  0
  4  5  1  0
  5  6  1  0
  5  9  2  0
  6  7  1  0
  7  8  1  0
  9 10  1  0
 10 11  1  6
 10 12  1  0
 12 13  1  1
M  END
