
     RDKit          3D

 14 15  0  0  0  0  0  0  0  0999 V2000
   -2.5910   -0.2700    0.9200 C   0  0  0  0  0  0  0  0  0  0  0  0
   -1.9960    0.8310    0.0930 C   0  0  2  0  0  0  0  0  0  0  0  0
   -2.8750    1.0720   -0.9760 O   0  0  0  0  0  0  0  0  0  0  0  0
   -0.6650    0.4930   -0.4860 C   0  0  2  0  0  0  0  0  0  0  0  0
   -0.7040   -0.7030   -1.3890 C   0  0  0  0  0  0  0  0  0  0  0  0
    1.1030   -0.9680   -1.6110 S   0  0  0  0  0  0  0  0  0  0  0  0
    1.6090   -0.2090   -0.0180 C   0  0  2  0  0  0  0  0  0  0  0  0
    0.3370    0.2200    0.6010 C   0  0  0  0  0  0  0  0  0  0  0  0
    2.5760    0.8380   -0.2180 N   0  0  0  0  0  0  0  0  0  0  0  0
    3.8440    0.2260    0.0140 C   0  0  0  0  0  0  0  0  0  0  0  0
    4.9820    0.7200   -0.2480 O   0  0  0  0  0  0  0  0  0  0  0  0
    3.6650   -1.0270    0.5850 O   0  0  0  0  0  0  0  0  0  0  0  0
    2.3150   -1.2730    0.7420 C   0  0  0  0  0  0  0  0  0  0  0  0
    1.7060   -2.1740    1.3710 O   0  0  0  0  0  0  0  0  0  0  0  0
  2  1  1  6
  2  3  1  0
  2  4  1  0
  4  5  1  6
  4  8  1  0
  5  6  1  0
  6  7  1  0
  7  8  1  1
  7  9  1  0
  7 13  1  0
  9 10  1  0
 10 11  2  0
 10 12  1  0
 12 13  1  0
 13 14  2  0
M  END
