
     RDKit          3D

 14 14  0  0  0  0  0  0  0  0999 V2000
    4.1840    0.9410    0.6160 C   0  0  0  0  0  0  0  0  0  0  0  0
    3.2070    0.2310   -0.0820 O   0  0  0  0  0  0  0  0  0  0  0  0
    1.8500    0.4890   -0.0290 C   0  0  0  0  0  0  0  0  0  0  0  0
    1.4450    1.4320    0.6990 O   0  0  0  0  0  0  0  0  0  0  0  0
    0.8800   -0.3320   -0.8170 C   0  0  1  0  0  0  0  0  0  0  0  0
    1.0240   -1.7450   -0.3530 C   0  0  0  0  0  0  0  0  0  0  0  0
    0.5130   -1.7840    1.3820 S   0  0  0  0  0  0  0  0  0  0  0  0
   -1.0070   -0.8470    1.4570 C   0  0  0  0  0  0  0  0  0  0  0  0
   -1.4600   -0.2720    0.1680 C   0  0  1  0  0  0  0  0  0  0  0  0
   -2.2620   -1.2310   -0.4960 O   0  0  0  0  0  0  0  0  0  0  0  0
   -2.4330    0.8500    0.5350 C   0  0  0  0  0  0  0  0  0  0  0  0
   -3.0600    1.4260   -0.6070 N   0  0  0  0  0  0  0  0  0  0  0  0
   -0.4720    0.2450   -0.7670 C   0  0  2  0  0  0  0  0  0  0  0  0
   -1.0210    0.1790   -2.0750 O   0  0  0  0  0  0  0  0  0  0  0  0
  1  2  1  0
  2  3  1  0
  3  4  2  0
  5  3  1  1
  5  6  1  0
  5 13  1  0
  6  7  1  0
  7  8  1  0
  8  9  1  0
  9 10  1  6
  9 11  1  0
  9 13  1  0
 11 12  1  0
 13 14  1  6
M  END
