
     RDKit          3D

 13 13  0  0  0  0  0  0  0  0999 V2000
    4.3960   -0.0520    0.3090 C   0  0  0  0  0  0  0  0  0  0  0  0
    3.1690    0.5990    0.0240 O   0  0  0  0  0  0  0  0  0  0  0  0
    1.9320    0.0420    0.3430 C   0  0  0  0  0  0  0  0  0  0  0  0
    1.9580   -1.0830    0.9060 O   0  0  0  0  0  0  0  0  0  0  0  0
    0.6490    0.7080    0.0520 C   0  0  1  0  0  0  0  0  0  0  0  0
    0.5100    0.9380   -1.4180 C   0  0  0  0  0  0  0  0  0  0  0  0
   -1.0850    1.7630   -1.7690 S   0  0  0  0  0  0  0  0  0  0  0  0
   -2.2750    1.0560   -0.5640 C   0  0  0  0  0  0  0  0  0  0  0  0
   -1.6500   -0.2880   -0.1650 C   0  0  1  0  0  0  0  0  0  0  0  0
   -2.6730   -1.0510    0.6820 C   0  0  0  0  0  0  0  0  0  0  0  0
   -1.3790   -1.0040   -1.3700 N   0  0  0  0  0  0  0  0  0  0  0  0
   -0.4680   -0.0250    0.6890 C   0  0  2  0  0  0  0  0  0  0  0  0
   -0.9270    0.6480    1.8470 O   0  0  0  0  0  0  0  0  0  0  0  0
  1  2  1  0
  2  3  1  0
  3  4  2  0
  5  3  1  6
  5  6  1  0
  5 12  1  0
  6  7  1  0
  7  8  1  0
  8  9  1  0
  9 10  1  1
  9 11  1  0
  9 12  1  0
 12 13  1  1
M  END
