
     RDKit          3D

 13 14  0  0  0  0  0  0  0  0999 V2000
   -1.5760   -0.3270    1.1060 C   0  0  0  0  0  0  0  0  0  0  0  0
   -0.5900   -0.2990   -0.0480 C   0  0  1  0  0  0  0  0  0  0  0  0
   -1.4450   -0.2040   -1.3200 C   0  0  0  0  0  0  0  0  0  0  0  0
   -2.1860    1.4550   -1.0130 S   0  0  0  0  0  0  0  0  0  0  0  0
   -0.9350    2.0460    0.2070 C   0  0  0  0  0  0  0  0  0  0  0  0
    0.1460    1.0240   -0.0970 C   0  0  2  0  0  0  0  0  0  0  0  0
    0.6140    1.2960   -1.3740 O   0  0  0  0  0  0  0  0  0  0  0  0
    1.2150    1.0080    0.9240 C   0  0  0  0  0  0  0  0  0  0  0  0
    1.3470    1.8380    1.8380 O   0  0  0  0  0  0  0  0  0  0  0  0
    2.1480   -0.0850    0.7940 N   0  0  0  0  0  0  0  0  0  0  0  0
    1.7990   -1.0610   -0.2270 C   0  0  0  0  0  0  0  0  0  0  0  0
    0.3280   -1.4640   -0.0620 C   0  0  2  0  0  0  0  0  0  0  0  0
    0.0150   -2.4490   -0.9680 O   0  0  0  0  0  0  0  0  0  0  0  0
  2  1  1  1
  2  3  1  0
  2  6  1  0
  2 12  1  0
  3  4  1  0
  4  5  1  0
  5  6  1  0
  6  7  1  6
  6  8  1  0
  8  9  2  0
  8 10  1  0
 10 11  1  0
 11 12  1  0
 12 13  1  6
M  END
