
     RDKit          3D

 13 13  0  0  0  0  0  0  0  0999 V2000
    4.9670    0.0060   -0.3410 C   0  0  0  0  0  0  0  0  0  0  0  0
    3.6190    1.0440   -0.9140 S   0  0  0  0  0  0  0  0  0  0  0  0
    2.1040    0.7760    0.0460 C   0  0  0  0  0  0  0  0  0  0  0  0
    1.0860    0.3580   -0.8370 O   0  0  0  0  0  0  0  0  0  0  0  0
   -0.2350    0.1530   -0.5270 C   0  0  0  0  0  0  0  0  0  0  0  0
   -1.0650    1.1610   -0.6980 C   0  0  0  0  0  0  0  0  0  0  0  0
   -2.5060    1.0810   -0.4280 C   0  0  2  0  0  0  0  0  0  0  0  0
   -3.0020    2.2260    0.2190 O   0  0  0  0  0  0  0  0  0  0  0  0
   -2.9750   -0.1760    0.1680 C   0  0  1  0  0  0  0  0  0  0  0  0
   -4.1200   -0.5790   -0.5410 O   0  0  0  0  0  0  0  0  0  0  0  0
   -1.9980   -1.2300    0.2920 C   0  0  0  0  0  0  0  0  0  0  0  0
   -0.7210   -1.0970   -0.0200 C   0  0  0  0  0  0  0  0  0  0  0  0
    0.1250   -2.2370    0.1450 N   0  0  0  0  0  0  0  0  0  0  0  0
  1  2  1  0
  2  3  1  0
  3  4  1  0
  4  5  1  0
  5  6  2  0
  5 12  1  0
  6  7  1  0
  7  8  1  1
  7  9  1  0
  9 10  1  6
  9 11  1  0
 11 12  2  0
 12 13  1  0
M  END
