
     RDKit          3D

 16 17  0  0  0  0  0  0  0  0999 V2000
   -3.5830   -1.0340    0.1280 C   0  0  0  0  0  0  0  0  0  0  0  0
   -2.7610   -0.3710   -0.9430 C   0  0  0  0  0  0  0  0  0  0  0  0
   -1.3650   -0.1150   -0.5210 C   0  0  0  0  0  0  0  0  0  0  0  0
   -1.0940    0.9440    0.3140 C   0  0  0  0  0  0  0  0  0  0  0  0
   -2.1410    1.8800    0.8210 C   0  0  0  0  0  0  0  0  0  0  0  0
    0.2150    1.1110    0.6660 N   0  0  0  0  0  0  0  0  0  0  0  0
    1.1650    0.2760    0.2090 C   0  0  0  0  0  0  0  0  0  0  0  0
    2.5450    0.2800    0.4530 C   0  0  0  0  0  0  0  0  0  0  0  0
    3.2200    1.2390    1.2880 C   0  0  0  0  0  0  0  0  0  0  0  0
    3.7850    2.0180    1.9540 N   0  0  0  0  0  0  0  0  0  0  0  0
    3.0660   -0.7850   -0.2500 C   0  0  0  0  0  0  0  0  0  0  0  0
    4.5110   -1.1310   -0.2550 C   0  0  0  0  0  0  0  0  0  0  0  0
    2.0520   -1.3990   -0.8850 N   0  0  0  0  0  0  0  0  0  0  0  0
    0.9240   -0.7650   -0.6090 N   0  0  0  0  0  0  0  0  0  0  0  0
   -0.3550   -0.9580   -0.9750 C   0  0  0  0  0  0  0  0  0  0  0  0
   -0.6390   -1.9140   -1.7370 O   0  0  0  0  0  0  0  0  0  0  0  0
  1  2  1  0
  2  3  1  0
  3  4  2  0
  3 15  1  0
  4  5  1  0
  4  6  1  0
  6  7  1  0
  7  8  2  0
  7 14  1  0
  8  9  1  0
  8 11  1  0
  9 10  3  0
 11 12  1  0
 11 13  2  0
 13 14  1  0
 14 15  1  0
 15 16  2  0
M  END
