
     RDKit          3D

 32 34  0  0  0  0  0  0  0  0999 V2000
    0.3700   -1.1520   -4.0010 C   0  0  0  0  0  0  0  0  0  0  0  0
    0.3630   -1.0350   -2.6030 O   0  0  0  0  0  0  0  0  0  0  0  0
    1.2780   -1.6720   -1.7830 C   0  0  0  0  0  0  0  0  0  0  0  0
    2.2420   -2.4480   -2.3600 C   0  0  0  0  0  0  0  0  0  0  0  0
    3.1750   -3.1030   -1.6000 C   0  0  0  0  0  0  0  0  0  0  0  0
    3.0840   -2.9330   -0.2140 C   0  0  0  0  0  0  0  0  0  0  0  0
    2.1150   -2.1540    0.3550 C   0  0  0  0  0  0  0  0  0  0  0  0
    2.0850   -2.0470    1.7200 O   0  0  0  0  0  0  0  0  0  0  0  0
    3.0730   -2.6590    2.5580 C   0  0  0  0  0  0  0  0  0  0  0  0
    4.3300   -2.0630    2.3530 C   0  0  0  0  0  0  0  0  0  0  0  0
    5.4640   -1.5400    2.1720 N   0  0  0  0  0  0  0  0  0  0  0  0
    1.1800   -1.4950   -0.3890 C   0  0  0  0  0  0  0  0  0  0  0  0
    0.1100   -0.6240    0.0850 C   0  0  1  0  0  0  0  0  0  0  0  0
   -0.3890   -0.8220    1.4790 C   0  0  0  0  0  0  0  0  0  0  0  0
   -1.4890    0.1910    1.7080 C   0  0  0  0  0  0  0  0  0  0  0  0
   -1.1730    1.4070    2.2660 C   0  0  0  0  0  0  0  0  0  0  0  0
   -2.1040    2.3920    2.4500 C   0  0  0  0  0  0  0  0  0  0  0  0
   -3.3990    2.1170    2.0460 C   0  0  0  0  0  0  0  0  0  0  0  0
   -3.7190    0.9000    1.4860 C   0  0  0  0  0  0  0  0  0  0  0  0
   -5.0630    0.6700    1.0910 N   0  0  0  0  0  0  0  0  0  0  0  0
   -2.7710   -0.1160    1.2970 C   0  0  0  0  0  0  0  0  0  0  0  0
   -3.2190   -1.3830    0.7530 C   0  0  0  0  0  0  0  0  0  0  0  0
   -4.6100   -1.3070    0.4930 O   0  0  0  0  0  0  0  0  0  0  0  0
    0.2050    0.8080   -0.2660 C   0  0  0  0  0  0  0  0  0  0  0  0
   -0.8370    1.4610   -0.9520 C   0  0  0  0  0  0  0  0  0  0  0  0
   -0.8560    2.7760   -1.2770 C   0  0  0  0  0  0  0  0  0  0  0  0
    0.2130    3.5550   -0.9240 C   0  0  0  0  0  0  0  0  0  0  0  0
    0.2370    4.9630   -1.2500 C   0  0  0  0  0  0  0  0  0  0  0  0
    1.2300    5.6740   -0.8610 O   0  0  0  0  0  0  0  0  0  0  0  0
    1.2640    2.9790   -0.2550 C   0  0  0  0  0  0  0  0  0  0  0  0
    1.2680    1.6010    0.0790 C   0  0  0  0  0  0  0  0  0  0  0  0
    2.4320    1.0570    0.7700 C   0  0  0  0  0  0  0  0  0  0  0  0
  1  2  1  0
  2  3  1  0
  3  4  2  0
  3 12  1  0
  4  5  1  0
  5  6  2  0
  6  7  1  0
  7  8  1  0
  7 12  2  0
  8  9  1  0
  9 10  1  0
 10 11  3  0
 12 13  1  0
 13 14  1  1
 13 24  1  0
 14 15  1  0
 15 16  2  0
 15 21  1  0
 16 17  1  0
 17 18  2  0
 18 19  1  0
 19 20  1  0
 19 21  2  0
 21 22  1  0
 22 23  1  0
 24 25  2  0
 24 31  1  0
 25 26  1  0
 26 27  2  0
 27 28  1  0
 27 30  1  0
 28 29  2  0
 30 31  2  0
 31 32  1  0
M  END
