
     RDKit          3D

 32 34  0  0  0  0  0  0  0  0999 V2000
    7.3460   -2.7270   -1.4110 C   0  0  0  0  0  0  0  0  0  0  0  0
    6.8880   -1.4980   -0.7670 C   0  0  0  0  0  0  0  0  0  0  0  0
    7.3900   -0.2630   -1.1540 C   0  0  0  0  0  0  0  0  0  0  0  0
    6.9540    0.9330   -0.5810 C   0  0  0  0  0  0  0  0  0  0  0  0
    5.9960    0.8310    0.3990 C   0  0  0  0  0  0  0  0  0  0  0  0
    5.5480    2.0820    1.0330 C   0  0  0  0  0  0  0  0  0  0  0  0
    6.1380    3.2240    0.4680 O   0  0  0  0  0  0  0  0  0  0  0  0
    5.4930   -0.3680    0.7990 C   0  0  0  0  0  0  0  0  0  0  0  0
    4.3680   -0.3090    1.8290 C   0  0  0  0  0  0  0  0  0  0  0  0
    3.2080    0.1080    1.0710 C   0  0  0  0  0  0  0  0  0  0  0  0
    3.3580    0.1600   -0.2300 O   0  0  0  0  0  0  0  0  0  0  0  0
    1.8790    0.4770    1.5100 N   0  0  0  0  0  0  0  0  0  0  0  0
    1.0540    0.7370    0.3680 C   0  0  0  0  0  0  0  0  0  0  0  0
   -0.3890    0.6400    0.2910 C   0  0  0  0  0  0  0  0  0  0  0  0
   -1.3840    1.1940    1.0390 C   0  0  0  0  0  0  0  0  0  0  0  0
   -2.7320    1.0890    0.6720 C   0  0  0  0  0  0  0  0  0  0  0  0
   -3.7990    1.6220    1.3630 C   0  0  0  0  0  0  0  0  0  0  0  0
   -5.1080    1.4520    0.9180 C   0  0  0  0  0  0  0  0  0  0  0  0
   -6.2520    2.0130    1.7120 C   0  0  0  0  0  0  0  0  0  0  0  0
   -5.4280    0.7510   -0.2400 C   0  0  0  0  0  0  0  0  0  0  0  0
   -6.7420    0.5300   -0.7620 C   0  0  0  0  0  0  0  0  0  0  0  0
   -7.6330   -0.5220   -0.2460 C   0  0  0  0  0  0  0  0  0  0  0  0
   -7.1380   -1.9440   -0.3680 C   0  0  0  0  0  0  0  0  0  0  0  0
   -8.2110   -2.7390    0.1300 O   0  0  0  0  0  0  0  0  0  0  0  0
   -4.3340    0.2320   -0.9110 C   0  0  0  0  0  0  0  0  0  0  0  0
   -3.0400    0.3810   -0.4890 C   0  0  0  0  0  0  0  0  0  0  0  0
   -2.0200   -0.1920   -1.2530 C   0  0  0  0  0  0  0  0  0  0  0  0
   -0.7400   -0.0830   -0.9180 C   0  0  0  0  0  0  0  0  0  0  0  0
    0.3610   -0.6670   -1.6540 N   0  0  0  0  0  0  0  0  0  0  0  0
    0.2890   -2.1270   -1.9080 C   0  0  0  0  0  0  0  0  0  0  0  0
   -0.6430   -2.8350   -1.5320 O   0  0  0  0  0  0  0  0  0  0  0  0
    5.9160   -1.5370    0.2390 C   0  0  0  0  0  0  0  0  0  0  0  0
  1  2  1  0
  2  3  2  0
  2 32  1  0
  3  4  1  0
  4  5  2  0
  5  6  1  0
  5  8  1  0
  6  7  1  0
  8  9  1  0
  8 32  2  0
  9 10  1  0
 10 11  2  0
 10 12  1  0
 12 13  1  0
 13 14  1  0
 14 15  2  0
 14 28  1  0
 15 16  1  0
 16 17  2  0
 16 26  1  0
 17 18  1  0
 18 19  1  0
 18 20  2  0
 20 21  1  0
 20 25  1  0
 21 22  1  0
 22 23  1  0
 23 24  1  0
 25 26  2  0
 26 27  1  0
 27 28  2  0
 28 29  1  0
 29 30  1  0
 30 31  2  0
M  END
