
     RDKit          3D

 32 35  0  0  0  0  0  0  0  0999 V2000
   -2.8850   -2.2570    0.3740 C   0  0  0  0  0  0  0  0  0  0  0  0
   -2.3270   -0.9300    0.5410 N   0  0  0  0  0  0  0  0  0  0  0  0
   -1.0210   -0.6360    0.4130 N   0  0  0  0  0  0  0  0  0  0  0  0
   -0.7270    0.6200    0.6570 C   0  0  0  0  0  0  0  0  0  0  0  0
    0.3330    1.2980    0.6530 N   0  0  0  0  0  0  0  0  0  0  0  0
    1.6620    0.9640    0.3780 C   0  0  0  0  0  0  0  0  0  0  0  0
    2.5790    1.9410    0.5510 C   0  0  0  0  0  0  0  0  0  0  0  0
    3.9670    1.7260    0.3020 C   0  0  0  0  0  0  0  0  0  0  0  0
    4.4820    0.5770   -0.1150 C   0  0  0  0  0  0  0  0  0  0  0  0
    5.9200    0.4280   -0.3500 C   0  0  0  0  0  0  0  0  0  0  0  0
    6.7030    1.4180   -0.1510 O   0  0  0  0  0  0  0  0  0  0  0  0
    6.5180   -0.7770   -0.7950 N   0  0  0  0  0  0  0  0  0  0  0  0
    7.9310   -0.8310   -0.9970 C   0  0  0  0  0  0  0  0  0  0  0  0
    8.6560   -1.8790   -1.4110 N   0  0  0  0  0  0  0  0  0  0  0  0
    9.9630   -1.5150   -1.4720 C   0  0  0  0  0  0  0  0  0  0  0  0
   10.0330   -0.2320   -1.0910 N   0  0  0  0  0  0  0  0  0  0  0  0
    8.8000    0.1750   -0.8050 N   0  0  0  0  0  0  0  0  0  0  0  0
    3.5360   -0.4540   -0.3160 N   0  0  0  0  0  0  0  0  0  0  0  0
    2.1170   -0.3560   -0.0690 C   0  0  0  0  0  0  0  0  0  0  0  0
   -1.9740    1.2160    0.9790 C   0  0  0  0  0  0  0  0  0  0  0  0
   -2.2500    2.5050    1.3430 C   0  0  0  0  0  0  0  0  0  0  0  0
   -1.3560    3.3710    1.4090 O   0  0  0  0  0  0  0  0  0  0  0  0
   -3.5410    2.7980    1.6300 N   0  0  0  0  0  0  0  0  0  0  0  0
   -4.4640    1.8400    1.5450 C   0  0  0  0  0  0  0  0  0  0  0  0
   -5.6610    2.1130    1.8110 O   0  0  0  0  0  0  0  0  0  0  0  0
   -4.2060    0.5500    1.1810 N   0  0  0  0  0  0  0  0  0  0  0  0
   -5.2710   -0.3930    1.1310 C   0  0  0  0  0  0  0  0  0  0  0  0
   -6.1310   -0.3300   -0.0830 C   0  0  2  0  0  0  0  0  0  0  0  0
   -7.1050   -1.3200    0.0210 O   0  0  0  0  0  0  0  0  0  0  0  0
   -5.4550   -0.4190   -1.3890 C   0  0  0  0  0  0  0  0  0  0  0  0
   -6.4850   -0.1560   -2.4400 N   0  0  0  0  0  0  0  0  0  0  0  0
   -2.9350    0.2150    0.8910 C   0  0  0  0  0  0  0  0  0  0  0  0
  1  2  1  0
  2  3  1  0
  2 32  1  0
  3  4  1  0
  4  5  2  3
  4 20  1  0
  5  6  1  0
  6  7  2  0
  6 19  1  0
  7  8  1  0
  8  9  2  0
  9 10  1  0
  9 18  1  0
 10 11  2  0
 10 12  1  0
 12 13  1  0
 13 14  1  0
 13 17  2  0
 14 15  2  0
 15 16  1  0
 16 17  1  0
 18 19  1  0
 20 21  1  0
 20 32  2  0
 21 22  2  0
 21 23  1  0
 23 24  1  0
 24 25  2  0
 24 26  1  0
 26 27  1  0
 26 32  1  0
 27 28  1  0
 28 29  1  1
 28 30  1  0
 30 31  1  0
M  END
