
     RDKit          3D

 32 35  0  0  0  0  0  0  0  0999 V2000
    4.6500    0.4400   -4.6150 C   0  0  0  0  0  0  0  0  0  0  0  0
    4.2260    0.5130   -3.2800 O   0  0  0  0  0  0  0  0  0  0  0  0
    5.0020    0.2220   -2.1820 C   0  0  0  0  0  0  0  0  0  0  0  0
    6.1910   -0.1410   -2.3650 O   0  0  0  0  0  0  0  0  0  0  0  0
    4.5060    0.3160   -0.8150 C   0  0  0  0  0  0  0  0  0  0  0  0
    3.2770    0.6820   -0.4100 N   0  0  0  0  0  0  0  0  0  0  0  0
    3.2140    0.6410    0.9420 C   0  0  0  0  0  0  0  0  0  0  0  0
    4.4070    0.2490    1.3620 N   0  0  0  0  0  0  0  0  0  0  0  0
    5.1870    0.0530    0.3120 N   0  0  0  0  0  0  0  0  0  0  0  0
    4.7490    0.0790    2.7730 C   0  0  0  0  0  0  0  0  0  0  0  0
    3.5070    0.1140    3.6350 C   0  0  0  0  0  0  0  0  0  0  0  0
    2.6500    1.2490    3.2060 C   0  0  0  0  0  0  0  0  0  0  0  0
    2.0820    0.9550    1.8400 C   0  0  2  0  0  0  0  0  0  0  0  0
    1.2180   -0.2190    1.9780 N   0  0  0  0  0  0  0  0  0  0  0  0
   -0.1940   -0.0880    1.6520 C   0  0  0  0  0  0  0  0  0  0  0  0
   -0.5800    1.0080    1.2770 O   0  0  0  0  0  0  0  0  0  0  0  0
   -1.0840   -1.1510    1.7560 N   0  0  0  0  0  0  0  0  0  0  0  0
   -2.4740   -1.3090    1.5320 C   0  0  0  0  0  0  0  0  0  0  0  0
   -3.0570   -1.0010    0.2440 C   0  0  0  0  0  0  0  0  0  0  0  0
   -3.3790   -1.9720   -0.6440 C   0  0  0  0  0  0  0  0  0  0  0  0
   -3.1890   -3.3610   -0.4370 N   0  0  0  0  0  0  0  0  0  0  0  0
   -3.9880   -1.3720   -1.8140 C   0  0  0  0  0  0  0  0  0  0  0  0
   -4.4380   -1.9780   -2.9140 C   0  0  0  0  0  0  0  0  0  0  0  0
   -4.9980   -1.1840   -3.9340 N   0  0  0  0  0  0  0  0  0  0  0  0
   -5.2290    0.1670   -3.7410 N   0  0  0  0  0  0  0  0  0  0  0  0
   -4.0080    0.0150   -1.5390 N   0  0  0  0  0  0  0  0  0  0  0  0
   -3.4730    0.2350   -0.3410 C   0  0  0  0  0  0  0  0  0  0  0  0
   -3.4900    1.6010    0.1990 C   0  0  0  0  0  0  0  0  0  0  0  0
   -3.8680    2.7240   -0.4710 N   0  0  0  0  0  0  0  0  0  0  0  0
   -3.7680    3.7930    0.3340 C   0  0  0  0  0  0  0  0  0  0  0  0
   -3.3220    3.3050    1.5060 N   0  0  0  0  0  0  0  0  0  0  0  0
   -3.1710    2.0160    1.3890 O   0  0  0  0  0  0  0  0  0  0  0  0
  1  2  1  0
  2  3  1  0
  3  4  2  0
  3  5  1  0
  5  6  1  0
  5  9  2  0
  6  7  2  0
  7  8  1  0
  7 13  1  0
  8  9  1  0
  8 10  1  0
 10 11  1  0
 11 12  1  0
 12 13  1  0
 13 14  1  1
 14 15  1  0
 15 16  2  0
 15 17  1  0
 17 18  1  0
 18 19  1  0
 19 20  2  0
 19 27  1  0
 20 21  1  0
 20 22  1  0
 22 23  2  3
 22 26  1  0
 23 24  1  0
 24 25  1  0
 26 27  2  0
 27 28  1  0
 28 29  2  0
 28 32  1  0
 29 30  1  0
 30 31  2  0
 31 32  1  0
M  END
