
     RDKit          3D

 32 34  0  0  0  0  0  0  0  0999 V2000
    0.4610   -0.8530   -0.5450 C   0  0  0  0  0  0  0  0  0  0  0  0
    1.1680   -0.5180    0.7500 C   0  0  2  0  0  0  0  0  0  0  0  0
    0.5150    0.6800    1.3670 C   0  0  0  0  0  0  0  0  0  0  0  0
   -0.9240    0.3040    1.6160 C   0  0  0  0  0  0  0  0  0  0  0  0
   -1.3790   -0.8090    1.3190 O   0  0  0  0  0  0  0  0  0  0  0  0
   -1.7720    1.2680    2.2110 N   0  0  0  0  0  0  0  0  0  0  0  0
   -3.1730    1.0670    2.5130 C   0  0  0  0  0  0  0  0  0  0  0  0
   -3.9120    0.7890    1.2400 C   0  0  0  0  0  0  0  0  0  0  0  0
   -5.3030    0.5850    1.4800 O   0  0  0  0  0  0  0  0  0  0  0  0
   -6.1260    0.3220    0.4140 C   0  0  0  0  0  0  0  0  0  0  0  0
   -5.6320    0.2550   -0.8640 C   0  0  0  0  0  0  0  0  0  0  0  0
   -6.4350   -0.0070   -1.9560 C   0  0  0  0  0  0  0  0  0  0  0  0
   -5.8650   -0.0630   -3.2430 N   0  0  0  0  0  0  0  0  0  0  0  0
   -7.7660   -0.2080   -1.7760 C   0  0  0  0  0  0  0  0  0  0  0  0
   -8.3010   -0.1480   -0.4980 C   0  0  0  0  0  0  0  0  0  0  0  0
   -9.7500   -0.3610   -0.2870 C   0  0  0  0  0  0  0  0  0  0  0  0
  -10.1020   -1.6830   -0.1110 O   0  0  0  0  0  0  0  0  0  0  0  0
   -7.4720    0.1190    0.5960 C   0  0  0  0  0  0  0  0  0  0  0  0
    2.5880   -0.3600    0.4520 C   0  0  0  0  0  0  0  0  0  0  0  0
    3.4800   -1.2080    1.0710 C   0  0  0  0  0  0  0  0  0  0  0  0
    4.8400   -1.1230    0.8400 C   0  0  0  0  0  0  0  0  0  0  0  0
    5.3690   -0.1790   -0.0260 C   0  0  0  0  0  0  0  0  0  0  0  0
    6.8100   -0.1150   -0.2500 C   0  0  0  0  0  0  0  0  0  0  0  0
    7.6040   -1.2460   -0.1980 C   0  0  0  0  0  0  0  0  0  0  0  0
    8.9670   -1.2010   -0.4080 C   0  0  0  0  0  0  0  0  0  0  0  0
    9.5970   -0.0060   -0.6810 C   0  0  0  0  0  0  0  0  0  0  0  0
   11.0380    0.0730   -0.9070 C   0  0  0  0  0  0  0  0  0  0  0  0
   11.7350   -0.9800   -0.8520 O   0  0  0  0  0  0  0  0  0  0  0  0
    8.8110    1.1250   -0.7340 C   0  0  0  0  0  0  0  0  0  0  0  0
    7.4410    1.0800   -0.5230 C   0  0  0  0  0  0  0  0  0  0  0  0
    4.4630    0.6630   -0.6380 C   0  0  0  0  0  0  0  0  0  0  0  0
    3.1070    0.5810   -0.4100 C   0  0  0  0  0  0  0  0  0  0  0  0
  2  1  1  6
  2  3  1  0
  2 19  1  0
  3  4  1  0
  4  5  2  0
  4  6  1  0
  6  7  1  0
  7  8  1  0
  8  9  1  0
  9 10  1  0
 10 11  2  0
 10 18  1  0
 11 12  1  0
 12 13  1  0
 12 14  2  0
 14 15  1  0
 15 16  1  0
 15 18  2  0
 16 17  1  0
 19 20  2  0
 19 32  1  0
 20 21  1  0
 21 22  2  0
 22 23  1  0
 22 31  1  0
 23 24  2  0
 23 30  1  0
 24 25  1  0
 25 26  2  0
 26 27  1  0
 26 29  1  0
 27 28  2  0
 29 30  2  0
 31 32  2  0
M  END
