
     RDKit          3D

 32 34  0  0  0  0  0  0  0  0999 V2000
   -7.8700    0.5120    0.9870 C   0  0  0  0  0  0  0  0  0  0  0  0
   -6.9520   -0.2970    0.1310 C   0  0  0  0  0  0  0  0  0  0  0  0
   -5.8220    0.4100   -0.4110 C   0  0  0  0  0  0  0  0  0  0  0  0
   -4.6330    0.9430    0.2770 C   0  0  2  0  0  0  0  0  0  0  0  0
   -4.8180    1.9480    1.3970 C   0  0  0  0  0  0  0  0  0  0  0  0
   -5.4990    1.5190    2.6130 C   0  0  0  0  0  0  0  0  0  0  0  0
   -3.8980    1.7300   -0.7870 C   0  0  0  0  0  0  0  0  0  0  0  0
   -2.4500    1.6280   -0.7630 C   0  0  0  0  0  0  0  0  0  0  0  0
   -1.6590    2.6130   -0.8430 O   0  0  0  0  0  0  0  0  0  0  0  0
   -1.8620    0.2950   -0.6380 C   0  0  0  0  0  0  0  0  0  0  0  0
   -0.6700   -0.0520   -1.2310 C   0  0  0  0  0  0  0  0  0  0  0  0
   -0.1410   -1.3310   -1.0400 C   0  0  0  0  0  0  0  0  0  0  0  0
    1.1700   -1.7040   -1.5870 C   0  0  0  0  0  0  0  0  0  0  0  0
    1.2610   -1.9380   -2.8360 O   0  0  0  0  0  0  0  0  0  0  0  0
    2.3170   -1.8050   -0.8000 N   0  0  0  0  0  0  0  0  0  0  0  0
    3.6360   -2.1580   -1.1670 C   0  0  0  0  0  0  0  0  0  0  0  0
    3.9350   -2.6960   -2.3830 C   0  0  0  0  0  0  0  0  0  0  0  0
    5.2260   -3.0880   -2.7550 C   0  0  0  0  0  0  0  0  0  0  0  0
    6.2560   -2.9310   -1.8640 C   0  0  0  0  0  0  0  0  0  0  0  0
    5.9500   -2.3900   -0.6430 C   0  0  0  0  0  0  0  0  0  0  0  0
    4.6780   -1.9950   -0.2560 C   0  0  0  0  0  0  0  0  0  0  0  0
    4.4640   -1.4100    1.0650 C   0  0  0  0  0  0  0  0  0  0  0  0
    4.3400    0.1020    1.0740 C   0  0  0  0  0  0  0  0  0  0  0  0
    5.5770    0.7410    0.4780 C   0  0  0  0  0  0  0  0  0  0  0  0
    5.4600    2.2350    0.5630 C   0  0  0  0  0  0  0  0  0  0  0  0
    6.6590    2.9300   -0.0480 C   0  0  0  0  0  0  0  0  0  0  0  0
    6.8260    2.6410   -1.3940 O   0  0  0  0  0  0  0  0  0  0  0  0
   -0.8660   -2.1750   -0.2560 C   0  0  0  0  0  0  0  0  0  0  0  0
   -0.4200   -3.3550   -0.0540 O   0  0  0  0  0  0  0  0  0  0  0  0
   -2.0460   -1.8020    0.3160 N   0  0  0  0  0  0  0  0  0  0  0  0
   -2.5790   -0.5750    0.1510 C   0  0  0  0  0  0  0  0  0  0  0  0
   -3.8270   -0.2120    0.7970 C   0  0  0  0  0  0  0  0  0  0  0  0
  1  2  1  0
  2  3  1  0
  4  3  1  6
  4  5  1  0
  4  7  1  0
  4 32  1  0
  5  6  1  0
  7  8  1  0
  8  9  2  0
  8 10  1  0
 10 11  1  0
 10 31  2  0
 11 12  2  0
 12 13  1  0
 12 28  1  0
 13 14  2  0
 13 15  1  0
 15 16  1  0
 16 17  2  0
 16 21  1  0
 17 18  1  0
 18 19  2  0
 19 20  1  0
 20 21  2  0
 21 22  1  0
 22 23  1  0
 23 24  1  0
 24 25  1  0
 25 26  1  0
 26 27  1  0
 28 29  2  0
 28 30  1  0
 30 31  1  0
 31 32  1  0
M  END
