
     RDKit          3D

 32 34  0  0  0  0  0  0  0  0999 V2000
   -5.8400   -0.3640    3.8110 C   0  0  0  0  0  0  0  0  0  0  0  0
   -4.8460   -0.3040    2.7800 N   0  0  0  0  0  0  0  0  0  0  0  0
   -5.1750   -1.0670    1.6380 C   0  0  0  0  0  0  0  0  0  0  0  0
   -3.8730   -1.2160    0.7430 C   0  0  0  0  0  0  0  0  0  0  0  0
   -3.2290    0.1200    0.6920 C   0  0  2  0  0  0  0  0  0  0  0  0
   -2.9940    0.7170    1.9130 O   0  0  0  0  0  0  0  0  0  0  0  0
   -3.6000    1.0540   -0.3720 C   0  0  0  0  0  0  0  0  0  0  0  0
   -5.0720    1.2720   -0.6400 C   0  0  0  0  0  0  0  0  0  0  0  0
   -5.5710    0.0530   -1.2600 O   0  0  0  0  0  0  0  0  0  0  0  0
   -1.6540   -0.2610    0.3890 C   0  0  0  0  0  0  0  0  0  0  0  0
   -1.4040   -0.5950   -0.9950 C   0  0  0  0  0  0  0  0  0  0  0  0
   -2.3960   -1.1030   -1.8240 C   0  0  0  0  0  0  0  0  0  0  0  0
   -2.2860   -1.0000   -3.2040 C   0  0  0  0  0  0  0  0  0  0  0  0
   -1.1800   -0.3770   -3.7220 C   0  0  0  0  0  0  0  0  0  0  0  0
   -0.2140    0.1030   -2.9270 C   0  0  0  0  0  0  0  0  0  0  0  0
    1.0260    0.7170   -3.4820 C   0  0  0  0  0  0  0  0  0  0  0  0
    0.7530    1.8570   -4.2200 O   0  0  0  0  0  0  0  0  0  0  0  0
   -0.2440    0.0260   -1.5180 C   0  0  0  0  0  0  0  0  0  0  0  0
    0.9320    0.3270   -0.8730 N   0  0  0  0  0  0  0  0  0  0  0  0
    1.5450    1.3620   -0.1400 C   0  0  0  0  0  0  0  0  0  0  0  0
    0.8630    2.3490    0.1020 O   0  0  0  0  0  0  0  0  0  0  0  0
    2.9840    1.1380    0.2330 C   0  0  0  0  0  0  0  0  0  0  0  0
    3.8130    0.8780   -0.8680 C   0  0  0  0  0  0  0  0  0  0  0  0
    5.1210    0.4850   -0.7270 C   0  0  0  0  0  0  0  0  0  0  0  0
    5.6410    0.3420    0.5160 C   0  0  0  0  0  0  0  0  0  0  0  0
    6.9540   -0.1420    0.6620 C   0  0  0  0  0  0  0  0  0  0  0  0
    7.7030   -0.4760   -0.5800 C   0  0  0  0  0  0  0  0  0  0  0  0
    7.4340   -0.3500    1.9120 C   0  0  0  0  0  0  0  0  0  0  0  0
    6.6650   -0.0970    3.0360 C   0  0  0  0  0  0  0  0  0  0  0  0
    5.3820    0.3710    2.8640 C   0  0  0  0  0  0  0  0  0  0  0  0
    4.8560    0.5990    1.6080 C   0  0  0  0  0  0  0  0  0  0  0  0
    3.5040    1.0080    1.4500 C   0  0  0  0  0  0  0  0  0  0  0  0
  1  2  1  0
  2  3  1  0
  3  4  1  0
  4  5  1  0
  5  6  1  1
  5  7  1  0
  5 10  1  0
  7  8  1  0
  8  9  1  0
 10 11  1  0
 11 12  2  0
 11 18  1  0
 12 13  1  0
 13 14  2  0
 14 15  1  0
 15 16  1  0
 15 18  2  0
 16 17  1  0
 18 19  1  0
 19 20  1  0
 20 21  2  0
 20 22  1  0
 22 23  2  0
 22 32  1  0
 23 24  1  0
 24 25  2  0
 25 26  1  0
 25 31  1  0
 26 27  1  0
 26 28  2  0
 28 29  1  0
 29 30  2  0
 30 31  1  0
 31 32  2  0
M  END
