
     RDKit          3D

 38 40  0  0  0  0  0  0  0  0999 V2000
   -6.0810    0.0810   -3.0860 C   0  0  0  0  0  0  0  0  0  0  0  0
   -4.6070    0.2500   -2.9270 C   0  0  0  0  0  0  0  0  0  0  0  0
   -3.8590   -0.9460   -2.4650 C   0  0  2  0  0  0  0  0  0  0  0  0
   -4.0850   -1.9840   -3.4010 O   0  0  0  0  0  0  0  0  0  0  0  0
   -4.1770   -1.4530   -1.0850 C   0  0  0  0  0  0  0  0  0  0  0  0
   -3.9150   -0.4430   -0.0840 N   0  0  0  0  0  0  0  0  0  0  0  0
   -4.9960    0.3990    0.3880 C   0  0  0  0  0  0  0  0  0  0  0  0
   -5.6970   -0.1700    1.6040 C   0  0  2  0  0  0  0  0  0  0  0  0
   -4.7530   -0.3160    2.6600 O   0  0  0  0  0  0  0  0  0  0  0  0
   -6.3530   -1.4690    1.3620 C   0  0  0  0  0  0  0  0  0  0  0  0
   -6.0420   -2.4000    2.0960 O   0  0  0  0  0  0  0  0  0  0  0  0
   -6.7050    0.8180    2.1220 C   0  0  0  0  0  0  0  0  0  0  0  0
   -7.7560    1.1530    1.1230 C   0  0  0  0  0  0  0  0  0  0  0  0
   -8.4870    0.0640    0.7430 F   0  0  0  0  0  0  0  0  0  0  0  0
   -2.5700   -0.2650    0.4660 C   0  0  0  0  0  0  0  0  0  0  0  0
   -2.5280    0.6350    1.3320 O   0  0  0  0  0  0  0  0  0  0  0  0
   -1.4940   -1.0630   -0.0010 C   0  0  0  0  0  0  0  0  0  0  0  0
   -0.2500   -1.1010    0.2880 C   0  0  0  0  0  0  0  0  0  0  0  0
    0.5550   -0.3400    1.2220 C   0  0  0  0  0  0  0  0  0  0  0  0
    0.2740    0.3780    2.2990 N   0  0  0  0  0  0  0  0  0  0  0  0
    1.3830    1.0260    2.7760 C   0  0  0  0  0  0  0  0  0  0  0  0
    1.5620    1.8910    3.8450 C   0  0  0  0  0  0  0  0  0  0  0  0
    2.8220    2.4150    4.0610 C   0  0  0  0  0  0  0  0  0  0  0  0
    3.8830    2.1110    3.2610 C   0  0  0  0  0  0  0  0  0  0  0  0
    3.7010    1.2200    2.1640 C   0  0  0  0  0  0  0  0  0  0  0  0
    4.8560    0.8870    1.3740 C   0  0  0  0  0  0  0  0  0  0  0  0
    5.3840    1.8910    0.7560 O   0  0  0  0  0  0  0  0  0  0  0  0
    5.4840   -0.3610    1.1970 N   0  0  0  0  0  0  0  0  0  0  0  0
    6.6510   -0.5460    0.3640 C   0  0  0  0  0  0  0  0  0  0  0  0
    6.4470   -0.3600   -1.1020 C   0  0  2  0  0  0  0  0  0  0  0  0
    5.6960   -1.5190   -1.7250 C   0  0  0  0  0  0  0  0  0  0  0  0
    7.8610   -0.3610   -1.7710 C   0  0  0  0  0  0  0  0  0  0  0  0
    7.7550    0.7830   -2.7490 C   0  0  0  0  0  0  0  0  0  0  0  0
    6.2390    0.9380   -2.8730 C   0  0  0  0  0  0  0  0  0  0  0  0
    5.8970    0.8210   -1.5100 O   0  0  0  0  0  0  0  0  0  0  0  0
    2.4530    0.7100    1.9620 C   0  0  0  0  0  0  0  0  0  0  0  0
    1.9490   -0.1220    1.0180 C   0  0  0  0  0  0  0  0  0  0  0  0
    2.7280   -0.7160   -0.0870 C   0  0  0  0  0  0  0  0  0  0  0  0
  1  2  1  0
  2  3  1  0
  3  4  1  6
  3  5  1  0
  5  6  1  0
  6  7  1  0
  6 15  1  0
  7  8  1  0
  8  9  1  1
  8 10  1  0
  8 12  1  0
 10 11  2  0
 12 13  1  0
 13 14  1  0
 15 16  2  0
 15 17  1  0
 17 18  2  3
 18 19  1  0
 19 20  1  0
 19 37  2  0
 20 21  1  0
 21 22  2  0
 21 36  1  0
 22 23  1  0
 23 24  2  0
 24 25  1  0
 25 26  1  0
 25 36  2  0
 26 27  2  0
 26 28  1  0
 28 29  1  0
 29 30  1  0
 30 31  1  6
 30 32  1  0
 30 35  1  0
 32 33  1  0
 33 34  1  0
 34 35  1  0
 36 37  1  0
 37 38  1  0
M  END
