
     RDKit          3D

 38 39  0  0  0  0  0  0  0  0999 V2000
   -5.7430    2.2230    3.8920 C   0  0  0  0  0  0  0  0  0  0  0  0
   -6.7750    2.1450    2.8390 C   0  0  0  0  0  0  0  0  0  0  0  0
   -6.5010    1.5920    1.6280 C   0  0  0  0  0  0  0  0  0  0  0  0
   -5.1680    1.0930    1.4280 C   0  0  0  0  0  0  0  0  0  0  0  0
   -4.6190    0.5190    0.4080 C   0  0  0  0  0  0  0  0  0  0  0  0
   -5.2470    0.2520   -0.7720 O   0  0  0  0  0  0  0  0  0  0  0  0
   -5.1940   -0.9920   -1.4050 C   0  0  0  0  0  0  0  0  0  0  0  0
   -5.3600   -1.0630   -2.7000 C   0  0  0  0  0  0  0  0  0  0  0  0
   -5.3020   -2.3910   -3.3700 C   0  0  0  0  0  0  0  0  0  0  0  0
   -4.2960   -2.4060   -4.2940 F   0  0  0  0  0  0  0  0  0  0  0  0
   -3.1740    0.0970    0.4890 C   0  0  2  0  0  0  0  0  0  0  0  0
   -2.5550    0.5210    1.6370 O   0  0  0  0  0  0  0  0  0  0  0  0
   -2.4860    0.6490   -0.7330 C   0  0  0  0  0  0  0  0  0  0  0  0
   -1.1160    0.2610   -0.8490 N   0  0  0  0  0  0  0  0  0  0  0  0
   -0.2140    0.8090    0.1020 C   0  0  0  0  0  0  0  0  0  0  0  0
    1.1880    0.7900   -0.5410 C   0  0  0  0  0  0  0  0  0  0  0  0
    1.3460   -0.5260   -1.2020 C   0  0  2  0  0  0  0  0  0  0  0  0
    2.7030   -0.9800   -1.5580 C   0  0  0  0  0  0  0  0  0  0  0  0
    3.6670   -1.1770   -0.5190 N   0  0  0  0  0  0  0  0  0  0  0  0
    3.7740   -2.4330    0.1000 C   0  0  0  0  0  0  0  0  0  0  0  0
    2.8390   -3.2760   -0.1620 O   0  0  0  0  0  0  0  0  0  0  0  0
    4.8240   -2.9140    1.0080 C   0  0  1  0  0  0  0  0  0  0  0  0
    4.5060   -4.2320    1.4390 O   0  0  0  0  0  0  0  0  0  0  0  0
    6.1400   -3.1250    0.2240 C   0  0  0  0  0  0  0  0  0  0  0  0
    5.9230   -3.9950   -0.8380 O   0  0  0  0  0  0  0  0  0  0  0  0
    4.5640   -0.1390   -0.1650 C   0  0  0  0  0  0  0  0  0  0  0  0
    5.4640    0.2900   -1.1410 C   0  0  0  0  0  0  0  0  0  0  0  0
    6.3650    1.2760   -0.8880 C   0  0  0  0  0  0  0  0  0  0  0  0
    6.4330    1.9040    0.3530 C   0  0  0  0  0  0  0  0  0  0  0  0
    7.4250    2.9820    0.6210 C   0  0  0  0  0  0  0  0  0  0  0  0
    5.5340    1.4600    1.2930 C   0  0  0  0  0  0  0  0  0  0  0  0
    4.6100    0.4610    1.0610 C   0  0  0  0  0  0  0  0  0  0  0  0
    3.6740    0.0610    2.1530 C   0  0  0  0  0  0  0  0  0  0  0  0
    0.4930   -0.5190   -2.4830 C   0  0  0  0  0  0  0  0  0  0  0  0
   -0.6770    0.4070   -2.2070 C   0  0  0  0  0  0  0  0  0  0  0  0
   -7.6120    1.5910    0.7080 C   0  0  0  0  0  0  0  0  0  0  0  0
   -8.7540    2.0950    1.0840 N   0  0  0  0  0  0  0  0  0  0  0  0
   -7.5390    1.0770   -0.5730 O   0  0  0  0  0  0  0  0  0  0  0  0
  1  2  1  0
  2  3  2  3
  3  4  1  0
  3 36  1  0
  4  5  2  3
  5  6  1  0
  5 11  1  0
  6  7  1  0
  7  8  2  3
  8  9  1  0
  9 10  1  0
 11 12  1  1
 11 13  1  0
 13 14  1  0
 14 15  1  0
 14 35  1  0
 15 16  1  0
 16 17  1  0
 17 18  1  6
 17 34  1  0
 18 19  1  0
 19 20  1  0
 19 26  1  0
 20 21  2  0
 20 22  1  0
 22 23  1  6
 22 24  1  0
 24 25  1  0
 26 27  2  0
 26 32  1  0
 27 28  1  0
 28 29  2  0
 29 30  1  0
 29 31  1  0
 31 32  2  0
 32 33  1  0
 34 35  1  0
 36 37  2  0
 36 38  1  0
M  END
