
     RDKit          3D

 37 40  0  0  0  0  0  0  0  0999 V2000
   -5.8610    2.1360    0.1560 C   0  0  0  0  0  0  0  0  0  0  0  0
   -6.7370    1.1270    0.8240 C   0  0  0  0  0  0  0  0  0  0  0  0
   -6.3230   -0.3030    0.4620 C   0  0  1  0  0  0  0  0  0  0  0  0
   -6.4350   -0.4640   -0.9740 C   0  0  0  0  0  0  0  0  0  0  0  0
   -5.2880   -1.0200   -1.6530 C   0  0  0  0  0  0  0  0  0  0  0  0
   -4.0910   -1.1310   -1.1240 C   0  0  0  0  0  0  0  0  0  0  0  0
   -3.0400   -1.7070   -1.9240 C   0  0  0  0  0  0  0  0  0  0  0  0
   -1.8860   -2.0090   -1.7370 O   0  0  0  0  0  0  0  0  0  0  0  0
   -3.4220   -2.0120   -3.2940 O   0  0  0  0  0  0  0  0  0  0  0  0
   -2.4880   -2.5800   -4.1870 C   0  0  0  0  0  0  0  0  0  0  0  0
   -3.8890   -0.8920    0.3410 C   0  0  0  0  0  0  0  0  0  0  0  0
   -2.6980   -1.0450    0.9970 C   0  0  0  0  0  0  0  0  0  0  0  0
   -1.2780   -0.9880    0.6650 C   0  0  0  0  0  0  0  0  0  0  0  0
   -0.4710   -1.5040    1.4750 O   0  0  0  0  0  0  0  0  0  0  0  0
   -0.8030   -0.3760   -0.4720 N   0  0  0  0  0  0  0  0  0  0  0  0
    0.2710    0.3300   -0.6170 C   0  0  0  0  0  0  0  0  0  0  0  0
    0.7670    0.9650   -1.7750 N   0  0  0  0  0  0  0  0  0  0  0  0
    2.1450    0.9440   -1.7030 N   0  0  0  0  0  0  0  0  0  0  0  0
    2.4070    1.0250   -0.2780 C   0  0  2  0  0  0  0  0  0  0  0  0
    2.8160    2.3710    0.0720 N   0  0  0  0  0  0  0  0  0  0  0  0
    4.0440    2.8970   -0.4950 C   0  0  0  0  0  0  0  0  0  0  0  0
    4.1430    4.1140   -0.7790 O   0  0  0  0  0  0  0  0  0  0  0  0
    5.1220    1.9990   -0.7190 N   0  0  0  0  0  0  0  0  0  0  0  0
    5.2640    0.9150    0.2260 C   0  0  2  0  0  0  0  0  0  0  0  0
    6.4100    0.1250   -0.0470 N   0  0  0  0  0  0  0  0  0  0  0  0
    7.4540    0.0170    0.8620 C   0  0  0  0  0  0  0  0  0  0  0  0
    7.5060    0.5670    1.9580 O   0  0  0  0  0  0  0  0  0  0  0  0
    8.5630   -0.7570    0.5820 N   0  0  0  0  0  0  0  0  0  0  0  0
    9.6230   -0.8980    1.4320 C   0  0  0  0  0  0  0  0  0  0  0  0
   10.4370   -1.7260    0.7770 N   0  0  0  0  0  0  0  0  0  0  0  0
   10.1860   -0.5530    2.6420 N   0  0  0  0  0  0  0  0  0  0  0  0
    3.7500   -0.0820    0.2130 S   0  0  0  0  0  0  0  0  0  0  0  0
    1.2090    0.6180    0.4130 N   0  0  0  0  0  0  0  0  0  0  0  0
   -3.1580   -0.7920    2.7370 S   0  0  0  0  0  0  0  0  0  0  0  0
   -4.8320   -0.4910    2.4540 C   0  0  0  0  0  0  0  0  0  0  0  0
   -5.8300   -0.2140    3.5250 C   0  0  0  0  0  0  0  0  0  0  0  0
   -4.9780   -0.5960    1.1010 C   0  0  0  0  0  0  0  0  0  0  0  0
  1  2  1  0
  3  2  1  6
  3  4  1  0
  3 37  1  0
  4  5  1  0
  5  6  2  0
  6  7  1  0
  6 11  1  0
  7  8  2  0
  7  9  1  0
  9 10  1  0
 11 12  2  0
 11 37  1  0
 12 13  1  0
 12 34  1  0
 13 14  2  0
 13 15  1  0
 15 16  2  3
 16 17  1  0
 16 33  1  0
 17 18  1  0
 19 18  1  6
 19 20  1  0
 19 32  1  0
 19 33  1  0
 20 21  1  0
 21 22  2  0
 21 23  1  0
 23 24  1  0
 24 25  1  6
 24 32  1  0
 25 26  1  0
 26 27  2  0
 26 28  1  0
 28 29  1  0
 29 30  2  0
 29 31  1  0
 34 35  1  0
 35 36  1  0
 35 37  2  0
M  END
