
     RDKit          3D

 38 40  0  0  0  0  0  0  0  0999 V2000
    2.0960   -0.7510    2.5220 C   0  0  0  0  0  0  0  0  0  0  0  0
    2.4110    0.6980    2.3200 C   0  0  0  0  0  0  0  0  0  0  0  0
    2.4020    1.1190    0.8860 C   0  0  0  0  0  0  0  0  0  0  0  0
    3.5250    1.2490    0.2240 C   0  0  0  0  0  0  0  0  0  0  0  0
    4.8410    1.0040    0.7840 C   0  0  0  0  0  0  0  0  0  0  0  0
    5.0220    0.6380    1.9480 O   0  0  0  0  0  0  0  0  0  0  0  0
    6.0090    1.1820   -0.0110 N   0  0  0  0  0  0  0  0  0  0  0  0
    7.3280    0.9270    0.5530 C   0  0  0  0  0  0  0  0  0  0  0  0
    7.4330   -0.5470    0.8200 C   0  0  0  0  0  0  0  0  0  0  0  0
    6.4610   -1.4490    0.4810 C   0  0  0  0  0  0  0  0  0  0  0  0
    6.6330   -2.7920    0.7280 C   0  0  0  0  0  0  0  0  0  0  0  0
    7.7650   -3.2960    1.3130 C   0  0  0  0  0  0  0  0  0  0  0  0
    8.7360   -2.3610    1.6460 C   0  0  0  0  0  0  0  0  0  0  0  0
    8.5980   -1.0310    1.4180 C   0  0  0  0  0  0  0  0  0  0  0  0
    9.5570   -0.1210    1.7480 F   0  0  0  0  0  0  0  0  0  0  0  0
    3.4300    1.6700   -1.1950 C   0  0  0  0  0  0  0  0  0  0  0  0
    2.3090    1.9150   -1.8170 C   0  0  0  0  0  0  0  0  0  0  0  0
    2.2700    2.3220   -3.1960 N   0  0  0  0  0  0  0  0  0  0  0  0
    1.5980    1.5420   -4.1670 C   0  0  0  0  0  0  0  0  0  0  0  0
    1.0280    0.4780   -3.8250 O   0  0  0  0  0  0  0  0  0  0  0  0
    1.0160    1.7800   -1.1180 C   0  0  0  0  0  0  0  0  0  0  0  0
    1.0880    1.4260    0.3160 C   0  0  1  0  0  0  0  0  0  0  0  0
    0.0340    0.3790    0.6490 C   0  0  0  0  0  0  0  0  0  0  0  0
   -1.2560    0.7900    0.0770 C   0  0  0  0  0  0  0  0  0  0  0  0
   -1.3950    1.8780   -0.4850 O   0  0  0  0  0  0  0  0  0  0  0  0
   -2.4050    0.0030    0.1210 O   0  0  0  0  0  0  0  0  0  0  0  0
   -3.6310    0.3740   -0.4160 C   0  0  1  0  0  0  0  0  0  0  0  0
   -4.1670   -0.5720   -1.4570 C   0  0  0  0  0  0  0  0  0  0  0  0
   -5.3320    0.1430   -2.1370 C   0  0  1  0  0  0  0  0  0  0  0  0
   -6.4440   -0.8660   -2.2880 C   0  0  0  0  0  0  0  0  0  0  0  0
   -7.6630   -0.3210   -2.9410 C   0  0  0  0  0  0  0  0  0  0  0  0
   -5.7460    1.3890   -1.4410 C   0  0  0  0  0  0  0  0  0  0  0  0
   -5.7440    1.3750   -0.0270 N   0  0  0  0  0  0  0  0  0  0  0  0
   -4.7370    0.5660    0.6020 C   0  0  1  0  0  0  0  0  0  0  0  0
   -5.1910   -0.6750    0.9900 O   0  0  0  0  0  0  0  0  0  0  0  0
   -5.0550   -0.9690    2.3210 C   0  0  0  0  0  0  0  0  0  0  0  0
   -5.6130   -2.3630    2.5350 C   0  0  0  0  0  0  0  0  0  0  0  0
   -5.5390   -2.7880    3.8370 O   0  0  0  0  0  0  0  0  0  0  0  0
  1  2  1  0
  2  3  1  0
  3  4  2  0
  3 22  1  0
  4  5  1  0
  4 16  1  0
  5  6  2  0
  5  7  1  0
  7  8  1  0
  8  9  1  0
  9 10  2  0
  9 14  1  0
 10 11  1  0
 11 12  2  0
 12 13  1  0
 13 14  2  0
 14 15  1  0
 16 17  2  0
 17 18  1  0
 17 21  1  0
 18 19  1  0
 19 20  2  0
 21 22  1  0
 22 23  1  6
 23 24  1  0
 24 25  2  0
 24 26  1  0
 27 26  1  1
 27 28  1  0
 27 34  1  0
 28 29  1  0
 29 30  1  1
 29 32  1  0
 30 31  1  0
 32 33  1  0
 33 34  1  0
 34 35  1  6
 35 36  1  0
 36 37  1  0
 37 38  1  0
M  END
