
     RDKit          3D

 31 35  0  0  0  0  0  0  0  0999 V2000
   -3.3340    3.8910   -0.4820 C   0  0  0  0  0  0  0  0  0  0  0  0
   -2.9820    2.6150    0.2320 C   0  0  0  0  0  0  0  0  0  0  0  0
   -3.6480    2.4790    1.4960 N   0  0  0  0  0  0  0  0  0  0  0  0
   -3.2810    1.0530    2.3450 S   0  0  2  0  0  0  0  0  0  0  0  0
   -3.9250    1.1280    3.6980 O   0  0  0  0  0  0  0  0  0  0  0  0
   -1.8000    1.0060    2.5700 O   0  0  0  0  0  0  0  0  0  0  0  0
   -3.7430   -0.3770    1.4750 C   0  0  0  0  0  0  0  0  0  0  0  0
   -5.3180   -1.1240    1.5720 S   0  0  0  0  0  0  0  0  0  0  0  0
   -5.0140   -2.4720    0.4600 C   0  0  0  0  0  0  0  0  0  0  0  0
   -5.8120   -3.4650    0.0570 N   0  0  0  0  0  0  0  0  0  0  0  0
   -5.3790   -4.3870   -0.7990 C   0  0  0  0  0  0  0  0  0  0  0  0
   -4.0790   -4.2410   -1.2240 C   0  0  0  0  0  0  0  0  0  0  0  0
   -3.2320   -3.2220   -0.8220 C   0  0  0  0  0  0  0  0  0  0  0  0
   -1.8800   -3.2170   -1.3820 C   0  0  0  0  0  0  0  0  0  0  0  0
   -3.7180   -2.2530    0.0910 C   0  0  0  0  0  0  0  0  0  0  0  0
   -3.0710   -1.1920    0.6040 C   0  0  0  0  0  0  0  0  0  0  0  0
   -1.6460   -0.8100    0.3120 C   0  0  0  0  0  0  0  0  0  0  0  0
   -0.7010   -1.2660    1.2250 C   0  0  0  0  0  0  0  0  0  0  0  0
    0.6150   -0.8980    0.9880 C   0  0  0  0  0  0  0  0  0  0  0  0
    0.9610   -0.1260   -0.0910 C   0  0  0  0  0  0  0  0  0  0  0  0
    2.3440    0.2360   -0.3030 C   0  0  0  0  0  0  0  0  0  0  0  0
    3.4270   -0.0550    0.3970 N   0  0  0  0  0  0  0  0  0  0  0  0
    4.5910    0.3500    0.0660 C   0  0  0  0  0  0  0  0  0  0  0  0
    4.7170    1.1330   -1.0810 C   0  0  0  0  0  0  0  0  0  0  0  0
    3.0130    1.2070   -1.6020 S   0  0  0  0  0  0  0  0  0  0  0  0
    5.9650    1.6640   -1.5790 C   0  0  0  0  0  0  0  0  0  0  0  0
    6.9360    1.9990   -0.4860 C   0  0  0  0  0  0  0  0  0  0  0  0
    6.5280    1.5280    0.8730 C   0  0  0  0  0  0  0  0  0  0  0  0
    5.9520    0.1240    0.7360 C   0  0  0  0  0  0  0  0  0  0  0  0
   -0.0100    0.2900   -0.9500 C   0  0  0  0  0  0  0  0  0  0  0  0
   -1.3150   -0.0610   -0.7360 N   0  0  0  0  0  0  0  0  0  0  0  0
  1  2  1  0
  2  3  1  0
  4  3  1  6
  4  5  2  0
  4  6  2  0
  4  7  1  0
  7  8  1  0
  7 16  2  0
  8  9  1  0
  9 10  2  0
  9 15  1  0
 10 11  1  0
 11 12  2  0
 12 13  1  0
 13 14  1  0
 13 15  2  0
 15 16  1  0
 16 17  1  0
 17 18  2  0
 17 31  1  0
 18 19  1  0
 19 20  2  0
 20 21  1  0
 20 30  1  0
 21 22  2  0
 21 25  1  0
 22 23  1  0
 23 24  2  0
 23 29  1  0
 24 25  1  0
 24 26  1  0
 26 27  1  0
 27 28  1  0
 28 29  1  0
 30 31  2  0
M  END
