
     RDKit          3D

 31 35  0  0  0  0  0  0  0  0999 V2000
    6.3200   -0.6930   -1.4420 C   0  0  0  0  0  0  0  0  0  0  0  0
    5.7650   -1.8280   -0.1430 S   0  0  0  0  0  0  0  0  0  0  0  0
    5.2630   -0.8440    1.2770 C   0  0  0  0  0  0  0  0  0  0  0  0
    4.0620   -0.0170    0.9760 C   0  0  0  0  0  0  0  0  0  0  0  0
    2.8770   -0.8360    0.6630 N   0  0  0  0  0  0  0  0  0  0  0  0
    2.9630   -2.2170    0.8580 C   0  0  0  0  0  0  0  0  0  0  0  0
    1.8520   -2.9040    0.8170 N   0  0  0  0  0  0  0  0  0  0  0  0
    0.6060   -2.2080    0.5670 C   0  0  0  0  0  0  0  0  0  0  0  0
   -1.0370   -2.8240    0.5760 S   0  0  0  0  0  0  0  0  0  0  0  0
   -1.8220   -1.2150    0.2910 C   0  0  0  0  0  0  0  0  0  0  0  0
   -3.2540   -1.0230    0.1940 C   0  0  0  0  0  0  0  0  0  0  0  0
   -3.8890    0.3800    0.6970 S   0  0  0  0  0  0  0  0  0  0  0  0
   -4.0880   -2.0270   -0.3250 N   0  0  0  0  0  0  0  0  0  0  0  0
   -3.6460   -3.3040   -0.7980 C   0  0  0  0  0  0  0  0  0  0  0  0
   -3.4210   -4.4110   -0.1120 C   0  0  0  0  0  0  0  0  0  0  0  0
   -2.9770   -5.4590   -1.0670 C   0  0  0  0  0  0  0  0  0  0  0  0
   -2.9900   -4.7960   -2.3340 N   0  0  0  0  0  0  0  0  0  0  0  0
   -3.3670   -3.5710   -2.2020 C   0  0  0  0  0  0  0  0  0  0  0  0
   -0.7830   -0.3820    0.2160 C   0  0  0  0  0  0  0  0  0  0  0  0
   -1.0380    1.0830   -0.0200 C   0  0  0  0  0  0  0  0  0  0  0  0
   -1.2730    1.5690   -1.2880 C   0  0  0  0  0  0  0  0  0  0  0  0
   -1.5010    2.9020   -1.5450 C   0  0  0  0  0  0  0  0  0  0  0  0
   -1.4960    3.7860   -0.5080 C   0  0  0  0  0  0  0  0  0  0  0  0
   -1.2600    3.3210    0.7950 C   0  0  0  0  0  0  0  0  0  0  0  0
   -1.0350    1.9830    1.0190 C   0  0  0  0  0  0  0  0  0  0  0  0
   -1.2780    4.3020    1.7690 O   0  0  0  0  0  0  0  0  0  0  0  0
   -2.1220    5.4120    1.6620 C   0  0  0  0  0  0  0  0  0  0  0  0
   -2.2820    5.9890    0.3010 C   0  0  0  0  0  0  0  0  0  0  0  0
   -1.7180    5.1530   -0.6780 O   0  0  0  0  0  0  0  0  0  0  0  0
    0.4700   -0.8980    0.3580 C   0  0  0  0  0  0  0  0  0  0  0  0
    1.7450   -0.0870    0.2320 C   0  0  0  0  0  0  0  0  0  0  0  0
  1  2  1  0
  2  3  1  0
  3  4  1  0
  4  5  1  0
  5  6  1  0
  5 31  1  0
  6  7  2  0
  7  8  1  0
  8  9  1  0
  8 30  2  0
  9 10  1  0
 10 11  1  0
 10 19  2  0
 11 12  2  0
 11 13  1  0
 13 14  1  0
 14 15  2  0
 14 18  1  0
 15 16  1  0
 16 17  1  0
 17 18  2  0
 19 20  1  0
 19 30  1  0
 20 21  2  0
 20 25  1  0
 21 22  1  0
 22 23  2  0
 23 24  1  0
 23 29  1  0
 24 25  2  0
 24 26  1  0
 26 27  1  0
 27 28  1  0
 28 29  1  0
 30 31  1  0
M  END
