
     RDKit          3D

 30 34  0  0  0  0  0  0  0  0999 V2000
    7.9500   -1.9220   -0.5800 C   0  0  0  0  0  0  0  0  0  0  0  0
    7.3430   -1.0810    0.9300 S   0  0  0  0  0  0  0  0  0  0  0  0
    5.6850   -0.4590    0.6660 C   0  0  0  0  0  0  0  0  0  0  0  0
    4.5950   -1.2030    0.9310 N   0  0  0  0  0  0  0  0  0  0  0  0
    3.3320   -0.7650    0.7430 C   0  0  0  0  0  0  0  0  0  0  0  0
    2.1090   -1.2920    0.9240 N   0  0  0  0  0  0  0  0  0  0  0  0
    1.1500   -0.4160    0.5740 C   0  0  0  0  0  0  0  0  0  0  0  0
   -0.2950   -0.5850    0.6140 C   0  0  0  0  0  0  0  0  0  0  0  0
   -0.7830   -1.7610    1.0530 N   0  0  0  0  0  0  0  0  0  0  0  0
   -2.1070   -2.0010    1.1210 C   0  0  0  0  0  0  0  0  0  0  0  0
   -2.6330   -3.3000    1.6070 C   0  0  0  0  0  0  0  0  0  0  0  0
   -2.9540   -0.9800    0.7180 C   0  0  0  0  0  0  0  0  0  0  0  0
   -2.4950    0.2420    0.2600 C   0  0  0  0  0  0  0  0  0  0  0  0
   -3.5540    1.5680   -0.2770 S   0  0  0  0  0  0  0  0  0  0  0  0
   -5.2600    1.0420   -0.2120 C   0  0  2  0  0  0  0  0  0  0  0  0
   -5.6020   -0.0310   -1.2510 C   0  0  0  0  0  0  0  0  0  0  0  0
   -6.9460   -0.5880   -0.9050 C   0  0  0  0  0  0  0  0  0  0  0  0
   -7.8800    0.4360   -0.3240 C   0  0  0  0  0  0  0  0  0  0  0  0
   -7.5390    1.7760   -0.7130 O   0  0  0  0  0  0  0  0  0  0  0  0
   -6.2260    2.1360   -0.4620 C   0  0  0  0  0  0  0  0  0  0  0  0
   -5.8210    3.3160   -0.4350 O   0  0  0  0  0  0  0  0  0  0  0  0
   -1.1340    0.3850    0.2290 N   0  0  0  0  0  0  0  0  0  0  0  0
    1.8260    0.7240    0.1510 C   0  0  0  0  0  0  0  0  0  0  0  0
    3.1910    0.5280    0.2490 C   0  0  0  0  0  0  0  0  0  0  0  0
    4.3010    1.3010   -0.0270 C   0  0  0  0  0  0  0  0  0  0  0  0
    4.1620    2.5830   -0.5180 C   0  0  0  0  0  0  0  0  0  0  0  0
    5.2710    3.3760   -0.8010 C   0  0  0  0  0  0  0  0  0  0  0  0
    6.5470    2.8930   -0.5960 C   0  0  0  0  0  0  0  0  0  0  0  0
    6.6970    1.5950   -0.1000 C   0  0  0  0  0  0  0  0  0  0  0  0
    5.5820    0.8310    0.1730 C   0  0  0  0  0  0  0  0  0  0  0  0
  1  2  1  0
  2  3  1  0
  3  4  2  0
  3 30  1  0
  4  5  1  0
  5  6  1  0
  5 24  2  0
  6  7  1  0
  7  8  1  0
  7 23  2  0
  8  9  2  0
  8 22  1  0
  9 10  1  0
 10 11  1  0
 10 12  2  0
 12 13  1  0
 13 14  1  0
 13 22  2  0
 15 14  1  6
 15 16  1  0
 15 20  1  0
 16 17  1  0
 17 18  1  0
 18 19  1  0
 19 20  1  0
 20 21  2  0
 23 24  1  0
 24 25  1  0
 25 26  2  0
 25 30  1  0
 26 27  1  0
 27 28  2  0
 28 29  1  0
 29 30  2  0
M  END
