
     RDKit          3D

 29 32  0  0  0  0  0  0  0  0999 V2000
    2.3580    0.4220    1.3850 O   0  0  0  0  0  0  0  0  0  0  0  0
    1.7470    1.3730    0.7960 C   0  0  0  0  0  0  0  0  0  0  0  0
    2.2210    1.7960   -0.4690 N   0  0  0  0  0  0  0  0  0  0  0  0
    3.3460    1.2320   -1.1240 C   0  0  0  0  0  0  0  0  0  0  0  0
    3.7740    1.6160   -2.3860 C   0  0  0  0  0  0  0  0  0  0  0  0
    4.8650    0.8910   -2.6830 N   0  0  0  0  0  0  0  0  0  0  0  0
    5.1660    0.0680   -1.7000 N   0  0  0  0  0  0  0  0  0  0  0  0
    6.2650   -0.8430   -1.6630 C   0  0  0  0  0  0  0  0  0  0  0  0
    7.2350   -0.7420   -0.6730 C   0  0  0  0  0  0  0  0  0  0  0  0
    8.3120   -1.6130   -0.6170 C   0  0  0  0  0  0  0  0  0  0  0  0
    8.4100   -2.6040   -1.5760 C   0  0  0  0  0  0  0  0  0  0  0  0
    7.4450   -2.7110   -2.5680 C   0  0  0  0  0  0  0  0  0  0  0  0
    6.3730   -1.8250   -2.6050 C   0  0  0  0  0  0  0  0  0  0  0  0
    4.2350    0.2650   -0.7250 C   0  0  0  0  0  0  0  0  0  0  0  0
    0.5750    1.9850    1.4710 C   0  0  2  0  0  0  0  0  0  0  0  0
    0.2840    1.2680    2.7750 C   0  0  0  0  0  0  0  0  0  0  0  0
   -1.1790    1.6210    3.0830 C   0  0  0  0  0  0  0  0  0  0  0  0
   -1.9670    0.7120    2.0920 C   0  0  0  0  0  0  0  0  0  0  0  0
   -1.6750    1.1740    0.7700 N   0  0  0  0  0  0  0  0  0  0  0  0
   -2.3420    0.7560   -0.3900 C   0  0  0  0  0  0  0  0  0  0  0  0
   -1.8570    1.3720   -1.4700 O   0  0  0  0  0  0  0  0  0  0  0  0
   -3.4210   -0.1790   -0.6690 C   0  0  0  0  0  0  0  0  0  0  0  0
   -4.0150   -0.9190    0.3840 N   0  0  2  0  0  0  0  0  0  0  0  0
   -4.3870   -2.2670   -0.0280 C   0  0  0  0  0  0  0  0  0  0  0  0
   -5.7120   -2.3860   -0.6870 C   0  0  0  0  0  0  0  0  0  0  0  0
   -6.8210   -1.7210    0.1200 C   0  0  0  0  0  0  0  0  0  0  0  0
   -6.4070   -0.2670    0.1740 C   0  0  0  0  0  0  0  0  0  0  0  0
   -5.1250   -0.1820    0.9260 C   0  0  0  0  0  0  0  0  0  0  0  0
   -0.5980    2.1620    0.5890 C   0  0  0  0  0  0  0  0  0  0  0  0
  1  2  2  0
  2  3  1  0
 15  2  1  6
  3  4  1  0
  4  5  1  0
  4 14  2  0
  5  6  2  0
  6  7  1  0
  7  8  1  0
  7 14  1  0
  8  9  2  0
  8 13  1  0
  9 10  1  0
 10 11  2  0
 11 12  1  0
 12 13  2  0
 15 16  1  0
 15 29  1  0
 16 17  1  0
 17 18  1  0
 18 19  1  0
 19 20  1  0
 19 29  1  0
 20 21  2  0
 20 22  1  0
 23 22  1  6
 23 24  1  0
 23 28  1  0
 24 25  1  0
 25 26  1  0
 26 27  1  0
 27 28  1  0
M  CHG  1  23   1
M  END
