
     RDKit          3D

 31 35  0  0  0  0  0  0  0  0999 V2000
    9.2810   -1.9050   -0.7320 C   0  0  0  0  0  0  0  0  0  0  0  0
    8.0640   -1.1250   -0.4870 C   0  0  0  0  0  0  0  0  0  0  0  0
    7.5690   -0.4960    0.5910 C   0  0  0  0  0  0  0  0  0  0  0  0
    6.4050    0.1570    0.5330 C   0  0  0  0  0  0  0  0  0  0  0  0
    5.8200    0.8850    1.7610 C   0  0  0  0  0  0  0  0  0  0  0  0
    4.5170    1.3680    1.4360 N   0  0  0  0  0  0  0  0  0  0  0  0
    3.3860    0.5150    1.3710 C   0  0  0  0  0  0  0  0  0  0  0  0
    3.4750   -0.7040    1.5950 O   0  0  0  0  0  0  0  0  0  0  0  0
    2.0980    1.1070    1.0290 C   0  0  0  0  0  0  0  0  0  0  0  0
    1.8040    2.3860    0.7560 N   0  0  0  0  0  0  0  0  0  0  0  0
    0.5240    2.5260    0.4930 N   0  0  0  0  0  0  0  0  0  0  0  0
   -0.0840    1.3200    0.5850 C   0  0  0  0  0  0  0  0  0  0  0  0
    0.8790    0.4180    0.9190 C   0  0  0  0  0  0  0  0  0  0  0  0
    0.3210   -0.9240    1.0470 C   0  0  0  0  0  0  0  0  0  0  0  0
   -1.0880   -0.7600    0.5920 N   0  0  0  0  0  0  0  0  0  0  0  0
   -1.9080   -1.8680    0.3400 C   0  0  0  0  0  0  0  0  0  0  0  0
   -1.3860   -3.0250    0.4930 O   0  0  0  0  0  0  0  0  0  0  0  0
   -3.2750   -1.7940   -0.0700 C   0  0  0  0  0  0  0  0  0  0  0  0
   -4.1840   -0.8480   -0.3030 C   0  0  0  0  0  0  0  0  0  0  0  0
   -5.4320   -1.0980   -0.7130 C   0  0  0  0  0  0  0  0  0  0  0  0
   -6.4910   -0.0490   -0.9830 C   0  0  0  0  0  0  0  0  0  0  0  0
   -7.6640   -0.4250   -1.3850 C   0  0  0  0  0  0  0  0  0  0  0  0
   -8.8620    0.3680   -1.7160 C   0  0  0  0  0  0  0  0  0  0  0  0
   -8.5890    2.1190   -1.5040 S   0  0  0  0  0  0  0  0  0  0  0  0
   -6.9220    2.3350   -0.9540 C   0  0  0  0  0  0  0  0  0  0  0  0
   -6.1290    1.3320   -0.7700 C   0  0  0  0  0  0  0  0  0  0  0  0
   -5.7390   -2.4860   -0.8920 C   0  0  0  0  0  0  0  0  0  0  0  0
   -4.2300   -3.3160   -0.4620 S   0  0  0  0  0  0  0  0  0  0  0  0
   -1.4100    0.6250    0.4510 C   0  0  0  0  0  0  0  0  0  0  0  0
    5.7260    0.1590   -0.6860 C   0  0  0  0  0  0  0  0  0  0  0  0
    6.8380   -0.8160   -1.7350 S   0  0  0  0  0  0  0  0  0  0  0  0
  1  2  1  0
  2  3  2  0
  2 31  1  0
  3  4  1  0
  4  5  1  0
  4 30  2  0
  5  6  1  0
  6  7  1  0
  7  8  2  0
  7  9  1  0
  9 10  2  0
  9 13  1  0
 10 11  1  0
 11 12  1  0
 12 13  2  0
 12 29  1  0
 13 14  1  0
 14 15  1  0
 15 16  1  0
 15 29  1  0
 16 17  2  0
 16 18  1  0
 18 19  2  0
 18 28  1  0
 19 20  1  0
 20 21  1  0
 20 27  2  0
 21 22  2  0
 21 26  1  0
 22 23  1  0
 23 24  1  0
 24 25  1  0
 25 26  2  0
 27 28  1  0
 30 31  1  0
M  END
