
     RDKit          3D

 31 35  0  0  0  0  0  0  0  0999 V2000
   -5.4810    0.3560    2.9200 C   0  0  0  0  0  0  0  0  0  0  0  0
   -5.1440    0.5780    1.4720 C   0  0  0  0  0  0  0  0  0  0  0  0
   -3.9270    1.0610    1.0950 C   0  0  0  0  0  0  0  0  0  0  0  0
   -3.5160    0.9270   -0.2230 C   0  0  0  0  0  0  0  0  0  0  0  0
   -2.1410    1.1140   -0.4150 C   0  0  0  0  0  0  0  0  0  0  0  0
   -1.4600   -0.1640   -0.4930 C   0  0  0  0  0  0  0  0  0  0  0  0
   -0.1060   -0.2470   -0.5720 C   0  0  0  0  0  0  0  0  0  0  0  0
    0.6290    0.9020   -0.6420 C   0  0  0  0  0  0  0  0  0  0  0  0
    2.0330    0.7890   -0.7500 C   0  0  0  0  0  0  0  0  0  0  0  0
    2.6100   -0.5020   -1.0140 C   0  0  0  0  0  0  0  0  0  0  0  0
    3.5230   -0.8520    0.0540 C   0  0  0  0  0  0  0  0  0  0  0  0
    4.4600   -1.8740    0.1490 N   0  0  0  0  0  0  0  0  0  0  0  0
    5.5730   -1.5160    1.4460 S   0  0  1  0  0  0  0  0  0  0  0  0
    4.9170   -0.4620    2.3340 O   0  0  0  0  0  0  0  0  0  0  0  0
    5.9730   -2.7240    2.1150 O   0  0  0  0  0  0  0  0  0  0  0  0
    6.8920   -0.6130    0.7360 C   0  0  0  0  0  0  0  0  0  0  0  0
    6.9140   -0.2440   -0.5800 C   0  0  0  0  0  0  0  0  0  0  0  0
    8.2280    0.1300   -1.0610 C   0  0  0  0  0  0  0  0  0  0  0  0
    9.3360    0.0310    0.2990 S   0  0  0  0  0  0  0  0  0  0  0  0
    8.0170   -0.5460    1.4930 C   0  0  0  0  0  0  0  0  0  0  0  0
    2.7870    1.9810   -0.7500 N   0  0  0  0  0  0  0  0  0  0  0  0
    2.0590    3.1110   -0.5920 C   0  0  0  0  0  0  0  0  0  0  0  0
    0.7410    3.2210   -0.5200 N   0  0  0  0  0  0  0  0  0  0  0  0
   -0.0340    2.0710   -0.5840 C   0  0  0  0  0  0  0  0  0  0  0  0
   -1.3510    2.2040   -0.4510 N   0  0  0  0  0  0  0  0  0  0  0  0
   -4.3020    0.3370   -1.2030 C   0  0  0  0  0  0  0  0  0  0  0  0
   -5.5990   -0.1450   -0.8070 C   0  0  0  0  0  0  0  0  0  0  0  0
   -5.9280    0.0490    0.5100 C   0  0  0  0  0  0  0  0  0  0  0  0
   -7.7160   -0.3280    0.5900 S   0  0  0  0  0  0  0  0  0  0  0  0
   -7.9280   -0.6540   -1.2130 C   0  0  0  0  0  0  0  0  0  0  0  0
   -6.5080   -0.9540   -1.5720 C   0  0  0  0  0  0  0  0  0  0  0  0
  1  2  1  0
  2  3  2  0
  2 28  1  0
  3  4  1  0
  4  5  1  0
  4 26  2  0
  5  6  2  0
  5 25  1  0
  6  7  1  0
  7  8  2  0
  8  9  1  0
  8 24  1  0
  9 10  1  0
  9 21  2  0
 10 11  1  0
 11 12  1  0
 13 12  1  6
 13 14  2  0
 13 15  2  0
 13 16  1  0
 16 17  1  0
 16 20  2  0
 17 18  2  0
 18 19  1  0
 19 20  1  0
 21 22  1  0
 22 23  2  0
 23 24  1  0
 24 25  2  0
 26 27  1  0
 27 28  2  0
 27 31  1  0
 28 29  1  0
 29 30  1  0
 30 31  1  0
M  END
