
     RDKit          3D

 29 31  0  0  0  0  0  0  0  0999 V2000
    0.9050   -0.1240    0.2340 C   0  0  0  0  0  0  0  0  0  0  0  0
    0.9310    1.1870    0.8940 C   0  0  0  0  0  0  0  0  0  0  0  0
    2.2360    1.8270    1.2150 C   0  0  0  0  0  0  0  0  0  0  0  0
    3.3530    1.4310    1.0170 N   0  0  0  0  0  0  0  0  0  0  0  0
    4.0660    0.4150    0.5080 N   0  0  0  0  0  0  0  0  0  0  0  0
    4.5150    0.3770   -0.8990 C   0  0  0  0  0  0  0  0  0  0  0  0
    5.8370   -0.3160   -1.0450 C   0  0  0  0  0  0  0  0  0  0  0  0
    6.5150   -0.3640    0.2080 N   0  0  0  0  0  0  0  0  0  0  0  0
    7.9150   -0.6420    0.1460 C   0  0  1  0  0  0  0  0  0  0  0  0
    8.2620   -1.9850   -0.4280 C   0  0  0  0  0  0  0  0  0  0  0  0
    8.6350    0.4650   -0.5920 C   0  0  0  0  0  0  0  0  0  0  0  0
    5.8020   -1.3620    1.0250 C   0  0  0  0  0  0  0  0  0  0  0  0
    4.4810   -0.7350    1.3040 C   0  0  0  0  0  0  0  0  0  0  0  0
    3.6980   -1.1380    2.1890 O   0  0  0  0  0  0  0  0  0  0  0  0
   -0.1610    1.8280    1.2170 C   0  0  0  0  0  0  0  0  0  0  0  0
   -1.5420    1.5510    1.0800 C   0  0  0  0  0  0  0  0  0  0  0  0
   -2.3290    2.4900    1.5500 O   0  0  0  0  0  0  0  0  0  0  0  0
   -2.1670    0.4320    0.5210 N   0  0  0  0  0  0  0  0  0  0  0  0
   -3.5860    0.2460    0.4170 C   0  0  0  0  0  0  0  0  0  0  0  0
   -4.0650   -1.0640    0.2150 C   0  0  0  0  0  0  0  0  0  0  0  0
   -5.3970   -1.3310    0.0830 C   0  0  0  0  0  0  0  0  0  0  0  0
   -5.8720   -2.7300   -0.1290 C   0  0  0  0  0  0  0  0  0  0  0  0
   -6.3440   -0.3360    0.1390 C   0  0  0  0  0  0  0  0  0  0  0  0
   -5.9000    0.9430    0.3340 C   0  0  0  0  0  0  0  0  0  0  0  0
   -4.5350    1.2190    0.4700 C   0  0  0  0  0  0  0  0  0  0  0  0
   -7.1010    1.8100    0.3540 C   0  0  0  0  0  0  0  0  0  0  0  0
   -8.1600    1.0000   -0.2220 N   0  0  1  0  0  0  0  0  0  0  0  0
   -8.1710    1.2020   -1.6570 C   0  0  0  0  0  0  0  0  0  0  0  0
   -7.8280   -0.3860    0.0240 C   0  0  0  0  0  0  0  0  0  0  0  0
  1  2  1  0
  2  3  1  0
  2 15  2  3
  3  4  2  3
  4  5  1  0
  5  6  1  0
  5 13  1  0
  6  7  1  0
  7  8  1  0
  8  9  1  0
  8 12  1  0
  9 10  1  6
  9 11  1  0
 12 13  1  0
 13 14  2  0
 15 16  1  0
 16 17  2  0
 16 18  1  0
 18 19  1  0
 19 20  2  0
 19 25  1  0
 20 21  1  0
 21 22  1  0
 21 23  2  0
 23 24  1  0
 23 29  1  0
 24 25  2  0
 24 26  1  0
 26 27  1  0
 27 28  1  6
 27 29  1  0
M  CHG  1  27   1
M  END
