
     RDKit          3D

 21 20  0  0  0  0  0  0  0  0999 V2000
   -0.9400    2.7110   -2.5190 C   0  0  0  0  0  0  0  0  0  0  0  0
   -0.6000    2.4350   -1.1030 C   0  0  0  0  0  0  0  0  0  0  0  0
   -0.5630    3.4100   -0.3100 O   0  0  0  0  0  0  0  0  0  0  0  0
   -0.3230    1.0870   -0.6620 N   0  0  0  0  0  0  0  0  0  0  0  0
   -0.0000    0.8410    0.6940 C   0  0  2  0  0  0  0  0  0  0  0  0
    1.5150    0.7060    0.7720 C   0  0  1  0  0  0  0  0  0  0  0  0
    1.9000    0.4640    2.0790 O   0  0  0  0  0  0  0  0  0  0  0  0
    2.0550   -0.3000   -0.1970 C   0  0  0  0  0  0  0  0  0  0  0  0
    3.5630   -0.3330   -0.0140 C   0  0  2  0  0  0  0  0  0  0  0  0
    4.1040    0.9160   -0.2680 O   0  0  0  0  0  0  0  0  0  0  0  0
    4.2030   -1.3550   -0.8850 C   0  0  0  0  0  0  0  0  0  0  0  0
    5.0990   -1.0290   -1.7040 O   0  0  0  0  0  0  0  0  0  0  0  0
    3.8390   -2.6920   -0.8280 O   0  0  0  0  0  0  0  0  0  0  0  0
   -0.7000   -0.2860    1.3640 C   0  0  1  0  0  0  0  0  0  0  0  0
   -0.2420   -0.3760    2.7160 O   0  0  0  0  0  0  0  0  0  0  0  0
   -2.1930   -0.1040    1.5160 C   0  0  2  0  0  0  0  0  0  0  0  0
   -2.7080   -1.2070    2.2550 O   0  0  0  0  0  0  0  0  0  0  0  0
   -2.9450   -0.1620    0.2030 C   0  0  2  0  0  0  0  0  0  0  0  0
   -4.3100   -0.0420    0.5610 O   0  0  0  0  0  0  0  0  0  0  0  0
   -2.7930   -1.4960   -0.4690 C   0  0  0  0  0  0  0  0  0  0  0  0
   -3.6080   -1.5180   -1.5820 O   0  0  0  0  0  0  0  0  0  0  0  0
  1  2  1  0
  2  3  2  0
  2  4  1  0
  5  4  1  6
  5  6  1  0
  5 14  1  0
  6  7  1  1
  6  8  1  0
  8  9  1  0
  9 10  1  6
  9 11  1  0
 11 12  2  0
 11 13  1  0
 14 15  1  1
 14 16  1  0
 16 17  1  1
 16 18  1  0
 18 19  1  1
 18 20  1  0
 20 21  1  0
M  END
