
     RDKit          3D

 15 15  0  0  0  0  0  0  0  0999 V2000
    3.3100    1.8270   -0.2790 C   0  0  0  0  0  0  0  0  0  0  0  0
    3.4120    0.5360   -0.0360 C   0  0  0  0  0  0  0  0  0  0  0  0
    4.3250   -0.1150    0.8930 C   0  0  0  0  0  0  0  0  0  0  0  0
    4.0670   -1.4070    0.7990 C   0  0  0  0  0  0  0  0  0  0  0  0
    2.9990   -1.6370   -0.1750 C   0  0  0  0  0  0  0  0  0  0  0  0
    2.5840   -0.4760   -0.6950 C   0  0  0  0  0  0  0  0  0  0  0  0
    1.5870   -0.3070   -1.6480 O   0  0  0  0  0  0  0  0  0  0  0  0
    0.3350    0.1770   -1.1630 C   0  0  0  0  0  0  0  0  0  0  0  0
   -0.1610   -0.8280   -0.1540 C   0  0  0  0  0  0  0  0  0  0  0  0
   -1.3560   -0.5400    0.4380 O   0  0  0  0  0  0  0  0  0  0  0  0
   -2.3690   -0.4500   -0.4970 C   0  0  0  0  0  0  0  0  0  0  0  0
   -3.7130   -0.1610    0.2020 C   0  0  2  0  0  0  0  0  0  0  0  0
   -4.7140   -0.0750   -0.7570 O   0  0  0  0  0  0  0  0  0  0  0  0
   -3.5680    1.1390    0.9670 C   0  0  0  0  0  0  0  0  0  0  0  0
   -2.5780    1.0690    1.9230 O   0  0  0  0  0  0  0  0  0  0  0  0
  1  2  2  0
  2  3  1  0
  2  6  1  0
  3  4  2  0
  4  5  1  0
  5  6  2  0
  6  7  1  0
  7  8  1  0
  8  9  1  0
  9 10  1  0
 10 11  1  0
 11 12  1  0
 12 13  1  6
 12 14  1  0
 14 15  1  0
M  END
