
     RDKit          3D

 15 15  0  0  0  0  0  0  0  0999 V2000
    5.0470    1.1890   -1.1530 C   0  0  0  0  0  0  0  0  0  0  0  0
    3.7790    0.7280   -1.7890 C   0  0  0  0  0  0  0  0  0  0  0  0
    2.6310    0.6740   -1.1360 C   0  0  0  0  0  0  0  0  0  0  0  0
    2.5120    1.0690    0.2900 C   0  0  0  0  0  0  0  0  0  0  0  0
    2.0320   -0.0970    1.0860 C   0  0  0  0  0  0  0  0  0  0  0  0
    0.7110   -0.6230    0.6860 C   0  0  0  0  0  0  0  0  0  0  0  0
    0.2940   -1.6250    1.3210 O   0  0  0  0  0  0  0  0  0  0  0  0
   -0.0740   -0.1170   -0.2990 O   0  0  0  0  0  0  0  0  0  0  0  0
   -1.3250   -0.5400   -0.7380 C   0  0  0  0  0  0  0  0  0  0  0  0
   -2.3960   -0.4640    0.2840 C   0  0  2  0  0  0  0  0  0  0  0  0
   -2.2340   -1.2010    1.4210 O   0  0  0  0  0  0  0  0  0  0  0  0
   -3.7800   -0.7680   -0.3110 C   0  0  0  0  0  0  0  0  0  0  0  0
   -4.6460   -0.0780    0.7460 C   0  0  0  0  0  0  0  0  0  0  0  0
   -3.9540    1.0240    1.1660 O   0  0  0  0  0  0  0  0  0  0  0  0
   -2.6680    0.9870    0.7110 C   0  0  0  0  0  0  0  0  0  0  0  0
  1  2  1  0
  2  3  2  3
  3  4  1  0
  4  5  1  0
  5  6  1  0
  6  7  2  0
  6  8  1  0
  8  9  1  0
  9 10  1  0
 10 11  1  1
 10 12  1  0
 10 15  1  0
 12 13  1  0
 13 14  1  0
 14 15  1  0
M  END
