
     RDKit          3D

 26 29  0  0  0  0  0  0  0  0999 V2000
    5.9200    1.8250   -0.5120 C   0  0  0  0  0  0  0  0  0  0  0  0
    4.5660    0.8520   -1.2070 S   0  0  0  0  0  0  0  0  0  0  0  0
    4.1720   -0.5020   -0.1270 C   0  0  0  0  0  0  0  0  0  0  0  0
    4.8290   -0.7450    1.0630 C   0  0  0  0  0  0  0  0  0  0  0  0
    4.5100   -1.7800    1.8610 N   0  0  0  0  0  0  0  0  0  0  0  0
    3.5170   -2.6110    1.4930 C   0  0  0  0  0  0  0  0  0  0  0  0
    2.8390   -2.3940    0.3030 C   0  0  0  0  0  0  0  0  0  0  0  0
    1.8170   -3.2400   -0.0890 O   0  0  0  0  0  0  0  0  0  0  0  0
    1.1400   -2.9930   -1.3060 C   0  0  0  0  0  0  0  0  0  0  0  0
    0.5160   -1.6350   -1.1870 C   0  0  0  0  0  0  0  0  0  0  0  0
   -0.0740   -0.9560   -2.2320 C   0  0  0  0  0  0  0  0  0  0  0  0
   -0.5090    0.2040   -1.7200 N   0  0  0  0  0  0  0  0  0  0  0  0
   -0.2190    0.2710   -0.4330 N   0  0  0  0  0  0  0  0  0  0  0  0
   -0.5390    1.3810    0.4440 C   0  0  0  0  0  0  0  0  0  0  0  0
   -1.8970    1.0810    1.0140 C   0  0  0  0  0  0  0  0  0  0  0  0
   -2.1800    0.6040    2.2930 C   0  0  0  0  0  0  0  0  0  0  0  0
   -3.5090    0.4620    2.4150 N   0  0  0  0  0  0  0  0  0  0  0  0
   -4.1410    0.8220    1.2700 C   0  0  0  0  0  0  0  0  0  0  0  0
   -5.4660    0.8580    0.8930 C   0  0  0  0  0  0  0  0  0  0  0  0
   -5.8240    1.2800   -0.3670 C   0  0  0  0  0  0  0  0  0  0  0  0
   -4.8270    1.6650   -1.2370 C   0  0  0  0  0  0  0  0  0  0  0  0
   -5.1500    2.1010   -2.5260 O   0  0  0  0  0  0  0  0  0  0  0  0
   -3.4920    1.6330   -0.8680 C   0  0  0  0  0  0  0  0  0  0  0  0
   -3.1250    1.2070    0.4030 C   0  0  0  0  0  0  0  0  0  0  0  0
    0.4200   -0.8550   -0.0560 C   0  0  0  0  0  0  0  0  0  0  0  0
    3.1810   -1.3600   -0.4620 N   0  0  0  0  0  0  0  0  0  0  0  0
  1  2  1  0
  2  3  1  0
  3  4  2  0
  3 26  1  0
  4  5  1  0
  5  6  2  0
  6  7  1  0
  7  8  1  0
  7 26  2  0
  8  9  1  0
  9 10  1  0
 10 11  1  0
 10 25  2  0
 11 12  2  0
 12 13  1  0
 13 14  1  0
 13 25  1  0
 14 15  1  0
 15 16  2  0
 15 24  1  0
 16 17  1  0
 17 18  1  0
 18 19  2  0
 18 24  1  0
 19 20  1  0
 20 21  2  0
 21 22  1  0
 21 23  1  0
 23 24  2  0
M  END
