
     RDKit          3D

 15 15  0  0  0  0  0  0  0  0999 V2000
   -4.0310    1.8160    0.2910 C   0  0  0  0  0  0  0  0  0  0  0  0
   -3.5700    0.4320   -0.0630 C   0  0  0  0  0  0  0  0  0  0  0  0
   -4.2900   -0.5890   -0.4440 C   0  0  0  0  0  0  0  0  0  0  0  0
   -3.4680   -1.7690   -0.6970 C   0  0  0  0  0  0  0  0  0  0  0  0
   -2.0850   -1.2640   -0.3920 C   0  0  0  0  0  0  0  0  0  0  0  0
   -2.1470   -0.0120   -0.0320 C   0  0  0  0  0  0  0  0  0  0  0  0
   -1.0500    0.8740    0.3520 C   0  0  0  0  0  0  0  0  0  0  0  0
    0.2870    0.3010    0.3360 C   0  0  0  0  0  0  0  0  0  0  0  0
    0.6000   -0.8580    0.0310 O   0  0  0  0  0  0  0  0  0  0  0  0
    1.4210    1.0490    0.6840 O   0  0  0  0  0  0  0  0  0  0  0  0
    2.6970    0.6320    0.7010 C   0  0  0  0  0  0  0  0  0  0  0  0
    3.4370    0.1690   -0.4720 C   0  0  2  0  0  0  0  0  0  0  0  0
    2.8890   -0.9440   -1.0960 O   0  0  0  0  0  0  0  0  0  0  0  0
    4.8100   -0.3250    0.0400 C   0  0  0  0  0  0  0  0  0  0  0  0
    4.6630   -1.3710    0.9180 O   0  0  0  0  0  0  0  0  0  0  0  0
  1  2  1  0
  2  3  2  0
  2  6  1  0
  3  4  1  0
  4  5  1  0
  5  6  2  0
  6  7  1  0
  7  8  1  0
  8  9  2  0
  8 10  1  0
 10 11  1  0
 11 12  1  0
 12 13  1  1
 12 14  1  0
 14 15  1  0
M  END
