
     RDKit          3D

 26 29  0  0  0  0  0  0  0  0999 V2000
   -4.2460   -3.1100   -0.8510 C   0  0  0  0  0  0  0  0  0  0  0  0
   -3.5960   -2.1460   -1.8350 C   0  0  0  0  0  0  0  0  0  0  0  0
   -3.0750   -0.9640   -1.0840 C   0  0  0  0  0  0  0  0  0  0  0  0
   -1.7560   -0.7800   -0.8090 C   0  0  0  0  0  0  0  0  0  0  0  0
   -1.2970    0.3370   -0.1040 C   0  0  0  0  0  0  0  0  0  0  0  0
    0.1330    0.4720    0.1560 C   0  0  0  0  0  0  0  0  0  0  0  0
    0.8980   -0.4110   -0.3080 O   0  0  0  0  0  0  0  0  0  0  0  0
    0.6780    1.5340    0.8950 N   0  0  0  0  0  0  0  0  0  0  0  0
    2.0940    1.6310    1.1310 C   0  0  0  0  0  0  0  0  0  0  0  0
    3.1040    0.9250    0.8090 N   0  0  0  0  0  0  0  0  0  0  0  0
    4.3190    1.1920    1.1290 C   0  0  0  0  0  0  0  0  0  0  0  0
    5.4780    0.3480    0.7380 C   0  0  0  0  0  0  0  0  0  0  0  0
    5.3180   -0.8120   -0.0150 C   0  0  0  0  0  0  0  0  0  0  0  0
    6.3820   -1.5900   -0.3750 C   0  0  0  0  0  0  0  0  0  0  0  0
    6.2170   -2.6240   -1.0500 O   0  0  0  0  0  0  0  0  0  0  0  0
    7.6040   -1.2140    0.0140 N   0  0  0  0  0  0  0  0  0  0  0  0
    7.7960   -0.0920    0.7470 C   0  0  0  0  0  0  0  0  0  0  0  0
    6.7310    0.6500    1.0850 N   0  0  0  0  0  0  0  0  0  0  0  0
    4.5250    2.3330    1.8760 C   0  0  0  0  0  0  0  0  0  0  0  0
    2.8580    2.9580    2.0650 S   0  0  0  0  0  0  0  0  0  0  0  0
   -2.2120    1.2720    0.3200 C   0  0  0  0  0  0  0  0  0  0  0  0
   -3.5430    1.0980    0.0490 C   0  0  0  0  0  0  0  0  0  0  0  0
   -3.9700   -0.0060   -0.6450 C   0  0  0  0  0  0  0  0  0  0  0  0
   -5.3810    0.0860   -0.7730 N   0  0  0  0  0  0  0  0  0  0  0  0
   -5.8820    1.2010   -0.0140 C   0  0  0  0  0  0  0  0  0  0  0  0
   -4.6840    1.9860    0.4160 C   0  0  0  0  0  0  0  0  0  0  0  0
  1  2  1  0
  2  3  1  0
  3  4  2  0
  3 23  1  0
  4  5  1  0
  5  6  1  0
  5 21  2  0
  6  7  2  0
  6  8  1  0
  8  9  1  0
  9 10  2  0
  9 20  1  0
 10 11  1  0
 11 12  1  0
 11 19  2  0
 12 13  2  0
 12 18  1  0
 13 14  1  0
 14 15  2  0
 14 16  1  0
 16 17  1  0
 17 18  2  0
 19 20  1  0
 21 22  1  0
 22 23  2  0
 22 26  1  0
 23 24  1  0
 24 25  1  0
 25 26  1  0
M  END
