
     RDKit          3D

 26 29  0  0  0  0  0  0  0  0999 V2000
   -4.5260   -0.6880    0.9970 O   0  0  0  0  0  0  0  0  0  0  0  0
   -4.8050   -0.3730   -0.2050 C   0  0  0  0  0  0  0  0  0  0  0  0
   -3.7480   -0.2530   -1.2560 C   0  0  0  0  0  0  0  0  0  0  0  0
   -2.4440   -0.4230   -0.6630 N   0  0  0  0  0  0  0  0  0  0  0  0
   -1.7740   -1.5690   -0.5180 C   0  0  0  0  0  0  0  0  0  0  0  0
   -0.5640   -1.2400    0.1050 C   0  0  0  0  0  0  0  0  0  0  0  0
   -0.5500    0.1100    0.3150 C   0  0  0  0  0  0  0  0  0  0  0  0
    0.4690    0.9130    0.9190 C   0  0  0  0  0  0  0  0  0  0  0  0
    1.7380    0.7390    0.7430 C   0  0  0  0  0  0  0  0  0  0  0  0
    2.5130   -0.5140   -0.2680 S   0  0  0  0  0  0  0  0  0  0  0  0
    4.1980    0.0220    0.0820 C   0  0  0  0  0  0  0  0  0  0  0  0
    5.3530   -0.5710   -0.4370 N   0  0  0  0  0  0  0  0  0  0  0  0
    6.6720   -0.3570    0.0040 C   0  0  0  0  0  0  0  0  0  0  0  0
    6.9990    0.4440    1.0690 C   0  0  0  0  0  0  0  0  0  0  0  0
    8.3460    0.5640    1.3820 C   0  0  0  0  0  0  0  0  0  0  0  0
    9.3220   -0.0870    0.6650 C   0  0  0  0  0  0  0  0  0  0  0  0
    8.9960   -0.8760   -0.3840 N   0  0  0  0  0  0  0  0  0  0  0  0
    7.7080   -0.9840   -0.6750 C   0  0  0  0  0  0  0  0  0  0  0  0
    4.1150    0.9970    0.8530 N   0  0  0  0  0  0  0  0  0  0  0  0
    2.8900    1.4630    1.2690 C   0  0  0  0  0  0  0  0  0  0  0  0
    2.7290    2.4580    2.0620 O   0  0  0  0  0  0  0  0  0  0  0  0
   -1.7340    0.6080   -0.1710 C   0  0  0  0  0  0  0  0  0  0  0  0
   -6.1630   -0.1290   -0.5440 N   0  0  0  0  0  0  0  0  0  0  0  0
   -7.2480   -0.2220    0.4160 C   0  0  1  0  0  0  0  0  0  0  0  0
   -8.1350    0.9930    0.5490 C   0  0  0  0  0  0  0  0  0  0  0  0
   -8.6620   -0.2310   -0.0720 C   0  0  0  0  0  0  0  0  0  0  0  0
  1  2  2  0
  2  3  1  0
  2 23  1  0
  3  4  1  0
  4  5  1  0
  4 22  1  0
  5  6  2  0
  6  7  1  0
  7  8  1  0
  7 22  2  0
  8  9  2  3
  9 10  1  0
  9 20  1  0
 10 11  1  0
 11 12  1  0
 11 19  2  0
 12 13  1  0
 13 14  2  0
 13 18  1  0
 14 15  1  0
 15 16  2  0
 16 17  1  0
 17 18  2  0
 19 20  1  0
 20 21  2  0
 24 23  1  6
 24 25  1  0
 24 26  1  0
 25 26  1  0
M  END
