
     RDKit          3D

 15 15  0  0  0  0  0  0  0  0999 V2000
   -2.9890   -1.9150   -0.1750 C   0  0  0  0  0  0  0  0  0  0  0  0
   -2.1770   -0.8890   -0.9210 C   0  0  1  0  0  0  0  0  0  0  0  0
   -2.2910   -1.2310   -2.3020 O   0  0  0  0  0  0  0  0  0  0  0  0
   -2.6820    0.4920   -0.8090 C   0  0  0  0  0  0  0  0  0  0  0  0
   -2.7880    1.1130    0.5240 C   0  0  0  0  0  0  0  0  0  0  0  0
   -1.6110    1.2320    1.2090 O   0  0  0  0  0  0  0  0  0  0  0  0
   -0.7480   -1.0370   -0.5630 C   0  0  0  0  0  0  0  0  0  0  0  0
    0.0750   -1.3220   -1.5030 O   0  0  0  0  0  0  0  0  0  0  0  0
   -0.2690   -0.8870    0.7150 O   0  0  0  0  0  0  0  0  0  0  0  0
    1.0230   -0.9910    1.1860 C   0  0  0  0  0  0  0  0  0  0  0  0
    1.9980   -0.0150    0.6710 C   0  0  0  0  0  0  0  0  0  0  0  0
    2.6750    0.8610    1.4550 C   0  0  0  0  0  0  0  0  0  0  0  0
    3.5720    1.6990    0.6250 C   0  0  0  0  0  0  0  0  0  0  0  0
    3.7830    0.8540   -0.5790 C   0  0  0  0  0  0  0  0  0  0  0  0
    2.4240    0.1500   -0.7320 C   0  0  0  0  0  0  0  0  0  0  0  0
  2  1  1  1
  2  3  1  0
  2  4  1  0
  2  7  1  0
  4  5  1  0
  5  6  1  0
  7  8  2  0
  7  9  1  0
  9 10  1  0
 10 11  1  0
 11 12  2  0
 11 15  1  0
 12 13  1  0
 13 14  1  0
 14 15  1  0
M  END
