
     RDKit          3D

 39 43  0  0  0  0  0  0  0  0999 V2000
    5.9900    3.1900   -1.7070 C   0  0  0  0  0  0  0  0  0  0  0  0
    6.9040    2.0680   -1.5380 C   0  0  0  0  0  0  0  0  0  0  0  0
    6.7150    0.9940   -0.7510 C   0  0  0  0  0  0  0  0  0  0  0  0
    7.7830    0.0160   -0.7530 C   0  0  0  0  0  0  0  0  0  0  0  0
    7.8670   -1.1230   -0.1460 C   0  0  0  0  0  0  0  0  0  0  0  0
    6.9780   -1.7160    0.6540 F   0  0  0  0  0  0  0  0  0  0  0  0
    9.0410   -1.8660   -0.3310 F   0  0  0  0  0  0  0  0  0  0  0  0
    5.4390    0.8670   -0.0520 C   0  0  0  0  0  0  0  0  0  0  0  0
    5.3270    0.3730    1.2270 C   0  0  0  0  0  0  0  0  0  0  0  0
    4.1050    0.1330    1.8270 C   0  0  0  0  0  0  0  0  0  0  0  0
    2.8860    0.3820    1.1620 C   0  0  0  0  0  0  0  0  0  0  0  0
    1.6500    0.0690    1.8750 C   0  0  0  0  0  0  0  0  0  0  0  0
    0.9910   -1.1670    1.5610 N   0  0  0  0  0  0  0  0  0  0  0  0
   -0.0450   -1.2070    0.6920 C   0  0  0  0  0  0  0  0  0  0  0  0
   -0.7460   -0.3340   -0.0120 N   0  0  0  0  0  0  0  0  0  0  0  0
   -1.6910   -0.9150   -0.7040 N   0  0  0  0  0  0  0  0  0  0  0  0
   -2.5470   -0.1920   -1.5210 N   0  0  0  0  0  0  0  0  0  0  0  0
   -3.7000    0.2550   -1.2520 C   0  0  0  0  0  0  0  0  0  0  0  0
   -4.5470    1.0290   -2.2180 C   0  0  2  0  0  0  0  0  0  0  0  0
   -3.8150    2.3500   -2.4320 C   0  0  0  0  0  0  0  0  0  0  0  0
   -4.5720    3.1570   -3.3550 N   0  0  0  0  0  0  0  0  0  0  0  0
   -5.7650    1.3050   -1.4970 N   0  0  0  0  0  0  0  0  0  0  0  0
   -5.7300    0.8430   -0.3130 C   0  0  0  0  0  0  0  0  0  0  0  0
   -6.7910    0.9200    0.7490 C   0  0  0  0  0  0  0  0  0  0  0  0
   -6.6620   -0.1590    1.7610 C   0  0  0  0  0  0  0  0  0  0  0  0
   -5.5750   -1.1610    1.5210 C   0  0  0  0  0  0  0  0  0  0  0  0
   -4.3040   -0.3880    1.2160 C   0  0  0  0  0  0  0  0  0  0  0  0
   -4.4920    0.1820   -0.0810 N   0  0  0  0  0  0  0  0  0  0  0  0
   -1.6710   -2.2370   -0.4930 C   0  0  0  0  0  0  0  0  0  0  0  0
   -2.4250   -3.0940   -0.9860 O   0  0  0  0  0  0  0  0  0  0  0  0
   -0.6530   -2.5010    0.3830 C   0  0  0  0  0  0  0  0  0  0  0  0
   -0.1500   -3.6340    0.9900 C   0  0  0  0  0  0  0  0  0  0  0  0
   -0.7700   -4.9420    0.6740 C   0  0  0  0  0  0  0  0  0  0  0  0
    0.8750   -3.5380    1.8430 N   0  0  0  0  0  0  0  0  0  0  0  0
    1.4180   -2.3450    2.1120 C   0  0  0  0  0  0  0  0  0  0  0  0
    2.3960   -2.2560    2.9290 O   0  0  0  0  0  0  0  0  0  0  0  0
    2.9860    0.8770   -0.1080 C   0  0  0  0  0  0  0  0  0  0  0  0
    1.7880    1.2410   -0.9210 C   0  0  0  0  0  0  0  0  0  0  0  0
    4.2350    1.1120   -0.7000 C   0  0  0  0  0  0  0  0  0  0  0  0
  1  2  1  0
  2  3  2  3
  3  4  1  0
  3  8  1  0
  4  5  2  3
  5  6  1  0
  5  7  1  0
  8  9  2  0
  8 39  1  0
  9 10  1  0
 10 11  2  0
 11 12  1  0
 11 37  1  0
 12 13  1  0
 13 14  1  0
 13 35  1  0
 14 15  2  0
 14 31  1  0
 15 16  1  0
 16 17  1  0
 16 29  1  0
 17 18  2  3
 18 19  1  0
 18 28  1  0
 19 20  1  1
 19 22  1  0
 20 21  1  0
 22 23  2  0
 23 24  1  0
 23 28  1  0
 24 25  1  0
 25 26  1  0
 26 27  1  0
 27 28  1  0
 29 30  2  0
 29 31  1  0
 31 32  2  0
 32 33  1  0
 32 34  1  0
 34 35  1  0
 35 36  2  0
 37 38  1  0
 37 39  2  0
M  CHG  1  21   1
M  END
