
     RDKit          3D

 39 44  0  0  0  0  0  0  0  0999 V2000
    2.1510    2.3960   -1.2060 C   0  0  0  0  0  0  0  0  0  0  0  0
    2.7690    1.4220   -1.7920 C   0  0  0  0  0  0  0  0  0  0  0  0
    3.2330    0.2200   -1.1720 C   0  0  0  0  0  0  0  0  0  0  0  0
    3.8420   -0.6530   -1.9910 C   0  0  0  0  0  0  0  0  0  0  0  0
    4.0100   -0.3610   -3.4480 C   0  0  0  0  0  0  0  0  0  0  0  0
    3.1030   -0.1170    0.2370 C   0  0  1  0  0  0  0  0  0  0  0  0
    3.7670    0.8570    1.1910 C   0  0  0  0  0  0  0  0  0  0  0  0
    5.2420    1.0390    0.9800 C   0  0  2  0  0  0  0  0  0  0  0  0
    5.5560    1.4930   -0.2900 F   0  0  0  0  0  0  0  0  0  0  0  0
    5.9990   -0.0350    1.3520 F   0  0  0  0  0  0  0  0  0  0  0  0
    1.7020   -0.1810    0.6450 N   0  0  0  0  0  0  0  0  0  0  0  0
    1.4160   -1.3400    1.1000 C   0  0  0  0  0  0  0  0  0  0  0  0
    0.1060   -1.7380    1.5900 N   0  0  0  0  0  0  0  0  0  0  0  0
   -1.0250   -0.9510    1.2340 C   0  0  0  0  0  0  0  0  0  0  0  0
   -1.3990    0.0980    2.0480 C   0  0  0  0  0  0  0  0  0  0  0  0
   -0.7280    0.4350    3.2050 C   0  0  0  0  0  0  0  0  0  0  0  0
   -1.1570    1.4770    3.9480 N   0  0  0  0  0  0  0  0  0  0  0  0
   -2.2350    2.1620    3.5330 C   0  0  0  0  0  0  0  0  0  0  0  0
   -2.8490    3.2210    4.0850 N   0  0  0  0  0  0  0  0  0  0  0  0
   -3.8970    3.5870    3.3270 C   0  0  0  0  0  0  0  0  0  0  0  0
   -4.8280    4.7020    3.5840 C   0  0  0  0  0  0  0  0  0  0  0  0
   -3.9200    2.7060    2.2620 C   0  0  0  0  0  0  0  0  0  0  0  0
   -2.8970    1.8480    2.4120 N   0  0  0  0  0  0  0  0  0  0  0  0
   -2.5120    0.8190    1.6350 C   0  0  0  0  0  0  0  0  0  0  0  0
   -3.1840    0.5100    0.5080 N   0  0  0  0  0  0  0  0  0  0  0  0
   -2.8360   -0.5090   -0.2990 C   0  0  0  0  0  0  0  0  0  0  0  0
   -3.5150   -0.8130   -1.4290 N   0  0  0  0  0  0  0  0  0  0  0  0
   -3.1630   -1.8330   -2.2330 C   0  0  0  0  0  0  0  0  0  0  0  0
   -3.8750   -2.1360   -3.3990 C   0  0  0  0  0  0  0  0  0  0  0  0
   -3.4790   -3.1930   -4.1960 C   0  0  0  0  0  0  0  0  0  0  0  0
   -2.3870   -3.9770   -3.8810 C   0  0  0  0  0  0  0  0  0  0  0  0
   -1.7020   -3.6560   -2.7260 C   0  0  0  0  0  0  0  0  0  0  0  0
   -2.0680   -2.6060   -1.9030 C   0  0  0  0  0  0  0  0  0  0  0  0
   -1.3730   -2.2970   -0.7500 C   0  0  0  0  0  0  0  0  0  0  0  0
   -0.3630   -2.9800   -0.4080 O   0  0  0  0  0  0  0  0  0  0  0  0
   -1.7350   -1.2510    0.0740 C   0  0  0  0  0  0  0  0  0  0  0  0
    2.5220   -2.2090    1.1010 N   0  0  0  0  0  0  0  0  0  0  0  0
    3.6110   -1.4630    0.5770 C   0  0  0  0  0  0  0  0  0  0  0  0
    4.7670   -1.9740    0.4710 O   0  0  0  0  0  0  0  0  0  0  0  0
  1  2  2  0
  2  3  1  0
  3  4  2  3
  3  6  1  0
  4  5  1  0
  6  7  1  1
  6 11  1  0
  6 38  1  0
  7  8  1  0
  8  9  1  6
  8 10  1  0
 11 12  2  0
 12 13  1  0
 12 37  1  0
 13 14  1  0
 14 15  2  0
 14 36  1  0
 15 16  1  0
 15 24  1  0
 16 17  2  0
 17 18  1  0
 18 19  2  0
 18 23  1  0
 19 20  1  0
 20 21  1  0
 20 22  2  0
 22 23  1  0
 23 24  1  0
 24 25  2  0
 25 26  1  0
 26 27  1  0
 26 36  2  0
 27 28  1  0
 28 29  2  0
 28 33  1  0
 29 30  1  0
 30 31  2  0
 31 32  1  0
 32 33  2  0
 33 34  1  0
 34 35  2  0
 34 36  1  0
 37 38  1  0
 38 39  2  0
M  CHG  1  11   1
M  END
