
     RDKit          3D

 39 43  0  0  0  0  0  0  0  0999 V2000
   -1.1830    2.5360    2.4090 N   0  0  0  0  0  0  0  0  0  0  0  0
   -0.8690    1.5360    1.4720 C   0  0  0  0  0  0  0  0  0  0  0  0
   -1.7730    1.0310    0.5930 N   0  0  0  0  0  0  0  0  0  0  0  0
   -1.4890    0.0970   -0.3050 C   0  0  0  0  0  0  0  0  0  0  0  0
   -2.2630   -0.4910   -1.2250 O   0  0  0  0  0  0  0  0  0  0  0  0
   -3.6290   -0.3180   -1.5940 C   0  0  2  0  0  0  0  0  0  0  0  0
   -4.2990   -1.5650   -1.1730 C   0  0  0  0  0  0  0  0  0  0  0  0
   -4.3400   -2.6290   -2.0620 C   0  0  0  0  0  0  0  0  0  0  0  0
   -4.8450   -3.8390   -1.6340 C   0  0  0  0  0  0  0  0  0  0  0  0
   -5.3090   -4.0180   -0.3500 C   0  0  0  0  0  0  0  0  0  0  0  0
   -5.9460   -5.5920    0.1500 Cl  0  0  0  0  0  0  0  0  0  0  0  0
   -5.2750   -2.9660    0.5380 C   0  0  0  0  0  0  0  0  0  0  0  0
   -4.7790   -1.7680    0.1190 C   0  0  0  0  0  0  0  0  0  0  0  0
   -4.8470   -0.5740    0.9940 C   0  0  0  0  0  0  0  0  0  0  0  0
   -4.1980   -0.4840    2.2050 C   0  0  0  0  0  0  0  0  0  0  0  0
   -4.2970    0.6480    2.9940 C   0  0  0  0  0  0  0  0  0  0  0  0
   -5.0820    1.7020    2.5210 C   0  0  0  0  0  0  0  0  0  0  0  0
   -5.7390    1.6410    1.3230 C   0  0  0  0  0  0  0  0  0  0  0  0
   -5.6080    0.4910    0.5730 C   0  0  0  0  0  0  0  0  0  0  0  0
   -3.6570   -0.0650   -3.0970 C   0  0  2  0  0  0  0  0  0  0  0  0
   -4.8910    0.0890   -3.6240 F   0  0  0  0  0  0  0  0  0  0  0  0
   -2.8840   -0.8990   -3.8390 F   0  0  0  0  0  0  0  0  0  0  0  0
   -3.0320    1.2140   -3.2660 F   0  0  0  0  0  0  0  0  0  0  0  0
   -0.1380   -0.3500   -0.2860 C   0  0  0  0  0  0  0  0  0  0  0  0
    0.7880    0.1450    0.5920 C   0  0  0  0  0  0  0  0  0  0  0  0
    2.1380   -0.3320    0.5210 N   0  0  0  0  0  0  0  0  0  0  0  0
    2.9310   -0.3850    1.6990 C   0  0  0  0  0  0  0  0  0  0  0  0
    4.3670   -0.0180    1.5130 C   0  0  0  0  0  0  0  0  0  0  0  0
    4.8050    0.0270    0.0600 C   0  0  2  0  0  0  0  0  0  0  0  0
    4.0660   -1.0140   -0.7410 C   0  0  0  0  0  0  0  0  0  0  0  0
    2.6110   -0.7060   -0.7820 C   0  0  0  0  0  0  0  0  0  0  0  0
    6.2810   -0.3100   -0.0690 C   0  0  0  0  0  0  0  0  0  0  0  0
    6.6610    0.2830   -1.3310 N   0  0  0  0  0  0  0  0  0  0  0  0
    5.8810    1.4890   -1.4580 C   0  0  2  0  0  0  0  0  0  0  0  0
    6.7210    2.6910   -1.2150 C   0  0  0  0  0  0  0  0  0  0  0  0
    7.9320    2.5320   -0.9740 O   0  0  0  0  0  0  0  0  0  0  0  0
    6.1650    3.9660   -1.2550 O   0  0  0  0  0  0  0  0  0  0  0  0
    4.7230    1.4120   -0.5100 C   0  0  0  0  0  0  0  0  0  0  0  0
    0.4140    1.0770    1.4570 N   0  0  0  0  0  0  0  0  0  0  0  0
  1  2  1  0
  2  3  2  0
  2 39  1  0
  3  4  1  0
  4  5  1  0
  4 24  2  0
  6  5  1  6
  6  7  1  0
  6 20  1  0
  7  8  2  0
  7 13  1  0
  8  9  1  0
  9 10  2  0
 10 11  1  0
 10 12  1  0
 12 13  2  0
 13 14  1  0
 14 15  2  0
 14 19  1  0
 15 16  1  0
 16 17  2  0
 17 18  1  0
 18 19  2  0
 20 21  1  6
 20 22  1  0
 20 23  1  0
 24 25  1  0
 25 26  1  0
 25 39  2  0
 26 27  1  0
 26 31  1  0
 27 28  1  0
 29 28  1  1
 29 30  1  0
 29 32  1  0
 29 38  1  0
 30 31  1  0
 32 33  1  0
 33 34  1  0
 34 35  1  1
 34 38  1  0
 35 36  2  0
 35 37  1  0
M  END
