
     RDKit          3D

 39 42  0  0  0  0  0  0  0  0999 V2000
   10.7960    1.5170    0.7280 C   0  0  0  0  0  0  0  0  0  0  0  0
   10.5400    0.2320   -0.0380 C   0  0  0  0  0  0  0  0  0  0  0  0
    9.2550    0.4290   -0.7030 N   0  0  0  0  0  0  0  0  0  0  0  0
    8.2370   -0.2040    0.0710 C   0  0  0  0  0  0  0  0  0  0  0  0
    6.8550    0.2330    0.0350 C   0  0  0  0  0  0  0  0  0  0  0  0
    6.2890    1.3680    0.5490 C   0  0  0  0  0  0  0  0  0  0  0  0
    4.8880    1.5170    0.6000 C   0  0  0  0  0  0  0  0  0  0  0  0
    4.0200    0.5520    0.1370 C   0  0  0  0  0  0  0  0  0  0  0  0
    2.6360    0.6270    0.1840 O   0  0  0  0  0  0  0  0  0  0  0  0
    1.8440   -0.3050   -0.4400 C   0  0  0  0  0  0  0  0  0  0  0  0
    0.3990   -0.3720    0.0280 C   0  0  2  0  0  0  0  0  0  0  0  0
   -0.1770    1.0000    0.3160 C   0  0  0  0  0  0  0  0  0  0  0  0
   -1.3610    0.8330    1.0270 O   0  0  0  0  0  0  0  0  0  0  0  0
   -2.4930    1.3670    0.5390 C   0  0  1  0  0  0  0  0  0  0  0  0
   -2.6510    1.3980   -0.9570 C   0  0  0  0  0  0  0  0  0  0  0  0
   -3.9280    1.9080   -1.2840 O   0  0  0  0  0  0  0  0  0  0  0  0
   -3.6270    0.9050    1.2710 O   0  0  0  0  0  0  0  0  0  0  0  0
   -4.8460    0.6190    0.6450 C   0  0  0  0  0  0  0  0  0  0  0  0
   -4.8810   -0.4720   -0.2600 C   0  0  0  0  0  0  0  0  0  0  0  0
   -6.0750   -0.7200   -0.8790 C   0  0  0  0  0  0  0  0  0  0  0  0
   -7.1990    0.0300   -0.6430 C   0  0  0  0  0  0  0  0  0  0  0  0
   -7.2120    1.0940    0.2530 C   0  0  0  0  0  0  0  0  0  0  0  0
   -5.9960    1.3440    0.8660 C   0  0  0  0  0  0  0  0  0  0  0  0
   -6.0260    2.4110    1.7760 O   0  0  0  0  0  0  0  0  0  0  0  0
   -8.6010    1.5720    0.4960 C   0  0  2  0  0  0  0  0  0  0  0  0
   -8.9090    1.4240    1.8480 O   0  0  0  0  0  0  0  0  0  0  0  0
   -9.4420    0.4430   -0.1740 C   0  0  0  0  0  0  0  0  0  0  0  0
   -8.5320    0.1500   -1.3370 C   0  0  2  0  0  0  0  0  0  0  0  0
   -8.7980   -0.9630   -2.0620 O   0  0  0  0  0  0  0  0  0  0  0  0
   -3.8520   -1.3040   -0.5420 O   0  0  0  0  0  0  0  0  0  0  0  0
   -3.0060   -2.0700    0.2610 C   0  0  0  0  0  0  0  0  0  0  0  0
   -2.3080   -3.1020   -0.6540 C   0  0  0  0  0  0  0  0  0  0  0  0
   -0.9350   -3.0430   -0.5430 O   0  0  0  0  0  0  0  0  0  0  0  0
   -0.4840   -3.2740    0.7280 C   0  0  0  0  0  0  0  0  0  0  0  0
    0.6650   -2.3770    1.1270 C   0  0  0  0  0  0  0  0  0  0  0  0
    0.3590   -1.0480    1.2710 O   0  0  0  0  0  0  0  0  0  0  0  0
    4.6330   -0.5750   -0.3870 C   0  0  0  0  0  0  0  0  0  0  0  0
    5.9800   -0.7390   -0.4380 C   0  0  0  0  0  0  0  0  0  0  0  0
    6.5660   -1.8910   -0.9700 O   0  0  0  0  0  0  0  0  0  0  0  0
  1  2  1  0
  2  3  1  0
  3  4  1  0
  4  5  1  0
  5  6  2  0
  5 38  1  0
  6  7  1  0
  7  8  2  0
  8  9  1  0
  8 37  1  0
  9 10  1  0
 11 10  1  1
 11 12  1  0
 11 36  1  0
 12 13  1  0
 13 14  1  0
 14 15  1  6
 14 17  1  0
 15 16  1  0
 17 18  1  0
 18 19  2  0
 18 23  1  0
 19 20  1  0
 19 30  1  0
 20 21  2  0
 21 22  1  0
 21 28  1  0
 22 23  2  0
 22 25  1  0
 23 24  1  0
 25 26  1  1
 25 27  1  0
 27 28  1  0
 28 29  1  1
 30 31  1  0
 31 32  1  0
 32 33  1  0
 33 34  1  0
 34 35  1  0
 35 36  1  0
 37 38  2  0
 38 39  1  0
M  CHG  1   3   1
M  END
