
     RDKit          3D

 39 44  0  0  0  0  0  0  0  0999 V2000
   -7.7180   -0.7200   -0.8240 C   0  0  0  0  0  0  0  0  0  0  0  0
   -7.0160    0.1740    0.0710 C   0  0  0  0  0  0  0  0  0  0  0  0
   -5.9400    0.2370    0.7420 C   0  0  0  0  0  0  0  0  0  0  0  0
   -4.7720   -0.5150    1.0370 C   0  0  0  0  0  0  0  0  0  0  0  0
   -3.8050    0.0430    1.8600 C   0  0  0  0  0  0  0  0  0  0  0  0
   -3.9850    1.3300    2.4310 N   0  0  0  0  0  0  0  0  0  0  0  0
   -2.8970    1.9340    3.1390 C   0  0  0  0  0  0  0  0  0  0  0  0
   -1.7350    1.3780    3.3240 C   0  0  0  0  0  0  0  0  0  0  0  0
   -1.4130    0.0540    2.8330 C   0  0  2  0  0  0  0  0  0  0  0  0
   -0.1680    0.0410    2.0820 N   0  0  0  0  0  0  0  0  0  0  0  0
    0.0210    0.8200    0.9080 C   0  0  0  0  0  0  0  0  0  0  0  0
   -0.8360    1.6520    0.3090 N   0  0  0  0  0  0  0  0  0  0  0  0
   -0.2650    2.1640   -0.7380 N   0  0  0  0  0  0  0  0  0  0  0  0
    0.9960    1.6520   -0.8230 C   0  0  0  0  0  0  0  0  0  0  0  0
    1.9470    1.9970   -1.8790 C   0  0  0  0  0  0  0  0  0  0  0  0
    1.6780    2.8980   -2.8940 C   0  0  0  0  0  0  0  0  0  0  0  0
    2.7460    3.0010   -3.6900 N   0  0  0  0  0  0  0  0  0  0  0  0
    3.7160    2.1770   -3.2100 N   0  0  0  0  0  0  0  0  0  0  0  0
    4.9930    2.0490   -3.8840 C   0  0  0  0  0  0  0  0  0  0  0  0
    3.2480    1.5650   -2.1160 C   0  0  0  0  0  0  0  0  0  0  0  0
    3.9230    0.5570   -1.2980 C   0  0  0  0  0  0  0  0  0  0  0  0
    3.2150   -0.2490   -0.5930 O   0  0  0  0  0  0  0  0  0  0  0  0
    5.3170    0.3910   -1.2130 N   0  0  0  0  0  0  0  0  0  0  0  0
    5.9970   -0.5830   -0.4430 C   0  0  0  0  0  0  0  0  0  0  0  0
    7.3820   -0.4140   -0.2960 C   0  0  0  0  0  0  0  0  0  0  0  0
    8.1730   -1.2910    0.4130 C   0  0  0  0  0  0  0  0  0  0  0  0
    7.6060   -2.3930    1.0160 C   0  0  0  0  0  0  0  0  0  0  0  0
    6.2490   -2.5890    0.8920 C   0  0  0  0  0  0  0  0  0  0  0  0
    5.6700   -3.6650    1.4760 F   0  0  0  0  0  0  0  0  0  0  0  0
    5.4720   -1.6790    0.1640 C   0  0  0  0  0  0  0  0  0  0  0  0
    1.1130    0.8460    0.1980 O   0  0  0  0  0  0  0  0  0  0  0  0
   -2.4950   -0.5470    2.0310 C   0  0  0  0  0  0  0  0  0  0  0  0
   -2.1870   -1.6700    1.3590 C   0  0  0  0  0  0  0  0  0  0  0  0
   -3.1580   -2.2590    0.4680 C   0  0  0  0  0  0  0  0  0  0  0  0
   -3.1260   -3.0250   -0.5940 C   0  0  0  0  0  0  0  0  0  0  0  0
   -1.9720   -3.4800   -1.1410 F   0  0  0  0  0  0  0  0  0  0  0  0
   -4.4660   -3.2980   -1.0460 C   0  0  0  0  0  0  0  0  0  0  0  0
   -5.2770   -2.6510   -0.2070 N   0  0  0  0  0  0  0  0  0  0  0  0
   -4.5890   -1.9540    0.7610 C   0  0  2  0  0  0  0  0  0  0  0  0
  1  2  1  0
  2  3  2  3
  3  4  1  0
  4  5  2  0
  4 39  1  0
  5  6  1  0
  5 32  1  0
  6  7  1  0
  7  8  2  0
  8  9  1  0
  9 10  1  6
  9 32  1  0
 10 11  1  0
 11 12  2  0
 11 31  1  0
 12 13  1  0
 13 14  2  0
 14 15  1  0
 14 31  1  0
 15 16  1  0
 15 20  2  0
 16 17  2  0
 17 18  1  0
 18 19  1  0
 18 20  1  0
 20 21  1  0
 21 22  2  0
 21 23  1  0
 23 24  1  0
 24 25  2  0
 24 30  1  0
 25 26  1  0
 26 27  2  0
 27 28  1  0
 28 29  1  0
 28 30  2  0
 32 33  2  0
 33 34  1  0
 34 35  2  0
 34 39  1  0
 35 36  1  0
 35 37  1  0
 37 38  2  0
 39 38  1  6
M  CHG  1  38   1
M  END
