
     RDKit          3D

 39 43  0  0  0  0  0  0  0  0999 V2000
  -10.4370    0.5850    0.6500 C   0  0  0  0  0  0  0  0  0  0  0  0
   -8.9600    0.5400    0.6860 C   0  0  0  0  0  0  0  0  0  0  0  0
   -8.2530    1.5390    1.3640 C   0  0  0  0  0  0  0  0  0  0  0  0
   -6.8800    1.5090    1.4060 C   0  0  0  0  0  0  0  0  0  0  0  0
   -6.1860    0.4900    0.7780 C   0  0  0  0  0  0  0  0  0  0  0  0
   -4.7210    0.4320    0.8050 C   0  0  0  0  0  0  0  0  0  0  0  0
   -4.1150    1.3350    1.4160 O   0  0  0  0  0  0  0  0  0  0  0  0
   -4.0610   -0.5770    0.1810 O   0  0  0  0  0  0  0  0  0  0  0  0
   -2.7240   -0.8320    0.0650 C   0  0  0  0  0  0  0  0  0  0  0  0
   -1.8420    0.0870   -0.6760 C   0  0  1  0  0  0  0  0  0  0  0  0
   -1.7240    1.4930   -0.1830 C   0  0  0  0  0  0  0  0  0  0  0  0
   -0.5080    1.8710   -0.8280 O   0  0  0  0  0  0  0  0  0  0  0  0
    0.4070    0.8910   -0.3940 C   0  0  2  0  0  0  0  0  0  0  0  0
    0.8250    1.2410    0.9850 C   0  0  0  0  0  0  0  0  0  0  0  0
    2.2330    1.1250    1.2000 O   0  0  0  0  0  0  0  0  0  0  0  0
    3.0690    0.3540    0.4280 C   0  0  0  0  0  0  0  0  0  0  0  0
    2.7370    0.1790   -0.8950 C   0  0  0  0  0  0  0  0  0  0  0  0
    3.5520   -0.5910   -1.7090 C   0  0  0  0  0  0  0  0  0  0  0  0
    4.6940   -1.1920   -1.2230 C   0  0  0  0  0  0  0  0  0  0  0  0
    5.0350   -1.0220    0.1030 C   0  0  0  0  0  0  0  0  0  0  0  0
    4.2240   -0.2550    0.9150 C   0  0  0  0  0  0  0  0  0  0  0  0
    4.5010   -0.0430    2.2430 O   0  0  0  0  0  0  0  0  0  0  0  0
    5.2490    1.0760    2.6270 C   0  0  0  0  0  0  0  0  0  0  0  0
    6.6250    1.1540    2.0540 C   0  0  0  0  0  0  0  0  0  0  0  0
    7.2900    2.3190    2.5030 O   0  0  0  0  0  0  0  0  0  0  0  0
    6.1330   -1.5390    0.7770 O   0  0  0  0  0  0  0  0  0  0  0  0
    7.0790   -2.5310    0.3640 C   0  0  0  0  0  0  0  0  0  0  0  0
    7.4220   -2.4070   -1.0950 C   0  0  2  0  0  0  0  0  0  0  0  0
    7.6750   -1.0740   -1.3800 O   0  0  0  0  0  0  0  0  0  0  0  0
    6.3510   -2.9620   -1.9980 C   0  0  0  0  0  0  0  0  0  0  0  0
    5.3860   -1.9270   -2.1890 O   0  0  0  0  0  0  0  0  0  0  0  0
    1.5060    0.8340   -1.3950 C   0  0  2  0  0  0  0  0  0  0  0  0
    1.8580    2.1990   -1.7630 N   0  0  0  0  0  0  0  0  0  0  0  0
   -0.3940   -0.3880   -0.4900 C   0  0  0  0  0  0  0  0  0  0  0  0
   -6.8850   -0.4810    0.1180 C   0  0  0  0  0  0  0  0  0  0  0  0
   -8.2810   -0.4840    0.0540 C   0  0  0  0  0  0  0  0  0  0  0  0
   -8.9550   -1.5470   -0.6640 C   0  0  0  0  0  0  0  0  0  0  0  0
   -8.2780   -2.4440   -1.2140 O   0  0  0  0  0  0  0  0  0  0  0  0
  -10.3310   -1.5860   -0.7500 O   0  0  0  0  0  0  0  0  0  0  0  0
  1  2  1  0
  2  3  2  0
  2 36  1  0
  3  4  1  0
  4  5  2  0
  5  6  1  0
  5 35  1  0
  6  7  2  0
  6  8  1  0
  8  9  1  0
 10  9  1  1
 10 11  1  0
 10 34  1  0
 11 12  1  0
 12 13  1  0
 13 14  1  1
 13 32  1  0
 13 34  1  0
 14 15  1  0
 15 16  1  0
 16 17  2  0
 16 21  1  0
 17 18  1  0
 17 32  1  0
 18 19  2  0
 19 20  1  0
 19 31  1  0
 20 21  2  0
 20 26  1  0
 21 22  1  0
 22 23  1  0
 23 24  1  0
 24 25  1  0
 26 27  1  0
 27 28  1  0
 28 29  1  6
 28 30  1  0
 30 31  1  0
 32 33  1  1
 35 36  2  0
 36 37  1  0
 37 38  2  0
 37 39  1  0
M  CHG  1  33   1
M  END
