
     RDKit          3D

 20 21  0  0  0  0  0  0  0  0999 V2000
    4.8740    0.3350    0.8980 C   0  0  0  0  0  0  0  0  0  0  0  0
    3.4990    0.8780    0.5820 C   0  0  0  0  0  0  0  0  0  0  0  0
    3.4710    2.1930    0.2260 O   0  0  0  0  0  0  0  0  0  0  0  0
    2.4430    0.1050    0.6590 C   0  0  0  0  0  0  0  0  0  0  0  0
    2.7240   -1.3180    1.0770 C   0  0  0  0  0  0  0  0  0  0  0  0
    1.0770    0.5120    0.3940 C   0  0  0  0  0  0  0  0  0  0  0  0
   -0.0400   -0.2240    0.4410 C   0  0  0  0  0  0  0  0  0  0  0  0
   -0.2340   -1.6740    0.7740 C   0  0  0  0  0  0  0  0  0  0  0  0
   -1.5680   -2.2000    0.2590 C   0  0  1  0  0  0  0  0  0  0  0  0
   -1.4850   -2.5320   -1.2100 C   0  0  0  0  0  0  0  0  0  0  0  0
   -1.8300   -3.4890    1.0070 C   0  0  0  0  0  0  0  0  0  0  0  0
   -2.6890   -1.2610    0.6080 C   0  0  0  0  0  0  0  0  0  0  0  0
   -2.5440    0.0910    0.0720 C   0  0  0  0  0  0  0  0  0  0  0  0
   -1.1610    0.6100    0.1080 C   0  0  0  0  0  0  0  0  0  0  0  0
   -0.7860    1.8740   -0.1540 C   0  0  0  0  0  0  0  0  0  0  0  0
   -1.6710    3.0000   -0.5290 C   0  0  0  0  0  0  0  0  0  0  0  0
   -1.2420    3.5000   -1.8890 C   0  0  0  0  0  0  0  0  0  0  0  0
   -2.0630    4.5520   -2.2480 O   0  0  0  0  0  0  0  0  0  0  0  0
    0.6660    1.8620    0.0190 C   0  0  0  0  0  0  0  0  0  0  0  0
    1.3350    2.9260   -0.1600 O   0  0  0  0  0  0  0  0  0  0  0  0
  1  2  1  0
  2  3  1  0
  2  4  2  3
  4  5  1  0
  4  6  1  0
  6  7  2  0
  6 19  1  0
  7  8  1  0
  7 14  1  0
  8  9  1  0
  9 10  1  6
  9 11  1  0
  9 12  1  0
 12 13  1  0
 13 14  1  0
 14 15  2  0
 15 16  1  0
 15 19  1  0
 16 17  1  0
 17 18  1  0
 19 20  2  0
M  END
