
     RDKit          3D

 20 22  0  0  0  0  0  0  0  0999 V2000
   -2.9290    2.2700    0.8520 C   0  0  0  0  0  0  0  0  0  0  0  0
   -2.2230    1.7100   -0.3140 C   0  0  0  0  0  0  0  0  0  0  0  0
   -1.4930    0.4480   -0.1800 C   0  0  0  0  0  0  0  0  0  0  0  0
   -2.1620   -0.7920   -0.1910 C   0  0  0  0  0  0  0  0  0  0  0  0
   -3.6290   -0.8360   -0.3400 C   0  0  0  0  0  0  0  0  0  0  0  0
   -1.5020   -1.9990   -0.0690 C   0  0  0  0  0  0  0  0  0  0  0  0
   -2.2700   -3.2890   -0.0900 C   0  0  0  0  0  0  0  0  0  0  0  0
   -0.1530   -2.0430    0.0710 C   0  0  0  0  0  0  0  0  0  0  0  0
    0.5440   -0.8860    0.0900 C   0  0  0  0  0  0  0  0  0  0  0  0
   -0.1270    0.3330   -0.0340 C   0  0  0  0  0  0  0  0  0  0  0  0
    0.4760    1.6510   -0.0080 C   0  0  0  0  0  0  0  0  0  0  0  0
   -0.2610    2.5540    0.2930 O   0  0  0  0  0  0  0  0  0  0  0  0
    1.7920    1.9680   -0.2890 O   0  0  0  0  0  0  0  0  0  0  0  0
    2.9370    1.1550   -0.1960 C   0  0  0  0  0  0  0  0  0  0  0  0
    4.0560    1.9090   -0.3740 C   0  0  0  0  0  0  0  0  0  0  0  0
    5.2800    1.2830   -0.3160 C   0  0  0  0  0  0  0  0  0  0  0  0
    5.3580   -0.0850   -0.0820 C   0  0  0  0  0  0  0  0  0  0  0  0
    4.2050   -0.8110    0.0930 C   0  0  0  0  0  0  0  0  0  0  0  0
    2.9640   -0.2130    0.0410 C   0  0  0  0  0  0  0  0  0  0  0  0
    1.9220   -1.1170    0.2410 O   0  0  0  0  0  0  0  0  0  0  0  0
  1  2  1  0
  2  3  1  0
  3  4  2  0
  3 10  1  0
  4  5  1  0
  4  6  1  0
  6  7  1  0
  6  8  2  0
  8  9  1  0
  9 10  2  0
  9 20  1  0
 10 11  1  0
 11 12  2  0
 11 13  1  0
 13 14  1  0
 14 15  2  0
 14 19  1  0
 15 16  1  0
 16 17  2  0
 17 18  1  0
 18 19  2  0
 19 20  1  0
M  END
