
     RDKit          3D

 20 22  0  0  0  0  0  0  0  0999 V2000
    6.0320   -0.0730    0.3440 C   0  0  0  0  0  0  0  0  0  0  0  0
    4.7430    0.6350   -0.0770 C   0  0  0  0  0  0  0  0  0  0  0  0
    3.6050   -0.3430   -0.1740 C   0  0  0  0  0  0  0  0  0  0  0  0
    2.2980    0.2340   -0.4880 C   0  0  0  0  0  0  0  0  0  0  0  0
    1.1810   -0.4160    0.0320 C   0  0  0  0  0  0  0  0  0  0  0  0
    1.2750   -1.6610    0.8010 C   0  0  0  0  0  0  0  0  0  0  0  0
   -0.0500    0.1460   -0.2160 C   0  0  0  0  0  0  0  0  0  0  0  0
   -1.2250   -0.4410    0.2700 C   0  0  0  0  0  0  0  0  0  0  0  0
   -2.4560    0.1070    0.0360 C   0  0  0  0  0  0  0  0  0  0  0  0
   -3.7180   -0.3030    0.4190 C   0  0  0  0  0  0  0  0  0  0  0  0
   -4.0220   -1.4970    1.2040 C   0  0  0  0  0  0  0  0  0  0  0  0
   -4.6010    0.6240   -0.0910 C   0  0  0  0  0  0  0  0  0  0  0  0
   -6.0760    0.5520    0.0950 C   0  0  0  0  0  0  0  0  0  0  0  0
   -3.9060    1.5210   -0.7330 O   0  0  0  0  0  0  0  0  0  0  0  0
   -2.6210    1.2630   -0.6910 C   0  0  0  0  0  0  0  0  0  0  0  0
   -1.4770    1.8540   -1.1790 C   0  0  0  0  0  0  0  0  0  0  0  0
   -0.2220    1.3090   -0.9480 C   0  0  0  0  0  0  0  0  0  0  0  0
    0.8710    1.8800   -1.4160 O   0  0  0  0  0  0  0  0  0  0  0  0
    2.0840    1.3820   -1.2080 C   0  0  0  0  0  0  0  0  0  0  0  0
    3.0630    2.0130   -1.7080 O   0  0  0  0  0  0  0  0  0  0  0  0
  1  2  1  0
  2  3  1  0
  3  4  1  0
  4  5  2  0
  4 19  1  0
  5  6  1  0
  5  7  1  0
  7  8  2  0
  7 17  1  0
  8  9  1  0
  9 10  1  0
  9 15  2  0
 10 11  1  0
 10 12  2  0
 12 13  1  0
 12 14  1  0
 14 15  1  0
 15 16  1  0
 16 17  2  0
 17 18  1  0
 18 19  1  0
 19 20  2  0
M  END
