
     RDKit          3D

 20 22  0  0  0  0  0  0  0  0999 V2000
   -4.0590    1.8360    1.5080 C   0  0  0  0  0  0  0  0  0  0  0  0
   -2.7150    1.4070    1.1080 C   0  0  0  0  0  0  0  0  0  0  0  0
   -2.5050    0.4490    0.2070 C   0  0  0  0  0  0  0  0  0  0  0  0
   -3.6910   -0.1750   -0.3850 C   0  0  0  0  0  0  0  0  0  0  0  0
   -3.8140   -1.4090   -0.8300 C   0  0  0  0  0  0  0  0  0  0  0  0
   -2.8190   -2.5120   -0.8690 C   0  0  0  0  0  0  0  0  0  0  0  0
   -1.4900   -1.8770   -1.2600 C   0  0  0  0  0  0  0  0  0  0  0  0
   -0.8710   -1.2450   -0.2340 O   0  0  0  0  0  0  0  0  0  0  0  0
   -1.0900    0.1010   -0.1170 C   0  0  1  0  0  0  0  0  0  0  0  0
   -0.6180    0.9250   -1.2570 C   0  0  0  0  0  0  0  0  0  0  0  0
    0.7780    0.6890   -1.6990 C   0  0  0  0  0  0  0  0  0  0  0  0
    1.8500    0.9230   -0.7030 C   0  0  1  0  0  0  0  0  0  0  0  0
    1.7650    0.1240    0.4560 O   0  0  0  0  0  0  0  0  0  0  0  0
    3.0570   -0.0480    0.9200 C   0  0  0  0  0  0  0  0  0  0  0  0
    3.5780   -0.3380    2.1840 C   0  0  0  0  0  0  0  0  0  0  0  0
    4.9360   -0.4410    2.2910 C   0  0  0  0  0  0  0  0  0  0  0  0
    5.7830   -0.2690    1.2030 C   0  0  0  0  0  0  0  0  0  0  0  0
    5.2720    0.0150   -0.0360 C   0  0  0  0  0  0  0  0  0  0  0  0
    3.8960    0.1220   -0.1560 C   0  0  0  0  0  0  0  0  0  0  0  0
    3.0680    0.3980   -1.2630 O   0  0  0  0  0  0  0  0  0  0  0  0
  1  2  1  0
  2  3  2  3
  3  4  1  0
  3  9  1  0
  4  5  2  0
  5  6  1  0
  6  7  1  0
  7  8  1  0
  8  9  1  0
  9 10  1  6
 10 11  1  0
 12 11  1  6
 12 13  1  0
 12 20  1  0
 13 14  1  0
 14 15  2  0
 14 19  1  0
 15 16  1  0
 16 17  2  0
 17 18  1  0
 18 19  2  0
 19 20  1  0
M  END
