
     RDKit          3D

 20 22  0  0  0  0  0  0  0  0999 V2000
   -0.4630    1.1560    2.3940 C   0  0  0  0  0  0  0  0  0  0  0  0
   -1.1710    0.4880    1.2790 C   0  0  0  0  0  0  0  0  0  0  0  0
   -2.5090    0.7590    1.0920 C   0  0  0  0  0  0  0  0  0  0  0  0
   -3.2430    0.1630    0.0740 C   0  0  0  0  0  0  0  0  0  0  0  0
   -2.5800   -0.7170   -0.7490 C   0  0  0  0  0  0  0  0  0  0  0  0
   -1.2310   -0.9760   -0.5420 C   0  0  0  0  0  0  0  0  0  0  0  0
   -0.5930   -1.9420   -1.4510 C   0  0  0  0  0  0  0  0  0  0  0  0
   -0.4850   -0.4000    0.4530 C   0  0  0  0  0  0  0  0  0  0  0  0
    0.8340   -0.6060    0.7080 O   0  0  0  0  0  0  0  0  0  0  0  0
    1.9580    0.0350    0.2430 C   0  0  1  0  0  0  0  0  0  0  0  0
    2.6340    0.9140    1.2890 C   0  0  0  0  0  0  0  0  0  0  0  0
    4.1370    0.9860    1.0750 C   0  0  0  0  0  0  0  0  0  0  0  0
    4.5120    1.0250   -0.3800 C   0  0  0  0  0  0  0  0  0  0  0  0
    3.8910   -0.0570   -1.2020 C   0  0  0  0  0  0  0  0  0  0  0  0
    3.0290   -0.8980   -0.2420 C   0  0  0  0  0  0  0  0  0  0  0  0
   -3.3380   -1.3460   -1.8150 C   0  0  0  0  0  0  0  0  0  0  0  0
   -2.8280   -2.1520   -2.6090 O   0  0  0  0  0  0  0  0  0  0  0  0
   -4.6880   -1.0440   -1.9670 O   0  0  0  0  0  0  0  0  0  0  0  0
   -5.4520   -0.5170   -0.8920 C   0  0  0  0  0  0  0  0  0  0  0  0
   -4.6730    0.4850   -0.0940 C   0  0  0  0  0  0  0  0  0  0  0  0
  1  2  1  0
  2  3  2  0
  2  8  1  0
  3  4  1  0
  4  5  2  0
  4 20  1  0
  5  6  1  0
  5 16  1  0
  6  7  1  0
  6  8  2  0
  8  9  1  0
 10  9  1  1
 10 11  1  0
 10 15  1  0
 11 12  1  0
 12 13  1  0
 13 14  1  0
 14 15  1  0
 16 17  2  0
 16 18  1  0
 18 19  1  0
 19 20  1  0
M  END
