
     RDKit          3D

 18 18  0  0  0  0  0  0  0  0999 V2000
   -2.6160   -0.2270   -1.4110 C   0  0  0  0  0  0  0  0  0  0  0  0
   -2.8150    0.1050   -0.1610 C   0  0  0  0  0  0  0  0  0  0  0  0
   -2.0660   -0.6220    0.9050 C   0  0  0  0  0  0  0  0  0  0  0  0
   -1.0130    0.1820    1.5950 C   0  0  0  0  0  0  0  0  0  0  0  0
    0.1160    0.6000    0.6900 C   0  0  0  0  0  0  0  0  0  0  0  0
    0.1000    1.8390    0.2640 C   0  0  0  0  0  0  0  0  0  0  0  0
    1.0190    2.4830   -0.5920 N   0  0  0  0  0  0  0  0  0  0  0  0
   -1.2020    2.8830    0.9120 Cl  0  0  0  0  0  0  0  0  0  0  0  0
    1.1780   -0.3890    0.3510 C   0  0  0  0  0  0  0  0  0  0  0  0
    1.2490   -1.6010    0.8040 C   0  0  0  0  0  0  0  0  0  0  0  0
    0.2710   -2.5360    1.8980 S   0  0  0  0  0  0  0  0  0  0  0  0
    2.7070   -2.3670    0.0340 S   0  0  0  0  0  0  0  0  0  0  0  0
    3.4760   -0.8120   -0.2650 N   0  0  0  0  0  0  0  0  0  0  0  0
    4.3180   -0.8510   -1.3480 N   0  0  0  0  0  0  0  0  0  0  0  0
    2.2830   -0.0320   -0.5560 C   0  0  1  0  0  0  0  0  0  0  0  0
    2.0030   -0.1880   -1.8750 F   0  0  0  0  0  0  0  0  0  0  0  0
   -3.6970    1.0960    0.2050 O   0  0  0  0  0  0  0  0  0  0  0  0
   -4.5160    1.0170    1.2500 O   0  0  0  0  0  0  0  0  0  0  0  0
  1  2  2  0
  2  3  1  0
  2 17  1  0
  3  4  1  0
  4  5  1  0
  5  6  2  3
  5  9  1  0
  6  7  1  0
  6  8  1  0
  9 10  2  0
  9 15  1  0
 10 11  1  0
 10 12  1  0
 12 13  1  0
 13 14  1  0
 13 15  1  0
 15 16  1  6
 17 18  1  0
M  END
