
     RDKit          3D

 20 20  0  0  0  0  0  0  0  0999 V2000
   -1.6600   -3.2430    1.3300 C   0  0  0  0  0  0  0  0  0  0  0  0
   -1.9390   -1.9540    0.6750 C   0  0  0  0  0  0  0  0  0  0  0  0
   -0.9980   -1.0540    0.6000 C   0  0  0  0  0  0  0  0  0  0  0  0
    0.2900   -1.3180    1.1480 O   0  0  0  0  0  0  0  0  0  0  0  0
    1.0870   -0.2200    1.0350 O   0  0  0  0  0  0  0  0  0  0  0  0
    1.1610    0.0650   -0.3270 C   0  0  2  0  0  0  0  0  0  0  0  0
    2.6060    1.1420   -0.5450 S   0  0  0  0  0  0  0  0  0  0  0  0
    4.0710    0.1210   -0.1250 C   0  0  2  0  0  0  0  0  0  0  0  0
    5.2820    0.8710   -0.2590 N   0  0  0  0  0  0  0  0  0  0  0  0
    4.0610   -1.1290   -0.8240 N   0  0  0  0  0  0  0  0  0  0  0  0
   -0.0980    0.6980   -0.8780 C   0  0  2  0  0  0  0  0  0  0  0  0
   -0.4350    0.0970   -2.5160 Cl  0  0  0  0  0  0  0  0  0  0  0  0
   -0.0450    2.4920   -0.9110 S   0  0  0  0  0  0  0  0  0  0  0  0
    1.1230    3.0790   -2.0110 O   0  0  0  0  0  0  0  0  0  0  0  0
    0.8850    4.7550   -2.2640 Cl  0  0  0  0  0  0  0  0  0  0  0  0
   -1.1910    0.2140   -0.0160 N   0  0  0  0  0  0  0  0  0  0  0  0
   -2.3880    0.9530    0.1910 C   0  0  1  0  0  0  0  0  0  0  0  0
   -3.2710    1.0600   -1.0240 C   0  0  0  0  0  0  0  0  0  0  0  0
   -3.1790    0.5770    1.4130 C   0  0  0  0  0  0  0  0  0  0  0  0
   -1.9320    2.2830    0.4600 F   0  0  0  0  0  0  0  0  0  0  0  0
  1  2  1  0
  2  3  2  3
  3  4  1  0
  3 16  1  0
  4  5  1  0
  5  6  1  0
  6  7  1  1
  6 11  1  0
  7  8  1  0
  8  9  1  6
  8 10  1  0
 11 12  1  6
 11 13  1  0
 11 16  1  0
 13 14  1  0
 14 15  1  0
 16 17  1  0
 17 18  1  6
 17 19  1  0
 17 20  1  0
M  END
