
     RDKit          3D

 20 23  0  0  0  0  0  0  0  0999 V2000
    3.4190    0.4500   -0.5390 C   0  0  0  0  0  0  0  0  0  0  0  0
    2.1860   -0.2090    0.0380 C   0  0  1  0  0  0  0  0  0  0  0  0
    2.5600   -1.5880    0.4790 C   0  0  0  0  0  0  0  0  0  0  0  0
    1.6200    0.6530    1.1190 C   0  0  0  0  0  0  0  0  0  0  0  0
    0.2130    0.0910    1.2760 C   0  0  1  0  0  0  0  0  0  0  0  0
   -0.6340    1.1990    1.7210 C   0  0  0  0  0  0  0  0  0  0  0  0
   -1.4060    1.5770    0.7380 C   0  0  0  0  0  0  0  0  0  0  0  0
   -2.3990    2.6710    0.8070 C   0  0  0  0  0  0  0  0  0  0  0  0
   -2.5360    3.3040    1.8790 O   0  0  0  0  0  0  0  0  0  0  0  0
   -3.1900    3.0330   -0.2650 O   0  0  0  0  0  0  0  0  0  0  0  0
   -1.1840    0.7790   -0.4770 C   0  0  2  0  0  0  0  0  0  0  0  0
   -2.5140    0.1640   -0.9160 C   0  0  0  0  0  0  0  0  0  0  0  0
   -2.1820   -0.7130   -2.0110 O   0  0  0  0  0  0  0  0  0  0  0  0
   -1.3290   -1.7640   -1.6150 C   0  0  0  0  0  0  0  0  0  0  0  0
   -1.0550   -2.6850   -2.3920 O   0  0  0  0  0  0  0  0  0  0  0  0
   -0.8330   -1.6240   -0.2210 C   0  0  1  0  0  0  0  0  0  0  0  0
   -1.5960   -2.2690    0.8210 C   0  0  0  0  0  0  0  0  0  0  0  0
   -0.3090   -2.7220    0.4320 O   0  0  0  0  0  0  0  0  0  0  0  0
   -0.1840   -0.2780   -0.1050 C   0  0  2  0  0  0  0  0  0  0  0  0
    1.0610   -0.1990   -0.9870 C   0  0  0  0  0  0  0  0  0  0  0  0
  2  1  1  6
  2  3  1  0
  2  4  1  0
  2 20  1  0
  5  4  1  6
  5  6  1  0
  5 19  1  0
  6  7  2  0
  7  8  1  0
  7 11  1  0
  8  9  2  0
  8 10  1  0
 11 12  1  1
 11 19  1  0
 12 13  1  0
 13 14  1  0
 14 15  2  0
 14 16  1  0
 16 17  1  1
 16 18  1  0
 16 19  1  0
 17 18  1  0
 19 20  1  6
M  END
