
     RDKit          3D

 27 30  0  0  0  0  0  0  0  0999 V2000
   -0.4820    4.8560   -2.2020 C   0  0  0  0  0  0  0  0  0  0  0  0
   -0.0200    3.5660   -1.6320 C   0  0  0  0  0  0  0  0  0  0  0  0
   -0.6500    2.9370   -0.7040 N   0  0  0  0  0  0  0  0  0  0  0  0
   -0.1530    1.6840   -0.1870 C   0  0  0  0  0  0  0  0  0  0  0  0
   -0.9840    1.0200    0.8030 C   0  0  0  0  0  0  0  0  0  0  0  0
   -1.2770    1.6150    1.9880 N   0  0  0  0  0  0  0  0  0  0  0  0
   -2.0690    1.0340    2.8870 N   0  0  0  0  0  0  0  0  0  0  0  0
   -2.3420    1.7230    4.1340 C   0  0  0  0  0  0  0  0  0  0  0  0
   -2.6130   -0.1720    2.6550 C   0  0  0  0  0  0  0  0  0  0  0  0
   -3.3720   -0.7520    3.4950 O   0  0  0  0  0  0  0  0  0  0  0  0
   -2.3670   -0.8340    1.4860 C   0  0  0  0  0  0  0  0  0  0  0  0
   -2.9220   -2.0710    1.1940 C   0  0  0  0  0  0  0  0  0  0  0  0
   -2.6240   -2.6310   -0.0140 C   0  0  0  0  0  0  0  0  0  0  0  0
   -1.7980   -2.0010   -0.9270 C   0  0  0  0  0  0  0  0  0  0  0  0
   -1.5190   -2.6840   -2.2350 C   0  0  0  0  0  0  0  0  0  0  0  0
   -1.2660   -0.8020   -0.6320 N   0  0  0  0  0  0  0  0  0  0  0  0
   -1.5330   -0.2170    0.5430 C   0  0  0  0  0  0  0  0  0  0  0  0
    0.9430    1.1160   -0.6150 C   0  0  0  0  0  0  0  0  0  0  0  0
    1.4530   -0.1540   -0.0850 C   0  0  0  0  0  0  0  0  0  0  0  0
    2.5720   -0.6470   -0.6040 C   0  0  0  0  0  0  0  0  0  0  0  0
    3.1540   -1.8990   -0.1430 C   0  0  0  0  0  0  0  0  0  0  0  0
    4.2550   -2.4840   -0.5800 C   0  0  0  0  0  0  0  0  0  0  0  0
    4.4530   -3.7170    0.1700 C   0  0  0  0  0  0  0  0  0  0  0  0
    3.3840   -3.7970    0.9450 C   0  0  0  0  0  0  0  0  0  0  0  0
    2.6140   -2.7500    0.9090 C   0  0  0  0  0  0  0  0  0  0  0  0
    1.7230    1.7710   -1.6910 C   0  0  0  0  0  0  0  0  0  0  0  0
    1.1740    3.0140   -2.1440 N   0  0  0  0  0  0  0  0  0  0  0  0
  1  2  1  0
  2  3  2  0
  2 27  1  0
  3  4  1  0
  4  5  1  0
  4 18  2  0
  5  6  2  0
  5 17  1  0
  6  7  1  0
  7  8  1  0
  7  9  1  0
  9 10  2  0
  9 11  1  0
 11 12  2  0
 11 17  1  0
 12 13  1  0
 13 14  2  0
 14 15  1  0
 14 16  1  0
 16 17  2  0
 18 19  1  0
 18 26  1  0
 19 20  2  3
 20 21  1  0
 21 22  2  0
 21 25  1  0
 22 23  1  0
 23 24  2  0
 24 25  2  0
 26 27  1  0
M  END
