
     RDKit          3D

 19 19  0  0  0  0  0  0  0  0999 V2000
   -2.4770    2.6010   -1.2200 C   0  0  0  0  0  0  0  0  0  0  0  0
   -1.7440    1.3580   -1.2080 N   0  0  0  0  0  0  0  0  0  0  0  0
   -2.2380    0.5180   -2.1350 F   0  0  0  0  0  0  0  0  0  0  0  0
   -1.8210    0.7840    0.1240 C   0  0  1  0  0  0  0  0  0  0  0  0
   -1.2920    2.0870    1.2620 Cl  0  0  0  0  0  0  0  0  0  0  0  0
   -3.1560    0.4070    0.5280 C   0  0  0  0  0  0  0  0  0  0  0  0
   -4.4900    1.5870    0.4210 Cl  0  0  0  0  0  0  0  0  0  0  0  0
   -3.4790   -0.7850    0.9970 C   0  0  0  0  0  0  0  0  0  0  0  0
   -2.5160   -1.8090    1.1430 N   0  0  0  0  0  0  0  0  0  0  0  0
   -1.1720   -1.4620    0.7500 C   0  0  0  0  0  0  0  0  0  0  0  0
   -0.8260   -0.3040    0.2880 C   0  0  0  0  0  0  0  0  0  0  0  0
    0.5990   -0.0560   -0.0870 C   0  0  0  0  0  0  0  0  0  0  0  0
    1.5680   -1.4830    0.1990 S   0  0  2  0  0  0  0  0  0  0  0  0
    1.1470   -2.6710   -0.6320 O   0  0  0  0  0  0  0  0  0  0  0  0
    1.6120   -1.8880    1.6570 O   0  0  0  0  0  0  0  0  0  0  0  0
    3.2760   -1.1860   -0.2480 C   0  0  0  0  0  0  0  0  0  0  0  0
    3.8820   -0.1000    0.5270 C   0  0  0  0  0  0  0  0  0  0  0  0
    5.2350    0.2390    0.2040 N   0  0  0  0  0  0  0  0  0  0  0  0
    3.1190    0.7140    1.7100 S   0  0  0  0  0  0  0  0  0  0  0  0
  1  2  1  0
  2  3  1  0
  2  4  1  0
  4  5  1  1
  4  6  1  0
  4 11  1  0
  6  7  1  0
  6  8  2  0
  8  9  1  0
  9 10  1  0
 10 11  2  0
 11 12  1  0
 13 12  1  1
 13 14  2  0
 13 15  2  0
 13 16  1  0
 16 17  1  0
 17 18  1  0
 17 19  2  0
M  END
