
     RDKit          3D

 27 31  0  0  0  0  0  0  0  0999 V2000
    2.7220   -2.8080   -0.2880 C   0  0  0  0  0  0  0  0  0  0  0  0
    3.6090   -1.6550    0.0160 C   0  0  0  0  0  0  0  0  0  0  0  0
    4.9230   -1.5950   -0.0190 C   0  0  0  0  0  0  0  0  0  0  0  0
    5.3470   -0.2580    0.3580 C   0  0  0  0  0  0  0  0  0  0  0  0
    4.3130    0.4500    0.6070 N   0  0  0  0  0  0  0  0  0  0  0  0
    3.1410   -0.3180    0.4280 C   0  0  1  0  0  0  0  0  0  0  0  0
    2.2210    0.2540   -0.5410 N   0  0  0  0  0  0  0  0  0  0  0  0
    1.6360    1.4920   -0.4030 N   0  0  0  0  0  0  0  0  0  0  0  0
    0.3690    1.6830   -0.2330 C   0  0  0  0  0  0  0  0  0  0  0  0
   -0.1030    2.9800   -0.1060 C   0  0  0  0  0  0  0  0  0  0  0  0
    0.7410    4.0810   -0.1570 C   0  0  0  0  0  0  0  0  0  0  0  0
    0.2510    5.3670   -0.0290 C   0  0  0  0  0  0  0  0  0  0  0  0
   -1.1070    5.5870    0.1550 C   0  0  0  0  0  0  0  0  0  0  0  0
   -1.9270    4.4640    0.2020 C   0  0  0  0  0  0  0  0  0  0  0  0
   -1.4490    3.1920    0.0760 C   0  0  0  0  0  0  0  0  0  0  0  0
   -2.2560    2.1670    0.1260 O   0  0  0  0  0  0  0  0  0  0  0  0
   -1.8600    0.9260    0.0120 C   0  0  0  0  0  0  0  0  0  0  0  0
   -2.7500   -0.1220    0.0710 C   0  0  0  0  0  0  0  0  0  0  0  0
   -2.3470   -1.4440   -0.0480 C   0  0  0  0  0  0  0  0  0  0  0  0
   -3.2260   -2.4980    0.0100 C   0  0  0  0  0  0  0  0  0  0  0  0
   -4.6710   -2.2600    0.2060 C   0  0  0  0  0  0  0  0  0  0  0  0
   -2.7570   -3.7770   -0.1160 C   0  0  0  0  0  0  0  0  0  0  0  0
   -1.3930   -3.9890   -0.3000 C   0  0  0  0  0  0  0  0  0  0  0  0
   -0.5750   -2.9390   -0.3500 N   0  0  0  0  0  0  0  0  0  0  0  0
   -0.9740   -1.6500   -0.2330 C   0  0  0  0  0  0  0  0  0  0  0  0
   -0.0910   -0.6370   -0.2930 N   0  0  0  0  0  0  0  0  0  0  0  0
   -0.5280    0.6310   -0.1730 C   0  0  0  0  0  0  0  0  0  0  0  0
  1  2  1  0
  2  3  2  0
  2  6  1  0
  3  4  1  0
  4  5  2  0
  5  6  1  0
  6  7  1  6
  7  8  1  0
  8  9  2  3
  9 10  1  0
  9 27  1  0
 10 11  2  0
 10 15  1  0
 11 12  1  0
 12 13  2  0
 13 14  1  0
 14 15  2  0
 15 16  1  0
 16 17  1  0
 17 18  2  0
 17 27  1  0
 18 19  1  0
 19 20  2  0
 19 25  1  0
 20 21  1  0
 20 22  1  0
 22 23  2  0
 23 24  1  0
 24 25  2  0
 25 26  1  0
 26 27  2  0
M  END
