
     RDKit          3D

 36 38  0  0  0  0  0  0  0  0999 V2000
   10.0260    1.5680   -1.2040 C   0  0  0  0  0  0  0  0  0  0  0  0
    9.2220    0.5270   -1.9700 C   0  0  0  0  0  0  0  0  0  0  0  0
    7.8130    0.6610   -1.5780 C   0  0  0  0  0  0  0  0  0  0  0  0
    7.1180   -0.3050   -1.0020 C   0  0  0  0  0  0  0  0  0  0  0  0
    7.6910   -1.6180   -0.6950 C   0  0  0  0  0  0  0  0  0  0  0  0
    6.9070   -2.5030   -0.1210 C   0  0  0  0  0  0  0  0  0  0  0  0
    5.5410   -2.2150    0.1990 C   0  0  0  0  0  0  0  0  0  0  0  0
    4.9790   -1.0170   -0.0690 C   0  0  0  0  0  0  0  0  0  0  0  0
    3.6080   -0.7950    0.2780 C   0  0  0  0  0  0  0  0  0  0  0  0
    2.8290    0.2420    0.1370 C   0  0  0  0  0  0  0  0  0  0  0  0
    3.1060    1.5240   -0.4260 C   0  0  0  0  0  0  0  0  0  0  0  0
    4.4890    2.1110   -1.0760 S   0  0  0  0  0  0  0  0  0  0  0  0
    1.8790    2.2890   -0.3260 N   0  0  0  0  0  0  0  0  0  0  0  0
    0.8900    1.4610    0.2900 C   0  0  0  0  0  0  0  0  0  0  0  0
    1.4030    0.3000    0.5620 C   0  0  0  0  0  0  0  0  0  0  0  0
    0.6120   -0.7920    1.2150 C   0  0  0  0  0  0  0  0  0  0  0  0
   -0.4430   -0.0560    2.0580 C   0  0  0  0  0  0  0  0  0  0  0  0
   -1.2150    0.6940    1.1460 N   0  0  0  0  0  0  0  0  0  0  0  0
   -2.5260    0.4970    0.7460 C   0  0  0  0  0  0  0  0  0  0  0  0
   -2.9190    1.3540   -0.1780 O   0  0  0  0  0  0  0  0  0  0  0  0
   -3.5330   -0.4070    1.0990 N   0  0  0  0  0  0  0  0  0  0  0  0
   -3.4460   -1.3610    2.1990 C   0  0  0  0  0  0  0  0  0  0  0  0
   -2.8010   -2.6060    1.7700 C   0  0  0  0  0  0  0  0  0  0  0  0
   -2.3320   -2.8110    0.4660 N   0  0  0  0  0  0  0  0  0  0  0  0
   -2.6450   -3.5570    2.5970 O   0  0  0  0  0  0  0  0  0  0  0  0
   -4.7910   -0.4270    0.3290 C   0  0  1  0  0  0  0  0  0  0  0  0
   -5.5280    0.8360    0.4480 C   0  0  0  0  0  0  0  0  0  0  0  0
   -5.0720    1.7620    1.2080 O   0  0  0  0  0  0  0  0  0  0  0  0
   -6.7000    1.0910   -0.2180 O   0  0  0  0  0  0  0  0  0  0  0  0
   -7.4260    2.3030   -0.1170 C   0  0  0  0  0  0  0  0  0  0  0  0
   -7.8090    2.4730    1.3370 C   0  0  0  0  0  0  0  0  0  0  0  0
   -4.7490   -1.0480   -1.0140 C   0  0  2  0  0  0  0  0  0  0  0  0
   -3.8600   -0.4880   -2.0530 C   0  0  0  0  0  0  0  0  0  0  0  0
   -6.1740   -1.0310   -1.6450 C   0  0  0  0  0  0  0  0  0  0  0  0
   -0.5060    1.8630    0.5770 C   0  0  0  0  0  0  0  0  0  0  0  0
    5.7920   -0.1050   -0.6610 O   0  0  0  0  0  0  0  0  0  0  0  0
  1  2  1  0
  2  3  1  0
  3  4  2  3
  4  5  1  0
  4 36  1  0
  5  6  2  0
  6  7  1  0
  7  8  2  0
  8  9  1  0
  8 36  1  0
  9 10  2  3
 10 11  1  0
 10 15  1  0
 11 12  2  0
 11 13  1  0
 13 14  1  0
 14 15  2  0
 14 35  1  0
 15 16  1  0
 16 17  1  0
 17 18  1  0
 18 19  1  0
 18 35  1  0
 19 20  2  0
 19 21  1  0
 21 22  1  0
 26 21  1  6
 22 23  1  0
 23 24  1  0
 23 25  2  0
 26 27  1  0
 26 32  1  0
 27 28  2  0
 27 29  1  0
 29 30  1  0
 30 31  1  0
 32 33  1  6
 32 34  1  0
M  END
