
     RDKit          3D

 37 41  0  0  0  0  0  0  0  0999 V2000
   10.8290    0.6020   -0.9590 C   0  0  0  0  0  0  0  0  0  0  0  0
    9.9250   -0.5920   -1.2870 C   0  0  0  0  0  0  0  0  0  0  0  0
    8.6300   -0.2730   -0.7060 N   0  0  1  0  0  0  0  0  0  0  0  0
    7.5960   -0.8120   -1.5620 C   0  0  0  0  0  0  0  0  0  0  0  0
    6.2890   -0.1890   -1.0700 C   0  0  0  0  0  0  0  0  0  0  0  0
    6.0350   -0.6750    0.2650 N   0  0  1  0  0  0  0  0  0  0  0  0
    4.8840   -1.5430    0.3010 C   0  0  0  0  0  0  0  0  0  0  0  0
    3.5880   -0.8340    0.3360 C   0  0  0  0  0  0  0  0  0  0  0  0
    3.5230    0.5260    0.2040 C   0  0  0  0  0  0  0  0  0  0  0  0
    2.2700    1.1560    0.2470 C   0  0  0  0  0  0  0  0  0  0  0  0
    1.1160    0.4330    0.4200 C   0  0  0  0  0  0  0  0  0  0  0  0
   -0.1590    1.0320    0.4690 N   0  0  0  0  0  0  0  0  0  0  0  0
   -1.3330    0.2510    0.6510 C   0  0  0  0  0  0  0  0  0  0  0  0
   -1.3230   -1.0680    0.7840 N   0  0  0  0  0  0  0  0  0  0  0  0
   -2.4270   -1.8180    0.9580 C   0  0  0  0  0  0  0  0  0  0  0  0
   -3.6660   -1.1800    1.0020 C   0  0  0  0  0  0  0  0  0  0  0  0
   -4.7870   -1.9210    1.1770 F   0  0  0  0  0  0  0  0  0  0  0  0
   -3.6810    0.1850    0.8640 C   0  0  0  0  0  0  0  0  0  0  0  0
   -4.9540    0.8820    0.9060 C   0  0  0  0  0  0  0  0  0  0  0  0
   -5.0370    2.0290    1.6660 C   0  0  0  0  0  0  0  0  0  0  0  0
   -6.2310    2.7240    1.7330 C   0  0  0  0  0  0  0  0  0  0  0  0
   -6.3110    3.8500    2.4790 F   0  0  0  0  0  0  0  0  0  0  0  0
   -7.3200    2.2510    1.0330 C   0  0  0  0  0  0  0  0  0  0  0  0
   -8.5810    2.6880    0.9000 N   0  0  0  0  0  0  0  0  0  0  0  0
   -9.2620    1.8580    0.0950 C   0  0  0  0  0  0  0  0  0  0  0  0
  -10.7090    2.0320   -0.2840 C   0  0  0  0  0  0  0  0  0  0  0  0
   -8.4430    0.8710   -0.3010 N   0  0  0  0  0  0  0  0  0  0  0  0
   -8.7870   -0.2270   -1.1750 C   0  0  2  0  0  0  0  0  0  0  0  0
   -8.4300   -1.5690   -0.5740 C   0  0  0  0  0  0  0  0  0  0  0  0
   -8.1200   -0.0350   -2.5220 C   0  0  0  0  0  0  0  0  0  0  0  0
   -7.2350    1.1060    0.2760 C   0  0  0  0  0  0  0  0  0  0  0  0
   -6.0560    0.4220    0.2110 C   0  0  0  0  0  0  0  0  0  0  0  0
   -2.5450    0.8710    0.6940 N   0  0  0  0  0  0  0  0  0  0  0  0
    1.2200   -0.8970    0.5460 N   0  0  0  0  0  0  0  0  0  0  0  0
    2.4120   -1.5330    0.5080 C   0  0  0  0  0  0  0  0  0  0  0  0
    7.1550   -1.4470    0.7790 C   0  0  0  0  0  0  0  0  0  0  0  0
    8.4800   -0.7850    0.6200 C   0  0  0  0  0  0  0  0  0  0  0  0
  1  2  1  0
  3  2  1  6
  3  4  1  0
  3 37  1  0
  4  5  1  0
  5  6  1  0
  6  7  1  6
  6 36  1  0
  7  8  1  0
  8  9  2  0
  8 35  1  0
  9 10  1  0
 10 11  2  0
 11 12  1  0
 11 34  1  0
 12 13  1  0
 13 14  2  0
 13 33  1  0
 14 15  1  0
 15 16  2  0
 16 17  1  0
 16 18  1  0
 18 19  1  0
 18 33  2  0
 19 20  2  0
 19 32  1  0
 20 21  1  0
 21 22  1  0
 21 23  2  0
 23 24  1  0
 23 31  1  0
 24 25  2  0
 25 26  1  0
 25 27  1  0
 27 28  1  0
 27 31  1  0
 28 29  1  1
 28 30  1  0
 31 32  2  0
 34 35  2  0
 36 37  1  0
M  CHG  2   3   1   6   1
M  END
