
     RDKit          3D

 36 39  0  0  0  0  0  0  0  0999 V2000
   -3.7010   -5.6310   -2.8540 C   0  0  0  0  0  0  0  0  0  0  0  0
   -3.6520   -5.0050   -1.5170 C   0  0  0  0  0  0  0  0  0  0  0  0
   -3.9140   -5.7910   -0.4170 C   0  0  0  0  0  0  0  0  0  0  0  0
   -3.8780   -5.2490    0.8450 C   0  0  0  0  0  0  0  0  0  0  0  0
   -3.5690   -3.8860    0.9660 C   0  0  0  0  0  0  0  0  0  0  0  0
   -3.3130   -3.1280   -0.1380 C   0  0  0  0  0  0  0  0  0  0  0  0
   -2.9750   -1.6280    0.0340 C   0  0  0  0  0  0  0  0  0  0  0  0
   -1.3250   -1.4080    0.2180 S   0  0  0  0  0  0  0  0  0  0  0  0
   -0.2820   -0.0830    0.4700 C   0  0  0  0  0  0  0  0  0  0  0  0
   -0.5320    1.2080    0.5800 C   0  0  0  0  0  0  0  0  0  0  0  0
   -1.9100    1.7070    0.4770 C   0  0  0  0  0  0  0  0  0  0  0  0
   -2.8900    0.9710    0.3140 O   0  0  0  0  0  0  0  0  0  0  0  0
   -2.2330    3.0950    0.5540 N   0  0  0  0  0  0  0  0  0  0  0  0
   -3.5560    3.5890    0.4530 C   0  0  0  0  0  0  0  0  0  0  0  0
   -4.6470    2.9680   -0.0460 C   0  0  0  0  0  0  0  0  0  0  0  0
   -5.9040    3.5770   -0.0590 C   0  0  0  0  0  0  0  0  0  0  0  0
   -6.0890    4.8390    0.4360 C   0  0  0  0  0  0  0  0  0  0  0  0
   -5.0000    5.4950    0.9490 C   0  0  0  0  0  0  0  0  0  0  0  0
   -5.2120    6.7770    1.4460 O   0  0  0  0  0  0  0  0  0  0  0  0
   -3.7750    4.8850    0.9550 C   0  0  0  0  0  0  0  0  0  0  0  0
    0.5240    2.2170    0.8680 C   0  0  0  0  0  0  0  0  0  0  0  0
    1.4090    1.5480    1.9630 C   0  0  0  0  0  0  0  0  0  0  0  0
    2.1370    0.4850    1.1100 C   0  0  0  0  0  0  0  0  0  0  0  0
    1.1900   -0.4120    0.5590 N   0  0  0  0  0  0  0  0  0  0  0  0
    1.5580   -1.6800    0.0890 C   0  0  0  0  0  0  0  0  0  0  0  0
    0.6140   -2.4360   -0.3860 O   0  0  0  0  0  0  0  0  0  0  0  0
    2.8830   -2.2830    0.0690 C   0  0  0  0  0  0  0  0  0  0  0  0
    3.9760   -1.4810    0.2150 O   0  0  0  0  0  0  0  0  0  0  0  0
    4.4350   -0.5280   -0.6780 C   0  0  0  0  0  0  0  0  0  0  0  0
    3.7920   -0.3650   -1.7440 O   0  0  0  0  0  0  0  0  0  0  0  0
    5.6370    0.2410   -0.3440 C   0  0  1  0  0  0  0  0  0  0  0  0
    6.8770   -0.6380   -0.2770 C   0  0  0  0  0  0  0  0  0  0  0  0
    7.9870    0.3760   -0.3550 C   0  0  0  0  0  0  0  0  0  0  0  0
    7.4090    1.4830   -1.1760 C   0  0  0  0  0  0  0  0  0  0  0  0
    5.9990    1.1990   -1.3610 N   0  0  0  0  0  0  0  0  0  0  0  0
   -3.3560   -3.6870   -1.3490 N   0  0  0  0  0  0  0  0  0  0  0  0
  1  2  1  0
  2  3  2  0
  2 36  1  0
  3  4  1  0
  4  5  2  0
  5  6  1  0
  6  7  1  0
  6 36  2  0
  7  8  1  0
  8  9  1  0
  9 10  2  0
  9 24  1  0
 10 11  1  0
 10 21  1  0
 11 12  2  0
 11 13  1  0
 13 14  1  0
 14 15  2  0
 14 20  1  0
 15 16  1  0
 16 17  2  0
 17 18  1  0
 18 19  1  0
 18 20  2  0
 21 22  1  0
 22 23  1  0
 23 24  1  0
 24 25  1  0
 25 26  2  0
 25 27  1  0
 27 28  1  0
 28 29  1  0
 29 30  2  0
 31 29  1  6
 31 32  1  0
 31 35  1  0
 32 33  1  0
 33 34  1  0
 34 35  1  0
M  END
