
     RDKit          3D

 36 39  0  0  0  0  0  0  0  0999 V2000
    1.1360    1.8530   -2.0800 C   0  0  0  0  0  0  0  0  0  0  0  0
   -0.1200    1.4180   -1.4070 C   0  0  0  0  0  0  0  0  0  0  0  0
    0.0180    0.1870   -0.7160 O   0  0  0  0  0  0  0  0  0  0  0  0
   -1.0360   -0.3700   -0.0490 C   0  0  0  0  0  0  0  0  0  0  0  0
   -2.1210    0.2620   -0.0810 O   0  0  0  0  0  0  0  0  0  0  0  0
   -0.9360   -1.6110    0.6570 C   0  0  0  0  0  0  0  0  0  0  0  0
    0.2080   -2.2600    0.6710 C   0  0  0  0  0  0  0  0  0  0  0  0
    1.3540   -1.8680    0.0640 N   0  0  0  0  0  0  0  0  0  0  0  0
    1.8390   -1.7290   -1.0700 C   0  0  0  0  0  0  0  0  0  0  0  0
    3.1720   -1.2630   -1.3560 C   0  0  0  0  0  0  0  0  0  0  0  0
    3.7150   -1.0880   -2.6320 C   0  0  0  0  0  0  0  0  0  0  0  0
    4.9360   -0.6530   -2.4960 N   0  0  0  0  0  0  0  0  0  0  0  0
    5.2920   -0.5090   -1.1990 N   0  0  0  0  0  0  0  0  0  0  0  0
    6.5590   -0.0070   -0.8350 C   0  0  0  0  0  0  0  0  0  0  0  0
    7.0340   -0.0660    0.3780 C   0  0  0  0  0  0  0  0  0  0  0  0
    8.3270    0.4000    0.9760 C   0  0  0  0  0  0  0  0  0  0  0  0
    9.4400   -0.1780    0.3580 O   0  0  0  0  0  0  0  0  0  0  0  0
    9.8900    0.9260   -0.8670 S   0  0  0  0  0  0  0  0  0  0  0  0
   11.1690    0.4140   -1.4970 O   0  0  0  0  0  0  0  0  0  0  0  0
    8.5770    1.0000   -2.0390 C   0  0  0  0  0  0  0  0  0  0  0  0
    7.3250    0.6210   -1.9480 C   0  0  0  0  0  0  0  0  0  0  0  0
    4.2280   -0.8760   -0.5060 C   0  0  0  0  0  0  0  0  0  0  0  0
    4.0610   -0.8660    0.9800 C   0  0  0  0  0  0  0  0  0  0  0  0
   -2.0600   -2.2510    1.4170 C   0  0  0  0  0  0  0  0  0  0  0  0
   -3.2180   -2.5670    0.6510 N   0  0  0  0  0  0  0  0  0  0  0  0
   -4.3650   -1.7420    0.6040 C   0  0  0  0  0  0  0  0  0  0  0  0
   -5.3100   -2.0470   -0.3920 C   0  0  0  0  0  0  0  0  0  0  0  0
   -6.4600   -1.2950   -0.4530 C   0  0  0  0  0  0  0  0  0  0  0  0
   -6.7070   -0.2700    0.4190 C   0  0  0  0  0  0  0  0  0  0  0  0
   -5.7730    0.0080    1.3770 C   0  0  0  0  0  0  0  0  0  0  0  0
   -4.6160   -0.7080    1.4810 C   0  0  0  0  0  0  0  0  0  0  0  0
   -6.0430    1.1370    2.3140 C   0  0  1  0  0  0  0  0  0  0  0  0
   -4.8770    1.4160    3.0230 O   0  0  0  0  0  0  0  0  0  0  0  0
   -6.4410    2.3090    1.4680 C   0  0  0  0  0  0  0  0  0  0  0  0
   -7.6590    2.0220    0.6560 C   0  0  0  0  0  0  0  0  0  0  0  0
   -7.9290    0.5750    0.4050 C   0  0  0  0  0  0  0  0  0  0  0  0
  1  2  1  0
  2  3  1  0
  3  4  1  0
  4  5  2  0
  4  6  1  0
  6  7  2  3
  6 24  1  0
  7  8  1  0
  8  9  2  3
  9 10  1  0
 10 11  1  0
 10 22  2  0
 11 12  2  0
 12 13  1  0
 13 14  1  0
 13 22  1  0
 14 15  2  0
 14 21  1  0
 15 16  1  0
 16 17  1  0
 18 17  1  1
 18 19  2  0
 18 20  1  0
 20 21  2  0
 22 23  1  0
 24 25  1  0
 25 26  1  0
 26 27  2  0
 26 31  1  0
 27 28  1  0
 28 29  2  0
 29 30  1  0
 29 36  1  0
 30 31  2  0
 30 32  1  0
 32 33  1  6
 32 34  1  0
 34 35  1  0
 35 36  1  0
M  END
