
     RDKit          3D

 36 39  0  0  0  0  0  0  0  0999 V2000
    7.9080    0.7410   -4.1140 C   0  0  0  0  0  0  0  0  0  0  0  0
    6.5510    0.7940   -3.5220 C   0  0  0  0  0  0  0  0  0  0  0  0
    5.4540    1.1480   -4.2410 C   0  0  0  0  0  0  0  0  0  0  0  0
    4.1900    1.1820   -3.6330 C   0  0  0  0  0  0  0  0  0  0  0  0
    3.9990    0.8630   -2.3010 C   0  0  0  0  0  0  0  0  0  0  0  0
    2.7530    0.9420   -1.6670 N   0  0  0  0  0  0  0  0  0  0  0  0
    1.5160    1.1040   -2.3210 C   0  0  0  0  0  0  0  0  0  0  0  0
    1.4570    1.1870   -3.5590 O   0  0  0  0  0  0  0  0  0  0  0  0
    0.2320    1.1790   -1.5300 C   0  0  0  0  0  0  0  0  0  0  0  0
   -0.9060    1.3720   -2.5030 C   0  0  0  0  0  0  0  0  0  0  0  0
   -2.1970    1.4500   -1.8670 N   0  0  0  0  0  0  0  0  0  0  0  0
   -2.7360    0.4150   -1.0940 C   0  0  0  0  0  0  0  0  0  0  0  0
   -2.0590   -0.6480   -0.9420 O   0  0  0  0  0  0  0  0  0  0  0  0
   -4.0800    0.5730   -0.4700 C   0  0  1  0  0  0  0  0  0  0  0  0
   -5.2330    0.9220   -1.8600 S   0  0  0  0  0  0  0  0  0  0  0  0
   -6.0720   -0.7120   -1.9190 C   0  0  0  0  0  0  0  0  0  0  0  0
   -5.0880   -1.5400   -1.1400 C   0  0  0  0  0  0  0  0  0  0  0  0
   -4.6160   -0.7390    0.0190 C   0  0  2  0  0  0  0  0  0  0  0  0
   -5.5660   -0.6000    1.0970 N   0  0  0  0  0  0  0  0  0  0  0  0
   -6.1580   -1.8860    1.4190 C   0  0  0  0  0  0  0  0  0  0  0  0
   -7.0130   -1.7140    2.6730 C   0  0  0  0  0  0  0  0  0  0  0  0
   -6.2550   -1.3070    3.7540 O   0  0  0  0  0  0  0  0  0  0  0  0
   -5.6780   -0.0790    3.4950 C   0  0  2  0  0  0  0  0  0  0  0  0
   -6.6760    0.9880    3.1420 C   0  0  0  0  0  0  0  0  0  0  0  0
   -4.7670   -0.2490    2.2840 C   0  0  0  0  0  0  0  0  0  0  0  0
    5.1630    0.4960   -1.5750 C   0  0  0  0  0  0  0  0  0  0  0  0
    4.9720    0.1260   -0.2240 N   0  0  0  0  0  0  0  0  0  0  0  0
    5.9670   -0.1560    0.7370 C   0  0  0  0  0  0  0  0  0  0  0  0
    7.1740   -0.0830    0.3920 O   0  0  0  0  0  0  0  0  0  0  0  0
    5.6760   -0.5350    2.1330 C   0  0  0  0  0  0  0  0  0  0  0  0
    6.6410   -0.7890    2.9820 C   0  0  0  0  0  0  0  0  0  0  0  0
    6.3930   -1.1750    4.4030 C   0  0  0  0  0  0  0  0  0  0  0  0
    5.0290   -1.2060    4.7080 O   0  0  0  0  0  0  0  0  0  0  0  0
    4.0020   -0.9480    3.8490 C   0  0  0  0  0  0  0  0  0  0  0  0
    4.3060   -0.6150    2.5760 C   0  0  0  0  0  0  0  0  0  0  0  0
    6.3740    0.4710   -2.1850 C   0  0  0  0  0  0  0  0  0  0  0  0
  1  2  1  0
  2  3  2  0
  2 36  1  0
  3  4  1  0
  4  5  2  0
  5  6  1  0
  5 26  1  0
  6  7  1  0
  7  8  2  0
  7  9  1  0
  9 10  1  0
 10 11  1  0
 11 12  1  0
 12 13  2  0
 14 12  1  6
 14 15  1  0
 14 18  1  0
 15 16  1  0
 16 17  1  0
 17 18  1  0
 18 19  1  1
 19 20  1  0
 19 25  1  0
 20 21  1  0
 21 22  1  0
 22 23  1  0
 23 24  1  6
 23 25  1  0
 26 27  1  0
 26 36  2  0
 27 28  1  0
 28 29  2  0
 28 30  1  0
 30 31  2  0
 30 35  1  0
 31 32  1  0
 32 33  1  0
 33 34  1  0
 34 35  2  0
M  END
