
     RDKit          3D

 36 39  0  0  0  0  0  0  0  0999 V2000
   -6.2640    3.7930   -1.0100 C   0  0  0  0  0  0  0  0  0  0  0  0
   -5.9490    2.4260   -1.0560 O   0  0  0  0  0  0  0  0  0  0  0  0
   -4.7120    1.9070   -1.3360 C   0  0  0  0  0  0  0  0  0  0  0  0
   -3.7380    2.6040   -1.5720 O   0  0  0  0  0  0  0  0  0  0  0  0
   -4.5360    0.3830   -1.3530 C   0  0  0  0  0  0  0  0  0  0  0  0
   -3.8270    0.0310   -0.0910 C   0  0  1  0  0  0  0  0  0  0  0  0
   -4.8460    0.5480    1.0180 C   0  0  0  0  0  0  0  0  0  0  0  0
   -3.5220   -1.3500    0.2230 C   0  0  0  0  0  0  0  0  0  0  0  0
   -2.4350   -1.7230    0.9980 C   0  0  0  0  0  0  0  0  0  0  0  0
   -1.2410   -1.0420    1.4420 C   0  0  0  0  0  0  0  0  0  0  0  0
   -0.7510   -1.4010    2.5670 O   0  0  0  0  0  0  0  0  0  0  0  0
   -0.6250   -0.0430    0.6860 N   0  0  0  0  0  0  0  0  0  0  0  0
    0.6160    0.6450    1.1410 C   0  0  2  0  0  0  0  0  0  0  0  0
    0.2040    2.0950    1.2420 C   0  0  0  0  0  0  0  0  0  0  0  0
    1.5380    0.5400   -0.0190 C   0  0  0  0  0  0  0  0  0  0  0  0
    0.9670    0.4870   -1.1430 O   0  0  0  0  0  0  0  0  0  0  0  0
    2.9250    0.5010    0.0970 N   0  0  0  0  0  0  0  0  0  0  0  0
    3.5190    0.5230    1.4440 C   0  0  0  0  0  0  0  0  0  0  0  0
    4.8190    1.2740    1.4800 C   0  0  0  0  0  0  0  0  0  0  0  0
    5.9700    0.5090    0.8740 C   0  0  0  0  0  0  0  0  0  0  0  0
    7.0790    0.8320    1.4940 C   0  0  0  0  0  0  0  0  0  0  0  0
    8.4550    0.3740    1.2860 C   0  0  0  0  0  0  0  0  0  0  0  0
    8.5380   -0.8110   -0.0580 S   0  0  0  0  0  0  0  0  0  0  0  0
    6.9190   -1.0660   -0.7150 C   0  0  0  0  0  0  0  0  0  0  0  0
    5.8740   -0.4330   -0.2260 C   0  0  0  0  0  0  0  0  0  0  0  0
    4.6110   -0.8210   -0.9720 C   0  0  0  0  0  0  0  0  0  0  0  0
    3.7740    0.4340   -1.0480 C   0  0  1  0  0  0  0  0  0  0  0  0
    3.1790    0.5720   -2.3870 C   0  0  0  0  0  0  0  0  0  0  0  0
    2.5530    1.8030   -2.6280 O   0  0  0  0  0  0  0  0  0  0  0  0
   -2.5870   -3.0710    1.2050 N   0  0  0  0  0  0  0  0  0  0  0  0
   -3.6890   -3.4960    0.5930 C   0  0  0  0  0  0  0  0  0  0  0  0
   -4.2100   -4.7830    0.5560 C   0  0  0  0  0  0  0  0  0  0  0  0
   -5.3620   -5.0360   -0.1130 C   0  0  0  0  0  0  0  0  0  0  0  0
   -5.9690   -3.9780   -0.7350 C   0  0  0  0  0  0  0  0  0  0  0  0
   -5.4300   -2.6950   -0.6880 C   0  0  0  0  0  0  0  0  0  0  0  0
   -4.2880   -2.4390   -0.0270 N   0  0  0  0  0  0  0  0  0  0  0  0
  1  2  1  0
  2  3  1  0
  3  4  2  0
  3  5  1  0
  5  6  1  0
  6  7  1  1
  6  8  1  0
  8  9  2  0
  8 36  1  0
  9 10  1  0
  9 30  1  0
 10 11  2  0
 10 12  1  0
 12 13  1  0
 13 14  1  6
 13 15  1  0
 15 16  2  0
 15 17  1  0
 17 18  1  0
 17 27  1  0
 18 19  1  0
 19 20  1  0
 20 21  2  0
 20 25  1  0
 21 22  1  0
 22 23  1  0
 23 24  1  0
 24 25  2  0
 25 26  1  0
 26 27  1  0
 27 28  1  6
 28 29  1  0
 30 31  2  0
 31 32  1  0
 31 36  1  0
 32 33  2  0
 33 34  1  0
 34 35  2  0
 35 36  1  0
M  END
