
     RDKit          3D

 36 39  0  0  0  0  0  0  0  0999 V2000
    8.9050   -2.5810   -0.1380 C   0  0  0  0  0  0  0  0  0  0  0  0
    8.0640   -2.4260    0.7270 C   0  0  0  0  0  0  0  0  0  0  0  0
    7.0240   -2.2170    1.8260 C   0  0  0  0  0  0  0  0  0  0  0  0
    5.7400   -2.4380    0.8650 C   0  0  0  0  0  0  0  0  0  0  0  0
    5.9570   -1.2940   -0.0450 N   0  0  0  0  0  0  0  0  0  0  0  0
    5.5730    0.0120    0.3050 C   0  0  0  0  0  0  0  0  0  0  0  0
    4.9230    0.1130    1.3760 O   0  0  0  0  0  0  0  0  0  0  0  0
    5.9110    1.2050   -0.4610 C   0  0  0  0  0  0  0  0  0  0  0  0
    6.7640    1.1730   -1.4670 C   0  0  0  0  0  0  0  0  0  0  0  0
    7.2140    2.2690   -2.2810 C   0  0  0  0  0  0  0  0  0  0  0  0
    6.8970    3.5450   -2.1610 C   0  0  0  0  0  0  0  0  0  0  0  0
    5.7830    3.9650   -0.7760 S   0  0  0  0  0  0  0  0  0  0  0  0
    5.0180    2.3840   -0.3820 C   0  0  0  0  0  0  0  0  0  0  0  0
    3.7450    2.2670   -0.2360 C   0  0  0  0  0  0  0  0  0  0  0  0
    2.5670    1.5730   -0.0940 C   0  0  0  0  0  0  0  0  0  0  0  0
    1.4370    2.2830    0.0790 C   0  0  0  0  0  0  0  0  0  0  0  0
    0.0980    1.8920    0.2360 C   0  0  0  0  0  0  0  0  0  0  0  0
   -0.7970    2.9210    0.5730 C   0  0  0  0  0  0  0  0  0  0  0  0
   -2.1320    2.6360    0.6200 C   0  0  0  0  0  0  0  0  0  0  0  0
   -2.6880    1.4260    0.3640 C   0  0  0  0  0  0  0  0  0  0  0  0
   -1.8100    0.3780    0.0260 C   0  0  0  0  0  0  0  0  0  0  0  0
   -0.4460    0.6160   -0.0340 C   0  0  0  0  0  0  0  0  0  0  0  0
   -2.6650   -0.7910   -0.2310 C   0  0  0  0  0  0  0  0  0  0  0  0
   -2.1880   -1.9080   -0.5610 O   0  0  0  0  0  0  0  0  0  0  0  0
   -4.0260   -0.4450   -0.0540 N   0  0  0  0  0  0  0  0  0  0  0  0
   -5.2030   -1.2650   -0.3070 C   0  0  2  0  0  0  0  0  0  0  0  0
   -5.9580   -0.6040   -1.4200 N   0  0  0  0  0  0  0  0  0  0  0  0
   -6.7660   -1.5970   -1.9690 N   0  0  0  0  0  0  0  0  0  0  0  0
   -8.1640   -1.3570   -1.5420 C   0  0  0  0  0  0  0  0  0  0  0  0
   -8.2800   -1.5580   -0.1840 O   0  0  0  0  0  0  0  0  0  0  0  0
   -7.4580   -0.6170    0.4650 C   0  0  0  0  0  0  0  0  0  0  0  0
   -6.1540   -1.3880    0.8460 C   0  0  2  0  0  0  0  0  0  0  0  0
   -5.7040   -0.9000    2.0620 O   0  0  0  0  0  0  0  0  0  0  0  0
   -5.9120   -1.8750    3.0570 C   0  0  0  0  0  0  0  0  0  0  0  0
   -4.0710    0.9210    0.3160 C   0  0  0  0  0  0  0  0  0  0  0  0
   -5.0610    1.6900    0.5830 O   0  0  0  0  0  0  0  0  0  0  0  0
  1  2  3  0
  2  3  1  0
  3  4  1  0
  4  5  1  0
  5  6  1  0
  6  7  2  0
  6  8  1  0
  8  9  2  0
  8 13  1  0
  9 10  1  0
 10 11  2  0
 11 12  1  0
 12 13  1  0
 13 14  2  3
 14 15  1  0
 15 16  2  3
 16 17  1  0
 17 18  2  0
 17 22  1  0
 18 19  1  0
 19 20  2  0
 20 21  1  0
 20 35  1  0
 21 22  2  0
 21 23  1  0
 23 24  2  0
 23 25  1  0
 26 25  1  1
 25 35  1  0
 26 27  1  0
 26 32  1  0
 27 28  1  0
 28 29  1  0
 29 30  1  0
 30 31  1  0
 31 32  1  0
 32 33  1  1
 33 34  1  0
 35 36  2  0
M  END
