
     RDKit          3D

 34 39  0  0  0  0  0  0  0  0999 V2000
   -6.4180    3.4460   -0.5420 C   0  0  0  0  0  0  0  0  0  0  0  0
   -6.1870    1.9840   -0.3390 C   0  0  0  0  0  0  0  0  0  0  0  0
   -7.2540    1.1650   -0.0530 C   0  0  0  0  0  0  0  0  0  0  0  0
   -7.0450   -0.1870    0.1350 C   0  0  0  0  0  0  0  0  0  0  0  0
   -8.1980   -1.1000    0.4490 C   0  0  0  0  0  0  0  0  0  0  0  0
   -5.7690   -0.6550    0.0270 C   0  0  0  0  0  0  0  0  0  0  0  0
   -4.6830    0.1620   -0.2610 C   0  0  0  0  0  0  0  0  0  0  0  0
   -4.8750    1.5060   -0.4510 C   0  0  0  0  0  0  0  0  0  0  0  0
   -3.3840   -0.5270   -0.3360 C   0  0  2  0  0  0  0  0  0  0  0  0
   -2.2280    0.2510   -0.5120 N   0  0  0  0  0  0  0  0  0  0  0  0
   -1.2790    0.1700    0.5870 C   0  0  1  0  0  0  0  0  0  0  0  0
   -0.9900   -1.2200    1.0240 C   0  0  0  0  0  0  0  0  0  0  0  0
    0.4170   -1.1800    1.5770 C   0  0  0  0  0  0  0  0  0  0  0  0
    1.0490   -0.0870    0.8980 N   0  0  0  0  0  0  0  0  0  0  0  0
    2.4430    0.1820    0.9000 C   0  0  0  0  0  0  0  0  0  0  0  0
    2.9250    1.1650    0.2780 O   0  0  0  0  0  0  0  0  0  0  0  0
    3.3750   -0.6910    1.6360 C   0  0  0  0  0  0  0  0  0  0  0  0
    4.8050   -0.2240    1.5280 C   0  0  0  0  0  0  0  0  0  0  0  0
    5.2650   -0.1920    0.1240 C   0  0  0  0  0  0  0  0  0  0  0  0
    4.6050   -0.5030   -0.9850 N   0  0  0  0  0  0  0  0  0  0  0  0
    5.3840   -0.3380   -2.0430 N   0  0  0  0  0  0  0  0  0  0  0  0
    6.5860    0.0950   -1.5930 C   0  0  0  0  0  0  0  0  0  0  0  0
    7.8270    0.4700   -1.9610 N   0  0  0  0  0  0  0  0  0  0  0  0
    8.5310    0.7950   -0.8670 C   0  0  0  0  0  0  0  0  0  0  0  0
    9.8330    1.2350   -0.6960 C   0  0  0  0  0  0  0  0  0  0  0  0
   10.2790    1.4890    0.5720 C   0  0  0  0  0  0  0  0  0  0  0  0
    9.4420    1.3070    1.6430 C   0  0  0  0  0  0  0  0  0  0  0  0
    8.1450    0.8690    1.4860 C   0  0  0  0  0  0  0  0  0  0  0  0
    7.6910    0.6110    0.2080 C   0  0  0  0  0  0  0  0  0  0  0  0
    6.5050    0.1840   -0.2460 N   0  0  0  0  0  0  0  0  0  0  0  0
    0.0680    0.7110    0.2090 C   0  0  0  0  0  0  0  0  0  0  0  0
   -3.5580   -1.6200   -1.3810 C   0  0  0  0  0  0  0  0  0  0  0  0
   -4.5990   -2.5920   -0.9130 C   0  0  0  0  0  0  0  0  0  0  0  0
   -5.4540   -2.1010    0.2140 C   0  0  0  0  0  0  0  0  0  0  0  0
  1  2  1  0
  2  3  2  0
  2  8  1  0
  3  4  1  0
  4  5  1  0
  4  6  2  0
  6  7  1  0
  6 34  1  0
  7  8  2  0
  7  9  1  0
  9 10  1  6
  9 32  1  0
 11 10  1  6
 11 12  1  0
 11 31  1  0
 12 13  1  0
 13 14  1  0
 14 15  1  0
 14 31  1  0
 15 16  2  0
 15 17  1  0
 17 18  1  0
 18 19  1  0
 19 20  2  0
 19 30  1  0
 20 21  1  0
 21 22  1  0
 22 23  2  0
 22 30  1  0
 23 24  1  0
 24 25  2  0
 24 29  1  0
 25 26  1  0
 26 27  2  0
 27 28  1  0
 28 29  2  0
 29 30  1  0
 32 33  1  0
 33 34  1  0
M  CHG  1  10   1
M  END
