
     RDKit          3D

 46 52  0  0  0  0  0  0  0  0999 V2000
   -0.6520    2.8520    2.1180 C   0  0  0  0  0  0  0  0  0  0  0  0
    0.0480    2.9620    0.7480 C   0  0  0  0  0  0  0  0  0  0  0  0
    0.7270    1.6990    0.5330 C   0  0  0  0  0  0  0  0  0  0  0  0
    1.4930    1.3540   -0.5500 C   0  0  0  0  0  0  0  0  0  0  0  0
    1.5670    2.3760   -1.4790 C   0  0  0  0  0  0  0  0  0  0  0  0
    0.9120    3.6270   -1.3010 C   0  0  0  0  0  0  0  0  0  0  0  0
    0.1430    3.9550   -0.2010 C   0  0  0  0  0  0  0  0  0  0  0  0
   -0.5150    5.3110   -0.2540 C   0  0  1  0  0  0  0  0  0  0  0  0
    0.3810    6.5090   -0.3700 C   0  0  0  0  0  0  0  0  0  0  0  0
   -1.6550    5.2730   -1.2820 C   0  0  0  0  0  0  0  0  0  0  0  0
   -2.9010    5.0360   -0.7230 O   0  0  0  0  0  0  0  0  0  0  0  0
   -4.0230    4.4200   -1.1610 C   0  0  0  0  0  0  0  0  0  0  0  0
   -4.9520    5.2840   -1.5430 O   0  0  0  0  0  0  0  0  0  0  0  0
   -4.3240    3.0290   -1.2590 N   0  0  0  0  0  0  0  0  0  0  0  0
   -3.7660    1.8150   -0.7680 C   0  0  0  0  0  0  0  0  0  0  0  0
   -4.7560    1.0260   -0.1010 C   0  0  0  0  0  0  0  0  0  0  0  0
   -4.5710   -0.1720    0.4610 C   0  0  0  0  0  0  0  0  0  0  0  0
   -3.2790   -0.7190    0.3930 C   0  0  0  0  0  0  0  0  0  0  0  0
   -3.1200   -1.9570    1.2040 C   0  0  1  0  0  0  0  0  0  0  0  0
   -4.4920   -2.5220    1.6940 C   0  0  0  0  0  0  0  0  0  0  0  0
   -5.1500   -2.0980    2.7680 N   0  0  0  0  0  0  0  0  0  0  0  0
   -6.2860   -2.8190    2.8640 N   0  0  0  0  0  0  0  0  0  0  0  0
   -6.2990   -3.6790    1.8340 N   0  0  0  0  0  0  0  0  0  0  0  0
   -5.1990   -3.4870    1.1290 N   0  0  0  0  0  0  0  0  0  0  0  0
   -1.9870   -2.6900    1.7150 C   0  0  0  0  0  0  0  0  0  0  0  0
   -2.3690   -1.5320    2.5160 C   0  0  0  0  0  0  0  0  0  0  0  0
   -2.2450   -0.0020   -0.2590 C   0  0  0  0  0  0  0  0  0  0  0  0
   -2.5050    1.2470   -0.8180 C   0  0  0  0  0  0  0  0  0  0  0  0
   -1.0230   -0.8380   -0.3210 C   0  0  0  0  0  0  0  0  0  0  0  0
   -0.1940   -0.8280   -1.5080 N   0  0  0  0  0  0  0  0  0  0  0  0
   -0.9610   -0.7760   -2.7750 C   0  0  0  0  0  0  0  0  0  0  0  0
    1.2040   -0.8880   -1.5130 C   0  0  0  0  0  0  0  0  0  0  0  0
    1.7890   -1.7950   -2.2270 O   0  0  0  0  0  0  0  0  0  0  0  0
    2.1570    0.0030   -0.7670 C   0  0  2  0  0  0  0  0  0  0  0  0
    2.7350   -0.6380    0.3860 N   0  0  0  0  0  0  0  0  0  0  0  0
    3.5780   -1.7470    0.3480 C   0  0  0  0  0  0  0  0  0  0  0  0
    3.6660   -2.5340    1.4880 C   0  0  0  0  0  0  0  0  0  0  0  0
    4.4750   -3.6400    1.5910 C   0  0  0  0  0  0  0  0  0  0  0  0
    5.2430   -3.9880    0.5040 C   0  0  0  0  0  0  0  0  0  0  0  0
    6.0670   -5.0950    0.5760 C   0  0  0  0  0  0  0  0  0  0  0  0
    6.1000   -5.8440    1.7690 N   0  0  0  0  0  0  0  0  0  0  0  0
    6.8000   -5.3970   -0.5090 N   0  0  0  0  0  0  0  0  0  0  0  0
    6.7600   -4.6770   -1.6400 C   0  0  0  0  0  0  0  0  0  0  0  0
    5.9500   -3.5790   -1.7270 C   0  0  0  0  0  0  0  0  0  0  0  0
    5.1760   -3.2220   -0.6440 C   0  0  0  0  0  0  0  0  0  0  0  0
    4.3540   -2.1170   -0.7170 C   0  0  0  0  0  0  0  0  0  0  0  0
  1  2  1  0
  2  3  2  0
  2  7  1  0
  3  4  1  0
  4  5  2  0
  4 34  1  0
  5  6  1  0
  6  7  2  0
  7  8  1  0
  8  9  1  6
  8 10  1  0
 10 11  1  0
 11 12  1  0
 12 13  2  0
 12 14  1  0
 14 15  1  0
 15 16  2  0
 15 28  1  0
 16 17  1  0
 17 18  2  0
 19 18  1  1
 18 27  1  0
 19 20  1  0
 19 25  1  0
 19 26  1  0
 20 21  2  0
 20 24  1  0
 21 22  1  0
 22 23  2  0
 23 24  1  0
 25 26  1  0
 27 28  2  0
 27 29  1  0
 29 30  1  0
 30 31  1  0
 30 32  1  0
 32 33  2  0
 32 34  1  0
 34 35  1  1
 35 36  1  0
 36 37  2  0
 36 46  1  0
 37 38  1  0
 38 39  2  0
 39 40  1  0
 39 45  1  0
 40 41  1  0
 40 42  2  0
 42 43  1  0
 43 44  2  0
 44 45  1  0
 45 46  2  0
M  END
