
     RDKit          3D

 34 38  0  0  0  0  0  0  0  0999 V2000
    2.0370    1.6790   -3.2540 C   0  0  0  0  0  0  0  0  0  0  0  0
    1.3050    1.2500   -2.0080 C   0  0  0  0  0  0  0  0  0  0  0  0
    1.9570    0.4700   -1.1660 C   0  0  0  0  0  0  0  0  0  0  0  0
    3.2680    0.0740   -1.4400 C   0  0  0  0  0  0  0  0  0  0  0  0
    3.9640   -0.7340   -0.5950 C   0  0  0  0  0  0  0  0  0  0  0  0
    5.3280   -1.1600   -0.8340 C   0  0  0  0  0  0  0  0  0  0  0  0
    5.6230   -2.4930   -0.8890 N   0  0  0  0  0  0  0  0  0  0  0  0
    6.8350   -2.9470   -1.0960 N   0  0  0  0  0  0  0  0  0  0  0  0
    7.8580   -2.1040   -1.2650 C   0  0  0  0  0  0  0  0  0  0  0  0
    9.0360   -2.5490   -1.4670 O   0  0  0  0  0  0  0  0  0  0  0  0
    7.6520   -0.7420   -1.2220 C   0  0  0  0  0  0  0  0  0  0  0  0
    8.4940    0.3150   -1.3370 N   0  0  0  0  0  0  0  0  0  0  0  0
    7.7710    1.4010   -1.1930 N   0  0  0  0  0  0  0  0  0  0  0  0
    6.4620    1.0910   -0.9840 C   0  0  0  0  0  0  0  0  0  0  0  0
    5.4110    2.0990   -0.7460 C   0  0  0  0  0  0  0  0  0  0  0  0
    6.3620   -0.2730   -1.0010 C   0  0  0  0  0  0  0  0  0  0  0  0
    3.3550   -1.1720    0.5610 C   0  0  0  0  0  0  0  0  0  0  0  0
    2.0610   -0.8000    0.8640 C   0  0  0  0  0  0  0  0  0  0  0  0
    1.3790    0.0270   -0.0210 C   0  0  0  0  0  0  0  0  0  0  0  0
    0.1320    0.3510    0.3290 C   0  0  0  0  0  0  0  0  0  0  0  0
   -0.4490   -0.1700    1.6040 C   0  0  0  0  0  0  0  0  0  0  0  0
   -1.8360    0.3580    1.7190 C   0  0  0  0  0  0  0  0  0  0  0  0
   -2.8260   -0.3940    1.1480 C   0  0  0  0  0  0  0  0  0  0  0  0
   -4.1270    0.0780    1.2450 C   0  0  0  0  0  0  0  0  0  0  0  0
   -4.3400    1.2780    1.9120 C   0  0  0  0  0  0  0  0  0  0  0  0
   -3.3620    2.0040    2.4660 C   0  0  0  0  0  0  0  0  0  0  0  0
   -2.0950    1.5220    2.3590 N   0  0  0  0  0  0  0  0  0  0  0  0
   -5.6800    2.0040    2.1460 C   0  0  0  0  0  0  0  0  0  0  0  0
   -6.6440    1.0580    1.7060 C   0  0  0  0  0  0  0  0  0  0  0  0
   -7.4310    0.0350    1.2010 C   0  0  0  0  0  0  0  0  0  0  0  0
   -6.4650   -1.1290    0.8500 C   0  0  0  0  0  0  0  0  0  0  0  0
   -5.1090   -0.7640    0.6310 N   0  0  0  0  0  0  0  0  0  0  0  0
   -4.5190   -1.4400   -0.5450 C   0  0  0  0  0  0  0  0  0  0  0  0
   -4.3500   -2.8990   -0.3390 C   0  0  0  0  0  0  0  0  0  0  0  0
  1  2  1  0
  2  3  2  3
  3  4  1  0
  3 19  1  0
  4  5  2  0
  5  6  1  0
  5 17  1  0
  6  7  2  0
  6 16  1  0
  7  8  1  0
  8  9  1  0
  9 10  2  0
  9 11  1  0
 11 12  2  0
 11 16  1  0
 12 13  1  0
 13 14  1  0
 14 15  1  0
 14 16  2  0
 17 18  2  0
 18 19  1  0
 19 20  2  3
 20 21  1  0
 21 22  1  0
 22 23  2  0
 22 27  1  0
 23 24  1  0
 24 25  2  0
 24 32  1  0
 25 26  1  0
 25 28  1  0
 26 27  2  0
 28 29  1  0
 29 30  1  0
 30 31  1  0
 31 32  1  0
 32 33  1  0
 33 34  1  0
M  CHG  1  27   1
M  END
