
     RDKit          3D

 34 36  0  0  0  0  0  0  0  0999 V2000
   -6.3600    3.1720   -0.6890 C   0  0  0  0  0  0  0  0  0  0  0  0
   -6.5990    1.8520   -0.0230 C   0  0  0  0  0  0  0  0  0  0  0  0
   -5.4110    1.0190   -0.0040 N   0  0  0  0  0  0  0  0  0  0  0  0
   -5.6230   -0.1980    0.6080 N   0  0  0  0  0  0  0  0  0  0  0  0
   -5.4180   -1.2820   -0.3510 C   0  0  2  0  0  0  0  0  0  0  0  0
   -5.6690   -2.5690    0.3910 C   0  0  0  0  0  0  0  0  0  0  0  0
   -4.1260   -1.2010   -0.9430 N   0  0  0  0  0  0  0  0  0  0  0  0
   -4.0130   -1.0320   -2.3630 C   0  0  0  0  0  0  0  0  0  0  0  0
   -2.7260   -0.4060   -2.7500 C   0  0  0  0  0  0  0  0  0  0  0  0
   -2.7060    0.2300   -3.8370 O   0  0  0  0  0  0  0  0  0  0  0  0
   -1.5550   -0.4840   -1.9890 N   0  0  0  0  0  0  0  0  0  0  0  0
   -1.6180   -0.9380   -0.6290 C   0  0  0  0  0  0  0  0  0  0  0  0
   -0.4880   -0.9870    0.0230 C   0  0  0  0  0  0  0  0  0  0  0  0
   -0.3370   -1.4080    1.3790 C   0  0  0  0  0  0  0  0  0  0  0  0
    0.7250   -1.4800    2.0680 C   0  0  0  0  0  0  0  0  0  0  0  0
    2.0990   -1.2140    1.8630 C   0  0  0  0  0  0  0  0  0  0  0  0
    2.9110   -1.4350    2.8990 O   0  0  0  0  0  0  0  0  0  0  0  0
    2.8230   -0.7490    0.7600 N   0  0  0  0  0  0  0  0  0  0  0  0
    4.2660   -0.5640    0.8300 C   0  0  2  0  0  0  0  0  0  0  0  0
    4.6480    0.8500    0.6270 C   0  0  0  0  0  0  0  0  0  0  0  0
    3.9990    2.0290    0.7830 N   0  0  0  0  0  0  0  0  0  0  0  0
    4.8390    3.0250    0.4890 C   0  0  0  0  0  0  0  0  0  0  0  0
    4.5070    4.4850    0.5380 C   0  0  0  0  0  0  0  0  0  0  0  0
    6.0700    2.5270    0.1300 C   0  0  0  0  0  0  0  0  0  0  0  0
    7.5170    3.3810   -0.3440 Cl  0  0  0  0  0  0  0  0  0  0  0  0
    5.9230    1.1400    0.2250 C   0  0  0  0  0  0  0  0  0  0  0  0
    6.8460    0.0370   -0.0530 C   0  0  0  0  0  0  0  0  0  0  0  0
    8.0400    0.3060   -0.4230 O   0  0  0  0  0  0  0  0  0  0  0  0
    6.3880   -1.2780    0.1000 O   0  0  0  0  0  0  0  0  0  0  0  0
    4.9850   -1.4160   -0.1800 C   0  0  2  0  0  0  0  0  0  0  0  0
    4.7580   -0.9960   -1.6010 C   0  0  0  0  0  0  0  0  0  0  0  0
    4.5630   -2.8670   -0.0540 C   0  0  0  0  0  0  0  0  0  0  0  0
   -2.9220   -1.2880   -0.1410 C   0  0  0  0  0  0  0  0  0  0  0  0
   -3.0870   -1.6900    1.0170 O   0  0  0  0  0  0  0  0  0  0  0  0
  1  2  1  0
  2  3  1  0
  3  4  1  0
  4  5  1  0
  5  6  1  1
  5  7  1  0
  7  8  1  0
  7 33  1  0
  8  9  1  0
  9 10  2  0
  9 11  1  0
 11 12  1  0
 12 13  2  3
 12 33  1  0
 13 14  1  0
 14 15  2  3
 15 16  1  0
 16 17  2  0
 16 18  1  0
 19 18  1  6
 19 20  1  0
 19 30  1  0
 20 21  1  0
 20 26  2  0
 21 22  1  0
 22 23  1  0
 22 24  2  0
 24 25  1  0
 24 26  1  0
 26 27  1  0
 27 28  2  0
 27 29  1  0
 29 30  1  0
 30 31  1  6
 30 32  1  0
 33 34  2  0
M  END
