
     RDKit          3D

 34 38  0  0  0  0  0  0  0  0999 V2000
   -1.4310    4.1630   -0.8790 C   0  0  0  0  0  0  0  0  0  0  0  0
   -0.0390    4.2310   -0.2630 C   0  0  0  0  0  0  0  0  0  0  0  0
    0.3550    2.8450    0.2830 C   0  0  0  0  0  0  0  0  0  0  0  0
    0.3780    1.8930   -0.7540 N   0  0  0  0  0  0  0  0  0  0  0  0
    0.4380    0.4780   -0.6740 C   0  0  0  0  0  0  0  0  0  0  0  0
   -0.5130   -0.1640   -0.2160 N   0  0  0  0  0  0  0  0  0  0  0  0
   -1.7710   -0.0780    0.3250 C   0  0  0  0  0  0  0  0  0  0  0  0
   -2.1400    0.5820    1.4690 C   0  0  0  0  0  0  0  0  0  0  0  0
   -3.4320    0.6830    1.9140 C   0  0  0  0  0  0  0  0  0  0  0  0
   -4.4320    0.1040    1.2050 C   0  0  0  0  0  0  0  0  0  0  0  0
   -5.7640    0.1550    1.5640 C   0  0  0  0  0  0  0  0  0  0  0  0
   -6.0610    0.7780    2.6330 O   0  0  0  0  0  0  0  0  0  0  0  0
   -6.7320   -0.4160    0.8420 N   0  0  0  0  0  0  0  0  0  0  0  0
   -6.4110   -1.0690   -0.2810 C   0  0  0  0  0  0  0  0  0  0  0  0
   -5.1390   -1.1600   -0.6890 N   0  0  0  0  0  0  0  0  0  0  0  0
   -4.1370   -0.5810    0.0390 C   0  0  0  0  0  0  0  0  0  0  0  0
   -2.8510   -0.6730   -0.3910 C   0  0  0  0  0  0  0  0  0  0  0  0
   -7.5260   -1.6830   -1.0920 C   0  0  0  0  0  0  0  0  0  0  0  0
   -8.6380   -2.2270   -0.2570 C   0  0  0  0  0  0  0  0  0  0  0  0
   -8.5960   -1.8190    1.1930 C   0  0  0  0  0  0  0  0  0  0  0  0
   -8.1140   -0.3580    1.2350 C   0  0  0  0  0  0  0  0  0  0  0  0
    1.6160   -0.2220   -1.1790 N   0  0  0  0  0  0  0  0  0  0  0  0
    2.0090   -1.4150   -0.4870 C   0  0  0  0  0  0  0  0  0  0  0  0
    3.3920   -1.1270    0.0970 C   0  0  0  0  0  0  0  0  0  0  0  0
    3.9350    0.2060   -0.4250 C   0  0  1  0  0  0  0  0  0  0  0  0
    5.2100    0.4340    0.1730 N   0  0  0  0  0  0  0  0  0  0  0  0
    6.3520    0.3010   -0.6410 C   0  0  0  0  0  0  0  0  0  0  0  0
    7.2210   -0.8780   -0.2780 C   0  0  0  0  0  0  0  0  0  0  0  0
    7.0690   -1.7830    0.6510 C   0  0  0  0  0  0  0  0  0  0  0  0
    8.1900   -2.7310    0.6100 C   0  0  0  0  0  0  0  0  0  0  0  0
    9.0410   -2.2590   -0.4830 C   0  0  0  0  0  0  0  0  0  0  0  0
    8.4690   -1.1920   -0.9840 C   0  0  0  0  0  0  0  0  0  0  0  0
    3.8820    0.2900   -1.9200 C   0  0  0  0  0  0  0  0  0  0  0  0
    2.3910    0.2050   -2.3000 C   0  0  0  0  0  0  0  0  0  0  0  0
  1  2  1  0
  2  3  1  0
  3  4  1  0
  4  5  1  0
  5  6  2  3
  5 22  1  0
  6  7  1  0
  7  8  2  0
  7 17  1  0
  8  9  1  0
  9 10  2  0
 10 11  1  0
 10 16  1  0
 11 12  2  0
 11 13  1  0
 13 14  1  0
 13 21  1  0
 14 15  2  0
 14 18  1  0
 15 16  1  0
 16 17  2  0
 18 19  1  0
 19 20  1  0
 20 21  1  0
 22 23  1  0
 22 34  1  0
 23 24  1  0
 24 25  1  0
 25 26  1  6
 25 33  1  0
 26 27  1  0
 27 28  1  0
 28 29  2  0
 28 32  1  0
 29 30  1  0
 30 31  1  0
 31 32  2  0
 33 34  1  0
M  CHG  1  26   1
M  END
