
     RDKit          3D

 18 19  0  0  0  0  0  0  0  0999 V2000
   -2.1580    2.3790    0.5660 C   0  0  0  0  0  0  0  0  0  0  0  0
   -2.4620    0.9430    0.6210 C   0  0  0  0  0  0  0  0  0  0  0  0
   -1.7640   -0.1040    0.3500 C   0  0  0  0  0  0  0  0  0  0  0  0
   -2.4950   -1.3960    0.5450 C   0  0  0  0  0  0  0  0  0  0  0  0
   -3.8730   -1.3940    0.9750 N   0  0  0  0  0  0  0  0  0  0  0  0
   -1.9930   -2.5040    0.3630 O   0  0  0  0  0  0  0  0  0  0  0  0
   -0.3560   -0.2400    0.0100 C   0  0  0  0  0  0  0  0  0  0  0  0
    0.0670   -1.3020   -0.7470 N   0  0  0  0  0  0  0  0  0  0  0  0
    1.3400   -1.5700   -1.0350 C   0  0  0  0  0  0  0  0  0  0  0  0
    1.6920   -2.5610   -1.7370 O   0  0  0  0  0  0  0  0  0  0  0  0
    2.3480   -0.7570   -0.5690 C   0  0  0  0  0  0  0  0  0  0  0  0
    1.9830    0.3120    0.1870 C   0  0  0  0  0  0  0  0  0  0  0  0
    0.6390    0.5810    0.4840 C   0  0  0  0  0  0  0  0  0  0  0  0
    0.3800    1.6940    1.2730 O   0  0  0  0  0  0  0  0  0  0  0  0
    3.1290    1.0330    0.5790 O   0  0  0  0  0  0  0  0  0  0  0  0
    4.2470    0.4200    0.0670 C   0  0  0  0  0  0  0  0  0  0  0  0
    5.4280    0.8130    0.2310 O   0  0  0  0  0  0  0  0  0  0  0  0
    3.8200   -0.7570   -0.6940 C   0  0  0  0  0  0  0  0  0  0  0  0
  1  2  1  0
  2  3  2  3
  3  4  1  0
  3  7  1  0
  4  5  1  0
  4  6  2  0
  7  8  1  0
  7 13  2  0
  8  9  1  0
  9 10  2  0
  9 11  1  0
 11 12  2  0
 11 18  1  0
 12 13  1  0
 12 15  1  0
 13 14  1  0
 15 16  1  0
 16 17  2  0
 16 18  1  0
M  END
