
     RDKit          3D

 14 15  0  0  0  0  0  0  0  0999 V2000
    3.2550    0.6910    1.2470 C   0  0  0  0  0  0  0  0  0  0  0  0
    2.2850   -0.8000    1.0580 S   0  0  1  0  0  0  0  0  0  0  0  0
    3.1980   -1.9960    0.8820 O   0  0  0  0  0  0  0  0  0  0  0  0
    1.4900   -0.9990    2.3070 O   0  0  0  0  0  0  0  0  0  0  0  0
    1.2780   -0.5730   -0.3070 N   0  0  0  0  0  0  0  0  0  0  0  0
   -0.1130   -0.4970   -0.1660 C   0  0  0  0  0  0  0  0  0  0  0  0
   -0.7900   -1.2760    0.7300 C   0  0  0  0  0  0  0  0  0  0  0  0
   -2.1720   -1.1830    0.8270 C   0  0  0  0  0  0  0  0  0  0  0  0
   -2.8820   -0.3140    0.0320 C   0  0  0  0  0  0  0  0  0  0  0  0
   -2.2160    0.4790   -0.8780 C   0  0  0  0  0  0  0  0  0  0  0  0
   -2.5930    1.4040   -1.7780 N   0  0  0  0  0  0  0  0  0  0  0  0
   -1.5380    1.8720   -2.4070 N   0  0  0  0  0  0  0  0  0  0  0  0
   -0.4430    1.2600   -1.9300 C   0  0  0  0  0  0  0  0  0  0  0  0
   -0.8460    0.3840   -0.9710 C   0  0  0  0  0  0  0  0  0  0  0  0
  2  1  1  1
  2  3  2  0
  2  4  2  0
  2  5  1  0
  5  6  1  0
  6  7  2  0
  6 14  1  0
  7  8  1  0
  8  9  2  0
  9 10  1  0
 10 11  1  0
 10 14  2  0
 11 12  1  0
 12 13  2  0
 13 14  1  0
M  END
