
     RDKit          3D

 18 18  0  0  0  0  0  0  0  0999 V2000
   -3.0000    1.7040    3.9700 C   0  0  0  0  0  0  0  0  0  0  0  0
   -2.2200    0.8250    3.3350 C   0  0  0  0  0  0  0  0  0  0  0  0
   -1.5050    1.0590    2.1400 C   0  0  0  0  0  0  0  0  0  0  0  0
   -0.7870    0.0980    1.5140 C   0  0  0  0  0  0  0  0  0  0  0  0
   -0.1840    0.6290    0.3150 C   0  0  0  0  0  0  0  0  0  0  0  0
   -0.2450    1.7210   -0.1150 O   0  0  0  0  0  0  0  0  0  0  0  0
    0.7220   -0.5100   -0.5520 N   0  0  0  0  0  0  0  0  0  0  0  0
    1.1340    0.4750   -1.6560 C   0  0  0  0  0  0  0  0  0  0  0  0
    1.2120    1.6640   -1.4990 O   0  0  0  0  0  0  0  0  0  0  0  0
    1.3780   -0.4380   -2.6810 N   0  0  0  0  0  0  0  0  0  0  0  0
    2.6710    0.5250   -3.4240 C   0  0  0  0  0  0  0  0  0  0  0  0
    3.0970    1.3540   -2.6980 O   0  0  0  0  0  0  0  0  0  0  0  0
    2.9230    0.1220   -4.7300 C   0  0  0  0  0  0  0  0  0  0  0  0
    1.8830   -0.5700   -5.3840 O   0  0  0  0  0  0  0  0  0  0  0  0
   -0.6910   -1.2360    2.0590 C   0  0  0  0  0  0  0  0  0  0  0  0
    0.0200   -2.2340    1.4510 O   0  0  0  0  0  0  0  0  0  0  0  0
   -1.3160   -1.4700    3.1820 C   0  0  0  0  0  0  0  0  0  0  0  0
   -2.1060   -0.5600    3.9700 C   0  0  0  0  0  0  0  0  0  0  0  0
  1  2  2  0
  2  3  1  0
  2 18  1  0
  3  4  2  0
  4  5  1  0
  4 15  1  0
  5  6  2  0
  5  7  1  0
  7  8  1  0
  8  9  2  0
  8 10  1  0
 10 11  1  0
 11 12  2  0
 11 13  1  0
 13 14  1  0
 15 16  1  0
 15 17  2  0
 17 18  1  0
M  END
