
     RDKit          3D

 18 18  0  0  0  0  0  0  0  0999 V2000
   -2.4550   -1.2140   -1.4860 C   0  0  0  0  0  0  0  0  0  0  0  0
   -3.2470   -0.1040   -0.8920 C   0  0  0  0  0  0  0  0  0  0  0  0
   -4.5580   -0.2410   -0.7100 C   0  0  0  0  0  0  0  0  0  0  0  0
   -5.2600    0.7960   -0.1620 O   0  0  0  0  0  0  0  0  0  0  0  0
   -4.7000    2.0150    0.2290 C   0  0  0  0  0  0  0  0  0  0  0  0
   -3.2400    2.1020   -0.0000 C   0  0  0  0  0  0  0  0  0  0  0  0
   -2.5380    1.1140   -0.5270 C   0  0  0  0  0  0  0  0  0  0  0  0
   -1.1370    1.2570   -0.7240 N   0  0  0  0  0  0  0  0  0  0  0  0
   -0.1720    0.4210   -0.1240 C   0  0  0  0  0  0  0  0  0  0  0  0
   -0.5650   -0.5020    0.6250 O   0  0  0  0  0  0  0  0  0  0  0  0
    1.2830    0.6150   -0.3640 C   0  0  0  0  0  0  0  0  0  0  0  0
    2.0460   -0.3560    0.3530 O   0  0  0  0  0  0  0  0  0  0  0  0
    3.4290   -0.3520    0.2670 C   0  0  0  0  0  0  0  0  0  0  0  0
    3.9530    0.5240   -0.4530 O   0  0  0  0  0  0  0  0  0  0  0  0
    4.2450   -1.3440    0.9970 C   0  0  0  0  0  0  0  0  0  0  0  0
    3.6380   -2.3360    1.8130 N   0  0  0  0  0  0  0  0  0  0  0  0
    5.5470   -1.3270    0.9050 C   0  0  0  0  0  0  0  0  0  0  0  0
    6.1570   -0.3580    0.1070 O   0  0  0  0  0  0  0  0  0  0  0  0
  1  2  1  0
  2  3  2  0
  2  7  1  0
  3  4  1  0
  4  5  1  0
  5  6  1  0
  6  7  2  0
  7  8  1  0
  8  9  1  0
  9 10  2  0
  9 11  1  0
 11 12  1  0
 12 13  1  0
 13 14  2  0
 13 15  1  0
 15 16  1  0
 15 17  2  3
 17 18  1  0
M  END
