
     RDKit          3D

 18 19  0  0  0  0  0  0  0  0999 V2000
   -4.4940   -0.0700    0.2320 C   0  0  0  0  0  0  0  0  0  0  0  0
   -3.7610    0.3730   -0.8710 O   0  0  0  0  0  0  0  0  0  0  0  0
   -2.3750    0.2390   -0.8770 C   0  0  0  0  0  0  0  0  0  0  0  0
   -1.7290   -0.3310    0.2030 C   0  0  0  0  0  0  0  0  0  0  0  0
   -0.3830   -0.4660    0.2070 C   0  0  0  0  0  0  0  0  0  0  0  0
    0.3420   -0.0260   -0.8870 C   0  0  0  0  0  0  0  0  0  0  0  0
   -0.2710    0.5500   -1.9880 C   0  0  0  0  0  0  0  0  0  0  0  0
   -1.6490    0.6790   -1.9720 C   0  0  0  0  0  0  0  0  0  0  0  0
   -2.3420    1.2420   -3.0290 O   0  0  0  0  0  0  0  0  0  0  0  0
    1.7160   -0.0850   -1.0520 O   0  0  0  0  0  0  0  0  0  0  0  0
    2.7370   -0.1140   -0.0770 C   0  0  0  0  0  0  0  0  0  0  0  0
    3.9920    0.5010   -0.4540 C   0  0  0  0  0  0  0  0  0  0  0  0
    5.0210    0.5870    0.2540 N   0  0  0  0  0  0  0  0  0  0  0  0
    4.0700    1.0610   -1.7480 O   0  0  0  0  0  0  0  0  0  0  0  0
    2.6310   -0.6520    1.1340 C   0  0  0  0  0  0  0  0  0  0  0  0
    1.4960   -1.3140    1.7270 N   0  0  0  0  0  0  0  0  0  0  0  0
    0.1230   -1.0960    1.4440 C   0  0  0  0  0  0  0  0  0  0  0  0
   -0.7130   -1.4560    2.2830 O   0  0  0  0  0  0  0  0  0  0  0  0
  1  2  1  0
  2  3  1  0
  3  4  2  0
  3  8  1  0
  4  5  1  0
  5  6  2  0
  5 17  1  0
  6  7  1  0
  6 10  1  0
  7  8  2  0
  8  9  1  0
 10 11  1  0
 11 12  1  0
 11 15  2  0
 12 13  2  0
 12 14  1  0
 15 16  1  0
 16 17  1  0
 17 18  2  0
M  END
