
     RDKit          3D

 17 18  0  0  0  0  0  0  0  0999 V2000
    2.4530    1.0530   -1.1360 O   0  0  0  0  0  0  0  0  0  0  0  0
    1.9100    0.1380   -0.4830 C   0  0  0  0  0  0  0  0  0  0  0  0
    2.6750   -0.8230    0.0880 O   0  0  0  0  0  0  0  0  0  0  0  0
    4.0530   -0.9710    0.0730 C   0  0  0  0  0  0  0  0  0  0  0  0
    4.8480    0.1390    0.6910 C   0  0  0  0  0  0  0  0  0  0  0  0
    4.6900    1.3760    0.1270 O   0  0  0  0  0  0  0  0  0  0  0  0
    0.4360    0.1760   -0.3840 C   0  0  0  0  0  0  0  0  0  0  0  0
   -0.4270    1.0780   -0.9080 C   0  0  0  0  0  0  0  0  0  0  0  0
   -1.7010    0.6730   -0.5320 C   0  0  0  0  0  0  0  0  0  0  0  0
   -2.9360    1.2370   -0.8010 C   0  0  0  0  0  0  0  0  0  0  0  0
   -4.0520    0.6010   -0.2850 C   0  0  0  0  0  0  0  0  0  0  0  0
   -5.2910    1.1270   -0.5280 O   0  0  0  0  0  0  0  0  0  0  0  0
   -3.9100   -0.5420    0.4600 C   0  0  0  0  0  0  0  0  0  0  0  0
   -4.9920   -1.2460    1.0180 O   0  0  0  0  0  0  0  0  0  0  0  0
   -2.6780   -1.1140    0.7350 C   0  0  0  0  0  0  0  0  0  0  0  0
   -1.5540   -0.4670    0.2110 C   0  0  0  0  0  0  0  0  0  0  0  0
   -0.2500   -0.7470    0.2860 N   0  0  0  0  0  0  0  0  0  0  0  0
  1  2  2  0
  2  3  1  0
  2  7  1  0
  3  4  1  0
  4  5  1  0
  5  6  1  0
  7  8  2  0
  7 17  1  0
  8  9  1  0
  9 10  2  0
  9 16  1  0
 10 11  1  0
 11 12  1  0
 11 13  2  0
 13 14  1  0
 13 15  1  0
 15 16  2  0
 16 17  1  0
M  END
