
     RDKit          3D

 17 18  0  0  0  0  0  0  0  0999 V2000
   -3.9050   -1.3410    1.2870 N   0  0  0  0  0  0  0  0  0  0  0  0
   -3.0280   -0.5850    0.4490 C   0  0  0  0  0  0  0  0  0  0  0  0
   -3.4850    0.3440   -0.3750 C   0  0  0  0  0  0  0  0  0  0  0  0
   -4.8710    0.5260   -0.3610 O   0  0  0  0  0  0  0  0  0  0  0  0
   -2.6370    1.1110   -1.2190 N   0  0  0  0  0  0  0  0  0  0  0  0
   -1.2430    0.8490   -1.1570 C   0  0  0  0  0  0  0  0  0  0  0  0
   -0.4000    1.5250   -1.9140 C   0  0  0  0  0  0  0  0  0  0  0  0
    0.9610    1.2760   -1.8600 O   0  0  0  0  0  0  0  0  0  0  0  0
   -0.7240   -0.1710   -0.2560 C   0  0  0  0  0  0  0  0  0  0  0  0
    0.6440   -0.4010   -0.2200 O   0  0  0  0  0  0  0  0  0  0  0  0
    1.3530    0.1380    0.8820 C   0  0  0  0  0  0  0  0  0  0  0  0
    2.8050   -0.1900    0.7820 C   0  0  0  0  0  0  0  0  0  0  0  0
    3.4680   -0.8950   -0.1800 C   0  0  0  0  0  0  0  0  0  0  0  0
    4.8050   -0.9360    0.1580 C   0  0  0  0  0  0  0  0  0  0  0  0
    4.8900   -0.2340    1.3410 C   0  0  0  0  0  0  0  0  0  0  0  0
    3.6930    0.1840    1.6660 O   0  0  0  0  0  0  0  0  0  0  0  0
   -1.5890   -0.8450    0.5030 C   0  0  0  0  0  0  0  0  0  0  0  0
  1  2  1  0
  2  3  2  0
  2 17  1  0
  3  4  1  0
  3  5  1  0
  5  6  1  0
  6  7  2  3
  6  9  1  0
  7  8  1  0
  9 10  1  0
  9 17  2  0
 10 11  1  0
 11 12  1  0
 12 13  2  0
 12 16  1  0
 13 14  1  0
 14 15  2  0
 15 16  1  0
M  END
