
     RDKit          3D

 17 18  0  0  0  0  0  0  0  0999 V2000
   -2.3440    2.1470    0.5760 C   0  0  0  0  0  0  0  0  0  0  0  0
   -3.0340    1.0350    0.6280 C   0  0  0  0  0  0  0  0  0  0  0  0
   -4.4050    1.0250    0.9390 N   0  0  0  0  0  0  0  0  0  0  0  0
   -2.3650   -0.2580    0.3550 C   0  0  0  0  0  0  0  0  0  0  0  0
   -3.1750   -1.3360    0.4380 C   0  0  0  0  0  0  0  0  0  0  0  0
   -1.1170   -0.2910    0.0690 O   0  0  0  0  0  0  0  0  0  0  0  0
    0.1320   -0.3210   -0.2200 C   0  0  0  0  0  0  0  0  0  0  0  0
    0.7300    0.5960   -1.1060 C   0  0  0  0  0  0  0  0  0  0  0  0
    2.0550    0.5770   -1.4230 C   0  0  0  0  0  0  0  0  0  0  0  0
    2.8840   -0.3710   -0.8700 C   0  0  0  0  0  0  0  0  0  0  0  0
    2.3550   -1.3050    0.0120 C   0  0  0  0  0  0  0  0  0  0  0  0
    3.1820   -2.2600    0.5710 O   0  0  0  0  0  0  0  0  0  0  0  0
    1.0260   -1.2750    0.3210 C   0  0  0  0  0  0  0  0  0  0  0  0
    0.4240   -2.1670    1.1880 O   0  0  0  0  0  0  0  0  0  0  0  0
    4.1730   -0.2130   -1.3200 O   0  0  0  0  0  0  0  0  0  0  0  0
    4.2170    1.0490   -1.9620 C   0  0  0  0  0  0  0  0  0  0  0  0
    2.8830    1.3550   -2.2550 O   0  0  0  0  0  0  0  0  0  0  0  0
  1  2  2  0
  2  3  1  0
  2  4  1  0
  4  5  2  0
  4  6  1  0
  6  7  1  0
  7  8  2  0
  7 13  1  0
  8  9  1  0
  9 10  2  0
  9 17  1  0
 10 11  1  0
 10 15  1  0
 11 12  1  0
 11 13  2  0
 13 14  1  0
 15 16  1  0
 16 17  1  0
M  END
