
     RDKit          3D

 18 18  0  0  0  0  0  0  0  0999 V2000
   -3.7400    0.8260    0.5140 C   0  0  0  0  0  0  0  0  0  0  0  0
   -2.2820    0.4620    0.2570 C   0  0  0  0  0  0  0  0  0  0  0  0
   -1.4210    0.5830    1.4330 C   0  0  0  0  0  0  0  0  0  0  0  0
   -2.0030    0.0980   -0.9640 C   0  0  0  0  0  0  0  0  0  0  0  0
   -3.0010    0.0230   -2.0770 C   0  0  0  0  0  0  0  0  0  0  0  0
   -4.2130    0.2990   -1.9720 O   0  0  0  0  0  0  0  0  0  0  0  0
   -2.3040   -0.3980   -3.1740 O   0  0  0  0  0  0  0  0  0  0  0  0
   -0.9800   -0.5950   -2.8750 C   0  0  0  0  0  0  0  0  0  0  0  0
    0.0100   -1.0330   -3.7990 N   0  0  0  0  0  0  0  0  0  0  0  0
   -0.7480   -0.3140   -1.5710 C   0  0  0  0  0  0  0  0  0  0  0  0
    0.5710   -0.4370   -0.9770 C   0  0  0  0  0  0  0  0  0  0  0  0
    1.5120   -0.8320   -1.7700 O   0  0  0  0  0  0  0  0  0  0  0  0
    1.0030   -0.2100    0.2770 O   0  0  0  0  0  0  0  0  0  0  0  0
    2.2920   -0.3500    0.7800 C   0  0  2  0  0  0  0  0  0  0  0  0
    2.3830   -1.3130    1.9410 C   0  0  0  0  0  0  0  0  0  0  0  0
    2.7620    0.9680    1.2650 C   0  0  0  0  0  0  0  0  0  0  0  0
    4.0590    1.0790    1.8270 N   0  0  0  0  0  0  0  0  0  0  0  0
    2.0440    1.9770    1.1900 O   0  0  0  0  0  0  0  0  0  0  0  0
  1  2  1  0
  2  3  1  0
  2  4  2  3
  4  5  1  0
  4 10  1  0
  5  6  2  0
  5  7  1  0
  7  8  1  0
  8  9  1  0
  8 10  2  0
 10 11  1  0
 11 12  2  0
 11 13  1  0
 13 14  1  0
 14 15  1  1
 14 16  1  0
 16 17  1  0
 16 18  2  0
M  END
