
     RDKit          3D

 16 16  0  0  0  0  0  0  0  0999 V2000
    0.0650    2.8760   -2.2030 C   0  0  0  0  0  0  0  0  0  0  0  0
    0.1320    2.5170   -0.9150 C   0  0  0  0  0  0  0  0  0  0  0  0
    0.0910    3.5610    0.0890 C   0  0  0  0  0  0  0  0  0  0  0  0
    0.1490    3.3110    1.3520 C   0  0  0  0  0  0  0  0  0  0  0  0
    0.1030    4.3710    2.2400 F   0  0  0  0  0  0  0  0  0  0  0  0
    0.2830    1.7140    2.0090 Cl  0  0  0  0  0  0  0  0  0  0  0  0
    0.2410    1.1370   -0.5220 C   0  0  0  0  0  0  0  0  0  0  0  0
    1.4910    0.5610   -0.3910 C   0  0  0  0  0  0  0  0  0  0  0  0
    1.6230   -0.7830   -0.0330 C   0  0  0  0  0  0  0  0  0  0  0  0
    2.9720   -1.3840    0.1040 C   0  0  0  0  0  0  0  0  0  0  0  0
    0.4970   -1.5410    0.1900 C   0  0  0  0  0  0  0  0  0  0  0  0
    0.6350   -2.9430    0.5630 C   0  0  0  0  0  0  0  0  0  0  0  0
   -0.7570   -0.9900    0.0660 C   0  0  0  0  0  0  0  0  0  0  0  0
   -1.9300   -1.8220    0.3100 C   0  0  0  0  0  0  0  0  0  0  0  0
   -3.1820   -1.1070    0.1410 N   0  0  0  0  0  0  0  0  0  0  0  0
   -0.8910    0.3450   -0.2890 C   0  0  0  0  0  0  0  0  0  0  0  0
  1  2  2  0
  2  3  1  0
  2  7  1  0
  3  4  2  3
  4  5  1  0
  4  6  1  0
  7  8  2  0
  7 16  1  0
  8  9  1  0
  9 10  1  0
  9 11  2  0
 11 12  1  0
 11 13  1  0
 13 14  1  0
 13 16  2  0
 14 15  1  0
M  CHG  1  15   1
M  END
