
     RDKit          3D

 16 17  0  0  0  0  0  0  0  0999 V2000
   -1.0670   -1.2780    2.1460 C   0  0  0  0  0  0  0  0  0  0  0  0
   -0.1510   -0.6460    1.1710 C   0  0  0  0  0  0  0  0  0  0  0  0
    1.1970   -1.0310    1.1080 C   0  0  0  0  0  0  0  0  0  0  0  0
    2.1020   -0.4530    0.2500 C   0  0  0  0  0  0  0  0  0  0  0  0
    3.4290   -0.8360    0.1970 C   0  0  0  0  0  0  0  0  0  0  0  0
    4.3400   -0.2490   -0.6680 C   0  0  0  0  0  0  0  0  0  0  0  0
    6.0220   -0.7780   -0.6920 Cl  0  0  0  0  0  0  0  0  0  0  0  0
    3.8730    0.7490   -1.4910 C   0  0  0  0  0  0  0  0  0  0  0  0
    4.7360    1.3420   -2.3470 F   0  0  0  0  0  0  0  0  0  0  0  0
    2.5450    1.1330   -1.4380 C   0  0  0  0  0  0  0  0  0  0  0  0
    1.6320    0.5470   -0.5720 C   0  0  0  0  0  0  0  0  0  0  0  0
    0.3160    0.9330   -0.5220 C   0  0  0  0  0  0  0  0  0  0  0  0
   -0.6060    0.3460    0.3480 C   0  0  0  0  0  0  0  0  0  0  0  0
   -1.9920    0.8270    0.2690 C   0  0  0  0  0  0  0  0  0  0  0  0
   -2.7840   -0.0500   -0.6380 C   0  0  0  0  0  0  0  0  0  0  0  0
   -4.1700    0.3730   -0.7550 N   0  0  0  0  0  0  0  0  0  0  0  0
  1  2  1  0
  2  3  2  0
  2 13  1  0
  3  4  1  0
  4  5  2  0
  4 11  1  0
  5  6  1  0
  6  7  1  0
  6  8  2  0
  8  9  1  0
  8 10  1  0
 10 11  2  0
 11 12  1  0
 12 13  2  0
 13 14  1  0
 14 15  1  0
 15 16  1  0
M  CHG  1  16   1
M  END
