
     RDKit          3D

 16 17  0  0  0  0  0  0  0  0999 V2000
   -3.2820   -1.1970    1.0590 C   0  0  0  0  0  0  0  0  0  0  0  0
   -2.5410   -0.2900    0.4410 C   0  0  0  0  0  0  0  0  0  0  0  0
   -2.8680    1.1740    0.3490 C   0  0  0  0  0  0  0  0  0  0  0  0
   -2.1570    1.6000   -0.9060 C   0  0  0  0  0  0  0  0  0  0  0  0
   -1.0780    0.6060   -1.0220 C   0  0  0  0  0  0  0  0  0  0  0  0
   -1.2940   -0.4450   -0.2720 C   0  0  0  0  0  0  0  0  0  0  0  0
   -0.4830   -1.6160   -0.1120 N   0  0  0  0  0  0  0  0  0  0  0  0
    0.7270   -1.5600   -0.8600 C   0  0  0  0  0  0  0  0  0  0  0  0
    1.7220   -0.6150   -0.3120 C   0  0  0  0  0  0  0  0  0  0  0  0
    1.4560    0.1210    0.8220 C   0  0  0  0  0  0  0  0  0  0  0  0
    2.3780    1.0160    1.3550 C   0  0  0  0  0  0  0  0  0  0  0  0
    1.9920    1.9360    2.8070 Cl  0  0  0  0  0  0  0  0  0  0  0  0
    3.6050    1.1950    0.7550 C   0  0  0  0  0  0  0  0  0  0  0  0
    3.8850    0.4650   -0.3790 C   0  0  0  0  0  0  0  0  0  0  0  0
    2.9610   -0.4180   -0.8950 C   0  0  0  0  0  0  0  0  0  0  0  0
    3.2170   -1.1510   -2.0180 F   0  0  0  0  0  0  0  0  0  0  0  0
  1  2  2  0
  2  3  1  0
  2  6  1  0
  3  4  1  0
  4  5  1  0
  5  6  2  0
  6  7  1  0
  7  8  1  0
  8  9  1  0
  9 10  2  0
  9 15  1  0
 10 11  1  0
 11 12  1  0
 11 13  2  0
 13 14  1  0
 14 15  2  0
 15 16  1  0
M  CHG  1   7   1
M  END
