
     RDKit          3D

 16 16  0  0  0  0  0  0  0  0999 V2000
   -6.2080    0.5060    0.0740 C   0  0  0  0  0  0  0  0  0  0  0  0
   -5.0070   -0.3370    0.0140 C   0  0  0  0  0  0  0  0  0  0  0  0
   -3.7850    0.2680    0.1250 C   0  0  0  0  0  0  0  0  0  0  0  0
   -3.7560    2.0010    0.3290 Cl  0  0  0  0  0  0  0  0  0  0  0  0
   -2.6150   -0.5320    0.0690 C   0  0  0  0  0  0  0  0  0  0  0  0
   -2.8520   -1.9010   -0.0990 F   0  0  0  0  0  0  0  0  0  0  0  0
   -1.3640   -0.1980    0.1490 C   0  0  0  0  0  0  0  0  0  0  0  0
   -0.3150   -1.2480    0.0600 C   0  0  0  0  0  0  0  0  0  0  0  0
    0.9770   -1.0150    0.1290 C   0  0  0  0  0  0  0  0  0  0  0  0
    1.9360   -2.1850    0.0240 C   0  0  0  0  0  0  0  0  0  0  0  0
    1.4390    0.3300    0.3010 C   0  0  0  0  0  0  0  0  0  0  0  0
    2.8600    0.6500    0.3920 C   0  0  0  0  0  0  0  0  0  0  0  0
    3.6830    0.3460   -0.8130 C   0  0  0  0  0  0  0  0  0  0  0  0
    5.1210    0.7650   -0.4760 C   0  0  0  0  0  0  0  0  0  0  0  0
    0.5560    1.3000    0.3870 C   0  0  0  0  0  0  0  0  0  0  0  0
   -0.8600    1.1150    0.3190 N   0  0  0  0  0  0  0  0  0  0  0  0
  1  2  1  0
  2  3  2  3
  3  4  1  0
  3  5  1  0
  5  6  1  0
  5  7  2  3
  7  8  1  0
  7 16  1  0
  8  9  2  0
  9 10  1  0
  9 11  1  0
 11 12  1  0
 11 15  2  0
 12 13  1  0
 13 14  1  0
 15 16  1  0
M  END
