
     RDKit          3D

 16 17  0  0  0  0  0  0  0  0999 V2000
    3.9490    0.6270    0.7110 N   0  0  0  0  0  0  0  0  0  0  0  0
    3.3340    0.6710   -0.6100 C   0  0  0  0  0  0  0  0  0  0  0  0
    1.9430    0.1290   -0.5070 C   0  0  0  0  0  0  0  0  0  0  0  0
    1.7910   -1.2300   -0.6990 C   0  0  0  0  0  0  0  0  0  0  0  0
    0.5170   -1.7550   -0.6090 C   0  0  0  0  0  0  0  0  0  0  0  0
   -0.5670   -0.9350   -0.3340 C   0  0  0  0  0  0  0  0  0  0  0  0
   -0.4050    0.4210   -0.1440 C   0  0  0  0  0  0  0  0  0  0  0  0
    0.8610    0.9410   -0.2340 C   0  0  0  0  0  0  0  0  0  0  0  0
   -1.3060    1.5330    0.1520 C   0  0  0  0  0  0  0  0  0  0  0  0
   -2.6130    1.7190    0.1040 C   0  0  0  0  0  0  0  0  0  0  0  0
   -3.0350    2.9560    0.4820 F   0  0  0  0  0  0  0  0  0  0  0  0
   -3.7190    0.8560   -0.2760 C   0  0  0  0  0  0  0  0  0  0  0  0
   -3.8740   -0.4560   -0.4570 C   0  0  0  0  0  0  0  0  0  0  0  0
   -3.0420   -1.6550   -0.3690 C   0  0  0  0  0  0  0  0  0  0  0  0
   -3.9830   -3.1280   -0.3180 Cl  0  0  0  0  0  0  0  0  0  0  0  0
   -1.7200   -1.8410   -0.3200 C   0  0  0  0  0  0  0  0  0  0  0  0
  1  2  1  0
  2  3  1  0
  3  4  2  0
  3  8  1  0
  4  5  1  0
  5  6  2  0
  6  7  1  0
  6 16  1  0
  7  8  2  0
  7  9  1  0
  9 10  2  0
 10 11  1  0
 10 12  1  0
 12 13  2  0
 13 14  1  0
 14 15  1  0
 14 16  2  0
M  CHG  1   1   1
M  END
