
     RDKit          3D

 16 17  0  0  0  0  0  0  0  0999 V2000
    3.8020    1.3060   -0.6820 C   0  0  0  0  0  0  0  0  0  0  0  0
    2.6340    0.7100    0.1210 C   0  0  0  0  0  0  0  0  0  0  0  0
    1.5930    0.1470   -0.7670 C   0  0  0  0  0  0  0  0  0  0  0  0
    0.3950   -0.4550   -0.1530 C   0  0  2  0  0  0  0  0  0  0  0  0
    0.7180   -1.5430    0.7650 N   0  0  0  0  0  0  0  0  0  0  0  0
   -0.2840   -1.2620   -1.3300 C   0  0  0  0  0  0  0  0  0  0  0  0
   -1.2160   -2.2580   -0.7010 C   0  0  0  0  0  0  0  0  0  0  0  0
   -2.2380   -1.5900    0.1390 C   0  0  0  0  0  0  0  0  0  0  0  0
   -1.9620   -0.1670    0.4080 C   0  0  0  0  0  0  0  0  0  0  0  0
   -3.0450    0.6020    0.8020 C   0  0  0  0  0  0  0  0  0  0  0  0
   -2.9130    1.9410    1.0670 C   0  0  0  0  0  0  0  0  0  0  0  0
   -4.3200    2.9060    1.5720 Cl  0  0  0  0  0  0  0  0  0  0  0  0
   -1.6780    2.5170    0.9350 C   0  0  0  0  0  0  0  0  0  0  0  0
   -1.5430    3.8330    1.1940 F   0  0  0  0  0  0  0  0  0  0  0  0
   -0.5850    1.7410    0.5380 C   0  0  0  0  0  0  0  0  0  0  0  0
   -0.6940    0.4130    0.2710 C   0  0  0  0  0  0  0  0  0  0  0  0
  1  2  1  0
  2  3  1  0
  3  4  1  0
  4  5  1  1
  4  6  1  0
  4 16  1  0
  6  7  1  0
  7  8  1  0
  8  9  1  0
  9 10  2  0
  9 16  1  0
 10 11  1  0
 11 12  1  0
 11 13  2  0
 13 14  1  0
 13 15  1  0
 15 16  2  0
M  CHG  1   5   1
M  END
