
     RDKit          3D

 17 18  0  0  0  0  0  0  0  0999 V2000
   -2.0420    1.4670    2.5510 O   0  0  0  0  0  0  0  0  0  0  0  0
   -2.2370    1.1440    1.3710 C   0  0  0  0  0  0  0  0  0  0  0  0
   -3.5860    1.3170    0.7470 C   0  0  0  0  0  0  0  0  0  0  0  0
   -3.9560    0.0370    0.0070 C   0  0  0  0  0  0  0  0  0  0  0  0
   -2.9370   -0.2430   -1.0380 C   0  0  0  0  0  0  0  0  0  0  0  0
   -1.5450   -0.0810   -0.5790 C   0  0  0  0  0  0  0  0  0  0  0  0
   -0.5580   -0.6390   -1.3710 C   0  0  0  0  0  0  0  0  0  0  0  0
   -1.0310   -1.5170   -2.8760 S   0  0  0  0  0  0  0  0  0  0  0  0
    0.7500   -0.5180   -1.0070 C   0  0  0  0  0  0  0  0  0  0  0  0
    1.1530    0.1410    0.1270 C   0  0  0  0  0  0  0  0  0  0  0  0
    2.4860    0.2700    0.5070 O   0  0  0  0  0  0  0  0  0  0  0  0
    3.4490   -0.3210   -0.3430 C   0  0  0  0  0  0  0  0  0  0  0  0
    4.8520   -0.1220    0.1610 C   0  0  0  0  0  0  0  0  0  0  0  0
    5.0310   -0.6850    1.4290 O   0  0  0  0  0  0  0  0  0  0  0  0
    0.1690    0.7180    0.9510 C   0  0  0  0  0  0  0  0  0  0  0  0
    0.5610    1.3740    2.0780 O   0  0  0  0  0  0  0  0  0  0  0  0
   -1.1500    0.5880    0.5720 C   0  0  0  0  0  0  0  0  0  0  0  0
  1  2  2  0
  2  3  1  0
  2 17  1  0
  3  4  1  0
  4  5  1  0
  5  6  1  0
  6  7  2  0
  6 17  1  0
  7  8  1  0
  7  9  1  0
  9 10  2  0
 10 11  1  0
 10 15  1  0
 11 12  1  0
 12 13  1  0
 13 14  1  0
 15 16  1  0
 15 17  2  0
M  END
