
     RDKit          3D

 17 18  0  0  0  0  0  0  0  0999 V2000
   -4.2630   -2.6610    0.2830 C   0  0  0  0  0  0  0  0  0  0  0  0
   -2.9400   -2.2050    0.2370 O   0  0  0  0  0  0  0  0  0  0  0  0
   -2.5650   -0.8800    0.1620 C   0  0  0  0  0  0  0  0  0  0  0  0
   -3.4380   -0.0030    0.1320 O   0  0  0  0  0  0  0  0  0  0  0  0
   -1.1740   -0.5160    0.1190 C   0  0  0  0  0  0  0  0  0  0  0  0
    0.1670   -1.7030    0.1570 S   0  0  0  0  0  0  0  0  0  0  0  0
    1.4780   -0.4930    0.0730 C   0  0  0  0  0  0  0  0  0  0  0  0
    2.9560   -0.7950    0.0640 C   0  0  1  0  0  0  0  0  0  0  0  0
    3.1500   -2.3130    0.1020 C   0  0  0  0  0  0  0  0  0  0  0  0
    3.5870   -0.2790   -1.0420 O   0  0  0  0  0  0  0  0  0  0  0  0
    0.8120    0.7060    0.0230 C   0  0  0  0  0  0  0  0  0  0  0  0
    1.4690    1.9550   -0.0520 C   0  0  0  0  0  0  0  0  0  0  0  0
    0.7920    3.1450   -0.1020 C   0  0  0  0  0  0  0  0  0  0  0  0
   -0.5650    3.1210   -0.0780 C   0  0  0  0  0  0  0  0  0  0  0  0
   -1.2900    4.3190   -0.1270 O   0  0  0  0  0  0  0  0  0  0  0  0
   -1.2110    1.9180   -0.0050 C   0  0  0  0  0  0  0  0  0  0  0  0
   -0.5140    0.6770    0.0470 C   0  0  0  0  0  0  0  0  0  0  0  0
  1  2  1  0
  2  3  1  0
  3  4  2  0
  3  5  1  0
  5  6  1  0
  5 17  2  0
  6  7  1  0
  7  8  1  0
  7 11  2  0
  8  9  1  6
  8 10  1  0
 11 12  1  0
 11 17  1  0
 12 13  2  0
 13 14  1  0
 14 15  1  0
 14 16  2  0
 16 17  1  0
M  END
