
     RDKit          3D

 17 18  0  0  0  0  0  0  0  0999 V2000
    2.4380   -1.3750    1.1980 C   0  0  0  0  0  0  0  0  0  0  0  0
    3.0060   -0.2670    0.4440 C   0  0  0  0  0  0  0  0  0  0  0  0
    4.7090    0.1040    0.3000 S   0  0  0  0  0  0  0  0  0  0  0  0
    4.5430    1.5630   -0.7560 C   0  0  0  0  0  0  0  0  0  0  0  0
    3.1760    1.6400   -0.9090 C   0  0  0  0  0  0  0  0  0  0  0  0
    2.4080    0.7400   -0.3190 C   0  0  0  0  0  0  0  0  0  0  0  0
    0.9250    0.7570   -0.4370 C   0  0  0  0  0  0  0  0  0  0  0  0
    0.3130    1.6300   -1.1060 O   0  0  0  0  0  0  0  0  0  0  0  0
    0.1800   -0.1900    0.1890 O   0  0  0  0  0  0  0  0  0  0  0  0
   -1.1990   -0.2610    0.1410 C   0  0  0  0  0  0  0  0  0  0  0  0
   -1.9640    0.3900    1.0740 C   0  0  0  0  0  0  0  0  0  0  0  0
   -3.3580    0.2970    0.9950 C   0  0  0  0  0  0  0  0  0  0  0  0
   -4.1170    0.9570    1.9410 O   0  0  0  0  0  0  0  0  0  0  0  0
   -3.9730   -0.4310    0.0040 C   0  0  0  0  0  0  0  0  0  0  0  0
   -3.2020   -1.0820   -0.9300 C   0  0  0  0  0  0  0  0  0  0  0  0
   -1.8120   -0.9880   -0.8490 C   0  0  0  0  0  0  0  0  0  0  0  0
   -1.0530   -1.6370   -1.7800 O   0  0  0  0  0  0  0  0  0  0  0  0
  1  2  1  0
  2  3  1  0
  2  6  2  0
  3  4  1  0
  4  5  2  0
  5  6  1  0
  6  7  1  0
  7  8  2  0
  7  9  1  0
  9 10  1  0
 10 11  2  0
 10 16  1  0
 11 12  1  0
 12 13  1  0
 12 14  2  0
 14 15  1  0
 15 16  2  0
 16 17  1  0
M  END
