
     RDKit          3D

 17 18  0  0  0  0  0  0  0  0999 V2000
    4.0940    1.6770   -0.0930 C   0  0  0  0  0  0  0  0  0  0  0  0
    2.6960    1.8550   -0.0820 O   0  0  0  0  0  0  0  0  0  0  0  0
    1.8470    0.7700    0.1050 C   0  0  0  0  0  0  0  0  0  0  0  0
    2.4060   -0.4620    0.2760 C   0  0  0  0  0  0  0  0  0  0  0  0
    1.5750   -1.5370    0.4620 C   0  0  0  0  0  0  0  0  0  0  0  0
    2.0580   -2.8320    0.6440 O   0  0  0  0  0  0  0  0  0  0  0  0
    0.2120   -1.3400    0.4710 C   0  0  0  0  0  0  0  0  0  0  0  0
   -0.3750   -0.1140    0.3000 C   0  0  0  0  0  0  0  0  0  0  0  0
   -1.8490    0.0960    0.2110 C   0  0  0  0  0  0  0  0  0  0  0  0
   -2.6120    1.5530    0.9020 S   0  0  0  0  0  0  0  0  0  0  0  0
   -4.2800    1.1090    0.3900 C   0  0  0  0  0  0  0  0  0  0  0  0
   -4.1210   -0.0660   -0.2420 C   0  0  0  0  0  0  0  0  0  0  0  0
   -2.8500   -0.5750   -0.3280 C   0  0  0  0  0  0  0  0  0  0  0  0
   -2.6520   -1.7940   -1.1740 C   0  0  0  0  0  0  0  0  0  0  0  0
   -1.5100   -2.1490   -1.4820 O   0  0  0  0  0  0  0  0  0  0  0  0
    0.4600    0.9850    0.1110 C   0  0  0  0  0  0  0  0  0  0  0  0
    0.0690    2.2770   -0.0760 O   0  0  0  0  0  0  0  0  0  0  0  0
  1  2  1  0
  2  3  1  0
  3  4  2  0
  3 16  1  0
  4  5  1  0
  5  6  1  0
  5  7  2  0
  7  8  1  0
  8  9  1  0
  8 16  2  0
  9 10  1  0
  9 13  2  0
 10 11  1  0
 11 12  2  0
 12 13  1  0
 13 14  1  0
 14 15  2  0
 16 17  1  0
M  END
