
     RDKit          3D

 17 18  0  0  0  0  0  0  0  0999 V2000
    5.8850   -0.0790    2.7360 C   0  0  0  0  0  0  0  0  0  0  0  0
    4.6710   -0.3610    2.0650 O   0  0  0  0  0  0  0  0  0  0  0  0
    3.6540    0.5330    1.9000 C   0  0  0  0  0  0  0  0  0  0  0  0
    3.7540    1.6820    2.3490 O   0  0  0  0  0  0  0  0  0  0  0  0
    2.3930    0.1720    1.1800 C   0  0  0  0  0  0  0  0  0  0  0  0
    2.0520   -0.9740    0.6180 C   0  0  0  0  0  0  0  0  0  0  0  0
    0.8330   -1.1030   -0.0010 C   0  0  0  0  0  0  0  0  0  0  0  0
    0.4480   -2.3320   -0.6130 O   0  0  0  0  0  0  0  0  0  0  0  0
    0.0170   -0.0350   -0.0120 C   0  0  0  0  0  0  0  0  0  0  0  0
   -1.2920    0.3440   -0.4950 C   0  0  0  0  0  0  0  0  0  0  0  0
   -2.1740   -0.3460   -1.1520 C   0  0  0  0  0  0  0  0  0  0  0  0
   -3.4570    0.3070   -1.5270 C   0  0  0  0  0  0  0  0  0  0  0  0
   -4.4560   -0.3240   -2.2180 C   0  0  0  0  0  0  0  0  0  0  0  0
   -5.4940    0.5750   -2.3920 C   0  0  0  0  0  0  0  0  0  0  0  0
   -5.0350    1.7360   -1.7700 C   0  0  0  0  0  0  0  0  0  0  0  0
   -3.8310    1.5170   -1.2790 O   0  0  0  0  0  0  0  0  0  0  0  0
    1.0560    1.2110    0.9140 S   0  0  0  0  0  0  0  0  0  0  0  0
  1  2  1  0
  2  3  1  0
  3  4  2  0
  3  5  1  0
  5  6  2  0
  5 17  1  0
  6  7  1  0
  7  8  1  0
  7  9  2  0
  9 10  1  0
  9 17  1  0
 10 11  2  3
 11 12  1  0
 12 13  2  0
 12 16  1  0
 13 14  1  0
 14 15  2  0
 15 16  1  0
M  END
