
     RDKit          3D

 17 18  0  0  0  0  0  0  0  0999 V2000
   -1.7950   -3.0360    0.4480 O   0  0  0  0  0  0  0  0  0  0  0  0
   -1.2540   -1.8990    0.3990 C   0  0  0  0  0  0  0  0  0  0  0  0
    0.0260   -1.7090    0.8750 C   0  0  0  0  0  0  0  0  0  0  0  0
    0.7630   -2.7600    1.4240 O   0  0  0  0  0  0  0  0  0  0  0  0
    0.5820   -0.4300    0.7990 C   0  0  0  0  0  0  0  0  0  0  0  0
    1.9530   -0.2560    1.3220 C   0  0  0  0  0  0  0  0  0  0  0  0
    2.9030    0.3230    0.6330 C   0  0  0  0  0  0  0  0  0  0  0  0
    4.1800    0.4500    1.2210 O   0  0  0  0  0  0  0  0  0  0  0  0
    2.6500    0.8260   -0.7280 C   0  0  0  0  0  0  0  0  0  0  0  0
    2.9200    2.5950   -0.9470 S   0  0  0  0  0  0  0  0  0  0  0  0
   -0.0730    0.5890    0.2920 O   0  0  0  0  0  0  0  0  0  0  0  0
   -1.2880    0.4650   -0.1730 C   0  0  0  0  0  0  0  0  0  0  0  0
   -1.9560    1.5710   -0.7040 C   0  0  0  0  0  0  0  0  0  0  0  0
   -3.2320    1.3580   -1.1710 C   0  0  0  0  0  0  0  0  0  0  0  0
   -3.8600    0.1120   -1.1340 C   0  0  0  0  0  0  0  0  0  0  0  0
   -3.1710   -0.9470   -0.6050 C   0  0  0  0  0  0  0  0  0  0  0  0
   -1.8930   -0.7860   -0.1240 C   0  0  0  0  0  0  0  0  0  0  0  0
  1  2  2  0
  2  3  1  0
  2 17  1  0
  3  4  1  0
  3  5  2  0
  5  6  1  0
  5 11  1  0
  6  7  2  3
  7  8  1  0
  7  9  1  0
  9 10  1  0
 11 12  1  0
 12 13  2  0
 12 17  1  0
 13 14  1  0
 14 15  2  0
 15 16  1  0
 16 17  2  0
M  END
