
     RDKit          3D

 14 14  0  0  0  0  0  0  0  0999 V2000
   -3.1360    2.2780    0.2140 O   0  0  0  0  0  0  0  0  0  0  0  0
   -2.1570    1.4850    0.1360 C   0  0  0  0  0  0  0  0  0  0  0  0
   -0.7770    1.7460    0.0830 N   0  0  0  0  0  0  0  0  0  0  0  0
   -0.0130    0.5430   -0.0010 C   0  0  0  0  0  0  0  0  0  0  0  0
    1.4500    0.4250   -0.0740 C   0  0  0  0  0  0  0  0  0  0  0  0
    2.1790    1.4420   -0.0670 O   0  0  0  0  0  0  0  0  0  0  0  0
    2.0580   -0.8120   -0.1520 O   0  0  0  0  0  0  0  0  0  0  0  0
    3.4470   -0.9780   -0.2230 C   0  0  0  0  0  0  0  0  0  0  0  0
    4.3060   -0.3130    1.1730 Cl  0  0  0  0  0  0  0  0  0  0  0  0
   -0.8810   -0.4410   -0.0010 C   0  0  0  0  0  0  0  0  0  0  0  0
   -0.4370   -2.1440   -0.0900 Cl  0  0  0  0  0  0  0  0  0  0  0  0
   -2.2600    0.0240    0.0820 C   0  0  0  0  0  0  0  0  0  0  0  0
   -3.3680   -0.7120    0.1040 C   0  0  0  0  0  0  0  0  0  0  0  0
   -3.2570   -2.4480    0.0280 Cl  0  0  0  0  0  0  0  0  0  0  0  0
  1  2  2  0
  2  3  1  0
  2 12  1  0
  3  4  1  0
  4  5  1  0
  4 10  2  0
  5  6  2  0
  5  7  1  0
  7  8  1  0
  8  9  1  0
 10 11  1  0
 10 12  1  0
 12 13  2  3
 13 14  1  0
M  END
