
     RDKit          3D

 14 14  0  0  0  0  0  0  0  0999 V2000
   -4.4880   -0.1010   -0.2600 C   0  0  0  0  0  0  0  0  0  0  0  0
   -3.1600   -0.6220   -0.4000 O   0  0  0  0  0  0  0  0  0  0  0  0
   -2.0370    0.1320   -0.0920 C   0  0  0  0  0  0  0  0  0  0  0  0
   -2.2210    1.3080    0.3190 O   0  0  0  0  0  0  0  0  0  0  0  0
   -0.6600   -0.4190   -0.2400 C   0  0  0  0  0  0  0  0  0  0  0  0
    0.2830    0.5370    0.1320 O   0  0  0  0  0  0  0  0  0  0  0  0
    1.6340    0.3540    0.1140 C   0  0  0  0  0  0  0  0  0  0  0  0
    2.3740   -0.1360    1.1860 C   0  0  0  0  0  0  0  0  0  0  0  0
    1.7080   -0.6070    2.7500 Cl  0  0  0  0  0  0  0  0  0  0  0  0
    3.6800   -0.1970    0.8460 N   0  0  0  0  0  0  0  0  0  0  0  0
    3.8300    0.2380   -0.4210 C   0  0  0  0  0  0  0  0  0  0  0  0
    5.3590    0.3320   -1.2750 Cl  0  0  0  0  0  0  0  0  0  0  0  0
    2.5660    0.5810   -0.8790 C   0  0  0  0  0  0  0  0  0  0  0  0
    2.2040    1.2010   -2.4590 Cl  0  0  0  0  0  0  0  0  0  0  0  0
  1  2  1  0
  2  3  1  0
  3  4  2  0
  3  5  1  0
  5  6  1  0
  6  7  1  0
  7  8  2  0
  7 13  1  0
  8  9  1  0
  8 10  1  0
 10 11  1  0
 11 12  1  0
 11 13  2  0
 13 14  1  0
M  END
