
     RDKit          3D

 13 13  0  0  0  0  0  0  0  0999 V2000
    0.6320   -1.5260    0.6380 O   0  0  0  0  0  0  0  0  0  0  0  0
    0.2190   -0.5030    0.0470 C   0  0  0  0  0  0  0  0  0  0  0  0
    1.2020    0.3220   -0.5110 O   0  0  0  0  0  0  0  0  0  0  0  0
    2.5570    0.0080   -0.4040 C   0  0  0  0  0  0  0  0  0  0  0  0
    3.0700   -0.0860    0.9950 C   0  0  0  0  0  0  0  0  0  0  0  0
    2.8260    1.4970    1.8050 Cl  0  0  0  0  0  0  0  0  0  0  0  0
   -1.2030   -0.1910   -0.0550 C   0  0  0  0  0  0  0  0  0  0  0  0
   -2.1680   -0.9580    0.4670 N   0  0  0  0  0  0  0  0  0  0  0  0
   -3.3600   -0.3900    0.1970 C   0  0  0  0  0  0  0  0  0  0  0  0
   -3.1550    0.7680   -0.5130 C   0  0  0  0  0  0  0  0  0  0  0  0
   -4.3190    1.9140   -1.1330 Cl  0  0  0  0  0  0  0  0  0  0  0  0
   -1.7960    0.8910   -0.6700 C   0  0  0  0  0  0  0  0  0  0  0  0
   -0.8940    2.1440   -1.4810 Cl  0  0  0  0  0  0  0  0  0  0  0  0
  1  2  2  0
  2  3  1  0
  2  7  1  0
  3  4  1  0
  4  5  1  0
  5  6  1  0
  7  8  1  0
  7 12  2  0
  8  9  1  0
  9 10  2  0
 10 11  1  0
 10 12  1  0
 12 13  1  0
M  END
