
     RDKit          3D

 14 13  0  0  0  0  0  0  0  0999 V2000
   -3.3770   -0.7110    0.7340 C   0  0  0  0  0  0  0  0  0  0  0  0
   -2.8770   -0.0690   -0.2980 C   0  0  0  0  0  0  0  0  0  0  0  0
   -1.9580   -0.6950   -1.1840 N   0  0  0  0  0  0  0  0  0  0  0  0
   -0.6040   -0.2930   -1.4070 C   0  0  0  0  0  0  0  0  0  0  0  0
    0.2990   -0.5240   -0.2060 C   0  0  0  0  0  0  0  0  0  0  0  0
    1.6070   -0.0990   -0.5170 O   0  0  0  0  0  0  0  0  0  0  0  0
    2.6940   -0.1450    0.3060 C   0  0  0  0  0  0  0  0  0  0  0  0
    2.5240   -0.6130    1.4640 O   0  0  0  0  0  0  0  0  0  0  0  0
    3.9520    0.2810   -0.0390 O   0  0  0  0  0  0  0  0  0  0  0  0
    5.0660    0.2280    0.8210 C   0  0  0  0  0  0  0  0  0  0  0  0
   -3.2850    1.3410   -0.5340 C   0  0  2  0  0  0  0  0  0  0  0  0
   -4.5780    1.8110    0.6010 Cl  0  0  0  0  0  0  0  0  0  0  0  0
   -3.8750    1.6360   -2.1700 Cl  0  0  0  0  0  0  0  0  0  0  0  0
   -1.8310    2.3390   -0.1700 Cl  0  0  0  0  0  0  0  0  0  0  0  0
  1  2  2  0
  2  3  1  0
  2 11  1  0
  3  4  1  0
  4  5  1  0
  5  6  1  0
  6  7  1  0
  7  8  2  0
  7  9  1  0
  9 10  1  0
 11 12  1  1
 11 13  1  0
 11 14  1  0
M  END
