
     RDKit          3D

 14 14  0  0  0  0  0  0  0  0999 V2000
   -3.7720    1.1190    1.4090 O   0  0  0  0  0  0  0  0  0  0  0  0
   -3.4970   -0.0560    1.0620 C   0  0  0  0  0  0  0  0  0  0  0  0
   -2.2030   -0.3540    0.4580 C   0  0  0  0  0  0  0  0  0  0  0  0
   -1.2060    0.5650    0.2190 C   0  0  0  0  0  0  0  0  0  0  0  0
   -0.1340   -0.0930   -0.3620 C   0  0  0  0  0  0  0  0  0  0  0  0
    1.0890    0.4210   -0.7760 O   0  0  0  0  0  0  0  0  0  0  0  0
    2.1650    0.4630    0.1130 C   0  0  0  0  0  0  0  0  0  0  0  0
    1.9570    0.0220    1.2670 O   0  0  0  0  0  0  0  0  0  0  0  0
    3.4870    0.9900   -0.2450 C   0  0  1  0  0  0  0  0  0  0  0  0
    4.2160    0.0770   -1.6000 Cl  0  0  0  0  0  0  0  0  0  0  0  0
    3.3670    2.7240   -0.7090 Cl  0  0  0  0  0  0  0  0  0  0  0  0
    4.5290    0.9280    1.1910 Cl  0  0  0  0  0  0  0  0  0  0  0  0
   -0.5290   -1.4070   -0.4530 C   0  0  0  0  0  0  0  0  0  0  0  0
   -1.7610   -1.5740    0.0320 N   0  0  0  0  0  0  0  0  0  0  0  0
  1  2  2  0
  2  3  1  0
  3  4  2  0
  3 14  1  0
  4  5  1  0
  5  6  1  0
  5 13  2  0
  6  7  1  0
  7  8  2  0
  7  9  1  0
  9 10  1  6
  9 11  1  0
  9 12  1  0
 13 14  1  0
M  END
