
     RDKit          3D

 14 14  0  0  0  0  0  0  0  0999 V2000
   -3.4490    0.5800    1.1260 C   0  0  0  0  0  0  0  0  0  0  0  0
   -2.4060    0.1550    0.4130 C   0  0  0  0  0  0  0  0  0  0  0  0
   -2.7600   -0.5100   -0.7670 O   0  0  0  0  0  0  0  0  0  0  0  0
   -1.0700    0.3910    0.8690 C   0  0  0  0  0  0  0  0  0  0  0  0
    0.0550    0.0500    0.3060 C   0  0  0  0  0  0  0  0  0  0  0  0
    1.3590    0.3390    0.8540 N   0  0  0  0  0  0  0  0  0  0  0  0
    2.2600   -0.1240    0.0690 C   0  0  0  0  0  0  0  0  0  0  0  0
    3.7160    0.0020    0.3350 C   0  0  2  0  0  0  0  0  0  0  0  0
    4.4130    0.9130   -1.0310 Cl  0  0  0  0  0  0  0  0  0  0  0  0
    4.5320   -1.5540    0.4250 Cl  0  0  0  0  0  0  0  0  0  0  0  0
    4.0400    0.9230    1.8090 Cl  0  0  0  0  0  0  0  0  0  0  0  0
    1.7240   -0.7460   -1.0390 O   0  0  0  0  0  0  0  0  0  0  0  0
    0.3530   -0.6570   -0.9270 C   0  0  0  0  0  0  0  0  0  0  0  0
   -0.4550   -1.1050   -1.7390 O   0  0  0  0  0  0  0  0  0  0  0  0
  1  2  2  0
  2  3  1  0
  2  4  1  0
  4  5  2  3
  5  6  1  0
  5 13  1  0
  6  7  2  0
  7  8  1  0
  7 12  1  0
  8  9  1  6
  8 10  1  0
  8 11  1  0
 12 13  1  0
 13 14  2  0
M  END
