
     RDKit          3D

 14 13  0  0  0  0  0  0  0  0999 V2000
    3.8220    0.4970    1.5050 C   0  0  0  0  0  0  0  0  0  0  0  0
    2.4690    0.2640    1.2230 O   0  0  0  0  0  0  0  0  0  0  0  0
    1.9950   -0.8910    0.6170 C   0  0  0  0  0  0  0  0  0  0  0  0
    2.8820   -1.7590    0.3180 O   0  0  0  0  0  0  0  0  0  0  0  0
    0.6420   -1.1390    0.3280 N   0  0  0  0  0  0  0  0  0  0  0  0
   -0.1860   -0.2140   -0.1060 C   0  0  0  0  0  0  0  0  0  0  0  0
    0.3680    1.0340   -0.2610 O   0  0  0  0  0  0  0  0  0  0  0  0
   -1.5530   -0.4950   -0.3900 C   0  0  0  0  0  0  0  0  0  0  0  0
   -2.4440    0.3320   -0.8170 C   0  0  0  0  0  0  0  0  0  0  0  0
   -2.3170    1.7620   -1.1270 C   0  0  0  0  0  0  0  0  0  0  0  0
   -3.4120    2.7450   -0.1050 Cl  0  0  0  0  0  0  0  0  0  0  0  0
   -1.9860   -1.9340   -0.1570 C   0  0  1  0  0  0  0  0  0  0  0  0
   -1.7380   -2.3800    1.5470 Cl  0  0  0  0  0  0  0  0  0  0  0  0
   -3.6770   -2.1660   -0.6470 Cl  0  0  0  0  0  0  0  0  0  0  0  0
  1  2  1  0
  2  3  1  0
  3  4  2  0
  3  5  1  0
  5  6  2  3
  6  7  1  0
  6  8  1  0
  8  9  2  3
  8 12  1  0
  9 10  1  0
 10 11  1  0
 12 13  1  1
 12 14  1  0
M  END
