
     RDKit          3D

 14 14  0  0  0  0  0  0  0  0999 V2000
    3.3570   -1.0710   -0.7580 O   0  0  0  0  0  0  0  0  0  0  0  0
    3.2160    0.0290   -0.1830 C   0  0  0  0  0  0  0  0  0  0  0  0
    4.3340    0.7980    0.0630 O   0  0  0  0  0  0  0  0  0  0  0  0
    1.8600    0.4630    0.2090 C   0  0  0  0  0  0  0  0  0  0  0  0
    0.9170   -0.5210   -0.1690 O   0  0  0  0  0  0  0  0  0  0  0  0
   -0.4180   -0.2930    0.1170 C   0  0  0  0  0  0  0  0  0  0  0  0
   -0.8740    0.8220    0.7390 N   0  0  0  0  0  0  0  0  0  0  0  0
   -2.1810    1.0050    0.9980 C   0  0  0  0  0  0  0  0  0  0  0  0
   -2.7520    2.4480    1.8020 Cl  0  0  0  0  0  0  0  0  0  0  0  0
   -3.1220    0.0630    0.6410 C   0  0  0  0  0  0  0  0  0  0  0  0
   -4.8330    0.2600    0.9590 Cl  0  0  0  0  0  0  0  0  0  0  0  0
   -2.7070   -1.0790    0.0100 C   0  0  0  0  0  0  0  0  0  0  0  0
   -1.3390   -1.2410   -0.2460 C   0  0  0  0  0  0  0  0  0  0  0  0
   -0.7540   -2.6880   -1.0540 Cl  0  0  0  0  0  0  0  0  0  0  0  0
  1  2  2  0
  2  3  1  0
  2  4  1  0
  4  5  1  0
  5  6  1  0
  6  7  2  0
  6 13  1  0
  7  8  1  0
  8  9  1  0
  8 10  2  0
 10 11  1  0
 10 12  1  0
 12 13  2  0
 13 14  1  0
M  END
