
     RDKit          3D

 11 11  0  0  0  0  0  0  0  0999 V2000
   -1.7580   -0.6220    0.6570 C   0  0  0  0  0  0  0  0  0  0  0  0
   -0.7520   -0.0310   -0.2420 C   0  0  1  0  0  0  0  0  0  0  0  0
   -0.6880   -0.5980   -1.5030 O   0  0  0  0  0  0  0  0  0  0  0  0
   -0.9400    1.4800   -0.4500 C   0  0  2  0  0  0  0  0  0  0  0  0
   -2.0390    1.6830   -1.2490 O   0  0  0  0  0  0  0  0  0  0  0  0
    0.2500    1.9070   -0.9730 O   0  0  0  0  0  0  0  0  0  0  0  0
    1.2470    1.0310   -0.6360 C   0  0  0  0  0  0  0  0  0  0  0  0
    0.6520    0.0060    0.3230 C   0  0  1  0  0  0  0  0  0  0  0  0
    0.7030    0.5110    1.6110 O   0  0  0  0  0  0  0  0  0  0  0  0
    1.3530   -1.3210    0.1940 C   0  0  0  0  0  0  0  0  0  0  0  0
    2.6890   -1.2160    0.5330 O   0  0  0  0  0  0  0  0  0  0  0  0
  2  1  1  1
  2  3  1  0
  2  4  1  0
  2  8  1  0
  4  5  1  6
  4  6  1  0
  6  7  1  0
  7  8  1  0
  8  9  1  1
  8 10  1  0
 10 11  1  0
M  END
