
     RDKit          3D

 11 12  0  0  0  0  0  0  0  0999 V2000
   -2.6010    1.0900    0.6460 C   0  0  0  0  0  0  0  0  0  0  0  0
   -1.2630    0.5730    0.3000 C   0  0  0  0  0  0  0  0  0  0  0  0
   -0.1490    1.3430    0.5070 C   0  0  0  0  0  0  0  0  0  0  0  0
    1.1460    0.8680    0.1820 C   0  0  0  0  0  0  0  0  0  0  0  0
    1.2590   -0.3600   -0.3370 C   0  0  0  0  0  0  0  0  0  0  0  0
    0.1090   -1.1540   -0.5500 C   0  0  0  0  0  0  0  0  0  0  0  0
   -1.1470   -0.6940   -0.2350 C   0  0  0  0  0  0  0  0  0  0  0  0
   -2.3720   -1.4820   -0.4390 C   0  0  0  0  0  0  0  0  0  0  0  0
    2.7140   -0.2540   -0.4380 C   0  0  2  0  0  0  0  0  0  0  0  0
    3.3280   -1.2020    0.3930 O   0  0  0  0  0  0  0  0  0  0  0  0
    2.5810    1.0950    0.1330 C   0  0  0  0  0  0  0  0  0  0  0  0
  1  2  1  0
  2  3  2  0
  2  7  1  0
  3  4  1  0
  4  5  2  0
  4 11  1  0
  5  6  1  0
  5  9  1  0
  6  7  2  0
  7  8  1  0
  9 10  1  1
  9 11  1  0
M  END
