
     RDKit          3D

 24 25  0  0  0  0  0  0  0  0999 V2000
    5.4830    3.2210    0.5190 N   0  0  0  0  0  0  0  0  0  0  0  0
    5.3780    2.2760    1.2960 N   0  0  0  0  0  0  0  0  0  0  0  0
    5.3410    1.2460    1.9440 N   0  0  0  0  0  0  0  0  0  0  0  0
    5.1390   -0.0640    1.3270 C   0  0  0  0  0  0  0  0  0  0  0  0
    5.0140    0.1490   -0.1710 C   0  0  0  0  0  0  0  0  0  0  0  0
    4.8030   -1.1220   -0.9160 C   0  0  0  0  0  0  0  0  0  0  0  0
    3.5810   -1.8860   -0.5440 C   0  0  0  0  0  0  0  0  0  0  0  0
    2.2920   -1.1340   -0.7540 C   0  0  0  0  0  0  0  0  0  0  0  0
    1.1780   -2.0620   -0.3250 C   0  0  0  0  0  0  0  0  0  0  0  0
   -0.1580   -1.4300   -0.4970 C   0  0  0  0  0  0  0  0  0  0  0  0
   -0.2690   -0.1690    0.3310 C   0  0  0  0  0  0  0  0  0  0  0  0
   -1.6020    0.3520    0.0970 N   0  0  0  0  0  0  0  0  0  0  0  0
   -2.0170    1.5610    0.7530 C   0  0  1  0  0  0  0  0  0  0  0  0
   -2.9420    2.4350   -0.0570 C   0  0  2  0  0  0  0  0  0  0  0  0
   -3.8920    3.0740    0.7320 O   0  0  0  0  0  0  0  0  0  0  0  0
   -3.5300    1.6990   -1.2200 C   0  0  1  0  0  0  0  0  0  0  0  0
   -2.5190    1.6000   -2.2020 O   0  0  0  0  0  0  0  0  0  0  0  0
   -4.0810    0.3550   -0.8660 C   0  0  2  0  0  0  0  0  0  0  0  0
   -5.3250    0.1010   -1.3980 O   0  0  0  0  0  0  0  0  0  0  0  0
   -4.0520    0.1350    0.6500 C   0  0  1  0  0  0  0  0  0  0  0  0
   -4.5970   -1.1940    0.9460 C   0  0  0  0  0  0  0  0  0  0  0  0
   -5.6150   -1.3010    1.6760 O   0  0  0  0  0  0  0  0  0  0  0  0
   -4.0480   -2.3740    0.4580 O   0  0  0  0  0  0  0  0  0  0  0  0
   -2.6060    0.2340    1.1080 C   0  0  1  0  0  0  0  0  0  0  0  0
  1  2  2  0
  2  3  2  0
  3  4  1  0
  4  5  1  0
  5  6  1  0
  6  7  1  0
  7  8  1  0
  8  9  1  0
  9 10  1  0
 10 11  1  0
 11 12  1  0
 13 12  1  6
 24 12  1  6
 13 14  1  0
 13 24  1  0
 14 15  1  1
 14 16  1  0
 16 17  1  6
 16 18  1  0
 18 19  1  1
 18 20  1  0
 20 21  1  6
 20 24  1  0
 21 22  2  0
 21 23  1  0
M  CHG  2   1  -1   2   1
M  END
