
     RDKit          3D

 11 12  0  0  0  0  0  0  0  0999 V2000
   -3.3320   -0.6210    0.2630 C   0  0  0  0  0  0  0  0  0  0  0  0
   -1.9510   -0.1030    0.1690 C   0  0  0  0  0  0  0  0  0  0  0  0
   -1.6950    1.2510    0.2110 C   0  0  0  0  0  0  0  0  0  0  0  0
   -0.3860    1.6680    0.1180 C   0  0  0  0  0  0  0  0  0  0  0  0
    0.6290    0.7470   -0.0130 C   0  0  0  0  0  0  0  0  0  0  0  0
    0.4060   -0.6290   -0.0590 C   0  0  0  0  0  0  0  0  0  0  0  0
   -0.9270   -1.0150    0.0380 C   0  0  0  0  0  0  0  0  0  0  0  0
    1.4310   -1.5280   -0.1890 O   0  0  0  0  0  0  0  0  0  0  0  0
    2.7650   -1.1770   -0.2870 C   0  0  0  0  0  0  0  0  0  0  0  0
    2.9920    0.2580   -0.2390 C   0  0  0  0  0  0  0  0  0  0  0  0
    2.0270    1.1320   -0.1150 C   0  0  0  0  0  0  0  0  0  0  0  0
  1  2  1  0
  2  3  2  0
  2  7  1  0
  3  4  1  0
  4  5  2  0
  5  6  1  0
  5 11  1  0
  6  7  2  0
  6  8  1  0
  8  9  1  0
  9 10  1  0
 10 11  2  0
M  END
