
     RDKit          3D

 11 12  0  0  0  0  0  0  0  0999 V2000
    3.1580   -1.0080    0.8210 C   0  0  0  0  0  0  0  0  0  0  0  0
    1.9490   -0.3290    0.2760 C   0  0  0  0  0  0  0  0  0  0  0  0
    2.0840    0.6610   -0.6750 C   0  0  0  0  0  0  0  0  0  0  0  0
    0.9300    1.2560   -1.1450 C   0  0  0  0  0  0  0  0  0  0  0  0
    1.0220    2.2600   -2.1060 O   0  0  0  0  0  0  0  0  0  0  0  0
   -0.3250    0.8700   -0.6740 C   0  0  0  0  0  0  0  0  0  0  0  0
   -0.4500   -0.1210    0.2770 C   0  0  0  0  0  0  0  0  0  0  0  0
   -1.8000   -0.5320    0.7780 C   0  0  2  0  0  0  0  0  0  0  0  0
   -2.8080   -0.7470   -0.3640 C   0  0  0  0  0  0  0  0  0  0  0  0
   -2.9590    0.3520    0.6590 C   0  0  0  0  0  0  0  0  0  0  0  0
    0.7070   -0.7100    0.7410 C   0  0  0  0  0  0  0  0  0  0  0  0
  1  2  1  0
  2  3  2  0
  2 11  1  0
  3  4  1  0
  4  5  1  0
  4  6  2  0
  6  7  1  0
  8  7  1  6
  7 11  2  0
  8  9  1  0
  8 10  1  0
  9 10  1  0
M  END
