
     RDKit          3D

 24 26  0  0  0  0  0  0  0  0999 V2000
   -6.5590   -3.0540    1.3690 C   0  0  0  0  0  0  0  0  0  0  0  0
   -5.4640   -2.1930    0.8840 C   0  0  0  0  0  0  0  0  0  0  0  0
   -4.8210   -2.3780   -0.2510 C   0  0  0  0  0  0  0  0  0  0  0  0
   -3.7560   -1.4160   -0.5590 C   0  0  0  0  0  0  0  0  0  0  0  0
   -2.8480   -1.2630   -1.4350 N   0  0  0  0  0  0  0  0  0  0  0  0
   -2.0210   -0.2640   -1.4660 C   0  0  0  0  0  0  0  0  0  0  0  0
   -2.1220    0.6760   -0.5170 C   0  0  0  0  0  0  0  0  0  0  0  0
   -1.3020    1.8760   -0.2360 C   0  0  0  0  0  0  0  0  0  0  0  0
    0.0250    1.6920   -0.0510 C   0  0  0  0  0  0  0  0  0  0  0  0
    0.4610    0.4370   -0.1440 O   0  0  0  0  0  0  0  0  0  0  0  0
    1.5750   -0.2390    0.0480 N   0  0  0  0  0  0  0  0  0  0  0  0
    2.7660   -0.1390   -0.7590 C   0  0  0  0  0  0  0  0  0  0  0  0
    2.7100    0.6770   -1.7040 O   0  0  0  0  0  0  0  0  0  0  0  0
    3.9400   -0.9540   -0.4640 C   0  0  0  0  0  0  0  0  0  0  0  0
    5.0960   -0.9300   -1.2240 C   0  0  0  0  0  0  0  0  0  0  0  0
    5.9750   -1.8230   -0.6450 C   0  0  0  0  0  0  0  0  0  0  0  0
    5.3170   -2.3650    0.4590 C   0  0  0  0  0  0  0  0  0  0  0  0
    5.8800   -3.3870    1.3990 C   0  0  0  0  0  0  0  0  0  0  0  0
    4.1510   -1.8060    0.4850 O   0  0  0  0  0  0  0  0  0  0  0  0
    0.8610    2.8710    0.2360 C   0  0  0  0  0  0  0  0  0  0  0  0
    0.3480    4.0530   -0.5230 C   0  0  0  0  0  0  0  0  0  0  0  0
   -1.0660    4.3570   -0.0750 C   0  0  0  0  0  0  0  0  0  0  0  0
   -1.9860    3.1630   -0.2130 C   0  0  0  0  0  0  0  0  0  0  0  0
   -3.4740    0.1020    0.4770 S   0  0  0  0  0  0  0  0  0  0  0  0
  1  2  1  0
  2  3  2  3
  3  4  1  0
  4  5  2  0
  4 24  1  0
  5  6  1  0
  6  7  2  0
  7  8  1  0
  7 24  1  0
  8  9  2  0
  8 23  1  0
  9 10  1  0
  9 20  1  0
 10 11  1  0
 11 12  1  0
 12 13  2  0
 12 14  1  0
 14 15  2  0
 14 19  1  0
 15 16  1  0
 16 17  2  0
 17 18  1  0
 17 19  1  0
 20 21  1  0
 21 22  1  0
 22 23  1  0
M  END
