
     RDKit          3D

 24 26  0  0  0  0  0  0  0  0999 V2000
    7.5510   -0.9170   -1.7940 C   0  0  0  0  0  0  0  0  0  0  0  0
    7.0840    0.5300   -1.7290 C   0  0  0  0  0  0  0  0  0  0  0  0
    5.7820    0.5580   -0.9540 C   0  0  0  0  0  0  0  0  0  0  0  0
    4.6220    0.4880   -1.0570 N   0  0  0  0  0  0  0  0  0  0  0  0
    3.6980    0.5520   -0.1300 C   0  0  0  0  0  0  0  0  0  0  0  0
    2.3020    0.4700   -0.2410 C   0  0  0  0  0  0  0  0  0  0  0  0
    1.4990    0.5580    0.8420 C   0  0  0  0  0  0  0  0  0  0  0  0
    0.0590    0.4390    0.7570 N   0  0  0  0  0  0  0  0  0  0  0  0
   -0.6670   -0.2000   -0.2290 C   0  0  0  0  0  0  0  0  0  0  0  0
   -0.0030   -0.7590   -1.1790 O   0  0  0  0  0  0  0  0  0  0  0  0
   -2.0860   -0.3170   -0.3180 C   0  0  0  0  0  0  0  0  0  0  0  0
   -2.9590    0.1510    0.5370 C   0  0  0  0  0  0  0  0  0  0  0  0
   -2.6480    0.8400    1.6820 O   0  0  0  0  0  0  0  0  0  0  0  0
   -2.7810    0.1210    2.9050 C   0  0  0  0  0  0  0  0  0  0  0  0
   -4.4030   -0.0550    0.2920 C   0  0  0  0  0  0  0  0  0  0  0  0
   -5.4170    0.4140    1.0770 C   0  0  0  0  0  0  0  0  0  0  0  0
   -6.6190    0.0060    0.5040 C   0  0  0  0  0  0  0  0  0  0  0  0
   -6.2540   -0.7010   -0.6170 C   0  0  0  0  0  0  0  0  0  0  0  0
   -7.1990   -1.3430   -1.5680 C   0  0  0  0  0  0  0  0  0  0  0  0
   -4.9400   -0.7130   -0.7060 O   0  0  0  0  0  0  0  0  0  0  0  0
    1.9950    0.7350    2.1340 C   0  0  0  0  0  0  0  0  0  0  0  0
    3.3600    0.8220    2.2900 C   0  0  0  0  0  0  0  0  0  0  0  0
    4.1800    0.7270    1.1500 C   0  0  0  0  0  0  0  0  0  0  0  0
    5.9570    0.7860    0.9050 S   0  0  0  0  0  0  0  0  0  0  0  0
  1  2  1  0
  2  3  1  0
  3  4  2  0
  3 24  1  0
  4  5  1  0
  5  6  2  0
  5 23  1  0
  6  7  1  0
  7  8  1  0
  7 21  2  0
  8  9  1  0
  9 10  2  0
  9 11  1  0
 11 12  2  3
 12 13  1  0
 12 15  1  0
 13 14  1  0
 15 16  2  0
 15 20  1  0
 16 17  1  0
 17 18  2  0
 18 19  1  0
 18 20  1  0
 21 22  1  0
 22 23  2  0
 23 24  1  0
M  END
