
     RDKit          3D

 24 26  0  0  0  0  0  0  0  0999 V2000
   -0.6590    1.5710    2.4310 C   0  0  0  0  0  0  0  0  0  0  0  0
   -0.5520    0.7040    1.2790 N   0  0  0  0  0  0  0  0  0  0  0  0
    0.7510    0.3740    0.8240 C   0  0  0  0  0  0  0  0  0  0  0  0
    1.3760    1.0680   -0.2010 C   0  0  0  0  0  0  0  0  0  0  0  0
    2.6380    0.7430   -0.6310 C   0  0  0  0  0  0  0  0  0  0  0  0
    3.3500   -0.2940   -0.0630 C   0  0  0  0  0  0  0  0  0  0  0  0
    4.6410   -0.6070   -0.5220 O   0  0  0  0  0  0  0  0  0  0  0  0
    5.7620    0.0720   -0.0680 C   0  0  0  0  0  0  0  0  0  0  0  0
    5.5440    0.9800    0.7760 O   0  0  0  0  0  0  0  0  0  0  0  0
    7.1460   -0.2260   -0.5290 C   0  0  0  0  0  0  0  0  0  0  0  0
    7.1780   -1.5660   -1.7230 S   0  0  0  0  0  0  0  0  0  0  0  0
    2.7400   -0.9920    0.9580 C   0  0  0  0  0  0  0  0  0  0  0  0
    1.4560   -0.6590    1.3920 C   0  0  0  0  0  0  0  0  0  0  0  0
   -1.7120    0.2170    0.6170 C   0  0  0  0  0  0  0  0  0  0  0  0
   -2.9530    0.6540    1.0080 C   0  0  0  0  0  0  0  0  0  0  0  0
   -4.0630    0.1900    0.3510 C   0  0  0  0  0  0  0  0  0  0  0  0
   -5.3250    0.6320    0.7430 C   0  0  0  0  0  0  0  0  0  0  0  0
   -6.4560    0.1920    0.1080 C   0  0  0  0  0  0  0  0  0  0  0  0
   -6.3460   -0.6960   -0.9270 C   0  0  0  0  0  0  0  0  0  0  0  0
   -5.1030   -1.1600   -1.3470 C   0  0  0  0  0  0  0  0  0  0  0  0
   -3.9670   -0.7170   -0.7090 C   0  0  0  0  0  0  0  0  0  0  0  0
   -2.7330   -1.1280   -1.0700 N   0  0  0  0  0  0  0  0  0  0  0  0
   -1.6420   -0.6680   -0.4190 C   0  0  0  0  0  0  0  0  0  0  0  0
   -0.5080   -1.0910   -0.8060 O   0  0  0  0  0  0  0  0  0  0  0  0
  1  2  1  0
  2  3  1  0
  2 14  1  0
  3  4  2  0
  3 13  1  0
  4  5  1  0
  5  6  2  0
  6  7  1  0
  6 12  1  0
  7  8  1  0
  8  9  2  0
  8 10  1  0
 10 11  1  0
 12 13  2  0
 14 15  2  0
 14 23  1  0
 15 16  1  0
 16 17  2  0
 16 21  1  0
 17 18  1  0
 18 19  2  0
 19 20  1  0
 20 21  2  0
 21 22  1  0
 22 23  1  0
 23 24  2  0
M  END
