
     RDKit          3D

 24 26  0  0  0  0  0  0  0  0999 V2000
    3.9380    2.5430    1.1670 C   0  0  0  0  0  0  0  0  0  0  0  0
    4.7930    1.5260    1.0210 C   0  0  0  0  0  0  0  0  0  0  0  0
    4.3070    0.1670    0.8250 C   0  0  0  0  0  0  0  0  0  0  0  0
    5.1970   -0.7980    0.6880 C   0  0  0  0  0  0  0  0  0  0  0  0
    6.6530   -0.5290    0.7280 C   0  0  0  0  0  0  0  0  0  0  0  0
    2.8570   -0.1440    0.7800 C   0  0  0  0  0  0  0  0  0  0  0  0
    2.0270    0.7250   -0.5660 S   0  0  0  0  0  0  0  0  0  0  0  0
    0.2830    0.3380   -0.6040 C   0  0  0  0  0  0  0  0  0  0  0  0
   -0.6120    1.0780    0.1030 N   0  0  0  0  0  0  0  0  0  0  0  0
   -1.9280    0.7600    0.0500 C   0  0  0  0  0  0  0  0  0  0  0  0
   -2.8680    1.4960    0.7610 C   0  0  0  0  0  0  0  0  0  0  0  0
   -4.2010    1.1510    0.6900 C   0  0  0  0  0  0  0  0  0  0  0  0
   -4.6250    0.0870   -0.0760 C   0  0  0  0  0  0  0  0  0  0  0  0
   -3.7170   -0.6610   -0.7920 C   0  0  0  0  0  0  0  0  0  0  0  0
   -2.3740   -0.3010   -0.7100 C   0  0  0  0  0  0  0  0  0  0  0  0
   -1.4080   -1.0230   -1.4150 C   0  0  0  0  0  0  0  0  0  0  0  0
   -1.7960   -1.9930   -2.1120 O   0  0  0  0  0  0  0  0  0  0  0  0
   -0.1030   -0.7060   -1.3600 N   0  0  0  0  0  0  0  0  0  0  0  0
    0.8040   -1.5270   -2.1360 C   0  0  0  0  0  0  0  0  0  0  0  0
    1.3380   -2.7070   -1.3980 C   0  0  0  0  0  0  0  0  0  0  0  0
   -5.9690   -0.2140   -0.1120 O   0  0  0  0  0  0  0  0  0  0  0  0
   -6.9130    0.7520    0.3440 C   0  0  0  0  0  0  0  0  0  0  0  0
   -6.3930    1.2750    1.6680 C   0  0  0  0  0  0  0  0  0  0  0  0
   -5.1460    1.8920    1.4060 O   0  0  0  0  0  0  0  0  0  0  0  0
  1  2  2  0
  2  3  1  0
  3  4  2  3
  3  6  1  0
  4  5  1  0
  6  7  1  0
  7  8  1  0
  8  9  2  0
  8 18  1  0
  9 10  1  0
 10 11  2  0
 10 15  1  0
 11 12  1  0
 12 13  2  0
 12 24  1  0
 13 14  1  0
 13 21  1  0
 14 15  2  0
 15 16  1  0
 16 17  2  0
 16 18  1  0
 18 19  1  0
 19 20  1  0
 21 22  1  0
 22 23  1  0
 23 24  1  0
M  END
