
     RDKit          3D

 12 12  0  0  0  0  0  0  0  0999 V2000
   -3.0460    0.6790    0.4940 N   0  0  0  0  0  0  0  0  0  0  0  0
   -2.4730   -0.2390   -0.4370 C   0  0  0  0  0  0  0  0  0  0  0  0
   -0.9620   -0.2520   -0.4300 C   0  0  2  0  0  0  0  0  0  0  0  0
   -0.5770   -1.2050   -1.3990 O   0  0  0  0  0  0  0  0  0  0  0  0
   -0.3740   -0.5910    0.8960 C   0  0  0  0  0  0  0  0  0  0  0  0
    0.9070   -1.3590    0.8190 C   0  0  0  0  0  0  0  0  0  0  0  0
    1.9720   -0.7190    0.0010 C   0  0  0  0  0  0  0  0  0  0  0  0
    1.8710    0.7600   -0.0670 C   0  0  0  0  0  0  0  0  0  0  0  0
    2.9960    1.4420    0.0550 C   0  0  0  0  0  0  0  0  0  0  0  0
    4.1990    0.7850    0.2360 O   0  0  0  0  0  0  0  0  0  0  0  0
    0.7210    1.4820   -0.2440 O   0  0  0  0  0  0  0  0  0  0  0  0
   -0.4810    1.1000   -0.8840 C   0  0  0  0  0  0  0  0  0  0  0  0
  1  2  1  0
  2  3  1  0
  3  4  1  6
  3  5  1  0
  3 12  1  0
  5  6  1  0
  6  7  1  0
  7  8  1  0
  8  9  2  3
  8 11  1  0
  9 10  1  0
 11 12  1  0
M  CHG  1   1   1
M  END
