
     RDKit          3D

 29 32  0  0  0  0  0  0  0  0999 V2000
   -0.8400   -3.9820    1.7330 C   0  0  0  0  0  0  0  0  0  0  0  0
   -0.2300   -2.6590    1.4900 C   0  0  0  0  0  0  0  0  0  0  0  0
   -0.6290   -1.5830    2.1910 F   0  0  0  0  0  0  0  0  0  0  0  0
    0.7360   -2.5420    0.6080 C   0  0  0  0  0  0  0  0  0  0  0  0
    1.3850   -1.2720    0.3080 C   0  0  0  0  0  0  0  0  0  0  0  0
    2.7300   -1.0360    0.3800 N   0  0  0  0  0  0  0  0  0  0  0  0
    2.9950    0.2140    0.0200 C   0  0  0  0  0  0  0  0  0  0  0  0
    4.2660    0.9270   -0.0640 C   0  0  0  0  0  0  0  0  0  0  0  0
    4.4200    2.2280   -0.4520 N   0  0  0  0  0  0  0  0  0  0  0  0
    5.7130    2.5710   -0.4190 C   0  0  0  0  0  0  0  0  0  0  0  0
    6.3200    3.8990   -0.7670 C   0  0  0  0  0  0  0  0  0  0  0  0
    6.3890    1.4890   -0.0090 N   0  0  0  0  0  0  0  0  0  0  0  0
    5.5250    0.4780    0.2120 C   0  0  0  0  0  0  0  0  0  0  0  0
    5.9270   -0.8730    0.6770 C   0  0  0  0  0  0  0  0  0  0  0  0
    1.7940    0.7610   -0.2800 N   0  0  0  0  0  0  0  0  0  0  0  0
    0.7910   -0.1340   -0.1120 C   0  0  0  0  0  0  0  0  0  0  0  0
   -0.5990    0.1760   -0.4240 C   0  0  0  0  0  0  0  0  0  0  0  0
   -0.8980    1.3710   -0.7690 O   0  0  0  0  0  0  0  0  0  0  0  0
   -1.6470   -0.6970   -0.3900 O   0  0  0  0  0  0  0  0  0  0  0  0
   -2.9600   -0.3420   -0.7040 C   0  0  0  0  0  0  0  0  0  0  0  0
   -3.3260   -0.4800   -2.0370 C   0  0  0  0  0  0  0  0  0  0  0  0
   -4.6230   -0.1400   -2.4050 C   0  0  0  0  0  0  0  0  0  0  0  0
   -5.5470    0.3260   -1.4930 C   0  0  0  0  0  0  0  0  0  0  0  0
   -6.8010    0.6510   -1.8700 N   0  0  0  0  0  0  0  0  0  0  0  0
   -7.6760    1.1050   -0.9410 C   0  0  0  0  0  0  0  0  0  0  0  0
   -7.3130    1.2390    0.3700 C   0  0  0  0  0  0  0  0  0  0  0  0
   -6.0440    0.9100    0.7530 C   0  0  0  0  0  0  0  0  0  0  0  0
   -5.1390    0.4470   -0.1780 C   0  0  0  0  0  0  0  0  0  0  0  0
   -3.8500    0.1160    0.2270 C   0  0  0  0  0  0  0  0  0  0  0  0
  1  2  1  0
  2  3  1  0
  2  4  2  3
  4  5  1  0
  5  6  1  0
  5 16  2  0
  6  7  1  0
  7  8  1  0
  7 15  2  0
  8  9  1  0
  8 13  2  0
  9 10  1  0
 10 11  1  0
 10 12  2  0
 12 13  1  0
 13 14  1  0
 15 16  1  0
 16 17  1  0
 17 18  2  0
 17 19  1  0
 19 20  1  0
 20 21  2  0
 20 29  1  0
 21 22  1  0
 22 23  2  0
 23 24  1  0
 23 28  1  0
 24 25  2  0
 25 26  1  0
 26 27  2  0
 27 28  1  0
 28 29  2  0
M  END
