
     RDKit          3D

 29 32  0  0  0  0  0  0  0  0999 V2000
    0.6100    5.7340   -0.0890 C   0  0  0  0  0  0  0  0  0  0  0  0
    0.2690    4.4560   -0.1510 C   0  0  0  0  0  0  0  0  0  0  0  0
    1.0070    3.4730   -0.9120 C   0  0  0  0  0  0  0  0  0  0  0  0
    0.5950    2.2080   -0.9180 C   0  0  0  0  0  0  0  0  0  0  0  0
   -0.5660    1.7470   -0.1990 C   0  0  0  0  0  0  0  0  0  0  0  0
   -1.0580    0.3770   -0.1760 C   0  0  0  0  0  0  0  0  0  0  0  0
   -2.3620    0.0830   -0.1930 N   0  0  0  0  0  0  0  0  0  0  0  0
   -2.8470   -1.1810   -0.1640 C   0  0  0  0  0  0  0  0  0  0  0  0
   -4.2940   -1.4210   -0.1910 C   0  0  0  0  0  0  0  0  0  0  0  0
   -4.7910   -2.6230   -0.1400 C   0  0  0  0  0  0  0  0  0  0  0  0
   -6.2460   -2.9110   -0.1640 C   0  0  0  0  0  0  0  0  0  0  0  0
   -5.2020   -0.2560   -0.2850 C   0  0  0  0  0  0  0  0  0  0  0  0
   -6.4290   -0.4350   -0.3150 O   0  0  0  0  0  0  0  0  0  0  0  0
   -4.6840    1.0080   -0.3390 F   0  0  0  0  0  0  0  0  0  0  0  0
   -1.9730   -2.2220   -0.1150 C   0  0  0  0  0  0  0  0  0  0  0  0
   -0.6090   -1.9890   -0.0940 C   0  0  0  0  0  0  0  0  0  0  0  0
    0.3000   -3.0410   -0.0400 C   0  0  0  0  0  0  0  0  0  0  0  0
    1.5930   -2.7080   -0.0210 N   0  0  0  0  0  0  0  0  0  0  0  0
    2.0600   -1.4470   -0.0500 C   0  0  0  0  0  0  0  0  0  0  0  0
    3.4770   -1.1830   -0.0210 N   0  0  0  0  0  0  0  0  0  0  0  0
    4.0600    0.1420   -0.1000 C   0  0  0  0  0  0  0  0  0  0  0  0
    5.5500   -0.0580    0.1500 C   0  0  0  0  0  0  0  0  0  0  0  0
    5.6100   -1.3950    0.8190 C   0  0  0  0  0  0  0  0  0  0  0  0
    4.5240   -2.1700    0.0930 C   0  0  0  0  0  0  0  0  0  0  0  0
    1.1680   -0.4450   -0.1020 N   0  0  0  0  0  0  0  0  0  0  0  0
   -0.1710   -0.6840   -0.1250 C   0  0  0  0  0  0  0  0  0  0  0  0
   -1.2460    2.6570    0.5020 C   0  0  0  0  0  0  0  0  0  0  0  0
   -2.3710    2.2560    1.2100 O   0  0  0  0  0  0  0  0  0  0  0  0
   -0.8730    4.0230    0.5610 N   0  0  0  0  0  0  0  0  0  0  0  0
  1  2  2  0
  2  3  1  0
  2 29  1  0
  3  4  2  0
  4  5  1  0
  5  6  1  0
  5 27  2  0
  6  7  2  0
  6 26  1  0
  7  8  1  0
  8  9  1  0
  8 15  2  0
  9 10  2  3
  9 12  1  0
 10 11  1  0
 12 13  2  0
 12 14  1  0
 15 16  1  0
 16 17  2  0
 16 26  1  0
 17 18  1  0
 18 19  2  0
 19 20  1  0
 19 25  1  0
 20 21  1  0
 20 24  1  0
 21 22  1  0
 22 23  1  0
 23 24  1  0
 25 26  2  0
 27 28  1  0
 27 29  1  0
M  END
