
     RDKit          3D

 31 34  0  0  0  0  0  0  0  0999 V2000
    0.9550   -4.5340    1.2780 C   0  0  0  0  0  0  0  0  0  0  0  0
    2.0960   -3.6130    1.0820 C   0  0  0  0  0  0  0  0  0  0  0  0
    3.3930   -3.7880    1.2540 N   0  0  0  0  0  0  0  0  0  0  0  0
    4.0450   -2.7210    0.9530 O   0  0  0  0  0  0  0  0  0  0  0  0
    3.2150   -1.7980    0.5710 C   0  0  0  0  0  0  0  0  0  0  0  0
    3.6240   -0.4250    0.1450 C   0  0  0  0  0  0  0  0  0  0  0  0
    5.0130   -0.3650    0.2390 O   0  0  0  0  0  0  0  0  0  0  0  0
    5.8290    0.6800   -0.0450 C   0  0  0  0  0  0  0  0  0  0  0  0
    5.3500    1.8760   -0.4930 C   0  0  0  0  0  0  0  0  0  0  0  0
    6.1730    2.9480   -0.7870 C   0  0  0  0  0  0  0  0  0  0  0  0
    7.5650    2.8460   -0.6320 C   0  0  0  0  0  0  0  0  0  0  0  0
    8.0390    1.6390   -0.1810 C   0  0  0  0  0  0  0  0  0  0  0  0
    9.4020    1.5310   -0.0230 F   0  0  0  0  0  0  0  0  0  0  0  0
    7.2160    0.5770    0.1090 C   0  0  0  0  0  0  0  0  0  0  0  0
    7.6930   -0.6090    0.5530 F   0  0  0  0  0  0  0  0  0  0  0  0
    1.9410   -2.2920    0.6260 C   0  0  0  0  0  0  0  0  0  0  0  0
    0.6740   -1.6420    0.3120 C   0  0  0  0  0  0  0  0  0  0  0  0
    0.0010   -2.0460   -0.8490 C   0  0  0  0  0  0  0  0  0  0  0  0
   -1.2150   -1.4910   -1.1900 C   0  0  0  0  0  0  0  0  0  0  0  0
   -1.8160   -0.5110   -0.3900 C   0  0  0  0  0  0  0  0  0  0  0  0
   -3.1330    0.0510   -0.7700 C   0  0  0  0  0  0  0  0  0  0  0  0
   -3.1830    1.4770   -0.8470 N   0  0  0  0  0  0  0  0  0  0  0  0
   -4.7520    1.9890   -1.2890 S   0  0  1  0  0  0  0  0  0  0  0  0
   -4.8150    3.4550   -1.5640 O   0  0  0  0  0  0  0  0  0  0  0  0
   -5.1400    1.2980   -2.5900 O   0  0  0  0  0  0  0  0  0  0  0  0
   -5.9350    1.4870   -0.0780 C   0  0  1  0  0  0  0  0  0  0  0  0
   -5.7270    2.0160    1.3410 C   0  0  0  0  0  0  0  0  0  0  0  0
   -7.4000    1.3880   -0.5310 C   0  0  0  0  0  0  0  0  0  0  0  0
   -6.6270    0.1610   -0.1680 C   0  0  0  0  0  0  0  0  0  0  0  0
   -1.1260   -0.1340    0.7440 C   0  0  0  0  0  0  0  0  0  0  0  0
    0.1010   -0.6780    1.1090 C   0  0  0  0  0  0  0  0  0  0  0  0
  1  2  1  0
  2  3  2  0
  2 16  1  0
  3  4  1  0
  4  5  1  0
  5  6  1  0
  5 16  2  0
  6  7  1  0
  7  8  1  0
  8  9  2  0
  8 14  1  0
  9 10  1  0
 10 11  2  0
 11 12  1  0
 12 13  1  0
 12 14  2  0
 14 15  1  0
 16 17  1  0
 17 18  2  0
 17 31  1  0
 18 19  1  0
 19 20  2  0
 20 21  1  0
 20 30  1  0
 21 22  1  0
 23 22  1  1
 23 24  2  0
 23 25  2  0
 23 26  1  0
 26 27  1  1
 26 28  1  0
 26 29  1  0
 28 29  1  0
 30 31  2  0
M  END
