
     RDKit          3D

 30 30  0  0  0  0  0  0  0  0999 V2000
   -1.0620   -0.1190   -2.1730 C   0  0  0  0  0  0  0  0  0  0  0  0
   -2.4650    0.2970   -1.8160 C   0  0  1  0  0  0  0  0  0  0  0  0
   -2.9040    1.4780   -2.6730 C   0  0  0  0  0  0  0  0  0  0  0  0
   -3.3690   -0.8690   -2.1630 C   0  0  0  0  0  0  0  0  0  0  0  0
   -4.4420   -1.0730   -1.1170 C   0  0  0  0  0  0  0  0  0  0  0  0
   -3.7960   -1.3880    0.0720 O   0  0  0  0  0  0  0  0  0  0  0  0
   -4.6050   -1.4280    1.1780 C   0  0  0  0  0  0  0  0  0  0  0  0
   -3.8470   -0.8920    2.4010 C   0  0  0  0  0  0  0  0  0  0  0  0
   -2.5390   -1.3680    2.3340 O   0  0  0  0  0  0  0  0  0  0  0  0
   -1.4200   -0.9070    2.9470 C   0  0  0  0  0  0  0  0  0  0  0  0
   -0.7450   -1.6030    3.7810 O   0  0  0  0  0  0  0  0  0  0  0  0
   -0.9290    0.4630    2.6610 C   0  0  1  0  0  0  0  0  0  0  0  0
   -1.9890    1.3410    2.8680 O   0  0  0  0  0  0  0  0  0  0  0  0
    0.1810    0.7910    3.4360 O   0  0  0  0  0  0  0  0  0  0  0  0
   -0.5840    0.5550    1.1600 C   0  0  1  0  0  0  0  0  0  0  0  0
   -0.0400    1.9150    0.8820 C   0  0  0  0  0  0  0  0  0  0  0  0
    0.6060   -0.4090    1.0100 C   0  0  0  0  0  0  0  0  0  0  0  0
    1.6940    0.0870    1.7260 O   0  0  0  0  0  0  0  0  0  0  0  0
    2.8040   -0.7060    1.6550 C   0  0  2  0  0  0  0  0  0  0  0  0
    3.3080   -1.1150    2.8580 O   0  0  0  0  0  0  0  0  0  0  0  0
    3.9160   -0.0290    0.8850 C   0  0  0  0  0  0  0  0  0  0  0  0
    5.0440    0.0620    1.4130 O   0  0  0  0  0  0  0  0  0  0  0  0
    3.7250    0.4810   -0.3570 O   0  0  0  0  0  0  0  0  0  0  0  0
    4.5440    1.1160   -1.2460 C   0  0  0  0  0  0  0  0  0  0  0  0
    5.6740    0.3050   -1.7850 C   0  0  2  0  0  0  0  0  0  0  0  0
    5.1830   -0.9060   -2.4520 N   0  0  0  0  0  0  0  0  0  0  0  0
    6.8930   -0.0600   -0.5230 S   0  0  0  0  0  0  0  0  0  0  0  0
   -1.7040    0.1530    0.4930 O   0  0  0  0  0  0  0  0  0  0  0  0
   -2.6080    0.6390   -0.3570 C   0  0  0  0  0  0  0  0  0  0  0  0
   -3.6200    1.3750   -0.1310 O   0  0  0  0  0  0  0  0  0  0  0  0
  2  1  1  1
  2  3  1  0
  2  4  1  0
  2 29  1  0
  4  5  1  0
  5  6  1  0
  6  7  1  0
  7  8  1  0
  8  9  1  0
  9 10  1  0
 10 11  2  0
 10 12  1  0
 12 13  1  6
 12 14  1  0
 12 15  1  0
 15 16  1  6
 15 17  1  0
 15 28  1  0
 17 18  1  0
 18 19  1  0
 19 20  1  1
 19 21  1  0
 21 22  2  0
 21 23  1  0
 23 24  1  0
 24 25  1  0
 25 26  1  1
 25 27  1  0
 28 29  1  0
 29 30  2  0
M  CHG  2  13  -1  26   1
M  END
