
     RDKit          3D

 29 32  0  0  0  0  0  0  0  0999 V2000
    7.1120   -1.6740   -0.0290 C   0  0  0  0  0  0  0  0  0  0  0  0
    5.9070   -1.1820   -0.0090 C   0  0  0  0  0  0  0  0  0  0  0  0
    4.8320   -2.0690   -0.1220 C   0  0  0  0  0  0  0  0  0  0  0  0
    3.5420   -1.6030   -0.1050 C   0  0  0  0  0  0  0  0  0  0  0  0
    2.4860   -2.4890   -0.2160 C   0  0  0  0  0  0  0  0  0  0  0  0
    1.1930   -1.9870   -0.1950 C   0  0  0  0  0  0  0  0  0  0  0  0
    0.1610   -2.9060   -0.3090 O   0  0  0  0  0  0  0  0  0  0  0  0
    0.9620   -0.6420   -0.0680 C   0  0  0  0  0  0  0  0  0  0  0  0
   -0.3950   -0.1630   -0.0470 N   0  0  0  0  0  0  0  0  0  0  0  0
   -0.6630    1.1960    0.0740 C   0  0  0  0  0  0  0  0  0  0  0  0
    0.4060    1.9290    0.1540 O   0  0  0  0  0  0  0  0  0  0  0  0
   -1.9440    1.8820    0.1210 C   0  0  0  0  0  0  0  0  0  0  0  0
   -2.0500    3.2280    0.2400 C   0  0  0  0  0  0  0  0  0  0  0  0
   -3.4350    3.6370    0.2620 C   0  0  0  0  0  0  0  0  0  0  0  0
   -4.1480    2.5910    0.1620 N   0  0  0  0  0  0  0  0  0  0  0  0
   -3.3100    1.4080    0.0660 C   0  0  0  0  0  0  0  0  0  0  0  0
   -3.7830    0.1980   -0.0570 C   0  0  0  0  0  0  0  0  0  0  0  0
   -5.2510    0.0350   -0.0810 C   0  0  0  0  0  0  0  0  0  0  0  0
   -6.1070    0.7220    0.7190 C   0  0  0  0  0  0  0  0  0  0  0  0
   -7.4560    0.4690    0.5740 C   0  0  0  0  0  0  0  0  0  0  0  0
   -7.9270   -0.4070   -0.3060 N   0  0  0  0  0  0  0  0  0  0  0  0
   -7.0550   -1.0730   -1.0860 C   0  0  0  0  0  0  0  0  0  0  0  0
   -5.7280   -0.8550   -0.9760 N   0  0  0  0  0  0  0  0  0  0  0  0
    1.9910    0.1940    0.0380 N   0  0  0  0  0  0  0  0  0  0  0  0
    3.2790   -0.2620    0.0220 C   0  0  0  0  0  0  0  0  0  0  0  0
    4.3310    0.6020    0.1310 C   0  0  0  0  0  0  0  0  0  0  0  0
    4.0920    1.9160    0.2560 F   0  0  0  0  0  0  0  0  0  0  0  0
    5.6600    0.1670    0.1190 C   0  0  0  0  0  0  0  0  0  0  0  0
    6.6320    1.0520    0.2280 C   0  0  0  0  0  0  0  0  0  0  0  0
  1  2  2  0
  2  3  1  0
  2 28  1  0
  3  4  2  0
  4  5  1  0
  4 25  1  0
  5  6  2  0
  6  7  1  0
  6  8  1  0
  8  9  1  0
  8 24  2  0
  9 10  1  0
 10 11  2  0
 10 12  1  0
 12 13  2  0
 12 16  1  0
 13 14  1  0
 14 15  2  0
 15 16  1  0
 16 17  2  3
 17 18  1  0
 18 19  2  0
 18 23  1  0
 19 20  1  0
 20 21  2  0
 21 22  1  0
 22 23  2  0
 24 25  1  0
 25 26  2  0
 26 27  1  0
 26 28  1  0
 28 29  2  0
M  END
