
     RDKit          3D

 28 31  0  0  0  0  0  0  0  0999 V2000
    4.1320   -3.0940   -0.1820 C   0  0  0  0  0  0  0  0  0  0  0  0
    3.6000   -2.2970   -1.3260 C   0  0  0  0  0  0  0  0  0  0  0  0
    2.6040   -1.2720   -0.9560 C   0  0  0  0  0  0  0  0  0  0  0  0
    1.2430   -1.3540   -1.1090 N   0  0  0  0  0  0  0  0  0  0  0  0
    0.6780   -0.2470   -0.6580 N   0  0  0  0  0  0  0  0  0  0  0  0
   -0.7310    0.0020   -0.6660 C   0  0  0  0  0  0  0  0  0  0  0  0
   -1.2240    1.2250   -1.1290 C   0  0  0  0  0  0  0  0  0  0  0  0
   -2.5700    1.5080   -1.1560 C   0  0  0  0  0  0  0  0  0  0  0  0
   -3.4930    0.5740   -0.7180 C   0  0  0  0  0  0  0  0  0  0  0  0
   -2.9920   -0.6290   -0.2640 C   0  0  0  0  0  0  0  0  0  0  0  0
   -1.6630   -0.9170   -0.2340 C   0  0  0  0  0  0  0  0  0  0  0  0
   -3.9490   -1.6320    0.2050 C   0  0  0  0  0  0  0  0  0  0  0  0
   -3.6170   -2.8270    0.2160 O   0  0  0  0  0  0  0  0  0  0  0  0
   -5.3100   -1.2640    0.6700 C   0  0  0  0  0  0  0  0  0  0  0  0
   -5.6560    0.1680    0.4320 C   0  0  2  0  0  0  0  0  0  0  0  0
   -5.4680    1.0440    1.6530 C   0  0  0  0  0  0  0  0  0  0  0  0
   -7.1520    0.2110    0.0910 C   0  0  0  0  0  0  0  0  0  0  0  0
   -4.9410    0.8050   -0.7190 C   0  0  0  0  0  0  0  0  0  0  0  0
    1.6660    0.5620   -0.2080 C   0  0  0  0  0  0  0  0  0  0  0  0
    2.8870   -0.0570   -0.3830 C   0  0  0  0  0  0  0  0  0  0  0  0
    4.2120    0.4280   -0.0590 C   0  0  0  0  0  0  0  0  0  0  0  0
    5.1750   -0.3610    0.2610 N   0  0  0  0  0  0  0  0  0  0  0  0
    6.4580    0.0580    0.5780 N   0  0  0  0  0  0  0  0  0  0  0  0
    6.7810    1.4330    0.5630 C   0  0  0  0  0  0  0  0  0  0  0  0
    8.1180    1.9030    0.8910 C   0  0  0  0  0  0  0  0  0  0  0  0
    9.0560    1.1290    1.2030 O   0  0  0  0  0  0  0  0  0  0  0  0
    5.8330    2.2990    0.2410 C   0  0  0  0  0  0  0  0  0  0  0  0
    4.5360    1.8220   -0.0750 N   0  0  0  0  0  0  0  0  0  0  0  0
  1  2  1  0
  2  3  1  0
  3  4  2  0
  3 20  1  0
  4  5  1  0
  5  6  1  0
  5 19  1  0
  6  7  2  0
  6 11  1  0
  7  8  1  0
  8  9  2  0
  9 10  1  0
  9 18  1  0
 10 11  2  0
 10 12  1  0
 12 13  2  0
 12 14  1  0
 14 15  1  0
 15 16  1  1
 15 17  1  0
 15 18  1  0
 19 20  2  0
 20 21  1  0
 21 22  2  0
 21 28  1  0
 22 23  1  0
 23 24  1  0
 24 25  1  0
 24 27  2  0
 25 26  2  0
 27 28  1  0
M  END
