
     RDKit          3D

 29 30  0  0  0  0  0  0  0  0999 V2000
    6.6810   -0.7320   -1.9890 O   0  0  0  0  0  0  0  0  0  0  0  0
    6.4780   -0.4070   -0.7640 C   0  0  0  0  0  0  0  0  0  0  0  0
    5.1710   -0.4270   -0.3780 O   0  0  0  0  0  0  0  0  0  0  0  0
    4.1020   -0.7820   -1.2690 C   0  0  0  0  0  0  0  0  0  0  0  0
    2.8820   -0.6910   -0.5200 N   0  0  0  0  0  0  0  0  0  0  0  0
    1.9270    0.2250   -1.1150 C   0  0  0  0  0  0  0  0  0  0  0  0
    0.5130   -0.0680   -0.6290 C   0  0  1  0  0  0  0  0  0  0  0  0
    0.5680   -0.1900    0.8510 C   0  0  0  0  0  0  0  0  0  0  0  0
   -0.6500   -0.0840    1.5090 O   0  0  0  0  0  0  0  0  0  0  0  0
   -1.4540    0.9120    0.9780 C   0  0  0  0  0  0  0  0  0  0  0  0
   -1.6270    0.8290   -0.4880 C   0  0  2  0  0  0  0  0  0  0  0  0
   -2.4820   -0.2440   -1.0360 C   0  0  1  0  0  0  0  0  0  0  0  0
   -1.9860   -1.5390   -0.9050 O   0  0  0  0  0  0  0  0  0  0  0  0
   -3.9250   -0.2490   -0.6720 C   0  0  1  0  0  0  0  0  0  0  0  0
   -4.1870   -0.9560    0.6080 C   0  0  0  0  0  0  0  0  0  0  0  0
   -5.1090   -0.0110    1.3440 C   0  0  0  0  0  0  0  0  0  0  0  0
   -5.3450    1.1180    0.4060 C   0  0  2  0  0  0  0  0  0  0  0  0
   -6.7880    1.3640    0.0950 C   0  0  0  0  0  0  0  0  0  0  0  0
   -7.4640    0.1750   -0.5440 C   0  0  0  0  0  0  0  0  0  0  0  0
   -8.8030    0.4280   -0.8240 O   0  0  0  0  0  0  0  0  0  0  0  0
   -4.5530    0.9570   -0.7110 O   0  0  0  0  0  0  0  0  0  0  0  0
   -0.4090    0.7700   -1.1660 O   0  0  0  0  0  0  0  0  0  0  0  0
    7.6020   -0.0660    0.0590 C   0  0  0  0  0  0  0  0  0  0  0  0
    9.2590   -0.1240   -0.7030 S   0  0  0  0  0  0  0  0  0  0  0  0
    9.1230   -0.5980   -2.3310 O   0  0  0  0  0  0  0  0  0  0  0  0
    7.5350    0.2790    1.2990 C   0  0  0  0  0  0  0  0  0  0  0  0
    8.7520    0.5880    1.9830 O   0  0  0  0  0  0  0  0  0  0  0  0
    6.3310    0.4020    2.1280 C   0  0  0  0  0  0  0  0  0  0  0  0
    6.3880   -0.4680    3.2300 O   0  0  0  0  0  0  0  0  0  0  0  0
  1  2  2  0
  2  3  1  0
  2 23  1  0
  3  4  1  0
  4  5  1  0
  5  6  1  0
  7  6  1  1
  7  8  1  0
  7 22  1  0
  8  9  1  0
  9 10  1  0
 11 10  1  1
 11 12  1  0
 11 22  1  0
 12 13  1  1
 12 14  1  0
 14 15  1  1
 14 21  1  0
 15 16  1  0
 16 17  1  0
 17 18  1  6
 17 21  1  0
 18 19  1  0
 19 20  1  0
 23 24  1  0
 23 26  2  3
 24 25  1  0
 26 27  1  0
 26 28  1  0
 28 29  1  0
M  CHG  2   5   1  25  -1
M  END
