
     RDKit          3D

 28 31  0  0  0  0  0  0  0  0999 V2000
   -4.5090    0.5640    1.5180 C   0  0  0  0  0  0  0  0  0  0  0  0
   -3.2360    0.5290    1.0860 C   0  0  0  0  0  0  0  0  0  0  0  0
   -2.6980    1.7240    0.7260 N   0  0  0  0  0  0  0  0  0  0  0  0
   -1.4150    1.8250    0.2600 C   0  0  0  0  0  0  0  0  0  0  0  0
   -1.0720    2.9680   -0.0200 O   0  0  0  0  0  0  0  0  0  0  0  0
   -0.6170    0.7440    0.1350 C   0  0  0  0  0  0  0  0  0  0  0  0
    0.8530    0.8370   -0.3730 C   0  0  1  0  0  0  0  0  0  0  0  0
    1.2150   -0.4480   -0.6970 O   0  0  0  0  0  0  0  0  0  0  0  0
    1.2330   -0.9710   -2.0170 C   0  0  0  0  0  0  0  0  0  0  0  0
    1.3590   -2.3670   -2.1740 N   0  0  0  0  0  0  0  0  0  0  0  0
    0.4080   -3.2040   -2.8720 C   0  0  0  0  0  0  0  0  0  0  0  0
    2.5380   -3.0600   -1.5950 C   0  0  0  0  0  0  0  0  0  0  0  0
    1.1450   -0.1970   -3.0320 N   0  0  0  0  0  0  0  0  0  0  0  0
    0.9960    1.1950   -2.8180 C   0  0  0  0  0  0  0  0  0  0  0  0
    0.8930    1.7140   -1.5960 C   0  0  0  0  0  0  0  0  0  0  0  0
    1.1220    3.0770   -1.1130 C   0  0  0  0  0  0  0  0  0  0  0  0
    0.9550    4.1190   -1.7800 O   0  0  0  0  0  0  0  0  0  0  0  0
    1.5870    2.9630    0.2970 C   0  0  0  0  0  0  0  0  0  0  0  0
    2.0940    3.9160    1.1430 C   0  0  0  0  0  0  0  0  0  0  0  0
    2.6500    3.5390    2.3570 C   0  0  0  0  0  0  0  0  0  0  0  0
    2.6860    2.2110    2.6990 C   0  0  0  0  0  0  0  0  0  0  0  0
    2.1680    1.2770    1.8360 C   0  0  0  0  0  0  0  0  0  0  0  0
    1.6000    1.6140    0.6150 C   0  0  0  0  0  0  0  0  0  0  0  0
   -1.1480   -0.4790    0.4990 C   0  0  0  0  0  0  0  0  0  0  0  0
   -0.4920   -1.6650    0.4680 O   0  0  0  0  0  0  0  0  0  0  0  0
   -2.4780   -0.6020    0.9820 C   0  0  0  0  0  0  0  0  0  0  0  0
   -2.9790   -1.7760    1.3220 C   0  0  0  0  0  0  0  0  0  0  0  0
   -2.2060   -3.0260    1.2290 C   0  0  0  0  0  0  0  0  0  0  0  0
  1  2  2  0
  2  3  1  0
  2 26  1  0
  3  4  1  0
  4  5  2  0
  4  6  1  0
  7  6  1  1
  6 24  2  0
  7  8  1  0
  7 15  1  0
  7 23  1  0
  8  9  1  0
  9 10  1  0
  9 13  2  0
 10 11  1  0
 10 12  1  0
 13 14  1  0
 14 15  2  0
 15 16  1  0
 16 17  2  0
 16 18  1  0
 18 19  2  0
 18 23  1  0
 19 20  1  0
 20 21  2  0
 21 22  1  0
 22 23  2  0
 24 25  1  0
 24 26  1  0
 26 27  2  3
 27 28  1  0
M  END
