
     RDKit          3D

 28 30  0  0  0  0  0  0  0  0999 V2000
    2.6480   -2.7850   -0.6750 C   0  0  0  0  0  0  0  0  0  0  0  0
    2.1790   -1.8090    0.3850 C   0  0  0  0  0  0  0  0  0  0  0  0
    0.8600   -1.7070    0.4600 C   0  0  0  0  0  0  0  0  0  0  0  0
    0.0780   -0.8640    1.3720 C   0  0  0  0  0  0  0  0  0  0  0  0
   -1.3310   -0.7990    1.0120 C   0  0  0  0  0  0  0  0  0  0  0  0
   -2.2580   -1.2010    1.7970 O   0  0  0  0  0  0  0  0  0  0  0  0
   -1.8310   -0.2830   -0.2490 N   0  0  0  0  0  0  0  0  0  0  0  0
   -3.0560   -0.8130   -0.8050 C   0  0  0  0  0  0  0  0  0  0  0  0
   -4.2940   -0.1810   -0.3530 C   0  0  0  0  0  0  0  0  0  0  0  0
   -5.2020   -0.9470    0.2990 C   0  0  0  0  0  0  0  0  0  0  0  0
   -6.4290   -0.1660    0.7070 C   0  0  0  0  0  0  0  0  0  0  0  0
   -5.9290    1.0810    1.4000 C   0  0  0  0  0  0  0  0  0  0  0  0
   -5.0550    1.8370    0.6560 O   0  0  0  0  0  0  0  0  0  0  0  0
   -4.6860    1.2160   -0.5420 C   0  0  0  0  0  0  0  0  0  0  0  0
   -1.0980    0.7250   -0.9700 C   0  0  0  0  0  0  0  0  0  0  0  0
   -0.3120    0.1210   -2.1240 C   0  0  1  0  0  0  0  0  0  0  0  0
   -0.8190    0.5540   -3.3550 O   0  0  0  0  0  0  0  0  0  0  0  0
    1.1370    0.5520   -2.0760 C   0  0  0  0  0  0  0  0  0  0  0  0
    1.4830    1.0800   -0.8140 O   0  0  0  0  0  0  0  0  0  0  0  0
    2.6950    1.4770   -0.5420 N   0  0  0  0  0  0  0  0  0  0  0  0
    3.6580    1.1350    0.2070 C   0  0  0  0  0  0  0  0  0  0  0  0
    4.7100    2.1600   -0.1070 C   0  0  0  0  0  0  0  0  0  0  0  0
    6.0060    2.1740    0.1350 C   0  0  0  0  0  0  0  0  0  0  0  0
    6.8560    1.1920    0.7930 C   0  0  0  0  0  0  0  0  0  0  0  0
    6.5180    0.3510    1.7320 C   0  0  0  0  0  0  0  0  0  0  0  0
    4.9460    0.0840    2.5440 S   0  0  0  0  0  0  0  0  0  0  0  0
    3.7590    0.0290    1.1300 C   0  0  0  0  0  0  0  0  0  0  0  0
    3.1870   -1.1480    1.1800 C   0  0  0  0  0  0  0  0  0  0  0  0
  1  2  1  0
  2  3  2  0
  2 28  1  0
  3  4  1  0
  4  5  1  0
  5  6  2  0
  5  7  1  0
  7  8  1  0
  7 15  1  0
  8  9  1  0
  9 10  2  0
  9 14  1  0
 10 11  1  0
 11 12  1  0
 12 13  1  0
 13 14  1  0
 15 16  1  0
 16 17  1  6
 16 18  1  0
 18 19  1  0
 19 20  1  0
 20 21  2  0
 21 22  1  0
 21 27  1  0
 22 23  2  0
 23 24  1  0
 24 25  2  0
 25 26  1  0
 26 27  1  0
 27 28  2  0
M  END
