
     RDKit          3D

 28 31  0  0  0  0  0  0  0  0999 V2000
   -1.1850   -1.1430   -2.3140 C   0  0  0  0  0  0  0  0  0  0  0  0
   -1.0270   -1.2840   -0.8110 C   0  0  1  0  0  0  0  0  0  0  0  0
   -0.6970   -2.7900   -0.6700 C   0  0  0  0  0  0  0  0  0  0  0  0
    0.0970   -0.6750   -0.2570 O   0  0  0  0  0  0  0  0  0  0  0  0
    1.4050   -0.8700   -0.5040 C   0  0  0  0  0  0  0  0  0  0  0  0
    1.7360   -1.7230   -1.3630 O   0  0  0  0  0  0  0  0  0  0  0  0
    2.4970   -0.1510    0.1640 C   0  0  0  0  0  0  0  0  0  0  0  0
    2.2650    0.8100    1.1270 C   0  0  0  0  0  0  0  0  0  0  0  0
    3.2640    1.5010    1.7720 C   0  0  0  0  0  0  0  0  0  0  0  0
    4.5790    1.2250    1.4450 C   0  0  0  0  0  0  0  0  0  0  0  0
    4.7990    0.2660    0.4840 C   0  0  0  0  0  0  0  0  0  0  0  0
    3.7930   -0.3880   -0.1220 N   0  0  0  0  0  0  0  0  0  0  0  0
    6.2670    0.1550    0.3150 C   0  0  0  0  0  0  0  0  0  0  0  0
    6.8600    1.0890    1.2170 N   0  0  0  0  0  0  0  0  0  0  0  0
    5.8430    1.7630    1.9270 C   0  0  0  0  0  0  0  0  0  0  0  0
    5.9780    2.6700    2.8210 O   0  0  0  0  0  0  0  0  0  0  0  0
   -2.2610   -1.1020   -0.0620 C   0  0  0  0  0  0  0  0  0  0  0  0
   -2.6870   -2.0140    0.8340 C   0  0  0  0  0  0  0  0  0  0  0  0
   -3.8680   -2.0470    1.6810 C   0  0  0  0  0  0  0  0  0  0  0  0
   -4.9930   -1.3740    1.5670 C   0  0  0  0  0  0  0  0  0  0  0  0
   -5.2870   -0.4380    0.5430 O   0  0  0  0  0  0  0  0  0  0  0  0
   -4.3290    0.4130   -0.0480 C   0  0  0  0  0  0  0  0  0  0  0  0
   -4.8740    1.6280   -0.3580 C   0  0  0  0  0  0  0  0  0  0  0  0
   -4.0500    2.5810   -0.9460 C   0  0  0  0  0  0  0  0  0  0  0  0
   -2.7380    2.3470   -1.2200 C   0  0  0  0  0  0  0  0  0  0  0  0
   -1.7070    3.5730   -1.9690 S   0  0  0  0  0  0  0  0  0  0  0  0
   -2.1870    1.1030   -0.9010 C   0  0  0  0  0  0  0  0  0  0  0  0
   -2.9820    0.1540   -0.3230 C   0  0  0  0  0  0  0  0  0  0  0  0
  2  1  1  6
  2  3  1  0
  2  4  1  0
  2 17  1  0
  4  5  1  0
  5  6  2  0
  5  7  1  0
  7  8  2  0
  7 12  1  0
  8  9  1  0
  9 10  2  0
 10 11  1  0
 10 15  1  0
 11 12  2  0
 11 13  1  0
 13 14  1  0
 14 15  1  0
 15 16  2  0
 17 18  2  0
 17 28  1  0
 18 19  1  0
 19 20  2  0
 20 21  1  0
 21 22  1  0
 22 23  2  0
 22 28  1  0
 23 24  1  0
 24 25  2  0
 25 26  1  0
 25 27  1  0
 27 28  2  0
M  END
