
     RDKit          3D

 28 31  0  0  0  0  0  0  0  0999 V2000
    8.9500    1.9190    1.6420 O   0  0  0  0  0  0  0  0  0  0  0  0
    7.7500    1.6180    1.4500 C   0  0  0  0  0  0  0  0  0  0  0  0
    7.3130    0.5190    0.5900 C   0  0  0  0  0  0  0  0  0  0  0  0
    8.0920   -0.2980   -0.0940 C   0  0  0  0  0  0  0  0  0  0  0  0
    7.3050   -1.2330   -0.8090 N   0  0  0  0  0  0  0  0  0  0  0  0
    6.0530   -1.0320   -0.5980 C   0  0  0  0  0  0  0  0  0  0  0  0
    4.6710   -1.9690   -1.2910 S   0  0  0  0  0  0  0  0  0  0  0  0
    3.1600   -1.2750   -0.6770 C   0  0  0  0  0  0  0  0  0  0  0  0
    2.4740   -0.2700   -1.3010 C   0  0  0  0  0  0  0  0  0  0  0  0
    1.2900    0.2240   -0.7550 C   0  0  0  0  0  0  0  0  0  0  0  0
    0.7670   -0.2700    0.4180 C   0  0  0  0  0  0  0  0  0  0  0  0
   -0.4700    0.1880    1.0090 C   0  0  0  0  0  0  0  0  0  0  0  0
   -1.6530    0.1520    0.4320 C   0  0  0  0  0  0  0  0  0  0  0  0
   -1.9050   -0.3650   -0.8950 C   0  0  0  0  0  0  0  0  0  0  0  0
   -0.9930   -0.8660   -1.5990 O   0  0  0  0  0  0  0  0  0  0  0  0
   -3.2830   -0.3070   -1.4370 C   0  0  0  0  0  0  0  0  0  0  0  0
   -3.5150   -0.8100   -2.7230 O   0  0  0  0  0  0  0  0  0  0  0  0
   -4.2790    0.1980   -0.7500 C   0  0  0  0  0  0  0  0  0  0  0  0
   -5.6430    0.2470   -1.3080 C   0  0  0  0  0  0  0  0  0  0  0  0
   -6.5590   -0.3500   -0.2520 C   0  0  0  0  0  0  0  0  0  0  0  0
   -6.3780    0.2270    1.1070 C   0  0  0  0  0  0  0  0  0  0  0  0
   -5.2590    1.2460    1.2080 C   0  0  0  0  0  0  0  0  0  0  0  0
   -4.0590    0.7110    0.5540 N   0  0  0  0  0  0  0  0  0  0  0  0
   -2.8060    0.7180    1.1860 C   0  0  0  0  0  0  0  0  0  0  0  0
   -2.6570    1.1840    2.3450 O   0  0  0  0  0  0  0  0  0  0  0  0
    1.4990   -1.2940    1.0200 C   0  0  0  0  0  0  0  0  0  0  0  0
    2.6630   -1.8050    0.5180 C   0  0  0  0  0  0  0  0  0  0  0  0
    5.9220    0.1110    0.3190 C   0  0  0  0  0  0  0  0  0  0  0  0
  1  2  2  0
  2  3  1  0
  3  4  2  0
  3 28  1  0
  4  5  1  0
  5  6  2  0
  6  7  1  0
  6 28  1  0
  7  8  1  0
  8  9  2  0
  8 27  1  0
  9 10  1  0
 10 11  2  0
 11 12  1  0
 11 26  1  0
 12 13  2  3
 13 14  1  0
 13 24  1  0
 14 15  2  0
 14 16  1  0
 16 17  1  0
 16 18  2  0
 18 19  1  0
 18 23  1  0
 19 20  1  0
 20 21  1  0
 21 22  1  0
 22 23  1  0
 23 24  1  0
 24 25  2  0
 26 27  2  0
M  END
