
     RDKit          3D

 28 31  0  0  0  0  0  0  0  0999 V2000
    0.8930   -1.1420   -2.3490 C   0  0  0  0  0  0  0  0  0  0  0  0
    0.8690   -1.6880   -0.9200 C   0  0  0  0  0  0  0  0  0  0  0  0
    0.6440   -0.5970   -0.0200 N   0  0  0  0  0  0  0  0  0  0  0  0
    1.6110    0.2220    0.5490 C   0  0  0  0  0  0  0  0  0  0  0  0
    1.1040    1.1180    1.3750 O   0  0  0  0  0  0  0  0  0  0  0  0
    3.0340    0.3000    0.4290 C   0  0  0  0  0  0  0  0  0  0  0  0
    3.7680    1.1920    1.2430 C   0  0  0  0  0  0  0  0  0  0  0  0
    5.1310    1.3220    1.1510 C   0  0  0  0  0  0  0  0  0  0  0  0
    5.8570    0.5860    0.2570 C   0  0  0  0  0  0  0  0  0  0  0  0
    7.3320    0.7230    0.1550 C   0  0  0  0  0  0  0  0  0  0  0  0
    5.1940   -0.2850   -0.5470 C   0  0  0  0  0  0  0  0  0  0  0  0
    3.8000   -0.4140   -0.4490 C   0  0  0  0  0  0  0  0  0  0  0  0
   -0.7330   -0.3360    0.3460 C   0  0  0  0  0  0  0  0  0  0  0  0
   -0.9480    0.6630    1.0870 O   0  0  0  0  0  0  0  0  0  0  0  0
   -1.8840   -1.1310   -0.0710 C   0  0  1  0  0  0  0  0  0  0  0  0
   -2.0230   -2.2830    0.9020 C   0  0  0  0  0  0  0  0  0  0  0  0
   -2.3580   -1.7680    2.2710 C   0  0  0  0  0  0  0  0  0  0  0  0
   -1.7090   -2.1420    3.2420 O   0  0  0  0  0  0  0  0  0  0  0  0
   -3.4400   -0.8440    2.3850 N   0  0  0  0  0  0  0  0  0  0  0  0
   -3.7510   -0.0980    1.1910 C   0  0  0  0  0  0  0  0  0  0  0  0
   -4.8270    0.7840    1.2120 C   0  0  0  0  0  0  0  0  0  0  0  0
   -5.1700    1.4800    0.0530 C   0  0  0  0  0  0  0  0  0  0  0  0
   -4.5380    1.3740   -1.1100 C   0  0  0  0  0  0  0  0  0  0  0  0
   -3.4460    0.4820   -1.1360 C   0  0  0  0  0  0  0  0  0  0  0  0
   -3.0940   -0.2170    0.0120 C   0  0  0  0  0  0  0  0  0  0  0  0
   -4.9350    2.0680   -2.1380 C   0  0  0  0  0  0  0  0  0  0  0  0
   -6.0190    2.8920   -1.9410 O   0  0  0  0  0  0  0  0  0  0  0  0
   -6.4610    2.6110   -0.1330 S   0  0  0  0  0  0  0  0  0  0  0  0
  1  2  1  0
  2  3  1  0
  3  4  1  0
  3 13  1  0
  4  5  2  0
  4  6  1  0
  6  7  2  0
  6 12  1  0
  7  8  1  0
  8  9  2  0
  9 10  1  0
  9 11  1  0
 11 12  2  0
 13 14  2  0
 15 13  1  1
 15 16  1  0
 15 25  1  0
 16 17  1  0
 17 18  2  0
 17 19  1  0
 19 20  1  0
 20 21  2  0
 20 25  1  0
 21 22  1  0
 22 23  1  0
 22 28  2  0
 23 24  1  0
 23 26  2  0
 24 25  2  0
 26 27  1  0
 27 28  1  0
M  END
