
     RDKit          3D

 28 33  0  0  0  0  0  0  0  0999 V2000
    6.4420    1.0290    0.8560 O   0  0  0  0  0  0  0  0  0  0  0  0
    5.4060    0.3060    0.8160 C   0  0  0  0  0  0  0  0  0  0  0  0
    4.6130    0.1660    1.8750 N   0  0  0  0  0  0  0  0  0  0  0  0
    3.4910   -0.5950    1.8900 C   0  0  0  0  0  0  0  0  0  0  0  0
    2.7920   -0.6840    2.9220 O   0  0  0  0  0  0  0  0  0  0  0  0
    3.1410   -1.2480    0.7970 N   0  0  0  0  0  0  0  0  0  0  0  0
    1.9700   -2.0760    0.6710 C   0  0  0  0  0  0  0  0  0  0  0  0
    0.7810   -1.3420    0.1440 C   0  0  2  0  0  0  0  0  0  0  0  0
    0.2960   -0.1880    0.9610 C   0  0  0  0  0  0  0  0  0  0  0  0
   -1.1670   -0.1890    0.5870 C   0  0  0  0  0  0  0  0  0  0  0  0
   -2.1040    0.8360    0.6840 C   0  0  0  0  0  0  0  0  0  0  0  0
   -3.3930    0.5800    0.2710 C   0  0  0  0  0  0  0  0  0  0  0  0
   -3.7140   -0.6690   -0.2200 C   0  0  0  0  0  0  0  0  0  0  0  0
   -2.7730   -1.6730   -0.3080 C   0  0  0  0  0  0  0  0  0  0  0  0
   -1.4530   -1.4380    0.1050 C   0  0  0  0  0  0  0  0  0  0  0  0
   -0.3260   -2.2530    0.1260 O   0  0  0  0  0  0  0  0  0  0  0  0
   -5.0100   -0.6120   -0.5320 O   0  0  0  0  0  0  0  0  0  0  0  0
   -5.5080    0.5590   -0.2760 C   0  0  0  0  0  0  0  0  0  0  0  0
   -6.7770    1.1010   -0.4220 C   0  0  0  0  0  0  0  0  0  0  0  0
   -7.0510    2.4040   -0.0650 C   0  0  0  0  0  0  0  0  0  0  0  0
   -6.0680    3.2210    0.4530 C   0  0  0  0  0  0  0  0  0  0  0  0
   -4.8040    2.6900    0.6010 C   0  0  0  0  0  0  0  0  0  0  0  0
   -4.5260    1.3770    0.2430 C   0  0  0  0  0  0  0  0  0  0  0  0
    3.9250   -1.1310   -0.3070 C   0  0  0  0  0  0  0  0  0  0  0  0
    5.0620   -0.3800   -0.3720 C   0  0  0  0  0  0  0  0  0  0  0  0
    5.7860   -0.3860   -1.6390 C   0  0  0  0  0  0  0  0  0  0  0  0
    4.8380   -0.6240   -2.7900 C   0  0  0  0  0  0  0  0  0  0  0  0
    3.7400   -1.8560   -1.9570 S   0  0  0  0  0  0  0  0  0  0  0  0
  1  2  2  0
  2  3  1  0
  2 25  1  0
  3  4  1  0
  4  5  2  0
  4  6  1  0
  6  7  1  0
  6 24  1  0
  8  7  1  1
  8  9  1  0
  8 16  1  0
  9 10  1  0
 10 11  2  0
 10 15  1  0
 11 12  1  0
 12 13  2  0
 12 23  1  0
 13 14  1  0
 13 17  1  0
 14 15  2  0
 15 16  1  0
 17 18  1  0
 18 19  2  0
 18 23  1  0
 19 20  1  0
 20 21  2  0
 21 22  1  0
 22 23  2  0
 24 25  2  0
 24 28  1  0
 25 26  1  0
 26 27  1  0
 27 28  1  0
M  END
