
     RDKit          3D

 28 29  0  0  0  0  0  0  0  0999 V2000
   -8.1350    0.8870   -0.5600 C   0  0  0  0  0  0  0  0  0  0  0  0
   -6.7760    0.9510    0.0680 C   0  0  0  0  0  0  0  0  0  0  0  0
   -5.7260    0.2050   -0.1800 C   0  0  0  0  0  0  0  0  0  0  0  0
   -5.8620   -1.0830   -1.4230 Cl  0  0  0  0  0  0  0  0  0  0  0  0
   -4.5440    0.4750    0.5640 C   0  0  0  0  0  0  0  0  0  0  0  0
   -3.2720   -0.2840    0.3990 C   0  0  0  0  0  0  0  0  0  0  0  0
   -3.1800   -1.2220   -0.4260 O   0  0  0  0  0  0  0  0  0  0  0  0
   -2.1380   -0.0010    1.1350 O   0  0  0  0  0  0  0  0  0  0  0  0
   -0.9280   -0.6770    1.0200 C   0  0  0  0  0  0  0  0  0  0  0  0
   -0.3630   -0.5770   -0.3510 C   0  0  0  0  0  0  0  0  0  0  0  0
   -1.0290    0.0870   -1.2000 O   0  0  0  0  0  0  0  0  0  0  0  0
    0.8850   -1.2010   -0.7170 N   0  0  0  0  0  0  0  0  0  0  0  0
    1.6540   -1.9600    0.2310 C   0  0  0  0  0  0  0  0  0  0  0  0
    2.5560   -3.1030   -0.8540 S   0  0  0  0  0  0  0  0  0  0  0  0
    1.8420   -2.5510   -2.4300 C   0  0  0  0  0  0  0  0  0  0  0  0
    1.4600   -1.1260   -2.0210 C   0  0  2  0  0  0  0  0  0  0  0  0
    2.6570   -0.2820   -2.1430 C   0  0  0  0  0  0  0  0  0  0  0  0
    3.2850   -0.3450   -3.2480 O   0  0  0  0  0  0  0  0  0  0  0  0
    3.1810    0.5900   -1.1670 N   0  0  0  0  0  0  0  0  0  0  0  0
    4.3570    1.3430   -1.4320 C   0  0  0  0  0  0  0  0  0  0  0  0
    5.4600    1.2430   -0.7160 C   0  0  0  0  0  0  0  0  0  0  0  0
    5.5810    0.3670    0.3960 N   0  0  0  0  0  0  0  0  0  0  0  0
    5.8050    0.8200    1.7540 C   0  0  0  0  0  0  0  0  0  0  0  0
    5.4780   -1.0550    0.1760 C   0  0  0  0  0  0  0  0  0  0  0  0
   -4.5990    1.4540    1.4430 C   0  0  0  0  0  0  0  0  0  0  0  0
   -3.5130    1.9470    2.3530 C   0  0  0  0  0  0  0  0  0  0  0  0
   -6.2520    2.0820    1.3290 S   0  0  0  0  0  0  0  0  0  0  0  0
   -6.2890    3.5160    0.8270 O   0  0  0  0  0  0  0  0  0  0  0  0
  1  2  1  0
  2  3  2  0
 27  2  1  6
  3  4  1  0
  3  5  1  0
  5  6  1  0
  5 25  2  0
  6  7  2  0
  6  8  1  0
  8  9  1  0
  9 10  1  0
 10 11  2  0
 10 12  1  0
 12 13  1  0
 12 16  1  0
 13 14  1  0
 14 15  1  0
 15 16  1  0
 16 17  1  1
 17 18  2  0
 17 19  1  0
 19 20  1  0
 20 21  2  3
 21 22  1  0
 22 23  1  0
 22 24  1  0
 25 26  1  0
 25 27  1  0
 27 28  2  0
M  END
