
     RDKit          3D

 28 30  0  0  0  0  0  0  0  0999 V2000
   -3.7130    2.2730   -1.4350 C   0  0  0  0  0  0  0  0  0  0  0  0
   -2.9500    1.7130   -0.2690 C   0  0  2  0  0  0  0  0  0  0  0  0
   -2.7520    2.9670    0.6840 C   0  0  0  0  0  0  0  0  0  0  0  0
   -1.7250    3.7540   -0.0940 C   0  0  0  0  0  0  0  0  0  0  0  0
   -1.1700    2.8260   -1.1370 C   0  0  0  0  0  0  0  0  0  0  0  0
   -1.5710    1.4940   -0.5790 N   0  0  0  0  0  0  0  0  0  0  0  0
   -0.6270    0.4900   -0.3830 C   0  0  0  0  0  0  0  0  0  0  0  0
    0.6090    0.8990   -0.5550 O   0  0  0  0  0  0  0  0  0  0  0  0
   -0.7260   -0.8930   -0.0220 C   0  0  0  0  0  0  0  0  0  0  0  0
    0.4190   -1.6270    0.3540 N   0  0  0  0  0  0  0  0  0  0  0  0
    1.6380   -1.1540    0.8810 C   0  0  0  0  0  0  0  0  0  0  0  0
    1.8220    0.0400    1.0980 O   0  0  0  0  0  0  0  0  0  0  0  0
    2.7560   -2.1380    1.1880 C   0  0  0  0  0  0  0  0  0  0  0  0
    3.8750   -1.5120    1.6960 O   0  0  0  0  0  0  0  0  0  0  0  0
    4.6260   -0.5040    1.0210 C   0  0  0  0  0  0  0  0  0  0  0  0
    5.0620   -0.5950   -0.1910 C   0  0  0  0  0  0  0  0  0  0  0  0
    4.7660   -2.0510   -1.2020 Cl  0  0  0  0  0  0  0  0  0  0  0  0
    5.8010    0.5330   -0.7100 C   0  0  0  0  0  0  0  0  0  0  0  0
    6.5060    0.6190   -1.7190 O   0  0  0  0  0  0  0  0  0  0  0  0
    5.4760    1.8250    0.4480 S   0  0  0  0  0  0  0  0  0  0  0  0
    6.7180    2.5900    0.8220 O   0  0  0  0  0  0  0  0  0  0  0  0
    4.9230    0.7340    1.7720 C   0  0  0  0  0  0  0  0  0  0  0  0
   -1.7680   -1.6170   -0.4380 C   0  0  0  0  0  0  0  0  0  0  0  0
   -3.1090   -1.0040   -1.4930 S   0  0  0  0  0  0  0  0  0  0  0  0
   -4.0470   -2.4980   -1.5030 C   0  0  0  0  0  0  0  0  0  0  0  0
   -3.3960   -3.3370   -0.7530 C   0  0  0  0  0  0  0  0  0  0  0  0
   -2.2020   -2.9360   -0.1600 N   0  0  0  0  0  0  0  0  0  0  0  0
   -1.5060   -3.8570    0.7820 C   0  0  0  0  0  0  0  0  0  0  0  0
  2  1  1  6
  2  3  1  0
  2  6  1  0
  3  4  1  0
  4  5  1  0
  5  6  1  0
  6  7  1  0
  7  8  2  0
  7  9  1  0
  9 10  1  0
  9 23  2  3
 10 11  1  0
 11 12  2  0
 11 13  1  0
 13 14  1  0
 14 15  1  0
 15 16  2  0
 15 22  1  0
 16 17  1  0
 16 18  1  0
 18 19  2  0
 18 20  1  0
 20 21  2  0
 20 22  1  1
 23 24  1  0
 23 27  1  0
 24 25  1  0
 25 26  2  0
 26 27  1  0
 27 28  1  0
M  END
