
     RDKit          3D

 20 20  0  0  0  0  0  0  0  0999 V2000
    5.7300    1.2690    1.5550 C   0  0  0  0  0  0  0  0  0  0  0  0
    5.3930    0.0440    0.9910 O   0  0  0  0  0  0  0  0  0  0  0  0
    4.4460    0.1170    0.0200 C   0  0  1  0  0  0  0  0  0  0  0  0
    4.9200   -0.3270   -1.3430 C   0  0  0  0  0  0  0  0  0  0  0  0
    3.9370    0.0890   -2.2800 O   0  0  0  0  0  0  0  0  0  0  0  0
    2.5880   -0.0620   -1.9690 C   0  0  0  0  0  0  0  0  0  0  0  0
    1.7670   -0.2540   -2.9120 O   0  0  0  0  0  0  0  0  0  0  0  0
    2.0890   -0.0040   -0.5690 C   0  0  1  0  0  0  0  0  0  0  0  0
    0.8630   -0.7420   -0.4930 N   0  0  0  0  0  0  0  0  0  0  0  0
   -0.3330   -0.0720   -0.1140 C   0  0  0  0  0  0  0  0  0  0  0  0
   -0.3180    1.1380    0.1490 O   0  0  0  0  0  0  0  0  0  0  0  0
   -1.5740   -0.7590   -0.0240 N   0  0  0  0  0  0  0  0  0  0  0  0
   -2.8250   -0.2040    0.3370 C   0  0  2  0  0  0  0  0  0  0  0  0
   -3.8680   -1.3200    0.3210 C   0  0  0  0  0  0  0  0  0  0  0  0
   -5.1800   -0.8900    0.6710 N   0  0  0  0  0  0  0  0  0  0  0  0
   -3.2090    0.8640   -0.6980 C   0  0  0  0  0  0  0  0  0  0  0  0
   -3.3070    0.2720   -2.0190 N   0  0  0  0  0  0  0  0  0  0  0  0
   -2.8800    0.4510    1.6760 C   0  0  0  0  0  0  0  0  0  0  0  0
   -2.5740   -0.4440    2.7090 O   0  0  0  0  0  0  0  0  0  0  0  0
    3.1700   -0.6270    0.3260 C   0  0  0  0  0  0  0  0  0  0  0  0
  1  2  1  0
  3  2  1  1
  3  4  1  0
  3 20  1  0
  4  5  1  0
  5  6  1  0
  6  7  2  0
  6  8  1  0
  8  9  1  6
  8 20  1  0
  9 10  1  0
 10 11  2  0
 10 12  1  0
 12 13  1  0
 13 14  1  1
 13 16  1  0
 13 18  1  0
 14 15  1  0
 16 17  1  0
 18 19  1  0
M  CHG  2  15   1  17   1
M  END
