
     RDKit          3D

 28 30  0  0  0  0  0  0  0  0999 V2000
   -8.3870    1.0490    0.6520 C   0  0  0  0  0  0  0  0  0  0  0  0
   -6.8990    1.2180    0.5290 C   0  0  2  0  0  0  0  0  0  0  0  0
   -6.5390    2.2330   -0.5420 C   0  0  0  0  0  0  0  0  0  0  0  0
   -4.7900    1.7470   -0.8480 S   0  0  0  0  0  0  0  0  0  0  0  0
   -4.8880    0.0900   -0.1980 C   0  0  0  0  0  0  0  0  0  0  0  0
   -3.8780   -0.7260   -0.0550 C   0  0  0  0  0  0  0  0  0  0  0  0
   -2.5230   -0.5300   -0.3550 N   0  0  0  0  0  0  0  0  0  0  0  0
   -1.8050   -1.5550   -0.0820 C   0  0  0  0  0  0  0  0  0  0  0  0
   -0.3290   -1.7430   -0.2550 C   0  0  2  0  0  0  0  0  0  0  0  0
    0.2970   -2.0330    1.0990 C   0  0  0  0  0  0  0  0  0  0  0  0
    1.7020   -1.6040    0.8650 C   0  0  0  0  0  0  0  0  0  0  0  0
    2.6990   -1.9760    1.5350 O   0  0  0  0  0  0  0  0  0  0  0  0
    1.7220   -0.7080   -0.2390 N   0  0  0  0  0  0  0  0  0  0  0  0
    2.8900   -0.1340   -0.8740 C   0  0  0  0  0  0  0  0  0  0  0  0
    3.2840    1.1790   -0.2330 C   0  0  0  0  0  0  0  0  0  0  0  0
    4.7180    1.8700   -1.0220 S   0  0  1  0  0  0  0  0  0  0  0  0
    4.4160    1.9660   -2.5050 O   0  0  0  0  0  0  0  0  0  0  0  0
    5.0720    3.2020   -0.4710 O   0  0  0  0  0  0  0  0  0  0  0  0
    6.0870    0.7150   -0.8710 C   0  0  0  0  0  0  0  0  0  0  0  0
    6.4010    0.4530    0.5710 C   0  0  0  0  0  0  0  0  0  0  0  0
    7.4220   -0.4350    0.7100 O   0  0  0  0  0  0  0  0  0  0  0  0
    8.6110   -0.0250    0.1490 C   0  0  0  0  0  0  0  0  0  0  0  0
    9.0650    1.5220    0.9190 Cl  0  0  0  0  0  0  0  0  0  0  0  0
    0.3510   -0.4530   -0.6390 C   0  0  0  0  0  0  0  0  0  0  0  0
   -2.6340   -2.5820    0.4490 N   0  0  0  0  0  0  0  0  0  0  0  0
   -3.9680   -2.0960    0.4840 C   0  0  0  0  0  0  0  0  0  0  0  0
   -5.0230   -2.6740    0.8800 O   0  0  0  0  0  0  0  0  0  0  0  0
   -6.3160   -0.1100    0.1150 C   0  0  0  0  0  0  0  0  0  0  0  0
  2  1  1  6
  2  3  1  0
  2 28  1  0
  3  4  1  0
  4  5  1  0
  5  6  2  3
  5 28  1  0
  6  7  1  0
  6 26  1  0
  7  8  2  0
  9  8  1  1
  8 25  1  0
  9 10  1  0
  9 24  1  0
 10 11  1  0
 11 12  2  0
 11 13  1  0
 13 14  1  0
 13 24  1  0
 14 15  1  0
 16 15  1  1
 16 17  2  0
 16 18  2  0
 16 19  1  0
 19 20  1  0
 20 21  1  0
 21 22  1  0
 22 23  1  0
 25 26  1  0
 26 27  2  0
M  END
