
     RDKit          3D

 20 20  0  0  0  0  0  0  0  0999 V2000
    6.2850   -0.9580   -0.7720 C   0  0  0  0  0  0  0  0  0  0  0  0
    5.2800   -0.1180   -0.0610 C   0  0  2  0  0  0  0  0  0  0  0  0
    5.7430    0.0930    1.4100 C   0  0  0  0  0  0  0  0  0  0  0  0
    4.8050    0.8690    2.0650 O   0  0  0  0  0  0  0  0  0  0  0  0
    4.0190   -0.7680   -0.0540 N   0  0  0  0  0  0  0  0  0  0  0  0
    2.7830    0.0360   -0.3550 C   0  0  0  0  0  0  0  0  0  0  0  0
    2.9210    1.1840   -0.5800 O   0  0  0  0  0  0  0  0  0  0  0  0
    1.6700   -0.8270   -0.2920 N   0  0  0  0  0  0  0  0  0  0  0  0
    0.4420    0.4050   -0.4210 C   0  0  0  0  0  0  0  0  0  0  0  0
    0.8400    1.4810   -0.5090 O   0  0  0  0  0  0  0  0  0  0  0  0
   -0.8800   -0.1840   -0.3870 C   0  0  0  0  0  0  0  0  0  0  0  0
   -1.9350    0.8370   -0.4490 N   0  0  0  0  0  0  0  0  0  0  0  0
   -3.1570    0.2790    0.0180 C   0  0  1  0  0  0  0  0  0  0  0  0
   -3.6750    0.9820    1.2890 C   0  0  0  0  0  0  0  0  0  0  0  0
   -4.7160    0.0820    1.8200 C   0  0  0  0  0  0  0  0  0  0  0  0
   -5.1340    0.2390    2.9800 O   0  0  0  0  0  0  0  0  0  0  0  0
   -5.2090   -0.9130    1.0310 O   0  0  0  0  0  0  0  0  0  0  0  0
   -5.2480   -0.8540   -0.3850 C   0  0  0  0  0  0  0  0  0  0  0  0
   -4.3070    0.2450   -0.9140 C   0  0  2  0  0  0  0  0  0  0  0  0
   -4.0150   -0.0410   -2.2710 N   0  0  0  0  0  0  0  0  0  0  0  0
  2  1  1  6
  2  3  1  0
  2  5  1  0
  3  4  1  0
  5  6  1  0
  6  7  2  0
  6  8  1  0
  8  9  1  0
  9 10  2  0
  9 11  1  0
 11 12  1  0
 13 12  1  6
 13 14  1  0
 13 19  1  0
 14 15  1  0
 15 16  2  0
 15 17  1  0
 17 18  1  0
 18 19  1  0
 19 20  1  6
M  CHG  2  12   1  20   1
M  END
