
     RDKit          3D

 14 15  0  0  0  0  0  0  0  0999 V2000
   -4.0270    0.4840   -0.7360 C   0  0  0  0  0  0  0  0  0  0  0  0
   -2.6070    0.0760   -0.5810 C   0  0  0  0  0  0  0  0  0  0  0  0
   -2.0840   -0.9070   -0.0070 N   0  0  0  0  0  0  0  0  0  0  0  0
   -0.6900   -1.0620   -0.0050 C   0  0  1  0  0  0  0  0  0  0  0  0
   -0.1180   -0.4920   -1.2830 C   0  0  2  0  0  0  0  0  0  0  0  0
    1.1990   -0.1890   -1.2650 O   0  0  0  0  0  0  0  0  0  0  0  0
    1.5610    0.6570   -0.2520 C   0  0  2  0  0  0  0  0  0  0  0  0
    2.9930    1.1240   -0.3730 C   0  0  0  0  0  0  0  0  0  0  0  0
    3.8720    0.0500   -0.3410 O   0  0  0  0  0  0  0  0  0  0  0  0
    1.3180   -0.0360    1.0730 C   0  0  2  0  0  0  0  0  0  0  0  0
    1.9350   -1.2780    1.1330 O   0  0  0  0  0  0  0  0  0  0  0  0
   -0.1690   -0.2390    1.1680 C   0  0  2  0  0  0  0  0  0  0  0  0
   -0.5300   -0.8590    2.3570 O   0  0  0  0  0  0  0  0  0  0  0  0
   -1.2110    1.0040   -1.2930 S   0  0  0  0  0  0  0  0  0  0  0  0
  1  2  1  0
  2  3  2  0
  2 14  1  0
  4  3  1  6
  4  5  1  0
  4 12  1  0
  5  6  1  1
  5 14  1  0
  6  7  1  0
  7  8  1  6
  7 10  1  0
  8  9  1  0
 10 11  1  6
 10 12  1  0
 12 13  1  1
M  END
