
     RDKit          3D

 35 38  0  0  0  0  0  0  0  0999 V2000
   -3.9340    5.5050    1.5380 C   0  0  0  0  0  0  0  0  0  0  0  0
   -3.6470    4.2800    2.8470 S   0  0  0  0  0  0  0  0  0  0  0  0
   -3.2720    2.6630    2.0620 C   0  0  0  0  0  0  0  0  0  0  0  0
   -1.9710    2.8300    1.3590 C   0  0  0  0  0  0  0  0  0  0  0  0
   -1.5440    1.5650    0.6590 C   0  0  0  0  0  0  0  0  0  0  0  0
   -2.3070    0.4750    0.7170 C   0  0  0  0  0  0  0  0  0  0  0  0
   -1.8800   -0.7340    0.0360 C   0  0  0  0  0  0  0  0  0  0  0  0
   -2.6650   -1.8120    0.0230 C   0  0  0  0  0  0  0  0  0  0  0  0
   -2.3210   -2.9890   -0.6100 O   0  0  0  0  0  0  0  0  0  0  0  0
   -3.0760   -4.1270   -0.6630 C   0  0  0  0  0  0  0  0  0  0  0  0
   -2.6160   -5.3650   -1.3790 C   0  0  0  0  0  0  0  0  0  0  0  0
   -4.2590   -4.1200   -0.0520 C   0  0  0  0  0  0  0  0  0  0  0  0
   -4.7170   -2.9270    0.6450 C   0  0  0  0  0  0  0  0  0  0  0  0
   -3.9720   -1.8160    0.6930 C   0  0  0  0  0  0  0  0  0  0  0  0
   -4.6950   -0.8920    1.4230 O   0  0  0  0  0  0  0  0  0  0  0  0
   -5.9810   -1.3850    1.7300 C   0  0  0  0  0  0  0  0  0  0  0  0
   -5.9090   -2.7320    1.3340 O   0  0  0  0  0  0  0  0  0  0  0  0
   -0.6000   -0.7520   -0.7140 C   0  0  0  0  0  0  0  0  0  0  0  0
   -0.1010   -2.1050   -1.1590 C   0  0  0  0  0  0  0  0  0  0  0  0
    0.1730    0.2940   -0.8000 C   0  0  0  0  0  0  0  0  0  0  0  0
    1.4210    0.4340   -1.5070 C   0  0  0  0  0  0  0  0  0  0  0  0
    2.1260    1.5100   -1.3290 O   0  0  0  0  0  0  0  0  0  0  0  0
    1.9990   -0.4590   -2.4100 N   0  0  0  0  0  0  0  0  0  0  0  0
    3.2690   -0.2570   -3.0290 C   0  0  0  0  0  0  0  0  0  0  0  0
    4.4740   -0.2280   -2.1760 C   0  0  0  0  0  0  0  0  0  0  0  0
    4.4470    0.7800   -1.2260 O   0  0  0  0  0  0  0  0  0  0  0  0
    5.4730    0.9920   -0.3180 C   0  0  0  0  0  0  0  0  0  0  0  0
    6.6070    0.2020   -0.2970 C   0  0  0  0  0  0  0  0  0  0  0  0
    7.6290    0.4180    0.6120 C   0  0  0  0  0  0  0  0  0  0  0  0
    7.5500    1.4370    1.5370 C   0  0  0  0  0  0  0  0  0  0  0  0
    8.9560    1.7440    2.7970 Br  0  0  0  0  0  0  0  0  0  0  0  0
    6.4140    2.2260    1.5140 C   0  0  0  0  0  0  0  0  0  0  0  0
    5.3850    2.0150    0.6040 C   0  0  0  0  0  0  0  0  0  0  0  0
   -0.3140    1.5110   -0.0830 C   0  0  0  0  0  0  0  0  0  0  0  0
    0.3910    2.5570   -0.1250 O   0  0  0  0  0  0  0  0  0  0  0  0
  1  2  1  0
  2  3  1  0
  3  4  1  0
  4  5  1  0
  5  6  2  0
  5 34  1  0
  6  7  1  0
  7  8  2  3
  7 18  1  0
  8  9  1  0
  8 14  1  0
  9 10  1  0
 10 11  1  0
 10 12  2  0
 12 13  1  0
 13 14  2  0
 13 17  1  0
 14 15  1  0
 15 16  1  0
 16 17  1  0
 18 19  1  0
 18 20  2  0
 20 21  1  0
 20 34  1  0
 21 22  2  0
 21 23  1  0
 23 24  1  0
 24 25  1  0
 25 26  1  0
 26 27  1  0
 27 28  2  0
 27 33  1  0
 28 29  1  0
 29 30  2  0
 30 31  1  0
 30 32  1  0
 32 33  2  0
 34 35  2  0
M  END
