
     RDKit          3D

 35 39  0  0  0  0  0  0  0  0999 V2000
    5.8130    1.3600    3.4510 C   0  0  0  0  0  0  0  0  0  0  0  0
    5.7880    1.8820    2.1410 O   0  0  0  0  0  0  0  0  0  0  0  0
    4.8500    1.4060    1.2190 C   0  0  0  0  0  0  0  0  0  0  0  0
    3.9430    0.4480    1.5290 C   0  0  0  0  0  0  0  0  0  0  0  0
    3.0360    0.0170    0.5680 C   0  0  0  0  0  0  0  0  0  0  0  0
    3.0080    0.5170   -0.6990 C   0  0  0  0  0  0  0  0  0  0  0  0
    2.0990    0.1100   -1.7320 C   0  0  0  0  0  0  0  0  0  0  0  0
    1.1180   -0.8800   -1.4980 N   0  0  1  0  0  0  0  0  0  0  0  0
    1.5080   -2.1900   -1.1720 C   0  0  0  0  0  0  0  0  0  0  0  0
    0.7890   -2.9350   -0.1250 C   0  0  0  0  0  0  0  0  0  0  0  0
   -0.6580   -2.6250   -0.1410 C   0  0  0  0  0  0  0  0  0  0  0  0
   -1.0110   -1.3180   -0.4320 C   0  0  0  0  0  0  0  0  0  0  0  0
   -2.3640   -1.2380   -0.3730 C   0  0  0  0  0  0  0  0  0  0  0  0
   -3.2150   -0.0770   -0.5990 C   0  0  0  0  0  0  0  0  0  0  0  0
   -2.6800    1.0090   -0.8900 O   0  0  0  0  0  0  0  0  0  0  0  0
   -4.6300   -0.1380   -0.4990 N   0  0  0  0  0  0  0  0  0  0  0  0
   -5.4990    0.9980   -0.7170 C   0  0  0  0  0  0  0  0  0  0  0  0
   -5.5240    1.9570    0.4010 C   0  0  0  0  0  0  0  0  0  0  0  0
   -4.7380    3.0650    0.4140 C   0  0  0  0  0  0  0  0  0  0  0  0
   -4.7770    3.9590    1.4860 C   0  0  0  0  0  0  0  0  0  0  0  0
   -5.6170    3.7330    2.5550 C   0  0  0  0  0  0  0  0  0  0  0  0
   -6.4110    2.6160    2.5460 C   0  0  0  0  0  0  0  0  0  0  0  0
   -6.3610    1.7480    1.4840 C   0  0  0  0  0  0  0  0  0  0  0  0
   -2.8380   -2.4790   -0.0520 N   0  0  0  0  0  0  0  0  0  0  0  0
   -1.7940   -3.2780    0.0780 N   0  0  0  0  0  0  0  0  0  0  0  0
   -1.9210   -4.6750    0.4030 C   0  0  0  0  0  0  0  0  0  0  0  0
   -2.1020   -5.5790   -0.7750 C   0  0  0  0  0  0  0  0  0  0  0  0
   -1.0290   -5.4800   -1.6300 O   0  0  0  0  0  0  0  0  0  0  0  0
    0.0140   -0.3170   -0.7430 C   0  0  0  0  0  0  0  0  0  0  0  0
    3.9570    1.5060   -0.9890 C   0  0  0  0  0  0  0  0  0  0  0  0
    3.9950    2.0610   -2.2380 C   0  0  0  0  0  0  0  0  0  0  0  0
    4.9200    3.0390   -2.5490 C   0  0  0  0  0  0  0  0  0  0  0  0
    5.8290    3.4810   -1.6120 C   0  0  0  0  0  0  0  0  0  0  0  0
    5.7960    2.9250   -0.3500 C   0  0  0  0  0  0  0  0  0  0  0  0
    4.8580    1.9370   -0.0400 C   0  0  0  0  0  0  0  0  0  0  0  0
  1  2  1  0
  2  3  1  0
  3  4  2  0
  3 35  1  0
  4  5  1  0
  5  6  2  0
  6  7  1  0
  6 30  1  0
  8  7  1  1
  8  9  1  0
  8 29  1  0
  9 10  1  0
 10 11  1  0
 11 12  2  0
 11 25  1  0
 12 13  1  0
 12 29  1  0
 13 14  1  0
 13 24  2  0
 14 15  2  0
 14 16  1  0
 16 17  1  0
 17 18  1  0
 18 19  2  0
 18 23  1  0
 19 20  1  0
 20 21  2  0
 21 22  1  0
 22 23  2  0
 24 25  1  0
 25 26  1  0
 26 27  1  0
 27 28  1  0
 30 31  2  0
 30 35  1  0
 31 32  1  0
 32 33  2  0
 33 34  1  0
 34 35  2  0
M  CHG  1   8   1
M  END
