
     RDKit          3D

 35 38  0  0  0  0  0  0  0  0999 V2000
   -5.6240   -1.3130   -0.2640 C   0  0  0  0  0  0  0  0  0  0  0  0
   -5.1730    0.0820   -0.3290 C   0  0  0  0  0  0  0  0  0  0  0  0
   -6.0690    1.1100   -0.5540 C   0  0  0  0  0  0  0  0  0  0  0  0
   -5.5930    2.3950   -0.6050 C   0  0  0  0  0  0  0  0  0  0  0  0
   -6.7890    3.8720   -0.9150 Br  0  0  0  0  0  0  0  0  0  0  0  0
   -4.2530    2.6920   -0.4390 C   0  0  0  0  0  0  0  0  0  0  0  0
   -3.7890    4.0930   -0.5030 C   0  0  0  0  0  0  0  0  0  0  0  0
   -3.3790    1.6290   -0.2140 C   0  0  0  0  0  0  0  0  0  0  0  0
   -1.9360    1.9000   -0.0290 C   0  0  0  0  0  0  0  0  0  0  0  0
   -3.8140    0.3260   -0.1550 C   0  0  0  0  0  0  0  0  0  0  0  0
   -2.9120   -0.7640    0.0790 C   0  0  0  0  0  0  0  0  0  0  0  0
   -2.7110   -1.0900    1.3000 O   0  0  0  0  0  0  0  0  0  0  0  0
   -2.2480   -1.4900   -0.8760 O   0  0  0  0  0  0  0  0  0  0  0  0
   -1.4060   -2.5230   -0.4930 C   0  0  0  0  0  0  0  0  0  0  0  0
   -1.9090   -3.7960   -0.3010 C   0  0  0  0  0  0  0  0  0  0  0  0
   -1.0840   -4.8580    0.0850 C   0  0  0  0  0  0  0  0  0  0  0  0
    0.2660   -4.6590    0.2850 C   0  0  0  0  0  0  0  0  0  0  0  0
    0.7730   -3.3930    0.0950 C   0  0  0  0  0  0  0  0  0  0  0  0
   -0.0540   -2.3440   -0.2880 C   0  0  0  0  0  0  0  0  0  0  0  0
    0.4360   -1.0640   -0.4850 O   0  0  0  0  0  0  0  0  0  0  0  0
    1.7590   -0.6920   -0.3310 C   0  0  0  0  0  0  0  0  0  0  0  0
    2.2560   -0.2520    0.8770 C   0  0  0  0  0  0  0  0  0  0  0  0
    3.5730    0.1230    1.0460 C   0  0  0  0  0  0  0  0  0  0  0  0
    4.4580    0.0690   -0.0080 C   0  0  0  0  0  0  0  0  0  0  0  0
    5.8680    0.4720    0.1870 C   0  0  0  0  0  0  0  0  0  0  0  0
    6.0860    2.2270   -0.1350 S   0  0  0  0  0  0  0  0  0  0  0  0
    5.1920    3.1600    1.1180 C   0  0  0  0  0  0  0  0  0  0  0  0
    5.3430    4.6260    0.8990 C   0  0  0  0  0  0  0  0  0  0  0  0
    6.1230    5.0820   -0.2010 N   0  0  0  0  0  0  0  0  0  0  0  0
    4.7840    5.4290    1.6820 O   0  0  0  0  0  0  0  0  0  0  0  0
    3.9700   -0.3710   -1.2210 C   0  0  0  0  0  0  0  0  0  0  0  0
    2.6530   -0.7460   -1.3920 C   0  0  0  0  0  0  0  0  0  0  0  0
    0.8430   -5.8860    0.6630 O   0  0  0  0  0  0  0  0  0  0  0  0
   -0.2180   -6.7570    1.0640 C   0  0  0  0  0  0  0  0  0  0  0  0
   -1.3050   -6.2060    0.3450 O   0  0  0  0  0  0  0  0  0  0  0  0
  1  2  1  0
  2  3  2  0
  2 10  1  0
  3  4  1  0
  4  5  1  0
  4  6  2  0
  6  7  1  0
  6  8  1  0
  8  9  1  0
  8 10  2  0
 10 11  1  0
 11 12  2  0
 11 13  1  0
 13 14  1  0
 14 15  2  0
 14 19  1  0
 15 16  1  0
 16 17  2  0
 16 35  1  0
 17 18  1  0
 17 33  1  0
 18 19  2  0
 19 20  1  0
 20 21  1  0
 21 22  2  0
 21 32  1  0
 22 23  1  0
 23 24  2  0
 24 25  1  0
 24 31  1  0
 25 26  1  0
 26 27  1  0
 27 28  1  0
 28 29  1  0
 28 30  2  0
 31 32  2  0
 33 34  1  0
 34 35  1  0
M  END
