
     RDKit          3D

 35 38  0  0  0  0  0  0  0  0999 V2000
    8.2230   -1.6550   -0.2790 C   0  0  0  0  0  0  0  0  0  0  0  0
    7.3690   -1.4680    0.8690 N   0  0  0  0  0  0  0  0  0  0  0  0
    6.1740   -0.7240    0.7720 C   0  0  0  0  0  0  0  0  0  0  0  0
    5.3720   -0.5540    1.8920 C   0  0  0  0  0  0  0  0  0  0  0  0
    4.2030    0.1630    1.8400 C   0  0  0  0  0  0  0  0  0  0  0  0
    3.8450    0.7120    0.6390 C   0  0  0  0  0  0  0  0  0  0  0  0
    4.6270    0.5540   -0.4820 C   0  0  0  0  0  0  0  0  0  0  0  0
    4.2170    1.1470   -1.7560 C   0  0  0  0  0  0  0  0  0  0  0  0
    3.4080    0.2650   -2.6460 C   0  0  0  0  0  0  0  0  0  0  0  0
    2.2040   -0.1270   -2.0320 O   0  0  0  0  0  0  0  0  0  0  0  0
    1.2050    0.7260   -1.6210 C   0  0  0  0  0  0  0  0  0  0  0  0
    1.3760    1.9590   -1.8070 O   0  0  0  0  0  0  0  0  0  0  0  0
   -0.0020    0.2030   -0.9950 C   0  0  0  0  0  0  0  0  0  0  0  0
   -0.1640   -1.1320   -0.8080 C   0  0  0  0  0  0  0  0  0  0  0  0
   -1.3080   -1.6130   -0.2120 C   0  0  0  0  0  0  0  0  0  0  0  0
   -2.3260   -0.7320    0.2130 C   0  0  0  0  0  0  0  0  0  0  0  0
   -3.3940   -1.3770    0.8970 C   0  0  0  0  0  0  0  0  0  0  0  0
   -4.1150   -2.3740    0.3440 C   0  0  0  0  0  0  0  0  0  0  0  0
   -3.7400   -2.9820   -1.4120 Br  0  0  0  0  0  0  0  0  0  0  0  0
   -5.1980   -2.9880    1.1160 C   0  0  0  0  0  0  0  0  0  0  0  0
   -6.7750   -2.8120    0.3090 S   0  0  1  0  0  0  0  0  0  0  0  0
   -7.1510   -1.3530    0.1820 O   0  0  0  0  0  0  0  0  0  0  0  0
   -6.7240   -3.4830   -1.0220 O   0  0  0  0  0  0  0  0  0  0  0  0
   -7.9360   -3.5390    1.2630 O   0  0  0  0  0  0  0  0  0  0  0  0
   -2.1480    0.5890    0.0130 C   0  0  0  0  0  0  0  0  0  0  0  0
   -0.9860    1.0770   -0.5900 C   0  0  0  0  0  0  0  0  0  0  0  0
   -0.7730    2.4210   -0.8030 O   0  0  0  0  0  0  0  0  0  0  0  0
   -1.5910    3.4310   -0.2970 C   0  0  0  0  0  0  0  0  0  0  0  0
   -2.8790    2.9040    0.2190 C   0  0  0  0  0  0  0  0  0  0  0  0
   -3.8580    3.8580    0.5200 C   0  0  0  0  0  0  0  0  0  0  0  0
   -5.0730    3.4600    1.0170 C   0  0  0  0  0  0  0  0  0  0  0  0
   -5.3450    2.1370    1.2240 C   0  0  0  0  0  0  0  0  0  0  0  0
   -4.3750    1.1630    0.9270 C   0  0  0  0  0  0  0  0  0  0  0  0
   -3.1690    1.5700    0.4350 C   0  0  0  0  0  0  0  0  0  0  0  0
    5.8200   -0.1800   -0.4200 C   0  0  0  0  0  0  0  0  0  0  0  0
  1  2  1  0
  2  3  1  0
  3  4  2  0
  3 35  1  0
  4  5  1  0
  5  6  2  0
  6  7  1  0
  7  8  1  0
  7 35  2  0
  8  9  1  0
  9 10  1  0
 10 11  1  0
 11 12  2  0
 11 13  1  0
 13 14  2  0
 13 26  1  0
 14 15  1  0
 15 16  2  0
 16 17  1  0
 16 25  1  0
 17 18  2  3
 18 19  1  0
 18 20  1  0
 20 21  1  0
 21 22  2  0
 21 23  2  0
 21 24  1  1
 25 26  2  0
 25 34  1  0
 26 27  1  0
 27 28  1  0
 28 29  1  0
 29 30  2  0
 29 34  1  0
 30 31  1  0
 31 32  2  0
 32 33  1  0
 33 34  2  0
M  END
