
     RDKit          3D

 35 38  0  0  0  0  0  0  0  0999 V2000
    3.5990    3.5720    3.4470 C   0  0  0  0  0  0  0  0  0  0  0  0
    2.9970    2.1630    3.3910 C   0  0  0  0  0  0  0  0  0  0  0  0
    2.2280    1.5890    5.0060 Br  0  0  0  0  0  0  0  0  0  0  0  0
    3.0810    1.5680    2.2360 C   0  0  0  0  0  0  0  0  0  0  0  0
    2.6570    0.2870    1.7810 C   0  0  0  0  0  0  0  0  0  0  0  0
    2.8340   -0.1070    0.5360 C   0  0  0  0  0  0  0  0  0  0  0  0
    3.4550    0.6460   -0.5340 C   0  0  0  0  0  0  0  0  0  0  0  0
    4.6830   -0.1740   -0.9910 C   0  0  0  0  0  0  0  0  0  0  0  0
    5.3910    0.5510   -2.1140 C   0  0  0  0  0  0  0  0  0  0  0  0
    6.5810   -0.2890   -2.5250 C   0  0  2  0  0  0  0  0  0  0  0  0
    7.4650    0.1850   -3.6180 C   0  0  0  0  0  0  0  0  0  0  0  0
    6.4860   -0.9330   -3.9000 C   0  0  0  0  0  0  0  0  0  0  0  0
    1.9050   -0.8810    2.8840 S   0  0  1  0  0  0  0  0  0  0  0  0
    2.1300   -2.2900    2.2820 O   0  0  0  0  0  0  0  0  0  0  0  0
    2.6120   -0.9190    4.1730 O   0  0  0  0  0  0  0  0  0  0  0  0
    0.1800   -0.6230    3.0540 C   0  0  0  0  0  0  0  0  0  0  0  0
   -0.5360   -0.7680    1.6980 C   0  0  0  0  0  0  0  0  0  0  0  0
   -1.8940   -0.5460    1.9400 O   0  0  0  0  0  0  0  0  0  0  0  0
   -2.8680   -0.5940    0.9520 C   0  0  0  0  0  0  0  0  0  0  0  0
   -2.5140   -0.8680   -0.3340 C   0  0  0  0  0  0  0  0  0  0  0  0
   -3.4520   -0.9280   -1.3630 C   0  0  0  0  0  0  0  0  0  0  0  0
   -3.0490   -1.2280   -2.7530 C   0  0  0  0  0  0  0  0  0  0  0  0
   -4.7900   -0.6990   -1.0640 C   0  0  0  0  0  0  0  0  0  0  0  0
   -5.1710   -0.4170    0.2390 C   0  0  0  0  0  0  0  0  0  0  0  0
   -4.2010   -0.3700    1.2210 C   0  0  0  0  0  0  0  0  0  0  0  0
   -4.5930   -0.0840    2.5430 N   0  0  0  0  0  0  0  0  0  0  0  0
   -6.5590   -0.1690    0.6080 C   0  0  0  0  0  0  0  0  0  0  0  0
   -6.9100    0.0860    1.7790 O   0  0  0  0  0  0  0  0  0  0  0  0
   -7.5490   -0.2320   -0.4810 C   0  0  0  0  0  0  0  0  0  0  0  0
   -8.9190   -0.0560   -0.5100 C   0  0  0  0  0  0  0  0  0  0  0  0
   -9.3300   -0.2190   -1.7310 O   0  0  0  0  0  0  0  0  0  0  0  0
   -8.3440   -0.4940   -2.5490 C   0  0  0  0  0  0  0  0  0  0  0  0
   -7.1820   -0.5110   -1.7800 C   0  0  0  0  0  0  0  0  0  0  0  0
   -5.7730   -0.7560   -2.1190 C   0  0  0  0  0  0  0  0  0  0  0  0
   -5.4960   -1.0080   -3.3280 O   0  0  0  0  0  0  0  0  0  0  0  0
  1  2  1  0
  2  3  1  0
  2  4  2  3
  4  5  1  0
  5  6  2  3
  5 13  1  0
  6  7  1  0
  7  8  1  0
  8  9  1  0
 10  9  1  6
 10 11  1  0
 10 12  1  0
 11 12  1  0
 13 14  2  0
 13 15  2  0
 13 16  1  1
 16 17  1  0
 17 18  1  0
 18 19  1  0
 19 20  2  0
 19 25  1  0
 20 21  1  0
 21 22  1  0
 21 23  2  0
 23 24  1  0
 23 34  1  0
 24 25  2  0
 24 27  1  0
 25 26  1  0
 27 28  2  0
 27 29  1  0
 29 30  2  0
 29 33  1  0
 30 31  1  0
 31 32  1  0
 32 33  2  0
 33 34  1  0
 34 35  2  0
M  END
