
     RDKit          3D

 34 38  0  0  0  0  0  0  0  0999 V2000
   -6.0510    3.0700   -0.4430 C   0  0  0  0  0  0  0  0  0  0  0  0
   -5.3050    3.8870    0.3710 O   0  0  0  0  0  0  0  0  0  0  0  0
   -4.5450    3.1780    1.3180 C   0  0  0  0  0  0  0  0  0  0  0  0
   -3.6180    2.2750    0.6100 C   0  0  0  0  0  0  0  0  0  0  0  0
   -3.7640    0.9860    0.4020 C   0  0  0  0  0  0  0  0  0  0  0  0
   -2.8170    0.2130   -0.2860 C   0  0  0  0  0  0  0  0  0  0  0  0
   -1.6150    0.5540   -0.8620 C   0  0  0  0  0  0  0  0  0  0  0  0
   -0.8500   -0.4250   -1.4970 C   0  0  0  0  0  0  0  0  0  0  0  0
    0.6710   -0.0320   -2.2370 S   0  0  2  0  0  0  0  0  0  0  0  0
    0.5830    1.3880   -2.7270 O   0  0  0  0  0  0  0  0  0  0  0  0
    0.9240   -0.8850   -3.4560 O   0  0  0  0  0  0  0  0  0  0  0  0
    2.0020   -0.1740   -1.1780 N   0  0  0  0  0  0  0  0  0  0  0  0
    2.2070   -1.4940   -0.6700 C   0  0  0  0  0  0  0  0  0  0  0  0
    3.0370   -1.4350    0.6210 C   0  0  0  0  0  0  0  0  0  0  0  0
    3.9070   -0.3010    0.4760 N   0  0  0  0  0  0  0  0  0  0  0  0
    5.2870   -0.4360    0.2610 C   0  0  0  0  0  0  0  0  0  0  0  0
    5.9470   -1.6250    0.1130 C   0  0  0  0  0  0  0  0  0  0  0  0
    7.3260   -1.7250   -0.0990 C   0  0  0  0  0  0  0  0  0  0  0  0
    8.0630   -0.5690   -0.1640 C   0  0  0  0  0  0  0  0  0  0  0  0
    9.7980   -0.5830   -0.4260 Cl  0  0  0  0  0  0  0  0  0  0  0  0
    7.3880    0.6230   -0.0140 C   0  0  0  0  0  0  0  0  0  0  0  0
    8.1510    1.9150   -0.0770 C   0  0  0  0  0  0  0  0  0  0  0  0
    6.0640    0.6880    0.1890 N   0  0  0  0  0  0  0  0  0  0  0  0
    3.2540    1.0100    0.5650 C   0  0  0  0  0  0  0  0  0  0  0  0
    1.9050    0.8470   -0.1500 C   0  0  0  0  0  0  0  0  0  0  0  0
   -1.3090   -1.7270   -1.5410 C   0  0  0  0  0  0  0  0  0  0  0  0
   -2.5180   -2.0220   -0.9510 C   0  0  0  0  0  0  0  0  0  0  0  0
   -3.3090   -1.0700   -0.3080 C   0  0  0  0  0  0  0  0  0  0  0  0
   -4.4870   -1.1060    0.3240 N   0  0  0  0  0  0  0  0  0  0  0  0
   -5.4670   -1.9540    0.6640 C   0  0  0  0  0  0  0  0  0  0  0  0
   -5.4850   -3.4050    0.3470 C   0  0  0  0  0  0  0  0  0  0  0  0
   -6.4270   -1.2400    1.3440 C   0  0  0  0  0  0  0  0  0  0  0  0
   -6.0180    0.0930    1.4220 C   0  0  0  0  0  0  0  0  0  0  0  0
   -4.7880    0.1460    0.7690 C   0  0  0  0  0  0  0  0  0  0  0  0
  1  2  1  0
  2  3  1  0
  3  4  1  0
  4  5  2  3
  5  6  1  0
  5 34  1  0
  6  7  2  0
  6 28  1  0
  7  8  1  0
  8  9  1  0
  8 26  2  0
  9 10  2  0
  9 11  2  0
  9 12  1  1
 12 13  1  0
 12 25  1  0
 13 14  1  0
 14 15  1  0
 15 16  1  0
 15 24  1  0
 16 17  2  0
 16 23  1  0
 17 18  1  0
 18 19  2  0
 19 20  1  0
 19 21  1  0
 21 22  1  0
 21 23  2  0
 24 25  1  0
 26 27  1  0
 27 28  2  0
 28 29  1  0
 29 30  1  0
 29 34  1  0
 30 31  1  0
 30 32  2  0
 32 33  1  0
 33 34  2  0
M  END
