
     RDKit          3D

 33 37  0  0  0  0  0  0  0  0999 V2000
   -0.4340   -0.8400    0.7470 C   0  0  0  0  0  0  0  0  0  0  0  0
   -0.3400    0.6410    0.7010 C   0  0  0  0  0  0  0  0  0  0  0  0
    1.0110    1.1380    0.5270 C   0  0  0  0  0  0  0  0  0  0  0  0
    1.1380    2.3930    0.2400 O   0  0  0  0  0  0  0  0  0  0  0  0
    2.2450    0.4890    0.6180 N   0  0  0  0  0  0  0  0  0  0  0  0
    2.5300   -0.8550    0.9530 C   0  0  0  0  0  0  0  0  0  0  0  0
    3.9990   -0.9940    1.4860 C   0  0  0  0  0  0  0  0  0  0  0  0
    4.8700   -0.6780    0.3560 N   0  0  0  0  0  0  0  0  0  0  0  0
    5.9820   -1.4980    0.0650 C   0  0  2  0  0  0  0  0  0  0  0  0
    7.3240   -0.7650   -0.0310 C   0  0  0  0  0  0  0  0  0  0  0  0
    7.7090   -1.7690   -1.0980 C   0  0  0  0  0  0  0  0  0  0  0  0
    6.2030   -1.9660   -1.3330 C   0  0  0  0  0  0  0  0  0  0  0  0
    4.4730    0.4930   -0.3710 C   0  0  0  0  0  0  0  0  0  0  0  0
    4.9930    0.7100   -1.4780 O   0  0  0  0  0  0  0  0  0  0  0  0
    3.4630    1.3210    0.3120 C   0  0  0  0  0  0  0  0  0  0  0  0
   -1.3660    1.4770    0.6560 C   0  0  0  0  0  0  0  0  0  0  0  0
   -1.1010    2.9580    0.6400 C   0  0  0  0  0  0  0  0  0  0  0  0
   -1.3970    3.4090   -0.7530 C   0  0  0  0  0  0  0  0  0  0  0  0
   -2.8790    3.1780   -0.9090 C   0  0  0  0  0  0  0  0  0  0  0  0
   -3.5330    2.4310    0.2050 C   0  0  0  0  0  0  0  0  0  0  0  0
   -2.7910    1.1470    0.5960 C   0  0  1  0  0  0  0  0  0  0  0  0
   -3.2370    0.0820   -0.2450 N   0  0  0  0  0  0  0  0  0  0  0  0
   -2.8360   -0.0320   -1.5970 C   0  0  0  0  0  0  0  0  0  0  0  0
   -1.6660    0.3720   -1.7840 O   0  0  0  0  0  0  0  0  0  0  0  0
   -3.5550   -0.5380   -2.8030 C   0  0  0  0  0  0  0  0  0  0  0  0
   -5.3460   -0.3960   -2.5830 S   0  0  0  0  0  0  0  0  0  0  0  0
   -5.9800   -1.4600   -1.3220 C   0  0  0  0  0  0  0  0  0  0  0  0
   -5.3080   -1.4520   -0.0130 C   0  0  0  0  0  0  0  0  0  0  0  0
   -6.0350   -2.2550    0.8580 C   0  0  0  0  0  0  0  0  0  0  0  0
   -5.6590   -2.4370    2.1490 C   0  0  0  0  0  0  0  0  0  0  0  0
   -4.5500   -1.8080    2.5590 N   0  0  0  0  0  0  0  0  0  0  0  0
   -3.8210   -1.0280    1.7550 C   0  0  0  0  0  0  0  0  0  0  0  0
   -4.1670   -0.8070    0.4140 C   0  0  0  0  0  0  0  0  0  0  0  0
  1  2  1  0
  2  3  1  0
  2 16  2  3
  3  4  2  0
  3  5  1  0
  5  6  1  0
  5 15  1  0
  6  7  1  0
  7  8  1  0
  9  8  1  6
  8 13  1  0
  9 10  1  0
  9 12  1  0
 10 11  1  0
 11 12  1  0
 13 14  2  0
 13 15  1  0
 16 17  1  0
 16 21  1  0
 17 18  1  0
 18 19  1  0
 19 20  1  0
 20 21  1  0
 21 22  1  6
 22 23  1  0
 22 33  1  0
 23 24  2  0
 23 25  1  0
 25 26  1  0
 26 27  1  0
 27 28  1  0
 28 29  2  0
 28 33  1  0
 29 30  1  0
 30 31  2  0
 31 32  1  0
 32 33  2  0
M  END
