
     RDKit          3D

 34 36  0  0  0  0  0  0  0  0999 V2000
   -1.2500   -0.2460    2.0040 C   0  0  0  0  0  0  0  0  0  0  0  0
   -2.2240   -1.3190    1.6700 C   0  0  0  0  0  0  0  0  0  0  0  0
   -3.4650   -0.8640    1.1030 N   0  0  0  0  0  0  0  0  0  0  0  0
   -4.4660   -1.8480    0.7800 C   0  0  0  0  0  0  0  0  0  0  0  0
   -3.6760    0.5100    0.8700 C   0  0  0  0  0  0  0  0  0  0  0  0
   -4.6530    1.1050    1.6870 C   0  0  0  0  0  0  0  0  0  0  0  0
   -4.9340    2.4470    1.5660 C   0  0  0  0  0  0  0  0  0  0  0  0
   -5.9750    3.0520    2.4450 C   0  0  0  0  0  0  0  0  0  0  0  0
   -4.2360    3.1770    0.6300 C   0  0  0  0  0  0  0  0  0  0  0  0
   -4.5130    4.6160    0.4750 C   0  0  0  0  0  0  0  0  0  0  0  0
   -3.2680    2.5940   -0.1830 C   0  0  0  0  0  0  0  0  0  0  0  0
   -2.9910    1.2570   -0.0590 C   0  0  0  0  0  0  0  0  0  0  0  0
   -2.0030    0.6120   -0.9090 C   0  0  0  0  0  0  0  0  0  0  0  0
   -1.2820    1.2450   -1.8000 C   0  0  0  0  0  0  0  0  0  0  0  0
   -0.3070    0.5700   -2.6290 C   0  0  0  0  0  0  0  0  0  0  0  0
    0.3800    1.2250   -3.4870 O   0  0  0  0  0  0  0  0  0  0  0  0
   -0.0110   -0.8180   -2.5970 N   0  0  0  0  0  0  0  0  0  0  0  0
    0.9760   -1.4310   -3.4560 C   0  0  2  0  0  0  0  0  0  0  0  0
    0.3780   -2.4590   -4.3830 C   0  0  0  0  0  0  0  0  0  0  0  0
    0.6600   -3.8060   -3.7740 C   0  0  0  0  0  0  0  0  0  0  0  0
    1.5100   -3.5790   -2.5370 C   0  0  0  0  0  0  0  0  0  0  0  0
    2.0420   -2.1940   -2.7620 C   0  0  2  0  0  0  0  0  0  0  0  0
    2.5670   -1.5630   -1.5700 N   0  0  0  0  0  0  0  0  0  0  0  0
    3.4030   -0.4710   -1.9610 C   0  0  0  0  0  0  0  0  0  0  0  0
    4.1670    0.1290   -0.8030 C   0  0  0  0  0  0  0  0  0  0  0  0
    4.9340    1.0920   -1.0450 O   0  0  0  0  0  0  0  0  0  0  0  0
    4.0310   -0.3640    0.5040 N   0  0  0  0  0  0  0  0  0  0  0  0
    4.6970    0.1180    1.6520 C   0  0  0  0  0  0  0  0  0  0  0  0
    4.3510   -0.4440    2.8830 C   0  0  0  0  0  0  0  0  0  0  0  0
    4.9450   -0.0510    4.0610 C   0  0  0  0  0  0  0  0  0  0  0  0
    5.9190    0.9210    4.0950 C   0  0  0  0  0  0  0  0  0  0  0  0
    6.5290    1.3280    5.2760 O   0  0  0  0  0  0  0  0  0  0  0  0
    6.2750    1.4860    2.8950 C   0  0  0  0  0  0  0  0  0  0  0  0
    5.6650    1.0810    1.6990 C   0  0  0  0  0  0  0  0  0  0  0  0
  1  2  1  0
  2  3  1  0
  3  4  1  0
  3  5  1  0
  5  6  2  0
  5 12  1  0
  6  7  1  0
  7  8  1  0
  7  9  2  0
  9 10  1  0
  9 11  1  0
 11 12  2  0
 12 13  1  0
 13 14  2  3
 14 15  1  0
 15 16  2  0
 15 17  1  0
 18 17  1  1
 18 19  1  0
 18 22  1  0
 19 20  1  0
 20 21  1  0
 21 22  1  0
 22 23  1  1
 23 24  1  0
 24 25  1  0
 25 26  2  0
 25 27  1  0
 27 28  1  0
 28 29  2  0
 28 34  1  0
 29 30  1  0
 30 31  2  0
 31 32  1  0
 31 33  1  0
 33 34  2  0
M  CHG  1  23   1
M  END
