
     RDKit          3D

 34 36  0  0  0  0  0  0  0  0999 V2000
    2.7300   -3.6860    1.2290 C   0  0  0  0  0  0  0  0  0  0  0  0
    2.3880   -3.1030   -0.1260 C   0  0  0  0  0  0  0  0  0  0  0  0
    2.1830   -1.6960   -0.1370 N   0  0  0  0  0  0  0  0  0  0  0  0
    0.9690   -1.0480    0.0260 C   0  0  0  0  0  0  0  0  0  0  0  0
    1.0710    0.2580    0.1000 O   0  0  0  0  0  0  0  0  0  0  0  0
   -0.3990   -1.5520    0.1240 C   0  0  2  0  0  0  0  0  0  0  0  0
   -1.3280   -0.4000    0.2450 N   0  0  0  0  0  0  0  0  0  0  0  0
   -2.7150   -0.5370    0.3660 C   0  0  0  0  0  0  0  0  0  0  0  0
   -3.2020   -1.6810    0.3760 O   0  0  0  0  0  0  0  0  0  0  0  0
   -3.6130    0.5600    0.4810 N   0  0  0  0  0  0  0  0  0  0  0  0
   -5.0200    0.3230    0.6000 C   0  0  0  0  0  0  0  0  0  0  0  0
   -5.8170    1.6040    0.7110 C   0  0  1  0  0  0  0  0  0  0  0  0
   -5.6490    2.4940   -0.4720 C   0  0  0  0  0  0  0  0  0  0  0  0
   -6.9790    3.1320   -0.8050 C   0  0  0  0  0  0  0  0  0  0  0  0
   -7.9330    2.0330   -1.2250 C   0  0  0  0  0  0  0  0  0  0  0  0
   -7.9510    0.9400   -0.1880 C   0  0  2  0  0  0  0  0  0  0  0  0
   -9.3650    0.6450    0.2680 C   0  0  0  0  0  0  0  0  0  0  0  0
   -7.1950    1.3430    0.9920 N   0  0  0  0  0  0  0  0  0  0  0  0
   -0.6460   -2.5050    1.2480 C   0  0  0  0  0  0  0  0  0  0  0  0
   -1.0070   -3.8310    0.6690 C   0  0  0  0  0  0  0  0  0  0  0  0
   -1.2550   -3.6370   -0.8050 C   0  0  0  0  0  0  0  0  0  0  0  0
   -0.7610   -2.2800   -1.1740 C   0  0  0  0  0  0  0  0  0  0  0  0
    3.3720   -0.8910   -0.3000 C   0  0  0  0  0  0  0  0  0  0  0  0
    3.6800   -0.3780   -1.5340 C   0  0  0  0  0  0  0  0  0  0  0  0
    4.7870    0.3890   -1.7620 C   0  0  0  0  0  0  0  0  0  0  0  0
    5.6840    0.6950   -0.7150 C   0  0  0  0  0  0  0  0  0  0  0  0
    6.8240    1.5210   -0.9900 C   0  0  0  0  0  0  0  0  0  0  0  0
    7.8560    1.8290   -0.2930 C   0  0  0  0  0  0  0  0  0  0  0  0
    8.9200    2.7540   -0.8730 C   0  0  1  0  0  0  0  0  0  0  0  0
    9.2590    3.7460    0.2190 C   0  0  0  0  0  0  0  0  0  0  0  0
   10.0760    2.0360   -1.1680 O   0  0  0  0  0  0  0  0  0  0  0  0
    5.3580    0.1740    0.5140 C   0  0  0  0  0  0  0  0  0  0  0  0
    6.1950    0.4590    1.7190 C   0  0  0  0  0  0  0  0  0  0  0  0
    4.2130   -0.6150    0.7270 C   0  0  0  0  0  0  0  0  0  0  0  0
  1  2  1  0
  2  3  1  0
  3  4  1  0
  3 23  1  0
  4  5  2  0
  4  6  1  0
  6  7  1  1
  6 19  1  0
  6 22  1  0
  7  8  1  0
  8  9  2  0
  8 10  1  0
 10 11  1  0
 12 11  1  6
 12 13  1  0
 12 18  1  0
 13 14  1  0
 14 15  1  0
 15 16  1  0
 16 17  1  1
 16 18  1  0
 19 20  1  0
 20 21  1  0
 21 22  1  0
 23 24  2  0
 23 34  1  0
 24 25  1  0
 25 26  2  0
 26 27  1  0
 26 32  1  0
 27 28  2  3
 28 29  1  0
 29 30  1  1
 29 31  1  0
 32 33  1  0
 32 34  2  0
M  CHG  1  18   1
M  END
