
     RDKit          3D

 35 37  0  0  0  0  0  0  0  0999 V2000
   -9.2490   -0.1620   -3.6550 C   0  0  0  0  0  0  0  0  0  0  0  0
   -9.6630   -0.2940   -2.2920 N   0  0  0  0  0  0  0  0  0  0  0  0
   -8.8820   -0.5580   -1.1930 C   0  0  0  0  0  0  0  0  0  0  0  0
   -7.5560   -0.9300   -1.1320 C   0  0  0  0  0  0  0  0  0  0  0  0
   -6.8460   -1.0920    0.0140 C   0  0  0  0  0  0  0  0  0  0  0  0
   -7.3770   -0.8950    1.3040 C   0  0  0  0  0  0  0  0  0  0  0  0
   -6.8850   -1.0110    2.4910 O   0  0  0  0  0  0  0  0  0  0  0  0
   -5.7760   -1.3980    3.0490 C   0  0  0  0  0  0  0  0  0  0  0  0
   -4.4260   -0.9100    2.9030 C   0  0  0  0  0  0  0  0  0  0  0  0
   -3.6150   -0.3450    3.6620 N   0  0  0  0  0  0  0  0  0  0  0  0
   -2.4250   -0.0740    3.4620 C   0  0  0  0  0  0  0  0  0  0  0  0
   -1.5250    0.6070    4.5220 C   0  0  0  0  0  0  0  0  0  0  0  0
   -0.9110    1.0920    5.2460 N   0  0  0  0  0  0  0  0  0  0  0  0
   -1.8300   -0.3860    2.3000 C   0  0  0  0  0  0  0  0  0  0  0  0
   -0.6800   -0.3910    1.6630 N   0  0  0  0  0  0  0  0  0  0  0  0
    0.4260   -0.3950    1.2850 C   0  0  0  0  0  0  0  0  0  0  0  0
    1.8110   -0.4090    1.7110 C   0  0  0  0  0  0  0  0  0  0  0  0
    2.4170   -0.3090    2.8100 C   0  0  0  0  0  0  0  0  0  0  0  0
    2.0120   -0.1220    4.1860 C   0  0  0  0  0  0  0  0  0  0  0  0
    3.9900   -0.2370    2.6750 C   0  0  0  0  0  0  0  0  0  0  0  0
    4.2540   -0.2110    1.2790 N   0  0  0  0  0  0  0  0  0  0  0  0
    3.7750    0.9840    0.5210 C   0  0  0  0  0  0  0  0  0  0  0  0
    3.2570    1.8370    1.2460 O   0  0  0  0  0  0  0  0  0  0  0  0
    3.9670    1.0010   -0.9040 C   0  0  0  0  0  0  0  0  0  0  0  0
    4.8200   -0.4400   -1.5970 S   0  0  0  0  0  0  0  0  0  0  0  0
    6.6020   -0.3760   -1.4270 C   0  0  0  0  0  0  0  0  0  0  0  0
    7.1050    0.5950   -2.4650 C   0  0  0  0  0  0  0  0  0  0  0  0
    7.9430    0.4030   -3.4660 C   0  0  0  0  0  0  0  0  0  0  0  0
    8.0740    1.5130   -4.3930 C   0  0  0  0  0  0  0  0  0  0  0  0
    9.1510    1.3970   -5.4550 C   0  0  0  0  0  0  0  0  0  0  0  0
    7.3710    2.6150   -4.1680 C   0  0  0  0  0  0  0  0  0  0  0  0
    6.4530    2.2140   -2.6520 S   0  0  0  0  0  0  0  0  0  0  0  0
   -3.3370   -1.2030    1.4500 S   0  0  0  0  0  0  0  0  0  0  0  0
   -8.7560   -0.5130    1.1470 C   0  0  0  0  0  0  0  0  0  0  0  0
   -9.4300   -0.3570    0.1080 N   0  0  0  0  0  0  0  0  0  0  0  0
  1  2  1  0
  2  3  1  0
  3  4  2  0
  3 35  1  0
  4  5  1  0
  5  6  2  0
  6  7  1  0
  6 34  1  0
  7  8  1  0
  8  9  1  0
  9 10  2  0
  9 33  1  0
 10 11  1  0
 11 12  1  0
 11 14  2  0
 12 13  3  0
 14 15  1  0
 14 33  1  0
 15 16  2  3
 16 17  1  0
 17 18  2  3
 18 19  1  0
 18 20  1  0
 20 21  1  0
 21 22  1  0
 22 23  2  0
 22 24  1  0
 24 25  1  0
 25 26  1  0
 26 27  1  0
 27 28  2  0
 27 32  1  0
 28 29  1  0
 29 30  1  0
 29 31  2  0
 31 32  1  0
 34 35  2  0
M  END
