
     RDKit          3D

 34 36  0  0  0  0  0  0  0  0999 V2000
   -5.6670   -0.0340   -0.8570 C   0  0  0  0  0  0  0  0  0  0  0  0
   -4.6480   -0.4740    0.1860 C   0  0  2  0  0  0  0  0  0  0  0  0
   -3.9180    0.5600    0.8520 C   0  0  0  0  0  0  0  0  0  0  0  0
   -3.0320    1.5510    0.2440 C   0  0  1  0  0  0  0  0  0  0  0  0
   -1.8160    1.0580   -0.4920 C   0  0  0  0  0  0  0  0  0  0  0  0
   -3.7390    2.6410   -0.5450 C   0  0  0  0  0  0  0  0  0  0  0  0
   -2.4370    2.3350    1.4460 C   0  0  0  0  0  0  0  0  0  0  0  0
   -3.9490   -1.6590   -0.4270 C   0  0  1  0  0  0  0  0  0  0  0  0
   -3.2780   -1.3560   -1.6880 C   0  0  0  0  0  0  0  0  0  0  0  0
   -2.2050   -1.9780   -2.0700 C   0  0  0  0  0  0  0  0  0  0  0  0
   -1.6010   -3.0220   -1.2380 C   0  0  0  0  0  0  0  0  0  0  0  0
   -0.3870   -3.7560   -1.6620 C   0  0  0  0  0  0  0  0  0  0  0  0
    0.7500   -2.8780   -1.8700 N   0  0  0  0  0  0  0  0  0  0  0  0
    1.2680   -2.0690   -0.8050 C   0  0  0  0  0  0  0  0  0  0  0  0
    0.6900   -2.1660    0.2880 O   0  0  0  0  0  0  0  0  0  0  0  0
    2.3620   -1.2090   -0.9600 N   0  0  0  0  0  0  0  0  0  0  0  0
    2.9420   -0.3670    0.0170 C   0  0  0  0  0  0  0  0  0  0  0  0
    2.3920   -0.1220    1.2400 C   0  0  0  0  0  0  0  0  0  0  0  0
    3.0150    0.7120    2.1890 C   0  0  0  0  0  0  0  0  0  0  0  0
    4.2120    1.2830    1.8480 C   0  0  0  0  0  0  0  0  0  0  0  0
    4.8180    1.0730    0.6250 C   0  0  0  0  0  0  0  0  0  0  0  0
    6.0900    1.6990    0.2580 C   0  0  0  0  0  0  0  0  0  0  0  0
    7.1560    0.9150   -0.1760 C   0  0  0  0  0  0  0  0  0  0  0  0
    8.3610    1.5010   -0.4950 C   0  0  0  0  0  0  0  0  0  0  0  0
    8.4740    2.8390   -0.3750 N   0  0  0  0  0  0  0  0  0  0  0  0
    7.4790    3.6150    0.0350 C   0  0  0  0  0  0  0  0  0  0  0  0
    6.2550    3.0550    0.3620 C   0  0  0  0  0  0  0  0  0  0  0  0
    5.2430    3.8930    0.7800 O   0  0  0  0  0  0  0  0  0  0  0  0
    4.1720    0.2520   -0.2680 C   0  0  0  0  0  0  0  0  0  0  0  0
   -2.1630   -3.2970   -0.0970 C   0  0  0  0  0  0  0  0  0  0  0  0
   -3.3660   -2.6580    0.4780 C   0  0  1  0  0  0  0  0  0  0  0  0
   -2.9870   -2.1760    1.8050 N   0  0  0  0  0  0  0  0  0  0  0  0
   -3.8130   -2.4560    2.9190 C   0  0  0  0  0  0  0  0  0  0  0  0
   -4.8750   -3.1180    2.7670 O   0  0  0  0  0  0  0  0  0  0  0  0
  2  1  1  6
  2  3  1  0
  2  8  1  0
  3  4  1  0
  4  5  1  6
  4  6  1  0
  4  7  1  0
  8  9  1  1
  8 31  1  0
  9 10  2  0
 10 11  1  0
 11 12  1  0
 11 30  2  0
 12 13  1  0
 13 14  1  0
 14 15  2  0
 14 16  1  0
 16 17  1  0
 17 18  2  0
 17 29  1  0
 18 19  1  0
 19 20  2  0
 20 21  1  0
 21 22  1  0
 21 29  2  0
 22 23  2  0
 22 27  1  0
 23 24  1  0
 24 25  2  0
 25 26  1  0
 26 27  2  0
 27 28  1  0
 30 31  1  0
 31 32  1  1
 32 33  1  0
 33 34  2  0
M  CHG  1  25   1
M  END
