
     RDKit          3D

 34 36  0  0  0  0  0  0  0  0999 V2000
    4.1490    2.3970    2.3670 C   0  0  0  0  0  0  0  0  0  0  0  0
    4.8520    2.4710    1.0630 C   0  0  0  0  0  0  0  0  0  0  0  0
    4.3190    1.8610    0.0210 C   0  0  0  0  0  0  0  0  0  0  0  0
    3.0350    1.1030    0.1160 C   0  0  2  0  0  0  0  0  0  0  0  0
    3.2690   -0.3790   -0.2020 C   0  0  0  0  0  0  0  0  0  0  0  0
    2.3990   -1.2340    0.6430 C   0  0  0  0  0  0  0  0  0  0  0  0
    0.9990   -1.4410    0.1920 C   0  0  2  0  0  0  0  0  0  0  0  0
    0.7260   -2.5830   -0.5840 N   0  0  0  0  0  0  0  0  0  0  0  0
    0.9570   -3.8220    0.1090 C   0  0  0  0  0  0  0  0  0  0  0  0
    0.4580   -5.0480   -0.5410 C   0  0  0  0  0  0  0  0  0  0  0  0
   -0.1290   -4.7480   -1.8310 N   0  0  0  0  0  0  0  0  0  0  0  0
    0.8760   -4.0040   -2.5690 C   0  0  0  0  0  0  0  0  0  0  0  0
    1.0070   -2.6030   -1.9640 C   0  0  0  0  0  0  0  0  0  0  0  0
    0.3850   -0.1450   -0.2260 C   0  0  2  0  0  0  0  0  0  0  0  0
   -1.0520   -0.2520   -0.4410 N   0  0  0  0  0  0  0  0  0  0  0  0
   -2.0260    0.3550    0.3840 C   0  0  0  0  0  0  0  0  0  0  0  0
   -1.6230    1.0300    1.3690 O   0  0  0  0  0  0  0  0  0  0  0  0
   -3.4910    0.2200    0.1270 C   0  0  0  0  0  0  0  0  0  0  0  0
   -3.7780   -0.4670   -0.8780 O   0  0  0  0  0  0  0  0  0  0  0  0
   -4.4280    0.8230    0.9560 N   0  0  0  0  0  0  0  0  0  0  0  0
   -5.8140    0.7440    0.7660 C   0  0  0  0  0  0  0  0  0  0  0  0
   -6.6170    1.0990    1.8510 C   0  0  0  0  0  0  0  0  0  0  0  0
   -7.9620    1.0630    1.7240 C   0  0  0  0  0  0  0  0  0  0  0  0
   -8.5580    0.6810    0.5410 C   0  0  0  0  0  0  0  0  0  0  0  0
  -10.0480    0.6510    0.4360 C   0  0  0  0  0  0  0  0  0  0  0  0
   -7.7620    0.3340   -0.5170 C   0  0  0  0  0  0  0  0  0  0  0  0
   -8.4010   -0.0740   -1.7830 C   0  0  0  0  0  0  0  0  0  0  0  0
   -6.3770    0.3640   -0.4100 C   0  0  0  0  0  0  0  0  0  0  0  0
    1.0400    0.5910   -1.3330 C   0  0  0  0  0  0  0  0  0  0  0  0
    1.9910    1.6570   -0.7950 C   0  0  0  0  0  0  0  0  0  0  0  0
    6.1230    3.2080    0.9150 C   0  0  0  0  0  0  0  0  0  0  0  0
    7.1960    2.6330    1.8190 C   0  0  0  0  0  0  0  0  0  0  0  0
    8.4900    3.3810    1.6700 C   0  0  0  0  0  0  0  0  0  0  0  0
    9.4120    2.7850    2.5310 O   0  0  0  0  0  0  0  0  0  0  0  0
  1  2  1  0
  2  3  2  3
  2 31  1  0
  4  3  1  6
  4  5  1  0
  4 30  1  0
  5  6  1  0
  6  7  1  0
  7  8  1  6
  7 14  1  0
  8  9  1  0
  8 13  1  0
  9 10  1  0
 10 11  1  0
 11 12  1  0
 12 13  1  0
 14 15  1  6
 14 29  1  0
 15 16  1  0
 16 17  2  0
 16 18  1  0
 18 19  2  0
 18 20  1  0
 20 21  1  0
 21 22  2  0
 21 28  1  0
 22 23  1  0
 23 24  2  0
 24 25  1  0
 24 26  1  0
 26 27  1  0
 26 28  2  0
 29 30  1  0
 31 32  1  0
 32 33  1  0
 33 34  1  0
M  CHG  1  11   1
M  END
