
     RDKit          3D

 24 25  0  0  0  0  0  0  0  0999 V2000
    1.0700    1.1000   -1.3890 C   0  0  0  0  0  0  0  0  0  0  0  0
    0.9130    0.0040   -0.3670 C   0  0  1  0  0  0  0  0  0  0  0  0
    2.1850   -0.8160   -0.3540 C   0  0  1  0  0  0  0  0  0  0  0  0
    2.1830   -1.7840    0.6330 O   0  0  0  0  0  0  0  0  0  0  0  0
    2.3380   -1.4640   -1.5920 O   0  0  0  0  0  0  0  0  0  0  0  0
    3.3630    0.1140   -0.1880 C   0  0  0  0  0  0  0  0  0  0  0  0
    4.6500   -0.6580   -0.1630 C   0  0  0  0  0  0  0  0  0  0  0  0
    4.5910   -1.9020   -0.2770 O   0  0  0  0  0  0  0  0  0  0  0  0
    5.8380   -0.0030   -0.0210 O   0  0  0  0  0  0  0  0  0  0  0  0
    7.3560   -0.8380    0.0160 S   0  0  0  0  0  0  0  0  0  0  0  0
    8.3440    0.0600    0.7710 O   0  0  0  0  0  0  0  0  0  0  0  0
    0.7810    0.6560    0.9280 N   0  0  0  0  0  0  0  0  0  0  0  0
   -0.4420    1.3470    1.1300 C   0  0  0  0  0  0  0  0  0  0  0  0
   -0.5120    2.2420    2.0040 O   0  0  0  0  0  0  0  0  0  0  0  0
   -1.5700    0.9760    0.3020 N   0  0  0  0  0  0  0  0  0  0  0  0
   -2.8930    1.4250    0.3120 C   0  0  0  0  0  0  0  0  0  0  0  0
   -3.1860    2.6480    0.5190 O   0  0  0  0  0  0  0  0  0  0  0  0
   -3.9060    0.3960    0.0720 C   0  0  2  0  0  0  0  0  0  0  0  0
   -4.7360    0.0490    1.2750 C   0  0  0  0  0  0  0  0  0  0  0  0
   -5.7300   -1.0170    0.8810 C   0  0  0  0  0  0  0  0  0  0  0  0
   -6.5520   -0.5410   -0.1390 O   0  0  0  0  0  0  0  0  0  0  0  0
   -2.8540   -1.0240   -0.4300 S   0  0  0  0  0  0  0  0  0  0  0  0
   -1.3190   -0.0250   -0.7170 C   0  0  2  0  0  0  0  0  0  0  0  0
   -0.2080   -0.7780   -0.5260 O   0  0  0  0  0  0  0  0  0  0  0  0
  2  1  1  6
  2  3  1  0
  2 12  1  0
  2 24  1  0
  3  4  1  1
  3  5  1  0
  3  6  1  0
  6  7  1  0
  7  8  2  0
  7  9  1  0
  9 10  1  0
 10 11  2  0
 12 13  1  0
 13 14  2  0
 13 15  1  0
 15 16  1  0
 15 23  1  0
 16 17  2  0
 16 18  1  0
 18 19  1  1
 18 22  1  0
 19 20  1  0
 20 21  1  0
 22 23  1  0
 23 24  1  1
M  END
