
     RDKit          3D

 24 24  0  0  0  0  0  0  0  0999 V2000
    3.6470   -2.5570   -0.8760 C   0  0  0  0  0  0  0  0  0  0  0  0
    2.9190   -1.5420    0.4510 S   0  0  0  0  0  0  0  0  0  0  0  0
    2.6630    0.1120   -0.2160 C   0  0  2  0  0  0  0  0  0  0  0  0
    1.7010    0.0710   -1.2100 O   0  0  0  0  0  0  0  0  0  0  0  0
    3.9800    0.5500   -0.8610 C   0  0  0  0  0  0  0  0  0  0  0  0
    3.6130    1.6160   -1.7510 O   0  0  0  0  0  0  0  0  0  0  0  0
    2.5490    2.4080   -1.2770 C   0  0  0  0  0  0  0  0  0  0  0  0
    1.8190    3.0490   -2.0820 O   0  0  0  0  0  0  0  0  0  0  0  0
    2.2840    2.4880    0.1900 C   0  0  0  0  0  0  0  0  0  0  0  0
    2.3480    1.1310    0.8560 C   0  0  2  0  0  0  0  0  0  0  0  0
    3.4490    1.1460    1.7210 O   0  0  0  0  0  0  0  0  0  0  0  0
    1.1130    0.8160    1.5980 C   0  0  0  0  0  0  0  0  0  0  0  0
    1.1610    0.6040    2.8370 O   0  0  0  0  0  0  0  0  0  0  0  0
   -0.1410    0.7440    0.9520 N   0  0  0  0  0  0  0  0  0  0  0  0
   -1.3760    0.4320    1.6760 C   0  0  1  0  0  0  0  0  0  0  0  0
   -2.3370    1.6250    1.5770 C   0  0  0  0  0  0  0  0  0  0  0  0
   -2.0520   -0.6910    0.9860 C   0  0  0  0  0  0  0  0  0  0  0  0
   -1.5430   -1.1980   -0.0380 O   0  0  0  0  0  0  0  0  0  0  0  0
   -3.2470   -1.1990    1.4530 O   0  0  0  0  0  0  0  0  0  0  0  0
   -3.9800   -2.2410    0.9020 C   0  0  0  0  0  0  0  0  0  0  0  0
   -4.5290   -1.9660   -0.7420 S   0  0  1  0  0  0  0  0  0  0  0  0
   -5.5410   -0.5520   -0.7590 N   0  0  0  0  0  0  0  0  0  0  0  0
   -3.4370   -1.7890   -1.7230 O   0  0  0  0  0  0  0  0  0  0  0  0
   -5.4060   -3.1380   -1.1560 O   0  0  0  0  0  0  0  0  0  0  0  0
  1  2  1  0
  2  3  1  0
  3  4  1  6
  3  5  1  0
  3 10  1  0
  5  6  1  0
  6  7  1  0
  7  8  2  0
  7  9  1  0
  9 10  1  0
 10 11  1  1
 10 12  1  0
 12 13  2  0
 12 14  1  0
 14 15  1  0
 15 16  1  6
 15 17  1  0
 17 18  2  0
 17 19  1  0
 19 20  1  0
 20 21  1  0
 21 22  1  1
 21 23  2  0
 21 24  2  0
M  END
