
     RDKit          3D

 25 25  0  0  0  0  0  0  0  0999 V2000
    6.1430   -0.5090   -1.7870 C   0  0  0  0  0  0  0  0  0  0  0  0
    5.2920   -0.2660   -0.5480 C   0  0  1  0  0  0  0  0  0  0  0  0
    6.0210    0.6880    0.3660 C   0  0  0  0  0  0  0  0  0  0  0  0
    5.2720    0.9800    1.5910 C   0  0  0  0  0  0  0  0  0  0  0  0
    4.1550    0.4450    1.7750 O   0  0  0  0  0  0  0  0  0  0  0  0
    5.7420    1.8310    2.5690 O   0  0  0  0  0  0  0  0  0  0  0  0
    3.9980    0.1720   -0.8930 O   0  0  0  0  0  0  0  0  0  0  0  0
    2.8450   -0.5830   -0.6570 C   0  0  0  0  0  0  0  0  0  0  0  0
    2.9830   -1.6980   -0.1200 O   0  0  0  0  0  0  0  0  0  0  0  0
    1.5520   -0.0610   -1.0360 N   0  0  0  0  0  0  0  0  0  0  0  0
    0.4290   -0.8550   -0.7810 N   0  0  0  0  0  0  0  0  0  0  0  0
   -0.8030   -0.5070   -1.3840 C   0  0  0  0  0  0  0  0  0  0  0  0
   -0.8720    0.4940   -2.1260 O   0  0  0  0  0  0  0  0  0  0  0  0
   -1.9910   -1.3180   -1.1400 C   0  0  2  0  0  0  0  0  0  0  0  0
   -3.1270   -0.8450   -1.8190 O   0  0  0  0  0  0  0  0  0  0  0  0
   -3.8780    0.0800   -1.1120 C   0  0  0  0  0  0  0  0  0  0  0  0
   -4.2580    1.1680   -1.6170 O   0  0  0  0  0  0  0  0  0  0  0  0
   -4.1510   -0.3740    0.2440 C   0  0  2  0  0  0  0  0  0  0  0  0
   -5.1640   -1.5360    0.2120 C   0  0  0  0  0  0  0  0  0  0  0  0
   -4.4980    0.5910    1.2860 C   0  0  0  0  0  0  0  0  0  0  0  0
   -5.9240    1.5620    1.0990 S   0  0  1  0  0  0  0  0  0  0  0  0
   -7.1710    0.7190    1.1870 O   0  0  0  0  0  0  0  0  0  0  0  0
   -6.0020    2.4830    2.3150 O   0  0  0  0  0  0  0  0  0  0  0  0
   -5.9060    2.5340   -0.2360 O   0  0  0  0  0  0  0  0  0  0  0  0
   -2.5440   -1.2130    0.5940 S   0  0  0  0  0  0  0  0  0  0  0  0
  2  1  1  6
  2  3  1  0
  2  7  1  0
  3  4  1  0
  4  5  2  0
  4  6  1  0
  7  8  1  0
  8  9  2  0
  8 10  1  0
 10 11  1  0
 11 12  1  0
 12 13  2  0
 14 12  1  1
 14 15  1  0
 14 25  1  0
 15 16  1  0
 16 17  2  0
 16 18  1  0
 18 19  1  6
 18 20  1  0
 18 25  1  0
 20 21  1  0
 21 22  2  0
 21 23  2  0
 21 24  1  6
M  END
