
     RDKit          3D

 12 13  0  0  0  0  0  0  0  0999 V2000
   -2.8450    1.2640   -0.2660 C   0  0  0  0  0  0  0  0  0  0  0  0
   -1.5020    0.6350   -0.1360 C   0  0  0  0  0  0  0  0  0  0  0  0
   -0.3590    1.3740   -0.3700 C   0  0  0  0  0  0  0  0  0  0  0  0
    0.9140    0.8330   -0.2610 C   0  0  0  0  0  0  0  0  0  0  0  0
    2.1620    1.3150   -0.4280 N   0  0  0  0  0  0  0  0  0  0  0  0
    3.0780    0.3580   -0.1960 C   0  0  0  0  0  0  0  0  0  0  0  0
    4.5070    0.4700   -0.2690 N   0  0  0  0  0  0  0  0  0  0  0  0
    2.3980   -0.7440    0.1220 N   0  0  0  0  0  0  0  0  0  0  0  0
    1.0760   -0.4910    0.0930 C   0  0  0  0  0  0  0  0  0  0  0  0
   -0.0730   -1.2450    0.3310 C   0  0  0  0  0  0  0  0  0  0  0  0
   -1.3300   -0.6860    0.2170 C   0  0  0  0  0  0  0  0  0  0  0  0
   -2.5150   -1.5430    0.4840 C   0  0  0  0  0  0  0  0  0  0  0  0
  1  2  1  0
  2  3  2  0
  2 11  1  0
  3  4  1  0
  4  5  1  0
  4  9  2  0
  5  6  2  0
  6  7  1  0
  6  8  1  0
  8  9  1  0
  9 10  1  0
 10 11  2  0
 11 12  1  0
M  END
