
     RDKit          3D

 24 24  0  0  0  0  0  0  0  0999 V2000
    2.2350    0.5640    0.6560 O   0  0  0  0  0  0  0  0  0  0  0  0
    2.3920   -0.4340    0.0280 C   0  0  0  0  0  0  0  0  0  0  0  0
    1.6020   -1.5280   -0.3210 N   0  0  0  0  0  0  0  0  0  0  0  0
    0.1200   -0.9170    0.3560 C   0  0  0  0  0  0  0  0  0  0  0  0
    0.2340    0.0530    0.9830 O   0  0  0  0  0  0  0  0  0  0  0  0
   -0.9550   -1.6500    0.0490 O   0  0  0  0  0  0  0  0  0  0  0  0
   -2.2630   -1.2320    0.5580 C   0  0  0  0  0  0  0  0  0  0  0  0
   -3.3580   -1.9970   -0.0810 C   0  0  0  0  0  0  0  0  0  0  0  0
   -4.6100   -1.5920    0.4040 O   0  0  0  0  0  0  0  0  0  0  0  0
   -4.8800   -0.2650    0.2350 C   0  0  2  0  0  0  0  0  0  0  0  0
   -4.9070    0.3230    1.5210 O   0  0  0  0  0  0  0  0  0  0  0  0
   -6.1380    0.1030   -0.4780 C   0  0  1  0  0  0  0  0  0  0  0  0
   -6.1080   -0.3940   -1.7750 O   0  0  0  0  0  0  0  0  0  0  0  0
   -7.4080   -0.2600    0.2430 C   0  0  0  0  0  0  0  0  0  0  0  0
   -7.3150    0.2680    1.5290 O   0  0  0  0  0  0  0  0  0  0  0  0
    3.7720   -0.6540   -0.5910 N   0  0  0  0  0  0  0  0  0  0  0  0
    4.7470    0.3230   -0.3740 C   0  0  2  0  0  0  0  0  0  0  0  0
    5.0210    1.3540   -1.8730 S   0  0  0  0  0  0  0  0  0  0  0  0
    6.7770    1.2620   -2.1870 C   0  0  0  0  0  0  0  0  0  0  0  0
    7.4400    0.9280   -0.8540 C   0  0  1  0  0  0  0  0  0  0  0  0
    7.2760    2.1080    0.0760 C   0  0  0  0  0  0  0  0  0  0  0  0
    6.4650    3.0360   -0.1490 O   0  0  0  0  0  0  0  0  0  0  0  0
    8.0420    2.2080    1.2490 O   0  0  0  0  0  0  0  0  0  0  0  0
    6.3990   -0.3740   -0.1240 S   0  0  0  0  0  0  0  0  0  0  0  0
  1  2  2  0
  2  3  1  0
  2 16  1  0
  3  4  1  0
  4  5  2  0
  4  6  1  0
  6  7  1  0
  7  8  1  0
  8  9  1  0
  9 10  1  0
 10 11  1  1
 10 12  1  0
 12 13  1  6
 12 14  1  0
 14 15  1  0
 17 16  1  6
 17 18  1  0
 17 24  1  0
 18 19  1  0
 19 20  1  0
 20 21  1  1
 20 24  1  0
 21 22  2  0
 21 23  1  0
M  END
