
     RDKit          3D

 25 25  0  0  0  0  0  0  0  0999 V2000
   -4.0720   -0.5630   -0.5730 C   0  0  0  0  0  0  0  0  0  0  0  0
   -2.7130   -0.1070   -0.0040 C   0  0  1  0  0  0  0  0  0  0  0  0
   -2.8580    1.3250    0.2680 C   0  0  0  0  0  0  0  0  0  0  0  0
   -3.1020    2.2350   -0.7790 N   0  0  0  0  0  0  0  0  0  0  0  0
   -2.7630    1.7400    1.4450 O   0  0  0  0  0  0  0  0  0  0  0  0
   -2.4660   -0.8730    1.1290 O   0  0  0  0  0  0  0  0  0  0  0  0
   -1.3550   -1.5340    1.5280 C   0  0  0  0  0  0  0  0  0  0  0  0
   -1.4080   -2.7480    1.8440 O   0  0  0  0  0  0  0  0  0  0  0  0
   -0.0420   -0.8620    1.6110 C   0  0  2  0  0  0  0  0  0  0  0  0
    0.2090   -0.6760    2.9910 O   0  0  0  0  0  0  0  0  0  0  0  0
   -0.0370    0.3680    0.9660 O   0  0  0  0  0  0  0  0  0  0  0  0
    1.0270    1.0520    0.4650 C   0  0  0  0  0  0  0  0  0  0  0  0
    1.2080    2.2800    0.6510 O   0  0  0  0  0  0  0  0  0  0  0  0
    2.0450    0.3380   -0.3450 C   0  0  2  0  0  0  0  0  0  0  0  0
    3.3000    1.0300   -0.2530 O   0  0  0  0  0  0  0  0  0  0  0  0
    4.4350    0.4300    0.2170 C   0  0  0  0  0  0  0  0  0  0  0  0
    5.6370    1.1640    0.2830 N   0  0  0  0  0  0  0  0  0  0  0  0
    4.3410   -0.7800    0.5750 O   0  0  0  0  0  0  0  0  0  0  0  0
    1.6500    0.3460   -1.7750 C   0  0  0  0  0  0  0  0  0  0  0  0
    1.9970    1.2690   -2.5520 O   0  0  0  0  0  0  0  0  0  0  0  0
    0.8920   -0.6730   -2.2630 O   0  0  0  0  0  0  0  0  0  0  0  0
    0.6830   -1.9390   -1.7350 C   0  0  0  0  0  0  0  0  0  0  0  0
   -1.0240   -2.0340   -1.1380 S   0  0  0  0  0  0  0  0  0  0  0  0
   -1.7440   -0.3950   -1.0930 C   0  0  0  0  0  0  0  0  0  0  0  0
   -1.4110    0.6170   -2.0690 S   0  0  0  0  0  0  0  0  0  0  0  0
  2  1  1  6
  2  3  1  0
  2  6  1  0
  2 24  1  0
  3  4  1  0
  3  5  2  0
  6  7  1  0
  7  8  2  0
  7  9  1  0
  9 10  1  1
  9 11  1  0
 11 12  1  0
 12 13  2  0
 12 14  1  0
 14 15  1  6
 14 19  1  0
 15 16  1  0
 16 17  1  0
 16 18  2  0
 19 20  2  0
 19 21  1  0
 21 22  1  0
 22 23  1  0
 23 24  1  0
 24 25  2  0
M  END
