
     RDKit          3D

 24 24  0  0  0  0  0  0  0  0999 V2000
   -5.0610    0.8660   -1.1530 N   0  0  0  0  0  0  0  0  0  0  0  0
   -4.1740    1.8510   -0.5840 C   0  0  0  0  0  0  0  0  0  0  0  0
   -4.2540    3.0080   -1.0710 O   0  0  0  0  0  0  0  0  0  0  0  0
   -3.2320    1.5040    0.5070 C   0  0  1  0  0  0  0  0  0  0  0  0
   -3.3750    0.1680    0.8160 O   0  0  0  0  0  0  0  0  0  0  0  0
   -1.8350    1.8570    0.0500 C   0  0  0  0  0  0  0  0  0  0  0  0
   -0.5930    1.4760    1.3050 S   0  0  0  0  0  0  0  0  0  0  0  0
   -0.4210   -0.2650    1.6220 C   0  0  0  0  0  0  0  0  0  0  0  0
    0.1040   -1.1070    0.5270 C   0  0  1  0  0  0  0  0  0  0  0  0
    1.4570   -0.8300    0.0040 C   0  0  1  0  0  0  0  0  0  0  0  0
    1.3130   -0.4490   -1.4880 C   0  0  0  0  0  0  0  0  0  0  0  0
    2.5980   -0.2020   -1.9350 O   0  0  0  0  0  0  0  0  0  0  0  0
    2.2260    0.2330    0.6770 C   0  0  0  0  0  0  0  0  0  0  0  0
    2.9640   -0.0820    1.6730 O   0  0  0  0  0  0  0  0  0  0  0  0
    2.2220    1.6050    0.3170 N   0  0  0  0  0  0  0  0  0  0  0  0
    2.9750    2.5840    1.0330 C   0  0  0  0  0  0  0  0  0  0  0  0
    3.6650    2.2480    2.0050 O   0  0  0  0  0  0  0  0  0  0  0  0
    2.9580    3.9220    0.6660 O   0  0  0  0  0  0  0  0  0  0  0  0
    2.3380   -2.0640    0.0090 C   0  0  0  0  0  0  0  0  0  0  0  0
    1.7590   -3.2320   -0.7150 C   0  0  0  0  0  0  0  0  0  0  0  0
    0.6540   -3.7820   -0.0760 O   0  0  0  0  0  0  0  0  0  0  0  0
    0.0510   -2.8100    1.1230 S   0  0  1  0  0  0  0  0  0  0  0  0
    0.8060   -2.9330    2.4080 O   0  0  0  0  0  0  0  0  0  0  0  0
   -1.3780   -3.1690    1.3760 O   0  0  0  0  0  0  0  0  0  0  0  0
  1  2  1  0
  2  3  2  0
  2  4  1  0
  4  5  1  6
  4  6  1  0
  6  7  1  0
  7  8  1  0
  9  8  1  1
  9 10  1  0
  9 22  1  0
 10 11  1  6
 10 13  1  0
 10 19  1  0
 11 12  1  0
 13 14  2  0
 13 15  1  0
 15 16  1  0
 16 17  2  0
 16 18  1  0
 19 20  1  0
 20 21  1  0
 22 21  1  6
 22 23  2  0
 22 24  2  0
M  END
