
     RDKit          3D

 42 45  0  0  0  0  0  0  0  0999 V2000
   -5.2870    0.0510    2.7460 C   0  0  0  0  0  0  0  0  0  0  0  0
   -4.5020   -0.0680    1.4710 C   0  0  0  0  0  0  0  0  0  0  0  0
   -5.0530   -1.2300    0.6660 C   0  0  1  0  0  0  0  0  0  0  0  0
   -4.9730   -2.5630    1.3810 C   0  0  0  0  0  0  0  0  0  0  0  0
   -6.4270   -0.9090    0.0760 C   0  0  1  0  0  0  0  0  0  0  0  0
   -6.5760    0.4380   -0.0760 O   0  0  0  0  0  0  0  0  0  0  0  0
   -7.5440    1.3440    0.1280 C   0  0  0  0  0  0  0  0  0  0  0  0
   -7.2680    2.6760   -0.0970 C   0  0  0  0  0  0  0  0  0  0  0  0
   -8.2220    3.6510    0.0900 C   0  0  0  0  0  0  0  0  0  0  0  0
   -9.4780    3.2650    0.5120 C   0  0  0  0  0  0  0  0  0  0  0  0
   -9.7930    1.9410    0.7480 C   0  0  0  0  0  0  0  0  0  0  0  0
   -8.8160    0.9470    0.5560 C   0  0  0  0  0  0  0  0  0  0  0  0
   -9.0910   -0.3300    0.7790 O   0  0  0  0  0  0  0  0  0  0  0  0
   -5.9290   -1.5410   -1.2340 C   0  0  0  0  0  0  0  0  0  0  0  0
   -4.5260   -1.3650   -0.7310 C   0  0  1  0  0  0  0  0  0  0  0  0
   -3.9380   -0.1580   -1.2610 N   0  0  0  0  0  0  0  0  0  0  0  0
   -2.6290   -0.2010   -1.8120 C   0  0  0  0  0  0  0  0  0  0  0  0
   -1.9730   -1.3000   -1.8460 O   0  0  0  0  0  0  0  0  0  0  0  0
   -1.9940    0.9070   -2.3270 O   0  0  0  0  0  0  0  0  0  0  0  0
   -0.7070    0.9820   -2.8770 C   0  0  0  0  0  0  0  0  0  0  0  0
    0.2900    0.5800   -1.8540 C   0  0  2  0  0  0  0  0  0  0  0  0
    0.1460    1.2400   -0.5120 C   0  0  0  0  0  0  0  0  0  0  0  0
    1.2910    1.2280    0.2250 O   0  0  0  0  0  0  0  0  0  0  0  0
    2.1980    0.2240   -0.0180 C   0  0  2  0  0  0  0  0  0  0  0  0
    1.7570   -0.9890    0.7830 C   0  0  0  0  0  0  0  0  0  0  0  0
    3.5390    0.7840    0.4950 C   0  0  0  0  0  0  0  0  0  0  0  0
    4.6360    0.0850    0.3590 O   0  0  0  0  0  0  0  0  0  0  0  0
    5.4210   -0.9470    0.5420 C   0  0  0  0  0  0  0  0  0  0  0  0
    5.0930   -2.0430    1.2860 C   0  0  0  0  0  0  0  0  0  0  0  0
    5.9280   -3.1270    1.4700 C   0  0  0  0  0  0  0  0  0  0  0  0
    7.1480   -3.1180    0.8840 C   0  0  0  0  0  0  0  0  0  0  0  0
    7.5100   -2.0340    0.1310 C   0  0  0  0  0  0  0  0  0  0  0  0
    6.7040   -0.9550   -0.0630 C   0  0  0  0  0  0  0  0  0  0  0  0
    7.0710    0.1280   -0.8120 O   0  0  0  0  0  0  0  0  0  0  0  0
    8.2710    0.3590   -1.4610 C   0  0  0  0  0  0  0  0  0  0  0  0
    9.3960    0.4310   -0.4600 C   0  0  0  0  0  0  0  0  0  0  0  0
    9.1460    0.2880    0.7430 O   0  0  0  0  0  0  0  0  0  0  0  0
   10.6930    0.6620   -0.9830 N   0  0  0  0  0  0  0  0  0  0  0  0
   11.8350    0.7470   -0.1050 C   0  0  0  0  0  0  0  0  0  0  0  0
   11.6070    2.0870    1.0790 S   0  0  0  0  0  0  0  0  0  0  0  0
    2.3380   -0.1840   -1.4320 C   0  0  0  0  0  0  0  0  0  0  0  0
    1.6260    0.6680   -2.2620 O   0  0  0  0  0  0  0  0  0  0  0  0
  1  2  1  0
  2  3  1  0
  3  4  1  1
  3  5  1  0
  3 15  1  0
  5  6  1  6
  5 14  1  0
  6  7  1  0
  7  8  2  0
  7 12  1  0
  8  9  1  0
  9 10  2  0
 10 11  1  0
 11 12  2  0
 12 13  1  0
 14 15  1  0
 15 16  1  6
 16 17  1  0
 17 18  2  0
 17 19  1  0
 19 20  1  0
 21 20  1  6
 21 22  1  0
 21 42  1  0
 22 23  1  0
 23 24  1  0
 24 25  1  1
 24 26  1  0
 24 41  1  0
 26 27  1  0
 27 28  1  0
 28 29  2  0
 28 33  1  0
 29 30  1  0
 30 31  2  0
 31 32  1  0
 32 33  2  0
 33 34  1  0
 34 35  1  0
 35 36  1  0
 36 37  2  0
 36 38  1  0
 38 39  1  0
 39 40  1  0
 41 42  1  0
M  END
