
     RDKit          3D

 42 45  0  0  0  0  0  0  0  0999 V2000
   11.5020   -0.3050   -0.0550 C   0  0  0  0  0  0  0  0  0  0  0  0
   10.7230   -0.8740   -1.2480 C   0  0  1  0  0  0  0  0  0  0  0  0
   10.2870   -2.1520   -0.8540 O   0  0  0  0  0  0  0  0  0  0  0  0
    9.5250    0.0080   -1.4080 C   0  0  0  0  0  0  0  0  0  0  0  0
    8.4760    0.0740   -0.5180 C   0  0  0  0  0  0  0  0  0  0  0  0
    7.5740    0.9940   -1.0070 C   0  0  0  0  0  0  0  0  0  0  0  0
    6.3390    1.4130   -0.4550 N   0  0  0  0  0  0  0  0  0  0  0  0
    5.8590    0.8920    0.7500 C   0  0  0  0  0  0  0  0  0  0  0  0
    6.4730    0.0350    1.4130 O   0  0  0  0  0  0  0  0  0  0  0  0
    4.5560    1.3870    1.2600 C   0  0  2  0  0  0  0  0  0  0  0  0
    4.2240    0.6480    2.4920 C   0  0  0  0  0  0  0  0  0  0  0  0
    3.4180   -0.3360    2.2340 C   0  0  0  0  0  0  0  0  0  0  0  0
    3.1180   -0.3660    0.7880 C   0  0  1  0  0  0  0  0  0  0  0  0
    1.7590   -0.8690    0.4960 C   0  0  0  0  0  0  0  0  0  0  0  0
    0.6180   -0.1100    1.0910 C   0  0  0  0  0  0  0  0  0  0  0  0
   -0.6450   -0.7690    0.6770 C   0  0  0  0  0  0  0  0  0  0  0  0
   -0.6160   -1.7400   -0.1340 O   0  0  0  0  0  0  0  0  0  0  0  0
   -1.9100   -0.3950    1.1240 O   0  0  0  0  0  0  0  0  0  0  0  0
   -3.0450   -1.0910    0.6620 C   0  0  0  0  0  0  0  0  0  0  0  0
   -3.2630   -2.3910    1.0630 C   0  0  0  0  0  0  0  0  0  0  0  0
   -4.3740   -3.0820    0.6130 C   0  0  0  0  0  0  0  0  0  0  0  0
   -5.2960   -2.5210   -0.2350 C   0  0  0  0  0  0  0  0  0  0  0  0
   -6.4080   -3.2130   -0.6870 O   0  0  0  0  0  0  0  0  0  0  0  0
   -6.6280   -4.5300   -0.2840 C   0  0  0  0  0  0  0  0  0  0  0  0
   -7.8900   -5.1130   -0.8860 C   0  0  0  0  0  0  0  0  0  0  0  0
   -7.6980   -5.0660   -2.6720 S   0  0  0  0  0  0  0  0  0  0  0  0
   -7.0320   -6.3250   -3.2150 O   0  0  0  0  0  0  0  0  0  0  0  0
   -5.0670   -1.1950   -0.6390 C   0  0  0  0  0  0  0  0  0  0  0  0
   -3.9690   -0.5250   -0.1900 C   0  0  0  0  0  0  0  0  0  0  0  0
   -3.7440    0.8950   -0.5870 C   0  0  1  0  0  0  0  0  0  0  0  0
   -4.5800    1.3660   -1.7220 C   0  0  0  0  0  0  0  0  0  0  0  0
   -5.7560    2.2120   -1.2670 C   0  0  0  0  0  0  0  0  0  0  0  0
   -5.3390    3.3500   -0.6130 O   0  0  0  0  0  0  0  0  0  0  0  0
   -4.3330    3.1480    0.3220 C   0  0  2  0  0  0  0  0  0  0  0  0
   -4.7300    3.8230    1.6540 C   0  0  0  0  0  0  0  0  0  0  0  0
   -3.1030    3.8900   -0.1560 C   0  0  0  0  0  0  0  0  0  0  0  0
   -3.4230    5.3320   -0.2910 C   0  0  0  0  0  0  0  0  0  0  0  0
   -2.5880    6.1540   -0.6000 O   0  0  0  0  0  0  0  0  0  0  0  0
   -4.0720    1.7190    0.6460 C   0  0  0  0  0  0  0  0  0  0  0  0
    3.4610    0.9970    0.2850 C   0  0  0  0  0  0  0  0  0  0  0  0
    8.1310    1.4370   -2.1750 N   0  0  0  0  0  0  0  0  0  0  0  0
    9.2610    0.8400   -2.3690 O   0  0  0  0  0  0  0  0  0  0  0  0
  2  1  1  1
  2  3  1  0
  2  4  1  0
  4  5  2  0
  4 42  1  0
  5  6  1  0
  6  7  1  0
  6 41  2  0
  7  8  1  0
  8  9  2  0
 10  8  1  6
 10 11  1  0
 10 40  1  0
 11 12  2  0
 12 13  1  0
 13 14  1  1
 13 40  1  0
 14 15  1  0
 15 16  1  0
 16 17  2  0
 16 18  1  0
 18 19  1  0
 19 20  2  0
 19 29  1  0
 20 21  1  0
 21 22  2  0
 22 23  1  0
 22 28  1  0
 23 24  1  0
 24 25  1  0
 25 26  1  0
 26 27  2  0
 28 29  2  0
 30 29  1  1
 30 31  1  0
 30 39  1  0
 31 32  1  0
 32 33  1  0
 33 34  1  0
 34 35  1  1
 34 36  1  0
 34 39  1  0
 36 37  1  0
 37 38  2  0
 41 42  1  0
M  END
