
     RDKit          3D

 42 45  0  0  0  0  0  0  0  0999 V2000
   -2.4330   -4.8220    1.9260 C   0  0  0  0  0  0  0  0  0  0  0  0
   -2.7400   -4.1810    2.9280 C   0  0  0  0  0  0  0  0  0  0  0  0
   -3.1820   -2.8320    3.2920 C   0  0  0  0  0  0  0  0  0  0  0  0
   -3.2480   -1.9900    2.0770 N   0  0  0  0  0  0  0  0  0  0  0  0
   -2.0840   -1.7960    1.3170 C   0  0  0  0  0  0  0  0  0  0  0  0
   -1.0220   -2.3460    1.6750 O   0  0  0  0  0  0  0  0  0  0  0  0
   -2.0010   -0.9430    0.0940 C   0  0  1  0  0  0  0  0  0  0  0  0
   -2.8610    0.2340    0.1070 C   0  0  0  0  0  0  0  0  0  0  0  0
   -2.7810    1.3230    0.9240 C   0  0  0  0  0  0  0  0  0  0  0  0
   -3.6770    2.3550    0.7960 C   0  0  0  0  0  0  0  0  0  0  0  0
   -3.5470    3.4710    1.6270 O   0  0  0  0  0  0  0  0  0  0  0  0
   -4.4750    4.5730    1.5510 C   0  0  0  0  0  0  0  0  0  0  0  0
   -4.7110    2.3640   -0.1450 C   0  0  0  0  0  0  0  0  0  0  0  0
   -4.7570    1.2250   -0.9610 C   0  0  0  0  0  0  0  0  0  0  0  0
   -5.8700    1.2440   -1.9560 O   0  0  0  0  0  0  0  0  0  0  0  0
   -3.9520    0.2150   -0.9010 C   0  0  0  0  0  0  0  0  0  0  0  0
   -4.0540   -1.1020   -1.5170 C   0  0  0  0  0  0  0  0  0  0  0  0
   -3.9120   -1.7210   -2.5550 C   0  0  0  0  0  0  0  0  0  0  0  0
   -3.5750   -1.7950   -3.9290 C   0  0  0  0  0  0  0  0  0  0  0  0
   -3.2160   -1.1400   -4.8540 O   0  0  0  0  0  0  0  0  0  0  0  0
   -0.6180   -0.6210   -0.2490 C   0  0  2  0  0  0  0  0  0  0  0  0
    0.3150   -0.0510    0.6410 N   0  0  0  0  0  0  0  0  0  0  0  0
    1.6650    0.0950    0.0510 C   0  0  0  0  0  0  0  0  0  0  0  0
    1.8850   -0.2630   -1.1270 O   0  0  0  0  0  0  0  0  0  0  0  0
    2.7230    0.6530    0.9010 C   0  0  0  0  0  0  0  0  0  0  0  0
    4.0710    0.2690    0.5750 C   0  0  0  0  0  0  0  0  0  0  0  0
    5.1150    1.2290    0.5160 C   0  0  0  0  0  0  0  0  0  0  0  0
    6.4120    0.9050    0.4800 C   0  0  0  0  0  0  0  0  0  0  0  0
    6.8190   -0.4620    0.4940 C   0  0  0  0  0  0  0  0  0  0  0  0
    5.7820   -1.3930    0.5530 C   0  0  0  0  0  0  0  0  0  0  0  0
    4.4990   -1.0520    0.5880 C   0  0  0  0  0  0  0  0  0  0  0  0
    3.4230   -2.0050    0.6370 O   0  0  0  0  0  0  0  0  0  0  0  0
    8.2820   -0.5230    0.5290 C   0  0  0  0  0  0  0  0  0  0  0  0
    8.7210    0.7920   -0.0750 C   0  0  0  0  0  0  0  0  0  0  0  0
    7.6820    1.7620    0.4470 C   0  0  0  0  0  0  0  0  0  0  0  0
   -0.7830    0.5320   -1.3240 C   0  0  0  0  0  0  0  0  0  0  0  0
   -1.0660    0.2370   -2.6080 C   0  0  0  0  0  0  0  0  0  0  0  0
   -1.1440    1.2370   -3.5490 C   0  0  0  0  0  0  0  0  0  0  0  0
   -0.8980    2.5500   -3.1040 C   0  0  0  0  0  0  0  0  0  0  0  0
   -0.9510    3.4900   -4.0800 F   0  0  0  0  0  0  0  0  0  0  0  0
   -0.6220    2.8490   -1.8480 C   0  0  0  0  0  0  0  0  0  0  0  0
   -0.5710    1.7860   -0.8910 C   0  0  0  0  0  0  0  0  0  0  0  0
  1  2  2  0
  2  3  1  0
  3  4  1  0
  4  5  1  0
  5  6  2  0
  7  5  1  1
  7  8  1  0
  7 21  1  0
  8  9  2  0
  8 16  1  0
  9 10  1  0
 10 11  1  0
 10 13  2  0
 11 12  1  0
 13 14  1  0
 14 15  1  0
 14 16  2  0
 16 17  1  0
 17 18  2  3
 18 19  1  0
 19 20  2  0
 21 22  1  1
 21 36  1  0
 22 23  1  0
 23 24  2  0
 23 25  1  0
 25 26  1  0
 26 27  2  0
 26 31  1  0
 27 28  1  0
 28 29  2  0
 28 35  1  0
 29 30  1  0
 29 33  1  0
 30 31  2  0
 31 32  1  0
 33 34  1  0
 34 35  1  0
 36 37  2  0
 36 42  1  0
 37 38  1  0
 38 39  2  0
 39 40  1  0
 39 41  1  0
 41 42  2  0
M  END
