
     RDKit          3D

 42 45  0  0  0  0  0  0  0  0999 V2000
    6.8880   -3.3000    2.2060 C   0  0  0  0  0  0  0  0  0  0  0  0
    6.0640   -2.9060    1.2810 O   0  0  0  0  0  0  0  0  0  0  0  0
    5.2900   -2.7180    0.2700 C   0  0  0  0  0  0  0  0  0  0  0  0
    5.1490   -3.6730   -0.7620 C   0  0  0  0  0  0  0  0  0  0  0  0
    4.3080   -3.4030   -1.8070 C   0  0  0  0  0  0  0  0  0  0  0  0
    3.5920   -2.2360   -1.8940 C   0  0  0  0  0  0  0  0  0  0  0  0
    2.7020   -1.9730   -3.0420 C   0  0  0  0  0  0  0  0  0  0  0  0
    3.7270   -1.2940   -0.8790 C   0  0  0  0  0  0  0  0  0  0  0  0
    4.5520   -1.5060    0.1890 C   0  0  0  0  0  0  0  0  0  0  0  0
    4.7160   -0.6130    1.2660 N   0  0  0  0  0  0  0  0  0  0  0  0
    3.8870    0.5940    1.4480 C   0  0  1  0  0  0  0  0  0  0  0  0
    4.2880    1.6650    0.5060 C   0  0  0  0  0  0  0  0  0  0  0  0
    3.5580    2.8350    0.6690 O   0  0  0  0  0  0  0  0  0  0  0  0
    2.4520    0.1680    1.3530 C   0  0  0  0  0  0  0  0  0  0  0  0
    2.1750   -1.1250    1.7820 C   0  0  0  0  0  0  0  0  0  0  0  0
    0.9020   -1.6540    1.7460 C   0  0  0  0  0  0  0  0  0  0  0  0
   -0.1520   -0.9090    1.2770 C   0  0  0  0  0  0  0  0  0  0  0  0
   -1.4600   -1.3460    1.1980 O   0  0  0  0  0  0  0  0  0  0  0  0
   -1.7810   -2.6350    1.6320 C   0  0  0  0  0  0  0  0  0  0  0  0
   -3.2650   -2.9080    1.4390 C   0  0  0  0  0  0  0  0  0  0  0  0
   -3.7470   -3.9640    1.8130 O   0  0  0  0  0  0  0  0  0  0  0  0
   -4.1000   -1.9610    0.8330 N   0  0  0  0  0  0  0  0  0  0  0  0
   -5.4620   -1.9320    0.5250 C   0  0  0  0  0  0  0  0  0  0  0  0
   -6.5070   -2.8870    0.7670 C   0  0  0  0  0  0  0  0  0  0  0  0
   -7.8420   -2.5070    0.3610 O   0  0  0  0  0  0  0  0  0  0  0  0
   -6.5360   -4.0770    1.2970 C   0  0  0  0  0  0  0  0  0  0  0  0
   -7.7760   -4.7440    1.3770 F   0  0  0  0  0  0  0  0  0  0  0  0
   -5.8320   -0.7940   -0.0780 C   0  0  0  0  0  0  0  0  0  0  0  0
   -4.8290    0.2580   -0.3500 C   0  0  0  0  0  0  0  0  0  0  0  0
   -7.2030   -0.5360   -0.5070 C   0  0  0  0  0  0  0  0  0  0  0  0
    0.1300    0.3910    0.8470 C   0  0  0  0  0  0  0  0  0  0  0  0
   -0.8870    1.1370    0.3850 O   0  0  0  0  0  0  0  0  0  0  0  0
   -0.9260    2.4150   -0.0380 C   0  0  0  0  0  0  0  0  0  0  0  0
   -1.4050    3.4440    0.8000 C   0  0  0  0  0  0  0  0  0  0  0  0
   -1.4120    4.7120    0.2800 C   0  0  0  0  0  0  0  0  0  0  0  0
   -0.9890    5.0380   -0.9840 C   0  0  0  0  0  0  0  0  0  0  0  0
   -0.5200    4.0140   -1.7920 C   0  0  0  0  0  0  0  0  0  0  0  0
   -0.4940    2.7260   -1.3160 C   0  0  0  0  0  0  0  0  0  0  0  0
   -0.0990    4.5900   -3.1090 C   0  0  0  0  0  0  0  0  0  0  0  0
    0.2760    6.0060   -2.6640 C   0  0  0  0  0  0  0  0  0  0  0  0
   -0.9170    6.3150   -1.7740 C   0  0  0  0  0  0  0  0  0  0  0  0
    1.4220    0.9260    0.8850 C   0  0  0  0  0  0  0  0  0  0  0  0
  1  2  1  0
  2  3  1  0
  3  4  2  0
  3  9  1  0
  4  5  1  0
  5  6  2  0
  6  7  1  0
  6  8  1  0
  8  9  2  0
  9 10  1  0
 10 11  1  0
 11 12  1  6
 11 14  1  0
 12 13  1  0
 14 15  2  0
 14 42  1  0
 15 16  1  0
 16 17  2  0
 17 18  1  0
 17 31  1  0
 18 19  1  0
 19 20  1  0
 20 21  2  0
 20 22  1  0
 22 23  1  0
 23 24  1  0
 23 28  2  3
 24 25  1  0
 24 26  2  3
 26 27  1  0
 28 29  1  0
 28 30  1  0
 31 32  1  0
 31 42  2  0
 32 33  1  0
 33 34  2  0
 33 38  1  0
 34 35  1  0
 35 36  2  0
 36 37  1  0
 36 41  1  0
 37 38  2  0
 37 39  1  0
 39 40  1  0
 40 41  1  0
M  END
