
     RDKit          3D

 42 45  0  0  0  0  0  0  0  0999 V2000
   12.0310   -1.4310   -0.4540 C   0  0  0  0  0  0  0  0  0  0  0  0
   11.1650   -1.8670   -1.3830 C   0  0  0  0  0  0  0  0  0  0  0  0
    9.7560   -1.4770   -1.3310 C   0  0  0  0  0  0  0  0  0  0  0  0
    8.9300   -1.9190   -2.2470 C   0  0  0  0  0  0  0  0  0  0  0  0
    9.2290   -0.5940   -0.2610 C   0  0  0  0  0  0  0  0  0  0  0  0
    7.7780   -0.4030   -0.4150 C   0  0  0  0  0  0  0  0  0  0  0  0
    6.9020   -1.2200    0.3120 C   0  0  0  0  0  0  0  0  0  0  0  0
    5.5540   -1.0330    0.1860 C   0  0  0  0  0  0  0  0  0  0  0  0
    5.0400   -0.0650   -0.6330 C   0  0  0  0  0  0  0  0  0  0  0  0
    3.6040    0.1550   -0.6810 C   0  0  0  0  0  0  0  0  0  0  0  0
    3.0660    0.9560   -1.4970 O   0  0  0  0  0  0  0  0  0  0  0  0
    2.8080   -0.5300    0.2050 O   0  0  0  0  0  0  0  0  0  0  0  0
    1.4010   -0.3950    0.3040 C   0  0  0  0  0  0  0  0  0  0  0  0
    1.0340    1.0400    0.5920 C   0  0  2  0  0  0  0  0  0  0  0  0
    1.7280    1.5200    1.8670 C   0  0  0  0  0  0  0  0  0  0  0  0
    1.5380    0.5290    2.9960 C   0  0  0  0  0  0  0  0  0  0  0  0
    0.1710    0.1070    3.0480 O   0  0  0  0  0  0  0  0  0  0  0  0
   -0.7630    0.7190    2.2090 C   0  0  0  0  0  0  0  0  0  0  0  0
   -2.0700    0.9070    2.6110 C   0  0  0  0  0  0  0  0  0  0  0  0
   -3.0040    1.5010    1.7980 C   0  0  0  0  0  0  0  0  0  0  0  0
   -2.6370    1.9250    0.5300 C   0  0  0  0  0  0  0  0  0  0  0  0
   -3.5820    2.5800   -0.3880 C   0  0  1  0  0  0  0  0  0  0  0  0
   -4.5220    3.5220    0.3410 C   0  0  0  0  0  0  0  0  0  0  0  0
   -2.7890    3.4080   -1.2340 O   0  0  0  0  0  0  0  0  0  0  0  0
   -4.3120    1.6670   -1.3210 C   0  0  0  0  0  0  0  0  0  0  0  0
   -5.1370    0.6140   -0.7320 C   0  0  0  0  0  0  0  0  0  0  0  0
   -4.9420    0.1510    0.3970 O   0  0  0  0  0  0  0  0  0  0  0  0
   -6.2230    0.0900   -1.4790 N   0  0  0  0  0  0  0  0  0  0  0  0
   -7.0290   -0.9390   -0.9170 C   0  0  0  0  0  0  0  0  0  0  0  0
   -6.4520   -1.9590   -0.2090 C   0  0  0  0  0  0  0  0  0  0  0  0
   -7.2600   -2.9220    0.3800 C   0  0  0  0  0  0  0  0  0  0  0  0
   -8.6500   -2.8380    0.2430 C   0  0  0  0  0  0  0  0  0  0  0  0
   -9.4730   -3.7450    0.7940 F   0  0  0  0  0  0  0  0  0  0  0  0
   -9.2070   -1.8000   -0.4780 C   0  0  0  0  0  0  0  0  0  0  0  0
  -10.6440   -1.6860   -0.6110 C   0  0  0  0  0  0  0  0  0  0  0  0
  -11.4770   -2.6810   -0.0440 N   0  0  0  0  0  0  0  0  0  0  0  0
  -11.1530   -0.7380   -1.2130 O   0  0  0  0  0  0  0  0  0  0  0  0
   -8.4040   -0.8390   -1.0660 C   0  0  0  0  0  0  0  0  0  0  0  0
   -1.3230    1.7520    0.0930 C   0  0  0  0  0  0  0  0  0  0  0  0
   -0.4260    1.1570    0.9470 C   0  0  0  0  0  0  0  0  0  0  0  0
    5.9180    0.7270   -1.3430 C   0  0  0  0  0  0  0  0  0  0  0  0
    7.2790    0.5740   -1.2450 C   0  0  0  0  0  0  0  0  0  0  0  0
  1  2  2  0
  2  3  1  0
  3  4  2  0
  3  5  1  0
  5  6  1  0
  6  7  2  0
  6 42  1  0
  7  8  1  0
  8  9  2  0
  9 10  1  0
  9 41  1  0
 10 11  2  0
 10 12  1  0
 12 13  1  0
 14 13  1  1
 14 15  1  0
 14 40  1  0
 15 16  1  0
 16 17  1  0
 17 18  1  0
 18 19  2  0
 18 40  1  0
 19 20  1  0
 20 21  2  0
 21 22  1  0
 21 39  1  0
 22 23  1  1
 22 24  1  0
 22 25  1  0
 25 26  1  0
 26 27  2  0
 26 28  1  0
 28 29  1  0
 29 30  2  0
 29 38  1  0
 30 31  1  0
 31 32  2  0
 32 33  1  0
 32 34  1  0
 34 35  1  0
 34 38  2  0
 35 36  1  0
 35 37  2  0
 39 40  2  0
 41 42  2  0
M  END
