
     RDKit          3D

 42 45  0  0  0  0  0  0  0  0999 V2000
    8.2460    3.4570    1.3280 C   0  0  0  0  0  0  0  0  0  0  0  0
    8.8350    2.6980    0.1750 C   0  0  1  0  0  0  0  0  0  0  0  0
   10.2610    2.3030    0.4320 C   0  0  0  0  0  0  0  0  0  0  0  0
   10.5110    1.0590   -0.4170 C   0  0  0  0  0  0  0  0  0  0  0  0
    9.1670    0.6910   -1.0120 C   0  0  0  0  0  0  0  0  0  0  0  0
    8.1590    1.3530   -0.0570 C   0  0  2  0  0  0  0  0  0  0  0  0
    6.9330    1.5480   -0.6550 O   0  0  0  0  0  0  0  0  0  0  0  0
    5.7240    1.0940   -0.1660 C   0  0  0  0  0  0  0  0  0  0  0  0
    4.6080    1.4090   -0.9180 C   0  0  0  0  0  0  0  0  0  0  0  0
    3.3710    0.9730   -0.4630 C   0  0  0  0  0  0  0  0  0  0  0  0
    3.2030    0.2600    0.6690 C   0  0  0  0  0  0  0  0  0  0  0  0
    1.6710   -0.3510    1.3160 S   0  0  0  0  0  0  0  0  0  0  0  0
    1.3790   -2.0190    0.8100 C   0  0  0  0  0  0  0  0  0  0  0  0
    0.8420   -2.1990   -0.5550 C   0  0  0  0  0  0  0  0  0  0  0  0
   -0.5340   -1.6910   -0.7230 N   0  0  0  0  0  0  0  0  0  0  0  0
   -0.8370   -0.4150   -1.1840 C   0  0  0  0  0  0  0  0  0  0  0  0
    0.2410    0.2310   -1.5920 O   0  0  0  0  0  0  0  0  0  0  0  0
   -2.0370    0.3540   -1.3160 C   0  0  0  0  0  0  0  0  0  0  0  0
   -3.1930    0.0150   -0.6070 O   0  0  0  0  0  0  0  0  0  0  0  0
   -4.3660    0.7260   -0.7710 C   0  0  0  0  0  0  0  0  0  0  0  0
   -4.3150    1.6770   -1.6160 O   0  0  0  0  0  0  0  0  0  0  0  0
   -5.5940    0.4480   -0.0540 C   0  0  0  0  0  0  0  0  0  0  0  0
   -6.6860    1.1900   -0.3290 C   0  0  0  0  0  0  0  0  0  0  0  0
   -7.9630    0.9550    0.3650 C   0  0  1  0  0  0  0  0  0  0  0  0
   -7.7750    0.4540    1.7720 C   0  0  0  0  0  0  0  0  0  0  0  0
   -6.9750   -0.7300    1.6370 O   0  0  0  0  0  0  0  0  0  0  0  0
   -5.7510   -0.5580    0.9790 C   0  0  0  0  0  0  0  0  0  0  0  0
   -4.7620   -1.2850    1.2880 O   0  0  0  0  0  0  0  0  0  0  0  0
   -8.2290    2.4370    0.2120 C   0  0  0  0  0  0  0  0  0  0  0  0
   -7.3770    2.2750   -1.0620 C   0  0  1  0  0  0  0  0  0  0  0  0
   -6.5600    3.4380   -1.3410 N   0  0  0  0  0  0  0  0  0  0  0  0
   -7.3950    4.3690   -2.1040 C   0  0  0  0  0  0  0  0  0  0  0  0
   -6.6470    5.5250   -2.4030 O   0  0  0  0  0  0  0  0  0  0  0  0
   -1.5410   -2.6360   -0.4260 C   0  0  0  0  0  0  0  0  0  0  0  0
   -2.7630   -2.4340   -0.5420 O   0  0  0  0  0  0  0  0  0  0  0  0
   -1.1980   -3.9200    0.0410 O   0  0  0  0  0  0  0  0  0  0  0  0
   -2.2250   -4.8440    0.3330 C   0  0  1  0  0  0  0  0  0  0  0  0
   -3.0920   -5.1500   -0.8810 C   0  0  0  0  0  0  0  0  0  0  0  0
   -1.6230   -6.1780    0.7580 C   0  0  0  0  0  0  0  0  0  0  0  0
   -3.0370   -4.2930    1.4810 C   0  0  0  0  0  0  0  0  0  0  0  0
    4.3540   -0.0390    1.4040 C   0  0  0  0  0  0  0  0  0  0  0  0
    5.5960    0.3660    1.0020 C   0  0  0  0  0  0  0  0  0  0  0  0
  2  1  1  1
  2  3  1  0
  2  6  1  0
  3  4  1  0
  4  5  1  0
  5  6  1  0
  6  7  1  6
  7  8  1  0
  8  9  2  0
  8 42  1  0
  9 10  1  0
 10 11  2  0
 11 12  1  0
 11 41  1  0
 12 13  1  0
 13 14  1  0
 14 15  1  0
 15 16  1  0
 15 34  1  0
 16 17  2  0
 16 18  1  0
 18 19  1  0
 19 20  1  0
 20 21  2  0
 20 22  1  0
 22 23  2  0
 22 27  1  0
 23 24  1  0
 23 30  1  0
 24 25  1  1
 24 29  1  0
 25 26  1  0
 26 27  1  0
 27 28  2  0
 29 30  1  0
 30 31  1  1
 31 32  1  0
 32 33  1  0
 34 35  2  0
 34 36  1  0
 36 37  1  0
 37 38  1  6
 37 39  1  0
 37 40  1  0
 41 42  2  0
M  END
