
     RDKit          3D

 24 25  0  0  0  0  0  0  0  0999 V2000
   -1.9890   -0.1710    1.9230 C   0  0  0  0  0  0  0  0  0  0  0  0
   -1.7350    0.8670    0.8840 C   0  0  0  0  0  0  0  0  0  0  0  0
   -2.0300    0.4090   -0.5150 C   0  0  2  0  0  0  0  0  0  0  0  0
   -1.7610    1.4870   -1.4510 N   0  0  0  0  0  0  0  0  0  0  0  0
   -3.3190   -0.2660   -0.7380 C   0  0  0  0  0  0  0  0  0  0  0  0
   -4.5770    0.4490   -0.4550 C   0  0  2  0  0  0  0  0  0  0  0  0
   -4.8290    0.9140    0.8960 C   0  0  0  0  0  0  0  0  0  0  0  0
   -5.6050   -0.0200    1.4850 C   0  0  0  0  0  0  0  0  0  0  0  0
   -5.8550   -1.1140    0.4710 C   0  0  0  0  0  0  0  0  0  0  0  0
   -5.6300   -0.4690   -0.7500 O   0  0  0  0  0  0  0  0  0  0  0  0
   -0.9590   -0.6210   -0.8170 C   0  0  0  0  0  0  0  0  0  0  0  0
   -0.9630   -1.6920   -0.1240 O   0  0  0  0  0  0  0  0  0  0  0  0
    0.0180   -0.4600   -1.8020 N   0  0  0  0  0  0  0  0  0  0  0  0
    1.2740   -0.4900   -1.6310 C   0  0  0  0  0  0  0  0  0  0  0  0
    2.0570   -0.6850   -0.4590 N   0  0  0  0  0  0  0  0  0  0  0  0
    3.3280   -0.0110   -0.5250 C   0  0  1  0  0  0  0  0  0  0  0  0
    3.1500    1.4940   -0.5860 C   0  0  0  0  0  0  0  0  0  0  0  0
    4.1780   -0.4410    0.6190 C   0  0  0  0  0  0  0  0  0  0  0  0
    3.5350   -0.1210    1.9520 C   0  0  0  0  0  0  0  0  0  0  0  0
    3.9590   -0.3980   -1.8170 C   0  0  0  0  0  0  0  0  0  0  0  0
    5.1370   -0.7300   -2.1400 N   0  0  0  0  0  0  0  0  0  0  0  0
    6.2720   -0.8420   -1.3430 C   0  0  0  0  0  0  0  0  0  0  0  0
    6.6480   -2.0060   -0.9280 N   0  0  0  0  0  0  0  0  0  0  0  0
    2.5210   -0.2770   -2.9330 S   0  0  0  0  0  0  0  0  0  0  0  0
  1  2  1  0
  2  3  1  0
  3  4  1  6
  3  5  1  0
  3 11  1  0
  6  5  1  1
  6  7  1  0
  6 10  1  0
  7  8  2  0
  8  9  1  0
  9 10  1  0
 11 12  2  0
 11 13  1  0
 13 14  2  3
 14 15  1  0
 14 24  1  0
 15 16  1  0
 16 17  1  6
 16 18  1  0
 16 20  1  0
 18 19  1  0
 20 21  2  3
 20 24  1  0
 21 22  1  0
 22 23  2  0
M  CHG  1   4   1
M  END
