
     RDKit          3D

 24 25  0  0  0  0  0  0  0  0999 V2000
   -2.6730    4.2120   -0.6910 C   0  0  0  0  0  0  0  0  0  0  0  0
   -2.7110    2.7180   -0.3330 C   0  0  0  0  0  0  0  0  0  0  0  0
   -1.7480    2.0510   -1.2920 C   0  0  0  0  0  0  0  0  0  0  0  0
   -1.6220    0.6490   -1.1450 N   0  0  0  0  0  0  0  0  0  0  0  0
   -0.5820    0.1610   -0.2740 C   0  0  2  0  0  0  0  0  0  0  0  0
    0.3990    1.2500    0.0710 C   0  0  0  0  0  0  0  0  0  0  0  0
    1.4790    0.8870    0.9220 N   0  0  0  0  0  0  0  0  0  0  0  0
    2.7180    0.3370    0.4960 C   0  0  0  0  0  0  0  0  0  0  0  0
    2.9950    0.1900   -0.8270 N   0  0  0  0  0  0  0  0  0  0  0  0
    4.1380   -0.2790   -1.3130 C   0  0  0  0  0  0  0  0  0  0  0  0
    4.3720   -0.4120   -2.7710 C   0  0  0  0  0  0  0  0  0  0  0  0
    5.1460   -0.6580   -0.4460 C   0  0  0  0  0  0  0  0  0  0  0  0
    4.9040   -0.5250    0.9070 C   0  0  0  0  0  0  0  0  0  0  0  0
    3.7180   -0.0380    1.3910 C   0  0  0  0  0  0  0  0  0  0  0  0
    3.4390    0.1100    2.7720 N   0  0  0  0  0  0  0  0  0  0  0  0
    0.1660   -0.9300   -0.9860 C   0  0  0  0  0  0  0  0  0  0  0  0
   -0.8320   -2.0720   -1.2720 C   0  0  0  0  0  0  0  0  0  0  0  0
   -1.1240   -2.6900    0.0550 C   0  0  0  0  0  0  0  0  0  0  0  0
   -1.8760   -1.6870    0.8930 C   0  0  2  0  0  0  0  0  0  0  0  0
   -3.2320   -1.6480    0.3910 N   0  0  0  0  0  0  0  0  0  0  0  0
   -4.3540   -2.2680    1.5490 S   0  0  1  0  0  0  0  0  0  0  0  0
   -5.4760   -2.9970    0.8590 O   0  0  0  0  0  0  0  0  0  0  0  0
   -3.6770   -3.2910    2.4500 O   0  0  0  0  0  0  0  0  0  0  0  0
   -1.2260   -0.3590    0.9950 C   0  0  0  0  0  0  0  0  0  0  0  0
  1  2  1  0
  2  3  1  0
  3  4  1  0
  4  5  1  0
  5  6  1  1
  5 16  1  0
  5 24  1  0
  6  7  1  0
  7  8  1  0
  8  9  2  0
  8 14  1  0
  9 10  1  0
 10 11  1  0
 10 12  2  0
 12 13  1  0
 13 14  2  0
 14 15  1  0
 16 17  1  0
 17 18  1  0
 18 19  1  0
 19 20  1  6
 19 24  1  0
 21 20  1  6
 21 22  2  0
 21 23  2  0
M  CHG  1   4   1
M  END
