
     RDKit          3D

 24 25  0  0  0  0  0  0  0  0999 V2000
    6.3330   -1.1840    0.3020 C   0  0  0  0  0  0  0  0  0  0  0  0
    6.5700    0.2410   -0.1000 C   0  0  0  0  0  0  0  0  0  0  0  0
    5.3550    1.0840    0.2180 C   0  0  0  0  0  0  0  0  0  0  0  0
    4.1280    0.6080   -0.5010 C   0  0  0  0  0  0  0  0  0  0  0  0
    2.9840    1.5320   -0.1000 C   0  0  1  0  0  0  0  0  0  0  0  0
    3.3920    2.9280   -0.5310 C   0  0  0  0  0  0  0  0  0  0  0  0
    1.8250    1.1030   -0.8530 N   0  0  0  0  0  0  0  0  0  0  0  0
    0.6700    0.6930   -0.1220 C   0  0  0  0  0  0  0  0  0  0  0  0
    0.6670    0.7060    1.1310 O   0  0  0  0  0  0  0  0  0  0  0  0
   -0.5200    0.2540   -0.7920 N   0  0  0  0  0  0  0  0  0  0  0  0
   -1.6630   -0.1520   -0.0690 C   0  0  0  0  0  0  0  0  0  0  0  0
   -2.8070   -0.5710   -0.5760 C   0  0  0  0  0  0  0  0  0  0  0  0
   -2.9310   -0.6300   -2.0370 C   0  0  0  0  0  0  0  0  0  0  0  0
   -3.2030   -1.9370   -2.5670 N   0  0  0  0  0  0  0  0  0  0  0  0
   -2.4110   -2.9670   -1.9210 C   0  0  0  0  0  0  0  0  0  0  0  0
   -3.9230   -0.9770    0.3210 C   0  0  2  0  0  0  0  0  0  0  0  0
   -5.2120   -0.8470   -0.3360 N   0  0  0  0  0  0  0  0  0  0  0  0
   -6.1550   -0.8370    0.7000 N   0  0  0  0  0  0  0  0  0  0  0  0
   -5.5530   -0.0290    1.7110 C   0  0  0  0  0  0  0  0  0  0  0  0
   -6.2160    0.6310    2.5490 O   0  0  0  0  0  0  0  0  0  0  0  0
   -4.1120   -0.1710    1.5200 C   0  0  0  0  0  0  0  0  0  0  0  0
   -3.1510    0.3130    2.2700 C   0  0  0  0  0  0  0  0  0  0  0  0
   -3.3540    1.1190    3.4680 C   0  0  0  0  0  0  0  0  0  0  0  0
   -1.4960   -0.0690    1.7480 S   0  0  0  0  0  0  0  0  0  0  0  0
  1  2  1  0
  2  3  1  0
  3  4  1  0
  4  5  1  0
  5  6  1  6
  5  7  1  0
  7  8  1  0
  8  9  2  0
  8 10  1  0
 10 11  1  0
 11 12  2  0
 11 24  1  0
 12 13  1  0
 12 16  1  0
 13 14  1  0
 14 15  1  0
 16 17  1  6
 16 21  1  0
 17 18  1  0
 18 19  1  0
 19 20  2  0
 19 21  1  0
 21 22  2  0
 22 23  1  0
 22 24  1  0
M  CHG  1  14   1
M  END
