
     RDKit          3D

 24 25  0  0  0  0  0  0  0  0999 V2000
    4.7900    0.5180   -0.7230 C   0  0  0  0  0  0  0  0  0  0  0  0
    4.8080    0.3960   -2.0120 C   0  0  0  0  0  0  0  0  0  0  0  0
    5.9070   -0.7560   -2.9080 S   0  0  0  0  0  0  0  0  0  0  0  0
    6.8380    0.5090   -3.8380 O   0  0  0  0  0  0  0  0  0  0  0  0
    5.9250    1.3820   -4.5180 C   0  0  0  0  0  0  0  0  0  0  0  0
    6.3690    1.8710   -5.6260 N   0  0  0  0  0  0  0  0  0  0  0  0
    4.6130    1.6970   -4.0260 C   0  0  0  0  0  0  0  0  0  0  0  0
    4.0360    1.2560   -2.8780 C   0  0  0  0  0  0  0  0  0  0  0  0
    2.6740    1.6180   -2.6010 C   0  0  0  0  0  0  0  0  0  0  0  0
    1.8020    1.3450   -1.7020 C   0  0  0  0  0  0  0  0  0  0  0  0
    1.3710    0.7190   -0.5650 C   0  0  0  0  0  0  0  0  0  0  0  0
    2.0920   -0.1310    0.0820 O   0  0  0  0  0  0  0  0  0  0  0  0
    0.0630    0.9500    0.0320 N   0  0  0  0  0  0  0  0  0  0  0  0
   -0.3510    0.2670    1.2300 C   0  0  1  0  0  0  0  0  0  0  0  0
   -0.4750    1.1870    2.3870 C   0  0  0  0  0  0  0  0  0  0  0  0
   -1.6000   -0.5540    0.9110 C   0  0  2  0  0  0  0  0  0  0  0  0
   -2.7330    0.2740    0.4170 C   0  0  0  0  0  0  0  0  0  0  0  0
   -1.9440   -1.4980    1.9330 N   0  0  0  0  0  0  0  0  0  0  0  0
   -3.0100   -1.1760    2.7830 C   0  0  0  0  0  0  0  0  0  0  0  0
   -4.2730   -1.9160    2.5240 C   0  0  0  0  0  0  0  0  0  0  0  0
   -5.5000   -1.6210    3.1290 C   0  0  0  0  0  0  0  0  0  0  0  0
   -6.4530   -2.4400    2.7030 N   0  0  0  0  0  0  0  0  0  0  0  0
   -5.8670   -3.2600    1.8340 N   0  0  0  0  0  0  0  0  0  0  0  0
   -4.5610   -2.9730    1.7040 C   0  0  0  0  0  0  0  0  0  0  0  0
  1  2  2  0
  2  3  1  0
  2  8  1  0
  3  4  1  0
  4  5  1  0
  5  6  2  0
  5  7  1  0
  7  8  2  0
  8  9  1  0
  9 10  2  3
 10 11  1  0
 11 12  2  0
 11 13  1  0
 13 14  1  0
 14 15  1  1
 14 16  1  0
 16 17  1  1
 16 18  1  0
 18 19  1  0
 19 20  1  0
 20 21  1  0
 20 24  2  0
 21 22  2  0
 22 23  1  0
 23 24  1  0
M  CHG  1  18   1
M  END
