
     RDKit          3D

 21 20  0  0  0  0  0  0  0  0999 V2000
   -3.0210   -2.4890   -0.4790 N   0  0  0  0  0  0  0  0  0  0  0  0
   -1.7770   -1.8050   -0.2510 C   0  0  0  0  0  0  0  0  0  0  0  0
   -0.9570   -1.8850   -1.1980 O   0  0  0  0  0  0  0  0  0  0  0  0
   -1.5330   -1.0790    1.0170 C   0  0  2  0  0  0  0  0  0  0  0  0
   -2.6680   -1.2920    1.8510 O   0  0  0  0  0  0  0  0  0  0  0  0
   -1.5840    0.4150    0.7080 C   0  0  1  0  0  0  0  0  0  0  0  0
   -1.8080    1.2350    1.9310 C   0  0  0  0  0  0  0  0  0  0  0  0
   -0.8200    1.2840    2.8570 O   0  0  0  0  0  0  0  0  0  0  0  0
   -0.5180    0.7860   -0.0830 O   0  0  0  0  0  0  0  0  0  0  0  0
    0.7130    0.5600    0.4270 C   0  0  0  0  0  0  0  0  0  0  0  0
    1.7410    1.0740   -0.5620 C   0  0  2  0  0  0  0  0  0  0  0  0
    1.5490    0.3940   -1.8670 C   0  0  0  0  0  0  0  0  0  0  0  0
    0.2870    0.6190   -2.3820 O   0  0  0  0  0  0  0  0  0  0  0  0
    3.0910    0.8620   -0.0340 N   0  0  0  0  0  0  0  0  0  0  0  0
    3.3050   -0.4730    0.4240 C   0  0  0  0  0  0  0  0  0  0  0  0
    4.8000   -0.7750    0.2690 C   0  0  0  0  0  0  0  0  0  0  0  0
    5.0160   -2.0670    0.7100 O   0  0  0  0  0  0  0  0  0  0  0  0
   -2.8140    0.5860   -0.1130 C   0  0  0  0  0  0  0  0  0  0  0  0
   -3.9730   -0.0280    0.3950 O   0  0  0  0  0  0  0  0  0  0  0  0
   -2.8940    1.2510   -1.2410 C   0  0  0  0  0  0  0  0  0  0  0  0
   -4.0950    1.3430   -1.9230 O   0  0  0  0  0  0  0  0  0  0  0  0
  1  2  1  0
  2  3  2  0
  2  4  1  0
  4  5  1  1
  4  6  1  0
  6  7  1  1
  6  9  1  0
  6 18  1  0
  7  8  1  0
  9 10  1  0
 11 10  1  1
 11 12  1  0
 11 14  1  0
 12 13  1  0
 14 15  1  0
 15 16  1  0
 16 17  1  0
 18 19  1  0
 18 20  2  3
 20 21  1  0
M  CHG  1  14   1
M  END
