
     RDKit          3D

 21 20  0  0  0  0  0  0  0  0999 V2000
   -2.5040   -2.2470   -2.3030 N   0  0  0  0  0  0  0  0  0  0  0  0
   -2.0000   -1.1380   -1.7740 O   0  0  0  0  0  0  0  0  0  0  0  0
   -2.9020   -0.1990   -1.3890 C   0  0  0  0  0  0  0  0  0  0  0  0
   -2.2930    1.0040   -0.8120 C   0  0  1  0  0  0  0  0  0  0  0  0
   -3.4290    1.9150   -0.6030 O   0  0  0  0  0  0  0  0  0  0  0  0
   -1.5640    0.9610    0.4870 C   0  0  1  0  0  0  0  0  0  0  0  0
   -1.1050    2.4040    0.7060 C   0  0  0  0  0  0  0  0  0  0  0  0
   -2.3090    3.1750    0.7370 O   0  0  0  0  0  0  0  0  0  0  0  0
   -2.4740    0.6720    1.6530 C   0  0  0  0  0  0  0  0  0  0  0  0
   -3.1350   -0.5120    1.6220 O   0  0  0  0  0  0  0  0  0  0  0  0
   -0.3300    0.0670    0.4570 C   0  0  2  0  0  0  0  0  0  0  0  0
   -0.7070   -1.2170    0.1890 O   0  0  0  0  0  0  0  0  0  0  0  0
    0.3470    0.1160    1.7990 C   0  0  0  0  0  0  0  0  0  0  0  0
    1.5280   -0.6570    1.9950 N   0  0  0  0  0  0  0  0  0  0  0  0
    0.6130    0.5450   -0.6080 C   0  0  0  0  0  0  0  0  0  0  0  0
    1.8150   -0.2700   -0.8550 C   0  0  0  0  0  0  0  0  0  0  0  0
    1.7840   -1.5300   -0.7510 O   0  0  0  0  0  0  0  0  0  0  0  0
    3.0310    0.2810   -1.2100 O   0  0  0  0  0  0  0  0  0  0  0  0
    4.2350   -0.3730   -1.4620 C   0  0  0  0  0  0  0  0  0  0  0  0
    4.8440   -1.1260   -0.3360 C   0  0  0  0  0  0  0  0  0  0  0  0
    4.0710   -2.1410    0.1750 O   0  0  0  0  0  0  0  0  0  0  0  0
  1  2  1  0
  2  3  1  0
  3  4  1  0
  4  5  1  1
  4  6  1  0
  6  7  1  1
  6  9  1  0
  6 11  1  0
  7  8  1  0
  9 10  1  0
 11 12  1  6
 11 13  1  0
 11 15  1  0
 13 14  1  0
 15 16  1  0
 16 17  2  0
 16 18  1  0
 18 19  1  0
 19 20  1  0
 20 21  1  0
M  CHG  1  14   1
M  END
