
     RDKit          3D

 20 19  0  0  0  0  0  0  0  0999 V2000
    4.7460   -1.4070    0.1310 N   0  0  0  0  0  0  0  0  0  0  0  0
    3.9560   -0.3850    0.4630 O   0  0  0  0  0  0  0  0  0  0  0  0
    3.6450    0.3770   -0.6510 C   0  0  0  0  0  0  0  0  0  0  0  0
    2.7520    1.5380   -0.3000 C   0  0  2  0  0  0  0  0  0  0  0  0
    3.4980    2.3110    0.6290 O   0  0  0  0  0  0  0  0  0  0  0  0
    1.4530    1.0850    0.3830 C   0  0  0  0  0  0  0  0  0  0  0  0
    0.6820    0.3230   -0.5160 N   0  0  0  0  0  0  0  0  0  0  0  0
   -0.5530   -0.2540    0.0530 C   0  0  1  0  0  0  0  0  0  0  0  0
   -0.1080   -1.2070    1.1650 C   0  0  0  0  0  0  0  0  0  0  0  0
    0.7060   -2.2180    0.6870 O   0  0  0  0  0  0  0  0  0  0  0  0
   -1.3250    0.8570    0.6440 C   0  0  0  0  0  0  0  0  0  0  0  0
   -1.7290    1.9460   -0.2920 C   0  0  0  0  0  0  0  0  0  0  0  0
   -2.4950    2.9670    0.4930 C   0  0  0  0  0  0  0  0  0  0  0  0
   -2.7000    2.8230    1.7260 O   0  0  0  0  0  0  0  0  0  0  0  0
   -3.0150    4.1150   -0.0910 O   0  0  0  0  0  0  0  0  0  0  0  0
   -1.2610   -1.0770   -0.9590 C   0  0  1  0  0  0  0  0  0  0  0  0
   -0.4750   -2.1630   -1.3800 O   0  0  0  0  0  0  0  0  0  0  0  0
   -2.6630   -1.4200   -0.8300 C   0  0  0  0  0  0  0  0  0  0  0  0
   -3.2000   -2.1870    0.3050 C   0  0  0  0  0  0  0  0  0  0  0  0
   -2.6400   -3.4720    0.4590 O   0  0  0  0  0  0  0  0  0  0  0  0
  1  2  1  0
  2  3  1  0
  3  4  1  0
  4  5  1  1
  4  6  1  0
  6  7  1  0
  7  8  1  0
  8  9  1  1
  8 11  1  0
  8 16  1  0
  9 10  1  0
 11 12  1  0
 12 13  1  0
 13 14  2  0
 13 15  1  0
 16 17  1  1
 16 18  1  0
 18 19  1  0
 19 20  1  0
M  CHG  1   7   1
M  END
