
     RDKit          3D

 20 19  0  0  0  0  0  0  0  0999 V2000
   -5.2710    2.4160    0.6710 C   0  0  0  0  0  0  0  0  0  0  0  0
   -4.0540    3.1160    1.2080 C   0  0  0  0  0  0  0  0  0  0  0  0
   -2.8980    2.7720    0.5080 O   0  0  0  0  0  0  0  0  0  0  0  0
   -2.6700    1.4010    0.5950 C   0  0  0  0  0  0  0  0  0  0  0  0
   -1.5020    1.1150   -0.1230 O   0  0  0  0  0  0  0  0  0  0  0  0
   -1.1770   -0.2270   -0.1040 C   0  0  2  0  0  0  0  0  0  0  0  0
    0.1490   -0.4790    0.5460 C   0  0  0  0  0  0  0  0  0  0  0  0
    1.1400    0.1940   -0.1420 O   0  0  0  0  0  0  0  0  0  0  0  0
    2.4320   -0.0370    0.4820 C   0  0  2  0  0  0  0  0  0  0  0  0
    2.8850    1.3040    0.8620 C   0  0  0  0  0  0  0  0  0  0  0  0
    4.0930    1.5070    1.5550 N   0  0  0  0  0  0  0  0  0  0  0  0
    3.1660   -0.7910   -0.5840 C   0  0  2  0  0  0  0  0  0  0  0  0
    2.3680   -1.9630   -0.8830 O   0  0  0  0  0  0  0  0  0  0  0  0
    4.4700   -1.4020   -0.1400 C   0  0  0  0  0  0  0  0  0  0  0  0
    5.4770   -0.5330    0.1560 O   0  0  0  0  0  0  0  0  0  0  0  0
   -1.3010   -0.7810   -1.4900 C   0  0  1  0  0  0  0  0  0  0  0  0
   -0.4660   -0.1640   -2.4010 O   0  0  0  0  0  0  0  0  0  0  0  0
   -1.2160   -2.2710   -1.5700 C   0  0  1  0  0  0  0  0  0  0  0  0
   -2.1090   -2.8750   -0.5970 N   0  0  0  0  0  0  0  0  0  0  0  0
   -1.6180   -2.6390   -2.8680 O   0  0  0  0  0  0  0  0  0  0  0  0
  1  2  1  0
  2  3  1  0
  3  4  1  0
  4  5  1  0
  5  6  1  0
  6  7  1  6
  6 16  1  0
  7  8  1  0
  8  9  1  0
  9 10  1  6
  9 12  1  0
 10 11  1  0
 12 13  1  1
 12 14  1  0
 14 15  1  0
 16 17  1  6
 16 18  1  0
 18 19  1  1
 18 20  1  0
M  CHG  1  11   1
M  END
