
     RDKit          3D

 20 19  0  0  0  0  0  0  0  0999 V2000
   -3.8650    1.8780    3.2020 N   0  0  0  0  0  0  0  0  0  0  0  0
   -3.5090    2.0530    1.9310 O   0  0  0  0  0  0  0  0  0  0  0  0
   -2.9730    0.8770    1.3560 C   0  0  0  0  0  0  0  0  0  0  0  0
   -2.6200    1.2150   -0.0600 C   0  0  2  0  0  0  0  0  0  0  0  0
   -3.7300    1.6300   -0.7850 O   0  0  0  0  0  0  0  0  0  0  0  0
   -1.8510    0.1870   -0.7950 C   0  0  2  0  0  0  0  0  0  0  0  0
   -2.5740   -1.0330   -1.2480 C   0  0  0  0  0  0  0  0  0  0  0  0
   -3.7220   -0.7940   -2.1910 C   0  0  0  0  0  0  0  0  0  0  0  0
   -4.2290   -2.0870   -2.4900 O   0  0  0  0  0  0  0  0  0  0  0  0
   -0.7160   -0.1910   -0.0350 O   0  0  0  0  0  0  0  0  0  0  0  0
    0.4190    0.1800   -0.7050 C   0  0  0  0  0  0  0  0  0  0  0  0
    1.6900   -0.1810    0.0250 C   0  0  2  0  0  0  0  0  0  0  0  0
    2.7340    0.2550   -0.7740 O   0  0  0  0  0  0  0  0  0  0  0  0
    1.8410   -1.6840    0.1650 C   0  0  0  0  0  0  0  0  0  0  0  0
    1.7780   -2.2980   -1.1460 N   0  0  0  0  0  0  0  0  0  0  0  0
    1.7670    0.5110    1.3540 C   0  0  0  0  0  0  0  0  0  0  0  0
    2.8920    0.2490    2.0660 O   0  0  0  0  0  0  0  0  0  0  0  0
    4.0990    0.5780    1.5370 C   0  0  0  0  0  0  0  0  0  0  0  0
    5.1750    0.2290    2.5830 C   0  0  0  0  0  0  0  0  0  0  0  0
    4.9310    0.9530    3.7300 O   0  0  0  0  0  0  0  0  0  0  0  0
  1  2  1  0
  2  3  1  0
  3  4  1  0
  4  5  1  6
  4  6  1  0
  6  7  1  1
  6 10  1  0
  7  8  1  0
  8  9  1  0
 10 11  1  0
 11 12  1  0
 12 13  1  6
 12 14  1  0
 12 16  1  0
 14 15  1  0
 16 17  1  0
 17 18  1  0
 18 19  1  0
 19 20  1  0
M  CHG  1  15   1
M  END
