
     RDKit          3D

 21 20  0  0  0  0  0  0  0  0999 V2000
   -6.0110    2.2040   -0.8310 N   0  0  0  0  0  0  0  0  0  0  0  0
   -4.6820    1.8880   -0.5240 C   0  0  0  0  0  0  0  0  0  0  0  0
   -3.7530    2.6330   -0.8750 O   0  0  0  0  0  0  0  0  0  0  0  0
   -4.3910    0.6350    0.2370 C   0  0  0  0  0  0  0  0  0  0  0  0
   -2.9270    0.4620    0.4730 C   0  0  0  0  0  0  0  0  0  0  0  0
   -2.6500   -0.7710    1.2580 C   0  0  2  0  0  0  0  0  0  0  0  0
   -1.2130   -0.9380    1.4960 N   0  0  0  0  0  0  0  0  0  0  0  0
   -0.4410   -0.4100    0.3930 C   0  0  0  0  0  0  0  0  0  0  0  0
    1.0260   -0.6810    0.7340 C   0  0  1  0  0  0  0  0  0  0  0  0
    1.2330   -2.0430    0.8760 O   0  0  0  0  0  0  0  0  0  0  0  0
    1.9360   -0.0570   -0.3080 C   0  0  1  0  0  0  0  0  0  0  0  0
    1.6290    1.2970   -0.3510 O   0  0  0  0  0  0  0  0  0  0  0  0
    3.3630   -0.2310    0.1620 C   0  0  2  0  0  0  0  0  0  0  0  0
    3.5130    0.3200    1.4380 O   0  0  0  0  0  0  0  0  0  0  0  0
    4.2880    0.5380   -0.7550 C   0  0  2  0  0  0  0  0  0  0  0  0
    4.2000    0.0540   -2.0430 O   0  0  0  0  0  0  0  0  0  0  0  0
    5.7120    0.4300   -0.2510 C   0  0  0  0  0  0  0  0  0  0  0  0
    6.5800    1.1490   -1.0370 O   0  0  0  0  0  0  0  0  0  0  0  0
   -3.1720   -1.9970    0.6330 C   0  0  0  0  0  0  0  0  0  0  0  0
   -4.3870   -2.2280    0.4370 O   0  0  0  0  0  0  0  0  0  0  0  0
   -2.2770   -2.9950    0.2150 O   0  0  0  0  0  0  0  0  0  0  0  0
  1  2  1  0
  2  3  2  0
  2  4  1  0
  4  5  1  0
  6  5  1  6
  6  7  1  0
  6 19  1  0
  7  8  1  0
  8  9  1  0
  9 10  1  6
  9 11  1  0
 11 12  1  1
 11 13  1  0
 13 14  1  1
 13 15  1  0
 15 16  1  6
 15 17  1  0
 17 18  1  0
 19 20  2  0
 19 21  1  0
M  CHG  1   7   1
M  END
