
     RDKit          3D

 21 20  0  0  0  0  0  0  0  0999 V2000
   -2.4100   -2.2670   -0.2390 N   0  0  0  0  0  0  0  0  0  0  0  0
   -3.5070   -1.3620   -0.2460 C   0  0  0  0  0  0  0  0  0  0  0  0
   -4.6340   -1.8410    0.0350 O   0  0  0  0  0  0  0  0  0  0  0  0
   -3.3910    0.0660   -0.5580 C   0  0  2  0  0  0  0  0  0  0  0  0
   -4.6270    0.6730   -0.4800 O   0  0  0  0  0  0  0  0  0  0  0  0
   -2.9540    0.1850   -2.0200 C   0  0  0  0  0  0  0  0  0  0  0  0
   -2.8610    1.5010   -2.4280 O   0  0  0  0  0  0  0  0  0  0  0  0
   -2.3530    0.7180    0.3170 C   0  0  1  0  0  0  0  0  0  0  0  0
   -2.7780    0.6810    1.7660 C   0  0  0  0  0  0  0  0  0  0  0  0
   -4.0150    1.3850    1.9980 N   0  0  0  0  0  0  0  0  0  0  0  0
   -1.1770    0.0350    0.1590 O   0  0  0  0  0  0  0  0  0  0  0  0
   -0.1290    0.8040   -0.3050 C   0  0  0  0  0  0  0  0  0  0  0  0
    1.1160   -0.0460   -0.4390 C   0  0  1  0  0  0  0  0  0  0  0  0
    0.9170   -1.1110   -1.3410 O   0  0  0  0  0  0  0  0  0  0  0  0
    2.2630    0.8110   -0.8790 C   0  0  0  0  0  0  0  0  0  0  0  0
    3.4720    0.1870   -0.9780 O   0  0  0  0  0  0  0  0  0  0  0  0
    3.9750   -0.3700    0.1690 C   0  0  2  0  0  0  0  0  0  0  0  0
    5.3220    0.2530    0.5530 C   0  0  0  0  0  0  0  0  0  0  0  0
    6.2670    0.0680   -0.4510 O   0  0  0  0  0  0  0  0  0  0  0  0
    4.1940   -1.8620   -0.1210 C   0  0  0  0  0  0  0  0  0  0  0  0
    5.0960   -1.9950   -1.1760 O   0  0  0  0  0  0  0  0  0  0  0  0
  1  2  1  0
  2  3  2  0
  2  4  1  0
  4  5  1  6
  4  6  1  0
  4  8  1  0
  6  7  1  0
  8  9  1  1
  8 11  1  0
  9 10  1  0
 11 12  1  0
 12 13  1  0
 13 14  1  6
 13 15  1  0
 15 16  1  0
 16 17  1  0
 17 18  1  6
 17 20  1  0
 18 19  1  0
 20 21  1  0
M  CHG  1  10   1
M  END
