
     RDKit          3D

 20 20  0  0  0  0  0  0  0  0999 V2000
    3.8830   -1.9290    0.2030 N   0  0  0  0  0  0  0  0  0  0  0  0
    3.8040   -0.8360   -0.7570 C   0  0  0  0  0  0  0  0  0  0  0  0
    3.1930    0.4000   -0.2150 C   0  0  2  0  0  0  0  0  0  0  0  0
    3.5190    1.4780   -1.0960 O   0  0  0  0  0  0  0  0  0  0  0  0
    3.4800    0.7350    1.1670 C   0  0  0  0  0  0  0  0  0  0  0  0
    2.6260    1.7540    1.4430 O   0  0  0  0  0  0  0  0  0  0  0  0
    1.4270    1.5250    0.7600 C   0  0  0  0  0  0  0  0  0  0  0  0
    1.6610    0.4470   -0.2620 C   0  0  1  0  0  0  0  0  0  0  0  0
    1.1840    0.7740   -1.6420 C   0  0  0  0  0  0  0  0  0  0  0  0
    1.6930    1.9380   -2.1630 O   0  0  0  0  0  0  0  0  0  0  0  0
    1.0390   -0.8210    0.2200 C   0  0  0  0  0  0  0  0  0  0  0  0
   -0.2560   -1.0140    0.1010 O   0  0  0  0  0  0  0  0  0  0  0  0
   -1.2310   -0.3280    0.7410 C   0  0  0  0  0  0  0  0  0  0  0  0
   -2.5530   -1.0300    0.3240 C   0  0  2  0  0  0  0  0  0  0  0  0
   -2.3210   -2.4030    0.5400 O   0  0  0  0  0  0  0  0  0  0  0  0
   -2.8670   -0.7150   -1.0940 C   0  0  0  0  0  0  0  0  0  0  0  0
   -3.3120    0.5990   -1.2840 O   0  0  0  0  0  0  0  0  0  0  0  0
   -3.6870   -0.6490    1.2140 C   0  0  0  0  0  0  0  0  0  0  0  0
   -4.3870    0.3900    0.5160 O   0  0  0  0  0  0  0  0  0  0  0  0
   -5.7010    0.0060    0.5600 N   0  0  0  0  0  0  0  0  0  0  0  0
  1  2  1  0
  2  3  1  0
  3  4  1  6
  3  5  1  0
  3  8  1  0
  5  6  1  0
  6  7  1  0
  7  8  1  0
  8  9  1  6
  8 11  1  0
  9 10  1  0
 11 12  1  0
 12 13  1  0
 13 14  1  0
 14 15  1  6
 14 16  1  0
 14 18  1  0
 16 17  1  0
 18 19  1  0
 19 20  1  0
M  CHG  1  20   1
M  END
