
     RDKit          3D

 28 30  0  0  0  0  0  0  0  0999 V2000
    7.1000   -2.1920    1.1080 C   0  0  0  0  0  0  0  0  0  0  0  0
    6.7520   -1.9770   -0.2640 O   0  0  0  0  0  0  0  0  0  0  0  0
    5.7550   -1.0720   -0.6010 C   0  0  0  0  0  0  0  0  0  0  0  0
    5.0640   -0.3490    0.3480 C   0  0  0  0  0  0  0  0  0  0  0  0
    4.0730    0.5520    0.0240 C   0  0  0  0  0  0  0  0  0  0  0  0
    3.4460    1.2240    1.0620 O   0  0  0  0  0  0  0  0  0  0  0  0
    2.3250    0.7750    1.7240 C   0  0  0  0  0  0  0  0  0  0  0  0
    1.8310   -0.3250    1.3650 O   0  0  0  0  0  0  0  0  0  0  0  0
    1.7340    1.5930    2.8360 C   0  0  0  0  0  0  0  0  0  0  0  0
    0.2980    0.7000    3.4610 S   0  0  0  0  0  0  0  0  0  0  0  0
   -1.0010    0.6110    2.2350 C   0  0  0  0  0  0  0  0  0  0  0  0
   -2.1980   -0.0250    2.4830 C   0  0  0  0  0  0  0  0  0  0  0  0
   -3.1440   -0.0470    1.4810 C   0  0  0  0  0  0  0  0  0  0  0  0
   -4.4430   -0.7200    1.7080 C   0  0  0  0  0  0  0  0  0  0  0  0
   -2.9340    0.5410    0.2530 C   0  0  0  0  0  0  0  0  0  0  0  0
   -3.9600    0.4950   -0.7800 C   0  0  0  0  0  0  0  0  0  0  0  0
   -3.7990    1.0730   -2.0290 C   0  0  0  0  0  0  0  0  0  0  0  0
   -4.9500    0.8400   -2.7400 C   0  0  0  0  0  0  0  0  0  0  0  0
   -5.7700    0.1250   -1.8910 C   0  0  0  0  0  0  0  0  0  0  0  0
   -7.1300   -0.3400   -2.2640 C   0  0  0  0  0  0  0  0  0  0  0  0
   -7.7370   -1.0500   -1.2510 O   0  0  0  0  0  0  0  0  0  0  0  0
   -5.1380   -0.0480   -0.7570 O   0  0  0  0  0  0  0  0  0  0  0  0
   -1.7470    1.1450    0.0750 N   0  0  0  0  0  0  0  0  0  0  0  0
   -0.8210    1.1770    1.0290 N   0  0  0  0  0  0  0  0  0  0  0  0
    3.7570    0.7400   -1.3050 C   0  0  0  0  0  0  0  0  0  0  0  0
    4.4340    0.0290   -2.2690 C   0  0  0  0  0  0  0  0  0  0  0  0
    5.4370   -0.8830   -1.9300 C   0  0  0  0  0  0  0  0  0  0  0  0
    6.1270   -1.6070   -2.8920 O   0  0  0  0  0  0  0  0  0  0  0  0
  1  2  1  0
  2  3  1  0
  3  4  2  0
  3 27  1  0
  4  5  1  0
  5  6  1  0
  5 25  2  0
  6  7  1  0
  7  8  2  0
  7  9  1  0
  9 10  1  0
 10 11  1  0
 11 12  2  0
 11 24  1  0
 12 13  1  0
 13 14  1  0
 13 15  2  0
 15 16  1  0
 15 23  1  0
 16 17  2  0
 16 22  1  0
 17 18  1  0
 18 19  2  0
 19 20  1  0
 19 22  1  0
 20 21  1  0
 23 24  2  0
 25 26  1  0
 26 27  2  0
 27 28  1  0
M  END
