
     RDKit          3D

 13 14  0  0  0  0  0  0  0  0999 V2000
    1.7950    0.6950   -1.0790 C   0  0  0  0  0  0  0  0  0  0  0  0
    2.9010    0.2270   -1.5360 N   0  0  0  0  0  0  0  0  0  0  0  0
    3.7730   -0.5550   -0.7910 N   0  0  0  0  0  0  0  0  0  0  0  0
    3.4430   -0.8730    0.5780 C   0  0  0  0  0  0  0  0  0  0  0  0
    2.1610   -0.3000    1.0300 C   0  0  0  0  0  0  0  0  0  0  0  0
    1.3520    0.4410    0.2930 C   0  0  0  0  0  0  0  0  0  0  0  0
    0.0840    0.9790    0.8260 C   0  0  0  0  0  0  0  0  0  0  0  0
   -1.0240    0.4870    0.0650 N   0  0  0  0  0  0  0  0  0  0  0  0
   -2.2850    1.0340    0.4420 C   0  0  0  0  0  0  0  0  0  0  0  0
   -3.0770    1.3060   -0.8220 C   0  0  0  0  0  0  0  0  0  0  0  0
   -3.3310   -0.3610   -1.5570 S   0  0  0  0  0  0  0  0  0  0  0  0
   -2.3640   -1.4680   -0.4620 C   0  0  0  0  0  0  0  0  0  0  0  0
   -1.0050   -0.9150   -0.1700 C   0  0  0  0  0  0  0  0  0  0  0  0
  1  2  2  0
  1  6  1  0
  2  3  1  0
  3  4  1  0
  4  5  1  0
  5  6  2  0
  6  7  1  0
  7  8  1  0
  8  9  1  0
  8 13  1  0
  9 10  1  0
 10 11  1  0
 11 12  1  0
 12 13  1  0
M  END
