
     RDKit          3D

 13 14  0  0  0  0  0  0  0  0999 V2000
   -4.1760    0.7770   -0.2770 C   0  0  0  0  0  0  0  0  0  0  0  0
   -2.9840   -0.1030   -0.1090 C   0  0  0  0  0  0  0  0  0  0  0  0
   -1.7430    0.6040   -0.1210 N   0  0  0  0  0  0  0  0  0  0  0  0
   -0.5230   -0.1200    0.0310 C   0  0  0  0  0  0  0  0  0  0  0  0
   -0.5430   -1.4890    0.1870 C   0  0  0  0  0  0  0  0  0  0  0  0
    0.5840   -2.1690    0.3280 N   0  0  0  0  0  0  0  0  0  0  0  0
    1.8110   -1.5100    0.3210 C   0  0  0  0  0  0  0  0  0  0  0  0
    3.0500   -2.1900    0.4680 C   0  0  0  0  0  0  0  0  0  0  0  0
    4.2600   -0.8990    0.3870 S   0  0  0  0  0  0  0  0  0  0  0  0
    3.0650    0.4460    0.1660 C   0  0  0  0  0  0  0  0  0  0  0  0
    3.4250    1.8630    0.0230 C   0  0  0  0  0  0  0  0  0  0  0  0
    1.8650   -0.1910    0.1720 C   0  0  0  0  0  0  0  0  0  0  0  0
    0.6620    0.4820    0.0280 N   0  0  0  0  0  0  0  0  0  0  0  0
  1  2  1  0
  2  3  1  0
  3  4  1  0
  4  5  1  0
  4 13  2  0
  5  6  2  0
  6  7  1  0
  7  8  2  0
  7 12  1  0
  8  9  1  0
  9 10  1  0
 10 11  1  0
 10 12  2  0
 12 13  1  0
M  END
