
     RDKit          3D

 13 14  0  0  0  0  0  0  0  0999 V2000
    4.2160    0.7140    0.5510 C   0  0  0  0  0  0  0  0  0  0  0  0
    2.9130    0.2120    0.2420 N   0  0  0  0  0  0  0  0  0  0  0  0
    1.7640    0.7550    0.6030 N   0  0  0  0  0  0  0  0  0  0  0  0
    0.7360    0.0400    0.1550 C   0  0  0  0  0  0  0  0  0  0  0  0
   -0.7080    0.3200    0.3500 C   0  0  2  0  0  0  0  0  0  0  0  0
   -1.3860   -0.8580    0.9660 C   0  0  0  0  0  0  0  0  0  0  0  0
   -2.8560   -0.8200    0.8700 C   0  0  0  0  0  0  0  0  0  0  0  0
   -3.4750   -0.0270    0.0200 C   0  0  0  0  0  0  0  0  0  0  0  0
   -2.7720    0.8850   -0.9060 C   0  0  0  0  0  0  0  0  0  0  0  0
   -1.3060    0.6350   -1.0250 C   0  0  0  0  0  0  0  0  0  0  0  0
    1.2450   -1.0050   -0.5210 N   0  0  0  0  0  0  0  0  0  0  0  0
    2.5780   -0.8870   -0.4600 C   0  0  0  0  0  0  0  0  0  0  0  0
    3.6440   -1.9170   -1.1330 S   0  0  0  0  0  0  0  0  0  0  0  0
  1  2  1  0
  2  3  1  0
  2 12  1  0
  3  4  2  0
  5  4  1  6
  4 11  1  0
  5  6  1  0
  5 10  1  0
  6  7  1  0
  7  8  2  0
  8  9  1  0
  9 10  1  0
 11 12  1  0
 12 13  2  0
M  END
