
     RDKit          3D

 13 14  0  0  0  0  0  0  0  0999 V2000
    5.2790   -0.3070   -0.8000 C   0  0  0  0  0  0  0  0  0  0  0  0
    4.4620   -0.1380    0.8110 S   0  0  0  0  0  0  0  0  0  0  0  0
    2.7470   -0.5750    0.6140 C   0  0  0  0  0  0  0  0  0  0  0  0
    2.2450   -1.8060    0.7600 N   0  0  0  0  0  0  0  0  0  0  0  0
    0.9600   -1.7770    0.5460 N   0  0  0  0  0  0  0  0  0  0  0  0
    0.6060   -0.5160    0.2570 C   0  0  0  0  0  0  0  0  0  0  0  0
   -0.7620   -0.1230   -0.0370 C   0  0  0  0  0  0  0  0  0  0  0  0
   -1.0280    1.1410   -0.3130 C   0  0  0  0  0  0  0  0  0  0  0  0
   -2.4590    1.4630   -0.6040 C   0  0  0  0  0  0  0  0  0  0  0  0
   -3.3930    0.8190    0.3740 C   0  0  0  0  0  0  0  0  0  0  0  0
   -2.9590   -0.5210    0.8660 C   0  0  0  0  0  0  0  0  0  0  0  0
   -1.8900   -1.0870   -0.0420 C   0  0  0  0  0  0  0  0  0  0  0  0
    1.7160    0.2220    0.3010 N   0  0  0  0  0  0  0  0  0  0  0  0
  1  2  1  0
  2  3  1  0
  3  4  2  0
  3 13  1  0
  4  5  1  0
  5  6  2  0
  6  7  1  0
  6 13  1  0
  7  8  2  0
  7 12  1  0
  8  9  1  0
  9 10  1  0
 10 11  1  0
 11 12  1  0
M  END
