
     RDKit          3D

 21 21  0  0  0  0  0  0  0  0999 V2000
    6.2190    1.2530    0.0720 N   0  0  0  0  0  0  0  0  0  0  0  0
    4.8380    1.3160    0.1980 C   0  0  0  0  0  0  0  0  0  0  0  0
    4.2670    2.4310    0.0460 O   0  0  0  0  0  0  0  0  0  0  0  0
    3.9500    0.1630    0.5020 C   0  0  0  0  0  0  0  0  0  0  0  0
    2.5180    0.5280    0.5750 C   0  0  0  0  0  0  0  0  0  0  0  0
    1.6820   -0.6970    0.8610 C   0  0  2  0  0  0  0  0  0  0  0  0
    0.2490   -0.3040    0.9230 N   0  0  0  0  0  0  0  0  0  0  0  0
   -0.1110    0.1120   -0.3930 C   0  0  0  0  0  0  0  0  0  0  0  0
   -1.5490   -0.1200   -0.7460 C   0  0  1  0  0  0  0  0  0  0  0  0
   -1.7210    0.3470   -2.0690 O   0  0  0  0  0  0  0  0  0  0  0  0
   -1.9250   -1.4380   -0.7230 O   0  0  0  0  0  0  0  0  0  0  0  0
   -3.2410   -1.6420   -0.3940 C   0  0  0  0  0  0  0  0  0  0  0  0
   -4.1870   -0.6600   -1.0330 C   0  0  1  0  0  0  0  0  0  0  0  0
   -5.4820   -0.9850   -0.5720 O   0  0  0  0  0  0  0  0  0  0  0  0
   -3.8210    0.7470   -0.6740 C   0  0  1  0  0  0  0  0  0  0  0  0
   -4.7930    1.4290    0.0160 O   0  0  0  0  0  0  0  0  0  0  0  0
   -2.5030    0.6770    0.1070 C   0  0  2  0  0  0  0  0  0  0  0  0
   -1.9990    1.9760    0.2590 O   0  0  0  0  0  0  0  0  0  0  0  0
    2.0510   -1.4190    2.0880 C   0  0  0  0  0  0  0  0  0  0  0  0
    1.1960   -1.4750    3.0370 O   0  0  0  0  0  0  0  0  0  0  0  0
    3.2420   -2.0620    2.3420 O   0  0  0  0  0  0  0  0  0  0  0  0
  1  2  1  0
  2  3  2  0
  2  4  1  0
  4  5  1  0
  6  5  1  1
  6  7  1  0
  6 19  1  0
  7  8  1  0
  8  9  1  0
  9 10  1  6
  9 11  1  0
  9 17  1  0
 11 12  1  0
 12 13  1  0
 13 14  1  1
 13 15  1  0
 15 16  1  1
 15 17  1  0
 17 18  1  6
 19 20  2  0
 19 21  1  0
M  CHG  1   7   1
M  END
