
     RDKit          3D

 28 30  0  0  0  0  0  0  0  0999 V2000
   -3.4550    5.3000   -1.2190 C   0  0  0  0  0  0  0  0  0  0  0  0
   -2.4930    5.5190   -0.0750 C   0  0  0  0  0  0  0  0  0  0  0  0
   -1.0570    4.4620   -0.1050 S   0  0  0  0  0  0  0  0  0  0  0  0
   -1.4050    2.7610    0.2030 C   0  0  0  0  0  0  0  0  0  0  0  0
   -0.3330    1.8470    0.1110 C   0  0  0  0  0  0  0  0  0  0  0  0
   -0.4920    0.5130    0.3410 C   0  0  0  0  0  0  0  0  0  0  0  0
    0.5430   -0.4520    0.2950 N   0  0  0  0  0  0  0  0  0  0  0  0
    1.8840   -0.2640   -0.0850 C   0  0  0  0  0  0  0  0  0  0  0  0
    2.2610    0.8740   -0.4350 O   0  0  0  0  0  0  0  0  0  0  0  0
    2.8330   -1.3730   -0.0740 C   0  0  0  0  0  0  0  0  0  0  0  0
    4.0940   -1.2160   -0.4310 C   0  0  0  0  0  0  0  0  0  0  0  0
    4.6050    0.1220   -0.8690 C   0  0  0  0  0  0  0  0  0  0  0  0
    5.9400   -0.0440   -1.2950 O   0  0  0  0  0  0  0  0  0  0  0  0
    6.8270   -0.9300   -0.7270 C   0  0  0  0  0  0  0  0  0  0  0  0
    8.0800   -0.8010   -0.7780 O   0  0  0  0  0  0  0  0  0  0  0  0
    6.2950   -2.1090   -0.0110 C   0  0  0  0  0  0  0  0  0  0  0  0
    4.9600   -2.3070   -0.4010 O   0  0  0  0  0  0  0  0  0  0  0  0
   -1.7910    0.0970    0.6760 C   0  0  0  0  0  0  0  0  0  0  0  0
   -2.0650   -1.3350    0.9130 C   0  0  0  0  0  0  0  0  0  0  0  0
   -2.2050   -2.1460   -0.3520 C   0  0  0  0  0  0  0  0  0  0  0  0
   -2.4640   -3.5520    0.0550 C   0  0  0  0  0  0  0  0  0  0  0  0
   -1.5250   -4.5210    0.2840 C   0  0  0  0  0  0  0  0  0  0  0  0
   -2.2070   -5.6630    0.6370 C   0  0  0  0  0  0  0  0  0  0  0  0
   -3.5160   -5.3460    0.6090 N   0  0  0  0  0  0  0  0  0  0  0  0
   -3.6400   -4.1030    0.2660 O   0  0  0  0  0  0  0  0  0  0  0  0
   -2.8280    1.0020    0.7630 C   0  0  0  0  0  0  0  0  0  0  0  0
   -2.6720    2.3500    0.5320 C   0  0  0  0  0  0  0  0  0  0  0  0
   -3.7320    3.2430    0.6260 O   0  0  0  0  0  0  0  0  0  0  0  0
  1  2  1  0
  2  3  1  0
  3  4  1  0
  4  5  2  0
  4 27  1  0
  5  6  1  0
  6  7  1  0
  6 18  2  0
  7  8  1  0
  8  9  2  0
  8 10  1  0
 10 11  2  3
 11 12  1  0
 11 17  1  0
 12 13  1  0
 13 14  1  0
 14 15  2  0
 14 16  1  0
 16 17  1  0
 18 19  1  0
 18 26  1  0
 19 20  1  0
 20 21  1  0
 21 22  2  0
 21 25  1  0
 22 23  1  0
 23 24  2  0
 24 25  1  0
 26 27  2  0
 27 28  1  0
M  END
