
     RDKit          3D

 13 14  0  0  0  0  0  0  0  0999 V2000
    4.2380   -0.7150   -0.5040 C   0  0  0  0  0  0  0  0  0  0  0  0
    3.0680   -0.1990   -0.2150 C   0  0  0  0  0  0  0  0  0  0  0  0
    1.7650   -0.5930   -0.6340 N   0  0  0  0  0  0  0  0  0  0  0  0
    0.8220    0.2840   -0.0500 C   0  0  0  0  0  0  0  0  0  0  0  0
   -0.5910    0.2530   -0.2020 N   0  0  0  0  0  0  0  0  0  0  0  0
   -1.2480   -0.7640   -1.0000 C   0  0  0  0  0  0  0  0  0  0  0  0
   -2.6910   -0.8820   -0.6630 C   0  0  0  0  0  0  0  0  0  0  0  0
   -3.2700   -0.3300    0.3740 C   0  0  0  0  0  0  0  0  0  0  0  0
   -2.4440    0.4840    1.3060 C   0  0  0  0  0  0  0  0  0  0  0  0
   -1.4450    1.2360    0.4340 C   0  0  0  0  0  0  0  0  0  0  0  0
    1.4530    1.1500    0.6680 N   0  0  0  0  0  0  0  0  0  0  0  0
    2.8430    0.9500    0.6410 C   0  0  0  0  0  0  0  0  0  0  0  0
    3.9040    1.8880    1.4530 S   0  0  0  0  0  0  0  0  0  0  0  0
  1  2  2  0
  2  3  1  0
  2 12  1  0
  3  4  1  0
  4  5  1  0
  4 11  2  0
  5  6  1  0
  5 10  1  0
  6  7  1  0
  7  8  2  0
  8  9  1  0
  9 10  1  0
 11 12  1  0
 12 13  2  0
M  END
