
     RDKit          3D

 21 21  0  0  0  0  0  0  0  0999 V2000
   -2.1970   -1.1310   -1.6130 N   0  0  0  0  0  0  0  0  0  0  0  0
   -2.6940   -0.8850   -0.2910 C   0  0  1  0  0  0  0  0  0  0  0  0
   -2.4980   -1.9910    0.6900 C   0  0  0  0  0  0  0  0  0  0  0  0
   -1.2100   -2.3710    0.9300 O   0  0  0  0  0  0  0  0  0  0  0  0
   -2.3650    0.4540    0.2740 C   0  0  1  0  0  0  0  0  0  0  0  0
   -2.9160    0.4710    1.5790 O   0  0  0  0  0  0  0  0  0  0  0  0
   -0.9490    0.8470    0.3350 C   0  0  0  0  0  0  0  0  0  0  0  0
   -0.0820    0.1030    1.0840 O   0  0  0  0  0  0  0  0  0  0  0  0
    1.1720    0.7810    0.9490 C   0  0  0  0  0  0  0  0  0  0  0  0
    2.2050    0.0610    1.7440 C   0  0  0  0  0  0  0  0  0  0  0  0
    2.3910   -1.3250    1.2300 C   0  0  0  0  0  0  0  0  0  0  0  0
    2.9070   -1.3580   -0.0340 O   0  0  0  0  0  0  0  0  0  0  0  0
    4.2040   -0.9130   -0.0590 C   0  0  1  0  0  0  0  0  0  0  0  0
    4.9770   -2.1170   -0.2780 O   0  0  0  0  0  0  0  0  0  0  0  0
    4.4900    0.0050   -1.1900 C   0  0  0  0  0  0  0  0  0  0  0  0
    3.7430    1.1530   -1.1330 O   0  0  0  0  0  0  0  0  0  0  0  0
   -3.0710    1.5180   -0.5300 C   0  0  0  0  0  0  0  0  0  0  0  0
   -3.9380    2.3670   -0.0350 C   0  0  0  0  0  0  0  0  0  0  0  0
   -4.3750    3.1870   -1.0590 O   0  0  0  0  0  0  0  0  0  0  0  0
   -3.7640    2.8350   -2.2330 N   0  0  0  0  0  0  0  0  0  0  0  0
   -2.9350    1.7710   -1.8600 O   0  0  0  0  0  0  0  0  0  0  0  0
  2  1  1  6
  2  3  1  0
  2  5  1  0
  3  4  1  0
  5  6  1  1
  5  7  1  0
  5 17  1  0
  7  8  1  0
  8  9  1  0
  9 10  1  0
 10 11  1  0
 11 12  1  0
 12 13  1  0
 13 14  1  6
 13 15  1  0
 15 16  1  0
 17 18  2  0
 17 21  1  0
 18 19  1  0
 19 20  1  0
 20 21  1  0
M  CHG  1   1   1
M  END
