
     RDKit          3D

 21 20  0  0  0  0  0  0  0  0999 V2000
   -4.0450    0.1700    1.4040 C   0  0  0  0  0  0  0  0  0  0  0  0
   -3.5040   -0.1630    0.0750 C   0  0  1  0  0  0  0  0  0  0  0  0
   -4.1670   -1.3820   -0.2780 O   0  0  0  0  0  0  0  0  0  0  0  0
   -4.0070    0.7470   -1.0490 C   0  0  0  0  0  0  0  0  0  0  0  0
   -5.4140    0.7700   -0.9280 O   0  0  0  0  0  0  0  0  0  0  0  0
   -2.0520   -0.4890   -0.0160 C   0  0  2  0  0  0  0  0  0  0  0  0
   -1.8450   -0.8480   -1.3490 O   0  0  0  0  0  0  0  0  0  0  0  0
   -1.9100   -1.8380    0.7360 C   0  0  0  0  0  0  0  0  0  0  0  0
   -2.0830   -1.6870    2.0910 O   0  0  0  0  0  0  0  0  0  0  0  0
   -1.0500    0.4000    0.5130 C   0  0  2  0  0  0  0  0  0  0  0  0
   -0.9170    1.7930    0.0090 C   0  0  0  0  0  0  0  0  0  0  0  0
    0.1560    2.3920    0.7250 O   0  0  0  0  0  0  0  0  0  0  0  0
    0.3050   -0.2590    0.5840 C   0  0  0  0  0  0  0  0  0  0  0  0
    0.8930   -0.7190   -0.6090 N   0  0  0  0  0  0  0  0  0  0  0  0
    2.2020   -1.2830   -0.2280 C   0  0  0  0  0  0  0  0  0  0  0  0
    3.2110   -0.1590   -0.2370 C   0  0  0  0  0  0  0  0  0  0  0  0
    4.4910   -0.6350    0.1220 O   0  0  0  0  0  0  0  0  0  0  0  0
    5.3620    0.4350    0.0880 C   0  0  1  0  0  0  0  0  0  0  0  0
    5.8990    0.6170    1.3800 O   0  0  0  0  0  0  0  0  0  0  0  0
    6.4500    0.2020   -0.7470 O   0  0  0  0  0  0  0  0  0  0  0  0
    6.6270    1.1820   -1.6590 N   0  0  0  0  0  0  0  0  0  0  0  0
  2  1  1  1
  2  3  1  0
  2  4  1  0
  2  6  1  0
  4  5  1  0
  6  7  1  6
  6  8  1  0
  6 10  1  0
  8  9  1  0
 10 11  1  6
 10 13  1  0
 11 12  1  0
 13 14  1  0
 14 15  1  0
 15 16  1  0
 16 17  1  0
 17 18  1  0
 18 19  1  1
 18 20  1  0
 20 21  1  0
M  CHG  1  14   1
M  END
