
     RDKit          3D

 21 20  0  0  0  0  0  0  0  0999 V2000
    5.5160    1.8340    1.3410 N   0  0  0  0  0  0  0  0  0  0  0  0
    5.0590    0.5510    0.9280 C   0  0  0  0  0  0  0  0  0  0  0  0
    5.7680   -0.4830    1.0090 O   0  0  0  0  0  0  0  0  0  0  0  0
    3.6790    0.4710    0.3850 C   0  0  0  0  0  0  0  0  0  0  0  0
    3.3210   -0.9440   -0.0140 C   0  0  0  0  0  0  0  0  0  0  0  0
    1.9170   -1.0410   -0.5770 C   0  0  2  0  0  0  0  0  0  0  0  0
    0.9170   -0.6200    0.3510 N   0  0  0  0  0  0  0  0  0  0  0  0
    0.3690    0.6680    0.1030 C   0  0  0  0  0  0  0  0  0  0  0  0
   -0.5940    0.7940   -1.0200 C   0  0  2  0  0  0  0  0  0  0  0  0
   -0.9690    2.1690   -1.0530 O   0  0  0  0  0  0  0  0  0  0  0  0
   -1.8740    0.0420   -0.8950 C   0  0  1  0  0  0  0  0  0  0  0  0
   -1.7220   -1.3270   -0.8590 O   0  0  0  0  0  0  0  0  0  0  0  0
   -2.7860    0.5550    0.1960 C   0  0  2  0  0  0  0  0  0  0  0  0
   -2.3530    0.2670    1.4660 O   0  0  0  0  0  0  0  0  0  0  0  0
   -4.1240   -0.1500    0.0050 C   0  0  2  0  0  0  0  0  0  0  0  0
   -4.6560    0.0770   -1.2590 O   0  0  0  0  0  0  0  0  0  0  0  0
   -5.1090    0.2760    1.0790 C   0  0  0  0  0  0  0  0  0  0  0  0
   -5.3990    1.6320    0.9560 O   0  0  0  0  0  0  0  0  0  0  0  0
    1.7050   -2.4680   -0.9060 C   0  0  0  0  0  0  0  0  0  0  0  0
    0.7650   -3.0800   -0.3510 O   0  0  0  0  0  0  0  0  0  0  0  0
    2.4920   -3.1780   -1.8030 O   0  0  0  0  0  0  0  0  0  0  0  0
  1  2  1  0
  2  3  2  0
  2  4  1  0
  4  5  1  0
  6  5  1  1
  6  7  1  0
  6 19  1  0
  7  8  1  0
  8  9  1  0
  9 10  1  1
  9 11  1  0
 11 12  1  1
 11 13  1  0
 13 14  1  1
 13 15  1  0
 15 16  1  6
 15 17  1  0
 17 18  1  0
 19 20  2  0
 19 21  1  0
M  CHG  1   7   1
M  END
