
     RDKit          3D

 21 20  0  0  0  0  0  0  0  0999 V2000
    3.7620   -0.2490    2.9510 N   0  0  0  0  0  0  0  0  0  0  0  0
    2.7430   -1.1110    2.7450 O   0  0  0  0  0  0  0  0  0  0  0  0
    2.4490   -1.0710    1.3790 C   0  0  0  0  0  0  0  0  0  0  0  0
    2.0820    0.1980    1.0050 O   0  0  0  0  0  0  0  0  0  0  0  0
    1.7710    0.3370   -0.3390 C   0  0  2  0  0  0  0  0  0  0  0  0
    3.0460    1.0340   -0.9490 C   0  0  0  0  0  0  0  0  0  0  0  0
    3.2780    2.3490   -0.2940 C   0  0  0  0  0  0  0  0  0  0  0  0
    4.4130    2.9130   -0.8740 O   0  0  0  0  0  0  0  0  0  0  0  0
    0.7100    1.1320   -0.5220 O   0  0  0  0  0  0  0  0  0  0  0  0
   -0.3120    0.9120   -1.3200 C   0  0  0  0  0  0  0  0  0  0  0  0
   -1.3080   -0.2100   -1.0520 C   0  0  1  0  0  0  0  0  0  0  0  0
   -2.1580   -0.0100   -2.2530 O   0  0  0  0  0  0  0  0  0  0  0  0
   -0.6770   -1.5000   -1.3280 C   0  0  0  0  0  0  0  0  0  0  0  0
   -1.5980   -2.6050   -1.6420 N   0  0  0  0  0  0  0  0  0  0  0  0
   -2.2100    0.0420    0.0520 C   0  0  1  0  0  0  0  0  0  0  0  0
   -3.2290   -0.9730    0.4480 C   0  0  0  0  0  0  0  0  0  0  0  0
   -2.7310   -2.1870    0.8820 O   0  0  0  0  0  0  0  0  0  0  0  0
   -1.5060    0.3830    1.3880 C   0  0  0  0  0  0  0  0  0  0  0  0
   -0.7130   -0.6490    1.8060 O   0  0  0  0  0  0  0  0  0  0  0  0
   -3.0360    1.3320   -0.1960 C   0  0  0  0  0  0  0  0  0  0  0  0
   -3.8970    1.5390    0.8840 O   0  0  0  0  0  0  0  0  0  0  0  0
  1  2  1  0
  2  3  1  0
  3  4  1  0
  4  5  1  0
  5  6  1  6
  5  9  1  0
  6  7  1  0
  7  8  1  0
  9 10  1  0
 10 11  1  0
 11 12  1  6
 11 13  1  0
 11 15  1  0
 13 14  1  0
 15 16  1  1
 15 18  1  0
 15 20  1  0
 16 17  1  0
 18 19  1  0
 20 21  1  0
M  CHG  1  14   1
M  END
