
     RDKit          3D

 21 20  0  0  0  0  0  0  0  0999 V2000
   -1.1760   -2.6860   -2.3760 N   0  0  0  0  0  0  0  0  0  0  0  0
   -0.7170   -2.1570   -1.1470 C   0  0  0  0  0  0  0  0  0  0  0  0
    0.2620   -2.7040   -0.6050 O   0  0  0  0  0  0  0  0  0  0  0  0
   -1.3680   -0.9840   -0.4880 C   0  0  1  0  0  0  0  0  0  0  0  0
   -1.7450   -0.1710   -1.7440 C   0  0  0  0  0  0  0  0  0  0  0  0
   -2.3800    0.9970   -1.5140 O   0  0  0  0  0  0  0  0  0  0  0  0
   -2.6590   -1.4400    0.1070 C   0  0  0  0  0  0  0  0  0  0  0  0
   -3.5130   -1.9790   -0.9010 O   0  0  0  0  0  0  0  0  0  0  0  0
   -0.3980   -0.3100    0.3640 C   0  0  1  0  0  0  0  0  0  0  0  0
    0.6250    0.2620   -0.2680 O   0  0  0  0  0  0  0  0  0  0  0  0
    1.9020   -0.0760   -0.2660 C   0  0  1  0  0  0  0  0  0  0  0  0
    2.6040   -0.2390   -1.5940 C   0  0  0  0  0  0  0  0  0  0  0  0
    2.0810   -1.1820   -2.4350 O   0  0  0  0  0  0  0  0  0  0  0  0
    2.7990    0.9150    0.5010 C   0  0  0  0  0  0  0  0  0  0  0  0
    2.7390    2.1920   -0.0400 O   0  0  0  0  0  0  0  0  0  0  0  0
    3.5610    2.9610    0.7130 N   0  0  0  0  0  0  0  0  0  0  0  0
   -0.7540    0.4250    1.6030 C   0  0  2  0  0  0  0  0  0  0  0  0
   -1.3970   -0.3600    2.7030 C   0  0  0  0  0  0  0  0  0  0  0  0
   -0.5070   -1.3900    3.0920 O   0  0  0  0  0  0  0  0  0  0  0  0
   -1.3430    1.7950    1.4430 C   0  0  0  0  0  0  0  0  0  0  0  0
   -0.5020    2.6750    0.7620 O   0  0  0  0  0  0  0  0  0  0  0  0
  1  2  1  0
  2  3  2  0
  2  4  1  0
  4  5  1  6
  4  7  1  0
  4  9  1  0
  5  6  1  0
  7  8  1  0
  9 10  1  6
  9 17  1  0
 10 11  1  0
 11 12  1  6
 11 14  1  0
 12 13  1  0
 14 15  1  0
 15 16  1  0
 17 18  1  6
 17 20  1  0
 18 19  1  0
 20 21  1  0
M  CHG  1  16   1
M  END
