
     RDKit          3D

 21 20  0  0  0  0  0  0  0  0999 V2000
   -1.7440    2.2510    0.5490 C   0  0  0  0  0  0  0  0  0  0  0  0
   -2.6600    1.1850    0.1560 C   0  0  1  0  0  0  0  0  0  0  0  0
   -3.7810    1.2430    1.0410 O   0  0  0  0  0  0  0  0  0  0  0  0
   -3.3190    1.5940   -1.1730 C   0  0  0  0  0  0  0  0  0  0  0  0
   -2.4480    1.6240   -2.2250 O   0  0  0  0  0  0  0  0  0  0  0  0
   -2.2280   -0.2280    0.1920 C   0  0  2  0  0  0  0  0  0  0  0  0
   -3.4210   -0.8640   -0.3110 O   0  0  0  0  0  0  0  0  0  0  0  0
   -2.3080   -0.7820    1.6290 C   0  0  0  0  0  0  0  0  0  0  0  0
   -1.3330   -0.4200    2.4690 O   0  0  0  0  0  0  0  0  0  0  0  0
   -1.1440   -0.7160   -0.6160 C   0  0  2  0  0  0  0  0  0  0  0  0
   -0.9620   -2.2200   -0.3420 C   0  0  0  0  0  0  0  0  0  0  0  0
   -2.1580   -2.8980   -0.6760 O   0  0  0  0  0  0  0  0  0  0  0  0
    0.1540   -0.0950   -0.7760 C   0  0  0  0  0  0  0  0  0  0  0  0
    1.0690    0.1640    0.2430 N   0  0  0  0  0  0  0  0  0  0  0  0
    1.9500   -0.9110    0.6540 C   0  0  0  0  0  0  0  0  0  0  0  0
    2.7670   -1.4890   -0.4410 C   0  0  0  0  0  0  0  0  0  0  0  0
    3.5950   -0.5940   -1.0550 O   0  0  0  0  0  0  0  0  0  0  0  0
    4.5640   -0.0360   -0.2450 C   0  0  1  0  0  0  0  0  0  0  0  0
    5.8590   -0.3780   -0.7030 O   0  0  0  0  0  0  0  0  0  0  0  0
    4.4560    1.3610   -0.1470 O   0  0  0  0  0  0  0  0  0  0  0  0
    4.3230    1.7510    1.1360 N   0  0  0  0  0  0  0  0  0  0  0  0
  2  1  1  1
  2  3  1  0
  2  4  1  0
  2  6  1  0
  4  5  1  0
  6  7  1  6
  6  8  1  0
  6 10  1  0
  8  9  1  0
 10 11  1  1
 10 13  1  0
 11 12  1  0
 13 14  1  0
 14 15  1  0
 15 16  1  0
 16 17  1  0
 17 18  1  0
 18 19  1  6
 18 20  1  0
 20 21  1  0
M  CHG  1  14   1
M  END
