
     RDKit          3D

 21 21  0  0  0  0  0  0  0  0999 V2000
   -3.5600    1.5260   -0.9220 N   0  0  0  0  0  0  0  0  0  0  0  0
   -3.0720    0.2230   -0.6140 C   0  0  1  0  0  0  0  0  0  0  0  0
   -2.9650   -0.6680   -1.8290 C   0  0  0  0  0  0  0  0  0  0  0  0
   -2.4970   -1.9440   -1.4750 O   0  0  0  0  0  0  0  0  0  0  0  0
   -1.8470    0.2020    0.2580 C   0  0  1  0  0  0  0  0  0  0  0  0
   -1.3940   -1.0740    0.5040 O   0  0  0  0  0  0  0  0  0  0  0  0
   -0.7080    1.0540   -0.2500 C   0  0  0  0  0  0  0  0  0  0  0  0
   -0.0810    0.7370   -1.3320 O   0  0  0  0  0  0  0  0  0  0  0  0
    0.6190   -0.2250   -1.8160 C   0  0  0  0  0  0  0  0  0  0  0  0
    1.9370   -0.6320   -1.2100 C   0  0  0  0  0  0  0  0  0  0  0  0
    1.8090   -1.1270    0.1720 C   0  0  0  0  0  0  0  0  0  0  0  0
    3.0390   -1.5400    0.7250 O   0  0  0  0  0  0  0  0  0  0  0  0
    3.8870   -0.4770    0.8090 C   0  0  1  0  0  0  0  0  0  0  0  0
    4.2950   -0.3300    2.1380 O   0  0  0  0  0  0  0  0  0  0  0  0
    5.1160   -0.7710   -0.0560 C   0  0  0  0  0  0  0  0  0  0  0  0
    5.9790    0.3010    0.0220 O   0  0  0  0  0  0  0  0  0  0  0  0
   -2.1950    0.7910    1.6030 C   0  0  0  0  0  0  0  0  0  0  0  0
   -2.1940    0.2200    2.7810 C   0  0  0  0  0  0  0  0  0  0  0  0
   -2.5940    1.1860    3.7270 O   0  0  0  0  0  0  0  0  0  0  0  0
   -2.7070    2.4080    3.1090 N   0  0  0  0  0  0  0  0  0  0  0  0
   -2.5860    2.1040    1.7560 O   0  0  0  0  0  0  0  0  0  0  0  0
  2  1  1  6
  2  3  1  0
  2  5  1  0
  3  4  1  0
  5  6  1  1
  5  7  1  0
  5 17  1  0
  7  8  1  0
  8  9  1  0
  9 10  1  0
 10 11  1  0
 11 12  1  0
 12 13  1  0
 13 14  1  1
 13 15  1  0
 15 16  1  0
 17 18  2  0
 17 21  1  0
 18 19  1  0
 19 20  1  0
 20 21  1  0
M  CHG  1   1   1
M  END
