
     RDKit          3D

 21 20  0  0  0  0  0  0  0  0999 V2000
    4.7650    2.2140    2.4050 N   0  0  0  0  0  0  0  0  0  0  0  0
    4.1710    1.0340    2.6100 O   0  0  0  0  0  0  0  0  0  0  0  0
    3.3460    0.6550    1.5260 C   0  0  0  0  0  0  0  0  0  0  0  0
    2.3810    1.6040    1.3600 O   0  0  0  0  0  0  0  0  0  0  0  0
    1.4930    1.2450    0.2300 C   0  0  2  0  0  0  0  0  0  0  0  0
    1.7100    2.2870   -0.7870 C   0  0  0  0  0  0  0  0  0  0  0  0
    0.9620    2.1900   -2.0700 C   0  0  0  0  0  0  0  0  0  0  0  0
    1.3830    3.2850   -2.8770 O   0  0  0  0  0  0  0  0  0  0  0  0
    0.2820    1.1080    0.8330 O   0  0  0  0  0  0  0  0  0  0  0  0
   -0.1600   -0.1370    1.1410 C   0  0  0  0  0  0  0  0  0  0  0  0
   -0.5920   -1.0970    0.1360 C   0  0  1  0  0  0  0  0  0  0  0  0
    0.3820   -1.1540   -0.9050 O   0  0  0  0  0  0  0  0  0  0  0  0
   -0.3820   -2.5260    0.7360 C   0  0  0  0  0  0  0  0  0  0  0  0
   -1.1670   -2.8190    1.8650 N   0  0  0  0  0  0  0  0  0  0  0  0
   -1.9200   -0.9920   -0.4830 C   0  0  2  0  0  0  0  0  0  0  0  0
   -2.1300    0.3320   -1.2130 C   0  0  0  0  0  0  0  0  0  0  0  0
   -2.0290    1.4050   -0.3590 O   0  0  0  0  0  0  0  0  0  0  0  0
   -3.1180   -1.0690    0.4550 C   0  0  0  0  0  0  0  0  0  0  0  0
   -3.1310   -0.0620    1.4100 O   0  0  0  0  0  0  0  0  0  0  0  0
   -2.1820   -2.0610   -1.5330 C   0  0  0  0  0  0  0  0  0  0  0  0
   -1.3080   -2.0490   -2.5850 O   0  0  0  0  0  0  0  0  0  0  0  0
  1  2  1  0
  2  3  1  0
  3  4  1  0
  4  5  1  0
  5  6  1  6
  5  9  1  0
  6  7  1  0
  7  8  1  0
  9 10  1  0
 10 11  1  0
 11 12  1  6
 11 13  1  0
 11 15  1  0
 13 14  1  0
 15 16  1  6
 15 18  1  0
 15 20  1  0
 16 17  1  0
 18 19  1  0
 20 21  1  0
M  CHG  1  14   1
M  END
