
     RDKit          3D

 20 19  0  0  0  0  0  0  0  0999 V2000
   -1.9800   -3.5990   -0.6180 C   0  0  0  0  0  0  0  0  0  0  0  0
   -1.1700   -2.5540   -0.1770 O   0  0  0  0  0  0  0  0  0  0  0  0
   -1.8270   -1.3690   -0.3920 C   0  0  0  0  0  0  0  0  0  0  0  0
   -0.9990   -0.1520    0.0700 C   0  0  1  0  0  0  0  0  0  0  0  0
   -0.8390   -0.2910    1.5460 C   0  0  0  0  0  0  0  0  0  0  0  0
   -0.0780    0.6650    2.1650 O   0  0  0  0  0  0  0  0  0  0  0  0
    0.2180   -0.1670   -0.6910 N   0  0  0  0  0  0  0  0  0  0  0  0
    1.2080   -1.0000   -0.1170 C   0  0  0  0  0  0  0  0  0  0  0  0
    2.6380   -0.6520   -0.4700 C   0  0  1  0  0  0  0  0  0  0  0  0
    2.8720   -0.7000   -1.8460 O   0  0  0  0  0  0  0  0  0  0  0  0
    3.1160    0.6450    0.1030 C   0  0  0  0  0  0  0  0  0  0  0  0
    2.5430    1.7770   -0.4110 O   0  0  0  0  0  0  0  0  0  0  0  0
    3.4710   -1.7160    0.1450 C   0  0  0  0  0  0  0  0  0  0  0  0
    3.4260   -1.8910    1.5430 N   0  0  0  0  0  0  0  0  0  0  0  0
    4.1990   -2.4480   -0.5460 O   0  0  0  0  0  0  0  0  0  0  0  0
   -1.8670    1.0370   -0.2370 C   0  0  2  0  0  0  0  0  0  0  0  0
   -2.2380    1.0630   -1.5940 O   0  0  0  0  0  0  0  0  0  0  0  0
   -1.3510    2.3520    0.2200 C   0  0  0  0  0  0  0  0  0  0  0  0
   -2.3940    3.3980   -0.2080 C   0  0  0  0  0  0  0  0  0  0  0  0
   -2.0060    4.6680    0.1730 O   0  0  0  0  0  0  0  0  0  0  0  0
  1  2  1  0
  2  3  1  0
  4  3  1  6
  4  5  1  0
  4  7  1  0
  4 16  1  0
  5  6  1  0
  7  8  1  0
  8  9  1  0
  9 10  1  6
  9 11  1  0
  9 13  1  0
 11 12  1  0
 13 14  1  0
 13 15  2  0
 16 17  1  6
 16 18  1  0
 18 19  1  0
 19 20  1  0
M  CHG  1   7   1
M  END
