
     RDKit          3D

 21 20  0  0  0  0  0  0  0  0999 V2000
    1.6270   -2.5570   -0.3840 O   0  0  0  0  0  0  0  0  0  0  0  0
    2.9110   -2.2260    0.0290 C   0  0  0  0  0  0  0  0  0  0  0  0
    3.4310   -0.9660   -0.6220 C   0  0  0  0  0  0  0  0  0  0  0  0
    2.5550    0.1720   -0.2670 C   0  0  2  0  0  0  0  0  0  0  0  0
    1.2550   -0.1150   -0.7250 O   0  0  0  0  0  0  0  0  0  0  0  0
    0.3180    0.0100    0.2730 C   0  0  0  0  0  0  0  0  0  0  0  0
   -1.0350   -0.3390   -0.3440 C   0  0  0  0  0  0  0  0  0  0  0  0
   -2.0220   -0.2110    0.6950 N   0  0  0  0  0  0  0  0  0  0  0  0
   -3.3770   -0.3270    0.1890 C   0  0  1  0  0  0  0  0  0  0  0  0
   -3.7540    0.9090   -0.5870 C   0  0  0  0  0  0  0  0  0  0  0  0
   -3.6980    2.0680    0.1790 O   0  0  0  0  0  0  0  0  0  0  0  0
   -3.5560   -1.5210   -0.7000 C   0  0  0  0  0  0  0  0  0  0  0  0
   -4.8830   -1.5370   -1.1280 O   0  0  0  0  0  0  0  0  0  0  0  0
   -4.3050   -0.4700    1.3790 C   0  0  0  0  0  0  0  0  0  0  0  0
   -3.9940   -1.5970    2.1290 O   0  0  0  0  0  0  0  0  0  0  0  0
    2.9390    1.4690   -0.9430 C   0  0  1  0  0  0  0  0  0  0  0  0
    1.9950    2.4520   -0.5560 O   0  0  0  0  0  0  0  0  0  0  0  0
    4.2420    1.9880   -0.5110 C   0  0  0  0  0  0  0  0  0  0  0  0
    4.7360    3.1530   -1.0510 O   0  0  0  0  0  0  0  0  0  0  0  0
    4.9260    1.3640    0.3690 N   0  0  0  0  0  0  0  0  0  0  0  0
    6.1340    1.7450    0.8440 O   0  0  0  0  0  0  0  0  0  0  0  0
  1  2  1  0
  2  3  1  0
  4  3  1  6
  4  5  1  0
  4 16  1  0
  5  6  1  0
  6  7  1  0
  7  8  1  0
  8  9  1  0
  9 10  1  6
  9 12  1  0
  9 14  1  0
 10 11  1  0
 12 13  1  0
 14 15  1  0
 16 17  1  1
 16 18  1  0
 18 19  1  0
 18 20  2  3
 20 21  1  0
M  CHG  1   8   1
M  END
