
     RDKit          3D

 21 20  0  0  0  0  0  0  0  0999 V2000
   -1.7150   -3.1260    1.1830 N   0  0  0  0  0  0  0  0  0  0  0  0
   -1.1960   -1.8120    1.3640 C   0  0  0  0  0  0  0  0  0  0  0  0
   -0.3840   -1.6610    2.2790 O   0  0  0  0  0  0  0  0  0  0  0  0
   -1.6460   -0.6930    0.4670 C   0  0  1  0  0  0  0  0  0  0  0  0
   -1.6710   -1.4010   -0.9030 C   0  0  0  0  0  0  0  0  0  0  0  0
   -2.5640   -2.4860   -0.8420 O   0  0  0  0  0  0  0  0  0  0  0  0
   -2.9610   -0.3180    0.9880 C   0  0  0  0  0  0  0  0  0  0  0  0
   -3.7910   -1.4640    0.8940 O   0  0  0  0  0  0  0  0  0  0  0  0
   -0.6070    0.4300    0.3700 C   0  0  1  0  0  0  0  0  0  0  0  0
    0.5030    0.0240   -0.1930 O   0  0  0  0  0  0  0  0  0  0  0  0
    1.6460   -0.3520    0.3280 C   0  0  1  0  0  0  0  0  0  0  0  0
    2.2670   -1.6560   -0.0950 C   0  0  0  0  0  0  0  0  0  0  0  0
    1.5410   -2.7850    0.1340 O   0  0  0  0  0  0  0  0  0  0  0  0
    2.7570    0.6770    0.0350 C   0  0  0  0  0  0  0  0  0  0  0  0
    3.9390    0.1430    0.5730 O   0  0  0  0  0  0  0  0  0  0  0  0
    4.9180    1.0490    0.3160 N   0  0  0  0  0  0  0  0  0  0  0  0
   -1.1840    1.7260    0.0080 C   0  0  1  0  0  0  0  0  0  0  0  0
   -0.1540    2.8600   -0.0970 C   0  0  0  0  0  0  0  0  0  0  0  0
    0.7670    2.6800   -1.0860 O   0  0  0  0  0  0  0  0  0  0  0  0
   -1.8790    1.8270   -1.3400 C   0  0  0  0  0  0  0  0  0  0  0  0
   -1.0650    1.5710   -2.4130 O   0  0  0  0  0  0  0  0  0  0  0  0
  1  2  1  0
  2  3  2  0
  2  4  1  0
  4  5  1  6
  4  7  1  0
  4  9  1  0
  5  6  1  0
  7  8  1  0
  9 10  1  6
  9 17  1  0
 10 11  1  0
 11 12  1  6
 11 14  1  0
 12 13  1  0
 14 15  1  0
 15 16  1  0
 17 18  1  6
 17 20  1  0
 18 19  1  0
 20 21  1  0
M  CHG  1  16   1
M  END
