
     RDKit          3D

 21 20  0  0  0  0  0  0  0  0999 V2000
    5.5330    2.2580    1.3990 N   0  0  0  0  0  0  0  0  0  0  0  0
    4.6180    1.8920    0.3750 C   0  0  0  0  0  0  0  0  0  0  0  0
    3.8460    2.7720   -0.1030 O   0  0  0  0  0  0  0  0  0  0  0  0
    4.5860    0.5080   -0.1040 C   0  0  1  0  0  0  0  0  0  0  0  0
    5.5410   -0.2410    0.5960 O   0  0  0  0  0  0  0  0  0  0  0  0
    3.3380   -0.0930    0.0800 O   0  0  0  0  0  0  0  0  0  0  0  0
    2.8920   -0.5400   -1.1460 C   0  0  0  0  0  0  0  0  0  0  0  0
    1.5440   -1.2130   -1.0680 C   0  0  0  0  0  0  0  0  0  0  0  0
    0.5270   -0.3050   -0.5570 N   0  0  0  0  0  0  0  0  0  0  0  0
   -0.3610   -0.9100    0.3790 C   0  0  0  0  0  0  0  0  0  0  0  0
   -1.7660   -1.1720   -0.1760 C   0  0  1  0  0  0  0  0  0  0  0  0
   -1.5030   -2.0440   -1.2660 O   0  0  0  0  0  0  0  0  0  0  0  0
   -2.4460   -2.0130    0.8570 C   0  0  0  0  0  0  0  0  0  0  0  0
   -1.6040   -3.0770    1.2750 O   0  0  0  0  0  0  0  0  0  0  0  0
   -2.4600   -0.0040   -0.7020 C   0  0  1  0  0  0  0  0  0  0  0  0
   -3.8380   -0.3360   -1.2330 C   0  0  0  0  0  0  0  0  0  0  0  0
   -4.6970   -0.8630   -0.2970 O   0  0  0  0  0  0  0  0  0  0  0  0
   -2.5900    1.2260    0.1210 C   0  0  1  0  0  0  0  0  0  0  0  0
   -3.2670    1.0450    1.3330 O   0  0  0  0  0  0  0  0  0  0  0  0
   -1.3880    2.1010    0.2130 C   0  0  0  0  0  0  0  0  0  0  0  0
   -1.8630    3.3600    0.6640 O   0  0  0  0  0  0  0  0  0  0  0  0
  1  2  1  0
  2  3  2  0
  2  4  1  0
  4  5  1  1
  4  6  1  0
  6  7  1  0
  7  8  1  0
  8  9  1  0
  9 10  1  0
 10 11  1  0
 11 12  1  6
 11 13  1  0
 11 15  1  0
 13 14  1  0
 15 16  1  1
 15 18  1  0
 16 17  1  0
 18 19  1  1
 18 20  1  0
 20 21  1  0
M  CHG  1   9   1
M  END
