
     RDKit          3D

 45 49  0  0  0  0  0  0  0  0999 V2000
    8.2160   -1.3640    1.5450 C   0  0  0  0  0  0  0  0  0  0  0  0
    6.9170   -1.6420    1.0290 N   0  0  0  0  0  0  0  0  0  0  0  0
    6.7410   -0.9370   -0.2660 C   0  0  1  0  0  0  0  0  0  0  0  0
    7.2120   -1.8810   -1.2840 C   0  0  0  0  0  0  0  0  0  0  0  0
    5.3830   -0.4610   -0.2850 C   0  0  0  0  0  0  0  0  0  0  0  0
    4.4080   -1.0970   -1.0350 C   0  0  0  0  0  0  0  0  0  0  0  0
    3.2530   -0.4810   -0.8720 N   0  0  0  0  0  0  0  0  0  0  0  0
    1.9620   -0.8340   -1.4910 C   0  0  2  0  0  0  0  0  0  0  0  0
    1.5510   -2.2240   -1.1460 C   0  0  0  0  0  0  0  0  0  0  0  0
    2.2120   -0.7810   -2.9860 C   0  0  0  0  0  0  0  0  0  0  0  0
    0.9110    0.1970   -1.1100 C   0  0  0  0  0  0  0  0  0  0  0  0
   -0.3930   -0.1300   -1.7140 C   0  0  0  0  0  0  0  0  0  0  0  0
   -0.5010   -1.1460   -2.4310 O   0  0  0  0  0  0  0  0  0  0  0  0
   -1.5370    0.6720   -1.5100 N   0  0  0  0  0  0  0  0  0  0  0  0
   -2.6120    0.2300   -0.9630 C   0  0  0  0  0  0  0  0  0  0  0  0
   -2.8120   -1.4710   -0.3790 S   0  0  0  0  0  0  0  0  0  0  0  0
   -4.4810   -1.2460    0.1910 C   0  0  0  0  0  0  0  0  0  0  0  0
   -5.2080   -2.3670    0.7740 C   0  0  0  0  0  0  0  0  0  0  0  0
   -6.5370   -2.4490    0.8420 C   0  0  0  0  0  0  0  0  0  0  0  0
   -7.1970   -3.5280    1.4690 C   0  0  0  0  0  0  0  0  0  0  0  0
   -6.4580   -4.5380    2.0330 C   0  0  0  0  0  0  0  0  0  0  0  0
   -5.0760   -4.4870    1.9800 C   0  0  0  0  0  0  0  0  0  0  0  0
   -4.4660   -3.4060    1.3530 C   0  0  0  0  0  0  0  0  0  0  0  0
   -4.7150    0.0280   -0.0930 C   0  0  0  0  0  0  0  0  0  0  0  0
   -5.9740    0.6680    0.4630 C   0  0  0  0  0  0  0  0  0  0  0  0
   -6.3110    0.4080    1.7050 C   0  0  0  0  0  0  0  0  0  0  0  0
   -7.4970    0.9550    2.3620 C   0  0  1  0  0  0  0  0  0  0  0  0
   -7.0310    1.9690    3.7590 Cl  0  0  0  0  0  0  0  0  0  0  0  0
   -8.3120    1.6450    1.4810 O   0  0  0  0  0  0  0  0  0  0  0  0
   -7.9850    1.9290    0.1780 C   0  0  0  0  0  0  0  0  0  0  0  0
   -6.8460    1.4700   -0.3660 C   0  0  0  0  0  0  0  0  0  0  0  0
   -3.7920    0.7710   -0.6680 N   0  0  0  0  0  0  0  0  0  0  0  0
   -3.9190    2.2310   -0.9950 C   0  0  1  0  0  0  0  0  0  0  0  0
   -2.7890    2.9500   -0.2560 C   0  0  0  0  0  0  0  0  0  0  0  0
   -3.8050    2.4610   -2.4390 C   0  0  0  0  0  0  0  0  0  0  0  0
   -4.6040    1.9870   -3.4350 C   0  0  0  0  0  0  0  0  0  0  0  0
   -4.1270    2.4770   -4.6400 C   0  0  0  0  0  0  0  0  0  0  0  0
   -3.0790    3.2180   -4.3710 O   0  0  0  0  0  0  0  0  0  0  0  0
   -2.8500    3.2390   -3.0810 C   0  0  0  0  0  0  0  0  0  0  0  0
    3.4420    0.5170   -0.0540 N   0  0  0  0  0  0  0  0  0  0  0  0
    4.7380    0.5750    0.3370 C   0  0  0  0  0  0  0  0  0  0  0  0
    5.3450    1.5530    1.2310 C   0  0  2  0  0  0  0  0  0  0  0  0
    6.4580    2.3440    0.5730 C   0  0  0  0  0  0  0  0  0  0  0  0
    5.6530    1.1180    2.6160 C   0  0  0  0  0  0  0  0  0  0  0  0
    4.2750    2.6600    1.4480 C   0  0  0  0  0  0  0  0  0  0  0  0
  1  2  1  0
  2  3  1  0
  3  4  1  6
  3  5  1  0
  5  6  2  0
  5 41  1  0
  6  7  1  0
  7  8  1  0
  7 40  1  0
  8  9  1  1
  8 10  1  0
  8 11  1  0
 11 12  1  0
 12 13  2  0
 12 14  1  0
 14 15  2  3
 15 16  1  0
 15 32  1  0
 16 17  1  0
 17 18  1  0
 17 24  2  0
 18 19  2  0
 18 23  1  0
 19 20  1  0
 20 21  2  0
 21 22  1  0
 22 23  2  0
 24 25  1  0
 24 32  1  0
 25 26  2  0
 25 31  1  0
 26 27  1  0
 27 28  1  1
 27 29  1  0
 29 30  1  0
 30 31  2  0
 32 33  1  0
 33 34  1  1
 33 35  1  0
 35 36  1  0
 35 39  2  0
 36 37  2  0
 37 38  1  0
 38 39  1  0
 40 41  2  0
 41 42  1  0
 42 43  1  6
 42 44  1  0
 42 45  1  0
M  CHG  1   2   1
M  END
