
     RDKit          3D

 45 51  0  0  0  0  0  0  0  0999 V2000
   -5.2530   -3.8500    0.8670 C   0  0  0  0  0  0  0  0  0  0  0  0
   -5.4550   -3.1640    2.2000 C   0  0  0  0  0  0  0  0  0  0  0  0
   -5.8950   -1.7140    2.0050 C   0  0  2  0  0  0  0  0  0  0  0  0
   -7.1610   -1.6530    1.2620 C   0  0  0  0  0  0  0  0  0  0  0  0
   -7.3800   -0.8940    0.2350 C   0  0  0  0  0  0  0  0  0  0  0  0
   -8.6630   -0.8190   -0.5330 C   0  0  0  0  0  0  0  0  0  0  0  0
   -8.7340    0.5860   -1.0940 C   0  0  2  0  0  0  0  0  0  0  0  0
  -10.3210    0.8880   -1.9180 S   0  0  0  0  0  0  0  0  0  0  0  0
   -7.5690    0.9000   -2.0130 C   0  0  0  0  0  0  0  0  0  0  0  0
   -6.3450    0.8030   -1.2480 N   0  0  0  0  0  0  0  0  0  0  0  0
   -6.2980   -0.0320   -0.2250 C   0  0  0  0  0  0  0  0  0  0  0  0
   -5.0760   -0.0070    0.3940 C   0  0  0  0  0  0  0  0  0  0  0  0
   -4.3050    0.9110   -0.2960 C   0  0  0  0  0  0  0  0  0  0  0  0
   -3.0210    1.3810   -0.1750 C   0  0  0  0  0  0  0  0  0  0  0  0
   -2.4730    2.3430   -1.0340 C   0  0  0  0  0  0  0  0  0  0  0  0
   -1.1230    2.7570   -0.8240 N   0  0  0  0  0  0  0  0  0  0  0  0
   -0.4760    3.8180   -1.4770 C   0  0  0  0  0  0  0  0  0  0  0  0
   -1.0530    4.5120   -2.3210 O   0  0  0  0  0  0  0  0  0  0  0  0
    0.9520    4.1640   -1.1810 C   0  0  0  0  0  0  0  0  0  0  0  0
    1.5140    3.2740   -0.1730 N   0  0  0  0  0  0  0  0  0  0  0  0
    1.4850    3.4930    1.2300 C   0  0  0  0  0  0  0  0  0  0  0  0
    1.2100    4.5400    1.8590 O   0  0  0  0  0  0  0  0  0  0  0  0
    1.8520    2.2180    1.8990 C   0  0  0  0  0  0  0  0  0  0  0  0
    2.5860    1.4700    0.8710 N   0  0  0  0  0  0  0  0  0  0  0  0
    3.4900    0.4090    1.1490 C   0  0  0  0  0  0  0  0  0  0  0  0
    3.1340   -0.7480    1.8100 C   0  0  0  0  0  0  0  0  0  0  0  0
    4.0480   -1.7540    2.0590 C   0  0  0  0  0  0  0  0  0  0  0  0
    5.3600   -1.6430    1.6550 C   0  0  0  0  0  0  0  0  0  0  0  0
    6.5560   -2.9470    1.9730 S   0  0  0  0  0  0  0  0  0  0  0  0
    8.1590   -2.4990    1.3270 C   0  0  0  0  0  0  0  0  0  0  0  0
    8.4060   -2.3700    0.0490 C   0  0  0  0  0  0  0  0  0  0  0  0
    9.7050   -2.0070   -0.4580 C   0  0  0  0  0  0  0  0  0  0  0  0
   10.8180   -1.7590    0.3150 C   0  0  0  0  0  0  0  0  0  0  0  0
   12.0340   -1.4160   -0.2420 C   0  0  0  0  0  0  0  0  0  0  0  0
   12.1450   -1.3180   -1.5730 N   0  0  0  0  0  0  0  0  0  0  0  0
   11.1050   -1.5440   -2.4030 C   0  0  0  0  0  0  0  0  0  0  0  0
    9.8990   -1.8850   -1.8340 C   0  0  0  0  0  0  0  0  0  0  0  0
    5.7290   -0.4910    0.9930 C   0  0  0  0  0  0  0  0  0  0  0  0
    4.8130    0.5110    0.7470 C   0  0  0  0  0  0  0  0  0  0  0  0
    2.1880    2.0390   -0.3670 C   0  0  0  0  0  0  0  0  0  0  0  0
    2.4230    1.4840   -1.4800 O   0  0  0  0  0  0  0  0  0  0  0  0
   -3.3010    2.7990   -2.0180 C   0  0  0  0  0  0  0  0  0  0  0  0
   -4.6160    2.3340   -2.1610 C   0  0  0  0  0  0  0  0  0  0  0  0
   -5.1150    1.3940   -1.3020 C   0  0  0  0  0  0  0  0  0  0  0  0
   -4.7910   -0.8450    1.5470 C   0  0  0  0  0  0  0  0  0  0  0  0
  1  2  1  0
  3  2  1  6
  3  4  1  0
  3 45  1  0
  4  5  2  0
  5  6  1  0
  5 11  1  0
  6  7  1  0
  7  8  1  6
  7  9  1  0
  9 10  1  0
 10 11  1  0
 10 44  1  0
 11 12  2  0
 12 13  1  0
 12 45  1  0
 13 14  2  0
 13 44  1  0
 14 15  1  0
 15 16  1  0
 15 42  2  0
 16 17  1  0
 17 18  2  0
 17 19  1  0
 19 20  1  0
 20 21  1  0
 20 40  1  0
 21 22  2  0
 21 23  1  0
 23 24  1  0
 24 25  1  0
 24 40  1  0
 25 26  2  0
 25 39  1  0
 26 27  1  0
 27 28  2  0
 28 29  1  0
 28 38  1  0
 29 30  1  0
 30 31  2  3
 31 32  1  0
 32 33  2  0
 32 37  1  0
 33 34  1  0
 34 35  2  0
 35 36  1  0
 36 37  2  0
 38 39  2  0
 40 41  2  0
 42 43  1  0
 43 44  2  0
M  CHG  1  35   1
M  END
