
     RDKit          3D

 45 50  0  0  0  0  0  0  0  0999 V2000
   -4.5580   -3.4920    0.5280 C   0  0  0  0  0  0  0  0  0  0  0  0
   -4.3980   -3.4830   -0.9840 C   0  0  0  0  0  0  0  0  0  0  0  0
   -3.6020   -2.3870   -1.4840 C   0  0  0  0  0  0  0  0  0  0  0  0
   -1.8880   -2.4650   -2.0630 S   0  0  0  0  0  0  0  0  0  0  0  0
   -1.8680   -0.6130   -2.4440 C   0  0  0  0  0  0  0  0  0  0  0  0
   -0.6190   -0.0240   -3.0120 C   0  0  0  0  0  0  0  0  0  0  0  0
    0.3080    0.4600   -2.0400 N   0  0  0  0  0  0  0  0  0  0  0  0
    0.9870   -0.2760   -1.0640 C   0  0  0  0  0  0  0  0  0  0  0  0
    0.7550   -1.5140   -1.0400 O   0  0  0  0  0  0  0  0  0  0  0  0
    1.9120    0.2430   -0.1040 N   0  0  0  0  0  0  0  0  0  0  0  0
    2.1750    1.6270   -0.0170 C   0  0  0  0  0  0  0  0  0  0  0  0
    3.1650    2.2870    0.5110 C   0  0  0  0  0  0  0  0  0  0  0  0
    4.3630    1.9170    1.1950 C   0  0  0  0  0  0  0  0  0  0  0  0
    5.5570    1.5490    0.7280 C   0  0  0  0  0  0  0  0  0  0  0  0
    6.0200    1.4090   -0.6050 C   0  0  0  0  0  0  0  0  0  0  0  0
    7.2810    1.0130   -0.5700 N   0  0  0  0  0  0  0  0  0  0  0  0
    7.7070    0.8750    0.7160 N   0  0  0  0  0  0  0  0  0  0  0  0
    6.7600    1.1680    1.5370 C   0  0  0  0  0  0  0  0  0  0  0  0
    6.9100    1.1160    2.9030 O   0  0  0  0  0  0  0  0  0  0  0  0
    8.0660    0.6040    3.5350 C   0  0  0  0  0  0  0  0  0  0  0  0
    8.2190   -0.8440    3.1290 C   0  0  0  0  0  0  0  0  0  0  0  0
    9.3180   -1.4640    3.6910 O   0  0  0  0  0  0  0  0  0  0  0  0
   10.5290   -0.8750    3.3570 C   0  0  0  0  0  0  0  0  0  0  0  0
    5.3190    1.6420   -1.8900 C   0  0  0  0  0  0  0  0  0  0  0  0
    5.3060    0.1540   -2.9320 S   0  0  0  0  0  0  0  0  0  0  0  0
    5.1870   -1.3480   -1.8880 C   0  0  0  0  0  0  0  0  0  0  0  0
    3.7820   -1.3970   -1.3280 C   0  0  0  0  0  0  0  0  0  0  0  0
    3.7030   -1.4670    0.1540 C   0  0  0  0  0  0  0  0  0  0  0  0
    2.5690   -0.7010    0.7740 C   0  0  0  0  0  0  0  0  0  0  0  0
   -2.9160   -0.3280   -2.1380 N   0  0  0  0  0  0  0  0  0  0  0  0
   -3.9130   -1.0050   -1.6560 C   0  0  0  0  0  0  0  0  0  0  0  0
   -5.2430   -0.5100   -1.3670 C   0  0  0  0  0  0  0  0  0  0  0  0
   -6.2820   -0.9740   -2.2190 C   0  0  0  0  0  0  0  0  0  0  0  0
   -7.5480   -0.4870   -2.1270 C   0  0  0  0  0  0  0  0  0  0  0  0
   -7.8590    0.4740   -1.2020 C   0  0  0  0  0  0  0  0  0  0  0  0
   -6.8700    0.9420   -0.3590 C   0  0  0  0  0  0  0  0  0  0  0  0
   -7.2460    1.8940    0.5550 C   0  0  0  0  0  0  0  0  0  0  0  0
   -6.2730    2.3600    1.4160 C   0  0  0  0  0  0  0  0  0  0  0  0
   -5.0020    1.8870    1.3510 C   0  0  0  0  0  0  0  0  0  0  0  0
   -4.5860    0.9070    0.4210 C   0  0  0  0  0  0  0  0  0  0  0  0
   -3.2140    0.4110    0.4630 C   0  0  0  0  0  0  0  0  0  0  0  0
   -5.5450    0.4400   -0.4440 C   0  0  0  0  0  0  0  0  0  0  0  0
   -8.6420    2.4360    0.6490 C   0  0  0  0  0  0  0  0  0  0  0  0
   -9.5790    1.3070    0.2740 C   0  0  0  0  0  0  0  0  0  0  0  0
   -9.2700    0.9660   -1.1660 C   0  0  0  0  0  0  0  0  0  0  0  0
  1  2  1  0
  2  3  1  0
  3  4  1  0
  3 31  2  0
  4  5  1  0
  5  6  1  0
  5 30  2  0
  6  7  1  0
  7  8  1  0
  8  9  2  0
  8 10  1  0
 10 11  1  0
 10 29  1  0
 11 12  2  0
 12 13  1  0
 13 14  2  0
 14 15  1  0
 14 18  1  0
 15 16  2  0
 15 24  1  0
 16 17  1  0
 17 18  2  0
 18 19  1  0
 19 20  1  0
 20 21  1  0
 21 22  1  0
 22 23  1  0
 24 25  1  0
 25 26  1  0
 26 27  1  0
 27 28  1  0
 28 29  1  0
 30 31  1  0
 31 32  1  0
 32 33  2  0
 32 42  1  0
 33 34  1  0
 34 35  2  0
 35 36  1  0
 35 45  1  0
 36 37  2  0
 36 42  1  0
 37 38  1  0
 37 43  1  0
 38 39  2  0
 39 40  1  0
 40 41  1  0
 40 42  2  0
 43 44  1  0
 44 45  1  0
M  END
