
     RDKit          3D

 45 51  0  0  0  0  0  0  0  0999 V2000
   -4.8570    1.2270    3.2620 C   0  0  0  0  0  0  0  0  0  0  0  0
   -4.5370    1.2580    1.7690 C   0  0  2  0  0  0  0  0  0  0  0  0
   -5.6870    1.0390    0.9690 N   0  0  0  0  0  0  0  0  0  0  0  0
   -6.4700   -0.0940    0.8750 C   0  0  0  0  0  0  0  0  0  0  0  0
   -6.1700   -1.2840    1.4660 C   0  0  0  0  0  0  0  0  0  0  0  0
   -6.9880   -2.4090    1.3180 C   0  0  0  0  0  0  0  0  0  0  0  0
   -8.1110   -2.2920    0.5590 C   0  0  0  0  0  0  0  0  0  0  0  0
   -8.4530   -1.1210   -0.0520 C   0  0  0  0  0  0  0  0  0  0  0  0
   -9.5760   -1.0180   -0.8070 N   0  0  0  0  0  0  0  0  0  0  0  0
   -9.9130    0.1310   -1.4080 C   0  0  0  0  0  0  0  0  0  0  0  0
   -9.1140    1.2310   -1.2640 C   0  0  0  0  0  0  0  0  0  0  0  0
   -8.0120    1.1210   -0.5200 N   0  0  0  0  0  0  0  0  0  0  0  0
   -7.6460   -0.0310    0.1010 C   0  0  0  0  0  0  0  0  0  0  0  0
   -3.3200    0.5100    1.4650 C   0  0  0  0  0  0  0  0  0  0  0  0
   -2.7920   -0.2750    2.5260 C   0  0  0  0  0  0  0  0  0  0  0  0
   -1.6200   -0.9410    2.3000 C   0  0  0  0  0  0  0  0  0  0  0  0
   -0.9840   -0.8470    1.0790 C   0  0  0  0  0  0  0  0  0  0  0  0
    0.2450   -1.5490    0.9160 N   0  0  0  0  0  0  0  0  0  0  0  0
    0.9620   -2.1480    1.9610 C   0  0  0  0  0  0  0  0  0  0  0  0
    2.2950   -2.6750    1.5320 C   0  0  0  0  0  0  0  0  0  0  0  0
    2.9490   -1.7330    0.6280 C   0  0  0  0  0  0  0  0  0  0  0  0
    4.2690   -1.3680    0.7530 C   0  0  0  0  0  0  0  0  0  0  0  0
    4.8070   -0.5160   -0.1400 C   0  0  0  0  0  0  0  0  0  0  0  0
    6.4420   -0.0430    0.0440 S   0  0  0  0  0  0  0  0  0  0  0  0
    5.8530    1.2480    0.9290 C   0  0  0  0  0  0  0  0  0  0  0  0
    6.7140   -1.1810   -0.7660 O   0  0  0  0  0  0  0  0  0  0  0  0
    7.2220    0.9800   -1.0370 C   0  0  2  0  0  0  0  0  0  0  0  0
    7.5570    0.5250   -2.4400 C   0  0  0  0  0  0  0  0  0  0  0  0
    8.5140    1.1130   -0.2070 C   0  0  0  0  0  0  0  0  0  0  0  0
    8.7430   -0.0880    0.6240 C   0  0  0  0  0  0  0  0  0  0  0  0
    7.4210   -0.5470    1.2860 C   0  0  1  0  0  0  0  0  0  0  0  0
    7.3120   -0.0120    2.6760 C   0  0  0  0  0  0  0  0  0  0  0  0
    4.1100    0.0130   -1.1770 C   0  0  0  0  0  0  0  0  0  0  0  0
    2.7540   -0.3490   -1.3220 C   0  0  0  0  0  0  0  0  0  0  0  0
    2.2050   -1.2120   -0.4180 C   0  0  0  0  0  0  0  0  0  0  0  0
    0.7790   -1.6260   -0.4600 C   0  0  0  0  0  0  0  0  0  0  0  0
   -1.5000   -0.1000    0.0860 N   0  0  0  0  0  0  0  0  0  0  0  0
   -2.6760    0.5870    0.2720 C   0  0  0  0  0  0  0  0  0  0  0  0
   -3.1960    1.3660   -0.8680 C   0  0  1  0  0  0  0  0  0  0  0  0
   -1.9810    1.6880   -1.7640 C   0  0  0  0  0  0  0  0  0  0  0  0
   -2.5650    2.3680   -2.9810 C   0  0  0  0  0  0  0  0  0  0  0  0
   -3.9070    1.2520   -3.3400 S   0  0  1  0  0  0  0  0  0  0  0  0
   -5.1740    1.9700   -3.6570 O   0  0  0  0  0  0  0  0  0  0  0  0
   -3.5370    0.2640   -4.4060 O   0  0  0  0  0  0  0  0  0  0  0  0
   -4.0090    0.4170   -1.7420 C   0  0  0  0  0  0  0  0  0  0  0  0
  2  1  1  1
  2  3  1  0
  2 14  1  0
  3  4  1  0
  4  5  2  0
  4 13  1  0
  5  6  1  0
  6  7  2  0
  7  8  1  0
  8  9  2  0
  8 13  1  0
  9 10  1  0
 10 11  2  0
 11 12  1  0
 12 13  2  0
 14 15  2  0
 14 38  1  0
 15 16  1  0
 16 17  2  0
 17 18  1  0
 17 37  1  0
 18 19  1  0
 18 36  1  0
 19 20  1  0
 20 21  1  0
 21 22  2  0
 21 35  1  0
 22 23  1  0
 23 24  1  0
 23 33  2  0
 24 25  1  0
 24 26  2  0
 24 27  1  0
 24 31  1  0
 27 28  1  6
 27 29  1  0
 29 30  1  0
 30 31  1  0
 31 32  1  1
 33 34  1  0
 34 35  2  0
 35 36  1  0
 37 38  2  0
 39 38  1  1
 39 40  1  0
 39 45  1  0
 40 41  1  0
 42 41  1  1
 42 43  2  0
 42 44  2  0
 42 45  1  0
M  END
