
     RDKit          3D

 45 50  0  0  0  0  0  0  0  0999 V2000
   11.8990   -3.1170   -0.3440 C   0  0  0  0  0  0  0  0  0  0  0  0
   10.4090   -2.9240   -0.0720 C   0  0  0  0  0  0  0  0  0  0  0  0
   10.2190   -1.8240    0.9290 C   0  0  0  0  0  0  0  0  0  0  0  0
    8.8000   -1.5380    1.2800 C   0  0  0  0  0  0  0  0  0  0  0  0
    7.9780   -1.1330    0.0890 C   0  0  2  0  0  0  0  0  0  0  0  0
    8.4970    0.1060   -0.6000 C   0  0  0  0  0  0  0  0  0  0  0  0
    7.4110    0.8250   -1.2640 C   0  0  0  0  0  0  0  0  0  0  0  0
    6.2230    0.7140   -0.7300 C   0  0  0  0  0  0  0  0  0  0  0  0
    4.9570    1.2840   -1.1220 C   0  0  0  0  0  0  0  0  0  0  0  0
    3.7660    1.2730   -0.7200 N   0  0  0  0  0  0  0  0  0  0  0  0
    2.7660    1.8590   -1.2270 C   0  0  0  0  0  0  0  0  0  0  0  0
    1.4170    1.8300   -0.7480 C   0  0  0  0  0  0  0  0  0  0  0  0
    0.4620    2.5210   -1.4190 C   0  0  0  0  0  0  0  0  0  0  0  0
   -0.9280    2.5150   -1.0430 N   0  0  0  0  0  0  0  0  0  0  0  0
   -1.5480    1.4210   -0.3930 C   0  0  0  0  0  0  0  0  0  0  0  0
   -0.8150    0.4620   -0.1830 O   0  0  0  0  0  0  0  0  0  0  0  0
   -2.9350    1.4250    0.0240 C   0  0  0  0  0  0  0  0  0  0  0  0
   -3.5380    0.3970    0.5610 C   0  0  0  0  0  0  0  0  0  0  0  0
   -3.0130   -0.9260    0.8150 C   0  0  0  0  0  0  0  0  0  0  0  0
   -3.7840   -1.5680    1.7530 O   0  0  0  0  0  0  0  0  0  0  0  0
   -2.0270   -1.7880    0.4450 N   0  0  0  0  0  0  0  0  0  0  0  0
   -1.6380   -2.8930    1.3930 C   0  0  0  0  0  0  0  0  0  0  0  0
   -2.5710   -4.0120    1.0370 C   0  0  0  0  0  0  0  0  0  0  0  0
   -2.7870   -4.1490   -0.4380 C   0  0  1  0  0  0  0  0  0  0  0  0
   -2.8470   -5.6420   -0.7580 C   0  0  0  0  0  0  0  0  0  0  0  0
   -4.1680   -3.5910   -0.7560 C   0  0  0  0  0  0  0  0  0  0  0  0
   -1.8090   -3.4420   -1.3040 C   0  0  0  0  0  0  0  0  0  0  0  0
   -1.4450   -2.0320   -0.8570 C   0  0  0  0  0  0  0  0  0  0  0  0
   -4.8950    0.5480    0.9570 O   0  0  0  0  0  0  0  0  0  0  0  0
   -5.6640    1.7240    0.8190 C   0  0  0  0  0  0  0  0  0  0  0  0
   -6.8890    1.7150    1.2270 C   0  0  0  0  0  0  0  0  0  0  0  0
   -7.8880    2.7230    1.2100 C   0  0  0  0  0  0  0  0  0  0  0  0
   -8.4830    3.4000    0.1520 C   0  0  0  0  0  0  0  0  0  0  0  0
   -9.3730    4.2610    0.6180 N   0  0  0  0  0  0  0  0  0  0  0  0
   -9.3800    4.1710    1.9330 N   0  0  0  0  0  0  0  0  0  0  0  0
  -10.2680    5.0010    2.7610 C   0  0  0  0  0  0  0  0  0  0  0  0
   -8.5100    3.2630    2.3540 C   0  0  0  0  0  0  0  0  0  0  0  0
   -4.9600    2.8390    0.2220 C   0  0  0  0  0  0  0  0  0  0  0  0
   -5.6130    4.1860    0.0610 C   0  0  0  0  0  0  0  0  0  0  0  0
   -3.7200    2.6590   -0.1260 C   0  0  0  0  0  0  0  0  0  0  0  0
    0.7100    3.2790   -2.5730 C   0  0  0  0  0  0  0  0  0  0  0  0
    2.0190    3.3090   -3.0400 C   0  0  0  0  0  0  0  0  0  0  0  0
    2.9340    2.6340   -2.3790 C   0  0  0  0  0  0  0  0  0  0  0  0
    4.7500    2.3780   -2.6060 S   0  0  0  0  0  0  0  0  0  0  0  0
    6.3880   -0.3790    0.6750 S   0  0  0  0  0  0  0  0  0  0  0  0
  1  2  1  0
  2  3  1  0
  3  4  1  0
  5  4  1  1
  5  6  1  0
  5 45  1  0
  6  7  1  0
  7  8  2  0
  8  9  1  0
  8 45  1  0
  9 10  2  0
  9 44  1  0
 10 11  1  0
 11 12  2  0
 11 43  1  0
 12 13  1  0
 13 14  1  0
 13 41  2  0
 14 15  1  0
 15 16  2  0
 15 17  1  0
 17 18  2  0
 17 40  1  0
 18 19  1  0
 18 29  1  0
 19 20  2  0
 19 21  1  0
 21 22  1  0
 21 28  1  0
 22 23  1  0
 23 24  1  0
 24 25  1  6
 24 26  1  0
 24 27  1  0
 27 28  1  0
 29 30  1  0
 30 31  2  3
 30 38  1  0
 31 32  1  0
 32 33  1  0
 32 37  2  0
 33 34  2  0
 34 35  1  0
 35 36  1  0
 35 37  1  0
 38 39  1  0
 38 40  2  0
 41 42  1  0
 42 43  2  0
 43 44  1  0
M  END
