
     RDKit          3D

 45 50  0  0  0  0  0  0  0  0999 V2000
    7.1150   -2.2380   -1.9500 C   0  0  0  0  0  0  0  0  0  0  0  0
    6.7540   -1.4890   -0.6970 C   0  0  1  0  0  0  0  0  0  0  0  0
    7.9870   -0.8450   -0.1470 C   0  0  0  0  0  0  0  0  0  0  0  0
    5.7390   -0.4910   -1.0070 N   0  0  0  0  0  0  0  0  0  0  0  0
    5.5300    0.7120   -0.4300 C   0  0  0  0  0  0  0  0  0  0  0  0
    4.4570    1.2920   -1.0630 C   0  0  0  0  0  0  0  0  0  0  0  0
    3.8480    2.5870   -0.8030 C   0  0  0  0  0  0  0  0  0  0  0  0
    4.6500    3.6650   -0.6250 N   0  0  0  0  0  0  0  0  0  0  0  0
    4.1780    4.8920   -0.3850 C   0  0  0  0  0  0  0  0  0  0  0  0
    2.8070    5.0480   -0.3170 C   0  0  0  0  0  0  0  0  0  0  0  0
    1.9680    3.9580   -0.4960 C   0  0  0  0  0  0  0  0  0  0  0  0
    2.4670    2.6970   -0.7430 C   0  0  0  0  0  0  0  0  0  0  0  0
    1.4640    1.2940   -0.9950 S   0  0  0  0  0  0  0  0  0  0  0  0
    1.0130    0.3530    0.4180 C   0  0  0  0  0  0  0  0  0  0  0  0
    1.3530    0.6320    1.5880 N   0  0  0  0  0  0  0  0  0  0  0  0
    2.1060    1.6340    2.1760 C   0  0  0  0  0  0  0  0  0  0  0  0
    3.4790    1.3920    2.3120 C   0  0  0  0  0  0  0  0  0  0  0  0
    4.2480    2.3630    2.9050 C   0  0  0  0  0  0  0  0  0  0  0  0
    3.6750    3.5440    3.3520 C   0  0  0  0  0  0  0  0  0  0  0  0
    2.3350    3.7540    3.2060 C   0  0  0  0  0  0  0  0  0  0  0  0
    1.5450    2.8070    2.6210 C   0  0  0  0  0  0  0  0  0  0  0  0
   -0.0010   -1.0840    0.1050 S   0  0  1  0  0  0  0  0  0  0  0  0
    0.2780   -1.6020   -1.2750 O   0  0  0  0  0  0  0  0  0  0  0  0
    0.3940   -2.1100    1.0920 O   0  0  0  0  0  0  0  0  0  0  0  0
   -1.6750   -0.6510    0.1710 N   0  0  0  0  0  0  0  0  0  0  0  0
   -2.1020   -0.1640    1.3830 C   0  0  1  0  0  0  0  0  0  0  0  0
   -2.6550    1.1870    1.5620 C   0  0  0  0  0  0  0  0  0  0  0  0
   -4.1460    1.2940    1.7330 C   0  0  0  0  0  0  0  0  0  0  0  0
   -4.9330    0.1000    1.3300 C   0  0  0  0  0  0  0  0  0  0  0  0
   -4.3910   -1.2040    1.8020 C   0  0  0  0  0  0  0  0  0  0  0  0
   -2.9840   -1.1020    2.2090 C   0  0  1  0  0  0  0  0  0  0  0  0
   -2.3960   -2.3510    2.3570 O   0  0  0  0  0  0  0  0  0  0  0  0
   -2.2010   -0.4810   -1.0870 C   0  0  2  0  0  0  0  0  0  0  0  0
   -2.6160    0.9040   -1.5230 C   0  0  0  0  0  0  0  0  0  0  0  0
   -3.1860   -1.5170   -1.5240 C   0  0  0  0  0  0  0  0  0  0  0  0
   -2.8640   -2.8200   -1.2170 C   0  0  0  0  0  0  0  0  0  0  0  0
   -3.7150   -3.8380   -1.5940 C   0  0  0  0  0  0  0  0  0  0  0  0
   -4.8840   -3.5740   -2.2740 C   0  0  0  0  0  0  0  0  0  0  0  0
   -5.1800   -2.2560   -2.5690 C   0  0  0  0  0  0  0  0  0  0  0  0
   -4.3250   -1.2450   -2.1890 C   0  0  0  0  0  0  0  0  0  0  0  0
   -6.4960   -2.2330   -3.3110 C   0  0  0  0  0  0  0  0  0  0  0  0
   -7.1410   -3.5010   -2.7960 C   0  0  0  0  0  0  0  0  0  0  0  0
   -5.9760   -4.4690   -2.7960 C   0  0  0  0  0  0  0  0  0  0  0  0
    4.0430    0.3890   -2.0320 C   0  0  0  0  0  0  0  0  0  0  0  0
    4.8470   -0.6610   -1.9530 N   0  0  0  0  0  0  0  0  0  0  0  0
  2  1  1  6
  2  3  1  0
  2  4  1  0
  4  5  1  0
  4 45  1  0
  5  6  2  0
  6  7  1  0
  6 44  1  0
  7  8  2  0
  7 12  1  0
  8  9  1  0
  9 10  2  0
 10 11  1  0
 11 12  2  0
 12 13  1  0
 13 14  1  0
 14 15  2  3
 14 22  1  0
 15 16  1  0
 16 17  2  0
 16 21  1  0
 17 18  1  0
 18 19  2  0
 19 20  1  0
 20 21  2  0
 22 23  2  0
 22 24  2  0
 22 25  1  6
 26 25  1  6
 25 33  1  0
 26 27  1  0
 26 31  1  0
 27 28  1  0
 28 29  1  0
 29 30  1  0
 30 31  1  0
 31 32  1  6
 33 34  1  1
 33 35  1  0
 35 36  2  0
 35 40  1  0
 36 37  1  0
 37 38  2  0
 38 39  1  0
 38 43  1  0
 39 40  2  0
 39 41  1  0
 41 42  1  0
 42 43  1  0
 44 45  2  0
M  END
