
     RDKit          3D

 46 49  0  0  0  0  0  0  0  0999 V2000
   -4.0850   -3.1950    1.8750 C   0  0  0  0  0  0  0  0  0  0  0  0
   -2.5820   -3.1840    1.8940 C   0  0  0  0  0  0  0  0  0  0  0  0
   -2.0080   -1.7950    2.1140 C   0  0  0  0  0  0  0  0  0  0  0  0
   -2.4320   -0.8420    1.0270 C   0  0  2  0  0  0  0  0  0  0  0  0
   -2.0410   -1.2470   -0.1830 O   0  0  0  0  0  0  0  0  0  0  0  0
   -1.4520   -2.1320   -0.9750 C   0  0  0  0  0  0  0  0  0  0  0  0
   -2.2140   -2.7540   -1.9800 C   0  0  0  0  0  0  0  0  0  0  0  0
   -3.5640   -2.5030   -2.2120 O   0  0  0  0  0  0  0  0  0  0  0  0
   -4.2680   -3.1620   -3.2380 C   0  0  0  0  0  0  0  0  0  0  0  0
   -1.6020   -3.6780   -2.8020 C   0  0  0  0  0  0  0  0  0  0  0  0
   -0.2820   -4.0260   -2.6960 C   0  0  0  0  0  0  0  0  0  0  0  0
    0.3620   -5.0250   -3.5850 C   0  0  0  0  0  0  0  0  0  0  0  0
    0.4850   -3.4310   -1.7230 C   0  0  0  0  0  0  0  0  0  0  0  0
   -0.0920   -2.4990   -0.8780 C   0  0  0  0  0  0  0  0  0  0  0  0
    0.8240   -1.9290    0.1100 C   0  0  0  0  0  0  0  0  0  0  0  0
    1.6240   -2.7600    0.7210 O   0  0  0  0  0  0  0  0  0  0  0  0
    0.9780   -0.5840    0.5130 N   0  0  0  0  0  0  0  0  0  0  0  0
    1.2230    0.5880   -0.2380 C   0  0  1  0  0  0  0  0  0  0  0  0
    2.6690    0.8910   -0.5240 C   0  0  2  0  0  0  0  0  0  0  0  0
    3.3940   -0.1460   -1.2950 C   0  0  0  0  0  0  0  0  0  0  0  0
    4.7610    0.3640   -1.6200 C   0  0  0  0  0  0  0  0  0  0  0  0
    5.1130    1.7060   -1.1210 C   0  0  0  0  0  0  0  0  0  0  0  0
    4.5020    2.1390    0.1710 C   0  0  0  0  0  0  0  0  0  0  0  0
    3.4390    1.2760    0.6450 N   0  0  2  0  0  0  0  0  0  0  0  0
    3.8490    0.2400    1.5050 C   0  0  1  0  0  0  0  0  0  0  0  0
    5.2780   -0.1470    1.5400 C   0  0  0  0  0  0  0  0  0  0  0  0
    5.6630   -0.3940    2.9930 C   0  0  0  0  0  0  0  0  0  0  0  0
    4.8170    0.6260    3.7050 C   0  0  0  0  0  0  0  0  0  0  0  0
    3.5270    0.5690    2.9580 C   0  0  0  0  0  0  0  0  0  0  0  0
    0.4390    0.6800   -1.5280 C   0  0  0  0  0  0  0  0  0  0  0  0
    0.7660    1.8800   -2.3010 N   0  0  0  0  0  0  0  0  0  0  0  0
   -0.0140    3.0470   -2.3030 C   0  0  0  0  0  0  0  0  0  0  0  0
    0.6410    4.1510   -2.3180 O   0  0  0  0  0  0  0  0  0  0  0  0
   -1.4570    3.2080   -2.2920 C   0  0  0  0  0  0  0  0  0  0  0  0
   -2.0180    3.9570   -3.2090 O   0  0  0  0  0  0  0  0  0  0  0  0
   -2.3910    2.6520   -1.3980 N   0  0  0  0  0  0  0  0  0  0  0  0
   -3.5680    2.0060   -1.9500 C   0  0  0  0  0  0  0  0  0  0  0  0
   -2.2760    2.6880    0.0850 C   0  0  1  0  0  0  0  0  0  0  0  0
   -2.7010    4.0700    0.5260 C   0  0  0  0  0  0  0  0  0  0  0  0
   -2.6140    4.3280    1.9670 C   0  0  0  0  0  0  0  0  0  0  0  0
   -1.9990    3.5210    2.7050 O   0  0  0  0  0  0  0  0  0  0  0  0
   -3.1770    5.4260    2.6020 O   0  0  0  0  0  0  0  0  0  0  0  0
   -3.0820    1.5700    0.6880 C   0  0  2  0  0  0  0  0  0  0  0  0
   -4.3320    1.9640    1.3900 C   0  0  0  0  0  0  0  0  0  0  0  0
   -2.2450    0.5810    1.4510 C   0  0  1  0  0  0  0  0  0  0  0  0
   -2.6600    0.5960    2.8090 O   0  0  0  0  0  0  0  0  0  0  0  0
  1  2  1  0
  2  3  1  0
  4  3  1  1
  4  5  1  0
  4 45  1  0
  5  6  1  0
  6  7  2  0
  6 14  1  0
  7  8  1  0
  7 10  1  0
  8  9  1  0
 10 11  2  0
 11 12  1  0
 11 13  1  0
 13 14  2  0
 14 15  1  0
 15 16  2  0
 15 17  1  0
 17 18  1  0
 18 19  1  0
 18 30  1  6
 19 20  1  1
 19 24  1  0
 20 21  1  0
 21 22  1  0
 22 23  1  0
 24 23  1  6
 24 25  1  0
 25 26  1  1
 25 29  1  0
 26 27  1  0
 27 28  1  0
 28 29  1  0
 30 31  1  0
 31 32  1  0
 32 33  2  0
 32 34  1  0
 34 35  2  0
 34 36  1  0
 36 37  1  0
 36 38  1  0
 38 39  1  1
 38 43  1  0
 39 40  1  0
 40 41  2  0
 40 42  1  0
 43 44  1  1
 43 45  1  0
 45 46  1  1
M  CHG  1  24   1
M  END
