
     RDKit          3D

 45 49  0  0  0  0  0  0  0  0999 V2000
   -6.6990    0.8170    2.5610 C   0  0  0  0  0  0  0  0  0  0  0  0
   -5.3760    0.6050    1.8130 C   0  0  0  0  0  0  0  0  0  0  0  0
   -4.9970   -0.8180    2.0180 C   0  0  0  0  0  0  0  0  0  0  0  0
   -3.7430   -1.2520    1.3660 C   0  0  0  0  0  0  0  0  0  0  0  0
   -2.5470   -0.9000    2.0570 C   0  0  0  0  0  0  0  0  0  0  0  0
   -1.3070   -1.1830    1.5720 C   0  0  0  0  0  0  0  0  0  0  0  0
   -0.0990   -0.7860    2.2980 C   0  0  0  0  0  0  0  0  0  0  0  0
   -0.0370   -0.7200    3.6700 C   0  0  0  0  0  0  0  0  0  0  0  0
    1.0910   -0.3150    4.3530 C   0  0  0  0  0  0  0  0  0  0  0  0
    2.2240    0.0440    3.6070 C   0  0  0  0  0  0  0  0  0  0  0  0
    2.2150   -0.0040    2.2300 C   0  0  0  0  0  0  0  0  0  0  0  0
    3.3300    0.3740    1.4760 N   0  0  0  0  0  0  0  0  0  0  0  0
    4.5160   -0.0450    1.5820 C   0  0  0  0  0  0  0  0  0  0  0  0
    4.7990   -1.0690    2.6250 C   0  0  0  0  0  0  0  0  0  0  0  0
    5.5520    0.4740    0.7000 C   0  0  0  0  0  0  0  0  0  0  0  0
    5.2600    1.3720   -0.2160 C   0  0  0  0  0  0  0  0  0  0  0  0
    3.8380    1.8660   -0.3580 C   0  0  0  0  0  0  0  0  0  0  0  0
    6.2580    1.9330   -1.0780 N   0  0  0  0  0  0  0  0  0  0  0  0
    7.6260    1.5910   -1.0330 C   0  0  0  0  0  0  0  0  0  0  0  0
    8.4680    2.1310   -1.8370 O   0  0  0  0  0  0  0  0  0  0  0  0
    8.1810    0.6620   -0.1370 N   0  0  0  0  0  0  0  0  0  0  0  0
    9.6280    0.4360   -0.1240 C   0  0  0  0  0  0  0  0  0  0  0  0
   10.5760    0.8760   -0.7420 N   0  0  0  0  0  0  0  0  0  0  0  0
   11.8290    0.5530   -0.5920 C   0  0  0  0  0  0  0  0  0  0  0  0
   12.9910    1.1440   -1.4080 C   0  0  0  0  0  0  0  0  0  0  0  0
   12.4700    2.1470   -2.4030 C   0  0  0  0  0  0  0  0  0  0  0  0
   12.0860   -0.3980    0.3830 C   0  0  0  0  0  0  0  0  0  0  0  0
   10.4000   -0.7250    0.9960 S   0  0  0  0  0  0  0  0  0  0  0  0
    7.1550   -0.1850    0.9380 S   0  0  2  0  0  0  0  0  0  0  0  0
    7.2130   -1.6690    0.7010 O   0  0  0  0  0  0  0  0  0  0  0  0
    7.5270    0.1550    2.3760 O   0  0  0  0  0  0  0  0  0  0  0  0
    1.0330   -0.4260    1.5990 C   0  0  0  0  0  0  0  0  0  0  0  0
   -1.2650   -1.8370    0.3620 C   0  0  0  0  0  0  0  0  0  0  0  0
   -2.3940   -2.1840   -0.3170 C   0  0  0  0  0  0  0  0  0  0  0  0
   -3.7050   -1.8920    0.1820 C   0  0  0  0  0  0  0  0  0  0  0  0
   -4.8160   -2.3580   -0.6770 C   0  0  0  0  0  0  0  0  0  0  0  0
   -5.3380   -1.4730   -1.7310 C   0  0  0  0  0  0  0  0  0  0  0  0
   -5.9940   -0.3160   -1.3280 N   0  0  0  0  0  0  0  0  0  0  0  0
   -7.3030   -0.5100   -0.7580 C   0  0  0  0  0  0  0  0  0  0  0  0
   -8.3750   -0.6160   -1.8240 C   0  0  1  0  0  0  0  0  0  0  0  0
   -9.7070   -0.4900   -1.1120 C   0  0  0  0  0  0  0  0  0  0  0  0
   -8.3120    0.5170   -2.8100 C   0  0  0  0  0  0  0  0  0  0  0  0
   -6.9420    0.6120   -3.3890 C   0  0  1  0  0  0  0  0  0  0  0  0
   -6.8710    1.9160   -4.1950 C   0  0  0  0  0  0  0  0  0  0  0  0
   -5.9490    0.7790   -2.2640 C   0  0  0  0  0  0  0  0  0  0  0  0
  1  2  1  0
  2  3  1  0
  3  4  1  0
  4  5  2  0
  4 35  1  0
  5  6  1  0
  6  7  1  0
  6 33  2  0
  7  8  2  0
  7 32  1  0
  8  9  1  0
  9 10  2  0
 10 11  1  0
 11 12  1  0
 11 32  2  0
 12 13  2  3
 13 14  1  0
 13 15  1  0
 15 16  2  0
 15 29  1  0
 16 17  1  0
 16 18  1  0
 18 19  1  0
 19 20  2  0
 19 21  1  0
 21 22  1  0
 29 21  1  6
 22 23  2  0
 22 28  1  0
 23 24  1  0
 24 25  1  0
 24 27  2  0
 25 26  1  0
 27 28  1  0
 29 30  2  0
 29 31  2  0
 33 34  1  0
 34 35  2  0
 35 36  1  0
 36 37  1  0
 37 38  1  0
 38 39  1  0
 38 45  1  0
 39 40  1  0
 40 41  1  1
 40 42  1  0
 42 43  1  0
 43 44  1  6
 43 45  1  0
M  END
