
     RDKit          3D

 45 51  0  0  0  0  0  0  0  0999 V2000
   12.3870    3.2910   -0.1740 C   0  0  0  0  0  0  0  0  0  0  0  0
   11.1900    2.3920   -0.0840 C   0  0  0  0  0  0  0  0  0  0  0  0
   10.2540    2.2080   -1.0990 C   0  0  0  0  0  0  0  0  0  0  0  0
    9.3320    1.3180   -0.6170 C   0  0  0  0  0  0  0  0  0  0  0  0
    9.7370    0.9920    0.6700 C   0  0  0  0  0  0  0  0  0  0  0  0
   10.8300    1.6440    0.9420 O   0  0  0  0  0  0  0  0  0  0  0  0
    8.8490    0.0140    1.3880 C   0  0  0  0  0  0  0  0  0  0  0  0
    8.7120   -1.1140    0.4890 N   0  0  1  0  0  0  0  0  0  0  0  0
    8.0820   -2.2270    1.1530 C   0  0  0  0  0  0  0  0  0  0  0  0
    6.8300   -1.7170    1.7980 C   0  0  0  0  0  0  0  0  0  0  0  0
    5.6330   -1.6030    1.4620 N   0  0  0  0  0  0  0  0  0  0  0  0
    4.6720   -1.1240    2.1830 C   0  0  0  0  0  0  0  0  0  0  0  0
    3.2650   -1.0200    1.7130 C   0  0  0  0  0  0  0  0  0  0  0  0
    2.2750   -0.5070    2.5080 C   0  0  0  0  0  0  0  0  0  0  0  0
    0.9710   -0.3910    2.1230 C   0  0  0  0  0  0  0  0  0  0  0  0
    0.5790   -0.8110    0.8440 C   0  0  0  0  0  0  0  0  0  0  0  0
   -0.6170   -0.7810    0.2930 N   0  0  0  0  0  0  0  0  0  0  0  0
   -0.9620   -1.1220   -0.7580 C   0  0  0  0  0  0  0  0  0  0  0  0
   -2.1070   -1.2370   -1.6540 N   0  0  0  0  0  0  0  0  0  0  0  0
   -3.3810   -0.8010   -1.2020 C   0  0  0  0  0  0  0  0  0  0  0  0
   -3.4420   -0.3260   -0.0160 O   0  0  0  0  0  0  0  0  0  0  0  0
   -4.5340   -0.9180   -2.1080 C   0  0  2  0  0  0  0  0  0  0  0  0
   -4.5350    0.1110   -3.2250 C   0  0  2  0  0  0  0  0  0  0  0  0
   -3.3360    0.0590   -4.1100 C   0  0  0  0  0  0  0  0  0  0  0  0
   -4.6780    1.3880   -2.4650 C   0  0  0  0  0  0  0  0  0  0  0  0
   -5.6300    0.9920   -1.3490 C   0  0  0  0  0  0  0  0  0  0  0  0
   -5.6920   -0.4500   -1.3640 N   0  0  0  0  0  0  0  0  0  0  0  0
   -6.6800   -1.2640   -0.7740 C   0  0  0  0  0  0  0  0  0  0  0  0
   -6.6010   -2.5280   -0.8710 O   0  0  0  0  0  0  0  0  0  0  0  0
   -7.7770   -0.6220   -0.0620 C   0  0  0  0  0  0  0  0  0  0  0  0
   -7.6760   -0.3490    1.2920 C   0  0  0  0  0  0  0  0  0  0  0  0
   -8.6960    0.2570    1.9940 C   0  0  0  0  0  0  0  0  0  0  0  0
   -8.5890    0.5500    3.4480 C   0  0  0  0  0  0  0  0  0  0  0  0
   -9.8370    0.5920    1.3180 C   0  0  0  0  0  0  0  0  0  0  0  0
  -10.9390    1.2490    2.0850 C   0  0  0  0  0  0  0  0  0  0  0  0
   -9.9700    0.3330   -0.0370 C   0  0  0  0  0  0  0  0  0  0  0  0
   -8.9340   -0.2730   -0.7090 C   0  0  0  0  0  0  0  0  0  0  0  0
   -9.0550   -0.5610   -2.1660 C   0  0  0  0  0  0  0  0  0  0  0  0
    0.6940   -1.7290   -1.4470 S   0  0  0  0  0  0  0  0  0  0  0  0
    1.5730   -1.3250    0.0480 C   0  0  0  0  0  0  0  0  0  0  0  0
    2.8850   -1.4350    0.4540 C   0  0  0  0  0  0  0  0  0  0  0  0
    5.0510   -0.6930    3.4840 C   0  0  0  0  0  0  0  0  0  0  0  0
    6.7830   -1.0530    3.4720 S   0  0  0  0  0  0  0  0  0  0  0  0
    8.0890   -0.7930   -0.7530 C   0  0  0  0  0  0  0  0  0  0  0  0
    8.0900    0.6610   -1.1010 C   0  0  0  0  0  0  0  0  0  0  0  0
  1  2  1  0
  2  3  2  0
  2  6  1  0
  3  4  1  0
  4  5  2  0
  4 45  1  0
  5  6  1  0
  5  7  1  0
  7  8  1  0
  8  9  1  1
  8 44  1  0
  9 10  1  0
 10 11  2  0
 10 43  1  0
 11 12  1  0
 12 13  1  0
 12 42  2  0
 13 14  2  0
 13 41  1  0
 14 15  1  0
 15 16  2  0
 16 17  1  0
 16 40  1  0
 17 18  2  0
 18 19  1  0
 18 39  1  0
 19 20  1  0
 20 21  2  0
 22 20  1  1
 22 23  1  0
 22 27  1  0
 23 24  1  1
 23 25  1  0
 25 26  1  0
 26 27  1  0
 27 28  1  0
 28 29  2  0
 28 30  1  0
 30 31  2  0
 30 37  1  0
 31 32  1  0
 32 33  1  0
 32 34  2  0
 34 35  1  0
 34 36  1  0
 36 37  2  0
 37 38  1  0
 39 40  1  0
 40 41  2  0
 42 43  1  0
 44 45  1  0
M  CHG  1   8   1
M  END
