
     RDKit          3D

 45 50  0  0  0  0  0  0  0  0999 V2000
    9.1150    1.0910    0.6320 C   0  0  0  0  0  0  0  0  0  0  0  0
    8.1630    0.3500    1.5480 C   0  0  0  0  0  0  0  0  0  0  0  0
    7.9230   -0.9490    0.9510 N   0  0  0  0  0  0  0  0  0  0  0  0
    6.8160   -1.6530    1.5320 C   0  0  0  0  0  0  0  0  0  0  0  0
    5.8680   -0.7460    2.2890 C   0  0  0  0  0  0  0  0  0  0  0  0
    4.7470   -1.5350    2.8660 C   0  0  1  0  0  0  0  0  0  0  0  0
    3.6340   -0.4000    3.7700 S   0  0  0  0  0  0  0  0  0  0  0  0
    2.4750   -0.1350    2.4010 C   0  0  0  0  0  0  0  0  0  0  0  0
    1.4460    0.6280    2.4340 N   0  0  0  0  0  0  0  0  0  0  0  0
    0.5820    0.8870    1.5620 N   0  0  0  0  0  0  0  0  0  0  0  0
   -0.1520    1.2940    0.6540 C   0  0  0  0  0  0  0  0  0  0  0  0
   -1.3710    0.5640    0.3940 C   0  0  0  0  0  0  0  0  0  0  0  0
   -1.4890   -0.5720    1.0550 O   0  0  0  0  0  0  0  0  0  0  0  0
   -2.4560    0.8260   -0.4170 N   0  0  0  0  0  0  0  0  0  0  0  0
   -3.1230    2.1260   -0.5980 C   0  0  0  0  0  0  0  0  0  0  0  0
   -4.2280    2.1080    0.4450 C   0  0  0  0  0  0  0  0  0  0  0  0
   -5.4830    1.6400    0.1830 C   0  0  0  0  0  0  0  0  0  0  0  0
   -6.1830    1.7940    1.3750 C   0  0  0  0  0  0  0  0  0  0  0  0
   -5.3130    2.3460    2.2860 C   0  0  0  0  0  0  0  0  0  0  0  0
   -5.6540    2.6840    3.7130 C   0  0  0  0  0  0  0  0  0  0  0  0
   -4.1670    2.5080    1.6690 O   0  0  0  0  0  0  0  0  0  0  0  0
   -3.1460   -0.3130   -1.0130 C   0  0  0  0  0  0  0  0  0  0  0  0
   -2.9280   -0.5620   -2.3400 C   0  0  0  0  0  0  0  0  0  0  0  0
   -3.5620   -1.6440   -2.9620 C   0  0  0  0  0  0  0  0  0  0  0  0
   -4.4190   -2.4730   -2.2310 C   0  0  0  0  0  0  0  0  0  0  0  0
   -4.6290   -2.2080   -0.8950 C   0  0  0  0  0  0  0  0  0  0  0  0
   -3.9830   -1.1220   -0.3000 C   0  0  0  0  0  0  0  0  0  0  0  0
   -5.5430   -3.1010   -0.1590 C   0  0  0  0  0  0  0  0  0  0  0  0
   -6.7990   -3.2710   -1.0120 C   0  0  0  0  0  0  0  0  0  0  0  0
   -6.5000   -3.8500   -2.3620 C   0  0  0  0  0  0  0  0  0  0  0  0
   -5.1030   -3.6230   -2.8370 C   0  0  0  0  0  0  0  0  0  0  0  0
    0.3200    2.4630   -0.1120 C   0  0  0  0  0  0  0  0  0  0  0  0
    1.2860    3.2670    0.4730 C   0  0  0  0  0  0  0  0  0  0  0  0
    1.8500    4.3040   -0.2220 C   0  0  0  0  0  0  0  0  0  0  0  0
    1.4870    4.5920   -1.5200 C   0  0  0  0  0  0  0  0  0  0  0  0
    0.5270    3.7850   -2.0870 C   0  0  0  0  0  0  0  0  0  0  0  0
   -0.0470    2.7350   -1.3930 C   0  0  0  0  0  0  0  0  0  0  0  0
    2.9710   -0.9420    1.3460 N   0  0  0  0  0  0  0  0  0  0  0  0
    2.6370   -0.7470   -0.0920 C   0  0  0  0  0  0  0  0  0  0  0  0
    2.0170   -1.6750   -0.8370 C   0  0  0  0  0  0  0  0  0  0  0  0
    1.7400   -1.4550   -2.1340 C   0  0  0  0  0  0  0  0  0  0  0  0
    2.3480    0.1330   -2.4330 S   0  0  0  0  0  0  0  0  0  0  0  0
    2.9630    0.4190   -0.7280 C   0  0  0  0  0  0  0  0  0  0  0  0
    3.8240   -1.9770    1.7890 C   0  0  0  0  0  0  0  0  0  0  0  0
    3.8230   -3.1770    1.3290 O   0  0  0  0  0  0  0  0  0  0  0  0
  1  2  1  0
  2  3  1  0
  3  4  1  0
  4  5  1  0
  6  5  1  6
  6  7  1  0
  6 44  1  0
  7  8  1  0
  8  9  2  3
  8 38  1  0
  9 10  1  0
 10 11  2  3
 11 12  1  0
 11 32  1  0
 12 13  2  0
 12 14  1  0
 14 15  1  0
 14 22  1  0
 15 16  1  0
 16 17  2  0
 16 21  1  0
 17 18  1  0
 18 19  2  0
 19 20  1  0
 19 21  1  0
 22 23  2  0
 22 27  1  0
 23 24  1  0
 24 25  2  0
 25 26  1  0
 25 31  1  0
 26 27  2  0
 26 28  1  0
 28 29  1  0
 29 30  1  0
 30 31  1  0
 32 33  2  0
 32 37  1  0
 33 34  1  0
 34 35  2  0
 35 36  1  0
 36 37  2  0
 38 39  1  0
 38 44  1  0
 39 40  1  0
 39 43  2  0
 40 41  2  0
 41 42  1  0
 42 43  1  0
 44 45  2  0
M  CHG  1   3   1
M  END
