
     RDKit          3D

 24 27  0  0  0  0  0  0  0  0999 V2000
    3.2960    4.1490   -0.9960 C   0  0  0  0  0  0  0  0  0  0  0  0
    2.3390    3.1610   -0.7200 O   0  0  0  0  0  0  0  0  0  0  0  0
    2.7670    1.8830   -0.3810 C   0  0  0  0  0  0  0  0  0  0  0  0
    4.0910    1.6420   -0.3320 C   0  0  0  0  0  0  0  0  0  0  0  0
    4.5610    0.3900   -0.0010 C   0  0  0  0  0  0  0  0  0  0  0  0
    3.6590   -0.6050    0.2770 C   0  0  0  0  0  0  0  0  0  0  0  0
    2.2820   -0.3570    0.2260 C   0  0  0  0  0  0  0  0  0  0  0  0
    1.8010    0.8700   -0.0980 C   0  0  0  0  0  0  0  0  0  0  0  0
    0.4410    1.3440   -0.2120 C   0  0  0  0  0  0  0  0  0  0  0  0
   -0.6500    0.4640    0.0440 N   0  0  0  0  0  0  0  0  0  0  0  0
   -1.9770    0.9940   -0.1060 C   0  0  0  0  0  0  0  0  0  0  0  0
   -2.0310    2.2330   -0.4410 O   0  0  0  0  0  0  0  0  0  0  0  0
   -3.1870    0.2490    0.0970 C   0  0  0  0  0  0  0  0  0  0  0  0
   -4.2940    0.9660    0.5920 C   0  0  0  0  0  0  0  0  0  0  0  0
   -5.5170    0.4090    0.8150 C   0  0  0  0  0  0  0  0  0  0  0  0
   -5.6910   -0.9270    0.5450 C   0  0  0  0  0  0  0  0  0  0  0  0
   -4.5860   -1.6130    0.0560 C   0  0  0  0  0  0  0  0  0  0  0  0
   -4.4630   -2.9090   -0.3220 N   0  0  0  0  0  0  0  0  0  0  0  0
   -3.2290   -3.1450   -0.7610 C   0  0  0  0  0  0  0  0  0  0  0  0
   -2.5160   -1.9630   -0.6680 C   0  0  0  0  0  0  0  0  0  0  0  0
   -3.3820   -1.0470   -0.1600 N   0  0  0  0  0  0  0  0  0  0  0  0
    1.6050   -1.6310    0.5720 C   0  0  0  0  0  0  0  0  0  0  0  0
    2.6440   -2.6130    0.8130 N   0  0  0  0  0  0  0  0  0  0  0  0
    3.9070   -2.0020    0.6500 C   0  0  0  0  0  0  0  0  0  0  0  0
  1  2  1  0
  2  3  1  0
  3  4  2  0
  3  8  1  0
  4  5  1  0
  5  6  2  0
  6  7  1  0
  6 24  1  0
  7  8  2  0
  7 22  1  0
  8  9  1  0
  9 10  1  0
 10 11  1  0
 11 12  2  0
 11 13  1  0
 13 14  2  0
 13 21  1  0
 14 15  1  0
 15 16  2  0
 16 17  1  0
 17 18  2  0
 17 21  1  0
 18 19  1  0
 19 20  2  0
 20 21  1  0
 22 23  1  0
 23 24  1  0
M  CHG  1  18   1
M  END
