
     RDKit          3D

 24 27  0  0  0  0  0  0  0  0999 V2000
   -5.5990    1.2140   -0.4900 C   0  0  0  0  0  0  0  0  0  0  0  0
   -5.5390   -0.1170    0.2680 C   0  0  1  0  0  0  0  0  0  0  0  0
   -4.7580   -1.1000   -0.5380 C   0  0  0  0  0  0  0  0  0  0  0  0
   -3.2690   -1.0680   -0.2390 C   0  0  0  0  0  0  0  0  0  0  0  0
   -2.9300    0.3370    0.1080 C   0  0  0  0  0  0  0  0  0  0  0  0
   -2.0770    1.0450   -0.5520 N   0  0  0  0  0  0  0  0  0  0  0  0
   -1.4280    0.4560   -1.6630 C   0  0  0  0  0  0  0  0  0  0  0  0
   -2.1000    0.2080   -2.6880 O   0  0  0  0  0  0  0  0  0  0  0  0
   -0.0100    0.1630   -1.5720 C   0  0  0  0  0  0  0  0  0  0  0  0
    0.6950   -0.4130   -2.6160 C   0  0  0  0  0  0  0  0  0  0  0  0
    2.0140   -0.6720   -2.4960 N   0  0  0  0  0  0  0  0  0  0  0  0
    2.7110   -0.3900   -1.3720 C   0  0  0  0  0  0  0  0  0  0  0  0
    4.0760   -0.6670   -1.2700 C   0  0  0  0  0  0  0  0  0  0  0  0
    4.7720   -0.3730   -0.1140 C   0  0  0  0  0  0  0  0  0  0  0  0
    4.1170    0.2020    0.9560 C   0  0  0  0  0  0  0  0  0  0  0  0
    2.7800    0.4650    0.8370 C   0  0  0  0  0  0  0  0  0  0  0  0
    2.0500    0.1850   -0.3020 C   0  0  0  0  0  0  0  0  0  0  0  0
    0.7090    0.4460   -0.4300 C   0  0  0  0  0  0  0  0  0  0  0  0
    4.8840    0.4790    2.1120 N   0  0  0  0  0  0  0  0  0  0  0  0
    6.3470    0.4300    2.1000 C   0  0  0  0  0  0  0  0  0  0  0  0
    6.8290    0.3490    0.7950 O   0  0  0  0  0  0  0  0  0  0  0  0
    6.2240   -0.6450    0.0520 C   0  0  0  0  0  0  0  0  0  0  0  0
   -3.6090    0.8880    1.2360 N   0  0  0  0  0  0  0  0  0  0  0  0
   -4.8650    0.2130    1.6020 C   0  0  0  0  0  0  0  0  0  0  0  0
  2  1  1  6
  2  3  1  0
  2 24  1  0
  3  4  1  0
  4  5  1  0
  5  6  2  3
  5 23  1  0
  6  7  1  0
  7  8  2  0
  7  9  1  0
  9 10  2  0
  9 18  1  0
 10 11  1  0
 11 12  2  0
 12 13  1  0
 12 17  1  0
 13 14  2  0
 14 15  1  0
 14 22  1  0
 15 16  2  0
 15 19  1  0
 16 17  1  0
 17 18  2  0
 19 20  1  0
 20 21  1  0
 21 22  1  0
 23 24  1  0
M  CHG  1  11   1
M  END
