
     RDKit          3D

 24 26  0  0  0  0  0  0  0  0999 V2000
    5.8070    0.1290    0.9990 C   0  0  0  0  0  0  0  0  0  0  0  0
    4.3980    0.1960    0.5280 N   0  0  0  0  0  0  0  0  0  0  0  0
    4.1510    1.1730   -0.4800 C   0  0  0  0  0  0  0  0  0  0  0  0
    3.4830   -0.6700    1.0950 C   0  0  0  0  0  0  0  0  0  0  0  0
    4.0070   -1.4660    2.0060 O   0  0  0  0  0  0  0  0  0  0  0  0
    2.0880   -0.8460    0.8630 C   0  0  0  0  0  0  0  0  0  0  0  0
    1.3160   -0.2140    0.0380 C   0  0  0  0  0  0  0  0  0  0  0  0
   -0.1280   -0.4910   -0.1110 C   0  0  0  0  0  0  0  0  0  0  0  0
   -0.7890   -1.4520    0.6170 C   0  0  0  0  0  0  0  0  0  0  0  0
   -2.1520   -1.6570    0.4220 C   0  0  0  0  0  0  0  0  0  0  0  0
   -2.9080   -0.9400   -0.4790 C   0  0  0  0  0  0  0  0  0  0  0  0
   -2.2340    0.0280   -1.2110 C   0  0  0  0  0  0  0  0  0  0  0  0
   -0.8850    0.2340   -1.0210 C   0  0  0  0  0  0  0  0  0  0  0  0
   -0.1890    1.2330   -1.7760 N   0  0  0  0  0  0  0  0  0  0  0  0
   -0.2990    2.4820   -1.3940 C   0  0  0  0  0  0  0  0  0  0  0  0
    0.3360    3.6590   -2.0340 C   0  0  0  0  0  0  0  0  0  0  0  0
   -0.1180    4.7920   -1.2070 C   0  0  0  0  0  0  0  0  0  0  0  0
   -0.8950    4.3710   -0.2320 C   0  0  0  0  0  0  0  0  0  0  0  0
   -1.0500    2.9670   -0.2850 N   0  0  0  0  0  0  0  0  0  0  0  0
   -4.3620   -1.1820   -0.6560 C   0  0  0  0  0  0  0  0  0  0  0  0
   -4.6950   -2.4620   -0.3440 O   0  0  0  0  0  0  0  0  0  0  0  0
   -3.7280   -3.2830    0.1520 C   0  0  0  0  0  0  0  0  0  0  0  0
   -2.8820   -2.6460    1.1510 N   0  0  1  0  0  0  0  0  0  0  0  0
   -2.0480   -3.6030    1.7910 C   0  0  0  0  0  0  0  0  0  0  0  0
  1  2  1  0
  2  3  1  0
  2  4  1  0
  4  5  2  0
  4  6  1  0
  6  7  2  3
  7  8  1  0
  8  9  2  0
  8 13  1  0
  9 10  1  0
 10 11  2  0
 10 23  1  0
 11 12  1  0
 11 20  1  0
 12 13  2  0
 13 14  1  0
 14 15  2  3
 15 16  1  0
 15 19  1  0
 16 17  1  0
 17 18  2  0
 18 19  1  0
 20 21  1  0
 21 22  1  0
 22 23  1  0
 23 24  1  6
M  CHG  1  23   1
M  END
