
     RDKit          3D

 24 27  0  0  0  0  0  0  0  0999 V2000
   -5.6990    2.4090    1.4840 O   0  0  0  0  0  0  0  0  0  0  0  0
   -5.8200    1.3880    0.7650 C   0  0  0  0  0  0  0  0  0  0  0  0
   -7.1550    0.9330    0.2970 C   0  0  0  0  0  0  0  0  0  0  0  0
   -6.9530   -0.2150   -0.6450 C   0  0  0  0  0  0  0  0  0  0  0  0
   -6.0120   -1.2580   -0.0410 C   0  0  0  0  0  0  0  0  0  0  0  0
   -4.6630   -0.6420    0.0110 C   0  0  0  0  0  0  0  0  0  0  0  0
   -3.5110   -1.3200   -0.3200 C   0  0  0  0  0  0  0  0  0  0  0  0
   -2.2740   -0.6710   -0.2450 C   0  0  0  0  0  0  0  0  0  0  0  0
   -2.1880    0.6410    0.1550 C   0  0  0  0  0  0  0  0  0  0  0  0
   -0.9470    1.2970    0.2300 N   0  0  0  0  0  0  0  0  0  0  0  0
   -0.0280    1.0200   -0.6190 C   0  0  0  0  0  0  0  0  0  0  0  0
    1.2180    1.6950   -0.5240 N   0  0  0  0  0  0  0  0  0  0  0  0
    2.2260    1.2520    0.1060 C   0  0  0  0  0  0  0  0  0  0  0  0
    2.1600   -0.0540    0.8100 C   0  0  0  0  0  0  0  0  0  0  0  0
    3.1630   -0.8840    0.1950 N   0  0  0  0  0  0  0  0  0  0  0  0
    4.4300   -0.2740    0.3190 C   0  0  0  0  0  0  0  0  0  0  0  0
    5.6840   -1.0680    0.4450 C   0  0  2  0  0  0  0  0  0  0  0  0
    6.8830   -0.1610    0.5610 C   0  0  0  0  0  0  0  0  0  0  0  0
    7.0530   -0.3010   -0.9530 C   0  0  0  0  0  0  0  0  0  0  0  0
    6.2430   -1.5890   -0.8430 C   0  0  0  0  0  0  0  0  0  0  0  0
    4.5320    0.9970    0.3250 N   0  0  0  0  0  0  0  0  0  0  0  0
    3.4600    1.8860    0.2190 O   0  0  0  0  0  0  0  0  0  0  0  0
   -3.3490    1.3080    0.4830 C   0  0  0  0  0  0  0  0  0  0  0  0
   -4.5760    0.6730    0.4120 C   0  0  0  0  0  0  0  0  0  0  0  0
  1  2  2  0
  2  3  1  0
  2 24  1  0
  3  4  1  0
  4  5  1  0
  5  6  1  0
  6  7  2  0
  6 24  1  0
  7  8  1  0
  8  9  2  0
  9 10  1  0
  9 23  1  0
 10 11  2  3
 11 12  1  0
 12 13  2  3
 13 14  1  0
 13 22  1  0
 14 15  1  0
 15 16  1  0
 17 16  1  6
 16 21  2  0
 17 18  1  0
 17 20  1  0
 18 19  1  0
 19 20  1  0
 21 22  1  0
 23 24  2  0
M  CHG  1  15   1
M  END
