
     RDKit          3D

 27 28  0  0  0  0  0  0  0  0999 V2000
   -3.8240    1.5100   -1.6090 C   0  0  0  0  0  0  0  0  0  0  0  0
   -2.7730    0.8960   -0.7760 N   0  0  0  0  0  0  0  0  0  0  0  0
   -2.7670    1.4290    0.4420 O   0  0  0  0  0  0  0  0  0  0  0  0
   -2.6030    0.3690    1.3550 C   0  0  2  0  0  0  0  0  0  0  0  0
   -1.2380    0.4670    2.0170 C   0  0  0  0  0  0  0  0  0  0  0  0
   -0.3370   -0.0700    0.9360 N   0  0  0  0  0  0  0  0  0  0  0  0
    0.9120    0.4570    0.6350 C   0  0  0  0  0  0  0  0  0  0  0  0
    1.2380    1.4620    1.4410 O   0  0  0  0  0  0  0  0  0  0  0  0
    1.8930    0.1820   -0.3100 N   0  0  0  0  0  0  0  0  0  0  0  0
    1.8180   -0.8330   -1.2970 C   0  0  0  0  0  0  0  0  0  0  0  0
    2.5270   -2.4530   -0.7700 P   0  0  0  0  0  0  0  0  0  0  0  0
    3.1100   -3.2680   -2.1880 O   0  0  0  0  0  0  0  0  0  0  0  0
    3.8950   -2.1660    0.2590 O   0  0  0  0  0  0  0  0  0  0  0  0
    3.0950    1.0260   -0.2450 C   0  0  0  0  0  0  0  0  0  0  0  0
    3.8000    1.0310    0.8260 N   0  0  0  0  0  0  0  0  0  0  0  0
    3.4790    1.8240   -1.3400 N   0  0  0  0  0  0  0  0  0  0  0  0
    4.6990    3.1310   -1.2200 P   0  0  0  0  0  0  0  0  0  0  0  0
    6.3200    2.4950   -1.3260 O   0  0  0  0  0  0  0  0  0  0  0  0
    4.5280    4.0540    0.2400 O   0  0  0  0  0  0  0  0  0  0  0  0
   -1.0860   -1.1440    0.4210 C   0  0  0  0  0  0  0  0  0  0  0  0
   -0.7350   -2.2380   -0.0350 O   0  0  0  0  0  0  0  0  0  0  0  0
   -2.5700   -0.8190    0.4770 C   0  0  1  0  0  0  0  0  0  0  0  0
   -3.2560   -2.0400    1.0350 C   0  0  0  0  0  0  0  0  0  0  0  0
   -4.6810   -1.7740    1.2840 C   0  0  0  0  0  0  0  0  0  0  0  0
   -5.0990   -1.1550    2.2900 O   0  0  0  0  0  0  0  0  0  0  0  0
   -5.6030   -2.2480    0.3320 O   0  0  0  0  0  0  0  0  0  0  0  0
   -3.0720   -0.4040   -0.7170 O   0  0  0  0  0  0  0  0  0  0  0  0
  1  2  1  0
  2  3  1  0
  2 27  1  0
  3  4  1  0
  4  5  1  6
  4 22  1  0
  5  6  1  0
  6  7  1  0
  6 20  1  0
  7  8  2  0
  7  9  1  0
  9 10  1  0
  9 14  1  0
 10 11  1  0
 11 12  1  0
 11 13  1  0
 14 15  2  0
 14 16  1  0
 16 17  1  0
 17 18  1  0
 17 19  1  0
 20 21  2  0
 20 22  1  0
 22 23  1  1
 22 27  1  0
 23 24  1  0
 24 25  2  0
 24 26  1  0
M  END
