
     RDKit          3D

 26 27  0  0  0  0  0  0  0  0999 V2000
   -3.6220   -2.4320    1.6140 N   0  0  0  0  0  0  0  0  0  0  0  0
   -3.3740   -1.3170    0.7730 C   0  0  0  0  0  0  0  0  0  0  0  0
   -2.1670   -0.9730    0.5230 N   0  0  0  0  0  0  0  0  0  0  0  0
   -1.7320    0.0970   -0.3000 C   0  0  0  0  0  0  0  0  0  0  0  0
   -0.4560    0.4300   -0.8500 N   0  0  0  0  0  0  0  0  0  0  0  0
    0.4870    0.6930    0.1560 C   0  0  0  0  0  0  0  0  0  0  0  0
   -0.0560    0.6850    1.3340 O   0  0  0  0  0  0  0  0  0  0  0  0
    1.7890    0.9470   -0.0160 O   0  0  0  0  0  0  0  0  0  0  0  0
    2.5850    1.2430    1.1540 C   0  0  0  0  0  0  0  0  0  0  0  0
    3.9730    1.5630    0.7290 C   0  0  2  0  0  0  0  0  0  0  0  0
    4.0550    2.6440   -0.1340 O   0  0  0  0  0  0  0  0  0  0  0  0
    4.6400    0.3370    0.1700 C   0  0  0  0  0  0  0  0  0  0  0  0
    4.0820   -0.0720   -1.0210 O   0  0  0  0  0  0  0  0  0  0  0  0
    4.8560   -1.4770   -1.6510 P   0  0  0  0  0  0  0  0  0  0  0  0
    6.5510   -1.4320   -1.2220 O   0  0  0  0  0  0  0  0  0  0  0  0
    4.6750   -1.5870   -3.3760 O   0  0  0  0  0  0  0  0  0  0  0  0
    4.8790    2.0960    2.2880 P   0  0  0  0  0  0  0  0  0  0  0  0
    4.0980    2.9280    3.3400 O   0  0  0  0  0  0  0  0  0  0  0  0
   -2.6040    0.7840   -0.8470 N   0  0  0  0  0  0  0  0  0  0  0  0
   -3.9670    0.5600   -0.6420 C   0  0  0  0  0  0  0  0  0  0  0  0
   -4.7950    1.3820   -1.1380 N   0  0  0  0  0  0  0  0  0  0  0  0
   -6.1710    1.2030   -0.9740 C   0  0  0  0  0  0  0  0  0  0  0  0
   -6.9920    2.0100   -1.4440 O   0  0  0  0  0  0  0  0  0  0  0  0
   -6.6210    0.0790   -0.2540 O   0  0  0  0  0  0  0  0  0  0  0  0
   -5.7050   -1.0830   -0.2490 C   0  0  0  0  0  0  0  0  0  0  0  0
   -4.4530   -0.4970    0.2770 C   0  0  1  0  0  0  0  0  0  0  0  0
  1  2  1  0
  2  3  2  0
  2 26  1  0
  3  4  1  0
  4  5  1  0
  4 19  2  0
  5  6  1  0
  6  7  2  0
  6  8  1  0
  8  9  1  0
  9 10  1  0
 10 11  1  6
 10 12  1  0
 10 17  1  0
 12 13  1  0
 13 14  1  0
 14 15  1  0
 14 16  1  0
 17 18  2  0
 19 20  1  0
 20 21  2  0
 20 26  1  0
 21 22  1  0
 22 23  2  0
 22 24  1  0
 24 25  1  0
 26 25  1  6
M  END
