
     RDKit          3D

 26 27  0  0  0  0  0  0  0  0999 V2000
    2.7500   -0.3110    0.1340 N   0  0  0  0  0  0  0  0  0  0  0  0
    3.7660    0.4700    0.2810 C   0  0  0  0  0  0  0  0  0  0  0  0
    3.5060    1.8470    0.5040 N   0  0  0  0  0  0  0  0  0  0  0  0
    2.1960    2.3680    0.3110 C   0  0  1  0  0  0  0  0  0  0  0  0
    1.8180    2.2980   -1.0320 O   0  0  0  0  0  0  0  0  0  0  0  0
    0.4320    2.3750   -1.1570 C   0  0  0  0  0  0  0  0  0  0  0  0
   -0.1720    1.0230   -0.7340 C   0  0  0  0  0  0  0  0  0  0  0  0
    0.1740    0.8530    0.6520 N   0  0  0  0  0  0  0  0  0  0  0  0
   -0.4440   -0.1510    1.4620 C   0  0  0  0  0  0  0  0  0  0  0  0
   -0.0660   -0.2560    2.6950 O   0  0  0  0  0  0  0  0  0  0  0  0
   -1.4330   -1.0470    1.0410 N   0  0  0  0  0  0  0  0  0  0  0  0
   -2.1170   -2.1440    1.7200 C   0  0  0  0  0  0  0  0  0  0  0  0
   -2.3640   -2.8070    0.3810 C   0  0  2  0  0  0  0  0  0  0  0  0
   -1.3370   -3.6340   -0.0440 O   0  0  0  0  0  0  0  0  0  0  0  0
   -2.2410   -1.3610   -0.1130 C   0  0  1  0  0  0  0  0  0  0  0  0
   -3.6500   -0.7790   -0.1110 C   0  0  0  0  0  0  0  0  0  0  0  0
   -3.6990    0.5870   -0.0380 O   0  0  0  0  0  0  0  0  0  0  0  0
   -5.3710    1.0520   -0.0470 P   0  0  0  0  0  0  0  0  0  0  0  0
   -5.5160    2.7860   -0.1080 O   0  0  0  0  0  0  0  0  0  0  0  0
   -6.2070    0.3390   -1.3990 O   0  0  0  0  0  0  0  0  0  0  0  0
    1.1670    1.7290    1.1840 C   0  0  0  0  0  0  0  0  0  0  0  0
    1.1820    1.9690    2.4000 O   0  0  0  0  0  0  0  0  0  0  0  0
    5.1060   -0.0150    0.2240 N   0  0  0  0  0  0  0  0  0  0  0  0
    5.4530   -1.5870   -0.5200 P   0  0  0  0  0  0  0  0  0  0  0  0
    7.0920   -1.5850   -1.0930 O   0  0  0  0  0  0  0  0  0  0  0  0
    4.3380   -1.9420   -1.8000 O   0  0  0  0  0  0  0  0  0  0  0  0
  1  2  2  0
  2  3  1  0
  2 23  1  0
  4  3  1  6
  4  5  1  0
  4 21  1  0
  5  6  1  0
  6  7  1  0
  7  8  1  0
  8  9  1  0
  8 21  1  0
  9 10  2  0
  9 11  1  0
 11 12  1  0
 11 15  1  0
 12 13  1  0
 13 14  1  6
 13 15  1  0
 15 16  1  1
 16 17  1  0
 17 18  1  0
 18 19  1  0
 18 20  1  0
 21 22  2  0
 23 24  1  0
 24 25  1  0
 24 26  1  0
M  END
