
     RDKit          3D

 27 28  0  0  0  0  0  0  0  0999 V2000
   -2.4110   -0.5650    4.0070 O   0  0  0  0  0  0  0  0  0  0  0  0
   -3.2630   -0.0240    2.8510 P   0  0  0  0  0  0  0  0  0  0  0  0
   -3.2370   -0.7060    1.1390 C   0  0  1  0  0  0  0  0  0  0  0  0
   -1.8630   -0.8870    0.6460 N   0  0  0  0  0  0  0  0  0  0  0  0
   -1.0100    0.2450    0.5540 C   0  0  0  0  0  0  0  0  0  0  0  0
   -1.4210    1.3480    1.0730 N   0  0  0  0  0  0  0  0  0  0  0  0
   -0.6810    2.5850    1.0670 C   0  0  0  0  0  0  0  0  0  0  0  0
    0.7510    2.2140    1.2570 C   0  0  0  0  0  0  0  0  0  0  0  0
    1.7730    2.7900    1.9140 N   0  0  0  0  0  0  0  0  0  0  0  0
    2.8210    2.0340    1.7490 N   0  0  0  0  0  0  0  0  0  0  0  0
    2.4860    0.9680    0.9870 C   0  0  0  0  0  0  0  0  0  0  0  0
    3.4380   -0.0700    0.6180 C   0  0  0  0  0  0  0  0  0  0  0  0
    2.9650   -1.0730   -0.2200 O   0  0  0  0  0  0  0  0  0  0  0  0
    3.8440   -2.0800   -0.5940 C   0  0  0  0  0  0  0  0  0  0  0  0
    5.0380   -2.1010   -0.1970 O   0  0  0  0  0  0  0  0  0  0  0  0
    3.4540   -3.1220   -1.4300 O   0  0  0  0  0  0  0  0  0  0  0  0
    1.1950    1.0730    0.6750 N   0  0  0  0  0  0  0  0  0  0  0  0
    0.3220    0.2320   -0.1030 C   0  0  2  0  0  0  0  0  0  0  0  0
    0.1860    0.6780   -1.4950 C   0  0  0  0  0  0  0  0  0  0  0  0
   -0.9480    0.9930   -1.9300 O   0  0  0  0  0  0  0  0  0  0  0  0
    1.2440    0.7800   -2.3850 O   0  0  0  0  0  0  0  0  0  0  0  0
    1.0290    1.2110   -3.6860 C   0  0  0  0  0  0  0  0  0  0  0  0
   -0.1410    1.5190   -4.0780 O   0  0  0  0  0  0  0  0  0  0  0  0
    2.0440    1.3340   -4.6220 O   0  0  0  0  0  0  0  0  0  0  0  0
   -4.1950   -2.2680    1.0360 P   0  0  0  0  0  0  0  0  0  0  0  0
   -5.2290   -2.4360    2.4230 O   0  0  0  0  0  0  0  0  0  0  0  0
   -5.2190   -2.3150   -0.3680 O   0  0  0  0  0  0  0  0  0  0  0  0
  1  2  2  0
  2  3  1  0
  3  4  1  1
  3 25  1  0
  4  5  1  0
  5  6  2  0
  5 18  1  0
  6  7  1  0
  7  8  1  0
  8  9  2  0
  8 17  1  0
  9 10  1  0
 10 11  2  0
 11 12  1  0
 11 17  1  0
 12 13  1  0
 13 14  1  0
 14 15  2  0
 14 16  1  0
 17 18  1  0
 18 19  1  6
 19 20  2  0
 19 21  1  0
 21 22  1  0
 22 23  2  0
 22 24  1  0
 25 26  1  0
 25 27  1  0
M  END
