
     RDKit          3D

 42 46  0  0  0  0  0  0  0  0999 V2000
   13.2920    0.0680    0.5040 C   0  0  0  0  0  0  0  0  0  0  0  0
   12.3150   -0.8240    0.5790 C   0  0  0  0  0  0  0  0  0  0  0  0
   11.2310   -0.7190    1.5590 C   0  0  0  0  0  0  0  0  0  0  0  0
    9.9750   -0.6420    0.8260 N   0  0  0  0  0  0  0  0  0  0  0  0
    9.2490   -1.7280    0.4570 C   0  0  0  0  0  0  0  0  0  0  0  0
    8.1330   -1.2660   -0.1970 C   0  0  0  0  0  0  0  0  0  0  0  0
    8.1600    0.1190   -0.2370 C   0  0  0  0  0  0  0  0  0  0  0  0
    7.1710    1.0010   -0.8550 C   0  0  0  0  0  0  0  0  0  0  0  0
    7.1580    2.3400   -0.8350 N   0  0  0  0  0  0  0  0  0  0  0  0
    6.1360    2.7760   -1.5140 O   0  0  0  0  0  0  0  0  0  0  0  0
    5.4320    1.7600   -2.0090 C   0  0  0  0  0  0  0  0  0  0  0  0
    4.2680    1.8080   -2.7970 N   0  0  0  0  0  0  0  0  0  0  0  0
    2.9580    1.6990   -2.4370 N   0  0  0  0  0  0  0  0  0  0  0  0
    2.3640    0.8010   -1.5160 C   0  0  0  0  0  0  0  0  0  0  0  0
    3.1190    0.0040   -0.9350 O   0  0  0  0  0  0  0  0  0  0  0  0
    0.9350    0.7800   -1.2430 C   0  0  0  0  0  0  0  0  0  0  0  0
    0.2360    1.5900   -1.9060 O   0  0  0  0  0  0  0  0  0  0  0  0
    0.3070   -0.0600   -0.3250 N   0  0  0  0  0  0  0  0  0  0  0  0
   -1.0840   -0.1500   -0.0370 C   0  0  0  0  0  0  0  0  0  0  0  0
   -2.0370    0.4520   -0.7980 C   0  0  0  0  0  0  0  0  0  0  0  0
   -3.4040    0.3240   -0.5540 C   0  0  0  0  0  0  0  0  0  0  0  0
   -3.8420   -0.4390    0.4960 C   0  0  0  0  0  0  0  0  0  0  0  0
   -5.2920   -0.6190    0.7490 C   0  0  2  0  0  0  0  0  0  0  0  0
   -5.7280   -1.7840   -0.0360 C   0  0  0  0  0  0  0  0  0  0  0  0
   -5.9930   -2.9770    0.6080 C   0  0  0  0  0  0  0  0  0  0  0  0
   -6.3870   -4.0660   -0.1450 C   0  0  0  0  0  0  0  0  0  0  0  0
   -6.5120   -3.9600   -1.5230 C   0  0  0  0  0  0  0  0  0  0  0  0
   -6.2430   -2.7820   -2.0980 N   0  0  0  0  0  0  0  0  0  0  0  0
   -5.8580   -1.7050   -1.3910 C   0  0  0  0  0  0  0  0  0  0  0  0
   -6.0640    0.5200    0.3960 N   0  0  0  0  0  0  0  0  0  0  0  0
   -5.7650    1.7420    1.0600 C   0  0  0  0  0  0  0  0  0  0  0  0
   -6.9930    2.4130    1.6910 C   0  0  0  0  0  0  0  0  0  0  0  0
   -7.9310    2.6920    0.5060 C   0  0  0  0  0  0  0  0  0  0  0  0
   -8.2960    1.3540   -0.0100 C   0  0  0  0  0  0  0  0  0  0  0  0
   -9.3070    1.1830   -0.8130 C   0  0  0  0  0  0  0  0  0  0  0  0
   -9.7140   -0.4100   -1.4070 Cl  0  0  0  0  0  0  0  0  0  0  0  0
   -7.4680    0.1920    0.4050 C   0  0  0  0  0  0  0  0  0  0  0  0
   -2.8970   -1.0530    1.2760 C   0  0  0  0  0  0  0  0  0  0  0  0
   -1.5380   -0.9230    1.0290 C   0  0  0  0  0  0  0  0  0  0  0  0
   -0.3420   -1.7060    2.0280 Cl  0  0  0  0  0  0  0  0  0  0  0  0
    6.0980    0.6530   -1.5840 N   0  0  0  0  0  0  0  0  0  0  0  0
    9.3260    0.4680    0.4120 C   0  0  0  0  0  0  0  0  0  0  0  0
  1  2  2  0
  2  3  1  0
  3  4  1  0
  4  5  1  0
  4 42  1  0
  5  6  2  0
  6  7  1  0
  7  8  1  0
  7 42  2  0
  8  9  2  0
  8 41  1  0
  9 10  1  0
 10 11  1  0
 11 12  1  0
 11 41  2  0
 12 13  1  0
 13 14  1  0
 14 15  2  0
 14 16  1  0
 16 17  2  0
 16 18  1  0
 18 19  1  0
 19 20  2  0
 19 39  1  0
 20 21  1  0
 21 22  2  0
 22 23  1  0
 22 38  1  0
 23 24  1  0
 23 30  1  6
 24 25  2  0
 24 29  1  0
 25 26  1  0
 26 27  2  0
 27 28  1  0
 28 29  2  0
 30 31  1  0
 30 37  1  0
 31 32  1  0
 32 33  1  0
 33 34  1  0
 34 35  2  3
 34 37  1  0
 35 36  1  0
 38 39  2  0
 39 40  1  0
M  END
