
     RDKit          3D

 42 44  0  0  0  0  0  0  0  0999 V2000
    4.2730    2.7390   -1.3070 C   0  0  0  0  0  0  0  0  0  0  0  0
    5.3160    2.6490   -0.5070 C   0  0  0  0  0  0  0  0  0  0  0  0
    5.6220    1.3340   -0.0160 C   0  0  0  0  0  0  0  0  0  0  0  0
    4.7190    0.4480    0.3600 C   0  0  0  0  0  0  0  0  0  0  0  0
    3.3250    0.7320    0.3290 C   0  0  0  0  0  0  0  0  0  0  0  0
    2.3940   -0.2310    0.5950 C   0  0  0  0  0  0  0  0  0  0  0  0
    2.9120   -1.5600    0.8960 C   0  0  0  0  0  0  0  0  0  0  0  0
    2.0270   -2.6990    0.5120 C   0  0  0  0  0  0  0  0  0  0  0  0
    0.5900   -2.3480    0.2200 C   0  0  0  0  0  0  0  0  0  0  0  0
    0.1890   -1.1920    1.0160 C   0  0  1  0  0  0  0  0  0  0  0  0
    0.5290   -1.4230    2.4940 C   0  0  0  0  0  0  0  0  0  0  0  0
    0.9790    0.0400    0.5480 C   0  0  1  0  0  0  0  0  0  0  0  0
    0.4230    1.0670    1.5010 C   0  0  0  0  0  0  0  0  0  0  0  0
   -1.0410    0.6140    1.7450 C   0  0  0  0  0  0  0  0  0  0  0  0
   -1.1640   -0.6050    0.8770 C   0  0  2  0  0  0  0  0  0  0  0  0
   -2.3960   -1.3640    0.8370 C   0  0  2  0  0  0  0  0  0  0  0  0
   -2.6190   -2.2620   -0.3310 C   0  0  0  0  0  0  0  0  0  0  0  0
   -3.8660   -2.9590   -0.2850 C   0  0  0  0  0  0  0  0  0  0  0  0
   -5.0360   -3.5910   -0.2310 C   0  0  0  0  0  0  0  0  0  0  0  0
   -6.2230   -4.2500   -0.1570 C   0  0  1  0  0  0  0  0  0  0  0  0
   -6.7690   -4.4710    1.2490 C   0  0  0  0  0  0  0  0  0  0  0  0
   -7.3320   -3.4460   -0.8740 C   0  0  0  0  0  0  0  0  0  0  0  0
   -6.1310   -5.5170   -0.7620 O   0  0  0  0  0  0  0  0  0  0  0  0
   -3.6310   -0.5470    1.1190 C   0  0  0  0  0  0  0  0  0  0  0  0
   -3.7990    0.5640    0.2090 C   0  0  0  0  0  0  0  0  0  0  0  0
   -3.9440    1.4990   -0.5310 C   0  0  0  0  0  0  0  0  0  0  0  0
   -4.1400    2.6230   -1.4330 C   0  0  2  0  0  0  0  0  0  0  0  0
   -5.4410    2.6290   -1.9530 O   0  0  0  0  0  0  0  0  0  0  0  0
   -3.1850    2.5090   -2.5950 C   0  0  1  0  0  0  0  0  0  0  0  0
   -3.3600    3.5550   -3.4500 F   0  0  0  0  0  0  0  0  0  0  0  0
   -1.8690    2.3730   -2.1680 F   0  0  0  0  0  0  0  0  0  0  0  0
   -3.5020    1.3350   -3.2490 F   0  0  0  0  0  0  0  0  0  0  0  0
   -3.9300    3.8930   -0.6220 C   0  0  1  0  0  0  0  0  0  0  0  0
   -2.6640    3.9350   -0.0910 F   0  0  0  0  0  0  0  0  0  0  0  0
   -4.2020    5.0280   -1.3910 F   0  0  0  0  0  0  0  0  0  0  0  0
   -4.8440    3.9040    0.4180 F   0  0  0  0  0  0  0  0  0  0  0  0
    7.0940    1.0000    0.0800 C   0  0  0  0  0  0  0  0  0  0  0  0
    7.8410    2.1250   -0.5850 C   0  0  1  0  0  0  0  0  0  0  0  0
    7.4850    2.1090   -1.9410 O   0  0  0  0  0  0  0  0  0  0  0  0
    7.5610    3.4380    0.0730 C   0  0  0  0  0  0  0  0  0  0  0  0
    6.1110    3.8320   -0.1500 C   0  0  2  0  0  0  0  0  0  0  0  0
    5.6400    4.5070    0.9750 O   0  0  0  0  0  0  0  0  0  0  0  0
  1  2  2  0
  2  3  1  0
  2 41  1  0
  3  4  2  3
  3 37  1  0
  4  5  1  0
  5  6  2  3
  6  7  1  0
  6 12  1  0
  7  8  1  0
  8  9  1  0
  9 10  1  0
 10 11  1  1
 10 12  1  0
 10 15  1  0
 12 13  1  1
 13 14  1  0
 15 14  1  1
 15 16  1  0
 16 17  1  6
 16 24  1  0
 17 18  1  0
 18 19  3  0
 19 20  1  0
 20 21  1  1
 20 22  1  0
 20 23  1  0
 24 25  1  0
 25 26  3  0
 26 27  1  0
 27 28  1  6
 27 29  1  0
 27 33  1  0
 29 30  1  6
 29 31  1  0
 29 32  1  0
 33 34  1  1
 33 35  1  0
 33 36  1  0
 37 38  1  0
 38 39  1  6
 38 40  1  0
 40 41  1  0
 41 42  1  1
M  END
