
     RDKit          3D

 42 46  0  0  0  0  0  0  0  0999 V2000
   -7.3260   -0.4840    2.1770 C   0  0  0  0  0  0  0  0  0  0  0  0
   -5.8350   -0.1850    2.2480 C   0  0  1  0  0  0  0  0  0  0  0  0
   -5.3640   -0.1880    3.6880 C   0  0  0  0  0  0  0  0  0  0  0  0
   -3.9290    0.2590    3.7330 C   0  0  0  0  0  0  0  0  0  0  0  0
   -3.1170   -0.7760    2.9540 C   0  0  0  0  0  0  0  0  0  0  0  0
   -3.6580   -0.9770    1.6390 N   0  0  0  0  0  0  0  0  0  0  0  0
   -2.8190   -0.9190    0.5080 C   0  0  0  0  0  0  0  0  0  0  0  0
   -1.4870   -0.6950    0.6670 N   0  0  0  0  0  0  0  0  0  0  0  0
   -0.6240   -0.6270   -0.3520 C   0  0  0  0  0  0  0  0  0  0  0  0
    0.7520   -0.4010   -0.2260 N   0  0  0  0  0  0  0  0  0  0  0  0
    1.3230    0.7250   -0.1200 C   0  0  0  0  0  0  0  0  0  0  0  0
    2.7160    1.0290    0.0120 C   0  0  0  0  0  0  0  0  0  0  0  0
    3.6500    0.1170    0.0440 C   0  0  0  0  0  0  0  0  0  0  0  0
    3.5370   -1.2970   -0.0360 C   0  0  0  0  0  0  0  0  0  0  0  0
    4.5370   -2.1210    0.0060 C   0  0  0  0  0  0  0  0  0  0  0  0
    5.9660   -1.7950    0.1420 C   0  0  1  0  0  0  0  0  0  0  0  0
    6.6510   -2.5780    1.6090 Cl  0  0  0  0  0  0  0  0  0  0  0  0
    6.8960   -2.4490   -1.2320 Cl  0  0  0  0  0  0  0  0  0  0  0  0
    4.2470   -3.5380   -0.0920 N   0  0  0  0  0  0  0  0  0  0  0  0
    4.4440   -4.4320    1.0150 C   0  0  0  0  0  0  0  0  0  0  0  0
    3.7520   -4.0200   -1.3510 C   0  0  0  0  0  0  0  0  0  0  0  0
    3.1000    2.4600    0.1180 C   0  0  0  0  0  0  0  0  0  0  0  0
    2.2850    3.5290    0.0990 N   0  0  0  0  0  0  0  0  0  0  0  0
    3.0000    4.6610    0.2190 C   0  0  0  0  0  0  0  0  0  0  0  0
    2.7150    6.0080    0.2620 C   0  0  0  0  0  0  0  0  0  0  0  0
    3.6960    6.9680    0.3960 C   0  0  0  0  0  0  0  0  0  0  0  0
    5.0240    6.5490    0.4930 C   0  0  0  0  0  0  0  0  0  0  0  0
    5.2920    5.1970    0.4490 C   0  0  0  0  0  0  0  0  0  0  0  0
    6.6570    4.7480    0.5470 N   0  0  0  0  0  0  0  0  0  0  0  0
    4.3140    4.2330    0.3140 C   0  0  0  0  0  0  0  0  0  0  0  0
    4.3150    2.9240    0.2480 O   0  0  0  0  0  0  0  0  0  0  0  0
   -1.1150   -0.7930   -1.6050 N   0  0  0  0  0  0  0  0  0  0  0  0
   -2.4160   -1.0160   -1.8190 C   0  0  0  0  0  0  0  0  0  0  0  0
   -2.8790   -1.1880   -3.1930 C   0  0  0  0  0  0  0  0  0  0  0  0
   -2.0560   -1.1280   -4.2020 C   0  0  0  0  0  0  0  0  0  0  0  0
   -2.5450   -1.3050   -5.5870 C   0  0  0  0  0  0  0  0  0  0  0  0
   -3.9170   -1.5360   -5.7040 O   0  0  0  0  0  0  0  0  0  0  0  0
   -4.7590   -1.5940   -4.6290 C   0  0  0  0  0  0  0  0  0  0  0  0
   -4.2880   -1.4310   -3.4140 C   0  0  0  0  0  0  0  0  0  0  0  0
   -5.1850   -1.4970   -2.3260 O   0  0  0  0  0  0  0  0  0  0  0  0
   -3.2370   -1.0740   -0.7620 N   0  0  0  0  0  0  0  0  0  0  0  0
   -5.0580   -1.2420    1.4750 C   0  0  0  0  0  0  0  0  0  0  0  0
  2  1  1  1
  2  3  1  0
  2 42  1  0
  3  4  1  0
  4  5  1  0
  5  6  1  0
  6  7  1  0
  6 42  1  0
  7  8  2  0
  7 41  1  0
  8  9  1  0
  9 10  1  0
  9 32  2  0
 10 11  2  3
 11 12  1  0
 12 13  2  3
 12 22  1  0
 13 14  1  0
 14 15  2  3
 15 16  1  0
 15 19  1  0
 16 17  1  1
 16 18  1  0
 19 20  1  0
 19 21  1  0
 22 23  2  0
 22 31  1  0
 23 24  1  0
 24 25  2  0
 24 30  1  0
 25 26  1  0
 26 27  2  0
 27 28  1  0
 28 29  1  0
 28 30  2  0
 30 31  1  0
 32 33  1  0
 33 34  1  0
 33 41  2  0
 34 35  2  0
 34 39  1  0
 35 36  1  0
 36 37  1  0
 37 38  1  0
 38 39  2  0
 39 40  1  0
M  END
