
     RDKit          3D

 42 46  0  0  0  0  0  0  0  0999 V2000
   -3.5100   -0.1700    4.6260 C   0  0  0  0  0  0  0  0  0  0  0  0
   -4.9830   -0.2150    4.5110 C   0  0  0  0  0  0  0  0  0  0  0  0
   -5.5610   -0.1180    3.3370 C   0  0  0  0  0  0  0  0  0  0  0  0
   -7.0380   -0.1660    3.2550 C   0  0  0  0  0  0  0  0  0  0  0  0
   -4.7990    0.0360    2.1500 N   0  0  0  0  0  0  0  0  0  0  0  0
   -3.4830    0.1210    2.0050 N   0  0  0  0  0  0  0  0  0  0  0  0
   -3.1520    0.2610    0.7130 C   0  0  0  0  0  0  0  0  0  0  0  0
   -1.8170    0.3920    0.1520 C   0  0  0  0  0  0  0  0  0  0  0  0
   -1.6600    0.4760   -1.1090 O   0  0  0  0  0  0  0  0  0  0  0  0
   -0.6490    0.4340    0.9360 N   0  0  0  0  0  0  0  0  0  0  0  0
    0.6820    0.5670    0.3330 C   0  0  2  0  0  0  0  0  0  0  0  0
    1.5010   -0.5800    0.7990 C   0  0  0  0  0  0  0  0  0  0  0  0
    2.8890   -0.5800    0.2550 C   0  0  0  0  0  0  0  0  0  0  0  0
    3.1510    0.3550   -0.5380 O   0  0  0  0  0  0  0  0  0  0  0  0
    3.8180   -1.5750    0.6240 N   0  0  0  0  0  0  0  0  0  0  0  0
    5.1360   -1.6220    0.1350 C   0  0  0  0  0  0  0  0  0  0  0  0
    5.6620   -0.8960   -0.8990 C   0  0  0  0  0  0  0  0  0  0  0  0
    7.0040   -1.0170   -1.2890 C   0  0  0  0  0  0  0  0  0  0  0  0
    7.8430   -1.8820   -0.6350 C   0  0  0  0  0  0  0  0  0  0  0  0
    9.2510   -1.9970   -1.0570 C   0  0  1  0  0  0  0  0  0  0  0  0
    9.7930   -1.2160   -2.2110 C   0  0  0  0  0  0  0  0  0  0  0  0
   10.2450   -0.9340   -0.7430 C   0  0  0  0  0  0  0  0  0  0  0  0
    7.3390   -2.6340    0.4180 C   0  0  0  0  0  0  0  0  0  0  0  0
    8.4260   -3.7290    1.2370 Cl  0  0  0  0  0  0  0  0  0  0  0  0
    6.0390   -2.4940    0.7720 C   0  0  0  0  0  0  0  0  0  0  0  0
    1.1840    1.8800    0.7450 C   0  0  0  0  0  0  0  0  0  0  0  0
    0.4820    3.0180    0.7140 N   0  0  0  0  0  0  0  0  0  0  0  0
    1.2490    4.0100    1.1590 C   0  0  0  0  0  0  0  0  0  0  0  0
    0.8810    5.7160    1.3470 Cl  0  0  0  0  0  0  0  0  0  0  0  0
    2.4300    3.4260    1.4560 N   0  0  0  0  0  0  0  0  0  0  0  0
    2.3670    2.1600    1.2020 O   0  0  0  0  0  0  0  0  0  0  0  0
   -4.2930    0.2650    0.0100 N   0  0  0  0  0  0  0  0  0  0  0  0
   -4.3590    0.4000   -1.4000 C   0  0  0  0  0  0  0  0  0  0  0  0
   -4.5800   -0.6670   -2.2460 C   0  0  0  0  0  0  0  0  0  0  0  0
   -4.6480   -0.5660   -3.6140 C   0  0  0  0  0  0  0  0  0  0  0  0
   -4.8910   -1.7540   -4.5040 C   0  0  0  0  0  0  0  0  0  0  0  0
   -4.4860    0.6730   -4.1850 C   0  0  0  0  0  0  0  0  0  0  0  0
   -4.2620    1.7670   -3.3790 C   0  0  0  0  0  0  0  0  0  0  0  0
   -4.1960    1.6540   -2.0060 C   0  0  0  0  0  0  0  0  0  0  0  0
   -3.9590    2.8070   -1.1110 C   0  0  0  0  0  0  0  0  0  0  0  0
   -5.2910    0.1290    0.8810 C   0  0  0  0  0  0  0  0  0  0  0  0
   -6.5380    0.0890    0.5920 N   0  0  0  0  0  0  0  0  0  0  0  0
  1  2  1  0
  2  3  2  3
  3  4  1  0
  3  5  1  0
  5  6  1  0
  5 41  1  0
  6  7  2  0
  7  8  1  0
  7 32  1  0
  8  9  2  0
  8 10  1  0
 10 11  1  0
 11 12  1  1
 11 26  1  0
 12 13  1  0
 13 14  2  0
 13 15  1  0
 15 16  1  0
 16 17  2  0
 16 25  1  0
 17 18  1  0
 18 19  2  0
 20 19  1  1
 19 23  1  0
 20 21  1  0
 20 22  1  0
 21 22  1  0
 23 24  1  0
 23 25  2  0
 26 27  2  0
 26 31  1  0
 27 28  1  0
 28 29  1  0
 28 30  2  0
 30 31  1  0
 32 33  1  0
 32 41  1  0
 33 34  2  0
 33 39  1  0
 34 35  1  0
 35 36  1  0
 35 37  2  0
 37 38  1  0
 38 39  2  0
 39 40  1  0
 41 42  2  0
M  END
