
     RDKit          3D

 42 45  0  0  0  0  0  0  0  0999 V2000
    9.9580    4.0390    0.3430 C   0  0  0  0  0  0  0  0  0  0  0  0
   10.0950    2.8430   -0.3610 O   0  0  0  0  0  0  0  0  0  0  0  0
    9.9360    1.5730    0.2220 C   0  0  0  0  0  0  0  0  0  0  0  0
    9.6560    1.5700    1.4490 O   0  0  0  0  0  0  0  0  0  0  0  0
   10.1000    0.4020   -0.5900 C   0  0  0  0  0  0  0  0  0  0  0  0
    8.9280   -0.4260   -0.9290 C   0  0  0  0  0  0  0  0  0  0  0  0
    7.6670   -0.2170   -0.7190 C   0  0  0  0  0  0  0  0  0  0  0  0
    6.9640    0.8930   -0.0900 C   0  0  0  0  0  0  0  0  0  0  0  0
    5.7050    1.3450   -0.7630 C   0  0  0  0  0  0  0  0  0  0  0  0
    4.5270    0.5060   -0.7980 C   0  0  0  0  0  0  0  0  0  0  0  0
    3.8330    0.1910    0.5220 C   0  0  2  0  0  0  0  0  0  0  0  0
    3.3740    1.5020    1.1510 C   0  0  0  0  0  0  0  0  0  0  0  0
    4.6780   -0.5510    1.4990 C   0  0  0  0  0  0  0  0  0  0  0  0
    2.6560   -0.6550    0.1320 C   0  0  0  0  0  0  0  0  0  0  0  0
    1.7650   -1.1970    1.1530 C   0  0  1  0  0  0  0  0  0  0  0  0
    1.0650   -0.2010    1.9920 C   0  0  0  0  0  0  0  0  0  0  0  0
   -0.3210   -0.7850    2.2340 C   0  0  0  0  0  0  0  0  0  0  0  0
   -1.0790   -0.3330    3.1270 O   0  0  0  0  0  0  0  0  0  0  0  0
   -0.5180   -1.8320    1.3150 N   0  0  0  0  0  0  0  0  0  0  0  0
   -1.6820   -2.6960    1.3550 C   0  0  0  0  0  0  0  0  0  0  0  0
   -2.8420   -2.1660    0.5340 C   0  0  0  0  0  0  0  0  0  0  0  0
   -3.2760   -0.9480    0.9460 O   0  0  0  0  0  0  0  0  0  0  0  0
   -4.3400   -0.4270    0.2490 C   0  0  0  0  0  0  0  0  0  0  0  0
   -5.5810   -1.2030    0.3840 C   0  0  0  0  0  0  0  0  0  0  0  0
   -5.6490   -2.2090    1.1200 O   0  0  0  0  0  0  0  0  0  0  0  0
   -6.7480   -0.8270   -0.3230 N   0  0  0  0  0  0  0  0  0  0  0  0
   -6.7280    0.3250   -1.1880 C   0  0  0  0  0  0  0  0  0  0  0  0
   -8.1180    0.5040   -1.7490 C   0  0  0  0  0  0  0  0  0  0  0  0
   -9.0860    0.6620   -0.5760 C   0  0  1  0  0  0  0  0  0  0  0  0
   -8.6790    1.7200    0.2310 O   0  0  0  0  0  0  0  0  0  0  0  0
  -10.4380    0.9710   -1.1340 C   0  0  1  0  0  0  0  0  0  0  0  0
  -11.5810    1.1760   -0.1730 C   0  0  0  0  0  0  0  0  0  0  0  0
  -10.9460    2.3580   -0.9150 C   0  0  0  0  0  0  0  0  0  0  0  0
   -9.0800   -0.6090    0.2480 C   0  0  1  0  0  0  0  0  0  0  0  0
  -10.3160   -1.2250    0.0980 O   0  0  0  0  0  0  0  0  0  0  0  0
   -8.0000   -1.5700   -0.2070 C   0  0  0  0  0  0  0  0  0  0  0  0
    0.5910   -1.8460    0.4290 C   0  0  0  0  0  0  0  0  0  0  0  0
    0.5630   -2.3190   -0.7300 O   0  0  0  0  0  0  0  0  0  0  0  0
    6.7520   -1.6130   -1.4310 S   0  0  0  0  0  0  0  0  0  0  0  0
    8.2050   -2.7460   -1.3430 C   0  0  0  0  0  0  0  0  0  0  0  0
    9.2110   -1.6960   -1.6350 C   0  0  0  0  0  0  0  0  0  0  0  0
   10.1850   -1.9470   -2.4240 O   0  0  0  0  0  0  0  0  0  0  0  0
  1  2  1  0
  2  3  1  0
  3  4  2  0
  3  5  1  0
  5  6  1  0
  6  7  2  0
  6 41  1  0
  7  8  1  0
  7 39  1  0
  8  9  1  0
  9 10  1  0
 10 11  1  0
 11 12  1  1
 11 13  1  0
 11 14  1  0
 15 14  1  6
 15 16  1  0
 15 37  1  0
 16 17  1  0
 17 18  2  0
 17 19  1  0
 19 20  1  0
 19 37  1  0
 20 21  1  0
 21 22  1  0
 22 23  1  0
 23 24  1  0
 24 25  2  0
 24 26  1  0
 26 27  1  0
 26 36  1  0
 27 28  1  0
 28 29  1  0
 29 30  1  1
 29 31  1  0
 29 34  1  0
 31 32  1  1
 31 33  1  0
 32 33  1  0
 34 35  1  6
 34 36  1  0
 37 38  2  0
 39 40  1  0
 40 41  1  0
 41 42  2  0
M  END
