
     RDKit          3D

 42 45  0  0  0  0  0  0  0  0999 V2000
   11.0350    1.0520    0.9530 C   0  0  0  0  0  0  0  0  0  0  0  0
   10.1470   -0.1550    1.0710 C   0  0  0  0  0  0  0  0  0  0  0  0
    9.2590   -0.2030   -0.1840 C   0  0  2  0  0  0  0  0  0  0  0  0
   10.1540   -0.3060   -1.4010 C   0  0  0  0  0  0  0  0  0  0  0  0
    8.5260    1.0330   -0.1790 N   0  0  0  0  0  0  0  0  0  0  0  0
    7.2210    1.0720   -0.0770 C   0  0  0  0  0  0  0  0  0  0  0  0
    6.1400    2.4480   -0.0500 S   0  0  0  0  0  0  0  0  0  0  0  0
    4.5740    1.4920    0.1160 C   0  0  0  0  0  0  0  0  0  0  0  0
    3.3280    2.1610    0.2330 C   0  0  0  0  0  0  0  0  0  0  0  0
    3.4240    3.4750    0.3840 O   0  0  0  0  0  0  0  0  0  0  0  0
    1.9880    1.7010    0.2200 C   0  0  0  0  0  0  0  0  0  0  0  0
    1.6320    0.4930   -0.4090 O   0  0  0  0  0  0  0  0  0  0  0  0
    0.2770    0.0970   -0.3410 C   0  0  0  0  0  0  0  0  0  0  0  0
   -0.4570    0.8590    0.2910 O   0  0  0  0  0  0  0  0  0  0  0  0
   -0.1980   -1.1070   -0.9680 C   0  0  0  0  0  0  0  0  0  0  0  0
    0.7070   -1.8420   -1.7730 C   0  0  0  0  0  0  0  0  0  0  0  0
    0.3400   -2.9580   -2.4780 C   0  0  0  0  0  0  0  0  0  0  0  0
   -0.9680   -3.3560   -2.3810 C   0  0  0  0  0  0  0  0  0  0  0  0
   -1.8990   -2.6740   -1.6050 C   0  0  0  0  0  0  0  0  0  0  0  0
   -1.4990   -1.5360   -0.8920 C   0  0  0  0  0  0  0  0  0  0  0  0
   -2.4160   -0.9040   -0.0320 N   0  0  0  0  0  0  0  0  0  0  0  0
   -3.8410   -1.0030   -0.0740 C   0  0  0  0  0  0  0  0  0  0  0  0
   -4.3760   -1.6910   -0.9550 O   0  0  0  0  0  0  0  0  0  0  0  0
   -4.7470   -0.3280    0.8900 C   0  0  1  0  0  0  0  0  0  0  0  0
   -4.4940    1.1020    1.2010 C   0  0  2  0  0  0  0  0  0  0  0  0
   -3.9580    1.3350    2.4750 O   0  0  0  0  0  0  0  0  0  0  0  0
   -3.0380    2.3430    2.5110 C   0  0  0  0  0  0  0  0  0  0  0  0
   -6.0180    1.2860    1.2970 C   0  0  0  0  0  0  0  0  0  0  0  0
   -6.1130    0.0360    0.3910 C   0  0  1  0  0  0  0  0  0  0  0  0
   -6.2500    0.4710   -1.0250 C   0  0  0  0  0  0  0  0  0  0  0  0
   -7.6680    0.8120   -1.3740 C   0  0  0  0  0  0  0  0  0  0  0  0
   -8.4500   -0.1210   -1.6550 O   0  0  0  0  0  0  0  0  0  0  0  0
   -8.1450    2.1020   -1.3980 O   0  0  0  0  0  0  0  0  0  0  0  0
   -9.4970    2.3210   -1.7390 C   0  0  0  0  0  0  0  0  0  0  0  0
   -7.1580   -0.9280    0.8970 C   0  0  1  0  0  0  0  0  0  0  0  0
   -6.9690   -2.3490    0.5040 C   0  0  0  0  0  0  0  0  0  0  0  0
   -7.1870   -0.9130    2.3150 O   0  0  0  0  0  0  0  0  0  0  0  0
    5.0600    0.2310    0.1350 C   0  0  0  0  0  0  0  0  0  0  0  0
    4.0490   -0.9140    0.3360 C   0  0  0  0  0  0  0  0  0  0  0  0
    6.3960    0.0220    0.0360 C   0  0  0  0  0  0  0  0  0  0  0  0
    7.0230   -1.1900    0.0410 C   0  0  0  0  0  0  0  0  0  0  0  0
    8.3830   -1.2710   -0.0630 O   0  0  0  0  0  0  0  0  0  0  0  0
  1  2  1  0
  2  3  1  0
  3  4  1  6
  3  5  1  0
  3 42  1  0
  5  6  2  0
  6  7  1  0
  6 40  1  0
  7  8  1  0
  8  9  1  0
  8 38  2  0
  9 10  2  0
  9 11  1  0
 11 12  1  0
 12 13  1  0
 13 14  2  0
 13 15  1  0
 15 16  2  0
 15 20  1  0
 16 17  1  0
 17 18  2  0
 18 19  1  0
 19 20  2  0
 20 21  1  0
 21 22  1  0
 22 23  2  0
 24 22  1  6
 24 25  1  0
 24 29  1  0
 25 26  1  1
 25 28  1  0
 26 27  1  0
 28 29  1  0
 29 30  1  6
 29 35  1  0
 30 31  1  0
 31 32  2  0
 31 33  1  0
 33 34  1  0
 35 36  1  1
 35 37  1  0
 38 39  1  0
 38 40  1  0
 40 41  2  0
 41 42  1  0
M  END
