
     RDKit          3D

 42 46  0  0  0  0  0  0  0  0999 V2000
    9.5160   -2.8190    0.2930 C   0  0  0  0  0  0  0  0  0  0  0  0
    8.3980   -1.9220   -0.2170 C   0  0  0  0  0  0  0  0  0  0  0  0
    8.4730   -0.6170    0.0480 C   0  0  0  0  0  0  0  0  0  0  0  0
    7.4460    0.2770   -0.4140 C   0  0  0  0  0  0  0  0  0  0  0  0
    6.4070   -0.0470   -1.2570 C   0  0  0  0  0  0  0  0  0  0  0  0
    6.2810   -1.6650   -1.8990 Cl  0  0  0  0  0  0  0  0  0  0  0  0
    5.4820    0.8840   -1.6370 N   0  0  0  0  0  0  0  0  0  0  0  0
    5.5150    2.1480   -1.2330 C   0  0  0  0  0  0  0  0  0  0  0  0
    4.5100    3.1740   -1.6400 C   0  0  0  0  0  0  0  0  0  0  0  0
    3.3650    3.2600   -0.6810 C   0  0  0  0  0  0  0  0  0  0  0  0
    2.5740    1.9860   -0.5690 C   0  0  0  0  0  0  0  0  0  0  0  0
    2.9100    1.0530   -1.3240 O   0  0  0  0  0  0  0  0  0  0  0  0
    1.5170    1.9000    0.3580 N   0  0  0  0  0  0  0  0  0  0  0  0
    0.7240    0.7760    0.5380 C   0  0  0  0  0  0  0  0  0  0  0  0
    0.7120   -0.3380   -0.2440 C   0  0  0  0  0  0  0  0  0  0  0  0
   -0.1250   -1.4380    0.0220 C   0  0  0  0  0  0  0  0  0  0  0  0
   -0.9610   -1.4030    1.0980 C   0  0  0  0  0  0  0  0  0  0  0  0
   -1.8420   -2.5410    1.3930 C   0  0  0  0  0  0  0  0  0  0  0  0
   -2.9220   -2.5140    0.4370 N   0  0  0  0  0  0  0  0  0  0  0  0
   -3.9750   -1.5800    0.5820 C   0  0  0  0  0  0  0  0  0  0  0  0
   -3.9840   -0.7740    1.5330 O   0  0  0  0  0  0  0  0  0  0  0  0
   -5.0690   -1.5010   -0.3290 N   0  0  0  0  0  0  0  0  0  0  0  0
   -6.1180   -0.5630   -0.1790 C   0  0  0  0  0  0  0  0  0  0  0  0
   -6.2790    0.3750    0.7880 N   0  0  0  0  0  0  0  0  0  0  0  0
   -7.4010    1.0260    0.5280 N   0  0  0  0  0  0  0  0  0  0  0  0
   -7.9460    0.5110   -0.5880 C   0  0  0  0  0  0  0  0  0  0  0  0
   -9.2310    0.9670   -1.2300 C   0  0  0  0  0  0  0  0  0  0  0  0
  -10.3350    0.2040   -0.6430 C   0  0  0  0  0  0  0  0  0  0  0  0
  -10.9730    0.6940    0.4750 C   0  0  0  0  0  0  0  0  0  0  0  0
  -12.0030   -0.0120    1.0290 C   0  0  0  0  0  0  0  0  0  0  0  0
  -12.3960   -1.1720    0.4960 N   0  0  0  0  0  0  0  0  0  0  0  0
  -11.8120   -1.7030   -0.5970 C   0  0  0  0  0  0  0  0  0  0  0  0
  -10.7610   -0.9940   -1.1710 C   0  0  0  0  0  0  0  0  0  0  0  0
   -7.1440   -0.4400   -0.9790 O   0  0  0  0  0  0  0  0  0  0  0  0
   -0.9690   -0.2960    1.9000 C   0  0  0  0  0  0  0  0  0  0  0  0
   -0.1500    0.7780    1.6380 C   0  0  0  0  0  0  0  0  0  0  0  0
    6.5220    2.4960   -0.4100 N   0  0  0  0  0  0  0  0  0  0  0  0
    7.4660    1.6090   -0.0030 C   0  0  0  0  0  0  0  0  0  0  0  0
    8.5470    2.0390    0.8680 C   0  0  0  0  0  0  0  0  0  0  0  0
    9.5070    1.2500    1.2720 C   0  0  0  0  0  0  0  0  0  0  0  0
    9.6290   -0.1570    0.8970 C   0  0  1  0  0  0  0  0  0  0  0  0
    9.5340   -1.0960    2.4270 Cl  0  0  0  0  0  0  0  0  0  0  0  0
  1  2  1  0
  2  3  2  3
  3  4  1  0
  3 41  1  0
  4  5  2  0
  4 38  1  0
  5  6  1  0
  5  7  1  0
  7  8  2  0
  8  9  1  0
  8 37  1  0
  9 10  1  0
 10 11  1  0
 11 12  2  0
 11 13  1  0
 13 14  1  0
 14 15  2  0
 14 36  1  0
 15 16  1  0
 16 17  2  0
 17 18  1  0
 17 35  1  0
 18 19  1  0
 19 20  1  0
 20 21  2  0
 20 22  1  0
 22 23  1  0
 23 24  2  0
 23 34  1  0
 24 25  1  0
 25 26  2  0
 26 27  1  0
 26 34  1  0
 27 28  1  0
 28 29  2  0
 28 33  1  0
 29 30  1  0
 30 31  2  0
 31 32  1  0
 32 33  2  0
 35 36  2  0
 37 38  2  0
 38 39  1  0
 39 40  2  0
 40 41  1  0
 41 42  1  1
M  END
