
     RDKit          3D

 42 46  0  0  0  0  0  0  0  0999 V2000
   -5.9530    4.2570    1.3740 C   0  0  0  0  0  0  0  0  0  0  0  0
   -5.4090    3.1880    0.8100 C   0  0  0  0  0  0  0  0  0  0  0  0
   -4.2550    3.1630   -0.0790 C   0  0  0  0  0  0  0  0  0  0  0  0
   -4.0920    1.9220   -0.5600 C   0  0  0  0  0  0  0  0  0  0  0  0
   -3.0340    1.5240   -1.4820 C   0  0  1  0  0  0  0  0  0  0  0  0
   -2.1610    0.4770   -0.8390 C   0  0  0  0  0  0  0  0  0  0  0  0
   -1.5360   -0.4300   -1.5570 C   0  0  0  0  0  0  0  0  0  0  0  0
   -0.6860   -1.4440   -0.8940 C   0  0  0  0  0  0  0  0  0  0  0  0
   -1.1530   -1.6680    0.5200 C   0  0  1  0  0  0  0  0  0  0  0  0
   -0.1620   -2.5200    1.2620 C   0  0  0  0  0  0  0  0  0  0  0  0
    0.0350   -3.6640    0.7810 O   0  0  0  0  0  0  0  0  0  0  0  0
    0.5090   -2.0600    2.4260 N   0  0  0  0  0  0  0  0  0  0  0  0
    1.4410   -2.9500    3.0580 C   0  0  0  0  0  0  0  0  0  0  0  0
    2.0970   -2.3820    4.2620 C   0  0  0  0  0  0  0  0  0  0  0  0
    2.9100   -1.1520    4.0650 C   0  0  0  0  0  0  0  0  0  0  0  0
    4.0480   -1.2840    3.1440 C   0  0  0  0  0  0  0  0  0  0  0  0
    5.2410   -1.9600    3.4540 C   0  0  0  0  0  0  0  0  0  0  0  0
    5.5400   -2.6520    4.7360 C   0  0  0  0  0  0  0  0  0  0  0  0
    5.9970   -1.8220    2.3520 N   0  0  0  0  0  0  0  0  0  0  0  0
    5.3660   -1.1400    1.4430 O   0  0  0  0  0  0  0  0  0  0  0  0
    4.1830   -0.7890    1.8700 C   0  0  0  0  0  0  0  0  0  0  0  0
    3.2040   -0.0020    1.0820 C   0  0  0  0  0  0  0  0  0  0  0  0
    3.6930    0.3360   -0.1930 O   0  0  0  0  0  0  0  0  0  0  0  0
    4.8060    1.0680   -0.4760 C   0  0  0  0  0  0  0  0  0  0  0  0
    5.4960    1.5070    0.4770 O   0  0  0  0  0  0  0  0  0  0  0  0
    5.2160    1.3570   -1.8740 C   0  0  0  0  0  0  0  0  0  0  0  0
    4.6700    1.0200   -3.0270 C   0  0  0  0  0  0  0  0  0  0  0  0
    5.2420    1.4080   -4.1860 C   0  0  0  0  0  0  0  0  0  0  0  0
    6.3910    2.1510   -4.1050 C   0  0  0  0  0  0  0  0  0  0  0  0
    6.6090    2.2650   -2.3120 S   0  0  0  0  0  0  0  0  0  0  0  0
   -1.2340   -0.4390    1.2270 O   0  0  0  0  0  0  0  0  0  0  0  0
   -2.0440    0.5300    0.6330 C   0  0  0  0  0  0  0  0  0  0  0  0
   -2.6450    1.3980    1.2790 O   0  0  0  0  0  0  0  0  0  0  0  0
   -1.6610   -0.4570   -2.9740 O   0  0  0  0  0  0  0  0  0  0  0  0
   -2.1310    0.7380   -3.5750 C   0  0  1  0  0  0  0  0  0  0  0  0
   -2.4150    0.5910   -5.0260 C   0  0  0  0  0  0  0  0  0  0  0  0
   -3.4530    1.0300   -2.8230 C   0  0  1  0  0  0  0  0  0  0  0  0
   -4.2710   -0.1730   -2.8800 C   0  0  0  0  0  0  0  0  0  0  0  0
   -5.6730   -0.3170   -2.4220 C   0  0  0  0  0  0  0  0  0  0  0  0
   -3.7970   -1.2360   -3.3580 O   0  0  0  0  0  0  0  0  0  0  0  0
   -5.0760    1.1220   -0.0340 O   0  0  0  0  0  0  0  0  0  0  0  0
   -5.8320    1.7760    0.9370 C   0  0  0  0  0  0  0  0  0  0  0  0
  1  2  2  0
  2  3  1  0
  2 42  1  0
  3  4  2  0
  5  4  1  1
  4 41  1  0
  5  6  1  0
  5 37  1  0
  6  7  2  0
  6 32  1  0
  7  8  1  0
  7 34  1  0
  8  9  1  0
  9 10  1  1
  9 31  1  0
 10 11  2  0
 10 12  1  0
 12 13  1  0
 13 14  1  0
 14 15  1  0
 15 16  1  0
 16 17  1  0
 16 21  2  0
 17 18  1  0
 17 19  2  0
 19 20  1  0
 20 21  1  0
 21 22  1  0
 22 23  1  0
 23 24  1  0
 24 25  2  0
 24 26  1  0
 26 27  2  0
 26 30  1  0
 27 28  1  0
 28 29  2  0
 29 30  1  0
 31 32  1  0
 32 33  2  0
 34 35  1  0
 35 36  1  6
 35 37  1  0
 37 38  1  1
 38 39  1  0
 38 40  2  0
 41 42  1  0
M  END
