
     RDKit          3D

 33 36  0  0  0  0  0  0  0  0999 V2000
   -9.2110    1.5750   -0.3270 N   0  0  0  0  0  0  0  0  0  0  0  0
   -7.9350    1.7760   -0.8920 C   0  0  0  0  0  0  0  0  0  0  0  0
   -7.5780    2.9350   -1.2020 O   0  0  0  0  0  0  0  0  0  0  0  0
   -7.0240    0.6470   -1.1190 C   0  0  2  0  0  0  0  0  0  0  0  0
   -7.7670   -0.6070   -0.8730 N   0  0  0  0  0  0  0  0  0  0  0  0
   -5.9220    0.6440   -0.1180 C   0  0  0  0  0  0  0  0  0  0  0  0
   -5.6020    1.7300    0.6580 C   0  0  0  0  0  0  0  0  0  0  0  0
   -4.5860    1.7100    1.5780 C   0  0  0  0  0  0  0  0  0  0  0  0
   -3.8640    0.5150    1.7050 C   0  0  0  0  0  0  0  0  0  0  0  0
   -4.1610   -0.5850    0.9420 C   0  0  0  0  0  0  0  0  0  0  0  0
   -5.1970   -0.5320    0.0190 C   0  0  0  0  0  0  0  0  0  0  0  0
   -3.3970   -1.7710    1.1160 N   0  0  0  0  0  0  0  0  0  0  0  0
   -2.3410   -1.8290    2.0610 C   0  0  0  0  0  0  0  0  0  0  0  0
   -1.8670   -2.9650    2.3880 O   0  0  0  0  0  0  0  0  0  0  0  0
   -1.8440   -0.5690    2.6190 C   0  0  1  0  0  0  0  0  0  0  0  0
   -0.6420    0.0110    1.9140 C   0  0  0  0  0  0  0  0  0  0  0  0
    0.5600   -0.9070    1.9220 C   0  0  0  0  0  0  0  0  0  0  0  0
    0.3410   -2.0900    1.2610 O   0  0  0  0  0  0  0  0  0  0  0  0
    0.1060   -1.9970   -0.0860 C   0  0  0  0  0  0  0  0  0  0  0  0
    1.2530   -1.4240   -0.8490 C   0  0  0  0  0  0  0  0  0  0  0  0
    2.4840   -1.0970   -0.4310 N   0  0  0  0  0  0  0  0  0  0  0  0
    3.1880   -0.6130   -1.4680 C   0  0  0  0  0  0  0  0  0  0  0  0
    4.6190   -0.1270   -1.4350 C   0  0  2  0  0  0  0  0  0  0  0  0
    5.4680   -1.2590   -0.9970 C   0  0  0  0  0  0  0  0  0  0  0  0
    6.7000   -0.9390   -0.2350 C   0  0  0  0  0  0  0  0  0  0  0  0
    6.7550    0.4260    0.3750 C   0  0  0  0  0  0  0  0  0  0  0  0
    6.1430    1.4350   -0.4690 N   0  0  0  0  0  0  0  0  0  0  0  0
    6.8350    1.5000   -1.7210 C   0  0  0  0  0  0  0  0  0  0  0  0
    8.2280    1.8560   -1.4390 N   0  0  0  0  0  0  0  0  0  0  0  0
    4.7480    1.0830   -0.5720 C   0  0  0  0  0  0  0  0  0  0  0  0
    2.3580   -0.6550   -2.5170 N   0  0  0  0  0  0  0  0  0  0  0  0
    1.2050   -1.1430   -2.1250 O   0  0  0  0  0  0  0  0  0  0  0  0
   -2.8350    0.4460    2.6150 O   0  0  0  0  0  0  0  0  0  0  0  0
  1  2  1  0
  2  3  2  0
  2  4  1  0
  4  5  1  1
  4  6  1  0
  6  7  2  0
  6 11  1  0
  7  8  1  0
  8  9  2  0
  9 10  1  0
  9 33  1  0
 10 11  2  0
 10 12  1  0
 12 13  1  0
 13 14  2  0
 13 15  1  0
 15 16  1  6
 15 33  1  0
 16 17  1  0
 17 18  1  0
 18 19  1  0
 19 20  1  0
 20 21  2  0
 20 32  1  0
 21 22  1  0
 23 22  1  1
 22 31  2  0
 23 24  1  0
 23 30  1  0
 24 25  1  0
 25 26  1  0
 26 27  1  0
 27 28  1  0
 27 30  1  0
 28 29  1  0
 31 32  1  0
M  CHG  2   5   1  29   1
M  END
