
     RDKit          3D

 34 40  0  0  0  0  0  0  0  0999 V2000
   -6.7450   -0.1860    0.4370 O   0  0  0  0  0  0  0  0  0  0  0  0
   -5.5050   -0.2680    0.2700 C   0  0  0  0  0  0  0  0  0  0  0  0
   -4.7260    0.8310    0.4190 N   0  0  0  0  0  0  0  0  0  0  0  0
   -3.3930    0.7860    0.2510 C   0  0  0  0  0  0  0  0  0  0  0  0
   -2.7110   -0.3750   -0.0850 C   0  0  0  0  0  0  0  0  0  0  0  0
   -3.4990   -1.5340   -0.2490 C   0  0  0  0  0  0  0  0  0  0  0  0
   -2.9090   -2.7110   -0.6050 C   0  0  0  0  0  0  0  0  0  0  0  0
   -3.7320   -3.8300   -0.7760 C   0  0  0  0  0  0  0  0  0  0  0  0
   -5.0910   -3.7800   -0.6000 C   0  0  0  0  0  0  0  0  0  0  0  0
   -5.6620   -2.5870   -0.2450 C   0  0  0  0  0  0  0  0  0  0  0  0
   -4.8790   -1.4390   -0.0630 C   0  0  0  0  0  0  0  0  0  0  0  0
   -1.2590   -0.4120   -0.2940 C   0  0  2  0  0  0  0  0  0  0  0  0
   -0.6070   -1.5680    0.3070 N   0  0  0  0  0  0  0  0  0  0  0  0
    0.7360   -1.8030   -0.0410 C   0  0  1  0  0  0  0  0  0  0  0  0
    0.9450   -2.0290   -1.5300 C   0  0  0  0  0  0  0  0  0  0  0  0
    2.4320   -2.1540   -1.7480 C   0  0  0  0  0  0  0  0  0  0  0  0
    3.0270   -0.7540   -1.4880 C   0  0  0  0  0  0  0  0  0  0  0  0
    2.8710   -0.4860   -0.0800 N   0  0  0  0  0  0  0  0  0  0  0  0
    3.6610    0.1950    0.7630 C   0  0  0  0  0  0  0  0  0  0  0  0
    4.8680    0.9880    0.5680 C   0  0  0  0  0  0  0  0  0  0  0  0
    5.4480    1.3240   -0.5550 C   0  0  0  0  0  0  0  0  0  0  0  0
    6.6620    2.1410   -0.2660 C   0  0  0  0  0  0  0  0  0  0  0  0
    6.6890    2.2220    1.2120 C   0  0  0  0  0  0  0  0  0  0  0  0
    5.6560    1.5580    1.6790 C   0  0  0  0  0  0  0  0  0  0  0  0
    3.0670    0.0820    1.9850 N   0  0  0  0  0  0  0  0  0  0  0  0
    1.9750   -0.6310    1.8630 N   0  0  0  0  0  0  0  0  0  0  0  0
    1.8010   -1.0130    0.5880 C   0  0  0  0  0  0  0  0  0  0  0  0
   -0.5770    0.7660    0.2450 C   0  0  0  0  0  0  0  0  0  0  0  0
   -1.3080    2.0160    0.3290 C   0  0  0  0  0  0  0  0  0  0  0  0
   -0.6250    3.2030    0.3920 N   0  0  0  0  0  0  0  0  0  0  0  0
   -1.2480    4.3680    0.5820 C   0  0  0  0  0  0  0  0  0  0  0  0
   -2.6140    4.4060    0.7220 C   0  0  0  0  0  0  0  0  0  0  0  0
   -3.3640    3.2340    0.6650 C   0  0  0  0  0  0  0  0  0  0  0  0
   -2.6670    2.0490    0.4630 C   0  0  0  0  0  0  0  0  0  0  0  0
  1  2  2  0
  2  3  1  0
  2 11  1  0
  3  4  1  0
  4  5  2  0
  4 34  1  0
  5  6  1  0
  5 12  1  0
  6  7  2  0
  6 11  1  0
  7  8  1  0
  8  9  2  0
  9 10  1  0
 10 11  2  0
 12 13  1  1
 12 28  1  0
 14 13  1  6
 14 15  1  0
 14 27  1  0
 15 16  1  0
 16 17  1  0
 17 18  1  0
 18 19  1  0
 18 27  1  0
 19 20  1  0
 19 25  2  0
 20 21  2  0
 20 24  1  0
 21 22  1  0
 22 23  1  0
 23 24  2  0
 25 26  1  0
 26 27  2  0
 28 29  1  0
 29 30  2  0
 29 34  1  0
 30 31  1  0
 31 32  2  0
 32 33  1  0
 33 34  2  0
M  END
