
     RDKit          3D

 34 40  0  0  0  0  0  0  0  0999 V2000
   -9.4060    0.8450   -0.0170 C   0  0  0  0  0  0  0  0  0  0  0  0
  -10.2210    0.6490    1.0800 C   0  0  0  0  0  0  0  0  0  0  0  0
   -9.6490    0.3080    2.2490 N   0  0  0  0  0  0  0  0  0  0  0  0
   -8.3020    0.1500    2.3800 C   0  0  0  0  0  0  0  0  0  0  0  0
   -7.4530    0.3350    1.3120 C   0  0  0  0  0  0  0  0  0  0  0  0
   -6.0100    0.1670    1.4290 C   0  0  0  0  0  0  0  0  0  0  0  0
   -5.0450    0.3290    0.4530 C   0  0  0  0  0  0  0  0  0  0  0  0
   -3.8130    0.0670    1.0060 C   0  0  0  0  0  0  0  0  0  0  0  0
   -2.4710    0.1060    0.3750 C   0  0  0  0  0  0  0  0  0  0  0  0
   -2.4450   -0.8390   -0.7190 N   0  0  0  0  0  0  0  0  0  0  0  0
   -1.2820   -1.0520   -1.5110 C   0  0  0  0  0  0  0  0  0  0  0  0
   -1.3600   -1.9170   -2.5770 C   0  0  0  0  0  0  0  0  0  0  0  0
   -0.2140   -2.1290   -3.3540 C   0  0  0  0  0  0  0  0  0  0  0  0
    0.9800   -1.4910   -3.0710 C   0  0  0  0  0  0  0  0  0  0  0  0
    2.1930   -1.5260   -3.6520 N   0  0  0  0  0  0  0  0  0  0  0  0
    3.0380   -0.7080   -2.9850 C   0  0  0  0  0  0  0  0  0  0  0  0
    2.3300   -0.1400   -1.9490 C   0  0  0  0  0  0  0  0  0  0  0  0
    2.8500    0.8080   -0.9650 C   0  0  0  0  0  0  0  0  0  0  0  0
    2.3100    1.9800   -0.4950 C   0  0  0  0  0  0  0  0  0  0  0  0
    3.1390    2.5270    0.4110 N   0  0  0  0  0  0  0  0  0  0  0  0
    4.2360    1.7340    0.5560 C   0  0  0  0  0  0  0  0  0  0  0  0
    5.3450    1.8250    1.3230 N   0  0  0  0  0  0  0  0  0  0  0  0
    6.3040    0.8960    1.2850 C   0  0  0  0  0  0  0  0  0  0  0  0
    6.1890   -0.1920    0.4580 C   0  0  0  0  0  0  0  0  0  0  0  0
    5.0600   -0.2920   -0.3280 C   0  0  0  0  0  0  0  0  0  0  0  0
    4.0580    0.6660   -0.2970 C   0  0  0  0  0  0  0  0  0  0  0  0
    7.3640   -1.0920    0.5760 C   0  0  0  0  0  0  0  0  0  0  0  0
    8.3840   -0.2240    1.2820 C   0  0  0  0  0  0  0  0  0  0  0  0
    7.5890    0.8130    2.0440 C   0  0  0  0  0  0  0  0  0  0  0  0
    1.0420   -0.6360   -2.0120 C   0  0  0  0  0  0  0  0  0  0  0  0
   -0.0890   -0.4270   -1.2450 C   0  0  0  0  0  0  0  0  0  0  0  0
   -4.0770   -0.2460    2.3060 N   0  0  0  0  0  0  0  0  0  0  0  0
   -5.3560   -0.1770    2.5140 O   0  0  0  0  0  0  0  0  0  0  0  0
   -8.0310    0.6850    0.1110 C   0  0  0  0  0  0  0  0  0  0  0  0
  1  2  2  0
  1 34  1  0
  2  3  1  0
  3  4  2  0
  4  5  1  0
  5  6  1  0
  5 34  2  0
  6  7  2  0
  6 33  1  0
  7  8  1  0
  8  9  1  0
  8 32  2  0
  9 10  1  0
 10 11  1  0
 11 12  2  0
 11 31  1  0
 12 13  1  0
 13 14  2  0
 14 15  1  0
 14 30  1  0
 15 16  1  0
 16 17  2  0
 17 18  1  0
 17 30  1  0
 18 19  2  0
 18 26  1  0
 19 20  1  0
 20 21  1  0
 21 22  2  0
 21 26  1  0
 22 23  1  0
 23 24  2  0
 23 29  1  0
 24 25  1  0
 24 27  1  0
 25 26  2  0
 27 28  1  0
 28 29  1  0
 30 31  2  0
 32 33  1  0
M  END
