
     RDKit          3D

 34 39  0  0  0  0  0  0  0  0999 V2000
    1.1310   -0.8920    3.8400 C   0  0  0  0  0  0  0  0  0  0  0  0
    2.0990   -0.9160    2.6900 C   0  0  0  0  0  0  0  0  0  0  0  0
    3.2090   -1.6610    2.6280 N   0  0  0  0  0  0  0  0  0  0  0  0
    3.8150   -1.4140    1.4490 C   0  0  0  0  0  0  0  0  0  0  0  0
    4.9700   -1.8960    0.8700 C   0  0  0  0  0  0  0  0  0  0  0  0
    5.3760   -1.4660   -0.3840 C   0  0  0  0  0  0  0  0  0  0  0  0
    6.5080   -1.9420   -0.9450 N   0  0  0  0  0  0  0  0  0  0  0  0
    6.9440   -1.5590   -2.1530 C   0  0  0  0  0  0  0  0  0  0  0  0
    6.2200   -0.6390   -2.8760 C   0  0  0  0  0  0  0  0  0  0  0  0
    5.0440   -0.1310   -2.3180 C   0  0  0  0  0  0  0  0  0  0  0  0
    4.6150   -0.5410   -1.0710 C   0  0  0  0  0  0  0  0  0  0  0  0
    3.4860   -0.0740   -0.4990 N   0  0  0  0  0  0  0  0  0  0  0  0
    3.0800   -0.4920    0.7340 C   0  0  0  0  0  0  0  0  0  0  0  0
    1.9960   -0.1820    1.5280 C   0  0  0  0  0  0  0  0  0  0  0  0
    0.9110    0.7460    1.2360 C   0  0  0  0  0  0  0  0  0  0  0  0
    0.9420    2.0760    1.5680 C   0  0  0  0  0  0  0  0  0  0  0  0
   -0.1140    2.9600    1.2790 C   0  0  0  0  0  0  0  0  0  0  0  0
    0.0300    4.1610    1.6330 O   0  0  0  0  0  0  0  0  0  0  0  0
   -1.2060    2.4980    0.6540 N   0  0  0  0  0  0  0  0  0  0  0  0
   -2.3030    3.3320    0.3340 C   0  0  0  0  0  0  0  0  0  0  0  0
   -2.4280    4.5940    0.5750 C   0  0  0  0  0  0  0  0  0  0  0  0
   -3.6770    5.3210    0.1590 C   0  0  0  0  0  0  0  0  0  0  0  0
   -4.5980    4.4350   -0.4870 N   0  0  0  0  0  0  0  0  0  0  0  0
   -1.2870    1.1680    0.2990 C   0  0  0  0  0  0  0  0  0  0  0  0
   -2.3940    0.7300   -0.3280 N   0  0  0  0  0  0  0  0  0  0  0  0
   -2.5130   -0.5470   -0.6880 C   0  0  0  0  0  0  0  0  0  0  0  0
   -1.4930   -1.4230   -0.4150 C   0  0  0  0  0  0  0  0  0  0  0  0
   -0.3500   -0.9990    0.2260 C   0  0  0  0  0  0  0  0  0  0  0  0
   -0.2450    0.3250    0.5900 C   0  0  0  0  0  0  0  0  0  0  0  0
   -1.5490   -2.8650   -0.7840 C   0  0  0  0  0  0  0  0  0  0  0  0
   -2.5670   -3.1880   -1.8240 C   0  0  0  0  0  0  0  0  0  0  0  0
   -3.1930   -1.9960   -2.4820 C   0  0  0  0  0  0  0  0  0  0  0  0
   -3.7150   -1.0660   -1.3790 C   0  0  1  0  0  0  0  0  0  0  0  0
   -4.6490   -1.7860   -0.4470 C   0  0  0  0  0  0  0  0  0  0  0  0
  1  2  1  0
  2  3  1  0
  2 14  2  0
  3  4  1  0
  4  5  2  0
  4 13  1  0
  5  6  1  0
  6  7  2  0
  6 11  1  0
  7  8  1  0
  8  9  2  0
  9 10  1  0
 10 11  2  0
 11 12  1  0
 12 13  2  0
 13 14  1  0
 14 15  1  0
 15 16  2  0
 15 29  1  0
 16 17  1  0
 17 18  2  0
 17 19  1  0
 19 20  1  0
 19 24  1  0
 20 21  2  3
 21 22  1  0
 22 23  1  0
 24 25  2  0
 24 29  1  0
 25 26  1  0
 26 27  2  0
 26 33  1  0
 27 28  1  0
 27 30  1  0
 28 29  2  0
 30 31  1  0
 31 32  1  0
 32 33  1  0
 33 34  1  1
M  END
