
     RDKit          3D

 34 35  0  0  0  0  0  0  0  0999 V2000
   -0.2970    2.2870   -4.0860 C   0  0  0  0  0  0  0  0  0  0  0  0
   -0.4930    1.6300   -2.8530 O   0  0  0  0  0  0  0  0  0  0  0  0
    0.4970    1.3400   -1.9370 C   0  0  0  0  0  0  0  0  0  0  0  0
    1.6540    1.7330   -2.3180 O   0  0  0  0  0  0  0  0  0  0  0  0
    0.3520    0.6730   -0.6680 C   0  0  0  0  0  0  0  0  0  0  0  0
    1.3960    0.4090    0.1860 C   0  0  0  0  0  0  0  0  0  0  0  0
    2.7820    0.7220   -0.0040 N   0  0  0  0  0  0  0  0  0  0  0  0
    3.7910    0.3930    0.9380 C   0  0  0  0  0  0  0  0  0  0  0  0
    3.5140   -0.1910    1.9980 O   0  0  0  0  0  0  0  0  0  0  0  0
    5.1630    0.7220    0.6900 N   0  0  0  0  0  0  0  0  0  0  0  0
    6.1910    0.3740    1.6550 C   0  0  0  0  0  0  0  0  0  0  0  0
    7.5250    0.8520    1.1190 C   0  0  1  0  0  0  0  0  0  0  0  0
    8.6440    0.5150    2.0880 C   0  0  0  0  0  0  0  0  0  0  0  0
    7.8700    0.2170   -0.1730 C   0  0  0  0  0  0  0  0  0  0  0  0
    8.0710   -1.2530   -0.3230 C   0  0  0  0  0  0  0  0  0  0  0  0
    8.0040    0.9400   -1.2180 N   0  0  0  0  0  0  0  0  0  0  0  0
    7.8290    2.2710   -1.1310 F   0  0  0  0  0  0  0  0  0  0  0  0
    0.9020   -0.2100    1.2320 N   0  0  0  0  0  0  0  0  0  0  0  0
   -0.4680   -0.3620    1.0860 C   0  0  0  0  0  0  0  0  0  0  0  0
   -1.1630   -0.9900    2.1860 C   0  0  0  0  0  0  0  0  0  0  0  0
   -0.6500   -2.1870    2.7420 N   0  0  0  0  0  0  0  0  0  0  0  0
   -2.2190   -0.5650    2.7160 O   0  0  0  0  0  0  0  0  0  0  0  0
   -0.8700    0.1710   -0.0970 C   0  0  0  0  0  0  0  0  0  0  0  0
   -2.1480    0.3190   -0.7860 C   0  0  2  0  0  0  0  0  0  0  0  0
   -2.6300    1.7220   -0.6780 N   0  0  0  0  0  0  0  0  0  0  0  0
   -3.2280   -0.6240   -0.7130 C   0  0  0  0  0  0  0  0  0  0  0  0
   -4.0290   -1.1290    0.2870 N   0  0  2  0  0  0  0  0  0  0  0  0
   -4.9310   -2.1300   -0.3830 C   0  0  0  0  0  0  0  0  0  0  0  0
   -6.3720   -1.8110   -0.2240 C   0  0  2  0  0  0  0  0  0  0  0  0
   -7.1580   -2.7390   -1.1390 C   0  0  0  0  0  0  0  0  0  0  0  0
   -6.5480   -0.4880   -0.6740 O   0  0  0  0  0  0  0  0  0  0  0  0
   -6.0800    0.2840    0.4090 C   0  0  2  0  0  0  0  0  0  0  0  0
   -6.0030    1.7420    0.0600 C   0  0  0  0  0  0  0  0  0  0  0  0
   -4.8710   -0.2880    1.0540 C   0  0  0  0  0  0  0  0  0  0  0  0
  1  2  1  0
  2  3  1  0
  3  4  2  0
  3  5  1  0
  5  6  2  0
  5 23  1  0
  6  7  1  0
  6 18  1  0
  7  8  1  0
  8  9  2  0
  8 10  1  0
 10 11  1  0
 11 12  1  0
 12 13  1  1
 12 14  1  0
 14 15  1  0
 14 16  2  3
 16 17  1  0
 18 19  1  0
 19 20  1  0
 19 23  2  0
 20 21  1  0
 20 22  2  0
 23 24  1  0
 24 25  1  1
 24 26  1  0
 27 26  1  6
 27 28  1  0
 27 34  1  0
 28 29  1  0
 29 30  1  6
 29 31  1  0
 31 32  1  0
 32 33  1  6
 32 34  1  0
M  CHG  2  25   1  27   1
M  END
