
     RDKit          3D

 33 35  0  0  0  0  0  0  0  0999 V2000
    8.4780    0.1400   -1.4430 C   0  0  0  0  0  0  0  0  0  0  0  0
    7.0880    0.4710   -1.7410 N   0  0  0  0  0  0  0  0  0  0  0  0
    6.2700   -0.5420   -1.1120 C   0  0  2  0  0  0  0  0  0  0  0  0
    6.7500   -1.8260   -1.5690 N   0  0  0  0  0  0  0  0  0  0  0  0
    4.8190   -0.3190   -1.4740 C   0  0  0  0  0  0  0  0  0  0  0  0
    4.3850    0.9870   -1.0200 N   0  0  0  0  0  0  0  0  0  0  0  0
    3.2270    0.7940   -0.1760 C   0  0  1  0  0  0  0  0  0  0  0  0
    3.5580    0.0050    1.0720 C   0  0  0  0  0  0  0  0  0  0  0  0
    2.3050    0.2680    1.9190 C   0  0  0  0  0  0  0  0  0  0  0  0
    1.7460    1.5970    1.4280 C   0  0  2  0  0  0  0  0  0  0  0  0
    0.5060    1.4330    0.6950 N   0  0  0  0  0  0  0  0  0  0  0  0
   -0.6430    0.8940    1.3300 C   0  0  0  0  0  0  0  0  0  0  0  0
   -0.6520    0.5700    2.6630 C   0  0  0  0  0  0  0  0  0  0  0  0
   -1.7670    0.0450    3.2790 C   0  0  0  0  0  0  0  0  0  0  0  0
   -1.7710   -0.2750    4.6060 F   0  0  0  0  0  0  0  0  0  0  0  0
   -2.9240   -0.1770    2.5770 C   0  0  0  0  0  0  0  0  0  0  0  0
   -4.1330   -0.7430    3.2250 C   0  0  0  0  0  0  0  0  0  0  0  0
   -2.9390    0.1460    1.2130 C   0  0  0  0  0  0  0  0  0  0  0  0
   -4.1840   -0.1040    0.5390 N   0  0  0  0  0  0  0  0  0  0  0  0
   -4.4130    0.1020   -0.8020 C   0  0  0  0  0  0  0  0  0  0  0  0
   -3.3900    0.5650   -1.5130 O   0  0  0  0  0  0  0  0  0  0  0  0
   -5.5860   -0.0970   -1.5880 C   0  0  0  0  0  0  0  0  0  0  0  0
   -6.8020   -0.4880   -1.4970 C   0  0  0  0  0  0  0  0  0  0  0  0
   -7.5270   -0.9440   -0.3410 C   0  0  0  0  0  0  0  0  0  0  0  0
   -7.0080   -1.0130    0.7900 O   0  0  0  0  0  0  0  0  0  0  0  0
   -8.9150   -1.3650   -0.3680 N   0  0  0  0  0  0  0  0  0  0  0  0
   -9.6050   -1.3300   -1.5860 C   0  0  0  0  0  0  0  0  0  0  0  0
  -10.8290   -1.6920   -1.6580 O   0  0  0  0  0  0  0  0  0  0  0  0
   -8.9540   -0.8930   -2.7560 N   0  0  0  0  0  0  0  0  0  0  0  0
   -7.6050   -0.4800   -2.7550 C   0  0  0  0  0  0  0  0  0  0  0  0
   -7.0730   -0.1040   -3.8060 O   0  0  0  0  0  0  0  0  0  0  0  0
   -1.8280    0.6690    0.6030 C   0  0  0  0  0  0  0  0  0  0  0  0
    2.7850    2.1230    0.4530 C   0  0  0  0  0  0  0  0  0  0  0  0
  1  2  1  0
  2  3  1  0
  3  4  1  6
  3  5  1  0
  5  6  1  0
  7  6  1  6
  7  8  1  0
  7 33  1  0
  8  9  1  0
  9 10  1  0
 10 11  1  6
 10 33  1  0
 11 12  1  0
 12 13  2  0
 12 32  1  0
 13 14  1  0
 14 15  1  0
 14 16  2  0
 16 17  1  0
 16 18  1  0
 18 19  1  0
 18 32  2  0
 19 20  1  0
 20 21  2  0
 20 22  1  0
 22 23  2  3
 23 24  1  0
 23 30  1  0
 24 25  2  0
 24 26  1  0
 26 27  1  0
 27 28  2  0
 27 29  1  0
 29 30  1  0
 30 31  2  0
M  CHG  2   2   1   6   1
M  END
