
     RDKit          3D

 34 40  0  0  0  0  0  0  0  0999 V2000
    3.3500    3.2210   -0.5190 C   0  0  0  0  0  0  0  0  0  0  0  0
    4.3610    2.1480   -0.7560 C   0  0  2  0  0  0  0  0  0  0  0  0
    5.0040    2.3140   -2.1290 C   0  0  0  0  0  0  0  0  0  0  0  0
    4.1590    1.5120   -2.9280 O   0  0  0  0  0  0  0  0  0  0  0  0
    3.6730    0.4640   -2.1320 C   0  0  0  0  0  0  0  0  0  0  0  0
    3.1440   -0.7720   -2.4590 C   0  0  0  0  0  0  0  0  0  0  0  0
    2.7290   -1.6410   -1.4620 C   0  0  0  0  0  0  0  0  0  0  0  0
    2.8380   -1.2860   -0.1400 C   0  0  0  0  0  0  0  0  0  0  0  0
    2.4040   -2.1930    0.9080 C   0  0  2  0  0  0  0  0  0  0  0  0
    2.5810   -3.6690    0.5280 C   0  0  0  0  0  0  0  0  0  0  0  0
    2.4860   -4.4440    1.8150 C   0  0  0  0  0  0  0  0  0  0  0  0
    1.1940   -4.2400    2.5160 C   0  0  0  0  0  0  0  0  0  0  0  0
    0.4400   -3.0370    2.0820 C   0  0  0  0  0  0  0  0  0  0  0  0
   -0.8660   -2.9670    2.4980 C   0  0  0  0  0  0  0  0  0  0  0  0
   -1.6470   -1.8780    2.1400 C   0  0  0  0  0  0  0  0  0  0  0  0
   -2.9270   -1.5360    2.3880 N   0  0  0  0  0  0  0  0  0  0  0  0
   -3.2050   -0.3590    1.8030 C   0  0  0  0  0  0  0  0  0  0  0  0
   -4.3420    0.4410    1.7360 C   0  0  0  0  0  0  0  0  0  0  0  0
   -5.5270    0.0140    2.3970 N   0  0  0  0  0  0  0  0  0  0  0  0
   -4.2780    1.6220    1.0290 C   0  0  0  0  0  0  0  0  0  0  0  0
   -3.1350    2.0450    0.3860 C   0  0  0  0  0  0  0  0  0  0  0  0
   -3.1870    3.3380   -0.3450 C   0  0  0  0  0  0  0  0  0  0  0  0
   -3.5900    3.1780   -1.7150 N   0  0  0  0  0  0  0  0  0  0  0  0
   -4.8340    3.2070   -2.2130 C   0  0  0  0  0  0  0  0  0  0  0  0
   -4.7950    3.0140   -3.5800 C   0  0  0  0  0  0  0  0  0  0  0  0
   -3.4900    2.8710   -3.8590 N   0  0  0  0  0  0  0  0  0  0  0  0
   -2.7900    2.9730   -2.7350 N   0  0  0  0  0  0  0  0  0  0  0  0
   -2.0050    1.2580    0.4480 C   0  0  0  0  0  0  0  0  0  0  0  0
   -2.0760    0.0670    1.1620 C   0  0  0  0  0  0  0  0  0  0  0  0
   -1.1020   -0.8760    1.3690 C   0  0  0  0  0  0  0  0  0  0  0  0
    0.2050   -0.9720    0.9680 C   0  0  0  0  0  0  0  0  0  0  0  0
    0.9930   -2.0410    1.3120 C   0  0  0  0  0  0  0  0  0  0  0  0
    3.3530   -0.0860    0.1550 N   0  0  0  0  0  0  0  0  0  0  0  0
    3.7670    0.7850   -0.8040 C   0  0  0  0  0  0  0  0  0  0  0  0
  2  1  1  6
  2  3  1  0
  2 34  1  0
  3  4  1  0
  4  5  1  0
  5  6  2  0
  5 34  1  0
  6  7  1  0
  7  8  2  0
  9  8  1  6
  8 33  1  0
  9 10  1  0
  9 32  1  0
 10 11  1  0
 11 12  1  0
 12 13  1  0
 13 14  2  0
 13 32  1  0
 14 15  1  0
 15 16  1  0
 15 30  2  0
 16 17  1  0
 17 18  2  0
 17 29  1  0
 18 19  1  0
 18 20  1  0
 20 21  2  0
 21 22  1  0
 21 28  1  0
 22 23  1  0
 23 24  1  0
 23 27  1  0
 24 25  2  0
 25 26  1  0
 26 27  2  0
 28 29  2  0
 29 30  1  0
 30 31  1  0
 31 32  2  0
 33 34  2  0
M  END
