
     RDKit          3D

 35 38  0  0  0  0  0  0  0  0999 V2000
    5.3950   -0.7720   -2.4600 C   0  0  0  0  0  0  0  0  0  0  0  0
    4.5230   -0.7100   -1.2260 C   0  0  2  0  0  0  0  0  0  0  0  0
    3.3400    0.0540   -1.5840 N   0  0  0  0  0  0  0  0  0  0  0  0
    2.0570   -0.5660   -1.5970 C   0  0  0  0  0  0  0  0  0  0  0  0
    2.0270   -1.7830   -1.2850 O   0  0  0  0  0  0  0  0  0  0  0  0
    0.8750    0.2410   -1.9670 C   0  0  0  0  0  0  0  0  0  0  0  0
   -0.4210   -0.5010   -1.9360 C   0  0  0  0  0  0  0  0  0  0  0  0
   -0.7090   -1.0270   -0.5830 C   0  0  0  0  0  0  0  0  0  0  0  0
   -0.3290   -2.2580   -0.1410 N   0  0  0  0  0  0  0  0  0  0  0  0
   -0.7530   -2.3660    1.1240 C   0  0  0  0  0  0  0  0  0  0  0  0
   -0.6460   -3.3970    2.0670 C   0  0  0  0  0  0  0  0  0  0  0  0
   -1.1710   -3.2710    3.3340 C   0  0  0  0  0  0  0  0  0  0  0  0
   -1.8060   -2.0790    3.6200 C   0  0  0  0  0  0  0  0  0  0  0  0
   -1.8930   -1.1110    2.6970 N   0  0  0  0  0  0  0  0  0  0  0  0
   -1.3940   -1.1930    1.4500 C   0  0  0  0  0  0  0  0  0  0  0  0
   -1.3610   -0.3630    0.3750 N   0  0  0  0  0  0  0  0  0  0  0  0
   -1.9430    0.9470    0.4080 C   0  0  0  0  0  0  0  0  0  0  0  0
   -3.3670    1.0120    0.0150 C   0  0  0  0  0  0  0  0  0  0  0  0
   -3.8260    1.3260   -1.2450 C   0  0  0  0  0  0  0  0  0  0  0  0
   -5.1620    1.3690   -1.5670 C   0  0  0  0  0  0  0  0  0  0  0  0
   -6.1150    1.0950   -0.6240 C   0  0  0  0  0  0  0  0  0  0  0  0
   -7.4770    1.1290   -0.9110 O   0  0  0  0  0  0  0  0  0  0  0  0
   -8.2470    2.3040   -0.7650 C   0  0  2  0  0  0  0  0  0  0  0  0
   -7.7500    3.3010   -1.5760 F   0  0  0  0  0  0  0  0  0  0  0  0
   -8.3180    2.7080    0.5480 F   0  0  0  0  0  0  0  0  0  0  0  0
   -9.5520    1.9660   -1.1390 F   0  0  0  0  0  0  0  0  0  0  0  0
   -5.7000    0.7750    0.6600 C   0  0  0  0  0  0  0  0  0  0  0  0
   -4.3530    0.7370    0.9600 C   0  0  0  0  0  0  0  0  0  0  0  0
    5.1680   -0.0340   -0.0990 C   0  0  0  0  0  0  0  0  0  0  0  0
    5.6140   -0.7690    0.9750 C   0  0  0  0  0  0  0  0  0  0  0  0
    6.2320   -0.1350    2.0590 C   0  0  0  0  0  0  0  0  0  0  0  0
    6.4030    1.2150    2.0680 C   0  0  0  0  0  0  0  0  0  0  0  0
    7.1770    2.0120    3.4240 Cl  0  0  0  0  0  0  0  0  0  0  0  0
    5.9600    1.9640    0.9950 C   0  0  0  0  0  0  0  0  0  0  0  0
    5.3510    1.3290   -0.0680 C   0  0  0  0  0  0  0  0  0  0  0  0
  2  1  1  6
  2  3  1  0
  2 29  1  0
  3  4  1  0
  4  5  2  0
  4  6  1  0
  6  7  1  0
  7  8  1  0
  8  9  2  0
  8 16  1  0
  9 10  1  0
 10 11  2  0
 10 15  1  0
 11 12  1  0
 12 13  2  0
 13 14  1  0
 14 15  2  0
 15 16  1  0
 16 17  1  0
 17 18  1  0
 18 19  2  0
 18 28  1  0
 19 20  1  0
 20 21  2  0
 21 22  1  0
 21 27  1  0
 22 23  1  0
 23 24  1  6
 23 25  1  0
 23 26  1  0
 27 28  2  0
 29 30  2  0
 29 35  1  0
 30 31  1  0
 31 32  2  0
 32 33  1  0
 32 34  1  0
 34 35  2  0
M  END
