
     RDKit          3D

 35 36  0  0  0  0  0  0  0  0999 V2000
   -0.1050    2.5580   -3.9630 C   0  0  0  0  0  0  0  0  0  0  0  0
   -0.4670    1.2650   -3.2650 C   0  0  2  0  0  0  0  0  0  0  0  0
   -1.7040    0.6140   -3.7710 C   0  0  0  0  0  0  0  0  0  0  0  0
   -0.4640    1.4630   -1.8500 O   0  0  0  0  0  0  0  0  0  0  0  0
   -0.7750    0.5030   -0.9240 C   0  0  0  0  0  0  0  0  0  0  0  0
    0.1150   -0.3000   -0.3920 C   0  0  0  0  0  0  0  0  0  0  0  0
    1.5270   -0.4030   -0.5760 C   0  0  0  0  0  0  0  0  0  0  0  0
    2.2180   -1.3620    0.0580 C   0  0  0  0  0  0  0  0  0  0  0  0
    3.6530   -1.5380   -0.0630 C   0  0  0  0  0  0  0  0  0  0  0  0
    4.3290   -2.4810    0.5560 C   0  0  0  0  0  0  0  0  0  0  0  0
    5.7650   -2.7010    0.4690 C   0  0  2  0  0  0  0  0  0  0  0  0
    6.0580   -4.1040    1.0100 C   0  0  0  0  0  0  0  0  0  0  0  0
    6.4320   -1.7550    1.2340 O   0  0  0  0  0  0  0  0  0  0  0  0
    7.3690   -1.0160    0.5510 C   0  0  0  0  0  0  0  0  0  0  0  0
    7.9860   -0.0340    1.5480 C   0  0  0  0  0  0  0  0  0  0  0  0
    6.8960    0.8780    2.1080 C   0  0  0  0  0  0  0  0  0  0  0  0
    6.3250    1.5760    1.0260 O   0  0  0  0  0  0  0  0  0  0  0  0
    5.3810    2.3760    1.4710 O   0  0  0  0  0  0  0  0  0  0  0  0
    5.4740    3.5240    0.8350 O   0  0  0  0  0  0  0  0  0  0  0  0
    4.3370   -0.6550   -0.8780 O   0  0  0  0  0  0  0  0  0  0  0  0
    3.6550    0.3410   -1.5340 C   0  0  0  0  0  0  0  0  0  0  0  0
    2.3230    0.4790   -1.4040 C   0  0  0  0  0  0  0  0  0  0  0  0
   -2.2020    0.3490   -0.4820 C   0  0  0  0  0  0  0  0  0  0  0  0
   -3.1070    1.1750   -0.9590 C   0  0  0  0  0  0  0  0  0  0  0  0
   -4.4090    1.0580   -0.5870 O   0  0  0  0  0  0  0  0  0  0  0  0
   -5.4060    0.1860   -0.9800 C   0  0  0  0  0  0  0  0  0  0  0  0
   -6.8010    0.7760   -0.7890 C   0  0  0  0  0  0  0  0  0  0  0  0
   -6.8150    1.9280    0.1470 C   0  0  0  0  0  0  0  0  0  0  0  0
   -6.2510    1.6800    1.4920 C   0  0  0  0  0  0  0  0  0  0  0  0
   -6.6480    0.3900    2.1290 C   0  0  0  0  0  0  0  0  0  0  0  0
   -5.4540   -0.1740    2.9060 C   0  0  0  0  0  0  0  0  0  0  0  0
   -5.1620   -1.6060    2.4900 C   0  0  0  0  0  0  0  0  0  0  0  0
   -3.7270   -1.6790    2.0140 C   0  0  0  0  0  0  0  0  0  0  0  0
   -3.4040   -0.4620    1.4300 O   0  0  0  0  0  0  0  0  0  0  0  0
   -2.5120   -0.6640    0.4180 O   0  0  0  0  0  0  0  0  0  0  0  0
  2  1  1  6
  2  3  1  0
  2  4  1  0
  4  5  1  0
  5  6  2  3
  5 23  1  0
  6  7  1  0
  7  8  2  0
  7 22  1  0
  8  9  1  0
  9 10  2  3
  9 20  1  0
 10 11  1  0
 11 12  1  1
 11 13  1  0
 13 14  1  0
 14 15  1  0
 15 16  1  0
 16 17  1  0
 17 18  1  0
 18 19  1  0
 20 21  1  0
 21 22  2  0
 23 24  2  0
 23 35  1  0
 24 25  1  0
 25 26  1  0
 26 27  1  0
 27 28  1  0
 28 29  1  0
 29 30  1  0
 30 31  1  0
 31 32  1  0
 32 33  1  0
 33 34  1  0
 34 35  1  0
M  END
