
     RDKit          3D

 34 35  0  0  0  0  0  0  0  0999 V2000
   -8.4430   -1.2440   -2.5180 C   0  0  0  0  0  0  0  0  0  0  0  0
   -8.6400   -0.9600   -1.0480 C   0  0  0  0  0  0  0  0  0  0  0  0
   -7.7220   -1.6560   -0.2790 O   0  0  0  0  0  0  0  0  0  0  0  0
   -6.4550   -1.2650   -0.6130 C   0  0  0  0  0  0  0  0  0  0  0  0
   -5.4070   -1.9980    0.1390 C   0  0  0  0  0  0  0  0  0  0  0  0
   -4.5640   -1.3730    0.9150 C   0  0  0  0  0  0  0  0  0  0  0  0
   -4.4870    0.0400    1.1830 C   0  0  0  0  0  0  0  0  0  0  0  0
   -5.5170    0.8910    1.5670 C   0  0  0  0  0  0  0  0  0  0  0  0
   -4.9900    2.1550    1.7370 C   0  0  0  0  0  0  0  0  0  0  0  0
   -3.7460    2.0810    1.4780 O   0  0  0  0  0  0  0  0  0  0  0  0
   -3.3670    0.8330    1.1340 C   0  0  0  0  0  0  0  0  0  0  0  0
   -2.0010    0.5070    0.8020 C   0  0  0  0  0  0  0  0  0  0  0  0
   -0.9920    1.4330    1.1020 C   0  0  0  0  0  0  0  0  0  0  0  0
    0.3430    1.1730    0.8040 C   0  0  0  0  0  0  0  0  0  0  0  0
    0.7580    0.0160    0.2060 C   0  0  0  0  0  0  0  0  0  0  0  0
    2.0400   -0.3250   -0.1120 O   0  0  0  0  0  0  0  0  0  0  0  0
    3.0850    0.5440   -0.1310 C   0  0  0  0  0  0  0  0  0  0  0  0
    2.9820    1.7700    0.1170 O   0  0  0  0  0  0  0  0  0  0  0  0
    4.4660    0.0780   -0.4440 C   0  0  0  0  0  0  0  0  0  0  0  0
    5.4180    0.9810   -0.3630 C   0  0  0  0  0  0  0  0  0  0  0  0
    6.8080    0.7870   -0.5990 C   0  0  0  0  0  0  0  0  0  0  0  0
    7.6600    1.8290   -0.4460 C   0  0  0  0  0  0  0  0  0  0  0  0
    7.2550    3.1420   -0.0660 C   0  0  0  0  0  0  0  0  0  0  0  0
    8.0650    4.1800    0.1020 C   0  0  0  0  0  0  0  0  0  0  0  0
    9.4910    4.1480   -0.0690 C   0  0  0  0  0  0  0  0  0  0  0  0
   10.1700    3.1660   -0.3920 O   0  0  0  0  0  0  0  0  0  0  0  0
    7.3490   -0.4790   -1.0210 C   0  0  0  0  0  0  0  0  0  0  0  0
    6.6490   -1.5240   -1.2280 O   0  0  0  0  0  0  0  0  0  0  0  0
    8.7350   -0.6400   -1.2380 O   0  0  0  0  0  0  0  0  0  0  0  0
    9.2160   -1.9070   -1.6590 C   0  0  0  0  0  0  0  0  0  0  0  0
   -0.2510   -0.9110   -0.0990 C   0  0  0  0  0  0  0  0  0  0  0  0
   -1.5660   -0.6340    0.2050 C   0  0  0  0  0  0  0  0  0  0  0  0
   -5.3090   -3.3830    0.0240 O   0  0  0  0  0  0  0  0  0  0  0  0
   -5.6880   -4.1560    1.1590 C   0  0  0  0  0  0  0  0  0  0  0  0
  1  2  1  0
  2  3  1  0
  3  4  1  0
  4  5  1  0
  5  6  2  3
  5 33  1  0
  6  7  1  0
  7  8  1  0
  7 11  2  0
  8  9  2  0
  9 10  1  0
 10 11  1  0
 11 12  1  0
 12 13  2  0
 12 32  1  0
 13 14  1  0
 14 15  2  0
 15 16  1  0
 15 31  1  0
 16 17  1  0
 17 18  2  0
 17 19  1  0
 19 20  2  3
 20 21  1  0
 21 22  2  3
 21 27  1  0
 22 23  1  0
 23 24  2  3
 24 25  1  0
 25 26  2  0
 27 28  2  0
 27 29  1  0
 29 30  1  0
 31 32  2  0
 33 34  1  0
M  END
