
     RDKit          3D

 33 36  0  0  0  0  0  0  0  0999 V2000
   -3.7930   -2.5540    0.4310 C   0  0  0  0  0  0  0  0  0  0  0  0
   -4.3440   -1.3350    1.2080 C   0  0  1  0  0  0  0  0  0  0  0  0
   -3.4080   -0.9040    2.2670 C   0  0  0  0  0  0  0  0  0  0  0  0
   -2.5430    0.2360    2.0070 C   0  0  0  0  0  0  0  0  0  0  0  0
   -3.0140    1.3990    2.2610 O   0  0  0  0  0  0  0  0  0  0  0  0
   -1.2890    0.1660    1.5230 O   0  0  0  0  0  0  0  0  0  0  0  0
   -0.5060   -0.8720    1.0600 C   0  0  0  0  0  0  0  0  0  0  0  0
   -0.1210   -0.5440   -0.3830 C   0  0  1  0  0  0  0  0  0  0  0  0
    0.7860    0.6620   -0.4120 C   0  0  0  0  0  0  0  0  0  0  0  0
    1.9980    0.4580    0.3250 N   0  0  0  0  0  0  0  0  0  0  0  0
    2.8660    1.6170    0.2390 C   0  0  0  0  0  0  0  0  0  0  0  0
    4.1000    1.2790    1.0600 C   0  0  0  0  0  0  0  0  0  0  0  0
    4.7790    0.0500    0.4960 C   0  0  0  0  0  0  0  0  0  0  0  0
    6.2750   -0.3530    1.5020 P   0  0  0  0  0  0  0  0  0  0  0  0
    6.5900    0.8200    2.7220 O   0  0  0  0  0  0  0  0  0  0  0  0
    7.9690   -0.6620    0.1650 P   0  0  0  0  0  0  0  0  0  0  0  0
    8.8910    0.7840   -0.0740 O   0  0  0  0  0  0  0  0  0  0  0  0
    9.0180   -1.8980    0.7810 O   0  0  0  0  0  0  0  0  0  0  0  0
    0.6280   -1.6820   -1.0430 C   0  0  0  0  0  0  0  0  0  0  0  0
    0.5720   -1.6500   -2.4370 O   0  0  0  0  0  0  0  0  0  0  0  0
   -0.6030   -1.3010   -3.1340 C   0  0  0  0  0  0  0  0  0  0  0  0
   -0.8210   -1.6200   -4.3200 O   0  0  0  0  0  0  0  0  0  0  0  0
   -1.6210   -0.5200   -2.4260 C   0  0  0  0  0  0  0  0  0  0  0  0
   -2.8280    0.0030   -2.6800 N   0  0  0  0  0  0  0  0  0  0  0  0
   -3.2790    0.6320   -1.5800 C   0  0  0  0  0  0  0  0  0  0  0  0
   -2.3190    0.4740   -0.6700 O   0  0  0  0  0  0  0  0  0  0  0  0
   -1.3430   -0.1940   -1.1400 C   0  0  0  0  0  0  0  0  0  0  0  0
   -4.4840    1.3870   -1.1860 C   0  0  2  0  0  0  0  0  0  0  0  0
   -5.4300    1.6640   -2.3370 C   0  0  0  0  0  0  0  0  0  0  0  0
   -4.7420    2.7650   -1.5740 C   0  0  0  0  0  0  0  0  0  0  0  0
   -5.0750    0.8380    0.0940 C   0  0  0  0  0  0  0  0  0  0  0  0
   -5.6980    1.7190    0.7620 O   0  0  0  0  0  0  0  0  0  0  0  0
   -4.8740   -0.4460    0.3410 O   0  0  0  0  0  0  0  0  0  0  0  0
  2  1  1  6
  2  3  1  0
  2 33  1  0
  3  4  1  0
  4  5  2  0
  4  6  1  0
  6  7  1  0
  7  8  1  0
  8  9  1  1
  8 19  1  0
  8 27  1  0
  9 10  1  0
 10 11  1  0
 11 12  1  0
 12 13  1  0
 13 14  1  0
 14 15  1  0
 14 16  1  0
 16 17  1  0
 16 18  1  0
 19 20  1  0
 20 21  1  0
 21 22  2  0
 21 23  1  0
 23 24  1  0
 23 27  2  0
 24 25  2  0
 25 26  1  0
 25 28  1  0
 26 27  1  0
 28 29  1  6
 28 30  1  0
 28 31  1  0
 29 30  1  0
 31 32  2  0
 31 33  1  0
M  END
