
     RDKit          3D

 34 36  0  0  0  0  0  0  0  0999 V2000
   -2.2980    5.3830    2.7980 O   0  0  0  0  0  0  0  0  0  0  0  0
   -3.4870    4.9870    2.9940 C   0  0  0  0  0  0  0  0  0  0  0  0
   -4.3950    5.9350    3.4420 O   0  0  0  0  0  0  0  0  0  0  0  0
   -3.8560    3.6600    2.7670 O   0  0  0  0  0  0  0  0  0  0  0  0
   -2.8170    2.7980    2.3090 C   0  0  0  0  0  0  0  0  0  0  0  0
   -3.3130    1.4240    2.0970 C   0  0  0  0  0  0  0  0  0  0  0  0
   -4.5080    1.1540    2.3320 O   0  0  0  0  0  0  0  0  0  0  0  0
   -2.4470    0.3920    1.6260 N   0  0  0  0  0  0  0  0  0  0  0  0
   -2.9630   -0.9710    1.4210 C   0  0  0  0  0  0  0  0  0  0  0  0
   -1.9200   -1.9500    1.8040 C   0  0  0  0  0  0  0  0  0  0  0  0
   -0.5260   -1.6680    1.3890 C   0  0  1  0  0  0  0  0  0  0  0  0
    0.3050   -1.5900    2.6790 C   0  0  0  0  0  0  0  0  0  0  0  0
    1.5600   -2.0130    2.3610 O   0  0  0  0  0  0  0  0  0  0  0  0
    1.5680   -2.6910    1.1790 C   0  0  0  0  0  0  0  0  0  0  0  0
    0.1020   -2.8520    0.7390 C   0  0  2  0  0  0  0  0  0  0  0  0
   -0.0090   -3.0160   -0.6560 N   0  0  0  0  0  0  0  0  0  0  0  0
   -1.3190   -3.2350   -1.1340 C   0  0  0  0  0  0  0  0  0  0  0  0
   -1.3590   -3.4600   -2.9920 P   0  0  0  0  0  0  0  0  0  0  0  0
   -0.0750   -4.4810   -3.5350 O   0  0  0  0  0  0  0  0  0  0  0  0
   -2.8720   -4.0870   -3.4990 O   0  0  0  0  0  0  0  0  0  0  0  0
   -0.3570   -0.4330    0.5760 C   0  0  2  0  0  0  0  0  0  0  0  0
    0.9200   -0.0580    0.2410 O   0  0  0  0  0  0  0  0  0  0  0  0
    1.4820    0.3480   -0.9360 C   0  0  0  0  0  0  0  0  0  0  0  0
    0.7480    0.4560   -2.0880 C   0  0  0  0  0  0  0  0  0  0  0  0
    1.3780    0.8720   -3.2400 C   0  0  0  0  0  0  0  0  0  0  0  0
    2.7160    1.1900   -3.3050 C   0  0  0  0  0  0  0  0  0  0  0  0
    3.4190    1.0640   -2.1090 C   0  0  0  0  0  0  0  0  0  0  0  0
    4.8700    1.3940   -2.1210 C   0  0  0  0  0  0  0  0  0  0  0  0
    5.2180    3.1520   -1.7280 P   0  0  0  0  0  0  0  0  0  0  0  0
    4.4370    3.6970   -0.2920 O   0  0  0  0  0  0  0  0  0  0  0  0
    4.8970    4.1500   -3.0910 O   0  0  0  0  0  0  0  0  0  0  0  0
    2.8160    0.6530   -0.9520 C   0  0  0  0  0  0  0  0  0  0  0  0
   -1.0820    0.6480    1.3430 C   0  0  0  0  0  0  0  0  0  0  0  0
   -0.5500    1.6990    1.7140 O   0  0  0  0  0  0  0  0  0  0  0  0
  1  2  2  0
  2  3  1  0
  2  4  1  0
  4  5  1  0
  5  6  1  0
  6  7  2  0
  6  8  1  0
  8  9  1  0
  8 33  1  0
  9 10  1  0
 11 10  1  1
 11 12  1  0
 11 15  1  0
 11 21  1  0
 12 13  1  0
 13 14  1  0
 14 15  1  0
 15 16  1  6
 16 17  1  0
 17 18  1  0
 18 19  1  0
 18 20  1  0
 21 22  1  1
 21 33  1  0
 22 23  1  0
 23 24  2  0
 23 32  1  0
 24 25  1  0
 25 26  2  0
 26 27  1  0
 27 28  1  0
 27 32  2  0
 28 29  1  0
 29 30  1  0
 29 31  1  0
 33 34  2  0
M  END
