
     RDKit          3D

 34 36  0  0  0  0  0  0  0  0999 V2000
   -5.0360    3.1850   -1.5470 C   0  0  0  0  0  0  0  0  0  0  0  0
   -5.7890    2.0430   -1.6810 O   0  0  0  0  0  0  0  0  0  0  0  0
   -6.4140    1.4840   -0.1670 P   0  0  0  0  0  0  0  0  0  0  0  0
   -5.2780    1.6840    1.1250 O   0  0  0  0  0  0  0  0  0  0  0  0
   -7.0410   -0.2450   -0.2900 C   0  0  0  0  0  0  0  0  0  0  0  0
   -6.2220   -1.1140    0.6300 C   0  0  0  0  0  0  0  0  0  0  0  0
   -4.8430   -1.0640    0.2330 N   0  0  0  0  0  0  0  0  0  0  0  0
   -3.8090   -1.7730    0.8960 C   0  0  0  0  0  0  0  0  0  0  0  0
   -4.0940   -2.4810    1.8760 O   0  0  0  0  0  0  0  0  0  0  0  0
   -2.4340   -1.6620    0.4220 C   0  0  1  0  0  0  0  0  0  0  0  0
   -1.5940   -2.4420    1.2400 O   0  0  0  0  0  0  0  0  0  0  0  0
   -2.2740   -2.2920   -0.9730 C   0  0  0  0  0  0  0  0  0  0  0  0
   -0.9240   -1.7430   -1.4590 C   0  0  0  0  0  0  0  0  0  0  0  0
   -0.0870   -1.4980   -0.3450 O   0  0  0  0  0  0  0  0  0  0  0  0
   -0.4350   -0.2630    0.2590 C   0  0  1  0  0  0  0  0  0  0  0  0
    0.0200   -0.2310    1.6680 C   0  0  0  0  0  0  0  0  0  0  0  0
    0.3330    1.1580    2.1530 C   0  0  0  0  0  0  0  0  0  0  0  0
    1.2600    1.7350    1.3260 O   0  0  0  0  0  0  0  0  0  0  0  0
    0.5990    2.0440    0.1380 C   0  0  0  0  0  0  0  0  0  0  0  0
    0.1460    0.8030   -0.5890 C   0  0  1  0  0  0  0  0  0  0  0  0
    1.2880    0.2620   -1.3690 C   0  0  0  0  0  0  0  0  0  0  0  0
    1.2660    0.1770   -2.6480 O   0  0  0  0  0  0  0  0  0  0  0  0
    2.4850   -0.2000   -0.7530 N   0  0  0  0  0  0  0  0  0  0  0  0
    3.5730   -0.7230   -1.5490 C   0  0  0  0  0  0  0  0  0  0  0  0
    4.7040   -1.1290   -0.6330 C   0  0  0  0  0  0  0  0  0  0  0  0
    5.1620    0.0900    0.1190 C   0  0  0  0  0  0  0  0  0  0  0  0
    6.5580   -0.3350    1.2710 P   0  0  0  0  0  0  0  0  0  0  0  0
    7.5230    1.0930    1.4630 O   0  0  0  0  0  0  0  0  0  0  0  0
    8.0770    1.4270    0.2580 C   0  0  0  0  0  0  0  0  0  0  0  0
    8.6600    0.4140   -0.4790 O   0  0  0  0  0  0  0  0  0  0  0  0
    8.6720   -0.9240   -0.2280 C   0  0  0  0  0  0  0  0  0  0  0  0
    9.6570   -1.6120   -0.5910 O   0  0  0  0  0  0  0  0  0  0  0  0
    7.5860   -1.4890    0.4250 O   0  0  0  0  0  0  0  0  0  0  0  0
   -1.9560   -0.2430    0.2790 C   0  0  0  0  0  0  0  0  0  0  0  0
  1  2  1  0
  2  3  1  0
  3  4  1  0
  3  5  1  0
  5  6  1  0
  6  7  1  0
  7  8  1  0
  8  9  2  0
  8 10  1  0
 10 11  1  1
 10 12  1  0
 10 34  1  0
 12 13  1  0
 13 14  1  0
 14 15  1  0
 15 16  1  1
 15 20  1  0
 15 34  1  0
 16 17  1  0
 17 18  1  0
 18 19  1  0
 19 20  1  0
 20 21  1  1
 21 22  2  0
 21 23  1  0
 23 24  1  0
 24 25  1  0
 25 26  1  0
 26 27  1  0
 27 28  1  0
 27 33  1  0
 28 29  1  0
 29 30  1  0
 30 31  1  0
 31 32  2  0
 31 33  1  0
M  END
