
     RDKit          3D

 33 36  0  0  0  0  0  0  0  0999 V2000
    0.8330    1.9330   -1.2010 O   0  0  0  0  0  0  0  0  0  0  0  0
    0.2110    1.3640   -0.2570 C   0  0  0  0  0  0  0  0  0  0  0  0
   -0.8260    1.9910    0.4810 N   0  0  0  0  0  0  0  0  0  0  0  0
   -1.0130    3.3710    0.8340 C   0  0  0  0  0  0  0  0  0  0  0  0
   -1.7960    4.1410   -0.2030 C   0  0  0  0  0  0  0  0  0  0  0  0
   -3.0380    3.5460   -0.3310 O   0  0  0  0  0  0  0  0  0  0  0  0
   -3.9850    4.3960   -1.5160 P   0  0  0  0  0  0  0  0  0  0  0  0
   -5.3510    5.1100   -0.6920 O   0  0  0  0  0  0  0  0  0  0  0  0
   -3.0250    5.6950   -2.1820 O   0  0  0  0  0  0  0  0  0  0  0  0
   -1.7440    0.9020    0.8490 C   0  0  0  0  0  0  0  0  0  0  0  0
   -0.9150   -0.3220    0.9210 C   0  0  1  0  0  0  0  0  0  0  0  0
   -0.7110   -0.8830    2.3360 C   0  0  0  0  0  0  0  0  0  0  0  0
   -0.6170   -2.2480    1.6510 C   0  0  0  0  0  0  0  0  0  0  0  0
   -1.5690   -1.6250    0.6070 C   0  0  2  0  0  0  0  0  0  0  0  0
   -1.4640   -2.1570   -0.6360 O   0  0  0  0  0  0  0  0  0  0  0  0
   -2.7000   -2.6420   -1.0410 C   0  0  0  0  0  0  0  0  0  0  0  0
   -3.7870   -1.6280   -1.1260 C   0  0  0  0  0  0  0  0  0  0  0  0
   -5.3410   -2.5090   -1.6850 P   0  0  0  0  0  0  0  0  0  0  0  0
   -5.0830   -4.2260   -1.7780 O   0  0  0  0  0  0  0  0  0  0  0  0
   -6.6680   -2.1850   -0.6180 O   0  0  0  0  0  0  0  0  0  0  0  0
   -6.6460   -2.9410    0.4560 O   0  0  0  0  0  0  0  0  0  0  0  0
    0.3750    0.0030    0.2970 C   0  0  2  0  0  0  0  0  0  0  0  0
    1.3310    0.1200    1.3170 O   0  0  0  0  0  0  0  0  0  0  0  0
    2.5760    0.4650    0.8550 C   0  0  0  0  0  0  0  0  0  0  0  0
    3.0350   -0.6370   -0.0740 C   0  0  2  0  0  0  0  0  0  0  0  0
    4.3470   -0.3680   -0.5100 N   0  0  0  0  0  0  0  0  0  0  0  0
    5.3540   -0.3400    0.4890 C   0  0  0  0  0  0  0  0  0  0  0  0
    6.4480   -1.3510    0.3490 C   0  0  0  0  0  0  0  0  0  0  0  0
    6.7760   -1.7000   -0.9320 O   0  0  0  0  0  0  0  0  0  0  0  0
    6.2350   -0.8580   -1.8790 C   0  0  0  0  0  0  0  0  0  0  0  0
    4.7110   -0.8520   -1.7900 C   0  0  0  0  0  0  0  0  0  0  0  0
    2.0150   -0.7510   -1.1630 C   0  0  0  0  0  0  0  0  0  0  0  0
    0.7590   -0.9210   -0.6620 O   0  0  0  0  0  0  0  0  0  0  0  0
  1  2  2  0
  2  3  1  0
  2 22  1  0
  3  4  1  0
  3 10  1  0
  4  5  1  0
  5  6  1  0
  6  7  1  0
  7  8  1  0
  7  9  1  0
 11 10  1  1
 11 12  1  0
 11 14  1  0
 11 22  1  0
 12 13  1  0
 13 14  1  0
 14 15  1  6
 15 16  1  0
 16 17  1  0
 17 18  1  0
 18 19  1  0
 18 20  1  0
 20 21  1  0
 22 23  1  1
 22 33  1  0
 23 24  1  0
 24 25  1  0
 25 26  1  6
 25 32  1  0
 26 27  1  0
 26 31  1  0
 27 28  1  0
 28 29  1  0
 29 30  1  0
 30 31  1  0
 32 33  1  0
M  END
