
     RDKit          3D

 34 36  0  0  0  0  0  0  0  0999 V2000
   -1.2550    1.7850    1.1620 C   0  0  0  0  0  0  0  0  0  0  0  0
   -0.9580    0.4810    0.6620 N   0  0  0  0  0  0  0  0  0  0  0  0
    0.4140    0.1500    0.5410 C   0  0  0  0  0  0  0  0  0  0  0  0
    0.7370   -0.9780    0.1150 O   0  0  0  0  0  0  0  0  0  0  0  0
    1.4410    1.0180    0.8730 O   0  0  0  0  0  0  0  0  0  0  0  0
    2.8150    0.6930    0.7540 C   0  0  1  0  0  0  0  0  0  0  0  0
    3.5890    1.9090    1.2180 C   0  0  0  0  0  0  0  0  0  0  0  0
    3.2060   -0.4700    1.6140 C   0  0  0  0  0  0  0  0  0  0  0  0
    3.2030    0.4380   -0.6860 C   0  0  0  0  0  0  0  0  0  0  0  0
    4.6640    0.1070   -0.7060 C   0  0  0  0  0  0  0  0  0  0  0  0
    5.4320   -0.1970   -1.8200 C   0  0  0  0  0  0  0  0  0  0  0  0
    6.7080   -0.4340   -1.3830 C   0  0  0  0  0  0  0  0  0  0  0  0
    8.0070   -0.7640   -1.7010 C   0  0  0  0  0  0  0  0  0  0  0  0
    8.7370   -0.7990   -0.5910 O   0  0  0  0  0  0  0  0  0  0  0  0
    7.9690   -0.5050    0.4410 C   0  0  0  0  0  0  0  0  0  0  0  0
    6.6910   -0.2710   -0.0200 C   0  0  0  0  0  0  0  0  0  0  0  0
    5.4840    0.0400    0.3110 O   0  0  0  0  0  0  0  0  0  0  0  0
   -1.9060   -0.5380    0.2610 C   0  0  1  0  0  0  0  0  0  0  0  0
   -3.3590   -0.1240    0.4430 C   0  0  1  0  0  0  0  0  0  0  0  0
   -3.6780    0.1770    1.7620 O   0  0  0  0  0  0  0  0  0  0  0  0
   -3.8160    0.8830   -0.5540 C   0  0  0  0  0  0  0  0  0  0  0  0
   -5.2740    1.2630   -0.3290 C   0  0  0  0  0  0  0  0  0  0  0  0
   -5.8530    2.5060   -1.5520 P   0  0  0  0  0  0  0  0  0  0  0  0
   -7.0010    3.6060   -0.8670 O   0  0  0  0  0  0  0  0  0  0  0  0
   -4.5620    3.3300   -2.3360 O   0  0  0  0  0  0  0  0  0  0  0  0
   -4.3400   -1.6940    0.0760 P   0  0  0  0  0  0  0  0  0  0  0  0
   -5.5210   -2.0170    1.2680 O   0  0  0  0  0  0  0  0  0  0  0  0
   -4.9740   -1.6820   -1.5220 O   0  0  0  0  0  0  0  0  0  0  0  0
   -1.7750   -0.8460   -1.0470 O   0  0  0  0  0  0  0  0  0  0  0  0
   -1.4600   -2.0590   -1.5020 C   0  0  0  0  0  0  0  0  0  0  0  0
   -1.6300   -3.2500   -0.6240 C   0  0  0  0  0  0  0  0  0  0  0  0
   -1.8800   -2.9760    0.7590 N   0  0  0  0  0  0  0  0  0  0  0  0
   -1.7160   -1.6550    1.2230 C   0  0  0  0  0  0  0  0  0  0  0  0
   -1.4160   -1.3690    2.4080 O   0  0  0  0  0  0  0  0  0  0  0  0
  1  2  1  0
  2  3  1  0
 18  2  1  1
  3  4  2  0
  3  5  1  0
  5  6  1  0
  6  7  1  1
  6  8  1  0
  6  9  1  0
  9 10  1  0
 10 11  2  0
 10 17  1  0
 11 12  1  0
 12 13  2  0
 12 16  1  0
 13 14  1  0
 14 15  1  0
 15 16  2  0
 16 17  1  0
 18 19  1  0
 18 29  1  0
 18 33  1  0
 19 20  1  1
 19 21  1  0
 19 26  1  0
 21 22  1  0
 22 23  1  0
 23 24  1  0
 23 25  1  0
 26 27  1  0
 26 28  1  0
 29 30  1  0
 30 31  1  0
 31 32  1  0
 32 33  1  0
 33 34  2  0
M  END
