
     RDKit          3D

 35 36  0  0  0  0  0  0  0  0999 V2000
   -1.1380   -3.4330   -1.3830 C   0  0  0  0  0  0  0  0  0  0  0  0
   -1.3770   -3.0420    0.0690 C   0  0  1  0  0  0  0  0  0  0  0  0
   -1.1110   -4.3780    0.8370 C   0  0  0  0  0  0  0  0  0  0  0  0
   -0.4050   -2.0150    0.5350 C   0  0  0  0  0  0  0  0  0  0  0  0
   -0.3230   -0.7290   -0.1440 C   0  0  2  0  0  0  0  0  0  0  0  0
    0.7190    0.1200    0.4180 N   0  0  0  0  0  0  0  0  0  0  0  0
    2.2900   -0.3780    0.3730 P   0  0  0  0  0  0  0  0  0  0  0  0
    3.2990   -0.1260    1.6740 O   0  0  0  0  0  0  0  0  0  0  0  0
    2.8420   -1.4500   -0.7920 O   0  0  0  0  0  0  0  0  0  0  0  0
    2.9050    0.8990   -0.4640 C   0  0  0  0  0  0  0  0  0  0  0  0
    4.3050    0.9540   -0.7480 N   0  0  0  0  0  0  0  0  0  0  0  0
    5.3630    1.1770    0.1500 C   0  0  0  0  0  0  0  0  0  0  0  0
    5.1560    1.3760    1.3640 O   0  0  0  0  0  0  0  0  0  0  0  0
    6.7140    1.1900   -0.2480 O   0  0  0  0  0  0  0  0  0  0  0  0
    7.6680    1.4270    0.7830 C   0  0  0  0  0  0  0  0  0  0  0  0
    9.0060    1.4050    0.1920 C   0  0  0  0  0  0  0  0  0  0  0  0
    9.6500    0.2130   -0.0140 C   0  0  0  0  0  0  0  0  0  0  0  0
   10.9190    0.1900   -0.5630 C   0  0  0  0  0  0  0  0  0  0  0  0
   11.5390    1.3800   -0.9060 C   0  0  0  0  0  0  0  0  0  0  0  0
   10.9160    2.5800   -0.7100 C   0  0  0  0  0  0  0  0  0  0  0  0
    9.6320    2.5710   -0.1530 C   0  0  0  0  0  0  0  0  0  0  0  0
   -1.4880    0.1730   -0.1920 C   0  0  0  0  0  0  0  0  0  0  0  0
   -1.2190    1.3590   -0.6780 O   0  0  0  0  0  0  0  0  0  0  0  0
   -2.7960   -0.0260    0.1950 N   0  0  0  0  0  0  0  0  0  0  0  0
   -3.8260    1.0790    0.0410 C   0  0  1  0  0  0  0  0  0  0  0  0
   -4.9690    0.3890   -0.5860 C   0  0  0  0  0  0  0  0  0  0  0  0
   -6.2030    1.0900   -0.9420 C   0  0  1  0  0  0  0  0  0  0  0  0
   -7.1330    0.0380   -1.5840 C   0  0  0  0  0  0  0  0  0  0  0  0
   -8.4090   -0.1490   -0.8360 C   0  0  0  0  0  0  0  0  0  0  0  0
   -8.3290   -0.2270    0.6410 C   0  0  0  0  0  0  0  0  0  0  0  0
   -7.3040    0.7410    1.1890 C   0  0  0  0  0  0  0  0  0  0  0  0
   -6.9960    1.7560    0.1350 C   0  0  0  0  0  0  0  0  0  0  0  0
   -4.0370    1.5650    1.4280 C   0  0  0  0  0  0  0  0  0  0  0  0
   -3.8340    0.7840    2.3820 O   0  0  0  0  0  0  0  0  0  0  0  0
   -4.4440    2.8420    1.7300 O   0  0  0  0  0  0  0  0  0  0  0  0
  2  1  1  6
  2  3  1  0
  2  4  1  0
  5  4  1  1
  5  6  1  0
  5 22  1  0
  6  7  1  0
  7  8  1  0
  7  9  1  0
  7 10  1  0
 10 11  1  0
 11 12  1  0
 12 13  2  0
 12 14  1  0
 14 15  1  0
 15 16  1  0
 16 17  2  0
 16 21  1  0
 17 18  1  0
 18 19  2  0
 19 20  1  0
 20 21  2  0
 22 23  2  0
 22 24  1  0
 24 25  1  0
 25 26  1  1
 25 33  1  0
 27 26  1  1
 27 28  1  0
 27 32  1  0
 28 29  1  0
 29 30  1  0
 30 31  1  0
 31 32  1  0
 33 34  2  0
 33 35  1  0
M  END
