
     RDKit          3D

 33 36  0  0  0  0  0  0  0  0999 V2000
   -3.2010   -4.4670   -1.2110 O   0  0  0  0  0  0  0  0  0  0  0  0
   -2.8990   -3.5680   -0.3720 C   0  0  0  0  0  0  0  0  0  0  0  0
   -1.8810   -2.5210   -0.7250 C   0  0  0  0  0  0  0  0  0  0  0  0
   -2.1340   -1.2730   -0.0400 N   0  0  0  0  0  0  0  0  0  0  0  0
   -1.6220   -0.1140   -0.6980 C   0  0  0  0  0  0  0  0  0  0  0  0
   -0.0990   -0.1000   -0.6800 C   0  0  2  0  0  0  0  0  0  0  0  0
    0.3510   -1.2360   -1.3390 O   0  0  0  0  0  0  0  0  0  0  0  0
    0.4260   -0.2130    1.0880 P   0  0  0  0  0  0  0  0  0  0  0  0
    0.7400    1.3090    1.7970 O   0  0  0  0  0  0  0  0  0  0  0  0
    1.6290   -1.3900    1.3680 O   0  0  0  0  0  0  0  0  0  0  0  0
    0.6000    1.3830   -1.5070 P   0  0  0  0  0  0  0  0  0  0  0  0
   -0.6830    2.2450   -2.2950 O   0  0  0  0  0  0  0  0  0  0  0  0
    1.4290    2.3800   -0.3590 O   0  0  0  0  0  0  0  0  0  0  0  0
    2.8140    2.2290   -0.4530 C   0  0  0  0  0  0  0  0  0  0  0  0
    3.2060    0.8910   -0.2140 O   0  0  0  0  0  0  0  0  0  0  0  0
    4.5250    0.5230   -0.2560 C   0  0  0  0  0  0  0  0  0  0  0  0
    5.4930    1.4610   -0.5340 C   0  0  0  0  0  0  0  0  0  0  0  0
    6.8070    1.0540   -0.5680 C   0  0  0  0  0  0  0  0  0  0  0  0
    7.1710   -0.2510   -0.3330 C   0  0  0  0  0  0  0  0  0  0  0  0
    8.5210   -0.5760   -0.3870 O   0  0  0  0  0  0  0  0  0  0  0  0
    6.1990   -1.1940   -0.0540 C   0  0  0  0  0  0  0  0  0  0  0  0
    4.8710   -0.8070   -0.0150 C   0  0  0  0  0  0  0  0  0  0  0  0
   -3.5030   -1.2080    0.3200 C   0  0  2  0  0  0  0  0  0  0  0  0
   -4.0490    0.0920    0.7050 C   0  0  0  0  0  0  0  0  0  0  0  0
   -4.3660    0.5480    1.9710 C   0  0  0  0  0  0  0  0  0  0  0  0
   -4.8150    1.7680    1.8470 O   0  0  0  0  0  0  0  0  0  0  0  0
   -4.8270    2.1710    0.6100 C   0  0  0  0  0  0  0  0  0  0  0  0
   -5.1150    3.1950   -0.2810 C   0  0  0  0  0  0  0  0  0  0  0  0
   -4.8250    2.7920   -1.4920 O   0  0  0  0  0  0  0  0  0  0  0  0
   -4.3640    1.5740   -1.4790 C   0  0  0  0  0  0  0  0  0  0  0  0
   -4.3430    1.1240   -0.1510 C   0  0  0  0  0  0  0  0  0  0  0  0
   -3.6240   -2.2020    1.5170 C   0  0  0  0  0  0  0  0  0  0  0  0
   -3.4810   -3.4950    0.9100 N   0  0  0  0  0  0  0  0  0  0  0  0
  1  2  2  0
  2  3  1  0
  2 33  1  0
  3  4  1  0
  4  5  1  0
  4 23  1  0
  5  6  1  0
  6  7  1  6
  6  8  1  0
  6 11  1  0
  8  9  1  0
  8 10  1  0
 11 12  1  0
 11 13  1  0
 13 14  1  0
 14 15  1  0
 15 16  1  0
 16 17  2  0
 16 22  1  0
 17 18  1  0
 18 19  2  0
 19 20  1  0
 19 21  1  0
 21 22  2  0
 23 24  1  1
 23 32  1  0
 24 25  2  0
 24 31  1  0
 25 26  1  0
 26 27  1  0
 27 28  2  0
 27 31  1  0
 28 29  1  0
 29 30  1  0
 30 31  2  0
 32 33  1  0
M  END
