
     RDKit          3D

 31 33  0  0  0  0  0  0  0  0999 V2000
   -4.6540   -0.3390    3.4660 C   0  0  0  0  0  0  0  0  0  0  0  0
   -4.6580    0.6330    2.3060 C   0  0  1  0  0  0  0  0  0  0  0  0
   -3.2860    0.9660    1.8630 C   0  0  0  0  0  0  0  0  0  0  0  0
   -2.3880    1.4420    2.6070 O   0  0  0  0  0  0  0  0  0  0  0  0
   -3.1930    0.6520    0.4810 N   0  0  0  0  0  0  0  0  0  0  0  0
   -2.3560    0.6290   -0.7010 C   0  0  0  0  0  0  0  0  0  0  0  0
   -0.9690    1.0610   -0.7640 C   0  0  0  0  0  0  0  0  0  0  0  0
   -0.2650    1.0120   -1.8340 O   0  0  0  0  0  0  0  0  0  0  0  0
   -0.2240    1.5820    0.3180 N   0  0  0  0  0  0  0  0  0  0  0  0
    1.1860    1.9840    0.1490 C   0  0  0  0  0  0  0  0  0  0  0  0
    2.0480    0.8460   -0.2340 C   0  0  0  0  0  0  0  0  0  0  0  0
    2.0620   -0.1940    0.6860 O   0  0  0  0  0  0  0  0  0  0  0  0
    3.0600   -1.5010    0.2340 P   0  0  0  0  0  0  0  0  0  0  0  0
    2.6050   -2.9650    1.0280 O   0  0  0  0  0  0  0  0  0  0  0  0
    4.8550   -1.1950    0.4660 C   0  0  1  0  0  0  0  0  0  0  0  0
    5.5530   -0.8990   -0.8650 C   0  0  0  0  0  0  0  0  0  0  0  0
    6.9560   -0.4490   -0.5330 C   0  0  0  0  0  0  0  0  0  0  0  0
    6.8530    0.8660    0.1970 C   0  0  0  0  0  0  0  0  0  0  0  0
    5.6410    1.0590    0.8150 O   0  0  0  0  0  0  0  0  0  0  0  0
    5.1380   -0.0720    1.4270 C   0  0  0  0  0  0  0  0  0  0  0  0
   -3.0720    0.1350   -1.7360 C   0  0  0  0  0  0  0  0  0  0  0  0
   -2.5950   -0.0480   -3.0860 C   0  0  0  0  0  0  0  0  0  0  0  0
   -3.3080   -0.5590   -4.1940 N   0  0  0  0  0  0  0  0  0  0  0  0
   -1.4060    0.2630   -3.4020 O   0  0  0  0  0  0  0  0  0  0  0  0
   -4.4010   -0.1900   -1.3020 N   0  0  0  0  0  0  0  0  0  0  0  0
   -5.4880   -0.7240   -2.0220 C   0  0  0  0  0  0  0  0  0  0  0  0
   -5.5390   -1.0400   -3.2140 O   0  0  0  0  0  0  0  0  0  0  0  0
   -6.7080   -0.9450   -1.3150 O   0  0  0  0  0  0  0  0  0  0  0  0
   -4.4640    0.1430    0.1040 C   0  0  0  0  0  0  0  0  0  0  0  0
   -5.3140    0.1190    1.1200 C   0  0  0  0  0  0  0  0  0  0  0  0
   -6.6470   -0.3320    1.0710 O   0  0  0  0  0  0  0  0  0  0  0  0
  2  1  1  1
  2  3  1  0
  2 30  1  0
  3  4  2  0
  3  5  1  0
  5  6  1  0
  5 29  1  0
  6  7  1  0
  6 21  2  0
  7  8  2  0
  7  9  1  0
  9 10  1  0
 10 11  1  0
 11 12  1  0
 12 13  1  0
 13 14  1  0
 15 13  1  6
 15 16  1  0
 15 20  1  0
 16 17  1  0
 17 18  1  0
 18 19  1  0
 19 20  1  0
 21 22  1  0
 21 25  1  0
 22 23  1  0
 22 24  2  0
 25 26  1  0
 25 29  1  0
 26 27  2  0
 26 28  1  0
 29 30  2  0
 30 31  1  0
M  END
