
     RDKit          3D

 31 33  0  0  0  0  0  0  0  0999 V2000
   10.5980   -0.4580   -0.1000 N   0  0  0  0  0  0  0  0  0  0  0  0
    9.3200   -0.2670   -0.6540 C   0  0  0  0  0  0  0  0  0  0  0  0
    9.0710   -0.4680   -1.8850 O   0  0  0  0  0  0  0  0  0  0  0  0
    8.2390    0.1640    0.1520 N   0  0  0  0  0  0  0  0  0  0  0  0
    6.9110    0.3700   -0.3880 C   0  0  2  0  0  0  0  0  0  0  0  0
    6.2900    1.6930    0.0320 C   0  0  0  0  0  0  0  0  0  0  0  0
    5.0370    1.0010    0.2380 N   0  0  0  0  0  0  0  0  0  0  0  0
    3.6840    1.4090    0.2490 C   0  0  0  0  0  0  0  0  0  0  0  0
    3.3640    2.6030    0.0510 O   0  0  0  0  0  0  0  0  0  0  0  0
    2.6500    0.5040    0.4790 O   0  0  0  0  0  0  0  0  0  0  0  0
    1.3020    0.9320    0.4870 C   0  0  0  0  0  0  0  0  0  0  0  0
    0.4730   -0.1880    0.7430 O   0  0  0  0  0  0  0  0  0  0  0  0
   -0.9000   -0.0060    0.7970 C   0  0  0  0  0  0  0  0  0  0  0  0
   -1.3570    1.1510    0.6150 O   0  0  0  0  0  0  0  0  0  0  0  0
   -1.8360   -1.1360    1.0620 C   0  0  2  0  0  0  0  0  0  0  0  0
   -1.6780   -2.1950   -0.0080 C   0  0  0  0  0  0  0  0  0  0  0  0
   -2.2360   -1.4590   -1.1960 C   0  0  0  0  0  0  0  0  0  0  0  0
   -3.5100   -0.9250   -0.6110 N   0  0  0  0  0  0  0  0  0  0  0  0
   -4.6520   -0.7480   -1.3930 C   0  0  0  0  0  0  0  0  0  0  0  0
   -4.5100   -1.0860   -2.6360 O   0  0  0  0  0  0  0  0  0  0  0  0
   -5.9280   -0.2460   -0.9790 C   0  0  0  0  0  0  0  0  0  0  0  0
   -6.2990    0.1540    0.2040 C   0  0  0  0  0  0  0  0  0  0  0  0
   -7.6440    0.6640    0.5640 C   0  0  1  0  0  0  0  0  0  0  0  0
   -8.1900   -0.1400    1.5970 O   0  0  0  0  0  0  0  0  0  0  0  0
   -7.5110    2.4250    1.2140 P   0  0  0  0  0  0  0  0  0  0  0  0
   -8.0470    2.8090    2.6180 O   0  0  0  0  0  0  0  0  0  0  0  0
   -8.5410    0.6930   -0.5000 O   0  0  0  0  0  0  0  0  0  0  0  0
   -8.1850    0.2810   -1.7560 C   0  0  0  0  0  0  0  0  0  0  0  0
   -6.9830   -0.1620   -2.0200 C   0  0  0  0  0  0  0  0  0  0  0  0
   -3.2750   -0.6800    0.7820 C   0  0  0  0  0  0  0  0  0  0  0  0
    5.7920   -0.2390    0.4170 C   0  0  0  0  0  0  0  0  0  0  0  0
  1  2  1  0
  2  3  2  0
  2  4  1  0
  5  4  1  1
  5  6  1  0
  5 31  1  0
  6  7  1  0
  7  8  1  0
  7 31  1  0
  8  9  2  0
  8 10  1  0
 10 11  1  0
 11 12  1  0
 12 13  1  0
 13 14  2  0
 15 13  1  6
 15 16  1  0
 15 30  1  0
 16 17  1  0
 17 18  1  0
 18 19  1  0
 18 30  1  0
 19 20  2  0
 19 21  1  0
 21 22  2  0
 21 29  1  0
 22 23  1  0
 23 24  1  1
 23 25  1  0
 23 27  1  0
 25 26  2  0
 27 28  1  0
 28 29  2  0
M  END
