
     RDKit          3D

 30 32  0  0  0  0  0  0  0  0999 V2000
   -1.0220   -1.8040   -3.8270 C   0  0  0  0  0  0  0  0  0  0  0  0
   -0.7230   -1.4160   -2.5120 O   0  0  0  0  0  0  0  0  0  0  0  0
    0.2730   -0.5080   -2.1820 C   0  0  0  0  0  0  0  0  0  0  0  0
    0.9460   -0.0030   -3.1040 O   0  0  0  0  0  0  0  0  0  0  0  0
    0.4480   -0.2160   -0.7390 C   0  0  2  0  0  0  0  0  0  0  0  0
   -0.7480    0.3460   -0.1130 C   0  0  0  0  0  0  0  0  0  0  0  0
   -2.0040   -0.0470   -0.2570 N   0  0  0  0  0  0  0  0  0  0  0  0
   -2.8160    0.7230    0.4840 C   0  0  0  0  0  0  0  0  0  0  0  0
   -4.2800    0.6240    0.6080 C   0  0  0  0  0  0  0  0  0  0  0  0
   -4.9990   -0.3290   -0.0710 C   0  0  0  0  0  0  0  0  0  0  0  0
   -6.3730   -0.4180    0.0470 C   0  0  0  0  0  0  0  0  0  0  0  0
   -7.0470    0.4680    0.8630 C   0  0  0  0  0  0  0  0  0  0  0  0
   -8.4250    0.4530    1.0420 O   0  0  0  0  0  0  0  0  0  0  0  0
   -6.2970    1.4150    1.5330 C   0  0  0  0  0  0  0  0  0  0  0  0
   -4.9560    1.4780    1.3990 N   0  0  0  0  0  0  0  0  0  0  0  0
   -2.0050    1.6090    1.0920 N   0  0  0  0  0  0  0  0  0  0  0  0
   -0.7910    1.3650    0.7220 O   0  0  0  0  0  0  0  0  0  0  0  0
    1.6200    0.7520   -0.5200 C   0  0  0  0  0  0  0  0  0  0  0  0
    2.1090    0.3680    0.7340 N   0  0  0  0  0  0  0  0  0  0  0  0
    3.0200    1.1240    1.4290 C   0  0  0  0  0  0  0  0  0  0  0  0
    4.4120    1.2330    0.8720 C   0  0  1  0  0  0  0  0  0  0  0  0
    4.4340    1.7990   -0.4010 O   0  0  0  0  0  0  0  0  0  0  0  0
    5.4140    2.3690    1.9780 P   0  0  0  0  0  0  0  0  0  0  0  0
    6.9740    2.6780    1.3080 O   0  0  0  0  0  0  0  0  0  0  0  0
    4.5540    3.8300    2.2830 O   0  0  0  0  0  0  0  0  0  0  0  0
    1.5440   -0.7950    1.2260 C   0  0  0  0  0  0  0  0  0  0  0  0
    0.9980   -1.4470   -0.0560 C   0  0  1  0  0  0  0  0  0  0  0  0
    0.0100   -2.5150    0.2160 C   0  0  0  0  0  0  0  0  0  0  0  0
    2.2010   -1.9190   -0.8400 C   0  0  0  0  0  0  0  0  0  0  0  0
    2.7690   -3.0600   -0.2710 O   0  0  0  0  0  0  0  0  0  0  0  0
  1  2  1  0
  2  3  1  0
  3  4  2  0
  5  3  1  6
  5  6  1  0
  5 18  1  0
  5 27  1  0
  6  7  2  0
  6 17  1  0
  7  8  1  0
  8  9  1  0
  8 16  2  0
  9 10  2  0
  9 15  1  0
 10 11  1  0
 11 12  2  0
 12 13  1  0
 12 14  1  0
 14 15  2  0
 16 17  1  0
 18 19  1  0
 19 20  1  0
 19 26  1  0
 20 21  1  0
 21 22  1  6
 21 23  1  0
 23 24  1  0
 23 25  1  0
 26 27  1  0
 27 28  1  1
 27 29  1  0
 29 30  1  0
M  END
