
     RDKit          3D

 31 33  0  0  0  0  0  0  0  0999 V2000
   -6.0460    0.1050   -2.4110 C   0  0  0  0  0  0  0  0  0  0  0  0
   -4.6300    0.2110   -2.2210 C   0  0  0  0  0  0  0  0  0  0  0  0
   -3.8980   -0.1660   -1.1150 C   0  0  0  0  0  0  0  0  0  0  0  0
   -2.4900    0.1090   -1.3260 C   0  0  0  0  0  0  0  0  0  0  0  0
   -2.1230    0.6430   -2.4580 O   0  0  0  0  0  0  0  0  0  0  0  0
   -1.4570   -0.1290   -0.4540 N   0  0  0  0  0  0  0  0  0  0  0  0
   -0.0700    0.1920   -0.7750 C   0  0  0  0  0  0  0  0  0  0  0  0
    0.8880   -0.0590    0.1020 C   0  0  0  0  0  0  0  0  0  0  0  0
    0.7530   -0.6270    1.3870 O   0  0  0  0  0  0  0  0  0  0  0  0
    2.0520   -0.6220    2.0160 C   0  0  0  0  0  0  0  0  0  0  0  0
    2.9300   -0.8440    0.8190 C   0  0  2  0  0  0  0  0  0  0  0  0
    4.3530   -0.6830    0.9640 C   0  0  0  0  0  0  0  0  0  0  0  0
    4.9480   -1.3350    1.8670 O   0  0  0  0  0  0  0  0  0  0  0  0
    5.1550    0.1850    0.1360 N   0  0  0  0  0  0  0  0  0  0  0  0
    6.5760    0.1270    0.2730 C   0  0  1  0  0  0  0  0  0  0  0  0
    7.2780   -0.2300   -0.9670 C   0  0  0  0  0  0  0  0  0  0  0  0
    8.1180    0.6730   -1.2870 N   0  0  0  0  0  0  0  0  0  0  0  0
    8.1240    1.7260   -0.3760 N   0  0  0  0  0  0  0  0  0  0  0  0
    7.1710    1.4390    0.6340 C   0  0  0  0  0  0  0  0  0  0  0  0
    6.8680    2.1240    1.6330 O   0  0  0  0  0  0  0  0  0  0  0  0
    4.4860    1.0500   -0.7730 C   0  0  0  0  0  0  0  0  0  0  0  0
    5.1670    1.8160   -1.4970 O   0  0  0  0  0  0  0  0  0  0  0  0
    3.0040    1.0130   -0.8310 C   0  0  0  0  0  0  0  0  0  0  0  0
    2.3060    0.2090   -0.0860 C   0  0  0  0  0  0  0  0  0  0  0  0
   -4.6460   -0.7120   -0.0590 C   0  0  0  0  0  0  0  0  0  0  0  0
   -4.3570   -1.1700    1.0990 C   0  0  0  0  0  0  0  0  0  0  0  0
   -3.1940   -1.3270    1.8080 O   0  0  0  0  0  0  0  0  0  0  0  0
   -6.0800   -0.7840   -0.3130 O   0  0  0  0  0  0  0  0  0  0  0  0
   -7.2060   -0.6140    1.0030 P   0  0  0  0  0  0  0  0  0  0  0  0
   -8.7320   -1.2590    0.4880 O   0  0  0  0  0  0  0  0  0  0  0  0
   -7.4390    1.0120    1.4950 O   0  0  0  0  0  0  0  0  0  0  0  0
  1  2  1  0
  2  3  2  3
  3  4  1  0
  3 25  1  0
  4  5  2  0
  4  6  1  0
  6  7  1  0
  7  8  2  3
  8  9  1  0
  8 24  1  0
  9 10  1  0
 11 10  1  1
 11 12  1  0
 11 24  1  0
 12 13  2  0
 12 14  1  0
 15 14  1  6
 14 21  1  0
 15 16  1  0
 15 19  1  0
 16 17  2  0
 17 18  1  0
 18 19  1  0
 19 20  2  0
 21 22  2  0
 21 23  1  0
 23 24  2  0
 25 26  2  3
 25 28  1  0
 26 27  1  0
 28 29  1  0
 29 30  1  0
 29 31  1  0
M  END
