
     RDKit          3D

 31 33  0  0  0  0  0  0  0  0999 V2000
   -5.2500    3.0150    0.4690 C   0  0  0  0  0  0  0  0  0  0  0  0
   -4.2370    1.9330    0.3070 C   0  0  0  0  0  0  0  0  0  0  0  0
   -4.5080    0.6180    0.5840 C   0  0  0  0  0  0  0  0  0  0  0  0
   -3.5760   -0.3980    0.4380 C   0  0  0  0  0  0  0  0  0  0  0  0
   -3.9130   -1.6790    0.7320 N   0  0  0  0  0  0  0  0  0  0  0  0
   -3.0290   -2.6770    0.5990 C   0  0  0  0  0  0  0  0  0  0  0  0
   -3.3180   -4.0080    0.8840 C   0  0  0  0  0  0  0  0  0  0  0  0
   -4.4650   -4.2710    1.2850 O   0  0  0  0  0  0  0  0  0  0  0  0
   -2.3560   -4.9490    0.7190 N   0  0  0  0  0  0  0  0  0  0  0  0
   -1.1130   -4.6730    0.2860 C   0  0  0  0  0  0  0  0  0  0  0  0
   -0.2590   -5.5980    0.1520 O   0  0  0  0  0  0  0  0  0  0  0  0
   -0.8210   -3.3870    0.0060 N   0  0  0  0  0  0  0  0  0  0  0  0
   -1.6840   -2.3880    0.1320 C   0  0  0  0  0  0  0  0  0  0  0  0
   -1.3900   -1.0850   -0.1520 N   0  0  0  0  0  0  0  0  0  0  0  0
   -0.0670   -0.8230   -0.6070 C   0  0  0  0  0  0  0  0  0  0  0  0
    0.9220   -0.5150    0.4560 C   0  0  2  0  0  0  0  0  0  0  0  0
    0.6720    0.5730    1.2400 O   0  0  0  0  0  0  0  0  0  0  0  0
    2.3410   -0.4820   -0.0920 C   0  0  2  0  0  0  0  0  0  0  0  0
    3.1930   -0.4830    1.0400 O   0  0  0  0  0  0  0  0  0  0  0  0
    2.6580    0.7890   -0.8260 C   0  0  2  0  0  0  0  0  0  0  0  0
    1.9250    0.9780   -1.9770 O   0  0  0  0  0  0  0  0  0  0  0  0
    4.1530    0.7690   -1.1170 C   0  0  0  0  0  0  0  0  0  0  0  0
    4.8530    0.5740    0.0890 O   0  0  0  0  0  0  0  0  0  0  0  0
    6.5060    0.5400   -0.1450 P   0  0  1  0  0  0  0  0  0  0  0  0
    6.9930   -0.9090   -0.1490 O   0  0  0  0  0  0  0  0  0  0  0  0
    6.9560    1.1850   -1.6500 O   0  0  0  0  0  0  0  0  0  0  0  0
    7.2840    1.4110    1.0710 O   0  0  0  0  0  0  0  0  0  0  0  0
   -2.2910   -0.1020   -0.0110 C   0  0  0  0  0  0  0  0  0  0  0  0
   -2.0180    1.2200   -0.2900 C   0  0  0  0  0  0  0  0  0  0  0  0
   -2.9660    2.2290   -0.1370 C   0  0  0  0  0  0  0  0  0  0  0  0
   -2.6680    3.6500   -0.4380 C   0  0  0  0  0  0  0  0  0  0  0  0
  1  2  1  0
  2  3  2  0
  2 30  1  0
  3  4  1  0
  4  5  1  0
  4 28  2  0
  5  6  2  0
  6  7  1  0
  6 13  1  0
  7  8  2  0
  7  9  1  0
  9 10  1  0
 10 11  2  0
 10 12  1  0
 12 13  2  0
 13 14  1  0
 14 15  1  0
 14 28  1  0
 15 16  1  0
 16 17  1  6
 16 18  1  0
 18 19  1  1
 18 20  1  0
 20 21  1  6
 20 22  1  0
 22 23  1  0
 23 24  1  0
 24 25  2  0
 24 26  1  6
 24 27  1  0
 28 29  1  0
 29 30  2  0
 30 31  1  0
M  END
