
     RDKit          3D

 31 32  0  0  0  0  0  0  0  0999 V2000
    7.8270    0.6670   -1.7520 C   0  0  0  0  0  0  0  0  0  0  0  0
    6.3560    0.6220   -1.4690 C   0  0  0  0  0  0  0  0  0  0  0  0
    5.9670    0.3950   -0.2280 C   0  0  0  0  0  0  0  0  0  0  0  0
    6.9740    0.2050    0.7700 C   0  0  0  0  0  0  0  0  0  0  0  0
    6.8300   -0.0310    2.0520 C   0  0  0  0  0  0  0  0  0  0  0  0
    7.9640   -0.1840    2.8770 O   0  0  0  0  0  0  0  0  0  0  0  0
    8.8490   -1.6780    2.8400 P   0  0  0  0  0  0  0  0  0  0  0  0
    7.9270   -3.0480    2.3980 O   0  0  0  0  0  0  0  0  0  0  0  0
   10.2300   -1.5340    1.8280 O   0  0  0  0  0  0  0  0  0  0  0  0
    4.6040    0.4130    0.1680 C   0  0  0  0  0  0  0  0  0  0  0  0
    4.1860    0.1780    1.3240 O   0  0  0  0  0  0  0  0  0  0  0  0
    3.5960    0.7090   -0.7030 N   0  0  0  0  0  0  0  0  0  0  0  0
    2.2870    0.8860   -0.6360 C   0  0  0  0  0  0  0  0  0  0  0  0
    1.9800    1.2810   -1.8670 O   0  0  0  0  0  0  0  0  0  0  0  0
    1.1210    0.8650    0.0560 N   0  0  0  0  0  0  0  0  0  0  0  0
    0.1580    0.7820    0.8090 C   0  0  0  0  0  0  0  0  0  0  0  0
    0.5600    0.3800    1.9900 O   0  0  0  0  0  0  0  0  0  0  0  0
   -1.2640    1.0320    0.6270 C   0  0  0  0  0  0  0  0  0  0  0  0
   -1.6780    1.5050   -0.4600 O   0  0  0  0  0  0  0  0  0  0  0  0
   -2.1400    0.7550    1.6090 O   0  0  0  0  0  0  0  0  0  0  0  0
   -3.5300    0.9410    1.5230 C   0  0  0  0  0  0  0  0  0  0  0  0
   -4.1480    0.1380    0.4240 C   0  0  0  0  0  0  0  0  0  0  0  0
   -5.5510    0.2440    0.2860 N   0  0  0  0  0  0  0  0  0  0  0  0
   -6.2710    1.1900   -0.5530 C   0  0  0  0  0  0  0  0  0  0  0  0
   -7.3780    0.3880   -1.2060 C   0  0  1  0  0  0  0  0  0  0  0  0
   -6.7800   -0.9240   -1.6780 C   0  0  0  0  0  0  0  0  0  0  0  0
   -7.3940   -1.9490   -0.7500 C   0  0  0  0  0  0  0  0  0  0  0  0
   -7.7110   -1.0650    0.4590 C   0  0  2  0  0  0  0  0  0  0  0  0
   -8.3680    0.0610   -0.2000 N   0  0  0  0  0  0  0  0  0  0  0  0
   -6.3830   -0.6480    1.0200 C   0  0  0  0  0  0  0  0  0  0  0  0
   -6.0150   -1.1050    2.1580 O   0  0  0  0  0  0  0  0  0  0  0  0
  1  2  1  0
  2  3  2  3
  3  4  1  0
  3 10  1  0
  4  5  2  3
  5  6  1  0
  6  7  1  0
  7  8  1  0
  7  9  1  0
 10 11  2  0
 10 12  1  0
 12 13  1  0
 13 14  2  0
 13 15  1  0
 15 16  1  0
 16 17  2  0
 16 18  1  0
 18 19  2  0
 18 20  1  0
 20 21  1  0
 21 22  1  0
 22 23  1  0
 23 24  1  0
 23 30  1  0
 25 24  1  1
 25 26  1  0
 25 29  1  0
 26 27  1  0
 28 27  1  6
 28 29  1  0
 28 30  1  0
 30 31  2  0
M  END
