
     RDKit          3D

 31 33  0  0  0  0  0  0  0  0999 V2000
    6.1230   -3.1000   -0.7770 O   0  0  0  0  0  0  0  0  0  0  0  0
    5.7750   -2.2470   -1.6110 C   0  0  0  0  0  0  0  0  0  0  0  0
    6.5500   -1.9960   -2.7110 O   0  0  0  0  0  0  0  0  0  0  0  0
    4.5370   -1.5130   -1.4150 C   0  0  0  0  0  0  0  0  0  0  0  0
    3.7110   -1.6980   -0.3550 C   0  0  0  0  0  0  0  0  0  0  0  0
    2.5260   -0.9610   -0.2150 C   0  0  0  0  0  0  0  0  0  0  0  0
    2.1340   -0.0260   -1.1200 C   0  0  0  0  0  0  0  0  0  0  0  0
    0.9460    0.7290   -1.0240 N   0  0  0  0  0  0  0  0  0  0  0  0
   -0.0920    0.5450   -0.0890 C   0  0  0  0  0  0  0  0  0  0  0  0
   -0.0230   -0.3560    0.7610 O   0  0  0  0  0  0  0  0  0  0  0  0
   -1.3150    1.4430   -0.1040 C   0  0  2  0  0  0  0  0  0  0  0  0
   -0.8550    2.8700    0.0260 C   0  0  0  0  0  0  0  0  0  0  0  0
   -0.1010    3.0760    1.3110 C   0  0  0  0  0  0  0  0  0  0  0  0
    0.4290    4.8580    1.3940 P   0  0  0  0  0  0  0  0  0  0  0  0
    1.1250    5.3560   -0.1000 O   0  0  0  0  0  0  0  0  0  0  0  0
   -0.9590    5.8150    1.7720 O   0  0  0  0  0  0  0  0  0  0  0  0
   -2.2170    1.0480    0.9300 N   0  0  0  0  0  0  0  0  0  0  0  0
   -2.7840   -0.2520    0.9760 C   0  0  0  0  0  0  0  0  0  0  0  0
   -2.9420   -1.0420   -0.0380 N   0  0  0  0  0  0  0  0  0  0  0  0
   -3.5410   -2.2660    0.3660 C   0  0  0  0  0  0  0  0  0  0  0  0
   -3.9070   -3.3860   -0.2800 N   0  0  0  0  0  0  0  0  0  0  0  0
   -4.4590   -4.3860    0.4010 C   0  0  0  0  0  0  0  0  0  0  0  0
   -4.8020   -5.4370   -0.2090 O   0  0  0  0  0  0  0  0  0  0  0  0
   -4.6840   -4.3670    1.6990 O   0  0  0  0  0  0  0  0  0  0  0  0
   -4.3490   -3.3030    2.3800 C   0  0  0  0  0  0  0  0  0  0  0  0
   -4.5430   -3.2330    3.6330 O   0  0  0  0  0  0  0  0  0  0  0  0
   -3.7720   -2.2330    1.7310 C   0  0  0  0  0  0  0  0  0  0  0  0
   -3.2930   -0.9360    2.1710 C   0  0  0  0  0  0  0  0  0  0  0  0
   -3.3160   -0.4990    3.3490 O   0  0  0  0  0  0  0  0  0  0  0  0
    2.9990    0.1500   -2.2050 C   0  0  0  0  0  0  0  0  0  0  0  0
    4.1590   -0.5550   -2.3650 C   0  0  0  0  0  0  0  0  0  0  0  0
  1  2  2  0
  2  3  1  0
  2  4  1  0
  4  5  2  0
  4 31  1  0
  5  6  1  0
  6  7  2  0
  7  8  1  0
  7 30  1  0
  8  9  1  0
  9 10  2  0
  9 11  1  0
 11 12  1  1
 11 17  1  0
 12 13  1  0
 13 14  1  0
 14 15  1  0
 14 16  1  0
 17 18  1  0
 18 19  2  0
 18 28  1  0
 19 20  1  0
 20 21  1  0
 20 27  2  0
 21 22  1  0
 22 23  2  0
 22 24  1  0
 24 25  1  0
 25 26  2  0
 25 27  1  0
 27 28  1  0
 28 29  2  0
 30 31  2  0
M  END
