
     RDKit          3D

 31 33  0  0  0  0  0  0  0  0999 V2000
   -3.2380   -0.9820    0.9110 O   0  0  0  0  0  0  0  0  0  0  0  0
   -2.1410   -0.6540    0.3790 C   0  0  0  0  0  0  0  0  0  0  0  0
   -0.9840   -1.1350    1.0130 N   0  0  0  0  0  0  0  0  0  0  0  0
   -1.0580   -1.9670    2.2240 C   0  0  0  0  0  0  0  0  0  0  0  0
   -1.7260   -1.2610    3.3660 C   0  0  0  0  0  0  0  0  0  0  0  0
   -0.9800   -0.1140    3.6470 O   0  0  0  0  0  0  0  0  0  0  0  0
   -2.1750    0.1680   -0.8080 C   0  0  0  0  0  0  0  0  0  0  0  0
   -1.1040    0.5730   -1.4630 C   0  0  0  0  0  0  0  0  0  0  0  0
    0.2150    0.2660   -1.1040 N   0  0  0  0  0  0  0  0  0  0  0  0
    1.0760   -0.2620   -1.9160 C   0  0  0  0  0  0  0  0  0  0  0  0
    0.8040   -0.5690   -3.1740 N   0  0  0  0  0  0  0  0  0  0  0  0
    1.6950   -1.1110   -4.0020 C   0  0  0  0  0  0  0  0  0  0  0  0
    2.9290   -1.3610   -3.5540 N   0  0  0  0  0  0  0  0  0  0  0  0
    3.2480   -1.0560   -2.2600 C   0  0  0  0  0  0  0  0  0  0  0  0
    2.3510   -0.5000   -1.3850 C   0  0  0  0  0  0  0  0  0  0  0  0
    2.6520   -0.1100   -0.0360 C   0  0  0  0  0  0  0  0  0  0  0  0
    2.0560    0.9610    0.3670 O   0  0  0  0  0  0  0  0  0  0  0  0
    3.5250   -0.7510    0.9250 C   0  0  0  0  0  0  0  0  0  0  0  0
    3.7210   -0.2000    2.1180 C   0  0  0  0  0  0  0  0  0  0  0  0
    4.5780   -0.7490    3.1740 C   0  0  0  0  0  0  0  0  0  0  0  0
    5.1230   -1.9940    2.8550 O   0  0  0  0  0  0  0  0  0  0  0  0
    4.9250   -2.5710    1.6310 C   0  0  0  0  0  0  0  0  0  0  0  0
    4.1810   -2.0230    0.6910 C   0  0  0  0  0  0  0  0  0  0  0  0
   -1.3000    1.3600   -2.5940 O   0  0  0  0  0  0  0  0  0  0  0  0
   -2.3310    2.3120   -2.6170 C   0  0  0  0  0  0  0  0  0  0  0  0
   -3.5310    1.9470   -1.8030 C   0  0  1  0  0  0  0  0  0  0  0  0
   -4.6720    2.0840   -2.5670 O   0  0  0  0  0  0  0  0  0  0  0  0
   -5.7650    3.2060   -1.8450 P   0  0  0  0  0  0  0  0  0  0  0  0
   -7.2450    3.3260   -2.7230 O   0  0  0  0  0  0  0  0  0  0  0  0
   -4.9880    4.7440   -1.6490 O   0  0  0  0  0  0  0  0  0  0  0  0
   -3.3930    0.6040   -1.3600 O   0  0  0  0  0  0  0  0  0  0  0  0
  1  2  2  0
  2  3  1  0
  2  7  1  0
  3  4  1  0
  4  5  1  0
  5  6  1  0
  7  8  2  0
  7 31  1  0
  8  9  1  0
  8 24  1  0
  9 10  2  3
 10 11  1  0
 10 15  1  0
 11 12  2  0
 12 13  1  0
 13 14  1  0
 14 15  2  0
 15 16  1  0
 16 17  2  0
 16 18  1  0
 18 19  2  0
 18 23  1  0
 19 20  1  0
 20 21  1  0
 21 22  1  0
 22 23  2  0
 24 25  1  0
 25 26  1  0
 26 27  1  6
 26 31  1  0
 27 28  1  0
 28 29  1  0
 28 30  1  0
M  END
