
     RDKit          3D

 25 28  0  0  0  0  0  0  0  0999 V2000
   -2.4340   -2.2970    0.5820 C   0  0  0  0  0  0  0  0  0  0  0  0
   -2.0460   -0.9390    0.1900 C   0  0  0  0  0  0  0  0  0  0  0  0
   -3.0020    0.0460    0.1570 C   0  0  0  0  0  0  0  0  0  0  0  0
   -2.6690    1.3300   -0.2080 C   0  0  0  0  0  0  0  0  0  0  0  0
   -1.3500    1.6320   -0.5470 C   0  0  0  0  0  0  0  0  0  0  0  0
   -0.3800    0.6490   -0.5180 C   0  0  0  0  0  0  0  0  0  0  0  0
   -0.7300   -0.6310   -0.1500 C   0  0  0  0  0  0  0  0  0  0  0  0
    0.4870   -1.4250   -0.2150 C   0  0  0  0  0  0  0  0  0  0  0  0
    0.5800   -2.6520    0.0490 O   0  0  0  0  0  0  0  0  0  0  0  0
    1.5630   -0.5960   -0.6270 N   0  0  0  0  0  0  0  0  0  0  0  0
    2.9130   -1.0200   -0.8060 C   0  0  0  0  0  0  0  0  0  0  0  0
    3.7880   -0.9210    0.3960 C   0  0  1  0  0  0  0  0  0  0  0  0
    3.3520   -1.6730    1.4680 O   0  0  0  0  0  0  0  0  0  0  0  0
    5.1940   -1.3500   -0.0470 C   0  0  0  0  0  0  0  0  0  0  0  0
    5.8290   -0.1560   -0.4450 O   0  0  0  0  0  0  0  0  0  0  0  0
    5.0410    0.9590   -0.1140 C   0  0  0  0  0  0  0  0  0  0  0  0
    5.2270    2.0810   -0.6130 O   0  0  0  0  0  0  0  0  0  0  0  0
    4.0580    0.4760    0.8680 C   0  0  0  0  0  0  0  0  0  0  0  0
    1.0560    0.7130   -0.8260 C   0  0  0  0  0  0  0  0  0  0  0  0
    1.6840    1.7630   -1.1970 O   0  0  0  0  0  0  0  0  0  0  0  0
   -3.6200    2.4420   -0.2700 C   0  0  0  0  0  0  0  0  0  0  0  0
   -5.0260    2.1270    0.0890 C   0  0  0  0  0  0  0  0  0  0  0  0
   -5.2970    0.7380    0.4650 C   0  0  0  0  0  0  0  0  0  0  0  0
   -7.1170    0.3130    0.9350 Br  0  0  0  0  0  0  0  0  0  0  0  0
   -4.4030   -0.2230    0.5050 C   0  0  0  0  0  0  0  0  0  0  0  0
  1  2  1  0
  2  3  2  0
  2  7  1  0
  3  4  1  0
  3 25  1  0
  4  5  2  0
  4 21  1  0
  5  6  1  0
  6  7  2  0
  6 19  1  0
  7  8  1  0
  8  9  2  0
  8 10  1  0
 10 11  1  0
 10 19  1  0
 11 12  1  0
 12 13  1  1
 12 14  1  0
 12 18  1  0
 14 15  1  0
 15 16  1  0
 16 17  2  0
 16 18  1  0
 19 20  2  0
 21 22  1  0
 22 23  1  0
 23 24  1  0
 23 25  2  0
M  END
