
     RDKit          3D

 25 27  0  0  0  0  0  0  0  0999 V2000
   -4.1710    1.7960   -0.9170 C   0  0  0  0  0  0  0  0  0  0  0  0
   -3.3660    0.7550   -0.6080 C   0  0  0  0  0  0  0  0  0  0  0  0
   -2.3840    0.4260   -1.6730 C   0  0  0  0  0  0  0  0  0  0  0  0
   -2.6030    0.6160   -2.8890 O   0  0  0  0  0  0  0  0  0  0  0  0
   -1.1100   -0.1420   -1.2510 C   0  0  0  0  0  0  0  0  0  0  0  0
    0.0500   -0.1370   -2.1810 C   0  0  0  0  0  0  0  0  0  0  0  0
    1.1640    0.5000   -1.6120 O   0  0  0  0  0  0  0  0  0  0  0  0
    2.1790    0.1550   -0.7840 C   0  0  0  0  0  0  0  0  0  0  0  0
    3.4560    0.3080   -1.3550 C   0  0  0  0  0  0  0  0  0  0  0  0
    4.6370    0.0180   -0.7170 C   0  0  0  0  0  0  0  0  0  0  0  0
    5.9770    0.0900   -1.0760 C   0  0  0  0  0  0  0  0  0  0  0  0
    6.6860   -0.3470    0.0180 C   0  0  0  0  0  0  0  0  0  0  0  0
    5.8260   -0.6700    1.0000 N   0  0  0  0  0  0  0  0  0  0  0  0
    4.5670   -0.4540    0.5710 C   0  0  0  0  0  0  0  0  0  0  0  0
    3.3110   -0.6060    1.1430 C   0  0  0  0  0  0  0  0  0  0  0  0
    2.1000   -0.3230    0.5310 C   0  0  0  0  0  0  0  0  0  0  0  0
    0.9840   -0.5310    1.2590 O   0  0  0  0  0  0  0  0  0  0  0  0
   -0.0260    0.0730    1.9360 C   0  0  0  0  0  0  0  0  0  0  0  0
   -1.3210   -0.7180    1.8660 C   0  0  0  0  0  0  0  0  0  0  0  0
   -1.0140   -1.9400    2.1400 O   0  0  0  0  0  0  0  0  0  0  0  0
   -2.4780   -0.1590    1.5730 O   0  0  0  0  0  0  0  0  0  0  0  0
   -3.4810    0.0600    0.6860 C   0  0  0  0  0  0  0  0  0  0  0  0
   -4.7560   -0.3650    0.9190 C   0  0  0  0  0  0  0  0  0  0  0  0
   -5.9380   -0.2380    0.1080 C   0  0  0  0  0  0  0  0  0  0  0  0
   -7.2830    0.7770    1.1040 Br  0  0  0  0  0  0  0  0  0  0  0  0
  1  2  2  0
  2  3  1  0
  2 22  1  0
  3  4  2  0
  3  5  1  0
  5  6  1  0
  6  7  1  0
  7  8  1  0
  8  9  2  0
  8 16  1  0
  9 10  1  0
 10 11  1  0
 10 14  2  0
 11 12  2  0
 12 13  1  0
 13 14  1  0
 14 15  1  0
 15 16  2  0
 16 17  1  0
 17 18  1  0
 18 19  1  0
 19 20  2  0
 19 21  1  0
 21 22  1  0
 22 23  2  3
 23 24  1  0
 24 25  1  0
M  END
