
     RDKit          3D

 25 27  0  0  0  0  0  0  0  0999 V2000
   -5.7710   -0.5450    1.4190 C   0  0  0  0  0  0  0  0  0  0  0  0
   -4.5210   -0.4700    1.0860 C   0  0  0  0  0  0  0  0  0  0  0  0
   -3.7110   -1.4980    1.6000 O   0  0  0  0  0  0  0  0  0  0  0  0
   -2.3500   -1.5440    1.3300 C   0  0  0  0  0  0  0  0  0  0  0  0
   -1.6960   -2.4810    1.8170 O   0  0  0  0  0  0  0  0  0  0  0  0
   -1.6970   -0.5510    0.5150 C   0  0  0  0  0  0  0  0  0  0  0  0
   -0.4370   -0.4790    0.1880 C   0  0  0  0  0  0  0  0  0  0  0  0
    0.6100   -1.3840    0.5670 C   0  0  0  0  0  0  0  0  0  0  0  0
    1.9040   -1.2330    0.1790 C   0  0  0  0  0  0  0  0  0  0  0  0
    2.3330   -0.2040   -0.6120 O   0  0  0  0  0  0  0  0  0  0  0  0
    3.4990    0.4790   -0.6270 C   0  0  0  0  0  0  0  0  0  0  0  0
    4.5060    0.1770    0.2620 C   0  0  0  0  0  0  0  0  0  0  0  0
    5.6930    0.8880    0.2320 C   0  0  0  0  0  0  0  0  0  0  0  0
    5.8390    1.8900   -0.6960 C   0  0  0  0  0  0  0  0  0  0  0  0
    4.8220    2.1910   -1.5890 C   0  0  0  0  0  0  0  0  0  0  0  0
    3.6530    1.5000   -1.5690 C   0  0  0  0  0  0  0  0  0  0  0  0
    2.6010    1.7600   -2.4410 O   0  0  0  0  0  0  0  0  0  0  0  0
    2.6800   -2.3570    0.7670 C   0  0  0  0  0  0  0  0  0  0  0  0
    1.5580   -3.4120    0.7960 C   0  0  0  0  0  0  0  0  0  0  0  0
    0.5540   -2.5450    1.3610 O   0  0  0  0  0  0  0  0  0  0  0  0
   -2.5410    0.4820    0.0040 N   0  0  0  0  0  0  0  0  0  0  0  0
   -3.9760    0.5770    0.2570 C   0  0  0  0  0  0  0  0  0  0  0  0
   -4.5940    1.5500   -0.3190 C   0  0  0  0  0  0  0  0  0  0  0  0
   -5.9470    2.0060   -0.4110 C   0  0  0  0  0  0  0  0  0  0  0  0
   -6.1050    3.8120    0.3690 Br  0  0  0  0  0  0  0  0  0  0  0  0
  1  2  2  0
  2  3  1  0
  2 22  1  0
  3  4  1  0
  4  5  2  0
  4  6  1  0
  6  7  2  3
  6 21  1  0
  7  8  1  0
  8  9  2  0
  8 20  1  0
  9 10  1  0
  9 18  1  0
 10 11  1  0
 11 12  2  0
 11 16  1  0
 12 13  1  0
 13 14  2  0
 14 15  1  0
 15 16  2  0
 16 17  1  0
 18 19  1  0
 19 20  1  0
 21 22  1  0
 22 23  2  3
 23 24  1  0
 24 25  1  0
M  END
