
     RDKit          3D

 25 27  0  0  0  0  0  0  0  0999 V2000
    2.5520   -1.4310    2.5570 C   0  0  0  0  0  0  0  0  0  0  0  0
    1.7220   -0.7440    1.5500 C   0  0  0  0  0  0  0  0  0  0  0  0
    2.2630   -0.4130    0.4070 C   0  0  0  0  0  0  0  0  0  0  0  0
    3.6860   -0.7570    0.2060 C   0  0  0  0  0  0  0  0  0  0  0  0
    4.5300   -0.2750   -0.6950 C   0  0  0  0  0  0  0  0  0  0  0  0
    5.8330   -0.7730   -0.6700 N   0  0  0  0  0  0  0  0  0  0  0  0
    4.1700    0.7640   -1.7290 C   0  0  0  0  0  0  0  0  0  0  0  0
    3.4020    1.8170   -0.9800 C   0  0  0  0  0  0  0  0  0  0  0  0
    1.9410    1.6410   -0.9380 C   0  0  0  0  0  0  0  0  0  0  0  0
    1.4270    0.2820   -0.6190 C   0  0  2  0  0  0  0  0  0  0  0  0
    0.1100    0.2900   -0.1230 O   0  0  0  0  0  0  0  0  0  0  0  0
   -0.9490   -0.3660   -0.6850 C   0  0  0  0  0  0  0  0  0  0  0  0
   -0.7420   -1.0350   -1.7300 O   0  0  0  0  0  0  0  0  0  0  0  0
   -2.3140   -0.3550   -0.1660 C   0  0  0  0  0  0  0  0  0  0  0  0
   -3.2400    0.5980   -0.5590 C   0  0  0  0  0  0  0  0  0  0  0  0
   -2.8170    1.5470   -1.4700 O   0  0  0  0  0  0  0  0  0  0  0  0
   -3.6460    2.5770   -1.9620 C   0  0  0  0  0  0  0  0  0  0  0  0
   -4.5310    0.6060   -0.0670 C   0  0  0  0  0  0  0  0  0  0  0  0
   -4.9060   -0.3630    0.8410 C   0  0  0  0  0  0  0  0  0  0  0  0
   -4.0100   -1.3420    1.2660 C   0  0  0  0  0  0  0  0  0  0  0  0
   -2.7460   -1.2990    0.7440 C   0  0  0  0  0  0  0  0  0  0  0  0
   -1.5140   -2.6470    1.3300 Br  0  0  0  0  0  0  0  0  0  0  0  0
   -4.6610   -2.1880    2.1840 O   0  0  0  0  0  0  0  0  0  0  0  0
   -6.0500   -1.9740    2.0170 C   0  0  0  0  0  0  0  0  0  0  0  0
   -6.0910   -0.6450    1.5210 O   0  0  0  0  0  0  0  0  0  0  0  0
  1  2  1  0
  2  3  2  3
  3  4  1  0
  3 10  1  0
  4  5  2  0
  5  6  1  0
  5  7  1  0
  7  8  1  0
  8  9  1  0
  9 10  1  0
 10 11  1  1
 11 12  1  0
 12 13  2  0
 12 14  1  0
 14 15  2  0
 14 21  1  0
 15 16  1  0
 15 18  1  0
 16 17  1  0
 18 19  2  0
 19 20  1  0
 19 25  1  0
 20 21  2  0
 20 23  1  0
 21 22  1  0
 23 24  1  0
 24 25  1  0
M  END
