
     RDKit          3D

 24 26  0  0  0  0  0  0  0  0999 V2000
   -3.3860   -2.1560    1.3830 C   0  0  0  0  0  0  0  0  0  0  0  0
   -2.1390   -1.9120    0.4430 C   0  0  0  0  0  0  0  0  0  0  0  0
   -1.3900   -2.9720    0.2620 C   0  0  0  0  0  0  0  0  0  0  0  0
   -0.2110   -3.3620   -0.4410 C   0  0  0  0  0  0  0  0  0  0  0  0
    0.8230   -2.8000   -0.9350 C   0  0  0  0  0  0  0  0  0  0  0  0
    1.2720   -1.4100   -0.9960 C   0  0  0  0  0  0  0  0  0  0  0  0
    2.2200   -1.0570    0.1600 C   0  0  0  0  0  0  0  0  0  0  0  0
    3.1520   -0.1250   -0.4070 C   0  0  0  0  0  0  0  0  0  0  0  0
    3.3010    1.1700   -0.3480 C   0  0  0  0  0  0  0  0  0  0  0  0
    4.3450    1.7040   -1.0590 O   0  0  0  0  0  0  0  0  0  0  0  0
    4.3800    2.9670   -0.9230 C   0  0  0  0  0  0  0  0  0  0  0  0
    5.2370    3.7620   -1.4610 O   0  0  0  0  0  0  0  0  0  0  0  0
    3.3970    3.3900   -0.1330 N   0  0  0  0  0  0  0  0  0  0  0  0
    2.6880    2.2190    0.2490 C   0  0  0  0  0  0  0  0  0  0  0  0
    1.6430    2.2520    1.0580 C   0  0  0  0  0  0  0  0  0  0  0  0
    0.6660    1.4510    1.7130 C   0  0  0  0  0  0  0  0  0  0  0  0
    1.1310    1.1840    3.6740 Br  0  0  0  0  0  0  0  0  0  0  0  0
   -0.4660    0.8320    1.4470 C   0  0  0  0  0  0  0  0  0  0  0  0
   -1.3910    0.5660    0.3890 C   0  0  0  0  0  0  0  0  0  0  0  0
   -2.0700   -0.5350   -0.0280 C   0  0  0  0  0  0  0  0  0  0  0  0
   -2.9120   -0.3290   -1.1830 O   0  0  0  0  0  0  0  0  0  0  0  0
   -3.7080    0.7720   -1.4390 C   0  0  0  0  0  0  0  0  0  0  0  0
   -3.0460    1.9730   -0.8410 C   0  0  0  0  0  0  0  0  0  0  0  0
   -1.7240    1.6820   -0.4400 O   0  0  0  0  0  0  0  0  0  0  0  0
  1  2  1  0
  2  3  2  0
  2 20  1  0
  3  4  1  0
  4  5  2  0
  5  6  1  0
  6  7  1  0
  7  8  1  0
  8  9  2  0
  9 10  1  0
  9 14  1  0
 10 11  1  0
 11 12  2  0
 11 13  1  0
 13 14  1  0
 14 15  2  0
 15 16  1  0
 16 17  1  0
 16 18  2  0
 18 19  1  0
 19 20  2  0
 19 24  1  0
 20 21  1  0
 21 22  1  0
 22 23  1  0
 23 24  1  0
M  END
