
     RDKit          3D

 25 28  0  0  0  0  0  0  0  0999 V2000
   -4.7600   -0.3880    1.4330 C   0  0  0  0  0  0  0  0  0  0  0  0
   -3.8130   -1.1060    0.5140 C   0  0  1  0  0  0  0  0  0  0  0  0
   -4.1750   -1.0290   -0.9250 C   0  0  0  0  0  0  0  0  0  0  0  0
   -4.2650    0.2800   -1.5850 C   0  0  0  0  0  0  0  0  0  0  0  0
   -3.0750    0.9850   -1.6120 O   0  0  0  0  0  0  0  0  0  0  0  0
   -2.4690   -0.7620    0.8690 N   0  0  0  0  0  0  0  0  0  0  0  0
   -1.4840   -1.7220    1.3310 C   0  0  0  0  0  0  0  0  0  0  0  0
   -1.7140   -2.8450    1.8980 O   0  0  0  0  0  0  0  0  0  0  0  0
   -0.1490   -1.1760    1.0300 C   0  0  0  0  0  0  0  0  0  0  0  0
   -0.4210    0.2530    0.6110 C   0  0  2  0  0  0  0  0  0  0  0  0
    0.0050    0.4710   -0.8010 C   0  0  0  0  0  0  0  0  0  0  0  0
    1.4800    0.5260   -0.6520 C   0  0  0  0  0  0  0  0  0  0  0  0
    2.5180    0.2960   -1.5160 C   0  0  0  0  0  0  0  0  0  0  0  0
    3.8500    0.4140   -1.1340 C   0  0  0  0  0  0  0  0  0  0  0  0
    4.1070    0.7780    0.1710 C   0  0  0  0  0  0  0  0  0  0  0  0
    3.0520    1.0070    1.0300 C   0  0  0  0  0  0  0  0  0  0  0  0
    3.4060    1.5160    2.8500 Br  0  0  0  0  0  0  0  0  0  0  0  0
    1.7260    0.8900    0.6520 C   0  0  0  0  0  0  0  0  0  0  0  0
    0.4970    1.0650    1.3220 O   0  0  0  0  0  0  0  0  0  0  0  0
    5.5940    0.8470    0.3730 C   0  0  0  0  0  0  0  0  0  0  0  0
    6.1880    0.1560   -0.8350 C   0  0  0  0  0  0  0  0  0  0  0  0
    5.1140    0.2240   -1.8570 C   0  0  0  0  0  0  0  0  0  0  0  0
    5.2700    0.1350   -3.1030 O   0  0  0  0  0  0  0  0  0  0  0  0
   -1.8160    0.5130    0.9260 C   0  0  0  0  0  0  0  0  0  0  0  0
   -2.3750    1.6040    1.1980 O   0  0  0  0  0  0  0  0  0  0  0  0
  2  1  1  1
  2  3  1  0
  2  6  1  0
  3  4  1  0
  4  5  1  0
  6  7  1  0
  6 24  1  0
  7  8  2  0
  7  9  1  0
 10  9  1  1
 10 11  1  0
 10 19  1  0
 10 24  1  0
 11 12  1  0
 12 13  2  0
 12 18  1  0
 13 14  1  0
 14 15  2  0
 14 22  1  0
 15 16  1  0
 15 20  1  0
 16 17  1  0
 16 18  2  0
 18 19  1  0
 20 21  1  0
 21 22  1  0
 22 23  2  0
 24 25  2  0
M  END
