
     RDKit          3D

 25 28  0  0  0  0  0  0  0  0999 V2000
   -5.6670    3.0820    0.4790 C   0  0  0  0  0  0  0  0  0  0  0  0
   -5.3750    1.9440   -0.3240 O   0  0  0  0  0  0  0  0  0  0  0  0
   -4.3010    1.1050    0.0230 C   0  0  0  0  0  0  0  0  0  0  0  0
   -3.5230    1.3630    1.1270 C   0  0  0  0  0  0  0  0  0  0  0  0
   -2.4640    0.5270    1.4600 C   0  0  0  0  0  0  0  0  0  0  0  0
   -1.4020    0.9130    3.0060 Br  0  0  0  0  0  0  0  0  0  0  0  0
   -2.1430   -0.5820    0.7160 C   0  0  0  0  0  0  0  0  0  0  0  0
   -2.9390   -0.8380   -0.4050 C   0  0  0  0  0  0  0  0  0  0  0  0
   -3.9930   -0.0040   -0.7330 C   0  0  0  0  0  0  0  0  0  0  0  0
   -2.6790   -1.9400   -1.2050 O   0  0  0  0  0  0  0  0  0  0  0  0
   -1.7000   -2.9130   -0.9010 C   0  0  0  0  0  0  0  0  0  0  0  0
   -1.4760   -2.8730    0.5950 C   0  0  0  0  0  0  0  0  0  0  0  0
   -1.0200   -1.5090    1.0310 C   0  0  1  0  0  0  0  0  0  0  0  0
    0.1860   -1.0550    0.4260 N   0  0  0  0  0  0  0  0  0  0  0  0
    1.4070   -0.7660    1.0720 C   0  0  0  0  0  0  0  0  0  0  0  0
    1.4130   -0.9350    2.3230 O   0  0  0  0  0  0  0  0  0  0  0  0
    2.5970   -0.3010    0.3550 C   0  0  0  0  0  0  0  0  0  0  0  0
    3.7990   -0.0160    0.9910 C   0  0  0  0  0  0  0  0  0  0  0  0
    4.6970    0.3920    0.0350 C   0  0  0  0  0  0  0  0  0  0  0  0
    4.0220    0.3460   -1.1630 C   0  0  0  0  0  0  0  0  0  0  0  0
    2.7940   -0.0700   -0.8930 O   0  0  0  0  0  0  0  0  0  0  0  0
    4.5990    0.6810   -2.3140 C   0  0  0  0  0  0  0  0  0  0  0  0
    5.9860    1.1210   -2.3940 C   0  0  0  0  0  0  0  0  0  0  0  0
    6.6030    1.1410   -1.1410 O   0  0  0  0  0  0  0  0  0  0  0  0
    5.9530    0.7830    0.0130 C   0  0  0  0  0  0  0  0  0  0  0  0
  1  2  1  0
  2  3  1  0
  3  4  2  0
  3  9  1  0
  4  5  1  0
  5  6  1  0
  5  7  2  0
  7  8  1  0
  7 13  1  0
  8  9  2  0
  8 10  1  0
 10 11  1  0
 11 12  1  0
 12 13  1  0
 13 14  1  6
 14 15  1  0
 15 16  2  0
 15 17  1  0
 17 18  2  0
 17 21  1  0
 18 19  1  0
 19 20  1  0
 19 25  2  0
 20 21  1  0
 20 22  2  0
 22 23  1  0
 23 24  1  0
 24 25  1  0
M  END
