
     RDKit          3D

 25 28  0  0  0  0  0  0  0  0999 V2000
   -1.6170   -2.0540    1.0540 C   0  0  0  0  0  0  0  0  0  0  0  0
   -2.0620   -2.0560   -0.3720 C   0  0  2  0  0  0  0  0  0  0  0  0
   -2.7630   -3.3750   -0.6480 C   0  0  0  0  0  0  0  0  0  0  0  0
   -0.8740   -1.8780   -1.3160 C   0  0  0  0  0  0  0  0  0  0  0  0
   -0.4120   -0.4640   -1.0940 C   0  0  0  0  0  0  0  0  0  0  0  0
   -1.1580    0.4910   -0.5840 C   0  0  0  0  0  0  0  0  0  0  0  0
   -2.5800    0.2000   -0.1800 C   0  0  0  0  0  0  0  0  0  0  0  0
   -2.9190   -1.0380   -0.7090 O   0  0  0  0  0  0  0  0  0  0  0  0
   -0.8450    1.9120   -0.3020 C   0  0  0  0  0  0  0  0  0  0  0  0
   -1.8190    2.5790    0.3720 C   0  0  0  0  0  0  0  0  0  0  0  0
   -1.6120    3.9090    0.6550 C   0  0  0  0  0  0  0  0  0  0  0  0
   -2.9650    4.8960    1.6080 Br  0  0  0  0  0  0  0  0  0  0  0  0
   -0.4430    4.5400    0.2620 C   0  0  0  0  0  0  0  0  0  0  0  0
    0.5440    3.8610   -0.4200 C   0  0  0  0  0  0  0  0  0  0  0  0
    0.3460    2.5370   -0.7050 C   0  0  0  0  0  0  0  0  0  0  0  0
    1.4270    1.9480   -1.3930 N   0  0  0  0  0  0  0  0  0  0  0  0
    2.5690    1.4670   -2.1890 C   0  0  0  0  0  0  0  0  0  0  0  0
    3.4110    1.7610   -3.0820 O   0  0  0  0  0  0  0  0  0  0  0  0
    1.9060    0.6050   -1.1880 C   0  0  1  0  0  0  0  0  0  0  0  0
    2.8100    0.2770   -0.0500 C   0  0  0  0  0  0  0  0  0  0  0  0
    3.6960    1.0300    0.3120 O   0  0  0  0  0  0  0  0  0  0  0  0
    2.6200   -1.0130    0.6640 C   0  0  0  0  0  0  0  0  0  0  0  0
    3.6390   -1.1480    1.7840 C   0  0  0  0  0  0  0  0  0  0  0  0
    3.4910   -2.3390    2.4710 O   0  0  0  0  0  0  0  0  0  0  0  0
    0.9300   -0.3260   -1.5160 O   0  0  0  0  0  0  0  0  0  0  0  0
  2  1  1  1
  2  3  1  0
  2  4  1  0
  2  8  1  0
  4  5  1  0
  5  6  2  0
  5 25  1  0
  6  7  1  0
  6  9  1  0
  7  8  1  0
  9 10  2  0
  9 15  1  0
 10 11  1  0
 11 12  1  0
 11 13  2  0
 13 14  1  0
 14 15  2  0
 15 16  1  0
 16 17  1  0
 16 19  1  0
 17 18  2  0
 17 19  1  0
 19 20  1  1
 19 25  1  0
 20 21  2  0
 20 22  1  0
 22 23  1  0
 23 24  1  0
M  END
