
     RDKit          3D

 23 25  0  0  0  0  0  0  0  0999 V2000
    6.4310    2.3210    0.1870 N   0  0  0  0  0  0  0  0  0  0  0  0
    6.3260    0.5870    0.1270 S   0  0  1  0  0  0  0  0  0  0  0  0
    6.9220    0.0290   -1.1120 O   0  0  0  0  0  0  0  0  0  0  0  0
    6.9840   -0.0440    1.3150 O   0  0  0  0  0  0  0  0  0  0  0  0
    4.6160    0.1760    0.1280 C   0  0  0  0  0  0  0  0  0  0  0  0
    3.9220    0.0540   -1.0520 C   0  0  0  0  0  0  0  0  0  0  0  0
    2.5660   -0.2730   -1.0280 C   0  0  0  0  0  0  0  0  0  0  0  0
    1.8990   -0.4780    0.1600 C   0  0  0  0  0  0  0  0  0  0  0  0
    0.5110   -0.8110    0.1520 N   0  0  0  0  0  0  0  0  0  0  0  0
   -0.2600   -0.9780   -0.9340 C   0  0  0  0  0  0  0  0  0  0  0  0
   -1.5590   -1.2960   -0.5440 C   0  0  0  0  0  0  0  0  0  0  0  0
   -2.6630   -1.5510   -1.4890 C   0  0  0  0  0  0  0  0  0  0  0  0
   -3.8970   -1.6810   -0.8770 O   0  0  0  0  0  0  0  0  0  0  0  0
   -4.4610   -0.6510   -0.1520 C   0  0  0  0  0  0  0  0  0  0  0  0
   -5.6910   -0.8030    0.4640 C   0  0  0  0  0  0  0  0  0  0  0  0
   -6.2630    0.2140    1.1860 C   0  0  0  0  0  0  0  0  0  0  0  0
   -5.6110    1.4200    1.3110 C   0  0  0  0  0  0  0  0  0  0  0  0
   -4.3870    1.5890    0.7060 C   0  0  0  0  0  0  0  0  0  0  0  0
   -3.8250    0.5450   -0.0230 C   0  0  0  0  0  0  0  0  0  0  0  0
   -1.5100   -1.3070    0.8010 N   0  0  0  0  0  0  0  0  0  0  0  0
   -0.2770   -1.0170    1.1820 N   0  0  0  0  0  0  0  0  0  0  0  0
    2.5900   -0.3560    1.3330 C   0  0  0  0  0  0  0  0  0  0  0  0
    3.9320   -0.0330    1.3190 C   0  0  0  0  0  0  0  0  0  0  0  0
  2  1  1  1
  2  3  2  0
  2  4  2  0
  2  5  1  0
  5  6  2  0
  5 23  1  0
  6  7  1  0
  7  8  2  0
  8  9  1  0
  8 22  1  0
  9 10  1  0
  9 21  1  0
 10 11  2  0
 11 12  1  0
 11 20  1  0
 12 13  1  0
 13 14  1  0
 14 15  2  0
 14 19  1  0
 15 16  1  0
 16 17  2  0
 17 18  1  0
 18 19  2  0
 20 21  2  0
 22 23  2  0
M  END
