
     RDKit          3D

 23 25  0  0  0  0  0  0  0  0999 V2000
   -3.6930   -3.8490    0.2510 C   0  0  0  0  0  0  0  0  0  0  0  0
   -2.6700   -3.1170   -0.4100 O   0  0  0  0  0  0  0  0  0  0  0  0
   -2.5310   -1.7460   -0.1710 C   0  0  0  0  0  0  0  0  0  0  0  0
   -3.3640   -1.1330    0.6800 N   0  0  0  0  0  0  0  0  0  0  0  0
   -3.2440    0.2020    0.9260 C   0  0  0  0  0  0  0  0  0  0  0  0
   -2.2470    0.8980    0.2770 C   0  0  0  0  0  0  0  0  0  0  0  0
   -1.3680    0.2850   -0.6130 C   0  0  0  0  0  0  0  0  0  0  0  0
   -1.5280   -1.0640   -0.8290 C   0  0  0  0  0  0  0  0  0  0  0  0
   -0.6680   -1.7760   -1.7410 N   0  0  0  0  0  0  0  0  0  0  0  0
    0.4100   -1.1020   -2.3950 C   0  0  0  0  0  0  0  0  0  0  0  0
    1.4670   -0.6130   -1.4830 C   0  0  0  0  0  0  0  0  0  0  0  0
    1.3620   -0.8170   -0.2630 O   0  0  0  0  0  0  0  0  0  0  0  0
    2.5640    0.0690   -2.0170 N   0  0  0  0  0  0  0  0  0  0  0  0
    3.5590    0.5210   -1.0910 C   0  0  0  0  0  0  0  0  0  0  0  0
    3.8140    0.5260    0.0900 N   0  0  0  0  0  0  0  0  0  0  0  0
    4.8480    1.0400    0.6770 C   0  0  0  0  0  0  0  0  0  0  0  0
    5.0990    1.0060    2.1640 C   0  0  0  0  0  0  0  0  0  0  0  0
    5.7700    1.6600   -0.1620 C   0  0  0  0  0  0  0  0  0  0  0  0
    5.0130    1.4220   -1.7650 S   0  0  0  0  0  0  0  0  0  0  0  0
   -2.0830    2.2070    0.4790 C   0  0  0  0  0  0  0  0  0  0  0  0
   -2.9690    2.9430    1.4070 C   0  0  0  0  0  0  0  0  0  0  0  0
   -3.9430    2.1450    2.0100 O   0  0  0  0  0  0  0  0  0  0  0  0
   -4.0820    0.7930    1.7750 C   0  0  0  0  0  0  0  0  0  0  0  0
  1  2  1  0
  2  3  1  0
  3  4  2  0
  3  8  1  0
  4  5  1  0
  5  6  1  0
  5 23  2  0
  6  7  1  0
  6 20  2  0
  7  8  2  0
  8  9  1  0
  9 10  1  0
 10 11  1  0
 11 12  2  0
 11 13  1  0
 13 14  1  0
 14 15  2  0
 14 19  1  0
 15 16  1  0
 16 17  1  0
 16 18  2  0
 18 19  1  0
 20 21  1  0
 21 22  1  0
 22 23  1  0
M  END
