
     RDKit          3D

 23 25  0  0  0  0  0  0  0  0999 V2000
   -1.6340   -0.6690    1.9670 C   0  0  0  0  0  0  0  0  0  0  0  0
   -2.6520    0.3290    1.5110 C   0  0  2  0  0  0  0  0  0  0  0  0
   -4.0570   -0.2570    1.4840 C   0  0  0  0  0  0  0  0  0  0  0  0
   -2.3050    0.9600    0.2770 N   0  0  0  0  0  0  0  0  0  0  0  0
   -2.0040    0.2520   -0.8960 C   0  0  0  0  0  0  0  0  0  0  0  0
   -2.9430   -0.2930   -1.7830 C   0  0  0  0  0  0  0  0  0  0  0  0
   -4.1790   -0.1850   -1.5870 O   0  0  0  0  0  0  0  0  0  0  0  0
   -2.2740   -0.8800   -2.7620 N   0  0  0  0  0  0  0  0  0  0  0  0
   -0.9710   -0.7660   -2.5950 N   0  0  0  0  0  0  0  0  0  0  0  0
    0.0870   -1.1860   -3.3070 C   0  0  0  0  0  0  0  0  0  0  0  0
   -0.0350   -1.8370   -4.3770 O   0  0  0  0  0  0  0  0  0  0  0  0
    1.2940   -0.9170   -2.8910 O   0  0  0  0  0  0  0  0  0  0  0  0
    1.5580   -0.2570   -1.8120 C   0  0  0  0  0  0  0  0  0  0  0  0
    2.8530    0.0180   -1.3940 C   0  0  0  0  0  0  0  0  0  0  0  0
    3.1270    0.7250   -0.2450 C   0  0  0  0  0  0  0  0  0  0  0  0
    4.8200    1.0650    0.2720 S   0  0  0  0  0  0  0  0  0  0  0  0
    5.3990   -0.3010    1.3520 C   0  0  0  0  0  0  0  0  0  0  0  0
    4.6230   -0.3020    2.6070 C   0  0  0  0  0  0  0  0  0  0  0  0
    4.0000   -0.3100    3.5820 N   0  0  0  0  0  0  0  0  0  0  0  0
    2.0490    1.1630    0.4960 C   0  0  0  0  0  0  0  0  0  0  0  0
    0.7320    0.9170    0.1260 C   0  0  0  0  0  0  0  0  0  0  0  0
    0.5240    0.2080   -1.0230 C   0  0  0  0  0  0  0  0  0  0  0  0
   -0.7750   -0.0630   -1.4390 C   0  0  0  0  0  0  0  0  0  0  0  0
  2  1  1  6
  2  3  1  0
  2  4  1  0
  4  5  1  0
  5  6  1  0
  5 23  2  0
  6  7  2  0
  6  8  1  0
  8  9  1  0
  9 10  1  0
  9 23  1  0
 10 11  2  0
 10 12  1  0
 12 13  1  0
 13 14  2  0
 13 22  1  0
 14 15  1  0
 15 16  1  0
 15 20  2  0
 16 17  1  0
 17 18  1  0
 18 19  3  0
 20 21  1  0
 21 22  2  0
 22 23  1  0
M  END
