
     RDKit          3D

 23 25  0  0  0  0  0  0  0  0999 V2000
   -4.6630   -2.6520    1.4820 C   0  0  0  0  0  0  0  0  0  0  0  0
   -4.8610   -1.4990    0.6800 O   0  0  0  0  0  0  0  0  0  0  0  0
   -3.7570   -0.7270    0.3190 C   0  0  0  0  0  0  0  0  0  0  0  0
   -2.4800   -1.0460    0.7130 C   0  0  0  0  0  0  0  0  0  0  0  0
   -1.4070   -0.2680    0.3420 C   0  0  0  0  0  0  0  0  0  0  0  0
   -1.6490    0.8420   -0.4370 C   0  0  0  0  0  0  0  0  0  0  0  0
   -0.2700    1.8670   -0.9300 S   0  0  0  0  0  0  0  0  0  0  0  0
    1.2260    1.2380   -0.2960 N   0  0  0  0  0  0  0  0  0  0  0  0
    2.2750    1.9420   -0.1330 N   0  0  0  0  0  0  0  0  0  0  0  0
    3.4410    1.3190    0.3930 C   0  0  0  0  0  0  0  0  0  0  0  0
    4.1360    1.8070    1.4340 N   0  0  0  0  0  0  0  0  0  0  0  0
    5.2390    1.1980    1.9170 C   0  0  0  0  0  0  0  0  0  0  0  0
    5.8720    1.6880    2.9030 O   0  0  0  0  0  0  0  0  0  0  0  0
    5.6950    0.0290    1.3410 C   0  0  0  0  0  0  0  0  0  0  0  0
    5.0180   -0.5220    0.2630 C   0  0  0  0  0  0  0  0  0  0  0  0
    5.2540   -1.6590   -0.4830 C   0  0  0  0  0  0  0  0  0  0  0  0
    4.2350   -1.6810   -1.4240 C   0  0  0  0  0  0  0  0  0  0  0  0
    3.4470   -0.6100   -1.2310 N   0  0  0  0  0  0  0  0  0  0  0  0
    3.8950    0.1340   -0.1980 C   0  0  0  0  0  0  0  0  0  0  0  0
   -2.9280    1.1480   -0.8230 C   0  0  0  0  0  0  0  0  0  0  0  0
   -4.0230    0.3910   -0.4700 C   0  0  0  0  0  0  0  0  0  0  0  0
   -5.3050    0.7240   -0.8750 O   0  0  0  0  0  0  0  0  0  0  0  0
   -5.4580    1.8820   -1.6730 C   0  0  0  0  0  0  0  0  0  0  0  0
  1  2  1  0
  2  3  1  0
  3  4  2  0
  3 21  1  0
  4  5  1  0
  5  6  2  0
  6  7  1  0
  6 20  1  0
  7  8  1  0
  8  9  2  3
  9 10  1  0
 10 11  1  0
 10 19  2  0
 11 12  1  0
 12 13  2  0
 12 14  1  0
 14 15  2  0
 15 16  1  0
 15 19  1  0
 16 17  2  0
 17 18  1  0
 18 19  1  0
 20 21  2  0
 21 22  1  0
 22 23  1  0
M  END
