
     RDKit          3D

 23 25  0  0  0  0  0  0  0  0999 V2000
    7.2230    0.6980    1.4650 N   0  0  0  0  0  0  0  0  0  0  0  0
    6.5210    1.1020   -0.0590 S   0  0  1  0  0  0  0  0  0  0  0  0
    6.7420    2.5750   -0.3500 O   0  0  0  0  0  0  0  0  0  0  0  0
    7.2030    0.3380   -1.1410 O   0  0  0  0  0  0  0  0  0  0  0  0
    4.8070    0.7330   -0.0850 C   0  0  0  0  0  0  0  0  0  0  0  0
    4.4020   -0.5340   -0.5090 C   0  0  0  0  0  0  0  0  0  0  0  0
    3.0570   -0.8360   -0.5330 C   0  0  0  0  0  0  0  0  0  0  0  0
    2.0790    0.0570   -0.1580 C   0  0  0  0  0  0  0  0  0  0  0  0
    0.7270   -0.2790   -0.1940 O   0  0  0  0  0  0  0  0  0  0  0  0
    0.2830   -1.5550   -0.6180 C   0  0  0  0  0  0  0  0  0  0  0  0
   -1.1930   -1.6250   -0.5530 C   0  0  0  0  0  0  0  0  0  0  0  0
   -2.1020   -0.6720   -0.1610 C   0  0  0  0  0  0  0  0  0  0  0  0
   -3.3680   -1.1760   -0.2620 N   0  0  0  0  0  0  0  0  0  0  0  0
   -4.5720   -0.4910    0.0540 C   0  0  0  0  0  0  0  0  0  0  0  0
   -5.7750   -0.8950   -0.4700 C   0  0  0  0  0  0  0  0  0  0  0  0
   -6.9600   -0.2170   -0.1560 C   0  0  0  0  0  0  0  0  0  0  0  0
   -6.9220    0.8680    0.6870 C   0  0  0  0  0  0  0  0  0  0  0  0
   -5.7090    1.2780    1.2170 C   0  0  0  0  0  0  0  0  0  0  0  0
   -4.5340    0.5940    0.8970 C   0  0  0  0  0  0  0  0  0  0  0  0
   -3.2100   -2.4120   -0.7080 N   0  0  0  0  0  0  0  0  0  0  0  0
   -1.9320   -2.6930   -0.8860 N   0  0  0  0  0  0  0  0  0  0  0  0
    2.4860    1.3050    0.2590 C   0  0  0  0  0  0  0  0  0  0  0  0
    3.8400    1.6310    0.2920 C   0  0  0  0  0  0  0  0  0  0  0  0
  2  1  1  1
  2  3  2  0
  2  4  2  0
  2  5  1  0
  5  6  2  0
  5 23  1  0
  6  7  1  0
  7  8  2  0
  8  9  1  0
  8 22  1  0
  9 10  1  0
 10 11  1  0
 11 12  2  0
 11 21  1  0
 12 13  1  0
 13 14  1  0
 13 20  1  0
 14 15  2  0
 14 19  1  0
 15 16  1  0
 16 17  2  0
 17 18  1  0
 18 19  2  0
 20 21  2  0
 22 23  2  0
M  END
