
     RDKit          3D

 23 25  0  0  0  0  0  0  0  0999 V2000
    8.0370    1.0110    2.0350 C   0  0  0  0  0  0  0  0  0  0  0  0
    6.9370    0.3030    1.9980 C   0  0  0  0  0  0  0  0  0  0  0  0
    5.9370    0.5870    0.9790 C   0  0  0  0  0  0  0  0  0  0  0  0
    4.8390   -0.1440    0.9670 C   0  0  0  0  0  0  0  0  0  0  0  0
    3.7890    0.0770   -0.0220 C   0  0  0  0  0  0  0  0  0  0  0  0
    2.7460   -0.6620    0.0160 O   0  0  0  0  0  0  0  0  0  0  0  0
    3.8480    1.0700   -1.0360 N   0  0  0  0  0  0  0  0  0  0  0  0
    2.7690    1.1830   -1.9370 N   0  0  0  0  0  0  0  0  0  0  0  0
    1.5880    0.4520   -1.8260 C   0  0  0  0  0  0  0  0  0  0  0  0
    1.1700   -0.7700   -2.2370 N   0  0  0  0  0  0  0  0  0  0  0  0
    0.0190   -1.1610   -1.9840 N   0  0  0  0  0  0  0  0  0  0  0  0
   -0.8560   -0.4900   -1.3420 C   0  0  0  0  0  0  0  0  0  0  0  0
   -2.2380   -0.7410   -0.9380 C   0  0  0  0  0  0  0  0  0  0  0  0
   -2.8030   -1.9330   -1.2670 C   0  0  0  0  0  0  0  0  0  0  0  0
   -4.0960   -2.2730   -0.9360 C   0  0  0  0  0  0  0  0  0  0  0  0
   -4.8540   -1.3410   -0.2280 C   0  0  0  0  0  0  0  0  0  0  0  0
   -4.2850   -0.1350    0.1050 C   0  0  0  0  0  0  0  0  0  0  0  0
   -2.9660    0.1770   -0.2480 C   0  0  0  0  0  0  0  0  0  0  0  0
   -5.0430    0.8020    0.8140 O   0  0  0  0  0  0  0  0  0  0  0  0
   -6.4510    0.6870    0.7090 C   0  0  0  0  0  0  0  0  0  0  0  0
   -6.7720   -0.7630    1.0950 C   0  0  0  0  0  0  0  0  0  0  0  0
   -6.1580   -1.6180    0.1370 O   0  0  0  0  0  0  0  0  0  0  0  0
    0.0340    0.9930   -0.9880 S   0  0  0  0  0  0  0  0  0  0  0  0
  1  2  2  0
  2  3  1  0
  3  4  2  3
  4  5  1  0
  5  6  2  0
  5  7  1  0
  7  8  1  0
  8  9  1  0
  9 10  2  0
  9 23  1  0
 10 11  1  0
 11 12  2  0
 12 13  1  0
 12 23  1  0
 13 14  2  0
 13 18  1  0
 14 15  1  0
 15 16  2  0
 16 17  1  0
 16 22  1  0
 17 18  2  0
 17 19  1  0
 19 20  1  0
 20 21  1  0
 21 22  1  0
M  END
