
     RDKit          3D

 23 25  0  0  0  0  0  0  0  0999 V2000
    9.2860   -0.1860    0.9280 C   0  0  0  0  0  0  0  0  0  0  0  0
    7.8360   -0.0810    0.6770 C   0  0  0  0  0  0  0  0  0  0  0  0
    6.9180    0.8320    1.0220 C   0  0  0  0  0  0  0  0  0  0  0  0
    5.6420    0.6700    0.6490 C   0  0  0  0  0  0  0  0  0  0  0  0
    5.3260   -0.4540   -0.0890 C   0  0  0  0  0  0  0  0  0  0  0  0
    4.0640   -0.9180   -0.6390 C   0  0  0  0  0  0  0  0  0  0  0  0
    3.7870   -2.0020   -1.3440 N   0  0  0  0  0  0  0  0  0  0  0  0
    2.5300   -2.0300   -1.6330 O   0  0  0  0  0  0  0  0  0  0  0  0
    1.9840   -0.9660   -1.1180 C   0  0  0  0  0  0  0  0  0  0  0  0
    0.5310   -0.6200   -1.2270 C   0  0  0  0  0  0  0  0  0  0  0  0
    0.3040    0.6790   -0.5020 C   0  0  0  0  0  0  0  0  0  0  0  0
   -1.0820    1.1030   -0.5510 N   0  0  0  0  0  0  0  0  0  0  0  0
   -2.1430    0.3280   -0.0240 C   0  0  0  0  0  0  0  0  0  0  0  0
   -1.8550   -0.7740    0.5070 O   0  0  0  0  0  0  0  0  0  0  0  0
   -3.5340    0.7490   -0.0710 C   0  0  0  0  0  0  0  0  0  0  0  0
   -3.8150    1.8520   -0.6040 O   0  0  0  0  0  0  0  0  0  0  0  0
   -4.6070   -0.0050    0.4470 N   0  0  0  0  0  0  0  0  0  0  0  0
   -5.9780    0.3680    0.4210 C   0  0  1  0  0  0  0  0  0  0  0  0
   -6.9480   -0.6650   -0.1230 C   0  0  0  0  0  0  0  0  0  0  0  0
   -7.9600   -0.0930    0.8830 C   0  0  0  0  0  0  0  0  0  0  0  0
   -6.7320    0.3030    1.7190 C   0  0  0  0  0  0  0  0  0  0  0  0
    2.9300   -0.2560   -0.4900 N   0  0  0  0  0  0  0  0  0  0  0  0
    6.9000   -1.2590   -0.2280 S   0  0  0  0  0  0  0  0  0  0  0  0
  1  2  1  0
  2  3  2  0
  2 23  1  0
  3  4  1  0
  4  5  2  0
  5  6  1  0
  5 23  1  0
  6  7  2  0
  6 22  1  0
  7  8  1  0
  8  9  1  0
  9 10  1  0
  9 22  2  0
 10 11  1  0
 11 12  1  0
 12 13  1  0
 13 14  2  0
 13 15  1  0
 15 16  2  0
 15 17  1  0
 18 17  1  1
 18 19  1  0
 18 21  1  0
 19 20  1  0
 20 21  1  0
M  END
