
     RDKit          3D

 21 22  0  0  0  0  0  0  0  0999 V2000
   -6.7550   -0.9120    0.8870 C   0  0  0  0  0  0  0  0  0  0  0  0
   -5.3760   -1.4380    0.8080 C   0  0  0  0  0  0  0  0  0  0  0  0
   -4.3780   -0.5900    0.9270 C   0  0  0  0  0  0  0  0  0  0  0  0
   -4.6910    0.8470    1.1350 C   0  0  0  0  0  0  0  0  0  0  0  0
   -3.9970    1.8710    0.5840 C   0  0  0  0  0  0  0  0  0  0  0  0
   -2.8420    1.7490   -0.3020 C   0  0  0  0  0  0  0  0  0  0  0  0
   -1.9300    0.7630   -0.4120 C   0  0  0  0  0  0  0  0  0  0  0  0
   -0.9100    1.0220   -1.4600 C   0  0  0  0  0  0  0  0  0  0  0  0
   -1.8900   -0.4870    0.3160 C   0  0  0  0  0  0  0  0  0  0  0  0
   -0.6920   -1.2180    0.4530 C   0  0  0  0  0  0  0  0  0  0  0  0
   -0.9680   -2.4500    0.9710 O   0  0  0  0  0  0  0  0  0  0  0  0
    0.6780   -1.0580    0.2300 C   0  0  0  0  0  0  0  0  0  0  0  0
    1.5660   -0.2120   -0.1390 C   0  0  0  0  0  0  0  0  0  0  0  0
    3.0460   -0.6700   -0.1950 C   0  0  2  0  0  0  0  0  0  0  0  0
    2.9770   -2.0240   -0.5120 O   0  0  0  0  0  0  0  0  0  0  0  0
    3.6850   -0.5080    1.1440 C   0  0  0  0  0  0  0  0  0  0  0  0
    4.3170    0.8630    1.3210 C   0  0  0  0  0  0  0  0  0  0  0  0
    5.3750    1.1110    0.2750 C   0  0  0  0  0  0  0  0  0  0  0  0
    5.1910    0.3040   -0.9680 C   0  0  0  0  0  0  0  0  0  0  0  0
    3.7540    0.0300   -1.3160 C   0  0  0  0  0  0  0  0  0  0  0  0
   -3.0050   -1.0730    0.8990 C   0  0  0  0  0  0  0  0  0  0  0  0
  1  2  1  0
  2  3  2  3
  3  4  1  0
  3 21  1  0
  4  5  2  0
  5  6  1  0
  6  7  2  0
  7  8  1  0
  7  9  1  0
  9 10  1  0
  9 21  2  0
 10 11  2  0
 10 12  1  0
 12 13  2  3
 13 14  1  0
 14 15  1  6
 14 16  1  0
 14 20  1  0
 16 17  1  0
 17 18  1  0
 18 19  1  0
 19 20  1  0
M  END
