
     RDKit          3D

 21 22  0  0  0  0  0  0  0  0999 V2000
    1.1900    3.2960    1.9900 C   0  0  0  0  0  0  0  0  0  0  0  0
    0.0030    2.9290    1.7650 C   0  0  0  0  0  0  0  0  0  0  0  0
   -0.7270    1.9010    1.1750 C   0  0  0  0  0  0  0  0  0  0  0  0
   -2.0780    2.0250    1.2270 C   0  0  0  0  0  0  0  0  0  0  0  0
   -2.6350    3.2380    1.9080 C   0  0  0  0  0  0  0  0  0  0  0  0
   -0.2030    0.6610    0.5010 C   0  0  0  0  0  0  0  0  0  0  0  0
    1.0810    0.5000    0.4080 C   0  0  0  0  0  0  0  0  0  0  0  0
    1.9790   -0.4740   -0.1290 C   0  0  0  0  0  0  0  0  0  0  0  0
    3.3300   -0.2530    0.0050 C   0  0  0  0  0  0  0  0  0  0  0  0
    4.2710   -1.2190   -0.5280 C   0  0  0  0  0  0  0  0  0  0  0  0
    5.4410   -1.3560    0.0540 C   0  0  0  0  0  0  0  0  0  0  0  0
    3.9460   -2.0490   -1.7070 C   0  0  0  0  0  0  0  0  0  0  0  0
    2.4430   -2.1520   -1.9030 C   0  0  0  0  0  0  0  0  0  0  0  0
    1.7440   -1.6450   -0.7900 O   0  0  0  0  0  0  0  0  0  0  0  0
   -1.2350   -0.2350    0.0210 C   0  0  2  0  0  0  0  0  0  0  0  0
   -2.1640   -0.3790    1.0860 O   0  0  0  0  0  0  0  0  0  0  0  0
   -0.9660   -1.6290   -0.4050 C   0  0  0  0  0  0  0  0  0  0  0  0
   -2.3450   -2.3540   -0.3110 C   0  0  0  0  0  0  0  0  0  0  0  0
   -3.4840   -1.5040   -0.6960 C   0  0  0  0  0  0  0  0  0  0  0  0
   -3.2280   -0.2680   -1.4790 C   0  0  0  0  0  0  0  0  0  0  0  0
   -1.9310    0.3900   -1.1960 C   0  0  0  0  0  0  0  0  0  0  0  0
  1  2  2  0
  2  3  1  0
  3  4  2  3
  3  6  1  0
  4  5  1  0
  6  7  2  3
  6 15  1  0
  7  8  1  0
  8  9  2  0
  8 14  1  0
  9 10  1  0
 10 11  2  0
 10 12  1  0
 12 13  1  0
 13 14  1  0
 15 16  1  1
 15 17  1  0
 15 21  1  0
 17 18  1  0
 18 19  1  0
 19 20  1  0
 20 21  1  0
M  END
