
     RDKit          3D

 21 23  0  0  0  0  0  0  0  0999 V2000
    6.9170   -1.4340    1.5320 C   0  0  0  0  0  0  0  0  0  0  0  0
    6.4380   -0.4600    0.4770 C   0  0  0  0  0  0  0  0  0  0  0  0
    5.1450    0.0890    0.9210 C   0  0  0  0  0  0  0  0  0  0  0  0
    4.0350   -0.0480    0.2290 C   0  0  0  0  0  0  0  0  0  0  0  0
    2.7630    0.4860    0.6530 C   0  0  0  0  0  0  0  0  0  0  0  0
    1.6750    0.3170   -0.0850 C   0  0  0  0  0  0  0  0  0  0  0  0
    1.7810   -0.4350   -1.3650 C   0  0  0  0  0  0  0  0  0  0  0  0
    0.4970   -0.1930   -2.1320 C   0  0  0  0  0  0  0  0  0  0  0  0
    0.1730    1.2860   -1.9750 C   0  0  0  0  0  0  0  0  0  0  0  0
   -0.4410    1.4670   -0.6250 C   0  0  1  0  0  0  0  0  0  0  0  0
   -1.8080    0.9200   -0.5360 C   0  0  0  0  0  0  0  0  0  0  0  0
   -2.5450    0.5850   -1.6510 C   0  0  0  0  0  0  0  0  0  0  0  0
   -3.8350    0.0700   -1.5470 C   0  0  0  0  0  0  0  0  0  0  0  0
   -4.4220   -0.1230   -0.3150 C   0  0  0  0  0  0  0  0  0  0  0  0
   -3.6920    0.2080    0.8000 C   0  0  0  0  0  0  0  0  0  0  0  0
   -2.3950    0.7260    0.6900 C   0  0  0  0  0  0  0  0  0  0  0  0
   -4.5260   -0.0940    1.9810 C   0  0  2  0  0  0  0  0  0  0  0  0
   -4.3930   -1.4440    2.3280 O   0  0  0  0  0  0  0  0  0  0  0  0
   -5.9300    0.0810    1.4510 C   0  0  0  0  0  0  0  0  0  0  0  0
   -5.7700   -0.6430    0.1030 C   0  0  0  0  0  0  0  0  0  0  0  0
    0.4340    0.8310    0.3170 O   0  0  0  0  0  0  0  0  0  0  0  0
  1  2  1  0
  2  3  1  0
  3  4  2  3
  4  5  1  0
  5  6  2  3
  6  7  1  0
  6 21  1  0
  7  8  1  0
  8  9  1  0
  9 10  1  0
 10 11  1  6
 10 21  1  0
 11 12  2  0
 11 16  1  0
 12 13  1  0
 13 14  2  0
 14 15  1  0
 14 20  1  0
 15 16  2  0
 15 17  1  0
 17 18  1  6
 17 19  1  0
 19 20  1  0
M  END
