
     RDKit          3D

 21 23  0  0  0  0  0  0  0  0999 V2000
    2.8810   -2.3640   -2.1990 C   0  0  0  0  0  0  0  0  0  0  0  0
    2.7350   -1.3480   -1.3680 C   0  0  0  0  0  0  0  0  0  0  0  0
    1.6980   -0.3050   -1.6140 C   0  0  0  0  0  0  0  0  0  0  0  0
    1.1080    0.1140   -0.3170 C   0  0  0  0  0  0  0  0  0  0  0  0
   -0.2100    0.2810   -0.3980 C   0  0  0  0  0  0  0  0  0  0  0  0
   -1.0500    0.0850   -1.6000 C   0  0  0  0  0  0  0  0  0  0  0  0
   -2.4550    0.2420   -1.1370 C   0  0  1  0  0  0  0  0  0  0  0  0
   -3.1570    1.3560   -1.9220 C   0  0  0  0  0  0  0  0  0  0  0  0
   -3.2530   -1.0430   -1.2360 C   0  0  0  0  0  0  0  0  0  0  0  0
   -2.3860    0.7060    0.2640 C   0  0  0  0  0  0  0  0  0  0  0  0
   -3.5170    1.0720    1.0410 O   0  0  0  0  0  0  0  0  0  0  0  0
   -3.9320    0.1510    2.0490 C   0  0  0  0  0  0  0  0  0  0  0  0
   -1.1370    0.7190    0.6470 C   0  0  0  0  0  0  0  0  0  0  0  0
   -0.7620    1.1760    2.0350 C   0  0  0  0  0  0  0  0  0  0  0  0
    0.5170    2.0000    1.9470 C   0  0  0  0  0  0  0  0  0  0  0  0
    1.6670    1.0860    2.1210 C   0  0  0  0  0  0  0  0  0  0  0  0
    1.9360    0.2890    0.8740 C   0  0  0  0  0  0  0  0  0  0  0  0
    3.0950   -0.3210    0.9300 C   0  0  0  0  0  0  0  0  0  0  0  0
    3.5530   -1.1570   -0.1640 C   0  0  0  0  0  0  0  0  0  0  0  0
    4.7160   -1.7730   -0.1210 C   0  0  0  0  0  0  0  0  0  0  0  0
    5.5090   -1.6170    0.9930 O   0  0  0  0  0  0  0  0  0  0  0  0
  1  2  2  0
  2  3  1  0
  2 19  1  0
  3  4  1  0
  4  5  2  0
  4 17  1  0
  5  6  1  0
  5 13  1  0
  6  7  1  0
  7  8  1  6
  7  9  1  0
  7 10  1  0
 10 11  1  0
 10 13  2  0
 11 12  1  0
 13 14  1  0
 14 15  1  0
 15 16  1  0
 16 17  1  0
 17 18  2  0
 18 19  1  0
 19 20  2  3
 20 21  1  0
M  END
