
     RDKit          3D

 21 23  0  0  0  0  0  0  0  0999 V2000
   -1.3200   -2.4340    1.1280 C   0  0  0  0  0  0  0  0  0  0  0  0
   -2.0860   -1.4210    1.3570 C   0  0  0  0  0  0  0  0  0  0  0  0
   -2.3120   -0.1510    0.7650 C   0  0  0  0  0  0  0  0  0  0  0  0
   -3.2560    0.6370    1.3380 C   0  0  0  0  0  0  0  0  0  0  0  0
   -3.6190    1.9810    0.8510 C   0  0  0  0  0  0  0  0  0  0  0  0
   -2.5150    2.7440    0.2400 C   0  0  0  0  0  0  0  0  0  0  0  0
   -1.3080    1.9240   -0.0790 C   0  0  0  0  0  0  0  0  0  0  0  0
   -1.6280    0.4470   -0.3850 C   0  0  1  0  0  0  0  0  0  0  0  0
   -0.2960   -0.1240   -0.7090 C   0  0  0  0  0  0  0  0  0  0  0  0
    0.8530    0.2580   -0.0560 C   0  0  0  0  0  0  0  0  0  0  0  0
    2.1040   -0.3070   -0.3200 C   0  0  0  0  0  0  0  0  0  0  0  0
    3.2670    0.1470    0.4620 C   0  0  0  0  0  0  0  0  0  0  0  0
    4.5880   -0.2000    0.3700 C   0  0  0  0  0  0  0  0  0  0  0  0
    5.2910    0.5090    1.3380 C   0  0  0  0  0  0  0  0  0  0  0  0
    4.3390    1.2730    1.9840 C   0  0  0  0  0  0  0  0  0  0  0  0
    3.1930    1.0300    1.4460 O   0  0  0  0  0  0  0  0  0  0  0  0
    2.1430   -1.2810   -1.2770 C   0  0  0  0  0  0  0  0  0  0  0  0
    3.3590   -1.8770   -1.5820 O   0  0  0  0  0  0  0  0  0  0  0  0
    0.9760   -1.6770   -1.9460 C   0  0  0  0  0  0  0  0  0  0  0  0
   -0.2480   -1.1250   -1.6870 C   0  0  0  0  0  0  0  0  0  0  0  0
   -1.4950   -1.5410   -2.3750 C   0  0  0  0  0  0  0  0  0  0  0  0
  1  2  2  0
  2  3  1  0
  3  4  2  0
  3  8  1  0
  4  5  1  0
  5  6  1  0
  6  7  1  0
  7  8  1  0
  8  9  1  1
  9 10  2  0
  9 20  1  0
 10 11  1  0
 11 12  1  0
 11 17  2  0
 12 13  2  0
 12 16  1  0
 13 14  1  0
 14 15  2  0
 15 16  1  0
 17 18  1  0
 17 19  1  0
 19 20  2  0
 20 21  1  0
M  END
