
     RDKit          3D

 21 22  0  0  0  0  0  0  0  0999 V2000
    6.1110    0.4450    0.4950 C   0  0  0  0  0  0  0  0  0  0  0  0
    4.9230    1.0540   -0.1190 C   0  0  0  0  0  0  0  0  0  0  0  0
    3.7020    0.4670   -0.1040 C   0  0  0  0  0  0  0  0  0  0  0  0
    3.6580   -0.8280    0.5750 C   0  0  0  0  0  0  0  0  0  0  0  0
    2.6100    1.1700   -0.6520 C   0  0  0  0  0  0  0  0  0  0  0  0
    1.3540    0.9750   -0.8550 C   0  0  0  0  0  0  0  0  0  0  0  0
    0.4150    2.0080   -1.4870 C   0  0  0  0  0  0  0  0  0  0  0  0
   -0.7750    1.7240   -0.5110 C   0  0  0  0  0  0  0  0  0  0  0  0
   -0.7990    0.2650   -0.4870 C   0  0  0  0  0  0  0  0  0  0  0  0
    0.4650   -0.1580   -0.6920 C   0  0  0  0  0  0  0  0  0  0  0  0
    1.0640   -1.4740   -0.8060 C   0  0  0  0  0  0  0  0  0  0  0  0
    0.8160   -2.6750   -0.3170 C   0  0  0  0  0  0  0  0  0  0  0  0
   -0.2430   -3.1710    0.6000 C   0  0  0  0  0  0  0  0  0  0  0  0
   -1.4870   -2.7360    0.8020 C   0  0  0  0  0  0  0  0  0  0  0  0
   -2.3140   -1.6690    0.2650 C   0  0  0  0  0  0  0  0  0  0  0  0
   -2.0550   -0.4650   -0.2550 C   0  0  0  0  0  0  0  0  0  0  0  0
   -3.2630    0.1900   -0.6520 C   0  0  0  0  0  0  0  0  0  0  0  0
   -3.3100    1.2980   -1.1850 O   0  0  0  0  0  0  0  0  0  0  0  0
   -4.5150   -0.4260   -0.4460 O   0  0  0  0  0  0  0  0  0  0  0  0
   -5.7100    0.2280   -0.8400 C   0  0  0  0  0  0  0  0  0  0  0  0
   -5.8690    1.5590   -0.1290 C   0  0  0  0  0  0  0  0  0  0  0  0
  1  2  1  0
  2  3  2  3
  3  4  1  0
  3  5  1  0
  5  6  2  3
  6  7  1  0
  6 10  1  0
  7  8  1  0
  8  9  1  0
  9 10  2  0
  9 16  1  0
 10 11  1  0
 11 12  2  0
 12 13  1  0
 13 14  2  0
 14 15  1  0
 15 16  2  0
 16 17  1  0
 17 18  2  0
 17 19  1  0
 19 20  1  0
 20 21  1  0
M  END
