
     RDKit          3D

 25 26  0  0  0  0  0  0  0  0999 V2000
   -2.8850   -2.6750   -0.0440 N   0  0  0  0  0  0  0  0  0  0  0  0
   -3.7540   -1.7220    0.5260 C   0  0  0  0  0  0  0  0  0  0  0  0
   -5.0040   -2.3830    1.0940 C   0  0  0  0  0  0  0  0  0  0  0  0
   -5.8800   -1.6780    1.6380 O   0  0  0  0  0  0  0  0  0  0  0  0
   -3.7160   -0.4660    0.6600 C   0  0  0  0  0  0  0  0  0  0  0  0
   -2.7830    0.6270    0.3080 C   0  0  0  0  0  0  0  0  0  0  0  0
   -3.2220    1.8220    0.6920 C   0  0  0  0  0  0  0  0  0  0  0  0
   -4.4800    1.7800    1.3350 F   0  0  0  0  0  0  0  0  0  0  0  0
   -2.6400    3.1410    0.6120 C   0  0  1  0  0  0  0  0  0  0  0  0
   -2.9660    3.8890   -0.4940 F   0  0  0  0  0  0  0  0  0  0  0  0
   -3.2130    3.9260    1.6910 F   0  0  0  0  0  0  0  0  0  0  0  0
   -1.3100    3.2050    0.9070 F   0  0  0  0  0  0  0  0  0  0  0  0
   -1.5610    0.2910   -0.3790 C   0  0  2  0  0  0  0  0  0  0  0  0
   -1.9330   -0.8010   -1.2710 O   0  0  0  0  0  0  0  0  0  0  0  0
   -0.5710   -0.4050    0.5740 C   0  0  0  0  0  0  0  0  0  0  0  0
    0.4680   -1.0320   -0.3260 C   0  0  0  0  0  0  0  0  0  0  0  0
    1.3240    0.0410   -0.7910 N   0  0  0  0  0  0  0  0  0  0  0  0
    2.5100    0.0660    0.0260 C   0  0  1  0  0  0  0  0  0  0  0  0
    3.3390   -1.1800   -0.0730 C   0  0  0  0  0  0  0  0  0  0  0  0
    4.6600   -1.0010   -0.7450 C   0  0  0  0  0  0  0  0  0  0  0  0
    5.6940   -0.3070    0.1230 C   0  0  0  0  0  0  0  0  0  0  0  0
    4.8180    1.1280    0.8640 S   0  0  0  0  0  0  0  0  0  0  0  0
    3.3280    1.3380   -0.1910 C   0  0  0  0  0  0  0  0  0  0  0  0
    0.6750    1.3330   -0.8250 C   0  0  0  0  0  0  0  0  0  0  0  0
   -0.7860    1.2310   -1.1890 C   0  0  0  0  0  0  0  0  0  0  0  0
  1  2  1  0
  2  3  1  0
  2  5  2  3
  3  4  2  0
  5  6  1  0
  6  7  2  3
  6 13  1  0
  7  8  1  0
  7  9  1  0
  9 10  1  6
  9 11  1  0
  9 12  1  0
 13 14  1  6
 13 15  1  0
 13 25  1  0
 15 16  1  0
 16 17  1  0
 18 17  1  6
 17 24  1  0
 18 19  1  0
 18 23  1  0
 19 20  1  0
 20 21  1  0
 21 22  1  0
 22 23  1  0
 24 25  1  0
M  END
