
     RDKit          3D

 24 26  0  0  0  0  0  0  0  0999 V2000
    3.7200   -1.8460    0.0510 C   0  0  0  0  0  0  0  0  0  0  0  0
    4.1400   -0.4430   -0.1620 C   0  0  0  0  0  0  0  0  0  0  0  0
    5.3970   -0.0680   -0.0610 O   0  0  0  0  0  0  0  0  0  0  0  0
    5.5200    1.2040   -0.2930 C   0  0  0  0  0  0  0  0  0  0  0  0
    6.7930    1.9770   -0.2670 C   0  0  2  0  0  0  0  0  0  0  0  0
    7.8350    1.1160    0.0380 F   0  0  0  0  0  0  0  0  0  0  0  0
    6.7080    2.9320    0.7410 F   0  0  0  0  0  0  0  0  0  0  0  0
    7.0140    2.5720   -1.4830 F   0  0  0  0  0  0  0  0  0  0  0  0
    4.2720    1.7110   -0.5650 C   0  0  0  0  0  0  0  0  0  0  0  0
    3.3750    0.6380   -0.4790 C   0  0  0  0  0  0  0  0  0  0  0  0
    1.9330    0.7060   -0.6590 C   0  0  0  0  0  0  0  0  0  0  0  0
    1.4930    1.6600   -1.3740 O   0  0  0  0  0  0  0  0  0  0  0  0
    1.0160   -0.2100   -0.0910 N   0  0  0  0  0  0  0  0  0  0  0  0
   -0.3680   -0.0210   -0.3830 C   0  0  0  0  0  0  0  0  0  0  0  0
   -1.0520    1.1860   -1.4260 S   0  0  0  0  0  0  0  0  0  0  0  0
   -2.7550    0.7120   -1.2380 C   0  0  0  0  0  0  0  0  0  0  0  0
   -2.6710   -0.3370   -0.3850 C   0  0  0  0  0  0  0  0  0  0  0  0
   -1.4610   -0.7260    0.0630 C   0  0  0  0  0  0  0  0  0  0  0  0
   -1.1830   -1.8750    1.0350 C   0  0  0  0  0  0  0  0  0  0  0  0
   -2.4240   -2.4970    1.3900 N   0  0  0  0  0  0  0  0  0  0  0  0
   -4.1180   -0.8040   -0.1770 C   0  0  0  0  0  0  0  0  0  0  0  0
   -4.9550    0.3600   -0.5900 C   0  0  1  0  0  0  0  0  0  0  0  0
   -5.1350    1.2650    0.6110 C   0  0  0  0  0  0  0  0  0  0  0  0
   -4.1350    1.0370   -1.6630 C   0  0  0  0  0  0  0  0  0  0  0  0
  1  2  1  0
  2  3  1  0
  2 10  2  0
  3  4  1  0
  4  5  1  0
  4  9  2  0
  5  6  1  1
  5  7  1  0
  5  8  1  0
  9 10  1  0
 10 11  1  0
 11 12  2  0
 11 13  1  0
 13 14  1  0
 14 15  1  0
 14 18  2  0
 15 16  1  0
 16 17  2  0
 16 24  1  0
 17 18  1  0
 17 21  1  0
 18 19  1  0
 19 20  1  0
 21 22  1  0
 22 23  1  1
 22 24  1  0
M  END
