
     RDKit          3D

 25 27  0  0  0  0  0  0  0  0999 V2000
   -2.1990   -1.7260    1.2520 C   0  0  0  0  0  0  0  0  0  0  0  0
   -2.4260   -0.4680    0.4500 C   0  0  2  0  0  0  0  0  0  0  0  0
   -3.4280   -0.4480   -0.6660 C   0  0  0  0  0  0  0  0  0  0  0  0
   -2.7870    0.3150   -1.8060 C   0  0  0  0  0  0  0  0  0  0  0  0
   -1.6540    1.1100   -1.1850 C   0  0  0  0  0  0  0  0  0  0  0  0
   -1.3160    0.4380    0.1210 C   0  0  2  0  0  0  0  0  0  0  0  0
    0.0450    0.1230    0.5200 C   0  0  1  0  0  0  0  0  0  0  0  0
    0.6600   -1.1120   -0.0570 C   0  0  0  0  0  0  0  0  0  0  0  0
    0.1940   -1.9680   -0.8990 C   0  0  0  0  0  0  0  0  0  0  0  0
    0.8240   -3.1600   -1.4400 C   0  0  1  0  0  0  0  0  0  0  0  0
    0.6560   -4.3060   -0.6910 F   0  0  0  0  0  0  0  0  0  0  0  0
    0.2310   -3.4720   -2.6790 F   0  0  0  0  0  0  0  0  0  0  0  0
    2.1790   -2.9850   -1.7560 F   0  0  0  0  0  0  0  0  0  0  0  0
    1.9790   -1.0960    0.5770 C   0  0  0  0  0  0  0  0  0  0  0  0
    2.7250   -2.1190    0.9510 C   0  0  0  0  0  0  0  0  0  0  0  0
    4.0390   -1.8690    1.5780 C   0  0  0  0  0  0  0  0  0  0  0  0
    4.3860   -0.5690    1.7270 F   0  0  0  0  0  0  0  0  0  0  0  0
    2.3570    0.3560    0.7590 C   0  0  0  0  0  0  0  0  0  0  0  0
    1.1310    1.0950    0.2210 C   0  0  2  0  0  0  0  0  0  0  0  0
    0.9860    2.3780    0.8820 N   0  0  0  0  0  0  0  0  0  0  0  0
    1.2430    3.6020   -0.3000 S   0  0  1  0  0  0  0  0  0  0  0  0
   -0.1770    4.1120   -1.0880 N   0  0  0  0  0  0  0  0  0  0  0  0
    1.9410    4.7490    0.4070 O   0  0  0  0  0  0  0  0  0  0  0  0
    2.2260    3.0560   -1.3100 O   0  0  0  0  0  0  0  0  0  0  0  0
   -2.3130    0.7900    1.2390 C   0  0  0  0  0  0  0  0  0  0  0  0
  2  1  1  1
  2  3  1  0
  2  6  1  0
  2 25  1  0
  3  4  1  0
  4  5  1  0
  6  5  1  6
  6  7  1  0
  6 25  1  0
  7  8  1  6
  7 19  1  0
  8  9  2  3
  8 14  1  0
  9 10  1  0
 10 11  1  1
 10 12  1  0
 10 13  1  0
 14 15  2  3
 14 18  1  0
 15 16  1  0
 16 17  1  0
 18 19  1  0
 19 20  1  1
 20 21  1  0
 21 22  1  6
 21 23  2  0
 21 24  2  0
M  END
