
     RDKit          3D

  9  8  0  0  0  0  0  0  0  0999 V2000
   -1.9070   -1.4990    0.4250 O   0  0  0  0  0  0  0  0  0  0  0  0
   -2.1380   -0.1550    0.5080 C   0  0  0  0  0  0  0  0  0  0  0  0
   -1.1790    0.6850   -0.3370 C   0  0  1  0  0  0  0  0  0  0  0  0
   -1.4980    2.0080   -0.0890 O   0  0  0  0  0  0  0  0  0  0  0  0
    0.1240    0.4470    0.0860 O   0  0  0  0  0  0  0  0  0  0  0  0
    0.8610   -0.2680   -0.8800 C   0  0  0  0  0  0  0  0  0  0  0  0
    2.0560   -0.8580   -0.1090 C   0  0  0  0  0  0  0  0  0  0  0  0
    2.8510    0.2140    0.1230 O   0  0  0  0  0  0  0  0  0  0  0  0
    3.0400    0.4130    1.4190 O   0  0  0  0  0  0  0  0  0  0  0  0
  1  2  1  0
  2  3  1  0
  3  4  1  1
  3  5  1  0
  5  6  1  0
  6  7  1  0
  7  8  1  0
  8  9  1  0
M  END
