
     RDKit          3D

 26 28  0  0  0  0  0  0  0  0999 V2000
    8.1600   -1.5920    1.8020 C   0  0  0  0  0  0  0  0  0  0  0  0
    7.9390   -0.2240    1.4930 O   0  0  0  0  0  0  0  0  0  0  0  0
    6.8720    0.0620    0.6080 C   0  0  0  0  0  0  0  0  0  0  0  0
    7.1450    0.5170   -0.5850 C   0  0  0  0  0  0  0  0  0  0  0  0
    8.5040    0.7110   -0.9560 O   0  0  0  0  0  0  0  0  0  0  0  0
    6.1020    0.8400   -1.5660 C   0  0  0  0  0  0  0  0  0  0  0  0
    4.7080    0.6300   -1.1560 C   0  0  0  0  0  0  0  0  0  0  0  0
    4.5080    0.1180    0.1980 C   0  0  0  0  0  0  0  0  0  0  0  0
    3.1260   -0.1010    0.6320 C   0  0  0  0  0  0  0  0  0  0  0  0
    2.1010    0.1570   -0.1730 C   0  0  0  0  0  0  0  0  0  0  0  0
    0.7530   -0.0730    0.2940 C   0  0  0  0  0  0  0  0  0  0  0  0
   -0.2730    0.1800   -0.4970 C   0  0  0  0  0  0  0  0  0  0  0  0
   -0.1630    0.6850   -1.8410 C   0  0  0  0  0  0  0  0  0  0  0  0
   -1.2120    0.9030   -2.5400 N   0  0  0  0  0  0  0  0  0  0  0  0
   -2.4810    0.6290   -1.9450 C   0  0  0  0  0  0  0  0  0  0  0  0
   -3.2860    1.6610   -1.4720 C   0  0  0  0  0  0  0  0  0  0  0  0
   -4.4920    1.3360   -0.9120 C   0  0  0  0  0  0  0  0  0  0  0  0
   -4.9690    0.0480   -0.7830 C   0  0  0  0  0  0  0  0  0  0  0  0
   -6.2220   -0.2350   -0.1960 N   0  0  0  0  0  0  0  0  0  0  0  0
   -6.8200   -1.5320   -0.0120 C   0  0  0  0  0  0  0  0  0  0  0  0
   -7.8690   -1.3920    1.0490 C   0  0  0  0  0  0  0  0  0  0  0  0
   -7.8040    0.0370    1.4820 C   0  0  0  0  0  0  0  0  0  0  0  0
   -7.1380    0.7370    0.3300 C   0  0  0  0  0  0  0  0  0  0  0  0
   -4.1540   -0.9210   -1.2550 N   0  0  0  0  0  0  0  0  0  0  0  0
   -2.9640   -0.6530   -1.8120 C   0  0  0  0  0  0  0  0  0  0  0  0
    5.5070   -0.1490    1.0250 C   0  0  0  0  0  0  0  0  0  0  0  0
  1  2  1  0
  2  3  1  0
  3  4  2  0
  3 26  1  0
  4  5  1  0
  4  6  1  0
  6  7  1  0
  7  8  1  0
  8  9  1  0
  8 26  2  0
  9 10  2  3
 10 11  1  0
 11 12  2  3
 12 13  1  0
 13 14  2  3
 14 15  1  0
 15 16  2  0
 15 25  1  0
 16 17  1  0
 17 18  2  0
 18 19  1  0
 18 24  1  0
 19 20  1  0
 19 23  1  0
 20 21  1  0
 21 22  1  0
 22 23  1  0
 24 25  2  0
M  END
