
     RDKit          3D

 19 19  0  0  0  0  0  0  0  0999 V2000
    1.4390    1.0170    1.3740 C   0  0  0  0  0  0  0  0  0  0  0  0
    2.0740   -0.1400    0.6180 C   0  0  2  0  0  0  0  0  0  0  0  0
    3.4160   -0.0980    0.9410 O   0  0  0  0  0  0  0  0  0  0  0  0
    4.1550    0.8920    0.4050 C   0  0  0  0  0  0  0  0  0  0  0  0
    3.6460    1.4290   -0.9120 C   0  0  1  0  0  0  0  0  0  0  0  0
    4.7250    1.9450   -1.6220 O   0  0  0  0  0  0  0  0  0  0  0  0
    3.0330    0.2350   -1.6180 C   0  0  0  0  0  0  0  0  0  0  0  0
    1.7460   -0.0250   -0.8000 C   0  0  1  0  0  0  0  0  0  0  0  0
    1.0470   -1.0760   -1.3620 O   0  0  0  0  0  0  0  0  0  0  0  0
   -0.0680   -0.7310   -2.0500 C   0  0  0  0  0  0  0  0  0  0  0  0
   -1.2340   -0.1660   -1.3500 C   0  0  0  0  0  0  0  0  0  0  0  0
   -2.0100   -1.0050   -0.4230 C   0  0  1  0  0  0  0  0  0  0  0  0
   -2.5920   -2.1300   -1.0850 O   0  0  0  0  0  0  0  0  0  0  0  0
   -1.2370   -1.6250    0.7130 C   0  0  0  0  0  0  0  0  0  0  0  0
   -0.3160   -2.5610    0.2360 O   0  0  0  0  0  0  0  0  0  0  0  0
   -3.2070   -0.2420    0.1060 C   0  0  1  0  0  0  0  0  0  0  0  0
   -4.0200   -1.0890    1.0610 C   0  0  0  0  0  0  0  0  0  0  0  0
   -2.8940    1.0800    0.7100 C   0  0  0  0  0  0  0  0  0  0  0  0
   -4.1060    1.6650    1.1640 O   0  0  0  0  0  0  0  0  0  0  0  0
  2  1  1  1
  2  3  1  0
  2  8  1  0
  3  4  1  0
  4  5  1  0
  5  6  1  6
  5  7  1  0
  7  8  1  0
  8  9  1  6
  9 10  1  0
 10 11  1  0
 11 12  1  0
 12 13  1  6
 12 14  1  0
 12 16  1  0
 14 15  1  0
 16 17  1  1
 16 18  1  0
 18 19  1  0
M  END
