
     RDKit          3D

 26 28  0  0  0  0  0  0  0  0999 V2000
    4.9140   -3.6720   -0.0710 C   0  0  0  0  0  0  0  0  0  0  0  0
    5.7180   -2.4610    0.3980 C   0  0  0  0  0  0  0  0  0  0  0  0
    5.5130   -1.3180   -0.4250 N   0  0  0  0  0  0  0  0  0  0  0  0
    6.3420   -1.0010   -1.5680 C   0  0  0  0  0  0  0  0  0  0  0  0
    4.4270   -0.4050   -0.1310 C   0  0  0  0  0  0  0  0  0  0  0  0
    4.2880    0.6120   -0.8600 O   0  0  0  0  0  0  0  0  0  0  0  0
    3.5600   -0.6910    0.9640 C   0  0  0  0  0  0  0  0  0  0  0  0
    2.5540   -0.0070    1.3790 C   0  0  0  0  0  0  0  0  0  0  0  0
    1.7440   -0.4710    2.5660 C   0  0  0  0  0  0  0  0  0  0  0  0
    0.4520   -0.2360    2.5190 C   0  0  0  0  0  0  0  0  0  0  0  0
   -0.4300   -0.6550    3.6620 C   0  0  0  0  0  0  0  0  0  0  0  0
   -0.1430    0.3650    1.3760 N   0  0  0  0  0  0  0  0  0  0  0  0
   -1.5600    0.1650    1.1710 C   0  0  0  0  0  0  0  0  0  0  0  0
   -2.1600   -0.5560    2.0360 O   0  0  0  0  0  0  0  0  0  0  0  0
   -2.3680    0.6890    0.0980 C   0  0  0  0  0  0  0  0  0  0  0  0
   -2.1140    1.4740   -0.9530 N   0  0  0  0  0  0  0  0  0  0  0  0
   -3.2290    1.6860   -1.7230 C   0  0  0  0  0  0  0  0  0  0  0  0
   -4.2260    1.0000   -1.1200 C   0  0  0  0  0  0  0  0  0  0  0  0
   -3.7310    0.3870   -0.0150 C   0  0  0  0  0  0  0  0  0  0  0  0
   -4.5330   -0.4710    0.9210 C   0  0  0  0  0  0  0  0  0  0  0  0
   -5.6300    0.9840   -1.6840 C   0  0  0  0  0  0  0  0  0  0  0  0
   -5.3850    1.0140   -3.2050 C   0  0  0  0  0  0  0  0  0  0  0  0
   -4.7890    2.3580   -3.4890 C   0  0  0  0  0  0  0  0  0  0  0  0
   -3.4010    2.4830   -2.9690 C   0  0  0  0  0  0  0  0  0  0  0  0
    0.6240    1.1140    0.4360 C   0  0  0  0  0  0  0  0  0  0  0  0
    2.0780    1.2660    0.8110 C   0  0  0  0  0  0  0  0  0  0  0  0
  1  2  1  0
  2  3  1  0
  3  4  1  0
  3  5  1  0
  5  6  2  0
  5  7  1  0
  7  8  2  3
  8  9  1  0
  8 26  1  0
  9 10  2  0
 10 11  1  0
 10 12  1  0
 12 13  1  0
 12 25  1  0
 13 14  2  0
 13 15  1  0
 15 16  1  0
 15 19  2  0
 16 17  1  0
 17 18  2  0
 17 24  1  0
 18 19  1  0
 18 21  1  0
 19 20  1  0
 21 22  1  0
 22 23  1  0
 23 24  1  0
 25 26  1  0
M  END
