
     RDKit          3D

 14 14  0  0  0  0  0  0  0  0999 V2000
    4.1410   -0.1130    1.3960 C   0  0  0  0  0  0  0  0  0  0  0  0
    3.1180    0.4460    0.3940 C   0  0  0  0  0  0  0  0  0  0  0  0
    2.9270   -0.6380   -0.6430 C   0  0  0  0  0  0  0  0  0  0  0  0
    1.7610   -0.2340   -1.9330 S   0  0  0  0  0  0  0  0  0  0  0  0
    0.1210   -0.1970   -1.2750 C   0  0  0  0  0  0  0  0  0  0  0  0
   -0.9060    0.2070   -2.1080 C   0  0  0  0  0  0  0  0  0  0  0  0
   -2.1860    0.2240   -1.6120 C   0  0  0  0  0  0  0  0  0  0  0  0
   -2.4660   -0.1480   -0.3130 C   0  0  0  0  0  0  0  0  0  0  0  0
   -4.0970   -0.1160    0.2980 S   0  0  1  0  0  0  0  0  0  0  0  0
   -4.3650    1.4650    0.9800 N   0  0  0  0  0  0  0  0  0  0  0  0
   -5.0790   -0.2740   -0.8280 O   0  0  0  0  0  0  0  0  0  0  0  0
   -4.3120   -1.1870    1.2950 O   0  0  0  0  0  0  0  0  0  0  0  0
   -1.4510   -0.5520    0.5290 C   0  0  0  0  0  0  0  0  0  0  0  0
   -0.1670   -0.5660    0.0180 C   0  0  0  0  0  0  0  0  0  0  0  0
  1  2  1  0
  2  3  1  0
  3  4  1  0
  4  5  1  0
  5  6  2  0
  5 14  1  0
  6  7  1  0
  7  8  2  0
  8  9  1  0
  8 13  1  0
  9 10  1  1
  9 11  2  0
  9 12  2  0
 13 14  2  0
M  END
