
     RDKit          3D

 19 19  0  0  0  0  0  0  0  0999 V2000
   -3.8080    0.2810   -0.7250 C   0  0  0  0  0  0  0  0  0  0  0  0
   -2.3710   -0.2270   -0.7120 C   0  0  2  0  0  0  0  0  0  0  0  0
   -2.3730   -1.4640   -1.6220 C   0  0  0  0  0  0  0  0  0  0  0  0
   -3.2530   -2.4250   -1.1270 O   0  0  0  0  0  0  0  0  0  0  0  0
   -2.0860   -0.6710    0.6990 C   0  0  0  0  0  0  0  0  0  0  0  0
   -2.0120    0.5020    1.6260 C   0  0  0  0  0  0  0  0  0  0  0  0
   -1.3310    1.6990    1.0210 C   0  0  0  0  0  0  0  0  0  0  0  0
   -0.4720    1.2970   -0.1500 C   0  0  1  0  0  0  0  0  0  0  0  0
    0.3230    2.4720   -0.6580 C   0  0  0  0  0  0  0  0  0  0  0  0
    0.4410    0.3060    0.1880 O   0  0  0  0  0  0  0  0  0  0  0  0
    1.2880    0.7440    1.1900 C   0  0  0  0  0  0  0  0  0  0  0  0
    2.3050   -0.3040    1.5860 C   0  0  1  0  0  0  0  0  0  0  0  0
    1.7410   -1.4650    2.0560 O   0  0  0  0  0  0  0  0  0  0  0  0
    3.3150   -0.5190    0.4890 C   0  0  0  0  0  0  0  0  0  0  0  0
    4.3570   -1.3170    0.9470 O   0  0  0  0  0  0  0  0  0  0  0  0
    5.3080   -1.5330   -0.0490 C   0  0  0  0  0  0  0  0  0  0  0  0
    4.7060   -2.1770   -1.1500 O   0  0  0  0  0  0  0  0  0  0  0  0
   -1.3990    0.7870   -1.2320 C   0  0  2  0  0  0  0  0  0  0  0  0
   -2.0990    1.7900   -1.8430 O   0  0  0  0  0  0  0  0  0  0  0  0
  2  1  1  1
  2  3  1  0
  2  5  1  0
  2 18  1  0
  3  4  1  0
  5  6  1  0
  6  7  1  0
  7  8  1  0
  8  9  1  6
  8 10  1  0
  8 18  1  0
 10 11  1  0
 11 12  1  0
 12 13  1  6
 12 14  1  0
 14 15  1  0
 15 16  1  0
 16 17  1  0
 18 19  1  1
M  END
