
     RDKit          3D

 26 29  0  0  0  0  0  0  0  0999 V2000
    5.6290    2.7440   -1.5610 C   0  0  0  0  0  0  0  0  0  0  0  0
    4.9790    1.3640   -1.5000 C   0  0  0  0  0  0  0  0  0  0  0  0
    5.2950    0.6760   -0.2400 C   0  0  0  0  0  0  0  0  0  0  0  0
    4.4440    0.2600    0.6690 C   0  0  0  0  0  0  0  0  0  0  0  0
    2.9790    0.4280    0.5540 C   0  0  0  0  0  0  0  0  0  0  0  0
    2.4080   -0.8720    0.5730 O   0  0  0  0  0  0  0  0  0  0  0  0
    1.0390   -1.0810    0.4830 C   0  0  0  0  0  0  0  0  0  0  0  0
    0.1210   -0.0600    0.3680 C   0  0  0  0  0  0  0  0  0  0  0  0
   -1.2460   -0.2860    0.2780 C   0  0  0  0  0  0  0  0  0  0  0  0
   -1.7260   -1.5790    0.3040 C   0  0  0  0  0  0  0  0  0  0  0  0
   -0.8150   -2.6160    0.4190 C   0  0  0  0  0  0  0  0  0  0  0  0
   -1.2660   -3.9220    0.4470 C   0  0  0  0  0  0  0  0  0  0  0  0
   -0.3700   -4.9610    0.5610 C   0  0  0  0  0  0  0  0  0  0  0  0
    0.9850   -4.7180    0.6490 C   0  0  0  0  0  0  0  0  0  0  0  0
    1.4500   -3.4220    0.6220 C   0  0  0  0  0  0  0  0  0  0  0  0
    0.5600   -2.3740    0.5080 C   0  0  0  0  0  0  0  0  0  0  0  0
   -3.1810   -1.5520    0.1960 C   0  0  0  0  0  0  0  0  0  0  0  0
   -3.9860   -2.5390    0.1840 O   0  0  0  0  0  0  0  0  0  0  0  0
   -3.6080   -0.1990    0.1020 N   0  0  0  0  0  0  0  0  0  0  0  0
   -5.0070    0.2370   -0.0210 C   0  0  0  0  0  0  0  0  0  0  0  0
   -5.2420    1.4630    0.8430 C   0  0  0  0  0  0  0  0  0  0  0  0
   -4.6160    2.6770    0.2930 C   0  0  0  0  0  0  0  0  0  0  0  0
   -3.3320    2.8260   -0.0200 C   0  0  0  0  0  0  0  0  0  0  0  0
   -2.9190    4.0790   -0.5400 N   0  0  0  0  0  0  0  0  0  0  0  0
   -2.2820    1.8600    0.1020 N   0  0  0  0  0  0  0  0  0  0  0  0
   -2.4170    0.5770    0.1520 C   0  0  0  0  0  0  0  0  0  0  0  0
  1  2  1  0
  2  3  1  0
  3  4  2  3
  4  5  1  0
  5  6  1  0
  6  7  1  0
  7  8  2  0
  7 16  1  0
  8  9  1  0
  9 10  2  0
  9 26  1  0
 10 11  1  0
 10 17  1  0
 11 12  2  0
 11 16  1  0
 12 13  1  0
 13 14  2  0
 14 15  1  0
 15 16  2  0
 17 18  2  0
 17 19  1  0
 19 20  1  0
 19 26  1  0
 20 21  1  0
 21 22  1  0
 22 23  2  0
 23 24  1  0
 23 25  1  0
 25 26  2  0
M  END
