
     RDKit          3D

 26 29  0  0  0  0  0  0  0  0999 V2000
    4.8260   -0.5030   -0.9760 O   0  0  0  0  0  0  0  0  0  0  0  0
    4.2830   -0.0260    0.0730 C   0  0  0  0  0  0  0  0  0  0  0  0
    5.1600    0.2930    1.1800 C   0  0  0  0  0  0  0  0  0  0  0  0
    6.4640    0.0900    1.0850 C   0  0  0  0  0  0  0  0  0  0  0  0
    7.2110   -0.4480   -0.0530 C   0  0  0  0  0  0  0  0  0  0  0  0
    8.6140   -0.4410    0.4230 C   0  0  0  0  0  0  0  0  0  0  0  0
    8.6610    0.0320    1.6540 C   0  0  0  0  0  0  0  0  0  0  0  0
    7.3720    0.3650    2.0900 O   0  0  0  0  0  0  0  0  0  0  0  0
    2.8570    0.1750    0.1220 C   0  0  0  0  0  0  0  0  0  0  0  0
    2.1120   -0.1690   -1.0070 C   0  0  0  0  0  0  0  0  0  0  0  0
    0.7280    0.0100   -1.0010 C   0  0  0  0  0  0  0  0  0  0  0  0
    0.0670    0.5160    0.0840 C   0  0  0  0  0  0  0  0  0  0  0  0
   -1.3310    0.6900    0.0560 N   0  0  0  0  0  0  0  0  0  0  0  0
   -2.0030    0.4700   -1.2010 C   0  0  0  0  0  0  0  0  0  0  0  0
   -2.4500   -0.9630   -1.3640 C   0  0  0  0  0  0  0  0  0  0  0  0
   -2.9560   -1.3850    0.0220 C   0  0  0  0  0  0  0  0  0  0  0  0
   -3.8050   -0.3160    0.4750 N   0  0  0  0  0  0  0  0  0  0  0  0
   -5.1730   -0.4330    0.1270 C   0  0  0  0  0  0  0  0  0  0  0  0
   -6.0840    0.5410    0.2920 C   0  0  0  0  0  0  0  0  0  0  0  0
   -7.3930    0.0510   -0.1840 C   0  0  0  0  0  0  0  0  0  0  0  0
   -7.0900   -1.3250   -0.6370 C   0  0  0  0  0  0  0  0  0  0  0  0
   -5.8610   -1.5370   -0.4440 N   0  0  0  0  0  0  0  0  0  0  0  0
   -3.4360    0.8470    1.2330 C   0  0  0  0  0  0  0  0  0  0  0  0
   -1.9620    1.0710    1.3110 C   0  0  0  0  0  0  0  0  0  0  0  0
    0.8250    0.8450    1.1780 C   0  0  0  0  0  0  0  0  0  0  0  0
    2.2010    0.6830    1.2140 C   0  0  0  0  0  0  0  0  0  0  0  0
  1  2  2  0
  2  3  1  0
  2  9  1  0
  3  4  2  3
  4  5  1  0
  4  8  1  0
  5  6  1  0
  6  7  2  0
  7  8  1  0
  9 10  2  0
  9 26  1  0
 10 11  1  0
 11 12  2  0
 12 13  1  0
 12 25  1  0
 13 14  1  0
 13 24  1  0
 14 15  1  0
 15 16  1  0
 16 17  1  0
 17 18  1  0
 17 23  1  0
 18 19  2  0
 18 22  1  0
 19 20  1  0
 20 21  1  0
 21 22  2  0
 23 24  1  0
 25 26  2  0
M  END
