
     RDKit          3D

 26 29  0  0  0  0  0  0  0  0999 V2000
   -3.7920   -0.4920   -2.9480 C   0  0  0  0  0  0  0  0  0  0  0  0
   -2.6880   -0.5360   -2.1740 C   0  0  0  0  0  0  0  0  0  0  0  0
   -1.5800   -1.2220   -2.7850 C   0  0  0  0  0  0  0  0  0  0  0  0
   -0.3950   -1.4990   -2.6100 C   0  0  0  0  0  0  0  0  0  0  0  0
    0.6470   -1.2700   -1.6430 C   0  0  0  0  0  0  0  0  0  0  0  0
    1.7210   -2.1660   -1.4050 C   0  0  0  0  0  0  0  0  0  0  0  0
    2.6140   -1.6320   -0.5710 N   0  0  0  0  0  0  0  0  0  0  0  0
    3.7810   -2.0660   -0.0420 C   0  0  0  0  0  0  0  0  0  0  0  0
    4.2060   -3.2050   -0.3360 O   0  0  0  0  0  0  0  0  0  0  0  0
    4.5150   -1.2790    0.8160 C   0  0  0  0  0  0  0  0  0  0  0  0
    5.7120   -1.7190    1.3620 C   0  0  0  0  0  0  0  0  0  0  0  0
    6.4650   -0.9540    2.2220 C   0  0  0  0  0  0  0  0  0  0  0  0
    5.9990    0.3060    2.5500 C   0  0  0  0  0  0  0  0  0  0  0  0
    4.8110    0.7670    2.0200 C   0  0  0  0  0  0  0  0  0  0  0  0
    4.0630   -0.0290    1.1480 C   0  0  0  0  0  0  0  0  0  0  0  0
    2.8880    0.3890    0.6050 C   0  0  0  0  0  0  0  0  0  0  0  0
    2.3920    1.7360    0.9570 C   0  0  0  0  0  0  0  0  0  0  0  0
    2.1570   -0.4160   -0.2610 C   0  0  0  0  0  0  0  0  0  0  0  0
    0.9830   -0.2050   -0.9040 N   0  0  0  0  0  0  0  0  0  0  0  0
   -2.7780    0.0040   -0.8560 C   0  0  0  0  0  0  0  0  0  0  0  0
   -1.7100   -0.1410   -0.1020 O   0  0  0  0  0  0  0  0  0  0  0  0
   -3.8230    0.6750   -0.2110 N   0  0  0  0  0  0  0  0  0  0  0  0
   -3.6300    1.1340    1.2210 C   0  0  0  0  0  0  0  0  0  0  0  0
   -5.0200    1.2140    1.7570 C   0  0  0  0  0  0  0  0  0  0  0  0
   -5.7510    1.8240    0.5770 C   0  0  0  0  0  0  0  0  0  0  0  0
   -5.1210    1.0680   -0.6110 C   0  0  0  0  0  0  0  0  0  0  0  0
  1  2  2  0
  2  3  1  0
  2 20  1  0
  3  4  2  3
  4  5  1  0
  5  6  2  0
  5 19  1  0
  6  7  1  0
  7  8  1  0
  7 18  1  0
  8  9  2  0
  8 10  1  0
 10 11  2  0
 10 15  1  0
 11 12  1  0
 12 13  2  0
 13 14  1  0
 14 15  2  0
 15 16  1  0
 16 17  1  0
 16 18  2  0
 18 19  1  0
 20 21  2  0
 20 22  1  0
 22 23  1  0
 22 26  1  0
 23 24  1  0
 24 25  1  0
 25 26  1  0
M  END
