
     RDKit          3D

 19 19  0  0  0  0  0  0  0  0999 V2000
   -2.6170    0.7490   -1.2720 C   0  0  0  0  0  0  0  0  0  0  0  0
   -2.4670   -0.3830   -0.2730 C   0  0  2  0  0  0  0  0  0  0  0  0
   -3.1930   -1.5830   -0.9030 C   0  0  0  0  0  0  0  0  0  0  0  0
   -4.5460   -1.2630   -1.1140 O   0  0  0  0  0  0  0  0  0  0  0  0
   -3.1830   -0.0720    1.0000 C   0  0  1  0  0  0  0  0  0  0  0  0
   -3.2050   -1.2120    1.7860 O   0  0  0  0  0  0  0  0  0  0  0  0
   -2.4280    1.0110    1.7270 C   0  0  0  0  0  0  0  0  0  0  0  0
   -1.0640    0.5490    2.0650 C   0  0  0  0  0  0  0  0  0  0  0  0
   -0.2530    0.0950    0.8490 C   0  0  1  0  0  0  0  0  0  0  0  0
    0.1700    1.3390    0.1470 C   0  0  0  0  0  0  0  0  0  0  0  0
    0.7420   -0.6630    1.4090 O   0  0  0  0  0  0  0  0  0  0  0  0
    1.6730   -1.2780    0.6880 C   0  0  0  0  0  0  0  0  0  0  0  0
    2.5990   -0.4150   -0.1550 C   0  0  0  0  0  0  0  0  0  0  0  0
    3.5220   -1.2350   -0.8400 O   0  0  0  0  0  0  0  0  0  0  0  0
    4.3580   -0.4870   -1.6410 C   0  0  0  0  0  0  0  0  0  0  0  0
    5.1660    0.5090   -0.8520 C   0  0  0  0  0  0  0  0  0  0  0  0
    5.9520   -0.1580    0.0900 O   0  0  0  0  0  0  0  0  0  0  0  0
   -1.0600   -0.7920   -0.0520 C   0  0  2  0  0  0  0  0  0  0  0  0
   -0.4250   -0.9240   -1.2690 O   0  0  0  0  0  0  0  0  0  0  0  0
  2  1  1  6
  2  3  1  0
  2  5  1  0
  2 18  1  0
  3  4  1  0
  5  6  1  1
  5  7  1  0
  7  8  1  0
  8  9  1  0
  9 10  1  6
  9 11  1  0
  9 18  1  0
 11 12  1  0
 12 13  1  0
 13 14  1  0
 14 15  1  0
 15 16  1  0
 16 17  1  0
 18 19  1  6
M  END
