
     RDKit          3D

 10 10  0  0  0  0  0  0  0  0999 V2000
   -0.5660   -1.7790   -1.1570 C   0  0  0  0  0  0  0  0  0  0  0  0
   -0.2120   -0.4580   -0.4860 C   0  0  1  0  0  0  0  0  0  0  0  0
   -1.4500    0.0580    0.1490 C   0  0  0  0  0  0  0  0  0  0  0  0
   -2.0340    1.2690   -0.2400 N   0  0  0  0  0  0  0  0  0  0  0  0
   -1.9750   -0.6240    1.0560 O   0  0  0  0  0  0  0  0  0  0  0  0
    0.7840   -0.7410    0.5960 C   0  0  0  0  0  0  0  0  0  0  0  0
    2.1260   -0.3630    0.2560 N   0  0  0  0  0  0  0  0  0  0  0  0
    2.2880    0.6900   -0.4480 C   0  0  0  0  0  0  0  0  0  0  0  0
    1.0090    1.3970   -0.8270 C   0  0  0  0  0  0  0  0  0  0  0  0
    0.2420    0.4100   -1.4680 O   0  0  0  0  0  0  0  0  0  0  0  0
  2  1  1  6
  2  3  1  0
  2  6  1  0
  2 10  1  0
  3  4  1  0
  3  5  2  0
  6  7  1  0
  7  8  2  0
  8  9  1  0
  9 10  1  0
M  END
