
     RDKit          3D

 10 10  0  0  0  0  0  0  0  0999 V2000
    4.0070   -0.1970    1.4950 C   0  0  0  0  0  0  0  0  0  0  0  0
    3.0430   -0.2170    0.4570 O   0  0  0  0  0  0  0  0  0  0  0  0
    1.6940   -0.0950    0.7650 C   0  0  0  0  0  0  0  0  0  0  0  0
    1.3850    0.0300    1.9630 O   0  0  0  0  0  0  0  0  0  0  0  0
    0.6630   -0.1050   -0.2090 N   0  0  0  0  0  0  0  0  0  0  0  0
   -0.7240    0.0170    0.0580 C   0  0  1  0  0  0  0  0  0  0  0  0
   -1.4190    1.1820   -0.5530 C   0  0  0  0  0  0  0  0  0  0  0  0
   -2.8520    0.6860   -0.4280 C   0  0  0  0  0  0  0  0  0  0  0  0
   -2.7100   -0.6150   -1.0730 N   0  0  0  0  0  0  0  0  0  0  0  0
   -1.5590   -1.1520   -0.3640 C   0  0  0  0  0  0  0  0  0  0  0  0
  1  2  1  0
  2  3  1  0
  3  4  2  0
  3  5  1  0
  6  5  1  6
  6  7  1  0
  6 10  1  0
  7  8  1  0
  8  9  1  0
  9 10  1  0
M  END
