
     RDKit          3D

 10 10  0  0  0  0  0  0  0  0999 V2000
    3.5160   -0.2550   -0.3080 N   0  0  0  0  0  0  0  0  0  0  0  0
    2.4110    0.3360    0.1880 O   0  0  0  0  0  0  0  0  0  0  0  0
    1.3040   -0.4970    0.0550 C   0  0  0  0  0  0  0  0  0  0  0  0
    0.1100    0.1950    0.6150 C   0  0  0  0  0  0  0  0  0  0  0  0
    0.0750    1.3940    1.1520 C   0  0  0  0  0  0  0  0  0  0  0  0
   -1.2760    1.7090    1.5780 C   0  0  0  0  0  0  0  0  0  0  0  0
   -2.0170    0.7190    1.2980 N   0  0  0  0  0  0  0  0  0  0  0  0
   -1.2690   -0.3210    0.6800 C   0  0  1  0  0  0  0  0  0  0  0  0
   -1.8590   -0.5070   -0.7160 C   0  0  0  0  0  0  0  0  0  0  0  0
   -3.2110   -0.8550   -0.5100 O   0  0  0  0  0  0  0  0  0  0  0  0
  1  2  1  0
  2  3  1  0
  3  4  1  0
  4  5  2  0
  4  8  1  0
  5  6  1  0
  6  7  2  0
  7  8  1  0
  8  9  1  6
  9 10  1  0
M  END
