
     RDKit          3D

 10 10  0  0  0  0  0  0  0  0999 V2000
    2.8420   -0.2810    0.0430 C   0  0  0  0  0  0  0  0  0  0  0  0
    1.9500    0.6430    0.8380 C   0  0  0  0  0  0  0  0  0  0  0  0
    0.6100    0.5840    0.3730 O   0  0  0  0  0  0  0  0  0  0  0  0
   -0.1400   -0.5810    0.3730 C   0  0  0  0  0  0  0  0  0  0  0  0
    0.4060   -1.6170    0.8060 O   0  0  0  0  0  0  0  0  0  0  0  0
   -1.5310   -0.6050   -0.1190 C   0  0  0  0  0  0  0  0  0  0  0  0
   -2.3870    0.2660   -0.6250 C   0  0  0  0  0  0  0  0  0  0  0  0
   -2.2540    1.6580   -0.8970 N   0  0  0  0  0  0  0  0  0  0  0  0
   -3.3650   -0.7630   -0.7380 N   0  0  0  0  0  0  0  0  0  0  0  0
   -2.5490   -1.6390   -0.2460 C   0  0  0  0  0  0  0  0  0  0  0  0
  1  2  1  0
  2  3  1  0
  3  4  1  0
  4  5  2  0
  4  6  1  0
  6  7  2  0
  6 10  1  0
  7  8  1  0
  7  9  1  0
  9 10  2  0
M  END
