
     RDKit          3D

 10 10  0  0  0  0  0  0  0  0999 V2000
   -2.7470   -0.3130    0.5580 C   0  0  0  0  0  0  0  0  0  0  0  0
   -1.7600    0.6190   -0.1130 C   0  0  0  0  0  0  0  0  0  0  0  0
   -0.4430   -0.1050   -0.2950 C   0  0  1  0  0  0  0  0  0  0  0  0
    0.4640    0.8280   -0.9390 N   0  0  0  0  0  0  0  0  0  0  0  0
    1.7480    0.6970   -0.9000 C   0  0  0  0  0  0  0  0  0  0  0  0
    2.4930    1.6660   -1.5610 O   0  0  0  0  0  0  0  0  0  0  0  0
    2.3940   -0.4470   -0.1730 C   0  0  0  0  0  0  0  0  0  0  0  0
    1.5630   -0.8030    0.9870 N   0  0  0  0  0  0  0  0  0  0  0  0
    0.1600   -0.5180    0.9760 C   0  0  0  0  0  0  0  0  0  0  0  0
   -0.4570   -0.6410    2.0600 O   0  0  0  0  0  0  0  0  0  0  0  0
  1  2  1  0
  3  2  1  1
  3  4  1  0
  3  9  1  0
  4  5  2  0
  5  6  1  0
  5  7  1  0
  7  8  1  0
  8  9  1  0
  9 10  2  0
M  END
