
     RDKit          3D

 10 10  0  0  0  0  0  0  0  0999 V2000
   -2.3560    0.3530    0.3400 C   0  0  0  0  0  0  0  0  0  0  0  0
   -1.7250   -1.0150    0.1880 C   0  0  0  0  0  0  0  0  0  0  0  0
   -0.2300   -0.8820   -0.1330 C   0  0  1  0  0  0  0  0  0  0  0  0
   -0.0930   -0.1310   -1.3930 C   0  0  0  0  0  0  0  0  0  0  0  0
    0.3790    1.1930   -1.2590 O   0  0  0  0  0  0  0  0  0  0  0  0
    1.6100    1.5480   -0.6940 C   0  0  0  0  0  0  0  0  0  0  0  0
    2.1690    2.5900   -1.1290 O   0  0  0  0  0  0  0  0  0  0  0  0
    2.2890    0.8330    0.3340 N   0  0  0  0  0  0  0  0  0  0  0  0
    1.8350   -0.3800    1.0130 C   0  0  0  0  0  0  0  0  0  0  0  0
    0.4080   -0.3620    1.0120 N   0  0  0  0  0  0  0  0  0  0  0  0
  1  2  1  0
  3  2  1  1
  3  4  1  0
  3 10  1  0
  4  5  1  0
  5  6  1  0
  6  7  2  0
  6  8  1  0
  8  9  1  0
  9 10  1  0
M  END
