
     RDKit          3D

 36 40  0  0  0  0  0  0  0  0999 V2000
   -2.7950   -0.4860    4.7780 C   0  0  0  0  0  0  0  0  0  0  0  0
   -2.2700   -0.1730    3.4290 C   0  0  0  0  0  0  0  0  0  0  0  0
   -1.4900    0.9340    3.1970 C   0  0  0  0  0  0  0  0  0  0  0  0
   -1.0170    1.2020    1.9400 C   0  0  0  0  0  0  0  0  0  0  0  0
   -1.3120    0.3600    0.8620 C   0  0  0  0  0  0  0  0  0  0  0  0
   -0.8370    0.6740   -0.4140 N   0  0  0  0  0  0  0  0  0  0  0  0
   -1.8220    1.2760   -1.3300 C   0  0  0  0  0  0  0  0  0  0  0  0
   -1.7760    2.7560   -1.1690 C   0  0  0  0  0  0  0  0  0  0  0  0
   -2.6960    3.5480   -0.5260 C   0  0  0  0  0  0  0  0  0  0  0  0
   -2.2430    4.8440   -0.6260 C   0  0  0  0  0  0  0  0  0  0  0  0
   -1.0590    4.7860   -1.3300 C   0  0  0  0  0  0  0  0  0  0  0  0
   -0.1670    5.9270   -1.7080 C   0  0  0  0  0  0  0  0  0  0  0  0
   -0.8310    3.5310   -1.6250 O   0  0  0  0  0  0  0  0  0  0  0  0
    0.4540    0.4700   -0.8710 C   0  0  0  0  0  0  0  0  0  0  0  0
    0.6650    0.9330   -2.0830 O   0  0  0  0  0  0  0  0  0  0  0  0
    1.5880   -0.1650   -0.2240 C   0  0  0  0  0  0  0  0  0  0  0  0
    1.5690   -0.8070    0.9820 C   0  0  0  0  0  0  0  0  0  0  0  0
    2.7510   -1.3460    1.5180 C   0  0  0  0  0  0  0  0  0  0  0  0
    3.9460   -1.2430    0.8460 C   0  0  0  0  0  0  0  0  0  0  0  0
    5.0940   -1.7550    1.3560 N   0  0  0  0  0  0  0  0  0  0  0  0
    6.2850   -1.6750    0.7430 C   0  0  0  0  0  0  0  0  0  0  0  0
    6.3170   -1.0290   -0.4800 C   0  0  0  0  0  0  0  0  0  0  0  0
    7.6070   -0.8900   -1.2380 C   0  0  0  0  0  0  0  0  0  0  0  0
    5.1520   -0.5140   -0.9900 C   0  0  0  0  0  0  0  0  0  0  0  0
    5.1320    0.0850   -2.1060 O   0  0  0  0  0  0  0  0  0  0  0  0
    3.9630   -0.6140   -0.3400 N   0  0  0  0  0  0  0  0  0  0  0  0
    2.8440   -0.1060   -0.8410 C   0  0  0  0  0  0  0  0  0  0  0  0
   -2.1010   -0.7620    1.0900 C   0  0  0  0  0  0  0  0  0  0  0  0
   -2.4080   -1.6180   -0.0370 C   0  0  0  0  0  0  0  0  0  0  0  0
   -3.1390   -2.6960    0.0320 C   0  0  0  0  0  0  0  0  0  0  0  0
   -3.3910   -3.4920   -1.1570 C   0  0  0  0  0  0  0  0  0  0  0  0
   -4.1130   -4.6060   -1.2260 C   0  0  0  0  0  0  0  0  0  0  0  0
   -4.0910   -5.0320   -2.5480 O   0  0  0  0  0  0  0  0  0  0  0  0
   -3.6860   -3.9370   -3.3630 C   0  0  0  0  0  0  0  0  0  0  0  0
   -2.9020   -3.1950   -2.4250 O   0  0  0  0  0  0  0  0  0  0  0  0
   -2.5590   -1.0010    2.3580 C   0  0  0  0  0  0  0  0  0  0  0  0
  1  2  1  0
  2  3  2  0
  2 36  1  0
  3  4  1  0
  4  5  2  0
  5  6  1  0
  5 28  1  0
  6  7  1  0
  6 14  1  0
  7  8  1  0
  8  9  2  0
  8 13  1  0
  9 10  1  0
 10 11  2  0
 11 12  1  0
 11 13  1  0
 14 15  2  0
 14 16  1  0
 16 17  1  0
 16 27  2  0
 17 18  2  0
 18 19  1  0
 19 20  2  0
 19 26  1  0
 20 21  1  0
 21 22  2  0
 22 23  1  0
 22 24  1  0
 24 25  2  0
 24 26  1  0
 26 27  1  0
 28 29  1  0
 28 36  2  0
 29 30  2  3
 30 31  1  0
 31 32  2  0
 31 35  1  0
 32 33  1  0
 33 34  1  0
 34 35  1  0
M  END
