
     RDKit          3D

 36 40  0  0  0  0  0  0  0  0999 V2000
   10.5730   -0.5700   -0.3190 C   0  0  0  0  0  0  0  0  0  0  0  0
    9.4580   -1.2830   -0.1780 C   0  0  0  0  0  0  0  0  0  0  0  0
    9.5160   -2.7000    0.0920 C   0  0  0  0  0  0  0  0  0  0  0  0
    8.4090   -3.4290    0.2370 C   0  0  0  0  0  0  0  0  0  0  0  0
    7.1330   -2.7270    0.1090 C   0  0  0  0  0  0  0  0  0  0  0  0
    7.1010   -1.4370   -0.1360 C   0  0  0  0  0  0  0  0  0  0  0  0
    5.7810   -0.7900   -0.2520 C   0  0  0  0  0  0  0  0  0  0  0  0
    5.5910    0.5350   -0.5100 C   0  0  0  0  0  0  0  0  0  0  0  0
    4.2040    0.7100   -0.5340 C   0  0  0  0  0  0  0  0  0  0  0  0
    3.6180   -0.4880   -0.2940 C   0  0  0  0  0  0  0  0  0  0  0  0
    2.2640   -0.9680   -0.1910 C   0  0  0  0  0  0  0  0  0  0  0  0
    1.0870   -0.5140   -0.2940 C   0  0  0  0  0  0  0  0  0  0  0  0
    0.5470    0.7570   -0.5780 C   0  0  0  0  0  0  0  0  0  0  0  0
    1.4480    1.6850   -0.7930 O   0  0  0  0  0  0  0  0  0  0  0  0
   -0.7790    1.1900   -0.6690 N   0  0  0  0  0  0  0  0  0  0  0  0
   -0.9580    2.6260   -1.0160 C   0  0  0  0  0  0  0  0  0  0  0  0
   -2.3300    3.1090   -0.7820 C   0  0  0  0  0  0  0  0  0  0  0  0
   -3.0520    2.5070    0.2840 N   0  0  0  0  0  0  0  0  0  0  0  0
   -4.4350    2.8070    0.3450 C   0  0  0  0  0  0  0  0  0  0  0  0
   -4.5950    4.2640    0.5100 C   0  0  0  0  0  0  0  0  0  0  0  0
   -4.7350    5.1830   -0.4810 C   0  0  0  0  0  0  0  0  0  0  0  0
   -4.8540    6.4160    0.1290 C   0  0  0  0  0  0  0  0  0  0  0  0
   -4.7780    6.1800    1.4970 C   0  0  0  0  0  0  0  0  0  0  0  0
   -4.6260    4.8950    1.6490 O   0  0  0  0  0  0  0  0  0  0  0  0
   -2.6070    1.2640    0.7360 C   0  0  0  0  0  0  0  0  0  0  0  0
   -1.9880    0.5270   -0.4970 C   0  0  2  0  0  0  0  0  0  0  0  0
   -2.1010   -0.9260   -0.3050 C   0  0  0  0  0  0  0  0  0  0  0  0
   -3.5940   -1.2480   -0.2410 C   0  0  0  0  0  0  0  0  0  0  0  0
   -4.4690   -0.3850   -0.4790 O   0  0  0  0  0  0  0  0  0  0  0  0
   -4.0030   -2.5510    0.0960 N   0  0  0  0  0  0  0  0  0  0  0  0
   -3.1070   -3.6440    0.4070 C   0  0  0  0  0  0  0  0  0  0  0  0
   -3.9660   -4.4640    1.3490 C   0  0  0  0  0  0  0  0  0  0  0  0
   -5.2920   -4.4700    0.5890 C   0  0  0  0  0  0  0  0  0  0  0  0
   -5.3720   -3.0050    0.1780 C   0  0  0  0  0  0  0  0  0  0  0  0
    4.6340   -1.3610   -0.1310 O   0  0  0  0  0  0  0  0  0  0  0  0
    8.2290   -0.6630   -0.2890 O   0  0  0  0  0  0  0  0  0  0  0  0
  1  2  2  0
  2  3  1  0
  2 36  1  0
  3  4  2  0
  4  5  1  0
  5  6  2  0
  6  7  1  0
  6 36  1  0
  7  8  2  0
  7 35  1  0
  8  9  1  0
  9 10  2  0
 10 11  1  0
 10 35  1  0
 11 12  2  3
 12 13  1  0
 13 14  2  0
 13 15  1  0
 15 16  1  0
 15 26  1  0
 16 17  1  0
 17 18  1  0
 18 19  1  0
 18 25  1  0
 19 20  1  0
 20 21  2  0
 20 24  1  0
 21 22  1  0
 22 23  2  0
 23 24  1  0
 25 26  1  0
 26 27  1  1
 27 28  1  0
 28 29  2  0
 28 30  1  0
 30 31  1  0
 30 34  1  0
 31 32  1  0
 32 33  1  0
 33 34  1  0
M  END
