
     RDKit          3D

 36 40  0  0  0  0  0  0  0  0999 V2000
    6.2480    3.0350    1.2440 C   0  0  0  0  0  0  0  0  0  0  0  0
    6.5710    2.2450    0.1200 O   0  0  0  0  0  0  0  0  0  0  0  0
    7.9110    2.0220    0.0060 C   0  0  0  0  0  0  0  0  0  0  0  0
    8.4820    1.1250    1.0310 C   0  0  0  0  0  0  0  0  0  0  0  0
    8.0100   -0.1550    1.0350 O   0  0  0  0  0  0  0  0  0  0  0  0
    6.8040   -0.6930    1.2060 C   0  0  0  0  0  0  0  0  0  0  0  0
    5.8110    0.0300    1.4190 O   0  0  0  0  0  0  0  0  0  0  0  0
    6.5590   -2.1840    1.1570 C   0  0  0  0  0  0  0  0  0  0  0  0
    5.2160   -2.5030    1.3040 O   0  0  0  0  0  0  0  0  0  0  0  0
    4.1700   -2.1460    0.4860 C   0  0  0  0  0  0  0  0  0  0  0  0
    2.8850   -2.5710    0.8380 C   0  0  0  0  0  0  0  0  0  0  0  0
    1.7700   -2.2730    0.0960 C   0  0  0  0  0  0  0  0  0  0  0  0
    1.9110   -1.5220   -1.0490 C   0  0  0  0  0  0  0  0  0  0  0  0
    3.1730   -1.0980   -1.4060 C   0  0  0  0  0  0  0  0  0  0  0  0
    3.0290   -0.3840   -2.5590 C   0  0  0  0  0  0  0  0  0  0  0  0
    1.7380   -0.3940   -2.8580 N   0  0  0  0  0  0  0  0  0  0  0  0
    1.0270   -1.0830   -1.9510 N   0  0  0  0  0  0  0  0  0  0  0  0
   -0.4050   -1.2770   -1.9950 C   0  0  0  0  0  0  0  0  0  0  0  0
   -1.0600   -0.1670   -1.2560 C   0  0  0  0  0  0  0  0  0  0  0  0
   -0.3610    0.6980   -0.7190 O   0  0  0  0  0  0  0  0  0  0  0  0
   -2.4680   -0.1430   -1.1960 N   0  0  0  0  0  0  0  0  0  0  0  0
   -3.2500   -1.2360   -1.7550 C   0  0  0  0  0  0  0  0  0  0  0  0
   -4.1640   -1.8120   -0.6930 C   0  0  0  0  0  0  0  0  0  0  0  0
   -5.0480   -0.7170   -0.1360 C   0  0  0  0  0  0  0  0  0  0  0  0
   -6.3020   -1.0060    0.2580 C   0  0  0  0  0  0  0  0  0  0  0  0
   -6.9210   -2.3750    0.1910 C   0  0  0  0  0  0  0  0  0  0  0  0
   -8.2350   -1.7950    0.5190 C   0  0  0  0  0  0  0  0  0  0  0  0
   -7.5330   -0.4950    0.8060 C   0  0  0  0  0  0  0  0  0  0  0  0
   -4.4590    0.6090   -0.0700 C   0  0  0  0  0  0  0  0  0  0  0  0
   -5.1930    1.6350    0.5400 C   0  0  0  0  0  0  0  0  0  0  0  0
   -4.6490    2.8990    0.6080 C   0  0  0  0  0  0  0  0  0  0  0  0
   -5.4020    4.0120    1.2480 C   0  0  0  0  0  0  0  0  0  0  0  0
   -3.3970    3.1590    0.0840 C   0  0  0  0  0  0  0  0  0  0  0  0
   -2.6490    2.1740   -0.5200 C   0  0  0  0  0  0  0  0  0  0  0  0
   -3.2130    0.8940   -0.5820 C   0  0  0  0  0  0  0  0  0  0  0  0
    4.2940   -1.3990   -0.6580 C   0  0  0  0  0  0  0  0  0  0  0  0
  1  2  1  0
  2  3  1  0
  3  4  1  0
  4  5  1  0
  5  6  1  0
  6  7  2  0
  6  8  1  0
  8  9  1  0
  9 10  1  0
 10 11  2  0
 10 36  1  0
 11 12  1  0
 12 13  2  0
 13 14  1  0
 13 17  1  0
 14 15  1  0
 14 36  2  0
 15 16  2  0
 16 17  1  0
 17 18  1  0
 18 19  1  0
 19 20  2  0
 19 21  1  0
 21 22  1  0
 21 35  1  0
 22 23  1  0
 23 24  1  0
 24 25  2  3
 24 29  1  0
 25 26  1  0
 25 28  1  0
 26 27  1  0
 27 28  1  0
 29 30  2  0
 29 35  1  0
 30 31  1  0
 31 32  1  0
 31 33  2  0
 33 34  1  0
 34 35  2  0
M  END
