
     RDKit          3D

 36 40  0  0  0  0  0  0  0  0999 V2000
    4.9530    4.2740    0.2790 C   0  0  0  0  0  0  0  0  0  0  0  0
    5.3500    3.1030   -0.5580 C   0  0  0  0  0  0  0  0  0  0  0  0
    4.7830    1.8900   -0.1730 O   0  0  0  0  0  0  0  0  0  0  0  0
    3.4350    1.6210   -0.1230 C   0  0  0  0  0  0  0  0  0  0  0  0
    2.4720    2.5620   -0.4640 C   0  0  0  0  0  0  0  0  0  0  0  0
    1.1430    2.2560   -0.4010 C   0  0  0  0  0  0  0  0  0  0  0  0
    0.7020    1.0030    0.0020 C   0  0  0  0  0  0  0  0  0  0  0  0
   -0.6580    0.7100    0.0600 O   0  0  0  0  0  0  0  0  0  0  0  0
   -1.2610    0.1860   -1.0790 C   0  0  0  0  0  0  0  0  0  0  0  0
   -0.5740   -0.0500   -2.2440 C   0  0  0  0  0  0  0  0  0  0  0  0
   -1.2330   -0.5690   -3.3290 C   0  0  0  0  0  0  0  0  0  0  0  0
   -2.5870   -0.8610   -3.2710 C   0  0  0  0  0  0  0  0  0  0  0  0
   -3.2910   -0.6270   -2.1010 C   0  0  0  0  0  0  0  0  0  0  0  0
   -2.6250   -0.1070   -1.0160 C   0  0  0  0  0  0  0  0  0  0  0  0
   -3.5620    0.0210   -0.0010 C   0  0  0  0  0  0  0  0  0  0  0  0
   -3.2480    0.5450    1.3340 C   0  0  0  0  0  0  0  0  0  0  0  0
   -4.3670    0.5870    2.2190 N   0  0  0  0  0  0  0  0  0  0  0  0
   -4.9740   -0.6740    2.4780 C   0  0  0  0  0  0  0  0  0  0  0  0
   -6.3630   -0.8230    2.0330 C   0  0  0  0  0  0  0  0  0  0  0  0
   -7.1810    0.2200    2.0820 C   0  0  0  0  0  0  0  0  0  0  0  0
   -6.6140    1.4960    2.5980 C   0  0  0  0  0  0  0  0  0  0  0  0
   -5.2620    1.6740    1.9890 C   0  0  0  0  0  0  0  0  0  0  0  0
   -4.7200   -0.4200   -0.5180 N   0  0  0  0  0  0  0  0  0  0  0  0
   -4.5780   -0.8110   -1.7680 N   0  0  0  0  0  0  0  0  0  0  0  0
   -5.5720   -1.3500   -2.6860 C   0  0  0  0  0  0  0  0  0  0  0  0
    1.6750    0.0820    0.3370 C   0  0  0  0  0  0  0  0  0  0  0  0
    3.0240    0.3630    0.2830 C   0  0  0  0  0  0  0  0  0  0  0  0
    3.9840   -0.5940    0.6290 O   0  0  0  0  0  0  0  0  0  0  0  0
    4.5290   -1.4670   -0.3000 C   0  0  0  0  0  0  0  0  0  0  0  0
    4.1220   -1.3650   -1.4820 O   0  0  0  0  0  0  0  0  0  0  0  0
    5.5270   -2.4670    0.0410 C   0  0  0  0  0  0  0  0  0  0  0  0
    5.9780   -2.6050    1.2690 C   0  0  0  0  0  0  0  0  0  0  0  0
    6.9930   -3.6290    1.5930 C   0  0  0  0  0  0  0  0  0  0  0  0
    7.4230   -4.4150    0.5300 O   0  0  0  0  0  0  0  0  0  0  0  0
    6.9450   -4.2610   -0.7430 C   0  0  0  0  0  0  0  0  0  0  0  0
    6.0410   -3.3390   -0.9960 C   0  0  0  0  0  0  0  0  0  0  0  0
  1  2  1  0
  2  3  1  0
  3  4  1  0
  4  5  2  0
  4 27  1  0
  5  6  1  0
  6  7  2  0
  7  8  1  0
  7 26  1  0
  8  9  1  0
  9 10  2  0
  9 14  1  0
 10 11  1  0
 11 12  2  0
 12 13  1  0
 13 14  2  0
 13 24  1  0
 14 15  1  0
 15 16  1  0
 15 23  2  0
 16 17  1  0
 17 18  1  0
 17 22  1  0
 18 19  1  0
 19 20  2  0
 20 21  1  0
 21 22  1  0
 23 24  1  0
 24 25  1  0
 26 27  2  0
 27 28  1  0
 28 29  1  0
 29 30  2  0
 29 31  1  0
 31 32  2  0
 31 36  1  0
 32 33  1  0
 33 34  1  0
 34 35  1  0
 35 36  2  0
M  END
