
     RDKit          3D

 36 40  0  0  0  0  0  0  0  0999 V2000
   -0.0850    3.1350   -5.4670 C   0  0  0  0  0  0  0  0  0  0  0  0
    0.4880    2.1170   -4.5620 C   0  0  0  0  0  0  0  0  0  0  0  0
    1.3970    1.2080   -5.0460 C   0  0  0  0  0  0  0  0  0  0  0  0
    1.9370    0.2790   -4.2410 C   0  0  0  0  0  0  0  0  0  0  0  0
    1.5760    0.2130   -2.8470 C   0  0  0  0  0  0  0  0  0  0  0  0
    2.1750   -0.7490   -2.1880 O   0  0  0  0  0  0  0  0  0  0  0  0
    2.8120   -1.7100   -1.6410 C   0  0  0  0  0  0  0  0  0  0  0  0
    4.3010   -1.6290   -1.5370 C   0  0  0  0  0  0  0  0  0  0  0  0
    5.2090   -1.9710   -2.3870 N   0  0  0  0  0  0  0  0  0  0  0  0
    6.4290   -1.7530   -1.9480 N   0  0  0  0  0  0  0  0  0  0  0  0
    6.2370   -1.2230   -0.7030 C   0  0  0  0  0  0  0  0  0  0  0  0
    7.4090   -0.8290    0.1440 C   0  0  0  0  0  0  0  0  0  0  0  0
    4.9530   -1.1490   -0.4550 O   0  0  0  0  0  0  0  0  0  0  0  0
    0.6820    1.1180   -2.3750 C   0  0  0  0  0  0  0  0  0  0  0  0
    0.2990    1.1260   -0.9940 O   0  0  0  0  0  0  0  0  0  0  0  0
    0.3620    2.3810   -0.3690 C   0  0  0  0  0  0  0  0  0  0  0  0
    0.7490    3.3540   -1.0260 O   0  0  0  0  0  0  0  0  0  0  0  0
   -0.0370    2.4740    1.0410 C   0  0  0  0  0  0  0  0  0  0  0  0
   -0.7580    1.3200    1.5110 N   0  0  0  0  0  0  0  0  0  0  0  0
   -2.2010    1.2010    1.4300 C   0  0  0  0  0  0  0  0  0  0  0  0
   -2.8500    2.1460    0.8990 O   0  0  0  0  0  0  0  0  0  0  0  0
   -2.6150   -0.0230    1.9970 C   0  0  0  0  0  0  0  0  0  0  0  0
   -3.7670   -0.5680    2.1960 C   0  0  0  0  0  0  0  0  0  0  0  0
   -5.0940   -0.1000    1.8890 C   0  0  0  0  0  0  0  0  0  0  0  0
   -6.1890   -0.8400    2.2570 C   0  0  0  0  0  0  0  0  0  0  0  0
   -7.4120   -0.1580    1.8320 C   0  0  0  0  0  0  0  0  0  0  0  0
   -6.9460    1.0300    1.1570 C   0  0  0  0  0  0  0  0  0  0  0  0
   -5.5900    1.0500    1.2020 C   0  0  0  0  0  0  0  0  0  0  0  0
   -1.3370   -0.6920    2.4460 C   0  0  0  0  0  0  0  0  0  0  0  0
   -1.0790   -1.8860    3.0620 C   0  0  0  0  0  0  0  0  0  0  0  0
    0.1890   -2.3260    3.4110 C   0  0  0  0  0  0  0  0  0  0  0  0
    0.3930   -3.6000    4.0620 C   0  0  0  0  0  0  0  0  0  0  0  0
    1.2440   -1.4610    3.0900 C   0  0  0  0  0  0  0  0  0  0  0  0
    0.9790   -0.3030    2.4870 C   0  0  0  0  0  0  0  0  0  0  0  0
   -0.3050    0.1610    2.1250 C   0  0  0  0  0  0  0  0  0  0  0  0
    0.1400    2.0620   -3.2240 C   0  0  0  0  0  0  0  0  0  0  0  0
  1  2  1  0
  2  3  2  0
  2 36  1  0
  3  4  1  0
  4  5  2  0
  5  6  1  0
  5 14  1  0
  6  7  1  0
  7  8  1  0
  8  9  2  0
  8 13  1  0
  9 10  1  0
 10 11  2  0
 11 12  1  0
 11 13  1  0
 14 15  1  0
 14 36  2  0
 15 16  1  0
 16 17  2  0
 16 18  1  0
 18 19  1  0
 19 20  1  0
 19 35  1  0
 20 21  2  0
 20 22  1  0
 22 23  2  3
 22 29  1  0
 23 24  1  0
 24 25  2  0
 24 28  1  0
 25 26  1  0
 26 27  1  0
 27 28  2  0
 29 30  2  0
 29 35  1  0
 30 31  1  0
 31 32  1  0
 31 33  2  0
 33 34  1  0
 34 35  2  0
M  END
