
     RDKit          3D

 36 40  0  0  0  0  0  0  0  0999 V2000
   -2.1280    4.5250   -0.0350 C   0  0  0  0  0  0  0  0  0  0  0  0
   -2.8440    3.7540    1.0360 C   0  0  0  0  0  0  0  0  0  0  0  0
   -1.9210    2.8380    1.7510 C   0  0  0  0  0  0  0  0  0  0  0  0
   -1.3900    3.0310    2.9520 O   0  0  0  0  0  0  0  0  0  0  0  0
   -0.6200    2.0080    3.2630 C   0  0  0  0  0  0  0  0  0  0  0  0
   -0.6740    1.1520    2.2230 N   0  0  0  0  0  0  0  0  0  0  0  0
   -1.4700    1.6130    1.2490 C   0  0  0  0  0  0  0  0  0  0  0  0
   -1.8350    1.0440   -0.0350 C   0  0  0  0  0  0  0  0  0  0  0  0
   -2.6200    1.7120   -0.7820 O   0  0  0  0  0  0  0  0  0  0  0  0
   -1.3460   -0.2160   -0.4670 N   0  0  0  0  0  0  0  0  0  0  0  0
   -0.4760   -0.9710    0.3480 C   0  0  0  0  0  0  0  0  0  0  0  0
    0.9600   -0.7650    0.2550 C   0  0  0  0  0  0  0  0  0  0  0  0
    1.6360   -1.5270    1.0670 O   0  0  0  0  0  0  0  0  0  0  0  0
    1.7320    0.0860   -0.5320 N   0  0  0  0  0  0  0  0  0  0  0  0
    1.2150    1.0140   -1.5230 C   0  0  0  0  0  0  0  0  0  0  0  0
    3.1700    0.0940   -0.4000 C   0  0  0  0  0  0  0  0  0  0  0  0
    3.9960   -0.6830   -1.1580 C   0  0  0  0  0  0  0  0  0  0  0  0
    5.3820   -0.6250   -0.9790 C   0  0  0  0  0  0  0  0  0  0  0  0
    5.9030    0.2230   -0.0300 C   0  0  0  0  0  0  0  0  0  0  0  0
    5.0800    1.0140    0.7420 C   0  0  0  0  0  0  0  0  0  0  0  0
    3.7070    0.9330    0.5400 C   0  0  0  0  0  0  0  0  0  0  0  0
    5.4050    1.9700    1.7880 C   0  0  0  0  0  0  0  0  0  0  0  0
    6.5680    2.1770    2.3960 C   0  0  0  0  0  0  0  0  0  0  0  0
    7.8060    1.4440    2.1170 C   0  0  0  0  0  0  0  0  0  0  0  0
    8.0950    0.6160    1.1310 C   0  0  0  0  0  0  0  0  0  0  0  0
    7.3000    0.1870    0.0500 O   0  0  0  0  0  0  0  0  0  0  0  0
   -1.7890   -0.7260   -1.7550 C   0  0  0  0  0  0  0  0  0  0  0  0
   -2.9720   -1.6000   -1.5820 C   0  0  0  0  0  0  0  0  0  0  0  0
   -4.2470   -1.0880   -1.5130 C   0  0  0  0  0  0  0  0  0  0  0  0
   -5.3320   -1.9480   -1.3490 C   0  0  0  0  0  0  0  0  0  0  0  0
   -5.1410   -3.3100   -1.2550 C   0  0  0  0  0  0  0  0  0  0  0  0
   -3.8830   -3.8320   -1.3210 C   0  0  0  0  0  0  0  0  0  0  0  0
   -2.7960   -2.9770   -1.4860 C   0  0  0  0  0  0  0  0  0  0  0  0
   -3.9200   -5.2210   -1.2050 O   0  0  0  0  0  0  0  0  0  0  0  0
   -5.2030   -5.6010   -0.7800 C   0  0  0  0  0  0  0  0  0  0  0  0
   -6.1030   -4.4120   -1.0790 C   0  0  0  0  0  0  0  0  0  0  0  0
  1  2  1  0
  2  3  1  0
  3  4  1  0
  3  7  2  0
  4  5  1  0
  5  6  2  0
  6  7  1  0
  7  8  1  0
  8  9  2  0
  8 10  1  0
 10 11  1  0
 10 27  1  0
 11 12  1  0
 12 13  2  0
 12 14  1  0
 14 15  1  0
 14 16  1  0
 16 17  2  0
 16 21  1  0
 17 18  1  0
 18 19  2  0
 19 20  1  0
 19 26  1  0
 20 21  2  0
 20 22  1  0
 22 23  2  0
 23 24  1  0
 24 25  2  0
 25 26  1  0
 27 28  1  0
 28 29  2  0
 28 33  1  0
 29 30  1  0
 30 31  2  0
 31 32  1  0
 31 36  1  0
 32 33  2  0
 32 34  1  0
 34 35  1  0
 35 36  1  0
M  END
