
     RDKit          3D

 36 40  0  0  0  0  0  0  0  0999 V2000
   -1.8660    0.8410   -4.4630 C   0  0  0  0  0  0  0  0  0  0  0  0
   -0.6230    0.4370   -4.3130 C   0  0  0  0  0  0  0  0  0  0  0  0
    0.2050    0.1950   -5.4380 O   0  0  0  0  0  0  0  0  0  0  0  0
    1.4490   -0.1790   -4.9620 C   0  0  0  0  0  0  0  0  0  0  0  0
    1.3220   -0.1760   -3.5050 C   0  0  0  0  0  0  0  0  0  0  0  0
    0.1110    0.1860   -3.0870 C   0  0  0  0  0  0  0  0  0  0  0  0
   -0.3050    0.4180   -1.6900 C   0  0  0  0  0  0  0  0  0  0  0  0
    0.5460    0.4060   -0.8480 N   0  0  0  0  0  0  0  0  0  0  0  0
    0.9700    0.5060    0.4230 C   0  0  0  0  0  0  0  0  0  0  0  0
    2.2100    1.1140    0.5630 N   0  0  0  0  0  0  0  0  0  0  0  0
    2.7870    1.4210    1.7070 C   0  0  0  0  0  0  0  0  0  0  0  0
    4.0590    2.0330    1.7720 O   0  0  0  0  0  0  0  0  0  0  0  0
    4.7530    2.2830    0.5310 C   0  0  0  0  0  0  0  0  0  0  0  0
    5.0180    0.9070   -0.0780 C   0  0  0  0  0  0  0  0  0  0  0  0
    5.6690    0.9690   -1.2820 O   0  0  0  0  0  0  0  0  0  0  0  0
    2.1710    1.1550    2.9350 C   0  0  0  0  0  0  0  0  0  0  0  0
    2.7980    1.5090    4.1090 O   0  0  0  0  0  0  0  0  0  0  0  0
    2.1450    1.2580    5.3700 C   0  0  0  0  0  0  0  0  0  0  0  0
    0.9550    0.5510    2.8620 C   0  0  0  0  0  0  0  0  0  0  0  0
    0.3670    0.2280    1.6080 C   0  0  0  0  0  0  0  0  0  0  0  0
   -0.8510   -0.5310    1.7000 C   0  0  0  0  0  0  0  0  0  0  0  0
   -2.0400    0.0330    2.0240 C   0  0  0  0  0  0  0  0  0  0  0  0
   -3.2050   -0.7480    2.1670 C   0  0  0  0  0  0  0  0  0  0  0  0
   -3.1320   -2.1190    1.9710 C   0  0  0  0  0  0  0  0  0  0  0  0
   -1.9480   -2.7070    1.6420 C   0  0  0  0  0  0  0  0  0  0  0  0
   -1.8390   -4.0620    1.4410 C   0  0  0  0  0  0  0  0  0  0  0  0
   -0.6780   -4.6860    1.1130 C   0  0  0  0  0  0  0  0  0  0  0  0
    0.4640   -3.9080    0.9750 C   0  0  0  0  0  0  0  0  0  0  0  0
    0.3650   -2.5500    1.1750 C   0  0  0  0  0  0  0  0  0  0  0  0
   -0.8010   -1.8950    1.5080 C   0  0  0  0  0  0  0  0  0  0  0  0
   -1.6790    0.6650   -1.4250 N   0  0  0  0  0  0  0  0  0  0  0  0
   -2.1000    2.0510   -1.1280 C   0  0  0  0  0  0  0  0  0  0  0  0
   -3.5140    2.0620   -0.6790 C   0  0  0  0  0  0  0  0  0  0  0  0
   -4.2820    1.3950   -1.6340 O   0  0  0  0  0  0  0  0  0  0  0  0
   -4.0810    0.0220   -1.5700 C   0  0  0  0  0  0  0  0  0  0  0  0
   -2.6500   -0.3850   -1.4300 C   0  0  0  0  0  0  0  0  0  0  0  0
  1  2  2  0
  2  3  1  0
  2  6  1  0
  3  4  1  0
  4  5  1  0
  5  6  2  0
  6  7  1  0
  7  8  2  3
  7 31  1  0
  8  9  1  0
  9 10  2  0
  9 20  1  0
 10 11  1  0
 11 12  1  0
 11 16  2  0
 12 13  1  0
 13 14  1  0
 14 15  1  0
 16 17  1  0
 16 19  1  0
 17 18  1  0
 19 20  2  0
 20 21  1  0
 21 22  2  0
 21 30  1  0
 22 23  1  0
 23 24  2  0
 24 25  1  0
 25 26  2  0
 25 30  1  0
 26 27  1  0
 27 28  2  0
 28 29  1  0
 29 30  2  0
 31 32  1  0
 31 36  1  0
 32 33  1  0
 33 34  1  0
 34 35  1  0
 35 36  1  0
M  END
