
     RDKit          3D

 36 40  0  0  0  0  0  0  0  0999 V2000
    5.8950    4.8740   -2.3010 C   0  0  0  0  0  0  0  0  0  0  0  0
    5.7160    3.7280   -1.5230 O   0  0  0  0  0  0  0  0  0  0  0  0
    4.5130    3.1950   -1.1530 C   0  0  0  0  0  0  0  0  0  0  0  0
    3.4560    3.7550   -1.5230 O   0  0  0  0  0  0  0  0  0  0  0  0
    4.4260    1.9740   -0.3260 C   0  0  0  0  0  0  0  0  0  0  0  0
    5.5080    1.2750    0.1410 C   0  0  0  0  0  0  0  0  0  0  0  0
    5.0180    0.1850    0.8810 C   0  0  0  0  0  0  0  0  0  0  0  0
    3.6610    0.2810    0.8250 C   0  0  0  0  0  0  0  0  0  0  0  0
    2.6710   -0.5890    1.4260 C   0  0  0  0  0  0  0  0  0  0  0  0
    2.8730   -1.5100    2.2780 C   0  0  0  0  0  0  0  0  0  0  0  0
    4.0890   -1.9600    2.8980 C   0  0  0  0  0  0  0  0  0  0  0  0
    4.4040   -3.3140    2.7880 C   0  0  0  0  0  0  0  0  0  0  0  0
    5.5020   -3.8780    3.3980 C   0  0  0  0  0  0  0  0  0  0  0  0
    6.3080   -3.0570    4.1410 C   0  0  0  0  0  0  0  0  0  0  0  0
    6.0080   -1.7160    4.2580 C   0  0  0  0  0  0  0  0  0  0  0  0
    4.9230   -1.2170    3.6420 N   0  0  0  0  0  0  0  0  0  0  0  0
    1.3060   -0.4030    1.0280 O   0  0  0  0  0  0  0  0  0  0  0  0
    0.7610   -1.4580    0.2980 C   0  0  0  0  0  0  0  0  0  0  0  0
   -0.6340   -1.2990   -0.1230 C   0  0  0  0  0  0  0  0  0  0  0  0
   -1.0590   -2.2800   -0.8470 O   0  0  0  0  0  0  0  0  0  0  0  0
   -1.5200   -0.2550    0.1520 N   0  0  0  0  0  0  0  0  0  0  0  0
   -1.3290    0.8300    1.0910 C   0  0  0  0  0  0  0  0  0  0  0  0
   -2.5020    0.8940    2.0840 C   0  0  0  0  0  0  0  0  0  0  0  0
   -3.7720    0.7180    1.4560 N   0  0  0  0  0  0  0  0  0  0  0  0
   -4.9830    1.0260    2.2050 C   0  0  0  0  0  0  0  0  0  0  0  0
   -3.9300    0.2610    0.1380 C   0  0  0  0  0  0  0  0  0  0  0  0
   -5.1610    0.3090   -0.4670 C   0  0  0  0  0  0  0  0  0  0  0  0
   -5.2330   -0.1530   -1.7680 C   0  0  0  0  0  0  0  0  0  0  0  0
   -4.1690   -0.6380   -2.4560 C   0  0  0  0  0  0  0  0  0  0  0  0
   -2.9220   -0.6810   -1.8290 C   0  0  0  0  0  0  0  0  0  0  0  0
   -2.8020   -0.2330   -0.5330 C   0  0  0  0  0  0  0  0  0  0  0  0
   -4.2220   -1.1360   -3.8470 C   0  0  0  0  0  0  0  0  0  0  0  0
   -5.2950   -0.4700   -4.6620 C   0  0  0  0  0  0  0  0  0  0  0  0
   -6.2060    0.4160   -3.8910 C   0  0  0  0  0  0  0  0  0  0  0  0
   -6.5480   -0.1350   -2.5060 C   0  0  0  0  0  0  0  0  0  0  0  0
    3.3710    1.3620    0.0950 O   0  0  0  0  0  0  0  0  0  0  0  0
  1  2  1  0
  2  3  1  0
  3  4  2  0
  3  5  1  0
  5  6  2  0
  5 36  1  0
  6  7  1  0
  7  8  2  0
  8  9  1  0
  8 36  1  0
  9 10  2  3
  9 17  1  0
 10 11  1  0
 11 12  2  0
 11 16  1  0
 12 13  1  0
 13 14  2  0
 14 15  1  0
 15 16  2  0
 17 18  1  0
 18 19  1  0
 19 20  2  0
 19 21  1  0
 21 22  1  0
 21 31  1  0
 22 23  1  0
 23 24  1  0
 24 25  1  0
 24 26  1  0
 26 27  2  0
 26 31  1  0
 27 28  1  0
 28 29  2  0
 28 35  1  0
 29 30  1  0
 29 32  1  0
 30 31  2  0
 32 33  1  0
 33 34  1  0
 34 35  1  0
M  END
