
     RDKit          3D

 30 32  0  0  0  0  0  0  0  0999 V2000
   -6.4000   -1.2860   -0.4980 C   0  0  0  0  0  0  0  0  0  0  0  0
   -5.9350    0.0470   -1.0450 C   0  0  1  0  0  0  0  0  0  0  0  0
   -7.0570    0.8250   -1.5840 C   0  0  0  0  0  0  0  0  0  0  0  0
   -7.2930    1.9850   -1.1740 O   0  0  0  0  0  0  0  0  0  0  0  0
   -7.9100    0.3260   -2.5650 O   0  0  0  0  0  0  0  0  0  0  0  0
   -5.2420    0.8380   -0.0450 N   0  0  1  0  0  0  0  0  0  0  0  0
   -6.1400    1.2180    1.0050 C   0  0  0  0  0  0  0  0  0  0  0  0
   -4.0850    0.0940    0.4780 C   0  0  0  0  0  0  0  0  0  0  0  0
   -2.8910    0.5190   -0.3170 C   0  0  0  0  0  0  0  0  0  0  0  0
   -1.6450   -0.1440    0.0890 C   0  0  0  0  0  0  0  0  0  0  0  0
   -1.4710   -0.9850    0.9910 N   0  0  0  0  0  0  0  0  0  0  0  0
   -0.2130   -1.5180    1.2470 C   0  0  0  0  0  0  0  0  0  0  0  0
    0.8650   -0.7460    0.6060 C   0  0  0  0  0  0  0  0  0  0  0  0
    2.1420   -0.6680    0.8250 C   0  0  0  0  0  0  0  0  0  0  0  0
    2.9660    0.2160   -0.0100 C   0  0  0  0  0  0  0  0  0  0  0  0
    2.4190    1.7370   -0.7720 S   0  0  0  0  0  0  0  0  0  0  0  0
    4.0840    2.2050   -1.3820 C   0  0  0  0  0  0  0  0  0  0  0  0
    4.3190    3.2620   -2.0370 O   0  0  0  0  0  0  0  0  0  0  0  0
    4.8250    1.1970   -0.9560 N   0  0  0  0  0  0  0  0  0  0  0  0
    4.3040    0.2050   -0.2860 C   0  0  0  0  0  0  0  0  0  0  0  0
    5.0890   -0.9810    0.2040 C   0  0  0  0  0  0  0  0  0  0  0  0
    4.6220   -2.2930    0.0610 C   0  0  0  0  0  0  0  0  0  0  0  0
    5.5540   -3.5430    0.9650 Cl  0  0  0  0  0  0  0  0  0  0  0  0
    3.6190   -2.7450   -0.6170 C   0  0  0  0  0  0  0  0  0  0  0  0
    2.7390   -2.0900   -1.3980 F   0  0  0  0  0  0  0  0  0  0  0  0
    6.2740   -0.8220    0.8600 C   0  0  0  0  0  0  0  0  0  0  0  0
    6.9830    0.4340    1.1890 C   0  0  0  0  0  0  0  0  0  0  0  0
    6.7810    1.5940    0.2920 C   0  0  0  0  0  0  0  0  0  0  0  0
    6.3300    1.3120   -1.1370 C   0  0  0  0  0  0  0  0  0  0  0  0
   -0.0430    0.1460   -0.6570 S   0  0  0  0  0  0  0  0  0  0  0  0
  2  1  1  1
  2  3  1  0
  2  6  1  0
  3  4  2  0
  3  5  1  0
  6  7  1  1
  6  8  1  0
  8  9  1  0
  9 10  1  0
 10 11  2  0
 10 30  1  0
 11 12  1  0
 12 13  1  0
 13 14  2  3
 13 30  1  0
 14 15  1  0
 15 16  1  0
 15 20  2  0
 16 17  1  0
 17 18  2  0
 17 19  1  0
 19 20  1  0
 19 29  1  0
 20 21  1  0
 21 22  1  0
 21 26  2  0
 22 23  1  0
 22 24  2  3
 24 25  1  0
 26 27  1  0
 27 28  1  0
 28 29  1  0
M  CHG  1   6   1
M  END
