
     RDKit          3D

 31 32  0  0  0  0  0  0  0  0999 V2000
    1.4620   -2.8310    1.7960 C   0  0  0  0  0  0  0  0  0  0  0  0
    1.2640   -2.7810    0.3240 C   0  0  0  0  0  0  0  0  0  0  0  0
    2.2370   -2.0430   -0.4960 C   0  0  0  0  0  0  0  0  0  0  0  0
    2.4180   -0.5770   -0.2570 C   0  0  1  0  0  0  0  0  0  0  0  0
    2.8830   -0.1980    1.0890 C   0  0  0  0  0  0  0  0  0  0  0  0
    3.1860   -0.0450   -1.4240 C   0  0  0  0  0  0  0  0  0  0  0  0
    4.5200   -0.4330   -1.6070 N   0  0  0  0  0  0  0  0  0  0  0  0
    5.6130   -0.1150   -0.7820 C   0  0  0  0  0  0  0  0  0  0  0  0
    5.5250    0.5820    0.2250 O   0  0  0  0  0  0  0  0  0  0  0  0
    6.9990   -0.6350   -1.1090 C   0  0  0  0  0  0  0  0  0  0  0  0
    7.9580   -0.1270   -0.1070 C   0  0  0  0  0  0  0  0  0  0  0  0
    8.9800    0.6030   -0.3560 N   0  0  0  0  0  0  0  0  0  0  0  0
    9.6630    0.9020    0.7990 O   0  0  0  0  0  0  0  0  0  0  0  0
    8.7740    0.5960    1.8640 C   0  0  0  0  0  0  0  0  0  0  0  0
    7.9130   -0.3540    1.2550 O   0  0  0  0  0  0  0  0  0  0  0  0
    1.0460   -0.0470   -0.3710 O   0  0  0  0  0  0  0  0  0  0  0  0
    0.7410    1.2590   -0.2260 C   0  0  0  0  0  0  0  0  0  0  0  0
    1.6230    2.1030    0.0170 O   0  0  0  0  0  0  0  0  0  0  0  0
   -0.6390    1.6990   -0.3530 C   0  0  0  0  0  0  0  0  0  0  0  0
   -1.7730    1.0440   -0.6110 C   0  0  0  0  0  0  0  0  0  0  0  0
   -2.9370    1.7180   -0.6680 C   0  0  0  0  0  0  0  0  0  0  0  0
   -4.2910    1.0820   -0.9570 C   0  0  0  0  0  0  0  0  0  0  0  0
   -5.0940    0.9540    0.2930 C   0  0  0  0  0  0  0  0  0  0  0  0
   -6.4010    0.3310   -0.0230 C   0  0  0  0  0  0  0  0  0  0  0  0
   -6.6570    0.0190   -1.1960 O   0  0  0  0  0  0  0  0  0  0  0  0
   -7.3960    0.0680    0.9690 N   0  0  0  0  0  0  0  0  0  0  0  0
   -8.6580   -0.5320    0.6800 C   0  0  0  0  0  0  0  0  0  0  0  0
   -8.5400   -1.9130    0.0770 C   0  0  0  0  0  0  0  0  0  0  0  0
   -2.8900    3.0760   -0.4530 C   0  0  0  0  0  0  0  0  0  0  0  0
   -3.9670    4.1050   -0.4430 C   0  0  0  0  0  0  0  0  0  0  0  0
   -1.1830    3.3640   -0.1720 S   0  0  0  0  0  0  0  0  0  0  0  0
  1  2  1  0
  2  3  1  0
  3  4  1  0
  4  5  1  1
  4  6  1  0
  4 16  1  0
  6  7  1  0
  7  8  1  0
  8  9  2  0
  8 10  1  0
 10 11  1  0
 11 12  2  0
 11 15  1  0
 12 13  1  0
 13 14  1  0
 14 15  1  0
 16 17  1  0
 17 18  2  0
 17 19  1  0
 19 20  2  0
 19 31  1  0
 20 21  1  0
 21 22  1  0
 21 29  2  0
 22 23  1  0
 23 24  1  0
 24 25  2  0
 24 26  1  0
 26 27  1  0
 27 28  1  0
 29 30  1  0
 29 31  1  0
M  END
