
     RDKit          3D

 29 31  0  0  0  0  0  0  0  0999 V2000
   -2.7730   -4.5700   -0.5420 N   0  0  0  0  0  0  0  0  0  0  0  0
   -2.4020   -4.0090    1.0380 S   0  0  1  0  0  0  0  0  0  0  0  0
   -3.5450   -4.3820    1.9730 O   0  0  0  0  0  0  0  0  0  0  0  0
   -1.1790   -4.6840    1.5950 O   0  0  0  0  0  0  0  0  0  0  0  0
   -2.2620   -2.2740    1.0970 C   0  0  0  0  0  0  0  0  0  0  0  0
   -3.3070   -1.4140    1.3540 C   0  0  0  0  0  0  0  0  0  0  0  0
   -4.5380   -1.9650    1.5780 F   0  0  0  0  0  0  0  0  0  0  0  0
   -3.1270   -0.0500    1.3860 C   0  0  0  0  0  0  0  0  0  0  0  0
   -4.1960    0.7360    1.6450 F   0  0  0  0  0  0  0  0  0  0  0  0
   -1.8510    0.4920    1.1520 C   0  0  0  0  0  0  0  0  0  0  0  0
   -1.6580    2.2180    1.1900 S   0  0  2  0  0  0  0  0  0  0  0  0
   -0.5000    2.6570    1.9850 O   0  0  0  0  0  0  0  0  0  0  0  0
   -2.8910    2.7690    1.9380 O   0  0  0  0  0  0  0  0  0  0  0  0
   -1.7440    2.9520   -0.4220 C   0  0  0  0  0  0  0  0  0  0  0  0
   -3.0910    2.6670   -1.0750 C   0  0  0  0  0  0  0  0  0  0  0  0
   -3.1640    3.2410   -2.3410 O   0  0  0  0  0  0  0  0  0  0  0  0
   -0.7810   -0.3370    0.8900 C   0  0  0  0  0  0  0  0  0  0  0  0
    0.4940    0.1570    0.6500 N   0  0  0  0  0  0  0  0  0  0  0  0
    1.6730   -0.5140    0.2080 C   0  0  1  0  0  0  0  0  0  0  0  0
    1.6750   -0.8850   -1.2550 C   0  0  0  0  0  0  0  0  0  0  0  0
    3.1590   -1.2450   -1.4260 C   0  0  0  0  0  0  0  0  0  0  0  0
    3.7660   -0.0750   -0.7090 C   0  0  0  0  0  0  0  0  0  0  0  0
    4.9910    0.5190   -0.9270 C   0  0  0  0  0  0  0  0  0  0  0  0
    5.3290    1.5960   -0.1350 C   0  0  0  0  0  0  0  0  0  0  0  0
    4.4750    2.0720    0.8500 C   0  0  0  0  0  0  0  0  0  0  0  0
    3.2580    1.4440    1.0320 C   0  0  0  0  0  0  0  0  0  0  0  0
    2.8950    0.3740    0.2600 C   0  0  0  0  0  0  0  0  0  0  0  0
   -1.0090   -1.7090    0.8690 C   0  0  0  0  0  0  0  0  0  0  0  0
    0.0390   -2.5220    0.6440 F   0  0  0  0  0  0  0  0  0  0  0  0
  2  1  1  6
  2  3  2  0
  2  4  2  0
  2  5  1  0
  5  6  2  0
  5 28  1  0
  6  7  1  0
  6  8  1  0
  8  9  1  0
  8 10  2  0
 10 11  1  0
 10 17  1  0
 11 12  2  0
 11 13  2  0
 11 14  1  6
 14 15  1  0
 15 16  1  0
 17 18  1  0
 17 28  2  0
 19 18  1  6
 19 20  1  0
 19 27  1  0
 20 21  1  0
 21 22  1  0
 22 23  2  0
 22 27  1  0
 23 24  1  0
 24 25  2  0
 25 26  1  0
 26 27  2  0
 28 29  1  0
M  END
