
     RDKit          3D

 31 33  0  0  0  0  0  0  0  0999 V2000
   -5.3740    2.8390    0.7850 C   0  0  0  0  0  0  0  0  0  0  0  0
   -4.3500    2.8920   -0.0590 C   0  0  0  0  0  0  0  0  0  0  0  0
   -3.3980    1.7480   -0.1990 C   0  0  0  0  0  0  0  0  0  0  0  0
   -3.7810    0.6030    0.7110 C   0  0  0  0  0  0  0  0  0  0  0  0
   -2.7660   -0.5380    0.5260 C   0  0  2  0  0  0  0  0  0  0  0  0
   -3.1890   -1.6710    1.4610 C   0  0  0  0  0  0  0  0  0  0  0  0
   -4.5680   -2.1630    1.1460 C   0  0  0  0  0  0  0  0  0  0  0  0
   -4.6670   -2.6890   -0.2640 C   0  0  0  0  0  0  0  0  0  0  0  0
   -5.9850   -3.1340   -0.4850 O   0  0  0  0  0  0  0  0  0  0  0  0
   -1.5520   -0.0640    1.0090 O   0  0  0  0  0  0  0  0  0  0  0  0
   -0.3660    0.0770    0.2800 C   0  0  0  0  0  0  0  0  0  0  0  0
    0.7420    0.5710    0.9420 C   0  0  0  0  0  0  0  0  0  0  0  0
    1.9430    0.7300    0.2590 C   0  0  0  0  0  0  0  0  0  0  0  0
    3.1190    1.2580    0.9460 C   0  0  0  0  0  0  0  0  0  0  0  0
    4.1960    0.4940    1.0840 C   0  0  0  0  0  0  0  0  0  0  0  0
    4.4420   -1.2130    0.5190 S   0  0  0  0  0  0  0  0  0  0  0  0
    6.2290   -1.1340    0.5780 C   0  0  0  0  0  0  0  0  0  0  0  0
    6.9880   -1.9090   -0.0430 O   0  0  0  0  0  0  0  0  0  0  0  0
    6.5200   -0.0560    1.4370 N   0  0  0  0  0  0  0  0  0  0  0  0
    7.8880    0.1060    1.9860 C   0  0  0  0  0  0  0  0  0  0  0  0
    5.4630    0.8140    1.7180 C   0  0  0  0  0  0  0  0  0  0  0  0
    5.5610    1.8470    2.4840 O   0  0  0  0  0  0  0  0  0  0  0  0
    2.0850    0.4120   -1.0840 C   0  0  0  0  0  0  0  0  0  0  0  0
    3.2400    0.5900   -1.7460 N   0  0  0  0  0  0  0  0  0  0  0  0
    3.3050    0.2740   -3.0720 C   0  0  0  0  0  0  0  0  0  0  0  0
    4.4060    0.4590   -3.6340 O   0  0  0  0  0  0  0  0  0  0  0  0
    2.2190   -0.2060   -3.6880 N   0  0  0  0  0  0  0  0  0  0  0  0
    1.0520   -0.3920   -3.0570 C   0  0  0  0  0  0  0  0  0  0  0  0
    0.0330   -0.8430   -3.6430 O   0  0  0  0  0  0  0  0  0  0  0  0
    0.9330   -0.0850   -1.7050 C   0  0  0  0  0  0  0  0  0  0  0  0
   -0.2650   -0.2510   -1.0450 C   0  0  0  0  0  0  0  0  0  0  0  0
  1  2  2  0
  2  3  1  0
  3  4  1  0
  5  4  1  1
  5  6  1  0
  5 10  1  0
  6  7  1  0
  7  8  1  0
  8  9  1  0
 10 11  1  0
 11 12  2  0
 11 31  1  0
 12 13  1  0
 13 14  1  0
 13 23  2  0
 14 15  2  3
 15 16  1  0
 15 21  1  0
 16 17  1  0
 17 18  2  0
 17 19  1  0
 19 20  1  0
 19 21  1  0
 21 22  2  0
 23 24  1  0
 23 30  1  0
 24 25  1  0
 25 26  2  0
 25 27  1  0
 27 28  1  0
 28 29  2  0
 28 30  1  0
 30 31  2  0
M  END
