
     RDKit          3D

 30 32  0  0  0  0  0  0  0  0999 V2000
    7.8570    0.6780   -0.7470 C   0  0  0  0  0  0  0  0  0  0  0  0
    6.4680    0.6190   -0.1930 C   0  0  1  0  0  0  0  0  0  0  0  0
    6.4200    0.3060    1.2660 C   0  0  0  0  0  0  0  0  0  0  0  0
    5.6730    2.2330   -0.5600 S   0  0  0  0  0  0  0  0  0  0  0  0
    4.1980    1.5640   -1.3450 C   0  0  0  0  0  0  0  0  0  0  0  0
    3.2830    2.2270   -1.9180 O   0  0  0  0  0  0  0  0  0  0  0  0
    4.3140    0.1660   -1.1660 N   0  0  0  0  0  0  0  0  0  0  0  0
    3.1550   -0.7230   -1.1380 C   0  0  0  0  0  0  0  0  0  0  0  0
    2.5920   -0.9230    0.2270 C   0  0  0  0  0  0  0  0  0  0  0  0
    2.1340    0.2460    0.8890 N   0  0  0  0  0  0  0  0  0  0  0  0
    0.7980    0.1430    1.4420 C   0  0  0  0  0  0  0  0  0  0  0  0
   -0.2540    0.5630    0.4310 C   0  0  2  0  0  0  0  0  0  0  0  0
   -1.6270    0.4290    1.0470 C   0  0  0  0  0  0  0  0  0  0  0  0
   -2.3150   -0.6350    0.2100 C   0  0  1  0  0  0  0  0  0  0  0  0
   -3.4370   -0.1560   -0.4980 N   0  0  0  0  0  0  0  0  0  0  0  0
   -4.6250    0.1860    0.3320 C   0  0  0  0  0  0  0  0  0  0  0  0
   -5.8630    0.0550   -0.4360 C   0  0  0  0  0  0  0  0  0  0  0  0
   -7.0110   -0.1960    0.1510 C   0  0  0  0  0  0  0  0  0  0  0  0
   -8.5010   -0.3550   -0.7890 Cl  0  0  0  0  0  0  0  0  0  0  0  0
   -7.0710   -0.3280    1.5960 C   0  0  0  0  0  0  0  0  0  0  0  0
   -8.2510   -0.5870    2.1810 C   0  0  0  0  0  0  0  0  0  0  0  0
   -9.3590   -0.7210    1.4210 F   0  0  0  0  0  0  0  0  0  0  0  0
   -5.8730    0.2220   -1.8970 C   0  0  0  0  0  0  0  0  0  0  0  0
   -4.7530    0.2050   -2.5800 C   0  0  0  0  0  0  0  0  0  0  0  0
   -3.4780    0.0160   -1.8910 C   0  0  0  0  0  0  0  0  0  0  0  0
   -2.1260    0.0460   -2.7760 S   0  0  0  0  0  0  0  0  0  0  0  0
   -1.1800   -1.2390   -0.5180 C   0  0  0  0  0  0  0  0  0  0  0  0
   -0.2420   -0.2090   -0.7080 O   0  0  0  0  0  0  0  0  0  0  0  0
    5.6480   -0.2800   -1.0230 C   0  0  0  0  0  0  0  0  0  0  0  0
    6.1490   -1.3430   -1.5350 O   0  0  0  0  0  0  0  0  0  0  0  0
  2  1  1  6
  2  3  1  0
  2  4  1  0
  2 29  1  0
  4  5  1  0
  5  6  2  0
  5  7  1  0
  7  8  1  0
  7 29  1  0
  8  9  1  0
  9 10  1  0
 10 11  1  0
 12 11  1  1
 12 13  1  0
 12 28  1  0
 13 14  1  0
 14 15  1  6
 14 27  1  0
 15 16  1  0
 15 25  1  0
 16 17  1  0
 17 18  2  3
 17 23  1  0
 18 19  1  0
 18 20  1  0
 20 21  2  3
 21 22  1  0
 23 24  2  0
 24 25  1  0
 25 26  2  0
 27 28  1  0
 29 30  2  0
M  CHG  1  10   1
M  END
