
     RDKit          3D

 30 32  0  0  0  0  0  0  0  0999 V2000
   -1.2040    4.5860    0.4230 C   0  0  0  0  0  0  0  0  0  0  0  0
   -1.1170    3.9150   -0.9240 C   0  0  0  0  0  0  0  0  0  0  0  0
   -0.3270    2.7460   -0.7930 O   0  0  0  0  0  0  0  0  0  0  0  0
   -0.7000    1.7390    0.0620 C   0  0  0  0  0  0  0  0  0  0  0  0
   -1.7450    1.8390    0.7370 O   0  0  0  0  0  0  0  0  0  0  0  0
    0.1090    0.5580    0.1860 N   0  0  0  0  0  0  0  0  0  0  0  0
    1.3430    0.4260   -0.6040 C   0  0  0  0  0  0  0  0  0  0  0  0
    2.4840   -0.0660    0.2640 C   0  0  2  0  0  0  0  0  0  0  0  0
    3.5710   -0.4730   -0.5930 N   0  0  0  0  0  0  0  0  0  0  0  0
    4.7700    0.2630   -0.2350 C   0  0  0  0  0  0  0  0  0  0  0  0
    5.9610   -0.3490   -0.8570 C   0  0  0  0  0  0  0  0  0  0  0  0
    6.6990    0.3700   -1.6940 C   0  0  0  0  0  0  0  0  0  0  0  0
    8.1280   -0.3480   -2.4480 Cl  0  0  0  0  0  0  0  0  0  0  0  0
    6.4200   -2.0360   -0.4960 S   0  0  0  0  0  0  0  0  0  0  0  0
    5.3450   -2.7550    0.6030 F   0  0  0  0  0  0  0  0  0  0  0  0
    2.0850   -1.2460    1.1070 C   0  0  0  0  0  0  0  0  0  0  0  0
    0.6990   -1.6690    0.6970 C   0  0  0  0  0  0  0  0  0  0  0  0
   -0.2210   -0.4890    1.0800 C   0  0  2  0  0  0  0  0  0  0  0  0
   -1.6030   -0.9080    1.1990 C   0  0  0  0  0  0  0  0  0  0  0  0
   -2.0310   -1.1510    2.3940 O   0  0  0  0  0  0  0  0  0  0  0  0
   -2.4900   -1.0680    0.1400 N   0  0  0  0  0  0  0  0  0  0  0  0
   -2.1630   -0.8740   -1.2600 C   0  0  0  0  0  0  0  0  0  0  0  0
   -3.1860    0.0880   -1.8120 C   0  0  0  0  0  0  0  0  0  0  0  0
   -4.4190   -0.0120   -1.4050 C   0  0  0  0  0  0  0  0  0  0  0  0
   -4.8370   -0.8050   -0.4880 C   0  0  0  0  0  0  0  0  0  0  0  0
   -6.5640   -1.1630   -0.2550 S   0  0  0  0  0  0  0  0  0  0  0  0
   -6.6380   -2.3290    1.0990 C   0  0  0  0  0  0  0  0  0  0  0  0
   -5.5250   -2.7150    1.6870 C   0  0  0  0  0  0  0  0  0  0  0  0
   -4.1840   -2.2810    1.3450 C   0  0  0  0  0  0  0  0  0  0  0  0
   -3.8790   -1.4450    0.4060 C   0  0  0  0  0  0  0  0  0  0  0  0
  1  2  1  0
  2  3  1  0
  3  4  1  0
  4  5  2  0
  4  6  1  0
  6  7  1  0
  6 18  1  0
  7  8  1  0
  8  9  1  6
  8 16  1  0
  9 10  1  0
 10 11  1  0
 11 12  2  3
 11 14  1  0
 12 13  1  0
 14 15  1  0
 16 17  1  0
 17 18  1  0
 18 19  1  6
 19 20  2  0
 19 21  1  0
 21 22  1  0
 21 30  1  0
 22 23  1  0
 23 24  2  0
 24 25  2  0
 25 26  1  0
 25 30  1  0
 26 27  1  0
 27 28  2  0
 28 29  1  0
 29 30  2  0
M  CHG  1   9   1
M  END
