
     RDKit          3D

 31 33  0  0  0  0  0  0  0  0999 V2000
   -3.0210    3.2140   -0.6490 C   0  0  0  0  0  0  0  0  0  0  0  0
   -2.6310    1.9950    0.1610 C   0  0  1  0  0  0  0  0  0  0  0  0
   -3.7100    1.5280    1.0630 C   0  0  0  0  0  0  0  0  0  0  0  0
   -3.5300    1.5290    2.3240 O   0  0  0  0  0  0  0  0  0  0  0  0
   -4.9750    1.0620    0.6070 N   0  0  0  0  0  0  0  0  0  0  0  0
   -6.0110    0.6100    1.5170 C   0  0  2  0  0  0  0  0  0  0  0  0
   -6.8070   -0.6030    1.1960 C   0  0  0  0  0  0  0  0  0  0  0  0
   -7.4370    0.7850    1.2370 C   0  0  0  0  0  0  0  0  0  0  0  0
   -2.2160    0.9360   -0.7680 C   0  0  0  0  0  0  0  0  0  0  0  0
   -2.0540    1.1070   -2.5350 S   0  0  0  0  0  0  0  0  0  0  0  0
   -1.5110   -0.6190   -2.8510 C   0  0  0  0  0  0  0  0  0  0  0  0
   -1.5140   -1.1190   -1.6100 C   0  0  0  0  0  0  0  0  0  0  0  0
   -1.8590   -0.3750   -0.5520 C   0  0  0  0  0  0  0  0  0  0  0  0
   -1.8850   -0.8500    0.7940 O   0  0  0  0  0  0  0  0  0  0  0  0
   -1.5420   -2.1480    1.1500 C   0  0  0  0  0  0  0  0  0  0  0  0
   -0.1310   -2.5270    0.8580 C   0  0  0  0  0  0  0  0  0  0  0  0
    0.1780   -3.7240    1.0320 O   0  0  0  0  0  0  0  0  0  0  0  0
    0.8150   -1.5930    0.4120 N   0  0  0  0  0  0  0  0  0  0  0  0
    2.1660   -1.8710    0.1020 C   0  0  0  0  0  0  0  0  0  0  0  0
    2.6290   -3.1290   -0.1460 C   0  0  0  0  0  0  0  0  0  0  0  0
    3.9860   -3.3750   -0.4260 C   0  0  0  0  0  0  0  0  0  0  0  0
    4.8730   -2.3050   -0.4500 C   0  0  0  0  0  0  0  0  0  0  0  0
    4.4390   -1.0250   -0.2050 C   0  0  0  0  0  0  0  0  0  0  0  0
    5.2890    0.0590   -0.2200 O   0  0  0  0  0  0  0  0  0  0  0  0
    5.9350    0.4940    0.9480 C   0  0  0  0  0  0  0  0  0  0  0  0
    5.6780   -0.1700    1.9800 O   0  0  0  0  0  0  0  0  0  0  0  0
    6.8340    1.6370    0.9440 C   0  0  0  0  0  0  0  0  0  0  0  0
    7.0930    2.3110   -0.1080 N   0  0  0  0  0  0  0  0  0  0  0  0
    6.5540    2.0530   -1.4100 C   0  0  0  0  0  0  0  0  0  0  0  0
    6.9590    3.1240   -2.2350 O   0  0  0  0  0  0  0  0  0  0  0  0
    3.1100   -0.8340    0.0630 C   0  0  0  0  0  0  0  0  0  0  0  0
  2  1  1  6
  2  3  1  0
  2  9  1  0
  3  4  2  0
  3  5  1  0
  6  5  1  6
  6  7  1  0
  6  8  1  0
  7  8  1  0
  9 10  1  0
  9 13  2  0
 10 11  1  0
 11 12  2  0
 12 13  1  0
 13 14  1  0
 14 15  1  0
 15 16  1  0
 16 17  2  0
 16 18  1  0
 18 19  1  0
 19 20  2  0
 19 31  1  0
 20 21  1  0
 21 22  2  0
 22 23  1  0
 23 24  1  0
 23 31  2  0
 24 25  1  0
 25 26  2  0
 25 27  1  0
 27 28  2  3
 28 29  1  0
 29 30  1  0
M  END
