
     RDKit          3D

 30 32  0  0  0  0  0  0  0  0999 V2000
    9.2590    1.7270   -1.2710 C   0  0  0  0  0  0  0  0  0  0  0  0
    7.8460    1.6420   -0.8820 C   0  0  0  0  0  0  0  0  0  0  0  0
    7.2660    0.5280   -0.4640 C   0  0  0  0  0  0  0  0  0  0  0  0
    5.8630    0.5620   -0.1070 C   0  0  0  0  0  0  0  0  0  0  0  0
    5.1800    1.6340   -0.1900 O   0  0  0  0  0  0  0  0  0  0  0  0
    5.1530   -0.5820    0.3560 N   0  0  0  0  0  0  0  0  0  0  0  0
    3.7610   -0.4930    0.7030 C   0  0  0  0  0  0  0  0  0  0  0  0
    3.0910   -0.8390    1.7950 C   0  0  0  0  0  0  0  0  0  0  0  0
    1.7680   -0.6470    1.8690 C   0  0  0  0  0  0  0  0  0  0  0  0
    1.1580   -0.0910    0.7940 C   0  0  0  0  0  0  0  0  0  0  0  0
   -0.3070    0.2440    0.5830 C   0  0  0  0  0  0  0  0  0  0  0  0
   -1.0500   -0.8830    1.0720 N   0  0  0  0  0  0  0  0  0  0  0  0
   -2.3800   -0.9660    0.4980 C   0  0  1  0  0  0  0  0  0  0  0  0
   -3.1390    0.2980    0.8630 C   0  0  0  0  0  0  0  0  0  0  0  0
   -4.6110    0.0490    1.0590 C   0  0  0  0  0  0  0  0  0  0  0  0
   -5.4150    0.5440   -0.0740 N   0  0  0  0  0  0  0  0  0  0  0  0
   -6.7770    0.1350    0.2570 C   0  0  0  0  0  0  0  0  0  0  0  0
   -7.8190    0.8600   -0.5310 C   0  0  0  0  0  0  0  0  0  0  0  0
   -7.7980    2.3560   -0.3370 C   0  0  0  0  0  0  0  0  0  0  0  0
   -8.8020    2.9310   -1.1120 F   0  0  0  0  0  0  0  0  0  0  0  0
   -4.9450   -0.4780   -1.4130 S   0  0  1  0  0  0  0  0  0  0  0  0
   -5.2160   -1.8870   -0.9680 O   0  0  0  0  0  0  0  0  0  0  0  0
   -5.7220   -0.1160   -2.6350 O   0  0  0  0  0  0  0  0  0  0  0  0
   -3.2290   -0.3280   -1.7770 C   0  0  0  0  0  0  0  0  0  0  0  0
   -2.3800   -1.2750   -0.9550 C   0  0  0  0  0  0  0  0  0  0  0  0
    2.4760    0.1610   -0.3360 S   0  0  0  0  0  0  0  0  0  0  0  0
    5.9190   -1.7700    0.4440 C   0  0  0  0  0  0  0  0  0  0  0  0
    7.1990   -1.8360    0.1260 C   0  0  0  0  0  0  0  0  0  0  0  0
    8.0330   -0.7200   -0.3630 C   0  0  2  0  0  0  0  0  0  0  0  0
    9.4250   -0.5620    0.7350 Cl  0  0  0  0  0  0  0  0  0  0  0  0
  1  2  1  0
  2  3  2  3
  3  4  1  0
  3 29  1  0
  4  5  2  0
  4  6  1  0
  6  7  1  0
  6 27  1  0
  7  8  2  0
  7 26  1  0
  8  9  1  0
  9 10  2  0
 10 11  1  0
 10 26  1  0
 11 12  1  0
 13 12  1  6
 13 14  1  0
 13 25  1  0
 14 15  1  0
 15 16  1  0
 16 17  1  0
 16 21  1  0
 17 18  1  0
 18 19  1  0
 19 20  1  0
 21 22  2  0
 21 23  2  0
 21 24  1  6
 24 25  1  0
 27 28  2  0
 28 29  1  0
 29 30  1  1
M  CHG  1  12   1
M  END
