
     RDKit          3D

 31 35  0  0  0  0  0  0  0  0999 V2000
    6.5090   -3.6020   -1.6990 C   0  0  0  0  0  0  0  0  0  0  0  0
    5.1990   -3.1020   -1.6640 O   0  0  0  0  0  0  0  0  0  0  0  0
    4.8730   -1.8810   -1.0820 C   0  0  0  0  0  0  0  0  0  0  0  0
    5.8190   -1.0870   -0.5020 C   0  0  0  0  0  0  0  0  0  0  0  0
    5.4240    0.0730    0.0370 N   0  0  0  0  0  0  0  0  0  0  0  0
    4.1280    0.4780    0.0240 C   0  0  0  0  0  0  0  0  0  0  0  0
    3.8810    1.7020    0.6250 C   0  0  0  0  0  0  0  0  0  0  0  0
    4.9740    2.4750    1.2190 C   0  0  0  0  0  0  0  0  0  0  0  0
    4.9030    3.5880    1.7910 N   0  0  0  0  0  0  0  0  0  0  0  0
    3.8860    4.4150    2.0500 O   0  0  0  0  0  0  0  0  0  0  0  0
    2.5760    2.1230    0.6210 C   0  0  0  0  0  0  0  0  0  0  0  0
    1.5620    1.3490    0.0400 C   0  0  0  0  0  0  0  0  0  0  0  0
    1.8250    0.1340   -0.5530 C   0  0  0  0  0  0  0  0  0  0  0  0
    0.8030   -0.6310   -1.1600 N   0  0  0  0  0  0  0  0  0  0  0  0
   -0.6100   -0.3240   -1.1040 C   0  0  0  0  0  0  0  0  0  0  0  0
   -1.2080   -0.5280    0.2780 C   0  0  2  0  0  0  0  0  0  0  0  0
   -1.0100   -1.9720    0.6270 C   0  0  0  0  0  0  0  0  0  0  0  0
   -2.0700   -2.5570    1.5070 C   0  0  0  0  0  0  0  0  0  0  0  0
   -3.3710   -2.5190    0.6920 C   0  0  0  0  0  0  0  0  0  0  0  0
   -3.6500   -1.0620    0.5020 C   0  0  0  0  0  0  0  0  0  0  0  0
   -4.9950   -0.6640    0.5270 C   0  0  0  0  0  0  0  0  0  0  0  0
   -5.3270    0.6540    0.3610 C   0  0  0  0  0  0  0  0  0  0  0  0
   -4.3310    1.5820    0.1700 C   0  0  0  0  0  0  0  0  0  0  0  0
   -3.0390    1.1680    0.1500 C   0  0  0  0  0  0  0  0  0  0  0  0
   -2.6320   -0.1650    0.3130 C   0  0  0  0  0  0  0  0  0  0  0  0
   -4.7030    2.9260    0.0030 O   0  0  0  0  0  0  0  0  0  0  0  0
   -5.9320    3.1800   -0.6660 C   0  0  0  0  0  0  0  0  0  0  0  0
   -7.0590    2.3450   -0.1560 C   0  0  0  0  0  0  0  0  0  0  0  0
   -6.6460    1.1060    0.3770 O   0  0  0  0  0  0  0  0  0  0  0  0
    3.1300   -0.2940   -0.5530 C   0  0  0  0  0  0  0  0  0  0  0  0
    3.5350   -1.4850   -1.1060 C   0  0  0  0  0  0  0  0  0  0  0  0
  1  2  1  0
  2  3  1  0
  3  4  2  0
  3 31  1  0
  4  5  1  0
  5  6  2  0
  6  7  1  0
  6 30  1  0
  7  8  1  0
  7 11  2  0
  8  9  2  3
  9 10  1  0
 11 12  1  0
 12 13  2  0
 13 14  1  0
 13 30  1  0
 14 15  1  0
 16 15  1  6
 16 17  1  0
 16 25  1  0
 17 18  1  0
 18 19  1  0
 19 20  1  0
 20 21  2  0
 20 25  1  0
 21 22  1  0
 22 23  2  0
 22 29  1  0
 23 24  1  0
 23 26  1  0
 24 25  2  0
 26 27  1  0
 27 28  1  0
 28 29  1  0
 30 31  2  0
M  END
