
     RDKit          3D

 29 31  0  0  0  0  0  0  0  0999 V2000
    6.4500   -0.8250   -0.3070 C   0  0  0  0  0  0  0  0  0  0  0  0
    5.6640   -2.1200   -0.3340 C   0  0  0  0  0  0  0  0  0  0  0  0
    4.4120   -1.9420    0.2720 O   0  0  0  0  0  0  0  0  0  0  0  0
    3.4940   -0.9930   -0.2520 C   0  0  0  0  0  0  0  0  0  0  0  0
    3.8900   -0.3820   -1.2330 O   0  0  0  0  0  0  0  0  0  0  0  0
    2.1990   -0.8310    0.4000 C   0  0  0  0  0  0  0  0  0  0  0  0
    1.2920    0.0050   -0.0860 C   0  0  0  0  0  0  0  0  0  0  0  0
    1.7620    0.6600   -1.2870 C   0  0  0  0  0  0  0  0  0  0  0  0
    1.2920    1.8410   -1.5970 C   0  0  0  0  0  0  0  0  0  0  0  0
    1.7940    2.5480   -2.8430 C   0  0  0  0  0  0  0  0  0  0  0  0
    0.1840    2.3960   -0.8750 C   0  0  0  0  0  0  0  0  0  0  0  0
   -0.3860    3.5820   -1.0420 O   0  0  0  0  0  0  0  0  0  0  0  0
   -1.3490    3.7480   -0.1980 C   0  0  0  0  0  0  0  0  0  0  0  0
   -2.2050    4.9520   -0.0930 C   0  0  0  0  0  0  0  0  0  0  0  0
   -1.4170    2.5900    0.5730 C   0  0  0  0  0  0  0  0  0  0  0  0
   -0.4320    1.7190    0.1350 C   0  0  0  0  0  0  0  0  0  0  0  0
   -0.0580    0.3060    0.5140 C   0  0  1  0  0  0  0  0  0  0  0  0
   -0.9770   -0.6570   -0.1140 C   0  0  0  0  0  0  0  0  0  0  0  0
   -2.3740   -0.6950    0.2340 C   0  0  0  0  0  0  0  0  0  0  0  0
   -2.9630   -0.0090    1.1000 O   0  0  0  0  0  0  0  0  0  0  0  0
   -3.2540   -1.5870   -0.4370 O   0  0  0  0  0  0  0  0  0  0  0  0
   -4.6120   -1.6650   -0.1410 C   0  0  1  0  0  0  0  0  0  0  0  0
   -5.5150   -1.4780   -1.3130 C   0  0  0  0  0  0  0  0  0  0  0  0
   -4.8420   -3.0430    0.4960 C   0  0  0  0  0  0  0  0  0  0  0  0
    0.0060    0.3180    1.9830 C   0  0  0  0  0  0  0  0  0  0  0  0
   -0.1890   -0.9880    2.6840 C   0  0  0  0  0  0  0  0  0  0  0  0
    0.9130   -1.9320    2.3320 C   0  0  0  0  0  0  0  0  0  0  0  0
    0.7710   -3.0760    2.7980 O   0  0  0  0  0  0  0  0  0  0  0  0
    2.0630   -1.6990    1.5600 N   0  0  0  0  0  0  0  0  0  0  0  0
  1  2  1  0
  2  3  1  0
  3  4  1  0
  4  5  2  0
  4  6  1  0
  6  7  2  0
  6 29  1  0
  7  8  1  0
  7 17  1  0
  8  9  2  0
  9 10  1  0
  9 11  1  0
 11 12  1  0
 11 16  2  0
 12 13  1  0
 13 14  1  0
 13 15  2  0
 15 16  1  0
 16 17  1  0
 17 18  1  1
 17 25  1  0
 18 19  1  0
 19 20  2  0
 19 21  1  0
 21 22  1  0
 22 23  1  6
 22 24  1  0
 25 26  1  0
 26 27  1  0
 27 28  2  0
 27 29  1  0
M  END
