
     RDKit          3D

 29 30  0  0  0  0  0  0  0  0999 V2000
   -5.7660   -2.0900   -0.6740 C   0  0  0  0  0  0  0  0  0  0  0  0
   -6.5700   -0.8980   -1.0740 C   0  0  0  0  0  0  0  0  0  0  0  0
   -5.7260    0.3140   -1.0240 C   0  0  0  0  0  0  0  0  0  0  0  0
   -6.3130    1.6350   -1.3850 C   0  0  0  0  0  0  0  0  0  0  0  0
   -4.4430    0.2770   -0.6640 C   0  0  0  0  0  0  0  0  0  0  0  0
   -3.6260    1.4720   -0.6190 C   0  0  0  0  0  0  0  0  0  0  0  0
   -2.3700    1.4840   -0.2730 C   0  0  0  0  0  0  0  0  0  0  0  0
   -1.6420    0.3400    0.1010 C   0  0  0  0  0  0  0  0  0  0  0  0
   -0.3490    0.2480    0.4870 C   0  0  0  0  0  0  0  0  0  0  0  0
    0.1980   -1.0810    0.8270 C   0  0  0  0  0  0  0  0  0  0  0  0
    1.2180   -1.3890    1.6170 C   0  0  0  0  0  0  0  0  0  0  0  0
    2.0330   -0.6460    2.3150 O   0  0  0  0  0  0  0  0  0  0  0  0
    3.2930   -0.0880    2.4740 C   0  0  0  0  0  0  0  0  0  0  0  0
    3.3890    0.9030    3.2700 O   0  0  0  0  0  0  0  0  0  0  0  0
    4.5070   -0.5620    1.7920 C   0  0  0  0  0  0  0  0  0  0  0  0
    5.0240   -0.5100    0.5890 C   0  0  0  0  0  0  0  0  0  0  0  0
    6.3010   -1.1520    0.3700 O   0  0  0  0  0  0  0  0  0  0  0  0
    6.8560   -2.0320    1.2910 C   0  0  0  0  0  0  0  0  0  0  0  0
    4.5760    0.0920   -0.6550 C   0  0  0  0  0  0  0  0  0  0  0  0
    3.1930    0.0660   -1.1150 N   0  0  0  0  0  0  0  0  0  0  0  0
    2.7430   -1.2210   -1.7050 C   0  0  0  0  0  0  0  0  0  0  0  0
    2.2330    1.0920   -1.1080 C   0  0  0  0  0  0  0  0  0  0  0  0
    1.9400    1.4020   -2.3270 O   0  0  0  0  0  0  0  0  0  0  0  0
    1.4830    1.9000   -0.1550 C   0  0  0  0  0  0  0  0  0  0  0  0
    0.3780    1.5290    0.5380 C   0  0  0  0  0  0  0  0  0  0  0  0
    0.1110    2.6390    1.5020 C   0  0  0  0  0  0  0  0  0  0  0  0
    0.6690    3.7690    0.8850 O   0  0  0  0  0  0  0  0  0  0  0  0
    1.6940    3.3440    0.0560 C   0  0  0  0  0  0  0  0  0  0  0  0
    2.6290    4.0170   -0.4410 O   0  0  0  0  0  0  0  0  0  0  0  0
  1  2  1  0
  2  3  1  0
  3  4  1  0
  3  5  2  3
  5  6  1  0
  6  7  2  3
  7  8  1  0
  8  9  2  3
  9 10  1  0
  9 25  1  0
 10 11  2  0
 11 12  1  0
 12 13  1  0
 13 14  2  0
 13 15  1  0
 15 16  2  0
 16 17  1  0
 16 19  1  0
 17 18  1  0
 19 20  1  0
 20 21  1  0
 20 22  1  0
 22 23  2  0
 22 24  1  0
 24 25  2  0
 24 28  1  0
 25 26  1  0
 26 27  1  0
 27 28  1  0
 28 29  2  0
M  END
