
     RDKit          3D

 31 35  0  0  0  0  0  0  0  0999 V2000
    0.9560   -3.1480    0.3330 C   0  0  0  0  0  0  0  0  0  0  0  0
    1.9610   -2.0730    0.2170 C   0  0  0  0  0  0  0  0  0  0  0  0
    3.2700   -2.3700    0.2480 N   0  0  0  0  0  0  0  0  0  0  0  0
    4.2350   -1.4450    0.1590 C   0  0  0  0  0  0  0  0  0  0  0  0
    5.5480   -1.8470    0.2040 C   0  0  0  0  0  0  0  0  0  0  0  0
    5.7950   -3.0680    0.3250 O   0  0  0  0  0  0  0  0  0  0  0  0
    6.5150   -0.9760    0.1230 O   0  0  0  0  0  0  0  0  0  0  0  0
    6.2050    0.2800    0.0000 C   0  0  0  0  0  0  0  0  0  0  0  0
    7.2460    1.1690   -0.0810 C   0  0  0  0  0  0  0  0  0  0  0  0
    6.9980    2.5060   -0.2130 C   0  0  0  0  0  0  0  0  0  0  0  0
    5.7140    2.9640   -0.2640 C   0  0  0  0  0  0  0  0  0  0  0  0
    4.6210    2.0850   -0.1830 C   0  0  0  0  0  0  0  0  0  0  0  0
    4.8860    0.7570   -0.0520 C   0  0  0  0  0  0  0  0  0  0  0  0
    3.8840   -0.1330    0.0300 N   0  0  0  0  0  0  0  0  0  0  0  0
    2.6120    0.2430   -0.0080 C   0  0  0  0  0  0  0  0  0  0  0  0
    2.2190    1.4010   -0.1220 O   0  0  0  0  0  0  0  0  0  0  0  0
    1.6330   -0.7560    0.0890 C   0  0  0  0  0  0  0  0  0  0  0  0
    0.2450   -0.3270    0.0350 C   0  0  0  0  0  0  0  0  0  0  0  0
   -0.5910   -0.2740    1.1300 C   0  0  0  0  0  0  0  0  0  0  0  0
   -1.9090    0.1920    1.0500 C   0  0  0  0  0  0  0  0  0  0  0  0
   -2.4100    0.6170   -0.1550 C   0  0  0  0  0  0  0  0  0  0  0  0
   -3.7430    1.1590   -0.3070 C   0  0  0  0  0  0  0  0  0  0  0  0
   -4.8660    0.2120   -0.2800 C   0  0  0  0  0  0  0  0  0  0  0  0
   -4.7850   -1.0510   -0.0190 C   0  0  0  0  0  0  0  0  0  0  0  0
   -5.9490   -1.9550   -0.0040 C   0  0  0  0  0  0  0  0  0  0  0  0
   -7.1350   -1.3200   -0.3610 O   0  0  0  0  0  0  0  0  0  0  0  0
   -7.2560    0.0180   -0.6420 C   0  0  0  0  0  0  0  0  0  0  0  0
   -6.1880    0.7910   -0.6140 C   0  0  0  0  0  0  0  0  0  0  0  0
   -6.3360    2.1590   -0.9130 N   0  0  0  0  0  0  0  0  0  0  0  0
   -1.5860    0.5710   -1.2710 C   0  0  0  0  0  0  0  0  0  0  0  0
   -0.2960    0.1130   -1.1830 C   0  0  0  0  0  0  0  0  0  0  0  0
  1  2  1  0
  2  3  1  0
  2 17  2  0
  3  4  2  0
  4  5  1  0
  4 14  1  0
  5  6  2  0
  5  7  1  0
  7  8  1  0
  8  9  2  0
  8 13  1  0
  9 10  1  0
 10 11  2  0
 11 12  1  0
 12 13  2  0
 13 14  1  0
 14 15  1  0
 15 16  2  0
 15 17  1  0
 17 18  1  0
 18 19  2  0
 18 31  1  0
 19 20  1  0
 20 21  2  0
 21 22  1  0
 21 30  1  0
 22 23  1  0
 23 24  2  0
 23 28  1  0
 24 25  1  0
 25 26  1  0
 26 27  1  0
 27 28  2  0
 28 29  1  0
 30 31  2  0
M  END
