
     RDKit          3D

 29 31  0  0  0  0  0  0  0  0999 V2000
   -7.2470    1.2240   -1.8270 C   0  0  0  0  0  0  0  0  0  0  0  0
   -6.7590    1.4290   -0.4370 C   0  0  0  0  0  0  0  0  0  0  0  0
   -7.3340    2.3280    0.2440 O   0  0  0  0  0  0  0  0  0  0  0  0
   -5.6770    0.6420    0.1200 C   0  0  0  0  0  0  0  0  0  0  0  0
   -5.7650   -0.5450    0.8020 C   0  0  0  0  0  0  0  0  0  0  0  0
   -7.0050   -1.2760    1.1130 C   0  0  0  0  0  0  0  0  0  0  0  0
   -4.5300   -0.9400    1.1450 N   0  0  0  0  0  0  0  0  0  0  0  0
   -3.6390   -0.0410    0.7040 C   0  0  0  0  0  0  0  0  0  0  0  0
   -2.1850   -0.1380    0.8940 C   0  0  0  0  0  0  0  0  0  0  0  0
   -1.4330    0.7550    0.4430 O   0  0  0  0  0  0  0  0  0  0  0  0
   -1.6270   -1.2020    1.5650 O   0  0  0  0  0  0  0  0  0  0  0  0
   -0.2620   -1.3850    1.7970 C   0  0  0  0  0  0  0  0  0  0  0  0
    0.5310   -1.4720    0.5520 C   0  0  0  0  0  0  0  0  0  0  0  0
   -0.0220   -1.3830   -0.5740 O   0  0  0  0  0  0  0  0  0  0  0  0
    1.8870   -1.6530    0.6040 O   0  0  0  0  0  0  0  0  0  0  0  0
    2.7440   -1.7490   -0.5200 C   0  0  2  0  0  0  0  0  0  0  0  0
    3.2640   -3.1710   -0.5090 C   0  0  0  0  0  0  0  0  0  0  0  0
    3.8110   -0.7530   -0.3520 C   0  0  0  0  0  0  0  0  0  0  0  0
    5.1240   -1.0870   -0.0880 C   0  0  0  0  0  0  0  0  0  0  0  0
    6.1280   -0.1580    0.0770 C   0  0  0  0  0  0  0  0  0  0  0  0
    5.8050    1.1750   -0.0270 C   0  0  0  0  0  0  0  0  0  0  0  0
    4.5030    1.5370   -0.2910 C   0  0  0  0  0  0  0  0  0  0  0  0
    3.4930    0.5810   -0.4560 C   0  0  0  0  0  0  0  0  0  0  0  0
    2.1340    1.1070   -0.7420 C   0  0  0  0  0  0  0  0  0  0  0  0
    7.0610    1.9370    0.1910 C   0  0  0  0  0  0  0  0  0  0  0  0
    8.1170    0.8970   -0.1530 C   0  0  0  0  0  0  0  0  0  0  0  0
    7.4970   -0.2940    0.3460 O   0  0  0  0  0  0  0  0  0  0  0  0
   -4.3470    0.9550    0.0600 C   0  0  0  0  0  0  0  0  0  0  0  0
   -3.7690    2.1570   -0.5860 C   0  0  0  0  0  0  0  0  0  0  0  0
  1  2  1  0
  2  3  2  0
  2  4  1  0
  4  5  2  0
  4 28  1  0
  5  6  1  0
  5  7  1  0
  7  8  1  0
  8  9  1  0
  8 28  2  0
  9 10  2  0
  9 11  1  0
 11 12  1  0
 12 13  1  0
 13 14  2  0
 13 15  1  0
 15 16  1  0
 16 17  1  1
 16 18  1  0
 18 19  2  0
 18 23  1  0
 19 20  1  0
 20 21  2  0
 20 27  1  0
 21 22  1  0
 21 25  1  0
 22 23  2  0
 23 24  1  0
 25 26  1  0
 26 27  1  0
 28 29  1  0
M  END
