
     RDKit          3D

 29 30  0  0  0  0  0  0  0  0999 V2000
   -4.9400   -3.4290   -0.2850 C   0  0  0  0  0  0  0  0  0  0  0  0
   -3.7050   -2.8210   -0.0740 O   0  0  0  0  0  0  0  0  0  0  0  0
   -3.1270   -2.3840   -1.2300 C   0  0  0  0  0  0  0  0  0  0  0  0
   -1.8010   -1.7170   -1.1180 C   0  0  0  0  0  0  0  0  0  0  0  0
   -1.8540   -0.4860   -0.2660 N   0  0  0  0  0  0  0  0  0  0  0  0
   -1.5950   -0.8620    1.1150 C   0  0  0  0  0  0  0  0  0  0  0  0
   -0.3420   -1.5840    1.2920 C   0  0  0  0  0  0  0  0  0  0  0  0
    0.8650   -1.3540    0.7560 C   0  0  0  0  0  0  0  0  0  0  0  0
    1.9380   -2.3410    1.1770 C   0  0  0  0  0  0  0  0  0  0  0  0
    1.2100   -0.2630   -0.1490 C   0  0  0  0  0  0  0  0  0  0  0  0
    1.6410   -0.6110   -1.5250 C   0  0  0  0  0  0  0  0  0  0  0  0
    2.8650   -1.4340   -1.6660 C   0  0  0  0  0  0  0  0  0  0  0  0
    4.1020   -0.8280   -1.1330 C   0  0  0  0  0  0  0  0  0  0  0  0
    4.1830    0.2870   -0.5930 O   0  0  0  0  0  0  0  0  0  0  0  0
    5.2710   -1.5690   -1.2460 O   0  0  0  0  0  0  0  0  0  0  0  0
    6.5150   -1.0620   -0.7590 C   0  0  0  0  0  0  0  0  0  0  0  0
    1.1890    1.0520    0.1640 C   0  0  0  0  0  0  0  0  0  0  0  0
    0.8470    1.6890    1.3970 C   0  0  0  0  0  0  0  0  0  0  0  0
    1.8790    2.2010    2.0440 O   0  0  0  0  0  0  0  0  0  0  0  0
   -0.3260    1.8790    2.0440 O   0  0  0  0  0  0  0  0  0  0  0  0
   -1.4450    2.7110    1.6290 C   0  0  1  0  0  0  0  0  0  0  0  0
   -1.3500    3.9000    2.5010 C   0  0  0  0  0  0  0  0  0  0  0  0
   -1.0740    5.1040    2.0840 C   0  0  0  0  0  0  0  0  0  0  0  0
   -0.8670    5.3200    0.6670 C   0  0  0  0  0  0  0  0  0  0  0  0
   -0.9840    4.3370   -0.2060 C   0  0  0  0  0  0  0  0  0  0  0  0
   -1.3620    2.9460    0.1830 C   0  0  0  0  0  0  0  0  0  0  0  0
   -1.6630    2.1030   -0.7850 C   0  0  0  0  0  0  0  0  0  0  0  0
   -2.1460    0.7590   -0.8130 C   0  0  0  0  0  0  0  0  0  0  0  0
   -3.2190    0.6600   -1.6180 O   0  0  0  0  0  0  0  0  0  0  0  0
  1  2  1  0
  2  3  1  0
  3  4  1  0
  4  5  1  0
  5  6  1  0
  5 28  1  0
  6  7  1  0
  7  8  2  0
  8  9  1  0
  8 10  1  0
 10 11  1  0
 10 17  2  0
 11 12  1  0
 12 13  1  0
 13 14  2  0
 13 15  1  0
 15 16  1  0
 17 18  1  0
 18 19  2  0
 18 20  1  0
 21 20  1  1
 21 22  1  0
 21 26  1  0
 22 23  2  0
 23 24  1  0
 24 25  2  0
 25 26  1  0
 26 27  2  0
 27 28  1  0
 28 29  2  0
M  END
