
     RDKit          3D

 29 31  0  0  0  0  0  0  0  0999 V2000
   -7.8300    1.7440   -0.3690 C   0  0  0  0  0  0  0  0  0  0  0  0
   -6.4650    1.3470   -0.0110 C   0  0  0  0  0  0  0  0  0  0  0  0
   -6.0090    0.1320   -0.3520 C   0  0  0  0  0  0  0  0  0  0  0  0
   -6.9010   -0.6770   -1.0400 O   0  0  0  0  0  0  0  0  0  0  0  0
   -6.9640   -2.0910   -1.1760 C   0  0  0  0  0  0  0  0  0  0  0  0
   -5.7090   -2.6600   -1.4700 O   0  0  0  0  0  0  0  0  0  0  0  0
   -4.4530   -2.4640   -0.8990 C   0  0  0  0  0  0  0  0  0  0  0  0
   -3.6130   -3.4020   -0.9940 O   0  0  0  0  0  0  0  0  0  0  0  0
   -3.9860   -1.2770   -0.1890 C   0  0  0  0  0  0  0  0  0  0  0  0
   -4.6570   -0.1670    0.0420 C   0  0  0  0  0  0  0  0  0  0  0  0
   -3.9740    0.8980    0.7840 C   0  0  0  0  0  0  0  0  0  0  0  0
   -2.5970    0.5300    1.1640 N   0  0  0  0  0  0  0  0  0  0  0  0
   -2.4180   -0.1250    2.4420 C   0  0  0  0  0  0  0  0  0  0  0  0
   -1.5290    0.8090    0.3160 C   0  0  0  0  0  0  0  0  0  0  0  0
   -1.8540    1.3980   -0.7930 O   0  0  0  0  0  0  0  0  0  0  0  0
   -0.1220    0.5460    0.4800 C   0  0  0  0  0  0  0  0  0  0  0  0
    0.5700   -0.0500    1.5070 C   0  0  0  0  0  0  0  0  0  0  0  0
    1.9360   -0.0670    1.1820 C   0  0  0  0  0  0  0  0  0  0  0  0
    1.9880    0.5330   -0.0500 C   0  0  0  0  0  0  0  0  0  0  0  0
    3.1910    0.7800   -0.8680 C   0  0  1  0  0  0  0  0  0  0  0  0
    3.1990    2.0710   -1.3750 O   0  0  0  0  0  0  0  0  0  0  0  0
    4.4320    0.4170   -0.1080 C   0  0  1  0  0  0  0  0  0  0  0  0
    4.4930    1.2570    1.1490 C   0  0  0  0  0  0  0  0  0  0  0  0
    4.5040   -1.0540    0.1310 C   0  0  0  0  0  0  0  0  0  0  0  0
    5.5340   -1.7210   -0.7940 C   0  0  0  0  0  0  0  0  0  0  0  0
    6.9070   -1.3020   -0.3370 C   0  0  0  0  0  0  0  0  0  0  0  0
    6.8760    0.2140   -0.1950 C   0  0  0  0  0  0  0  0  0  0  0  0
    5.6660    0.7930   -0.9160 C   0  0  0  0  0  0  0  0  0  0  0  0
    0.7960    0.8730   -0.4270 O   0  0  0  0  0  0  0  0  0  0  0  0
  1  2  1  0
  2  3  2  3
  3  4  1  0
  3 10  1  0
  4  5  1  0
  5  6  1  0
  6  7  1  0
  7  8  2  0
  7  9  1  0
  9 10  2  0
 10 11  1  0
 11 12  1  0
 12 13  1  0
 12 14  1  0
 14 15  2  0
 14 16  1  0
 16 17  2  0
 16 29  1  0
 17 18  1  0
 18 19  2  0
 19 20  1  0
 19 29  1  0
 20 21  1  1
 20 22  1  0
 22 23  1  1
 22 24  1  0
 22 28  1  0
 24 25  1  0
 25 26  1  0
 26 27  1  0
 27 28  1  0
M  END
