
     RDKit          3D

 29 30  0  0  0  0  0  0  0  0999 V2000
   -4.6900    1.5150    0.3360 C   0  0  0  0  0  0  0  0  0  0  0  0
   -5.1350    0.3800   -0.1710 C   0  0  0  0  0  0  0  0  0  0  0  0
   -6.1160    0.3420   -1.2850 C   0  0  0  0  0  0  0  0  0  0  0  0
   -6.0720   -0.9750   -1.9310 C   0  0  0  0  0  0  0  0  0  0  0  0
   -7.0800   -1.4020   -2.5960 O   0  0  0  0  0  0  0  0  0  0  0  0
   -4.9490   -1.7650   -1.8300 O   0  0  0  0  0  0  0  0  0  0  0  0
   -4.2520   -1.9630   -0.6020 C   0  0  1  0  0  0  0  0  0  0  0  0
   -2.8160   -1.7890   -0.8930 C   0  0  0  0  0  0  0  0  0  0  0  0
   -2.4020   -1.5090   -2.0710 O   0  0  0  0  0  0  0  0  0  0  0  0
   -1.7710   -1.9100    0.0730 N   0  0  0  0  0  0  0  0  0  0  0  0
   -0.4060   -1.7300   -0.2660 C   0  0  0  0  0  0  0  0  0  0  0  0
    0.2710   -2.5770   -1.2700 C   0  0  0  0  0  0  0  0  0  0  0  0
    0.2990   -0.7560    0.3450 C   0  0  0  0  0  0  0  0  0  0  0  0
    1.6880   -0.5630    0.0090 C   0  0  0  0  0  0  0  0  0  0  0  0
    2.4530    0.3600    0.5570 C   0  0  0  0  0  0  0  0  0  0  0  0
    1.9930    1.2920    1.5680 C   0  0  0  0  0  0  0  0  0  0  0  0
    1.1700    0.9540    2.4460 O   0  0  0  0  0  0  0  0  0  0  0  0
    2.5000    2.6630    1.5690 C   0  0  0  0  0  0  0  0  0  0  0  0
    3.4920    2.9590    0.5110 C   0  0  0  0  0  0  0  0  0  0  0  0
    4.4380    1.8720    0.1470 C   0  0  0  0  0  0  0  0  0  0  0  0
    3.8710    0.5050    0.1440 C   0  0  0  0  0  0  0  0  0  0  0  0
    4.5480   -0.5550   -0.2150 C   0  0  0  0  0  0  0  0  0  0  0  0
    5.9320   -0.4400   -0.6210 C   0  0  0  0  0  0  0  0  0  0  0  0
    6.5770   -1.4920   -0.9720 O   0  0  0  0  0  0  0  0  0  0  0  0
    6.6650    0.7220   -0.6730 O   0  0  0  0  0  0  0  0  0  0  0  0
    8.0080    0.7810   -1.0750 C   0  0  0  0  0  0  0  0  0  0  0  0
   -4.6630   -0.8810    0.3750 C   0  0  0  0  0  0  0  0  0  0  0  0
   -4.5960   -1.0950    1.6570 C   0  0  0  0  0  0  0  0  0  0  0  0
   -4.9720   -0.1360    2.6920 C   0  0  0  0  0  0  0  0  0  0  0  0
  1  2  2  0
  2  3  1  0
  2 27  1  0
  3  4  1  0
  4  5  2  0
  4  6  1  0
  6  7  1  0
  7  8  1  6
  7 27  1  0
  8  9  2  0
  8 10  1  0
 10 11  1  0
 11 12  1  0
 11 13  2  3
 13 14  1  0
 14 15  2  3
 15 16  1  0
 15 21  1  0
 16 17  2  0
 16 18  1  0
 18 19  1  0
 19 20  1  0
 20 21  1  0
 21 22  2  3
 22 23  1  0
 23 24  2  0
 23 25  1  0
 25 26  1  0
 27 28  2  3
 28 29  1  0
M  END
