
     RDKit          3D

 30 32  0  0  0  0  0  0  0  0999 V2000
    1.7950    5.1010    1.8900 N   0  0  0  0  0  0  0  0  0  0  0  0
    2.0600    4.8320    0.2040 S   0  0  1  0  0  0  0  0  0  0  0  0
    0.9280    5.4900   -0.5310 O   0  0  0  0  0  0  0  0  0  0  0  0
    3.3810    5.4670   -0.1470 O   0  0  0  0  0  0  0  0  0  0  0  0
    2.1000    3.1020   -0.1390 C   0  0  0  0  0  0  0  0  0  0  0  0
    3.2990    2.4240   -0.0840 C   0  0  0  0  0  0  0  0  0  0  0  0
    4.4530    3.0920    0.2360 F   0  0  0  0  0  0  0  0  0  0  0  0
    3.2970    1.0770   -0.3560 C   0  0  0  0  0  0  0  0  0  0  0  0
    4.4900    0.4000   -0.3020 F   0  0  0  0  0  0  0  0  0  0  0  0
    2.1390    0.3640   -0.6850 C   0  0  0  0  0  0  0  0  0  0  0  0
    2.2880   -1.3220   -1.0310 S   0  0  2  0  0  0  0  0  0  0  0  0
    3.6350   -1.5430   -1.6760 O   0  0  0  0  0  0  0  0  0  0  0  0
    1.2240   -1.8030   -1.9760 O   0  0  0  0  0  0  0  0  0  0  0  0
    2.2520   -2.2740    0.4530 C   0  0  0  0  0  0  0  0  0  0  0  0
    2.3820   -3.7600    0.1440 C   0  0  0  0  0  0  0  0  0  0  0  0
    3.5810   -4.0320   -0.5140 O   0  0  0  0  0  0  0  0  0  0  0  0
    0.9420    1.0440   -0.7390 C   0  0  0  0  0  0  0  0  0  0  0  0
   -0.2720    0.4280   -1.0810 N   0  0  0  0  0  0  0  0  0  0  0  0
   -1.1310   -0.1870   -0.1300 C   0  0  1  0  0  0  0  0  0  0  0  0
   -1.5790    0.7900    0.9510 C   0  0  0  0  0  0  0  0  0  0  0  0
   -2.1390   -0.0670    2.0810 C   0  0  0  0  0  0  0  0  0  0  0  0
   -3.2780   -0.9020    1.6290 C   0  0  0  0  0  0  0  0  0  0  0  0
   -3.3690   -1.1400    0.1850 C   0  0  0  0  0  0  0  0  0  0  0  0
   -4.5520   -1.7340   -0.2770 C   0  0  0  0  0  0  0  0  0  0  0  0
   -4.7410   -2.0100   -1.6030 C   0  0  0  0  0  0  0  0  0  0  0  0
   -3.7360   -1.6880   -2.4800 C   0  0  0  0  0  0  0  0  0  0  0  0
   -2.5630   -1.0970   -2.0060 C   0  0  0  0  0  0  0  0  0  0  0  0
   -2.3490   -0.8100   -0.6850 C   0  0  0  0  0  0  0  0  0  0  0  0
    0.9410    2.4090   -0.4650 C   0  0  0  0  0  0  0  0  0  0  0  0
   -0.1860    3.1550   -0.5080 F   0  0  0  0  0  0  0  0  0  0  0  0
  2  1  1  1
  2  3  2  0
  2  4  2  0
  2  5  1  0
  5  6  2  0
  5 29  1  0
  6  7  1  0
  6  8  1  0
  8  9  1  0
  8 10  2  0
 10 11  1  0
 10 17  1  0
 11 12  2  0
 11 13  2  0
 11 14  1  1
 14 15  1  0
 15 16  1  0
 17 18  1  0
 17 29  2  0
 19 18  1  6
 19 20  1  0
 19 28  1  0
 20 21  1  0
 21 22  1  0
 22 23  1  0
 23 24  2  0
 23 28  1  0
 24 25  1  0
 25 26  2  0
 26 27  1  0
 27 28  2  0
 29 30  1  0
M  END
