
     RDKit          3D

 11 11  0  0  0  0  0  0  0  0999 V2000
    2.5720    0.7580   -0.0690 O   0  0  0  0  0  0  0  0  0  0  0  0
    1.6370    0.1250    0.7490 C   0  0  1  0  0  0  0  0  0  0  0  0
    0.9520    1.0930    1.5070 O   0  0  0  0  0  0  0  0  0  0  0  0
    0.6680   -0.6270   -0.1300 C   0  0  1  0  0  0  0  0  0  0  0  0
    1.4220   -1.5610   -0.8610 O   0  0  0  0  0  0  0  0  0  0  0  0
   -0.3550   -1.3920    0.6460 C   0  0  0  0  0  0  0  0  0  0  0  0
   -1.4870   -0.4240    0.8560 C   0  0  0  0  0  0  0  0  0  0  0  0
   -1.5610    0.2550   -0.5090 C   0  0  1  0  0  0  0  0  0  0  0  0
   -2.1490    1.4960   -0.4520 O   0  0  0  0  0  0  0  0  0  0  0  0
   -0.1370    0.2760   -1.0010 C   0  0  1  0  0  0  0  0  0  0  0  0
    0.3580    1.5660   -1.0890 O   0  0  0  0  0  0  0  0  0  0  0  0
  2  1  1  6
  2  3  1  0
  2  4  1  0
  4  5  1  6
  4  6  1  0
  4 10  1  0
  6  7  1  0
  7  8  1  0
  8  9  1  1
  8 10  1  0
 10 11  1  1
M  END
