
     RDKit          3D

 11 11  0  0  0  0  0  0  0  0999 V2000
   -2.6990    0.4160    0.9700 O   0  0  0  0  0  0  0  0  0  0  0  0
   -1.8450   -0.6730    0.7260 C   0  0  0  0  0  0  0  0  0  0  0  0
   -0.8050   -0.2040   -0.2490 C   0  0  2  0  0  0  0  0  0  0  0  0
   -1.4010    0.2080   -1.4180 O   0  0  0  0  0  0  0  0  0  0  0  0
    0.1980   -1.2900   -0.5490 C   0  0  0  0  0  0  0  0  0  0  0  0
    1.4720   -0.5800   -0.9880 C   0  0  0  0  0  0  0  0  0  0  0  0
    2.0640    0.0150    0.2910 C   0  0  1  0  0  0  0  0  0  0  0  0
    2.9860    0.9870   -0.0210 O   0  0  0  0  0  0  0  0  0  0  0  0
    1.0410    0.5330    1.0700 O   0  0  0  0  0  0  0  0  0  0  0  0
   -0.0360    0.9730    0.3310 C   0  0  2  0  0  0  0  0  0  0  0  0
   -0.8540    1.7500    1.1690 O   0  0  0  0  0  0  0  0  0  0  0  0
  1  2  1  0
  2  3  1  0
  3  4  1  6
  3  5  1  0
  3 10  1  0
  5  6  1  0
  6  7  1  0
  7  8  1  6
  7  9  1  0
  9 10  1  0
 10 11  1  1
M  END
