
     RDKit          3D

 12 12  0  0  0  0  0  0  0  0999 V2000
    3.5600   -0.2180    0.4740 O   0  0  0  0  0  0  0  0  0  0  0  0
    2.6010    0.5420    0.2110 C   0  0  0  0  0  0  0  0  0  0  0  0
    2.9010    1.8010   -0.2930 O   0  0  0  0  0  0  0  0  0  0  0  0
    1.1840    0.2070    0.3940 C   0  0  1  0  0  0  0  0  0  0  0  0
    0.4870    0.1090   -0.9550 C   0  0  0  0  0  0  0  0  0  0  0  0
   -0.8430   -0.4500   -0.4800 C   0  0  2  0  0  0  0  0  0  0  0  0
   -1.4030   -1.3150   -1.4090 O   0  0  0  0  0  0  0  0  0  0  0  0
   -1.7530    0.7520   -0.2710 C   0  0  0  0  0  0  0  0  0  0  0  0
   -3.0060    0.3880    0.1950 O   0  0  0  0  0  0  0  0  0  0  0  0
   -0.4660   -1.1190    0.8080 C   0  0  2  0  0  0  0  0  0  0  0  0
   -0.9590   -0.4660    1.9310 O   0  0  0  0  0  0  0  0  0  0  0  0
    0.9450   -1.0450    0.8930 O   0  0  0  0  0  0  0  0  0  0  0  0
  1  2  2  0
  2  3  1  0
  4  2  1  6
  4  5  1  0
  4 12  1  0
  5  6  1  0
  6  7  1  6
  6  8  1  0
  6 10  1  0
  8  9  1  0
 10 11  1  1
 10 12  1  0
M  END
