
     RDKit          3D

 11 11  0  0  0  0  0  0  0  0999 V2000
    2.7450   -0.8550    0.3400 O   0  0  0  0  0  0  0  0  0  0  0  0
    2.0760    0.3670    0.4840 C   0  0  0  0  0  0  0  0  0  0  0  0
    0.7070    0.1870   -0.1340 C   0  0  1  0  0  0  0  0  0  0  0  0
    0.8210   -0.1440   -1.4660 O   0  0  0  0  0  0  0  0  0  0  0  0
   -0.0460   -0.9340    0.5530 C   0  0  0  0  0  0  0  0  0  0  0  0
   -1.2150   -1.2630   -0.3780 C   0  0  1  0  0  0  0  0  0  0  0  0
   -2.1380   -2.0840    0.2300 O   0  0  0  0  0  0  0  0  0  0  0  0
   -1.8050    0.0530   -0.8380 C   0  0  0  0  0  0  0  0  0  0  0  0
   -1.4920    1.0660    0.0550 O   0  0  0  0  0  0  0  0  0  0  0  0
   -0.1410    1.4290   -0.0160 C   0  0  1  0  0  0  0  0  0  0  0  0
    0.1890    2.1980    1.0770 O   0  0  0  0  0  0  0  0  0  0  0  0
  1  2  1  0
  2  3  1  0
  3  4  1  6
  3  5  1  0
  3 10  1  0
  5  6  1  0
  6  7  1  1
  6  8  1  0
  8  9  1  0
  9 10  1  0
 10 11  1  1
M  END
