
     RDKit          3D

 11 11  0  0  0  0  0  0  0  0999 V2000
   -3.0210   -0.9780    0.4470 O   0  0  0  0  0  0  0  0  0  0  0  0
   -2.3580    0.1820    0.1380 C   0  0  0  0  0  0  0  0  0  0  0  0
   -0.9250   -0.0360   -0.2600 C   0  0  2  0  0  0  0  0  0  0  0  0
   -0.1010   -0.6850    0.8120 C   0  0  0  0  0  0  0  0  0  0  0  0
    1.2490   -0.9860    0.1480 C   0  0  2  0  0  0  0  0  0  0  0  0
    2.0640   -1.7280    0.9540 O   0  0  0  0  0  0  0  0  0  0  0  0
    1.8430    0.3470   -0.2410 C   0  0  1  0  0  0  0  0  0  0  0  0
    3.0590    0.1140   -0.9110 O   0  0  0  0  0  0  0  0  0  0  0  0
    1.0230    1.0180   -1.1080 O   0  0  0  0  0  0  0  0  0  0  0  0
   -0.2450    1.2560   -0.6420 C   0  0  2  0  0  0  0  0  0  0  0  0
   -0.3000    2.1860    0.3920 O   0  0  0  0  0  0  0  0  0  0  0  0
  1  2  1  0
  3  2  1  1
  3  4  1  0
  3 10  1  0
  4  5  1  0
  5  6  1  1
  5  7  1  0
  7  8  1  6
  7  9  1  0
  9 10  1  0
 10 11  1  1
M  END
