
     RDKit          3D

 12 12  0  0  0  0  0  0  0  0999 V2000
   -3.3370    0.6920   -0.3580 O   0  0  0  0  0  0  0  0  0  0  0  0
   -1.9450    0.6700   -0.4560 C   0  0  0  0  0  0  0  0  0  0  0  0
   -1.4140   -0.3680    0.4630 C   0  0  1  0  0  0  0  0  0  0  0  0
   -1.9440   -1.6090    0.0890 O   0  0  0  0  0  0  0  0  0  0  0  0
    0.0550   -0.4690    0.5950 C   0  0  1  0  0  0  0  0  0  0  0  0
    0.3060   -1.4430    1.5930 O   0  0  0  0  0  0  0  0  0  0  0  0
    0.8380   -0.8650   -0.5810 C   0  0  0  0  0  0  0  0  0  0  0  0
    2.0100    0.1260   -0.5570 C   0  0  2  0  0  0  0  0  0  0  0  0
    3.0450   -0.3540    0.2230 O   0  0  0  0  0  0  0  0  0  0  0  0
    1.3640    1.2930    0.1600 C   0  0  2  0  0  0  0  0  0  0  0  0
    2.3310    2.0850    0.8110 O   0  0  0  0  0  0  0  0  0  0  0  0
    0.5810    0.7120    1.1180 O   0  0  0  0  0  0  0  0  0  0  0  0
  1  2  1  0
  2  3  1  0
  3  4  1  6
  3  5  1  0
  5  6  1  1
  5  7  1  0
  5 12  1  0
  7  8  1  0
  8  9  1  1
  8 10  1  0
 10 11  1  1
 10 12  1  0
M  END
