
     RDKit          3D

 12 12  0  0  0  0  0  0  0  0999 V2000
    3.5300    0.8840    0.4680 O   0  0  0  0  0  0  0  0  0  0  0  0
    2.7870   -0.0560   -0.2070 C   0  0  0  0  0  0  0  0  0  0  0  0
    1.5720   -0.4280    0.6350 C   0  0  1  0  0  0  0  0  0  0  0  0
    0.8240    0.7290    0.8400 O   0  0  0  0  0  0  0  0  0  0  0  0
    0.0290    1.0290   -0.2640 C   0  0  0  0  0  0  0  0  0  0  0  0
   -1.0250   -0.0650   -0.3620 C   0  0  2  0  0  0  0  0  0  0  0  0
   -1.2090   -0.4760   -1.6790 O   0  0  0  0  0  0  0  0  0  0  0  0
   -2.3210    0.4770    0.1430 C   0  0  0  0  0  0  0  0  0  0  0  0
   -2.6790    1.5540   -0.6700 O   0  0  0  0  0  0  0  0  0  0  0  0
   -0.5150   -1.2370    0.4320 C   0  0  1  0  0  0  0  0  0  0  0  0
   -1.2640   -2.3870    0.2410 O   0  0  0  0  0  0  0  0  0  0  0  0
    0.8250   -1.4340    0.0240 O   0  0  0  0  0  0  0  0  0  0  0  0
  1  2  1  0
  3  2  1  6
  3  4  1  0
  3 12  1  0
  4  5  1  0
  5  6  1  0
  6  7  1  6
  6  8  1  0
  6 10  1  0
  8  9  1  0
 10 11  1  6
 10 12  1  0
M  END
