
     RDKit          3D

 25 25  0  0  0  0  0  0  0  0999 V2000
   -3.5290    0.7620   -1.9330 C   0  0  0  0  0  0  0  0  0  0  0  0
   -3.1080    0.9150   -0.6570 O   0  0  0  0  0  0  0  0  0  0  0  0
   -3.0600   -0.1600    0.1700 C   0  0  2  0  0  0  0  0  0  0  0  0
   -4.4500   -0.8110    0.3190 C   0  0  0  0  0  0  0  0  0  0  0  0
   -5.3600    0.0780    0.8400 O   0  0  0  0  0  0  0  0  0  0  0  0
   -2.7700    0.3460    1.5540 C   0  0  0  0  0  0  0  0  0  0  0  0
   -2.6220    1.5710    1.7570 O   0  0  0  0  0  0  0  0  0  0  0  0
   -2.6510   -0.4830    2.6570 O   0  0  0  0  0  0  0  0  0  0  0  0
   -2.1050   -1.2030   -0.2630 C   0  0  1  0  0  0  0  0  0  0  0  0
   -2.3740   -1.7460   -1.5110 O   0  0  0  0  0  0  0  0  0  0  0  0
   -0.6580   -0.8340   -0.1520 C   0  0  1  0  0  0  0  0  0  0  0  0
   -0.2070    0.1600   -1.2010 C   0  0  0  0  0  0  0  0  0  0  0  0
    1.1420    0.3890   -1.1710 O   0  0  0  0  0  0  0  0  0  0  0  0
    1.5340    1.6850   -1.3280 C   0  0  1  0  0  0  0  0  0  0  0  0
    0.4920    2.6570   -1.1530 N   0  0  0  0  0  0  0  0  0  0  0  0
    2.6950    2.0770   -0.4300 C   0  0  2  0  0  0  0  0  0  0  0  0
    3.0690    3.3940   -0.6940 O   0  0  0  0  0  0  0  0  0  0  0  0
    3.8710    1.1320   -0.5930 C   0  0  0  0  0  0  0  0  0  0  0  0
    3.3910   -0.1670   -0.4430 O   0  0  0  0  0  0  0  0  0  0  0  0
    4.0530   -0.8230    0.6170 C   0  0  0  0  0  0  0  0  0  0  0  0
    3.4120   -2.1830    0.7950 C   0  0  0  0  0  0  0  0  0  0  0  0
    2.1060   -2.1050    0.3950 O   0  0  0  0  0  0  0  0  0  0  0  0
    1.1890   -2.0750    1.4390 C   0  0  0  0  0  0  0  0  0  0  0  0
    0.6690   -0.7210    1.7560 C   0  0  0  0  0  0  0  0  0  0  0  0
   -0.4210   -0.3060    1.0750 O   0  0  0  0  0  0  0  0  0  0  0  0
  1  2  1  0
  2  3  1  0
  3  4  1  1
  3  6  1  0
  3  9  1  0
  4  5  1  0
  6  7  2  0
  6  8  1  0
  9 10  1  6
  9 11  1  0
 11 12  1  6
 11 25  1  0
 12 13  1  0
 13 14  1  0
 14 15  1  1
 14 16  1  0
 16 17  1  6
 16 18  1  0
 18 19  1  0
 19 20  1  0
 20 21  1  0
 21 22  1  0
 22 23  1  0
 23 24  1  0
 24 25  1  0
M  END
