
     RDKit          3D

 25 25  0  0  0  0  0  0  0  0999 V2000
   -4.9210    0.3030   -2.0800 N   0  0  0  0  0  0  0  0  0  0  0  0
   -3.9010    0.1980   -1.0360 C   0  0  0  0  0  0  0  0  0  0  0  0
   -3.4760   -1.0020   -0.8360 C   0  0  0  0  0  0  0  0  0  0  0  0
   -4.0430   -2.1160   -1.6530 C   0  0  0  0  0  0  0  0  0  0  0  0
   -4.9220   -1.9360   -2.5340 O   0  0  0  0  0  0  0  0  0  0  0  0
   -3.6490   -3.4290   -1.5080 O   0  0  0  0  0  0  0  0  0  0  0  0
   -2.4460   -1.4620    0.1410 C   0  0  0  0  0  0  0  0  0  0  0  0
   -1.2210   -0.8880   -0.0120 O   0  0  0  0  0  0  0  0  0  0  0  0
   -0.5030   -1.1110    1.1480 C   0  0  0  0  0  0  0  0  0  0  0  0
    0.7840   -0.3290    1.2090 C   0  0  1  0  0  0  0  0  0  0  0  0
    1.9100   -1.1030    0.5320 C   0  0  2  0  0  0  0  0  0  0  0  0
    1.8850   -2.3920    1.1100 O   0  0  0  0  0  0  0  0  0  0  0  0
    3.1140   -0.4960    0.7900 O   0  0  0  0  0  0  0  0  0  0  0  0
    3.8430   -0.2060   -0.3540 C   0  0  0  0  0  0  0  0  0  0  0  0
    5.1440    0.4590    0.0800 C   0  0  1  0  0  0  0  0  0  0  0  0
    5.8880   -0.3780    0.9040 O   0  0  0  0  0  0  0  0  0  0  0  0
    5.9710    0.8590   -1.1300 C   0  0  0  0  0  0  0  0  0  0  0  0
    7.1000    1.5220   -0.6640 O   0  0  0  0  0  0  0  0  0  0  0  0
    0.6800    0.9560    0.7480 O   0  0  0  0  0  0  0  0  0  0  0  0
    0.4230    1.1140   -0.5860 C   0  0  0  0  0  0  0  0  0  0  0  0
   -0.8850    1.8890   -0.8230 C   0  0  0  0  0  0  0  0  0  0  0  0
   -1.4210    2.1380    0.3820 O   0  0  0  0  0  0  0  0  0  0  0  0
   -2.7000    1.6830    0.6570 C   0  0  0  0  0  0  0  0  0  0  0  0
   -3.6050    1.4970   -0.4620 C   0  0  2  0  0  0  0  0  0  0  0  0
   -4.8620    2.0990   -0.1370 O   0  0  0  0  0  0  0  0  0  0  0  0
  1  2  1  0
  2  3  2  0
  2 24  1  0
  3  4  1  0
  3  7  1  0
  4  5  2  0
  4  6  1  0
  7  8  1  0
  8  9  1  0
 10  9  1  6
 10 11  1  0
 10 19  1  0
 11 12  1  1
 11 13  1  0
 13 14  1  0
 14 15  1  0
 15 16  1  1
 15 17  1  0
 17 18  1  0
 19 20  1  0
 20 21  1  0
 21 22  1  0
 22 23  1  0
 23 24  1  0
 24 25  1  1
M  END
