
     RDKit          3D

 26 27  0  0  0  0  0  0  0  0999 V2000
    0.3420   -0.3700   -2.1370 O   0  0  0  0  0  0  0  0  0  0  0  0
   -0.1080   -0.6450   -0.9580 C   0  0  0  0  0  0  0  0  0  0  0  0
    0.8200   -1.1360   -0.0400 N   0  0  0  0  0  0  0  0  0  0  0  0
    1.2260   -2.4590    0.3630 C   0  0  1  0  0  0  0  0  0  0  0  0
    1.1120   -2.5610    1.7730 O   0  0  0  0  0  0  0  0  0  0  0  0
    0.5680   -3.5120   -0.1850 O   0  0  0  0  0  0  0  0  0  0  0  0
    2.6330   -2.5140    0.1240 O   0  0  0  0  0  0  0  0  0  0  0  0
    3.2880   -1.5370    0.8590 C   0  0  0  0  0  0  0  0  0  0  0  0
    3.7820   -0.3640    0.0380 C   0  0  2  0  0  0  0  0  0  0  0  0
    5.1400   -0.6540   -0.2780 O   0  0  0  0  0  0  0  0  0  0  0  0
    3.8430    0.9340    0.7990 C   0  0  0  0  0  0  0  0  0  0  0  0
    3.6540    2.0770    0.0630 O   0  0  0  0  0  0  0  0  0  0  0  0
    2.4460    2.2250   -0.5270 C   0  0  0  0  0  0  0  0  0  0  0  0
    1.3300    2.7930    0.2860 C   0  0  0  0  0  0  0  0  0  0  0  0
    0.2570    1.9690    0.5130 O   0  0  0  0  0  0  0  0  0  0  0  0
   -0.7570    2.0040   -0.4360 C   0  0  0  0  0  0  0  0  0  0  0  0
   -1.7940    0.9830   -0.1510 C   0  0  1  0  0  0  0  0  0  0  0  0
   -1.7170    0.7240    1.2430 O   0  0  0  0  0  0  0  0  0  0  0  0
   -3.2100    1.3490   -0.4250 C   0  0  0  0  0  0  0  0  0  0  0  0
   -4.0390    0.3760    0.4280 C   0  0  1  0  0  0  0  0  0  0  0  0
   -5.3720    0.7000    0.4090 O   0  0  0  0  0  0  0  0  0  0  0  0
   -3.7750   -1.0030   -0.0830 C   0  0  1  0  0  0  0  0  0  0  0  0
   -4.1190   -1.1530   -1.4210 O   0  0  0  0  0  0  0  0  0  0  0  0
   -2.2990   -1.3690    0.0410 C   0  0  0  0  0  0  0  0  0  0  0  0
   -1.5510   -0.3770   -0.7950 C   0  0  2  0  0  0  0  0  0  0  0  0
   -2.1800   -0.3580   -2.0310 O   0  0  0  0  0  0  0  0  0  0  0  0
  1  2  2  0
  2  3  1  0
  2 25  1  0
  3  4  1  0
  4  5  1  1
  4  6  1  0
  4  7  1  0
  7  8  1  0
  8  9  1  0
  9 10  1  1
  9 11  1  0
 11 12  1  0
 12 13  1  0
 13 14  1  0
 14 15  1  0
 15 16  1  0
 16 17  1  0
 17 18  1  1
 17 19  1  0
 17 25  1  0
 19 20  1  0
 20 21  1  6
 20 22  1  0
 22 23  1  6
 22 24  1  0
 24 25  1  0
 25 26  1  6
M  END
