
     RDKit          3D

 25 25  0  0  0  0  0  0  0  0999 V2000
   -2.4790   -1.2570    1.3530 C   0  0  0  0  0  0  0  0  0  0  0  0
   -2.9090   -0.4780    0.1280 C   0  0  1  0  0  0  0  0  0  0  0  0
   -4.1170    0.4010    0.4820 C   0  0  0  0  0  0  0  0  0  0  0  0
   -4.5870    0.9940   -0.6660 O   0  0  0  0  0  0  0  0  0  0  0  0
   -1.8800    0.2580   -0.4400 O   0  0  0  0  0  0  0  0  0  0  0  0
   -1.1520    1.2500    0.1560 C   0  0  0  0  0  0  0  0  0  0  0  0
   -1.4170    1.5510    1.3410 O   0  0  0  0  0  0  0  0  0  0  0  0
   -0.0900    1.9000   -0.6630 C   0  0  2  0  0  0  0  0  0  0  0  0
    0.5800    2.8840    0.0410 O   0  0  0  0  0  0  0  0  0  0  0  0
   -0.8820    2.6890   -1.7300 C   0  0  0  0  0  0  0  0  0  0  0  0
   -1.7270    3.5470   -1.0720 O   0  0  0  0  0  0  0  0  0  0  0  0
    0.7490    0.9170   -1.3570 C   0  0  0  0  0  0  0  0  0  0  0  0
    1.5250   -0.0840   -0.6650 C   0  0  2  0  0  0  0  0  0  0  0  0
    0.8070   -0.9770    0.1410 O   0  0  0  0  0  0  0  0  0  0  0  0
    1.7950   -1.9270    0.4970 C   0  0  0  0  0  0  0  0  0  0  0  0
    3.1030   -1.1720    0.5510 C   0  0  1  0  0  0  0  0  0  0  0  0
    3.6480   -1.1600    1.8280 O   0  0  0  0  0  0  0  0  0  0  0  0
    4.0790   -1.7110   -0.4680 C   0  0  0  0  0  0  0  0  0  0  0  0
    4.4500   -3.0110   -0.1570 O   0  0  0  0  0  0  0  0  0  0  0  0
    2.6460    0.2390    0.2240 C   0  0  2  0  0  0  0  0  0  0  0  0
    2.2730    0.8760    1.5360 C   0  0  0  0  0  0  0  0  0  0  0  0
    3.7270    0.8570   -0.3860 O   0  0  0  0  0  0  0  0  0  0  0  0
   -3.3970   -1.4620   -0.8630 C   0  0  0  0  0  0  0  0  0  0  0  0
   -4.4500   -2.3760   -0.6000 N   0  0  0  0  0  0  0  0  0  0  0  0
   -2.8640   -1.5030   -1.9960 O   0  0  0  0  0  0  0  0  0  0  0  0
  2  1  1  1
  2  3  1  0
  2  5  1  0
  2 23  1  0
  3  4  1  0
  5  6  1  0
  6  7  2  0
  6  8  1  0
  8  9  1  1
  8 10  1  0
  8 12  1  0
 10 11  1  0
 13 12  1  1
 13 14  1  0
 13 20  1  0
 14 15  1  0
 15 16  1  0
 16 17  1  1
 16 18  1  0
 16 20  1  0
 18 19  1  0
 20 21  1  1
 20 22  1  0
 23 24  1  0
 23 25  2  0
M  END
