
     RDKit          3D

 25 26  0  0  0  0  0  0  0  0999 V2000
    6.6130   -0.3730   -0.4860 O   0  0  0  0  0  0  0  0  0  0  0  0
    6.3800    0.3610    0.5050 C   0  0  0  0  0  0  0  0  0  0  0  0
    7.3990    0.9450    1.2630 O   0  0  0  0  0  0  0  0  0  0  0  0
    5.0340    0.5930    0.8510 N   0  0  0  0  0  0  0  0  0  0  0  0
    3.9230    0.0450    0.1440 C   0  0  0  0  0  0  0  0  0  0  0  0
    4.1960   -0.6860   -0.8440 O   0  0  0  0  0  0  0  0  0  0  0  0
    2.5170    0.3160    0.5440 C   0  0  0  0  0  0  0  0  0  0  0  0
    1.6830   -0.3430   -0.3190 O   0  0  0  0  0  0  0  0  0  0  0  0
    0.3530   -0.1950   -0.0880 C   0  0  2  0  0  0  0  0  0  0  0  0
   -0.3780   -1.5030    0.1720 C   0  0  1  0  0  0  0  0  0  0  0  0
    0.4550   -2.4620    0.9820 C   0  0  0  0  0  0  0  0  0  0  0  0
    1.6370   -2.7990    0.3740 O   0  0  0  0  0  0  0  0  0  0  0  0
   -1.6510   -1.1160    0.8510 C   0  0  1  0  0  0  0  0  0  0  0  0
   -1.2990   -0.2820    1.9380 O   0  0  0  0  0  0  0  0  0  0  0  0
   -2.5130   -0.2930   -0.0520 C   0  0  1  0  0  0  0  0  0  0  0  0
   -3.3680   -1.1460   -0.9720 C   0  0  0  0  0  0  0  0  0  0  0  0
   -2.6410   -1.9650   -1.8000 O   0  0  0  0  0  0  0  0  0  0  0  0
   -3.5160    0.4320    0.8630 C   0  0  0  0  0  0  0  0  0  0  0  0
   -4.2790   -0.5160    1.5680 O   0  0  0  0  0  0  0  0  0  0  0  0
   -1.8110    0.7550   -0.8300 C   0  0  1  0  0  0  0  0  0  0  0  0
   -1.8630    2.0150   -0.1890 O   0  0  0  0  0  0  0  0  0  0  0  0
   -1.7150    2.9770   -1.1860 C   0  0  0  0  0  0  0  0  0  0  0  0
   -0.6070    2.5800   -2.1300 C   0  0  0  0  0  0  0  0  0  0  0  0
    0.2350    1.7030   -1.4460 O   0  0  0  0  0  0  0  0  0  0  0  0
   -0.4070    0.4830   -1.2050 C   0  0  1  0  0  0  0  0  0  0  0  0
  1  2  2  0
  2  3  1  0
  2  4  1  0
  4  5  1  0
  5  6  2  0
  5  7  1  0
  7  8  1  0
  9  8  1  6
  9 10  1  0
  9 25  1  0
 10 11  1  1
 10 13  1  0
 11 12  1  0
 13 14  1  1
 13 15  1  0
 15 16  1  6
 15 18  1  0
 15 20  1  0
 16 17  1  0
 18 19  1  0
 20 21  1  1
 20 25  1  0
 21 22  1  0
 22 23  1  0
 23 24  1  0
 25 24  1  1
M  END
