
     RDKit          3D

 26 27  0  0  0  0  0  0  0  0999 V2000
   -3.1120    2.0980   -4.0410 C   0  0  0  0  0  0  0  0  0  0  0  0
   -2.2820    2.0500   -2.8260 C   0  0  0  0  0  0  0  0  0  0  0  0
   -1.4400    2.9540   -2.6230 O   0  0  0  0  0  0  0  0  0  0  0  0
   -2.3660    1.0360   -1.8440 N   0  0  0  0  0  0  0  0  0  0  0  0
   -1.5740    0.9680   -0.6580 C   0  0  1  0  0  0  0  0  0  0  0  0
   -2.3720    0.9480    0.6200 C   0  0  1  0  0  0  0  0  0  0  0  0
   -2.7120    2.2080    1.0730 O   0  0  0  0  0  0  0  0  0  0  0  0
   -3.4360    0.1210    0.3770 O   0  0  0  0  0  0  0  0  0  0  0  0
   -3.0110   -1.1760    0.3320 C   0  0  2  0  0  0  0  0  0  0  0  0
   -3.4250   -1.8140    1.6680 C   0  0  0  0  0  0  0  0  0  0  0  0
   -4.8060   -1.7590    1.8310 O   0  0  0  0  0  0  0  0  0  0  0  0
   -1.5870   -1.4260    0.0950 C   0  0  2  0  0  0  0  0  0  0  0  0
   -0.9220   -1.7000    1.3030 O   0  0  0  0  0  0  0  0  0  0  0  0
   -0.8120   -0.3750   -0.6360 C   0  0  2  0  0  0  0  0  0  0  0  0
    0.3580   -0.0810   -0.0190 O   0  0  0  0  0  0  0  0  0  0  0  0
    1.5220   -0.1400   -0.7100 C   0  0  2  0  0  0  0  0  0  0  0  0
    2.2090   -1.2360   -0.1970 O   0  0  0  0  0  0  0  0  0  0  0  0
    3.5170   -1.0280    0.1120 C   0  0  2  0  0  0  0  0  0  0  0  0
    3.9970   -2.2640    0.8800 C   0  0  0  0  0  0  0  0  0  0  0  0
    5.3200   -2.1340    1.2340 O   0  0  0  0  0  0  0  0  0  0  0  0
    3.5930    0.1230    1.0990 C   0  0  2  0  0  0  0  0  0  0  0  0
    2.6380   -0.0650    2.0790 O   0  0  0  0  0  0  0  0  0  0  0  0
    3.2560    1.3710    0.3150 C   0  0  2  0  0  0  0  0  0  0  0  0
    2.7580    2.3040    1.2240 O   0  0  0  0  0  0  0  0  0  0  0  0
    2.3220    1.0990   -0.8270 C   0  0  1  0  0  0  0  0  0  0  0  0
    3.0930    1.0490   -1.9890 O   0  0  0  0  0  0  0  0  0  0  0  0
  1  2  1  0
  2  3  2  0
  2  4  1  0
  5  4  1  6
  5  6  1  0
  5 14  1  0
  6  7  1  6
  6  8  1  0
  8  9  1  0
  9 10  1  1
  9 12  1  0
 10 11  1  0
 12 13  1  1
 12 14  1  0
 14 15  1  1
 16 15  1  1
 16 17  1  0
 16 25  1  0
 17 18  1  0
 18 19  1  1
 18 21  1  0
 19 20  1  0
 21 22  1  1
 21 23  1  0
 23 24  1  1
 23 25  1  0
 25 26  1  6
M  END
