
     RDKit          3D

 34 38  0  0  0  0  0  0  0  0999 V2000
    3.3490    0.4090    0.1940 O   0  0  0  0  0  0  0  0  0  0  0  0
    3.9770   -0.2900   -0.5940 C   0  0  0  0  0  0  0  0  0  0  0  0
    3.2160   -1.3430   -1.2150 N   0  0  0  0  0  0  0  0  0  0  0  0
    1.7970   -1.4680   -0.8480 C   0  0  0  0  0  0  0  0  0  0  0  0
    0.9600   -0.9910   -0.1830 N   0  0  0  0  0  0  0  0  0  0  0  0
   -0.2650   -1.3800   -0.0880 N   0  0  0  0  0  0  0  0  0  0  0  0
   -0.7050   -2.3520   -0.7260 C   0  0  0  0  0  0  0  0  0  0  0  0
   -1.9750   -3.0870   -0.8980 C   0  0  0  0  0  0  0  0  0  0  0  0
   -3.0540   -2.3780   -0.1720 N   0  0  0  0  0  0  0  0  0  0  0  0
   -3.3980   -1.0810   -0.5610 N   0  0  0  0  0  0  0  0  0  0  0  0
   -2.7390   -0.5050   -1.6340 C   0  0  0  0  0  0  0  0  0  0  0  0
   -3.2680    0.7320   -1.7860 C   0  0  0  0  0  0  0  0  0  0  0  0
   -4.2430    0.9370   -0.8290 C   0  0  0  0  0  0  0  0  0  0  0  0
   -4.2990   -0.2340   -0.0670 C   0  0  0  0  0  0  0  0  0  0  0  0
   -5.2320   -0.4290    1.0780 C   0  0  0  0  0  0  0  0  0  0  0  0
   -5.3480   -1.5300    1.8790 C   0  0  0  0  0  0  0  0  0  0  0  0
   -6.3570   -1.2850    2.8250 C   0  0  0  0  0  0  0  0  0  0  0  0
   -6.8140   -0.0470    2.5630 C   0  0  0  0  0  0  0  0  0  0  0  0
   -6.1320    0.4860    1.4960 N   0  0  0  0  0  0  0  0  0  0  0  0
   -6.4070    1.7860    0.9940 C   0  0  0  0  0  0  0  0  0  0  0  0
   -5.9760    2.8800    1.6240 C   0  0  0  0  0  0  0  0  0  0  0  0
   -5.2590    2.8030    2.7690 F   0  0  0  0  0  0  0  0  0  0  0  0
   -6.3680    4.5910    0.9140 Br  0  0  0  0  0  0  0  0  0  0  0  0
    0.8370   -2.8550   -1.6490 S   0  0  0  0  0  0  0  0  0  0  0  0
    5.3740   -0.1610   -0.9520 C   0  0  0  0  0  0  0  0  0  0  0  0
    6.0540   -0.9230   -1.8420 N   0  0  0  0  0  0  0  0  0  0  0  0
    7.2830   -0.5300   -1.9080 O   0  0  0  0  0  0  0  0  0  0  0  0
    7.5050    0.4900   -1.0940 C   0  0  0  0  0  0  0  0  0  0  0  0
    6.2970    0.7420   -0.4720 C   0  0  0  0  0  0  0  0  0  0  0  0
    6.1660    1.8150    0.5090 C   0  0  0  0  0  0  0  0  0  0  0  0
    5.0740    2.0190    1.0500 O   0  0  0  0  0  0  0  0  0  0  0  0
    7.3610    2.6040    0.8010 C   0  0  0  0  0  0  0  0  0  0  0  0
    8.4870    2.3420    0.1970 C   0  0  0  0  0  0  0  0  0  0  0  0
    8.7150    1.2940   -0.7960 C   0  0  0  0  0  0  0  0  0  0  0  0
  1  2  2  0
  2  3  1  0
  2 25  1  0
  3  4  1  0
  4  5  2  0
  4 24  1  0
  5  6  1  0
  6  7  2  0
  7  8  1  0
  7 24  1  0
  8  9  1  0
  9 10  1  0
 10 11  1  0
 10 14  1  0
 11 12  2  0
 12 13  1  0
 13 14  2  0
 14 15  1  0
 15 16  2  0
 15 19  1  0
 16 17  1  0
 17 18  2  0
 18 19  1  0
 19 20  1  0
 20 21  2  3
 21 22  1  0
 21 23  1  0
 25 26  2  0
 25 29  1  0
 26 27  1  0
 27 28  1  0
 28 29  2  0
 28 34  1  0
 29 30  1  0
 30 31  2  0
 30 32  1  0
 32 33  2  0
 33 34  1  0
M  END
