
     RDKit          3D

 35 39  0  0  0  0  0  0  0  0999 V2000
   -4.0070    3.1920   -2.7180 O   0  0  0  0  0  0  0  0  0  0  0  0
   -3.1380    2.7230   -1.9180 C   0  0  0  0  0  0  0  0  0  0  0  0
   -2.1770    3.4500   -1.3050 N   0  0  0  0  0  0  0  0  0  0  0  0
   -1.4280    2.6490   -0.5280 C   0  0  0  0  0  0  0  0  0  0  0  0
   -0.3560    2.8500    0.2890 C   0  0  0  0  0  0  0  0  0  0  0  0
    0.2460    1.8050    1.0010 C   0  0  0  0  0  0  0  0  0  0  0  0
   -0.2440    0.5230    0.8880 C   0  0  0  0  0  0  0  0  0  0  0  0
    0.3580   -0.5470    1.6070 N   0  0  0  0  0  0  0  0  0  0  0  0
    2.0520   -0.7280    1.6590 S   0  0  1  0  0  0  0  0  0  0  0  0
    2.7310    0.4690    2.2550 O   0  0  0  0  0  0  0  0  0  0  0  0
    2.4160   -1.9450    2.4740 O   0  0  0  0  0  0  0  0  0  0  0  0
    2.6780   -0.9820    0.0120 C   0  0  0  0  0  0  0  0  0  0  0  0
    4.1480   -1.1430    0.0250 C   0  0  0  0  0  0  0  0  0  0  0  0
    4.7060   -2.3940    0.1630 C   0  0  0  0  0  0  0  0  0  0  0  0
    6.0730   -2.5620    0.1760 C   0  0  0  0  0  0  0  0  0  0  0  0
    6.9280   -1.4640    0.0500 C   0  0  0  0  0  0  0  0  0  0  0  0
    8.2690   -1.3510    0.0330 N   0  0  0  0  0  0  0  0  0  0  0  0
    8.5640   -0.0550   -0.1140 C   0  0  0  0  0  0  0  0  0  0  0  0
    7.3850    0.6270   -0.1850 C   0  0  0  0  0  0  0  0  0  0  0  0
    6.3800   -0.2480   -0.0840 N   0  0  0  0  0  0  0  0  0  0  0  0
    5.0200   -0.0860   -0.0970 C   0  0  0  0  0  0  0  0  0  0  0  0
   -1.3380    0.3210    0.0540 C   0  0  0  0  0  0  0  0  0  0  0  0
   -1.9190    1.3680   -0.6410 C   0  0  0  0  0  0  0  0  0  0  0  0
   -2.9660    1.4570   -1.5010 N   0  0  0  0  0  0  0  0  0  0  0  0
   -3.7550    0.3120   -1.8930 C   0  0  0  0  0  0  0  0  0  0  0  0
   -4.9070    0.0460   -1.0000 C   0  0  0  0  0  0  0  0  0  0  0  0
   -5.0220   -1.1170   -0.3380 C   0  0  0  0  0  0  0  0  0  0  0  0
   -6.1490   -1.3930    0.5430 C   0  0  0  0  0  0  0  0  0  0  0  0
   -6.2650   -2.5430    1.1990 C   0  0  0  0  0  0  0  0  0  0  0  0
   -7.3200   -2.7810    2.0130 F   0  0  0  0  0  0  0  0  0  0  0  0
   -4.8830   -3.8590    0.9530 Br  0  0  0  0  0  0  0  0  0  0  0  0
   -7.1540   -0.3990    0.7040 N   0  0  0  0  0  0  0  0  0  0  0  0
   -8.2300   -0.6050    1.5150 F   0  0  0  0  0  0  0  0  0  0  0  0
   -6.9900    0.7940   -0.0060 N   0  0  0  0  0  0  0  0  0  0  0  0
   -5.9720    1.0180   -0.7890 C   0  0  0  0  0  0  0  0  0  0  0  0
  1  2  2  0
  2  3  1  0
  2 24  1  0
  3  4  1  0
  4  5  2  0
  4 23  1  0
  5  6  1  0
  6  7  2  0
  7  8  1  0
  7 22  1  0
  8  9  1  0
  9 10  2  0
  9 11  2  0
  9 12  1  6
 12 13  1  0
 13 14  1  0
 13 21  2  0
 14 15  2  0
 15 16  1  0
 16 17  2  0
 16 20  1  0
 17 18  1  0
 18 19  2  0
 19 20  1  0
 20 21  1  0
 22 23  2  0
 23 24  1  0
 24 25  1  0
 25 26  1  0
 26 27  2  0
 26 35  1  0
 27 28  1  0
 28 29  2  3
 28 32  1  0
 29 30  1  0
 29 31  1  0
 32 33  1  0
 32 34  1  0
 34 35  2  0
M  END
