
     RDKit          3D

 35 39  0  0  0  0  0  0  0  0999 V2000
    0.8110    4.1550   -0.0490 C   0  0  0  0  0  0  0  0  0  0  0  0
    0.1150    2.9900    0.3340 O   0  0  0  0  0  0  0  0  0  0  0  0
    0.8100    1.7850    0.4670 C   0  0  0  0  0  0  0  0  0  0  0  0
    2.1080    1.5420    0.2830 N   0  0  0  0  0  0  0  0  0  0  0  0
    2.3860    0.2480    0.5070 N   0  0  0  0  0  0  0  0  0  0  0  0
    3.7070   -0.2710    0.3590 C   0  0  0  0  0  0  0  0  0  0  0  0
    4.0580   -1.5520    0.6650 C   0  0  0  0  0  0  0  0  0  0  0  0
    5.3610   -1.9920    0.4800 C   0  0  0  0  0  0  0  0  0  0  0  0
    5.7550   -3.7970    0.9350 Br  0  0  0  0  0  0  0  0  0  0  0  0
    6.3600   -1.1480   -0.0210 C   0  0  0  0  0  0  0  0  0  0  0  0
    7.6030   -1.6650   -0.1720 C   0  0  0  0  0  0  0  0  0  0  0  0
    8.7090   -1.0030   -0.6490 C   0  0  0  0  0  0  0  0  0  0  0  0
    9.8410   -1.5780   -0.7510 O   0  0  0  0  0  0  0  0  0  0  0  0
    8.4260    0.6310   -1.0800 S   0  0  0  0  0  0  0  0  0  0  0  0
    6.8110    1.1170   -0.8270 C   0  0  0  0  0  0  0  0  0  0  0  0
    5.9640    0.1290   -0.3140 C   0  0  0  0  0  0  0  0  0  0  0  0
    4.7010    0.5290   -0.1280 N   0  0  0  0  0  0  0  0  0  0  0  0
    1.2630   -0.3210    0.8310 N   0  0  0  0  0  0  0  0  0  0  0  0
    0.2520    0.5550    0.8280 C   0  0  0  0  0  0  0  0  0  0  0  0
   -1.1730    0.4060    1.0850 C   0  0  0  0  0  0  0  0  0  0  0  0
   -1.9360    1.0730    2.0420 C   0  0  0  0  0  0  0  0  0  0  0  0
   -3.1910    0.6630    1.9080 N   0  0  0  0  0  0  0  0  0  0  0  0
   -3.3240   -0.2320    0.9280 N   0  0  0  0  0  0  0  0  0  0  0  0
   -4.5460   -0.8230    0.5320 C   0  0  0  0  0  0  0  0  0  0  0  0
   -5.1320   -1.8970    1.1400 C   0  0  0  0  0  0  0  0  0  0  0  0
   -6.3390   -2.4230    0.7280 C   0  0  0  0  0  0  0  0  0  0  0  0
   -6.9090   -3.4860    1.3380 F   0  0  0  0  0  0  0  0  0  0  0  0
   -7.0200   -1.8700   -0.3470 C   0  0  0  0  0  0  0  0  0  0  0  0
   -6.4470   -0.7710   -0.9920 C   0  0  0  0  0  0  0  0  0  0  0  0
   -5.2380   -0.2710   -0.5510 C   0  0  0  0  0  0  0  0  0  0  0  0
   -4.6570    0.8070   -1.1730 O   0  0  0  0  0  0  0  0  0  0  0  0
   -5.2920    1.4270   -2.2740 C   0  0  0  0  0  0  0  0  0  0  0  0
   -5.4480    0.4670   -3.2770 F   0  0  0  0  0  0  0  0  0  0  0  0
   -2.0840   -0.3920    0.4220 C   0  0  0  0  0  0  0  0  0  0  0  0
   -1.7450   -1.2760   -0.6590 N   0  0  0  0  0  0  0  0  0  0  0  0
  1  2  1  0
  2  3  1  0
  3  4  2  0
  3 19  1  0
  4  5  1  0
  5  6  1  0
  5 18  1  0
  6  7  1  0
  6 17  2  0
  7  8  2  0
  8  9  1  0
  8 10  1  0
 10 11  2  0
 10 16  1  0
 11 12  1  0
 12 13  2  0
 12 14  1  0
 14 15  1  0
 15 16  2  0
 16 17  1  0
 18 19  2  0
 19 20  1  0
 20 21  1  0
 20 34  2  0
 21 22  2  0
 22 23  1  0
 23 24  1  0
 23 34  1  0
 24 25  2  0
 24 30  1  0
 25 26  1  0
 26 27  1  0
 26 28  2  0
 28 29  1  0
 29 30  2  0
 30 31  1  0
 31 32  1  0
 32 33  1  0
 34 35  1  0
M  END
