
     RDKit          3D

 34 37  0  0  0  0  0  0  0  0999 V2000
   -1.4090    7.2930    0.2700 C   0  0  0  0  0  0  0  0  0  0  0  0
   -0.8100    5.9180    0.4700 C   0  0  0  0  0  0  0  0  0  0  0  0
    0.2850    5.8330    1.0840 O   0  0  0  0  0  0  0  0  0  0  0  0
   -1.4170    4.7230   -0.0060 N   0  0  0  0  0  0  0  0  0  0  0  0
   -0.8030    3.4550    0.1610 C   0  0  0  0  0  0  0  0  0  0  0  0
    0.5550    3.2900    0.1600 C   0  0  0  0  0  0  0  0  0  0  0  0
    1.1750    2.0240    0.2820 C   0  0  0  0  0  0  0  0  0  0  0  0
    0.4480    0.9200    0.4180 C   0  0  0  0  0  0  0  0  0  0  0  0
    1.0250   -0.3540    0.7070 C   0  0  0  0  0  0  0  0  0  0  0  0
    1.9220   -0.9470   -0.3450 N   0  0  2  0  0  0  0  0  0  0  0  0
    1.5510   -2.3620   -0.3110 C   0  0  0  0  0  0  0  0  0  0  0  0
    3.2600   -0.6210   -0.1620 C   0  0  0  0  0  0  0  0  0  0  0  0
    4.3610   -1.6060   -0.1880 C   0  0  0  0  0  0  0  0  0  0  0  0
    4.2900   -2.8820   -0.6200 C   0  0  0  0  0  0  0  0  0  0  0  0
    5.3580   -3.7730   -0.6180 C   0  0  0  0  0  0  0  0  0  0  0  0
    6.5900   -3.3090   -0.1430 C   0  0  0  0  0  0  0  0  0  0  0  0
    6.6480   -2.0300    0.2860 C   0  0  0  0  0  0  0  0  0  0  0  0
    5.5980   -1.1420    0.2900 C   0  0  0  0  0  0  0  0  0  0  0  0
    5.7460    0.2330    0.7310 C   0  0  0  0  0  0  0  0  0  0  0  0
    5.2340    1.2460    0.1970 O   0  0  0  0  0  0  0  0  0  0  0  0
    6.5340    0.4800    1.8800 O   0  0  0  0  0  0  0  0  0  0  0  0
   -1.0140    1.0460    0.4330 C   0  0  0  0  0  0  0  0  0  0  0  0
   -1.6890   -0.2160    0.4960 C   0  0  0  0  0  0  0  0  0  0  0  0
   -2.8590   -0.8100    0.4360 O   0  0  0  0  0  0  0  0  0  0  0  0
   -3.9820   -0.8440   -0.2620 C   0  0  0  0  0  0  0  0  0  0  0  0
   -4.3740    0.0450   -1.2260 C   0  0  0  0  0  0  0  0  0  0  0  0
   -5.5840   -0.0660   -1.8920 C   0  0  0  0  0  0  0  0  0  0  0  0
   -6.4250   -1.1090   -1.5730 C   0  0  0  0  0  0  0  0  0  0  0  0
   -6.0840   -2.0190   -0.6270 C   0  0  0  0  0  0  0  0  0  0  0  0
   -4.8720   -1.8890    0.0320 C   0  0  0  0  0  0  0  0  0  0  0  0
   -4.6870   -3.1120    0.8870 C   0  0  0  0  0  0  0  0  0  0  0  0
   -5.6920   -4.0780    0.2500 C   0  0  0  0  0  0  0  0  0  0  0  0
   -6.7280   -3.1830   -0.1040 O   0  0  0  0  0  0  0  0  0  0  0  0
   -1.5410    2.2920    0.2990 C   0  0  0  0  0  0  0  0  0  0  0  0
  1  2  1  0
  2  3  2  0
  2  4  1  0
  4  5  1  0
  5  6  2  0
  5 34  1  0
  6  7  1  0
  7  8  2  0
  8  9  1  0
  8 22  1  0
  9 10  1  0
 10 11  1  1
 10 12  1  0
 12 13  1  0
 13 14  2  0
 13 18  1  0
 14 15  1  0
 15 16  2  0
 16 17  1  0
 17 18  2  0
 18 19  1  0
 19 20  2  0
 19 21  1  0
 22 23  1  0
 22 34  2  0
 23 24  1  0
 24 25  1  0
 25 26  2  0
 25 30  1  0
 26 27  1  0
 27 28  2  0
 28 29  1  0
 29 30  2  0
 29 33  1  0
 30 31  1  0
 31 32  1  0
 32 33  1  0
M  CHG  1  10   1
M  END
