
     RDKit          3D

 35 39  0  0  0  0  0  0  0  0999 V2000
   -7.0220    1.4470    2.3930 C   0  0  0  0  0  0  0  0  0  0  0  0
   -5.9180    1.0080    1.4880 C   0  0  0  0  0  0  0  0  0  0  0  0
   -4.7630    1.2270    1.8620 O   0  0  0  0  0  0  0  0  0  0  0  0
   -6.2780    0.3650    0.2500 C   0  0  0  0  0  0  0  0  0  0  0  0
   -7.5080    0.0380   -0.2150 N   0  0  0  0  0  0  0  0  0  0  0  0
   -7.4210   -0.5540   -1.3820 O   0  0  0  0  0  0  0  0  0  0  0  0
   -6.1930   -0.6430   -1.7280 C   0  0  0  0  0  0  0  0  0  0  0  0
   -5.4140   -0.0600   -0.7090 C   0  0  0  0  0  0  0  0  0  0  0  0
   -4.0000    0.0200   -0.8840 N   0  0  0  0  0  0  0  0  0  0  0  0
   -3.3530    1.2420   -0.6090 C   0  0  0  0  0  0  0  0  0  0  0  0
   -3.9510    2.3410   -0.5030 O   0  0  0  0  0  0  0  0  0  0  0  0
   -1.8620    1.2110   -0.4320 C   0  0  0  0  0  0  0  0  0  0  0  0
   -1.1980    2.3890   -0.1670 C   0  0  0  0  0  0  0  0  0  0  0  0
    0.5170    1.8580   -0.0410 S   0  0  0  0  0  0  0  0  0  0  0  0
    0.0800    0.0560   -0.3770 C   0  0  0  0  0  0  0  0  0  0  0  0
    1.1200   -0.9210   -0.4030 N   0  0  0  0  0  0  0  0  0  0  0  0
    2.4480   -0.6210   -0.1130 C   0  0  0  0  0  0  0  0  0  0  0  0
    3.5030   -1.2500   -0.7810 C   0  0  0  0  0  0  0  0  0  0  0  0
    4.7510   -0.9670   -0.4520 N   0  0  0  0  0  0  0  0  0  0  0  0
    5.1110   -0.0990    0.4990 C   0  0  0  0  0  0  0  0  0  0  0  0
    6.5020    0.1980    0.8450 C   0  0  0  0  0  0  0  0  0  0  0  0
    6.9140    1.0390    1.7690 C   0  0  0  0  0  0  0  0  0  0  0  0
    8.3320    1.0820    1.8390 N   0  0  0  0  0  0  0  0  0  0  0  0
    8.8360   -0.0870    1.1350 C   0  0  1  0  0  0  0  0  0  0  0  0
    9.9790    0.1760    0.4270 F   0  0  0  0  0  0  0  0  0  0  0  0
    9.0140   -1.1590    1.9890 F   0  0  0  0  0  0  0  0  0  0  0  0
    7.6790   -0.3900    0.2190 C   0  0  0  0  0  0  0  0  0  0  0  0
    7.7540   -1.0580   -0.9180 C   0  0  0  0  0  0  0  0  0  0  0  0
    9.3950   -1.7540   -1.5770 Br  0  0  0  0  0  0  0  0  0  0  0  0
    4.1120    0.5120    1.1500 N   0  0  0  0  0  0  0  0  0  0  0  0
    2.7990    0.2680    0.8630 C   0  0  0  0  0  0  0  0  0  0  0  0
   -1.0970    0.1610   -0.5040 N   0  0  0  0  0  0  0  0  0  0  0  0
   -3.3170   -1.1300   -1.4220 C   0  0  0  0  0  0  0  0  0  0  0  0
   -4.2060   -1.9620   -2.3480 C   0  0  0  0  0  0  0  0  0  0  0  0
   -5.4060   -1.1800   -2.8710 C   0  0  0  0  0  0  0  0  0  0  0  0
  1  2  1  0
  2  3  2  0
  2  4  1  0
  4  5  2  0
  4  8  1  0
  5  6  1  0
  6  7  1  0
  7  8  2  0
  7 35  1  0
  8  9  1  0
  9 10  1  0
  9 33  1  0
 10 11  2  0
 10 12  1  0
 12 13  2  0
 12 32  1  0
 13 14  1  0
 14 15  1  0
 15 16  1  0
 15 32  2  0
 16 17  1  0
 17 18  2  0
 17 31  1  0
 18 19  1  0
 19 20  2  0
 20 21  1  0
 20 30  1  0
 21 22  2  0
 21 27  1  0
 22 23  1  0
 23 24  1  0
 24 25  1  6
 24 26  1  0
 24 27  1  0
 27 28  2  3
 28 29  1  0
 30 31  2  0
 33 34  1  0
 34 35  1  0
M  END
