
     RDKit          3D

 34 38  0  0  0  0  0  0  0  0999 V2000
    0.3400    0.8050   -1.5140 C   0  0  0  0  0  0  0  0  0  0  0  0
    1.1790   -0.2240   -0.9700 N   0  0  0  0  0  0  0  0  0  0  0  0
    0.8050   -1.5620   -0.8450 C   0  0  0  0  0  0  0  0  0  0  0  0
    1.7910   -2.3710   -0.6410 O   0  0  0  0  0  0  0  0  0  0  0  0
   -0.5220   -2.1180   -0.9210 C   0  0  0  0  0  0  0  0  0  0  0  0
   -1.6310   -1.3350   -0.5790 C   0  0  0  0  0  0  0  0  0  0  0  0
   -2.9090   -1.8430   -0.5400 C   0  0  0  0  0  0  0  0  0  0  0  0
   -4.1240   -1.2500   -0.2280 C   0  0  0  0  0  0  0  0  0  0  0  0
   -4.2970    0.1390    0.1490 C   0  0  0  0  0  0  0  0  0  0  0  0
   -3.2920    0.9320    0.2010 O   0  0  0  0  0  0  0  0  0  0  0  0
   -5.5890    0.6380    0.4660 N   0  0  0  0  0  0  0  0  0  0  0  0
   -5.7190    2.0200    0.8190 C   0  0  0  0  0  0  0  0  0  0  0  0
   -6.9130    2.3590    1.6580 C   0  0  0  0  0  0  0  0  0  0  0  0
   -8.1190    1.7980    0.9160 C   0  0  0  0  0  0  0  0  0  0  0  0
   -8.0290    0.3000    0.8210 C   0  0  0  0  0  0  0  0  0  0  0  0
   -6.7090   -0.2470    0.4330 C   0  0  0  0  0  0  0  0  0  0  0  0
   -5.0290   -2.2260   -0.3510 N   0  0  0  0  0  0  0  0  0  0  0  0
   -4.4630   -3.3570   -0.7100 N   0  0  0  0  0  0  0  0  0  0  0  0
   -3.1210   -3.1700   -0.8440 C   0  0  0  0  0  0  0  0  0  0  0  0
   -2.0790   -3.9860   -1.1840 C   0  0  0  0  0  0  0  0  0  0  0  0
   -0.7900   -3.4420   -1.2170 C   0  0  0  0  0  0  0  0  0  0  0  0
    0.2110   -4.3170   -1.5740 O   0  0  0  0  0  0  0  0  0  0  0  0
    2.5250    0.1940   -0.6080 C   0  0  0  0  0  0  0  0  0  0  0  0
    3.4280    0.4270   -1.5950 C   0  0  0  0  0  0  0  0  0  0  0  0
    4.7210    0.8250   -1.2780 C   0  0  0  0  0  0  0  0  0  0  0  0
    5.1280    0.9950    0.0210 C   0  0  0  0  0  0  0  0  0  0  0  0
    6.4670    1.4040    0.3500 N   0  0  0  0  0  0  0  0  0  0  0  0
    6.8070    1.5760    1.7500 C   0  0  0  0  0  0  0  0  0  0  0  0
    8.3010    1.6450    1.9550 C   0  0  0  0  0  0  0  0  0  0  0  0
    8.8860    2.4070    0.9150 O   0  0  0  0  0  0  0  0  0  0  0  0
    8.8500    1.5730   -0.2030 C   0  0  0  0  0  0  0  0  0  0  0  0
    7.4040    1.6230   -0.7180 C   0  0  0  0  0  0  0  0  0  0  0  0
    4.2050    0.7560    1.0270 C   0  0  0  0  0  0  0  0  0  0  0  0
    2.9040    0.3550    0.7040 C   0  0  0  0  0  0  0  0  0  0  0  0
  1  2  1  0
  2  3  1  0
  2 23  1  0
  3  4  2  0
  3  5  1  0
  5  6  2  0
  5 21  1  0
  6  7  1  0
  7  8  1  0
  7 19  2  0
  8  9  1  0
  8 17  2  0
  9 10  2  0
  9 11  1  0
 11 12  1  0
 11 16  1  0
 12 13  1  0
 13 14  1  0
 14 15  1  0
 15 16  1  0
 17 18  1  0
 18 19  1  0
 19 20  1  0
 20 21  2  0
 21 22  1  0
 23 24  2  0
 23 34  1  0
 24 25  1  0
 25 26  2  0
 26 27  1  0
 26 33  1  0
 27 28  1  0
 27 32  1  0
 28 29  1  0
 29 30  1  0
 30 31  1  0
 31 32  1  0
 33 34  2  0
M  END
