
     RDKit          3D

 35 39  0  0  0  0  0  0  0  0999 V2000
    8.3000   -1.6630    1.1900 C   0  0  0  0  0  0  0  0  0  0  0  0
    7.5230   -0.4120    1.1470 C   0  0  0  0  0  0  0  0  0  0  0  0
    8.0090    0.8640    1.3500 C   0  0  0  0  0  0  0  0  0  0  0  0
    6.9160    1.6640    1.2060 N   0  0  0  0  0  0  0  0  0  0  0  0
    5.8370    0.9200    0.9330 C   0  0  0  0  0  0  0  0  0  0  0  0
    4.5470    1.4660    0.7300 N   0  0  0  0  0  0  0  0  0  0  0  0
    3.4170    0.6130    0.4380 C   0  0  0  0  0  0  0  0  0  0  0  0
    3.6650   -0.6070    0.3820 O   0  0  0  0  0  0  0  0  0  0  0  0
    2.1000    1.1730    0.2300 C   0  0  0  0  0  0  0  0  0  0  0  0
    1.8130    2.5130    0.2890 N   0  0  0  0  0  0  0  0  0  0  0  0
    0.5390    2.7170    0.0600 N   0  0  0  0  0  0  0  0  0  0  0  0
   -0.0950    1.5450   -0.1630 C   0  0  0  0  0  0  0  0  0  0  0  0
    0.8910    0.5890   -0.0540 C   0  0  0  0  0  0  0  0  0  0  0  0
    0.5420   -0.7380   -0.2350 C   0  0  0  0  0  0  0  0  0  0  0  0
    1.4580   -1.7290   -0.1420 N   0  0  0  0  0  0  0  0  0  0  0  0
    1.1530   -3.0260   -0.3110 C   0  0  0  0  0  0  0  0  0  0  0  0
   -0.1510   -3.3580   -0.5930 C   0  0  0  0  0  0  0  0  0  0  0  0
   -1.0980   -2.3510   -0.6900 C   0  0  0  0  0  0  0  0  0  0  0  0
   -0.7590   -1.0270   -0.5120 C   0  0  0  0  0  0  0  0  0  0  0  0
   -1.7470   -0.0050   -0.6160 C   0  0  0  0  0  0  0  0  0  0  0  0
   -2.8800   -0.4200   -0.8710 N   0  0  0  0  0  0  0  0  0  0  0  0
   -4.1250    0.1600   -1.0630 C   0  0  0  0  0  0  0  0  0  0  0  0
   -4.4050    0.7390   -2.2210 C   0  0  0  0  0  0  0  0  0  0  0  0
   -5.9450    1.5140   -2.6020 S   0  0  0  0  0  0  0  0  0  0  0  0
   -7.0350    1.3060   -1.2070 C   0  0  0  0  0  0  0  0  0  0  0  0
   -6.3530    0.6050   -0.1170 C   0  0  0  0  0  0  0  0  0  0  0  0
   -5.1700    0.1270   -0.0280 C   0  0  0  0  0  0  0  0  0  0  0  0
   -4.7840   -0.5120    1.1800 O   0  0  0  0  0  0  0  0  0  0  0  0
   -5.3490   -1.8220    1.3430 C   0  0  2  0  0  0  0  0  0  0  0  0
   -4.9090   -2.5810    0.2760 F   0  0  0  0  0  0  0  0  0  0  0  0
   -6.7360   -1.7600    1.2260 F   0  0  0  0  0  0  0  0  0  0  0  0
   -4.8330   -2.5610    3.0380 Br  0  0  0  0  0  0  0  0  0  0  0  0
   -1.4020    1.2680   -0.4400 N   0  0  0  0  0  0  0  0  0  0  0  0
   -2.3500    2.3740   -0.5300 C   0  0  0  0  0  0  0  0  0  0  0  0
    6.2300   -0.3080    0.9050 O   0  0  0  0  0  0  0  0  0  0  0  0
  1  2  1  0
  2  3  2  0
  2 35  1  0
  3  4  1  0
  4  5  2  0
  5  6  1  0
  5 35  1  0
  6  7  1  0
  7  8  2  0
  7  9  1  0
  9 10  1  0
  9 13  2  0
 10 11  1  0
 11 12  2  0
 12 13  1  0
 12 33  1  0
 13 14  1  0
 14 15  2  0
 14 19  1  0
 15 16  1  0
 16 17  2  0
 17 18  1  0
 18 19  2  0
 19 20  1  0
 20 21  2  3
 20 33  1  0
 21 22  1  0
 22 23  2  0
 22 27  1  0
 23 24  1  0
 24 25  1  0
 25 26  1  0
 26 27  2  0
 27 28  1  0
 28 29  1  0
 29 30  1  6
 29 31  1  0
 29 32  1  0
 33 34  1  0
M  END
