
     RDKit          3D

 28 30  0  0  0  0  0  0  0  0999 V2000
   -3.1050   -3.1980   -0.1000 C   0  0  0  0  0  0  0  0  0  0  0  0
   -3.8220   -3.1720    1.2320 C   0  0  0  0  0  0  0  0  0  0  0  0
   -2.7040   -2.7090    2.5870 S   0  0  0  0  0  0  0  0  0  0  0  0
   -2.2070   -1.0200    2.3250 C   0  0  0  0  0  0  0  0  0  0  0  0
   -1.0720   -0.7850    1.5720 C   0  0  0  0  0  0  0  0  0  0  0  0
   -0.6110    0.4960    1.3170 C   0  0  0  0  0  0  0  0  0  0  0  0
    0.5740    0.7470    0.6220 N   0  0  0  0  0  0  0  0  0  0  0  0
    1.3260   -0.1740   -0.1210 C   0  0  0  0  0  0  0  0  0  0  0  0
    0.9470   -1.3520   -0.2120 O   0  0  0  0  0  0  0  0  0  0  0  0
    2.5720    0.2270   -0.8050 C   0  0  0  0  0  0  0  0  0  0  0  0
    3.2940   -0.5760   -1.4990 C   0  0  0  0  0  0  0  0  0  0  0  0
    3.1260   -1.9980   -1.8030 C   0  0  0  0  0  0  0  0  0  0  0  0
    4.2510   -2.6620   -1.1990 O   0  0  0  0  0  0  0  0  0  0  0  0
    5.4620   -1.9680   -1.2720 C   0  0  0  0  0  0  0  0  0  0  0  0
    6.4370   -2.1870   -0.5170 O   0  0  0  0  0  0  0  0  0  0  0  0
    5.5810   -0.9060   -2.3160 C   0  0  0  0  0  0  0  0  0  0  0  0
    4.4740   -0.0130   -2.0910 O   0  0  0  0  0  0  0  0  0  0  0  0
   -1.3270    1.5850    1.8410 C   0  0  0  0  0  0  0  0  0  0  0  0
   -0.9510    2.9850    1.5650 C   0  0  0  0  0  0  0  0  0  0  0  0
   -1.4460    3.5350    0.2730 C   0  0  0  0  0  0  0  0  0  0  0  0
   -1.0120    2.8390   -0.9280 C   0  0  0  0  0  0  0  0  0  0  0  0
    0.0950    3.0770   -1.7020 C   0  0  0  0  0  0  0  0  0  0  0  0
    0.0670    2.1480   -2.7330 C   0  0  0  0  0  0  0  0  0  0  0  0
   -1.0470    1.4150   -2.5160 N   0  0  0  0  0  0  0  0  0  0  0  0
   -1.6630    1.8270   -1.4650 O   0  0  0  0  0  0  0  0  0  0  0  0
   -2.4480    1.3200    2.5850 C   0  0  0  0  0  0  0  0  0  0  0  0
   -2.9080    0.0310    2.8410 C   0  0  0  0  0  0  0  0  0  0  0  0
   -4.0450   -0.2000    3.5960 O   0  0  0  0  0  0  0  0  0  0  0  0
  1  2  1  0
  2  3  1  0
  3  4  1  0
  4  5  2  0
  4 27  1  0
  5  6  1  0
  6  7  1  0
  6 18  2  0
  7  8  1  0
  8  9  2  0
  8 10  1  0
 10 11  2  3
 11 12  1  0
 11 17  1  0
 12 13  1  0
 13 14  1  0
 14 15  2  0
 14 16  1  0
 16 17  1  0
 18 19  1  0
 18 26  1  0
 19 20  1  0
 20 21  1  0
 21 22  2  0
 21 25  1  0
 22 23  1  0
 23 24  2  0
 24 25  1  0
 26 27  2  0
 27 28  1  0
M  END
