
     RDKit          3D

 13 14  0  0  0  0  0  0  0  0999 V2000
    1.6440    1.5700    0.3850 C   0  0  0  0  0  0  0  0  0  0  0  0
    2.8390    1.9060    0.0230 N   0  0  0  0  0  0  0  0  0  0  0  0
    3.8570    1.0130   -0.2120 N   0  0  0  0  0  0  0  0  0  0  0  0
    3.6820   -0.3910   -0.0730 C   0  0  0  0  0  0  0  0  0  0  0  0
    2.3160   -0.7280    0.3350 C   0  0  0  0  0  0  0  0  0  0  0  0
    1.3430    0.1720    0.5570 C   0  0  0  0  0  0  0  0  0  0  0  0
    0.0630   -0.3680    0.9930 C   0  0  0  0  0  0  0  0  0  0  0  0
   -1.0930   -0.2170    0.2530 N   0  0  0  0  0  0  0  0  0  0  0  0
   -1.7750    0.9790    0.1260 C   0  0  0  0  0  0  0  0  0  0  0  0
   -2.2730    1.2650   -1.3080 C   0  0  0  0  0  0  0  0  0  0  0  0
   -3.3830   -0.1110   -1.7100 S   0  0  0  0  0  0  0  0  0  0  0  0
   -3.1920   -1.3210   -0.3730 C   0  0  0  0  0  0  0  0  0  0  0  0
   -1.7150   -1.4360   -0.0910 C   0  0  0  0  0  0  0  0  0  0  0  0
  1  2  2  0
  1  6  1  0
  2  3  1  0
  3  4  1  0
  4  5  1  0
  5  6  2  0
  6  7  1  0
  7  8  1  0
  8  9  1  0
  8 13  1  0
  9 10  1  0
 10 11  1  0
 11 12  1  0
 12 13  1  0
M  END
