
     RDKit          3D

 28 30  0  0  0  0  0  0  0  0999 V2000
   -4.0130    1.3740    3.5030 C   0  0  0  0  0  0  0  0  0  0  0  0
   -3.2970    0.8650    2.4140 O   0  0  0  0  0  0  0  0  0  0  0  0
   -3.9210    0.5530    1.1900 C   0  0  0  0  0  0  0  0  0  0  0  0
   -5.2640    0.7640    1.0930 C   0  0  0  0  0  0  0  0  0  0  0  0
   -5.9070    0.4710   -0.0850 C   0  0  0  0  0  0  0  0  0  0  0  0
   -5.1830   -0.0310   -1.1500 C   0  0  0  0  0  0  0  0  0  0  0  0
   -5.8600   -0.3170   -2.3250 C   0  0  0  0  0  0  0  0  0  0  0  0
   -5.1480   -0.8170   -3.3920 C   0  0  0  0  0  0  0  0  0  0  0  0
   -3.7980   -1.0350   -3.3100 C   0  0  0  0  0  0  0  0  0  0  0  0
   -3.1470   -0.7500   -2.1510 C   0  0  0  0  0  0  0  0  0  0  0  0
   -3.8360   -0.2420   -1.0510 C   0  0  0  0  0  0  0  0  0  0  0  0
   -3.1960    0.0530    0.1310 C   0  0  0  0  0  0  0  0  0  0  0  0
   -1.8510   -0.1460    0.2640 O   0  0  0  0  0  0  0  0  0  0  0  0
   -0.8600    0.7920   -0.0250 C   0  0  0  0  0  0  0  0  0  0  0  0
    0.4770    0.1570    0.2640 C   0  0  0  0  0  0  0  0  0  0  0  0
    0.4910   -1.0080    0.6790 O   0  0  0  0  0  0  0  0  0  0  0  0
    1.6430    0.8910    0.0560 N   0  0  0  0  0  0  0  0  0  0  0  0
    2.9370    0.4240    0.2820 C   0  0  0  0  0  0  0  0  0  0  0  0
    3.2710   -0.8190    0.7400 C   0  0  0  0  0  0  0  0  0  0  0  0
    4.6220   -1.1610    0.9240 C   0  0  0  0  0  0  0  0  0  0  0  0
    5.6310   -0.2840    0.6590 C   0  0  0  0  0  0  0  0  0  0  0  0
    7.0730   -0.6020    0.8390 C   0  0  0  0  0  0  0  0  0  0  0  0
    7.6860   -1.2900   -0.6920 S   0  0  1  0  0  0  0  0  0  0  0  0
    9.0590   -1.8520   -0.4560 O   0  0  0  0  0  0  0  0  0  0  0  0
    6.7910   -2.4310   -1.0550 O   0  0  0  0  0  0  0  0  0  0  0  0
    5.2960    0.9400    0.2070 N   0  0  0  0  0  0  0  0  0  0  0  0
    4.0190    1.2910    0.0230 C   0  0  0  0  0  0  0  0  0  0  0  0
    3.7870    2.4500   -0.4000 O   0  0  0  0  0  0  0  0  0  0  0  0
  1  2  1  0
  2  3  1  0
  3  4  2  0
  3 12  1  0
  4  5  1  0
  5  6  2  0
  6  7  1  0
  6 11  1  0
  7  8  2  0
  8  9  1  0
  9 10  2  0
 10 11  1  0
 11 12  2  0
 12 13  1  0
 13 14  1  0
 14 15  1  0
 15 16  2  0
 15 17  1  0
 17 18  1  0
 18 19  2  0
 18 27  1  0
 19 20  1  0
 20 21  2  0
 21 22  1  0
 21 26  1  0
 23 22  1  1
 23 24  2  0
 23 25  2  0
 26 27  1  0
 27 28  2  0
M  END
