
     RDKit          3D

 13 14  0  0  0  0  0  0  0  0999 V2000
    3.8320   -0.3990    0.8020 C   0  0  0  0  0  0  0  0  0  0  0  0
    2.6600    0.1730    0.1560 N   0  0  0  0  0  0  0  0  0  0  0  0
    1.4250   -0.2390    0.3140 N   0  0  0  0  0  0  0  0  0  0  0  0
    0.5980    0.5190   -0.4340 C   0  0  0  0  0  0  0  0  0  0  0  0
   -0.8680    0.4060   -0.5570 C   0  0  2  0  0  0  0  0  0  0  0  0
   -1.5210    0.7240    0.7860 C   0  0  0  0  0  0  0  0  0  0  0  0
   -2.9970    0.5070    0.5940 C   0  0  0  0  0  0  0  0  0  0  0  0
   -3.3270   -0.7230    0.1440 C   0  0  0  0  0  0  0  0  0  0  0  0
   -2.1750   -1.6450   -0.0830 C   0  0  0  0  0  0  0  0  0  0  0  0
   -1.2410   -0.9600   -1.0580 C   0  0  0  0  0  0  0  0  0  0  0  0
    1.4010    1.4080   -1.0480 N   0  0  0  0  0  0  0  0  0  0  0  0
    2.6870    1.2080   -0.6920 C   0  0  0  0  0  0  0  0  0  0  0  0
    3.9900    2.0360   -1.1830 S   0  0  0  0  0  0  0  0  0  0  0  0
  1  2  1  0
  2  3  1  0
  2 12  1  0
  3  4  2  0
  5  4  1  1
  4 11  1  0
  5  6  1  0
  5 10  1  0
  6  7  1  0
  7  8  2  0
  8  9  1  0
  9 10  1  0
 11 12  1  0
 12 13  2  0
M  END
