
     RDKit          3D

 13 14  0  0  0  0  0  0  0  0999 V2000
   -1.2260    1.9430   -0.3560 C   0  0  0  0  0  0  0  0  0  0  0  0
   -0.7140    0.5540   -0.2760 C   0  0  0  0  0  0  0  0  0  0  0  0
    0.5800    0.3260   -0.1170 C   0  0  0  0  0  0  0  0  0  0  0  0
    1.5340    1.3830   -0.0160 N   0  0  0  0  0  0  0  0  0  0  0  0
    2.9140    1.0950    0.1530 C   0  0  0  0  0  0  0  0  0  0  0  0
    3.3480   -0.1440    0.2220 C   0  0  0  0  0  0  0  0  0  0  0  0
    2.4210   -1.2560    0.1260 C   0  0  0  0  0  0  0  0  0  0  0  0
    1.1390   -1.0300   -0.0320 C   0  0  0  0  0  0  0  0  0  0  0  0
    0.1770   -2.0970   -0.1330 N   0  0  0  0  0  0  0  0  0  0  0  0
   -1.1860   -1.8170   -0.3010 C   0  0  0  0  0  0  0  0  0  0  0  0
   -2.2570   -3.0410   -0.4130 S   0  0  0  0  0  0  0  0  0  0  0  0
   -1.6710   -0.4880   -0.3770 N   0  0  0  0  0  0  0  0  0  0  0  0
   -3.0870   -0.2610   -0.5510 C   0  0  0  0  0  0  0  0  0  0  0  0
  1  2  1  0
  2  3  2  0
  2 12  1  0
  3  4  1  0
  3  8  1  0
  4  5  1  0
  5  6  2  0
  6  7  1  0
  7  8  2  0
  8  9  1  0
  9 10  1  0
 10 11  2  0
 10 12  1  0
 12 13  1  0
M  END
