
     RDKit          3D

 28 30  0  0  0  0  0  0  0  0999 V2000
   -7.6880    2.4910    0.2550 C   0  0  0  0  0  0  0  0  0  0  0  0
   -7.9710    1.1850   -0.1190 O   0  0  0  0  0  0  0  0  0  0  0  0
   -7.0240    0.2100   -0.2800 C   0  0  0  0  0  0  0  0  0  0  0  0
   -5.6730    0.3540   -0.0950 C   0  0  0  0  0  0  0  0  0  0  0  0
   -4.7530   -0.6840   -0.2810 C   0  0  0  0  0  0  0  0  0  0  0  0
   -3.4060   -0.5290   -0.0970 O   0  0  0  0  0  0  0  0  0  0  0  0
   -2.7010   -1.2810    0.8760 C   0  0  0  0  0  0  0  0  0  0  0  0
   -3.4040   -2.0880    1.5450 O   0  0  0  0  0  0  0  0  0  0  0  0
   -1.2390   -1.0920    1.0320 C   0  0  0  0  0  0  0  0  0  0  0  0
   -0.4720   -1.0460   -0.6550 S   0  0  0  0  0  0  0  0  0  0  0  0
    1.2140   -0.5260   -0.4370 C   0  0  0  0  0  0  0  0  0  0  0  0
    2.2630   -1.4030   -0.3590 C   0  0  0  0  0  0  0  0  0  0  0  0
    3.5370   -0.8710   -0.1750 C   0  0  0  0  0  0  0  0  0  0  0  0
    4.6710   -1.8090   -0.0930 C   0  0  0  0  0  0  0  0  0  0  0  0
    3.7470    0.4700   -0.0760 C   0  0  0  0  0  0  0  0  0  0  0  0
    5.0550    1.1100    0.1200 C   0  0  0  0  0  0  0  0  0  0  0  0
    5.2620    2.4710    0.2550 C   0  0  0  0  0  0  0  0  0  0  0  0
    6.6210    2.6380    0.4220 C   0  0  0  0  0  0  0  0  0  0  0  0
    7.1910    1.3610    0.3800 C   0  0  0  0  0  0  0  0  0  0  0  0
    8.6240    0.9780    0.5060 C   0  0  0  0  0  0  0  0  0  0  0  0
    8.9870    0.3740   -0.7220 O   0  0  0  0  0  0  0  0  0  0  0  0
    6.1820    0.5190    0.1970 O   0  0  0  0  0  0  0  0  0  0  0  0
    2.6600    1.2830   -0.1640 N   0  0  0  0  0  0  0  0  0  0  0  0
    1.4630    0.8060   -0.3350 N   0  0  0  0  0  0  0  0  0  0  0  0
   -5.2850   -1.9040   -0.6730 C   0  0  0  0  0  0  0  0  0  0  0  0
   -6.6450   -2.0890   -0.8730 C   0  0  0  0  0  0  0  0  0  0  0  0
   -7.5210   -1.0470   -0.6820 C   0  0  0  0  0  0  0  0  0  0  0  0
   -8.8880   -1.1670   -0.8640 O   0  0  0  0  0  0  0  0  0  0  0  0
  1  2  1  0
  2  3  1  0
  3  4  2  0
  3 27  1  0
  4  5  1  0
  5  6  1  0
  5 25  2  0
  6  7  1  0
  7  8  2  0
  7  9  1  0
  9 10  1  0
 10 11  1  0
 11 12  2  0
 11 24  1  0
 12 13  1  0
 13 14  1  0
 13 15  2  0
 15 16  1  0
 15 23  1  0
 16 17  2  0
 16 22  1  0
 17 18  1  0
 18 19  2  0
 19 20  1  0
 19 22  1  0
 20 21  1  0
 23 24  2  0
 25 26  1  0
 26 27  2  0
 27 28  1  0
M  END
