
     RDKit          3D

 31 34  0  0  0  0  0  0  0  0999 V2000
    2.4400    2.4530   -0.3770 C   0  0  0  0  0  0  0  0  0  0  0  0
    2.5970    1.0540    0.0380 C   0  0  0  0  0  0  0  0  0  0  0  0
    3.3320    0.5780    1.1000 C   0  0  0  0  0  0  0  0  0  0  0  0
    4.1450    1.3370    2.0860 C   0  0  0  0  0  0  0  0  0  0  0  0
    5.4170    1.8510    1.4620 C   0  0  0  0  0  0  0  0  0  0  0  0
    6.1840    0.6910    0.9540 C   0  0  0  0  0  0  0  0  0  0  0  0
    7.1360   -0.0760    1.4910 C   0  0  0  0  0  0  0  0  0  0  0  0
    7.6950   -1.1000    0.8210 C   0  0  0  0  0  0  0  0  0  0  0  0
    7.1960   -1.2830   -0.4620 C   0  0  0  0  0  0  0  0  0  0  0  0
    7.6620   -2.5330   -1.6840 Cl  0  0  0  0  0  0  0  0  0  0  0  0
    5.9670   -0.0110   -0.6760 S   0  0  0  0  0  0  0  0  0  0  0  0
    3.1570   -0.7410    1.0600 O   0  0  0  0  0  0  0  0  0  0  0  0
    2.3800   -1.0780    0.0600 C   0  0  0  0  0  0  0  0  0  0  0  0
    2.0150   -2.2570   -0.2570 O   0  0  0  0  0  0  0  0  0  0  0  0
    2.0010    0.0130   -0.6150 N   0  0  0  0  0  0  0  0  0  0  0  0
    1.2040    0.1130   -1.8020 C   0  0  0  0  0  0  0  0  0  0  0  0
    1.7950    0.2800   -3.0800 C   0  0  0  0  0  0  0  0  0  0  0  0
    0.7980    0.3390   -3.9430 N   0  0  0  0  0  0  0  0  0  0  0  0
   -0.3370    0.2240   -3.3160 N   0  0  0  0  0  0  0  0  0  0  0  0
   -0.1350    0.0780   -1.9590 C   0  0  0  0  0  0  0  0  0  0  0  0
   -1.1660   -0.0680   -1.0000 N   0  0  0  0  0  0  0  0  0  0  0  0
   -2.5480   -0.3980   -1.3980 C   0  0  0  0  0  0  0  0  0  0  0  0
   -3.3380   -0.4380   -0.1690 C   0  0  0  0  0  0  0  0  0  0  0  0
   -4.7240   -0.6850   -0.1220 N   0  0  0  0  0  0  0  0  0  0  0  0
   -5.4550   -0.7350    1.1080 C   0  0  0  0  0  0  0  0  0  0  0  0
   -6.9580   -0.9160    0.8320 C   0  0  2  0  0  0  0  0  0  0  0  0
   -7.2350   -2.1940    0.0830 C   0  0  0  0  0  0  0  0  0  0  0  0
   -7.4540    0.2660    0.0070 C   0  0  0  0  0  0  0  0  0  0  0  0
   -2.5740   -0.1870    0.8230 N   0  0  0  0  0  0  0  0  0  0  0  0
   -1.2310    0.0460    0.3830 C   0  0  0  0  0  0  0  0  0  0  0  0
   -0.2760    0.3130    1.1450 O   0  0  0  0  0  0  0  0  0  0  0  0
  1  2  1  0
  2  3  2  0
  2 15  1  0
  3  4  1  0
  3 12  1  0
  4  5  1  0
  5  6  1  0
  6  7  2  0
  6 11  1  0
  7  8  1  0
  8  9  2  0
  9 10  1  0
  9 11  1  0
 12 13  1  0
 13 14  2  0
 13 15  1  0
 15 16  1  0
 16 17  1  0
 16 20  2  0
 17 18  2  0
 18 19  1  0
 19 20  1  0
 20 21  1  0
 21 22  1  0
 21 30  1  0
 22 23  1  0
 23 24  1  0
 23 29  2  0
 24 25  1  0
 25 26  1  0
 26 27  1  6
 26 28  1  0
 29 30  1  0
 30 31  2  0
M  END
