
     RDKit          3D

 32 34  0  0  0  0  0  0  0  0999 V2000
   -6.2700   -1.7540    1.1510 C   0  0  0  0  0  0  0  0  0  0  0  0
   -5.4850   -1.1130    0.1230 N   0  0  2  0  0  0  0  0  0  0  0  0
   -5.4760   -2.0130   -1.0260 C   0  0  0  0  0  0  0  0  0  0  0  0
   -4.1710   -0.7330    0.5330 C   0  0  1  0  0  0  0  0  0  0  0  0
   -4.0080   -0.5930    2.0340 C   0  0  0  0  0  0  0  0  0  0  0  0
   -2.4880   -0.3690    2.0790 C   0  0  0  0  0  0  0  0  0  0  0  0
   -1.9160   -1.1790    0.9660 C   0  0  2  0  0  0  0  0  0  0  0  0
   -1.2050   -0.3950   -0.0170 N   0  0  0  0  0  0  0  0  0  0  0  0
   -0.3810    0.6410    0.4920 C   0  0  0  0  0  0  0  0  0  0  0  0
    0.9090    0.6450   -0.3330 C   0  0  0  0  0  0  0  0  0  0  0  0
    1.7200   -0.5540   -0.2540 C   0  0  0  0  0  0  0  0  0  0  0  0
    1.2330   -1.4660    0.5090 O   0  0  0  0  0  0  0  0  0  0  0  0
    2.9230   -0.8140   -0.8910 N   0  0  0  0  0  0  0  0  0  0  0  0
    3.6650   -2.0120   -0.7740 C   0  0  0  0  0  0  0  0  0  0  0  0
    3.3260   -3.0890   -0.0360 C   0  0  0  0  0  0  0  0  0  0  0  0
    4.1150   -4.2390    0.0280 C   0  0  0  0  0  0  0  0  0  0  0  0
    5.2920   -4.2850   -0.6900 C   0  0  0  0  0  0  0  0  0  0  0  0
    5.6340   -3.1870   -1.4400 C   0  0  0  0  0  0  0  0  0  0  0  0
    6.8930   -3.2250   -2.2150 C   0  0  0  0  0  0  0  0  0  0  0  0
    7.9350   -2.7200   -1.4230 O   0  0  0  0  0  0  0  0  0  0  0  0
    4.8540   -2.1110   -1.4730 N   0  0  0  0  0  0  0  0  0  0  0  0
    1.1860    1.7160   -1.0250 C   0  0  0  0  0  0  0  0  0  0  0  0
    2.3230    1.8840   -1.8320 N   0  0  0  0  0  0  0  0  0  0  0  0
    0.2950    2.8490   -1.0060 N   0  0  0  0  0  0  0  0  0  0  0  0
    0.6110    4.0060   -0.2690 C   0  0  0  0  0  0  0  0  0  0  0  0
    1.7570    3.9910    0.5170 C   0  0  0  0  0  0  0  0  0  0  0  0
    2.1440    5.0830    1.2610 C   0  0  0  0  0  0  0  0  0  0  0  0
    1.3430    6.2080    1.1980 C   0  0  0  0  0  0  0  0  0  0  0  0
    0.2010    6.2410    0.4220 C   0  0  0  0  0  0  0  0  0  0  0  0
   -0.5950    7.3750    0.3660 O   0  0  0  0  0  0  0  0  0  0  0  0
   -0.1720    5.1460   -0.3140 C   0  0  0  0  0  0  0  0  0  0  0  0
   -3.1210   -1.7790    0.2350 C   0  0  0  0  0  0  0  0  0  0  0  0
  2  1  1  1
  2  3  1  0
  2  4  1  0
  4  5  1  1
  4 32  1  0
  5  6  1  0
  6  7  1  0
  7  8  1  6
  7 32  1  0
  8  9  1  0
  9 10  1  0
 10 11  1  0
 10 22  2  3
 11 12  2  0
 11 13  1  0
 13 14  1  0
 14 15  2  0
 14 21  1  0
 15 16  1  0
 16 17  2  0
 17 18  1  0
 18 19  1  0
 18 21  2  0
 19 20  1  0
 22 23  1  0
 22 24  1  0
 24 25  1  0
 25 26  2  0
 25 31  1  0
 26 27  1  0
 27 28  2  0
 28 29  1  0
 29 30  1  0
 29 31  2  0
M  CHG  2   2   1   8   1
M  END
