
     RDKit          3D

 32 34  0  0  0  0  0  0  0  0999 V2000
   -6.2300   -0.9340    4.0240 C   0  0  0  0  0  0  0  0  0  0  0  0
   -5.6060   -0.0820    3.2460 C   0  0  0  0  0  0  0  0  0  0  0  0
   -5.5960   -0.2790    1.7680 C   0  0  0  0  0  0  0  0  0  0  0  0
   -4.9970    0.5390    1.0230 N   0  0  0  0  0  0  0  0  0  0  0  0
   -4.9120    0.4630   -0.4080 C   0  0  0  0  0  0  0  0  0  0  0  0
   -4.1580    1.5060   -1.0970 C   0  0  2  0  0  0  0  0  0  0  0  0
   -4.5710    1.8790   -2.4770 C   0  0  0  0  0  0  0  0  0  0  0  0
   -2.7090    1.2510   -1.0300 N   0  0  0  0  0  0  0  0  0  0  0  0
   -1.8830    2.1470   -0.3170 C   0  0  0  0  0  0  0  0  0  0  0  0
   -2.3620    3.1690    0.2680 O   0  0  0  0  0  0  0  0  0  0  0  0
   -0.4100    1.9820   -0.1880 C   0  0  0  0  0  0  0  0  0  0  0  0
   -0.0150    0.7880   -0.8920 N   0  0  0  0  0  0  0  0  0  0  0  0
    1.3680    0.4640   -0.8210 C   0  0  1  0  0  0  0  0  0  0  0  0
    2.0440    0.4040   -2.1690 C   0  0  0  0  0  0  0  0  0  0  0  0
    3.1220    1.4580   -2.0990 C   0  0  0  0  0  0  0  0  0  0  0  0
    3.5380    1.3820   -0.6500 C   0  0  2  0  0  0  0  0  0  0  0  0
    4.2350    0.1440   -0.3540 N   0  0  0  0  0  0  0  0  0  0  0  0
    5.5180    0.1560    0.2510 C   0  0  0  0  0  0  0  0  0  0  0  0
    6.0490    1.2620    0.5280 O   0  0  0  0  0  0  0  0  0  0  0  0
    6.1890   -1.0400    0.5380 N   0  0  0  0  0  0  0  0  0  0  0  0
    7.4990   -1.0980    1.1530 C   0  0  1  0  0  0  0  0  0  0  0  0
    7.5240   -1.8570    2.4450 C   0  0  0  0  0  0  0  0  0  0  0  0
    8.4370   -1.7560    0.2070 C   0  0  0  0  0  0  0  0  0  0  0  0
    9.8070   -1.9770    0.4910 N   0  0  0  0  0  0  0  0  0  0  0  0
    8.0360   -2.1640   -0.9360 O   0  0  0  0  0  0  0  0  0  0  0  0
    2.1870    1.3460    0.0590 C   0  0  0  0  0  0  0  0  0  0  0  0
   -5.5080   -0.5480   -0.9960 C   0  0  0  0  0  0  0  0  0  0  0  0
   -5.6110   -0.9160   -2.3990 C   0  0  0  0  0  0  0  0  0  0  0  0
   -6.3440   -2.0370   -2.4260 C   0  0  0  0  0  0  0  0  0  0  0  0
   -6.7240   -2.4180   -1.0950 C   0  0  0  0  0  0  0  0  0  0  0  0
   -6.2300   -1.5310   -0.2150 C   0  0  0  0  0  0  0  0  0  0  0  0
   -6.3100   -1.4450    1.2490 C   0  0  0  0  0  0  0  0  0  0  0  0
  1  2  2  0
  2  3  1  0
  3  4  2  0
  3 32  1  0
  4  5  1  0
  5  6  1  0
  5 27  2  0
  6  7  1  6
  6  8  1  0
  8  9  1  0
  9 10  2  0
  9 11  1  0
 11 12  1  0
 13 12  1  6
 13 14  1  0
 13 26  1  0
 14 15  1  0
 15 16  1  0
 16 17  1  6
 16 26  1  0
 17 18  1  0
 18 19  2  0
 18 20  1  0
 20 21  1  0
 21 22  1  1
 21 23  1  0
 23 24  1  0
 23 25  2  0
 27 28  1  0
 27 31  1  0
 28 29  2  0
 29 30  1  0
 30 31  2  0
 31 32  1  0
M  CHG  2   4   1  12   1
M  END
