
     RDKit          3D

 32 34  0  0  0  0  0  0  0  0999 V2000
   -3.8710    3.2120    0.7540 C   0  0  0  0  0  0  0  0  0  0  0  0
   -4.0300    2.4160   -0.5380 C   0  0  0  0  0  0  0  0  0  0  0  0
   -3.8550    1.0120   -0.2800 N   0  0  0  0  0  0  0  0  0  0  0  0
   -4.9740    0.2230    0.0680 C   0  0  0  0  0  0  0  0  0  0  0  0
   -4.8140   -1.0130    0.2890 O   0  0  0  0  0  0  0  0  0  0  0  0
   -6.2980    0.7050    0.1950 N   0  0  0  0  0  0  0  0  0  0  0  0
   -7.3830   -0.1520    0.5450 C   0  0  0  0  0  0  0  0  0  0  0  0
   -7.1270   -1.3630    0.7420 O   0  0  0  0  0  0  0  0  0  0  0  0
   -8.7660    0.3650    0.6720 C   0  0  0  0  0  0  0  0  0  0  0  0
   -9.6420   -0.7340    1.0350 N   0  0  0  0  0  0  0  0  0  0  0  0
   -2.5270    0.4160   -0.3820 C   0  0  1  0  0  0  0  0  0  0  0  0
   -2.0820   -0.1870    0.9000 C   0  0  0  0  0  0  0  0  0  0  0  0
   -1.4840   -1.5340    0.8730 C   0  0  2  0  0  0  0  0  0  0  0  0
   -0.0390   -1.4690    0.8260 N   0  0  0  0  0  0  0  0  0  0  0  0
    0.5100   -0.8500   -0.3330 C   0  0  0  0  0  0  0  0  0  0  0  0
    2.0100   -0.8940   -0.1890 C   0  0  0  0  0  0  0  0  0  0  0  0
    2.7610   -1.9360   -0.6870 C   0  0  0  0  0  0  0  0  0  0  0  0
    4.1380   -1.8840   -0.5060 C   0  0  0  0  0  0  0  0  0  0  0  0
    4.7590   -0.8510    0.1370 C   0  0  0  0  0  0  0  0  0  0  0  0
    4.0220    0.1930    0.6380 C   0  0  0  0  0  0  0  0  0  0  0  0
    2.6400    0.1460    0.4590 C   0  0  0  0  0  0  0  0  0  0  0  0
    4.6620    1.3440    1.3480 C   0  0  0  0  0  0  0  0  0  0  0  0
    5.9420    0.9880    2.0200 C   0  0  0  0  0  0  0  0  0  0  0  0
    6.5020   -0.3530    1.7020 C   0  0  0  0  0  0  0  0  0  0  0  0
    6.2140   -0.8410    0.3000 C   0  0  2  0  0  0  0  0  0  0  0  0
    6.9030    0.1040   -0.6640 C   0  0  0  0  0  0  0  0  0  0  0  0
    6.6410   -0.2520   -2.0450 N   0  0  0  0  0  0  0  0  0  0  0  0
    6.7910    0.9700   -2.8450 C   0  0  0  0  0  0  0  0  0  0  0  0
   -1.9530   -2.4810   -0.1720 C   0  0  0  0  0  0  0  0  0  0  0  0
   -2.2250   -1.8670   -1.4300 N   0  0  0  0  0  0  0  0  0  0  0  0
   -2.5000   -0.4870   -1.5460 C   0  0  0  0  0  0  0  0  0  0  0  0
   -2.7290   -0.0130   -2.6830 O   0  0  0  0  0  0  0  0  0  0  0  0
  1  2  1  0
  2  3  1  0
  3  4  1  0
 11  3  1  1
  4  5  2  0
  4  6  1  0
  6  7  1  0
  7  8  2  0
  7  9  1  0
  9 10  1  0
 11 12  1  0
 11 31  1  0
 12 13  1  0
 13 14  1  6
 13 29  1  0
 14 15  1  0
 15 16  1  0
 16 17  2  0
 16 21  1  0
 17 18  1  0
 18 19  2  0
 19 20  1  0
 19 25  1  0
 20 21  2  0
 20 22  1  0
 22 23  1  0
 23 24  1  0
 24 25  1  0
 25 26  1  6
 26 27  1  0
 27 28  1  0
 29 30  1  0
 30 31  1  0
 31 32  2  0
M  CHG  2  10   1  27   1
M  END
