
     RDKit          3D

 32 34  0  0  0  0  0  0  0  0999 V2000
   -3.6870   -4.3290    0.1000 C   0  0  0  0  0  0  0  0  0  0  0  0
   -3.9630   -2.8210    0.2430 C   0  0  0  0  0  0  0  0  0  0  0  0
   -3.7060   -2.2160   -1.0960 C   0  0  0  0  0  0  0  0  0  0  0  0
   -3.9500   -0.7210   -1.1650 C   0  0  2  0  0  0  0  0  0  0  0  0
   -3.6320   -0.3210   -2.5450 C   0  0  0  0  0  0  0  0  0  0  0  0
   -3.7690    1.0250   -2.9420 N   0  0  0  0  0  0  0  0  0  0  0  0
   -3.3110   -0.0860   -0.0720 N   0  0  1  0  0  0  0  0  0  0  0  0
   -1.9220   -0.2840    0.0690 C   0  0  0  0  0  0  0  0  0  0  0  0
   -1.0110    0.7960   -0.2360 C   0  0  0  0  0  0  0  0  0  0  0  0
   -1.3650    1.9090   -0.6200 O   0  0  0  0  0  0  0  0  0  0  0  0
    0.4090    0.5800   -0.0880 N   0  0  0  0  0  0  0  0  0  0  0  0
    1.3380    1.6340   -0.3840 C   0  0  0  0  0  0  0  0  0  0  0  0
    2.7630    1.3220   -0.2040 C   0  0  0  0  0  0  0  0  0  0  0  0
    3.5530    2.2730   -0.4740 O   0  0  0  0  0  0  0  0  0  0  0  0
    3.2880    0.1020    0.2240 N   0  0  0  0  0  0  0  0  0  0  0  0
    4.6570   -0.1860    0.3880 C   0  0  0  0  0  0  0  0  0  0  0  0
    5.0300   -1.3740    1.0420 C   0  0  0  0  0  0  0  0  0  0  0  0
    6.3170   -1.7610    1.2450 C   0  0  0  0  0  0  0  0  0  0  0  0
    7.3680   -0.9630    0.7940 C   0  0  0  0  0  0  0  0  0  0  0  0
    7.0400    0.2050    0.1510 C   0  0  0  0  0  0  0  0  0  0  0  0
    5.7130    0.5770   -0.0440 C   0  0  0  0  0  0  0  0  0  0  0  0
    8.1390    1.0500   -0.3200 C   0  0  0  0  0  0  0  0  0  0  0  0
    7.9310    2.1170   -0.9090 O   0  0  0  0  0  0  0  0  0  0  0  0
    9.4980    0.6350   -0.0950 N   0  0  0  0  0  0  0  0  0  0  0  0
    9.7400   -0.2330    1.0610 C   0  0  0  0  0  0  0  0  0  0  0  0
    8.7620   -1.3690    1.0020 C   0  0  0  0  0  0  0  0  0  0  0  0
   -3.8020    1.2550    0.1980 C   0  0  1  0  0  0  0  0  0  0  0  0
   -5.3050    1.1510    0.4170 C   0  0  0  0  0  0  0  0  0  0  0  0
   -5.8410    2.3970    1.1380 C   0  0  0  0  0  0  0  0  0  0  0  0
   -5.1270    2.6520    2.4240 C   0  0  0  0  0  0  0  0  0  0  0  0
   -4.1540    1.6160    2.6060 N   0  0  0  0  0  0  0  0  0  0  0  0
   -3.1990    1.7200    1.5050 C   0  0  0  0  0  0  0  0  0  0  0  0
  1  2  1  0
  2  3  1  0
  4  3  1  6
  4  5  1  0
  4  7  1  0
  5  6  1  0
  7  8  1  6
  7 27  1  0
  8  9  1  0
  9 10  2  0
  9 11  1  0
 11 12  1  0
 12 13  1  0
 13 14  2  0
 13 15  1  0
 15 16  1  0
 16 17  2  0
 16 21  1  0
 17 18  1  0
 18 19  2  0
 19 20  1  0
 19 26  1  0
 20 21  2  0
 20 22  1  0
 22 23  2  0
 22 24  1  0
 24 25  1  0
 25 26  1  0
 27 28  1  1
 27 32  1  0
 28 29  1  0
 29 30  1  0
 30 31  1  0
 31 32  1  0
M  CHG  2   6   1   7   1
M  END
