
     RDKit          3D

 33 37  0  0  0  0  0  0  0  0999 V2000
    3.5160    2.8590    0.7150 C   0  0  0  0  0  0  0  0  0  0  0  0
    4.2010    1.8260    1.1650 C   0  0  0  0  0  0  0  0  0  0  0  0
    5.2070    2.1030    2.2580 C   0  0  0  0  0  0  0  0  0  0  0  0
    4.0830    0.4270    0.7050 C   0  0  2  0  0  0  0  0  0  0  0  0
    5.4070    0.0620    0.0660 C   0  0  0  0  0  0  0  0  0  0  0  0
    5.0790   -0.3860   -1.3620 C   0  0  0  0  0  0  0  0  0  0  0  0
    3.6850   -0.8480   -1.2190 C   0  0  2  0  0  0  0  0  0  0  0  0
    3.6200   -2.1540   -0.5650 C   0  0  0  0  0  0  0  0  0  0  0  0
    3.0840   -3.1260   -1.1680 O   0  0  0  0  0  0  0  0  0  0  0  0
    4.1160   -2.3900    0.6870 O   0  0  0  0  0  0  0  0  0  0  0  0
    2.8780   -0.8190   -2.4910 C   0  0  0  0  0  0  0  0  0  0  0  0
    1.4160   -1.0400   -2.2560 C   0  0  0  0  0  0  0  0  0  0  0  0
    0.8200   -0.2950   -1.1140 C   0  0  2  0  0  0  0  0  0  0  0  0
    0.6320    1.1370   -1.5430 C   0  0  0  0  0  0  0  0  0  0  0  0
    1.7560   -0.2790    0.0810 C   0  0  2  0  0  0  0  0  0  0  0  0
    1.1880    0.3730    1.2930 C   0  0  0  0  0  0  0  0  0  0  0  0
   -0.0880   -0.4280    1.6120 C   0  0  0  0  0  0  0  0  0  0  0  0
   -1.0230   -0.1650    0.4520 C   0  0  2  0  0  0  0  0  0  0  0  0
   -2.4500   -0.3540    0.8270 C   0  0  1  0  0  0  0  0  0  0  0  0
   -2.6140   -1.4960    1.8420 C   0  0  0  0  0  0  0  0  0  0  0  0
   -2.8550    0.9040    1.6120 C   0  0  0  0  0  0  0  0  0  0  0  0
   -3.3110    2.0040    0.7090 C   0  0  0  0  0  0  0  0  0  0  0  0
   -4.4630    1.6430   -0.1630 C   0  0  2  0  0  0  0  0  0  0  0  0
   -5.6830    2.1660    0.3170 O   0  0  0  0  0  0  0  0  0  0  0  0
   -4.6790    0.1260   -0.2400 C   0  0  1  0  0  0  0  0  0  0  0  0
   -5.5900   -0.3550    0.8300 C   0  0  0  0  0  0  0  0  0  0  0  0
   -5.3970   -0.0970   -1.5800 C   0  0  0  0  0  0  0  0  0  0  0  0
   -3.3660   -0.5830   -0.3340 C   0  0  1  0  0  0  0  0  0  0  0  0
   -2.7280   -0.1150   -1.6460 C   0  0  0  0  0  0  0  0  0  0  0  0
   -1.4350   -0.8390   -1.9240 C   0  0  0  0  0  0  0  0  0  0  0  0
   -0.5210   -0.9360   -0.7360 C   0  0  1  0  0  0  0  0  0  0  0  0
   -0.3300   -2.3980   -0.4590 C   0  0  0  0  0  0  0  0  0  0  0  0
    3.0770    0.2840   -0.3610 C   0  0  1  0  0  0  0  0  0  0  0  0
  1  2  2  0
  2  3  1  0
  4  2  1  6
  4  5  1  0
 33  4  1  1
  5  6  1  0
  6  7  1  0
  7  8  1  1
  7 11  1  0
  7 33  1  0
  8  9  2  0
  8 10  1  0
 11 12  1  0
 12 13  1  0
 13 14  1  6
 13 15  1  0
 13 31  1  0
 15 16  1  1
 15 33  1  0
 16 17  1  0
 18 17  1  1
 18 19  1  0
 18 31  1  0
 19 20  1  1
 19 21  1  0
 19 28  1  0
 21 22  1  0
 22 23  1  0
 23 24  1  1
 23 25  1  0
 25 26  1  1
 25 27  1  0
 25 28  1  0
 28 29  1  6
 29 30  1  0
 30 31  1  0
 31 32  1  1
M  END
