
     RDKit          3D

 14 14  0  0  0  0  0  0  0  0999 V2000
    4.7980   -0.1290   -0.0860 C   0  0  0  0  0  0  0  0  0  0  0  0
    3.8270    0.8090   -0.7130 C   0  0  0  0  0  0  0  0  0  0  0  0
    2.4860    0.4790   -0.5290 O   0  0  0  0  0  0  0  0  0  0  0  0
    1.8420    0.3620    0.6820 C   0  0  0  0  0  0  0  0  0  0  0  0
    2.5290    0.5740    1.7140 O   0  0  0  0  0  0  0  0  0  0  0  0
    0.4280    0.0140    0.8650 C   0  0  0  0  0  0  0  0  0  0  0  0
   -0.2550   -0.2030   -0.3490 O   0  0  0  0  0  0  0  0  0  0  0  0
   -1.6210   -0.5410   -0.2180 C   0  0  0  0  0  0  0  0  0  0  0  0
   -1.9800   -1.7990   -0.3590 C   0  0  0  0  0  0  0  0  0  0  0  0
   -3.4010   -2.1780   -0.2270 C   0  0  0  0  0  0  0  0  0  0  0  0
   -4.2540   -1.0980    0.0480 O   0  0  0  0  0  0  0  0  0  0  0  0
   -3.8580    0.2070    0.1910 C   0  0  0  0  0  0  0  0  0  0  0  0
   -2.5820    0.5020    0.0660 C   0  0  0  0  0  0  0  0  0  0  0  0
   -2.1850    1.9290    0.2260 C   0  0  0  0  0  0  0  0  0  0  0  0
  1  2  1  0
  2  3  1  0
  3  4  1  0
  4  5  2  0
  4  6  1  0
  6  7  1  0
  7  8  1  0
  8  9  2  0
  8 13  1  0
  9 10  1  0
 10 11  1  0
 11 12  1  0
 12 13  2  0
 13 14  1  0
M  END
