
     RDKit          3D

 14 14  0  0  0  0  0  0  0  0999 V2000
   -3.7100    1.8260    0.5160 C   0  0  0  0  0  0  0  0  0  0  0  0
   -3.7910    0.4290   -0.0070 C   0  0  0  0  0  0  0  0  0  0  0  0
   -2.4600   -0.0850   -0.1470 O   0  0  0  0  0  0  0  0  0  0  0  0
   -2.3020   -1.3780   -0.6230 C   0  0  0  0  0  0  0  0  0  0  0  0
   -3.3280   -2.0430   -0.9100 O   0  0  0  0  0  0  0  0  0  0  0  0
   -0.9550   -2.0050   -0.8040 C   0  0  0  0  0  0  0  0  0  0  0  0
    0.0610   -1.0940   -0.4250 O   0  0  0  0  0  0  0  0  0  0  0  0
    1.3940   -1.3550   -0.4700 C   0  0  0  0  0  0  0  0  0  0  0  0
    1.7870   -2.4740   -0.8720 O   0  0  0  0  0  0  0  0  0  0  0  0
    2.4270   -0.3720   -0.0640 C   0  0  0  0  0  0  0  0  0  0  0  0
    2.2100    0.8490    0.3830 C   0  0  0  0  0  0  0  0  0  0  0  0
    3.4890    1.5250    0.6840 C   0  0  0  0  0  0  0  0  0  0  0  0
    4.5000    0.5110    0.3460 C   0  0  0  0  0  0  0  0  0  0  0  0
    3.8660   -0.5660   -0.0800 C   0  0  0  0  0  0  0  0  0  0  0  0
  1  2  1  0
  2  3  1  0
  3  4  1  0
  4  5  2  0
  4  6  1  0
  6  7  1  0
  7  8  1  0
  8  9  2  0
  8 10  1  0
 10 11  2  0
 10 14  1  0
 11 12  1  0
 12 13  1  0
 13 14  2  0
M  END
