
     RDKit          3D

 14 14  0  0  0  0  0  0  0  0999 V2000
   -1.8550   -0.8320   -1.3110 C   0  0  0  0  0  0  0  0  0  0  0  0
   -2.5530   -0.0030   -0.5680 C   0  0  0  0  0  0  0  0  0  0  0  0
   -3.9980    0.2450   -0.6490 C   0  0  0  0  0  0  0  0  0  0  0  0
   -4.2800    1.1440    0.2730 C   0  0  0  0  0  0  0  0  0  0  0  0
   -3.0680    1.4980    0.9620 C   0  0  0  0  0  0  0  0  0  0  0  0
   -2.0230    0.8370    0.4910 C   0  0  0  0  0  0  0  0  0  0  0  0
   -0.6540    0.9570    0.9600 C   0  0  0  0  0  0  0  0  0  0  0  0
   -0.4030    1.7550    1.9030 O   0  0  0  0  0  0  0  0  0  0  0  0
    0.4010    0.2570    0.4470 O   0  0  0  0  0  0  0  0  0  0  0  0
    1.7250    0.3390    0.8640 C   0  0  0  0  0  0  0  0  0  0  0  0
    2.6280   -0.5490    0.1060 C   0  0  0  0  0  0  0  0  0  0  0  0
    2.1420   -1.2640   -0.8030 O   0  0  0  0  0  0  0  0  0  0  0  0
    3.9820   -0.6270    0.3540 O   0  0  0  0  0  0  0  0  0  0  0  0
    4.8570   -1.4710   -0.3630 C   0  0  0  0  0  0  0  0  0  0  0  0
  1  2  2  0
  2  3  1  0
  2  6  1  0
  3  4  2  0
  4  5  1  0
  5  6  2  0
  6  7  1  0
  7  8  2  0
  7  9  1  0
  9 10  1  0
 10 11  1  0
 11 12  2  0
 11 13  1  0
 13 14  1  0
M  END
