
     RDKit          3D

 14 14  0  0  0  0  0  0  0  0999 V2000
    3.9980   -0.4430   -1.1870 O   0  0  0  0  0  0  0  0  0  0  0  0
    3.4040    0.3860   -0.4370 C   0  0  0  0  0  0  0  0  0  0  0  0
    4.0320    1.6000   -0.2150 O   0  0  0  0  0  0  0  0  0  0  0  0
    2.1180    0.0820    0.1670 C   0  0  0  0  0  0  0  0  0  0  0  0
    1.5580    0.9370    0.9110 O   0  0  0  0  0  0  0  0  0  0  0  0
    1.4380   -1.2330   -0.0760 C   0  0  0  0  0  0  0  0  0  0  0  0
    0.1800   -1.2880    0.7030 C   0  0  0  0  0  0  0  0  0  0  0  0
    0.1440   -1.9840    1.7350 O   0  0  0  0  0  0  0  0  0  0  0  0
   -0.9780   -0.5280    0.2440 C   0  0  0  0  0  0  0  0  0  0  0  0
   -0.9420    0.2520   -0.8980 C   0  0  0  0  0  0  0  0  0  0  0  0
   -2.0200    0.9810   -1.3420 C   0  0  0  0  0  0  0  0  0  0  0  0
   -3.1750    0.9150   -0.5980 C   0  0  0  0  0  0  0  0  0  0  0  0
   -3.2930    0.1610    0.5510 C   0  0  0  0  0  0  0  0  0  0  0  0
   -2.1710   -0.5490    0.9430 C   0  0  0  0  0  0  0  0  0  0  0  0
  1  2  2  0
  2  3  1  0
  2  4  1  0
  4  5  2  0
  4  6  1  0
  6  7  1  0
  7  8  2  0
  7  9  1  0
  9 10  2  0
  9 14  1  0
 10 11  1  0
 11 12  2  0
 12 13  1  0
 13 14  2  0
M  END
