
     RDKit          3D

 14 14  0  0  0  0  0  0  0  0999 V2000
   -1.3560   -2.0970   -1.1590 C   0  0  0  0  0  0  0  0  0  0  0  0
   -1.0750   -1.5600    0.2590 C   0  0  0  0  0  0  0  0  0  0  0  0
   -1.3980   -0.1440    0.3560 C   0  0  0  0  0  0  0  0  0  0  0  0
   -0.5160    0.7720    0.5860 C   0  0  0  0  0  0  0  0  0  0  0  0
    0.9130    0.5770    0.7820 C   0  0  0  0  0  0  0  0  0  0  0  0
    1.6770    1.5620    1.0090 O   0  0  0  0  0  0  0  0  0  0  0  0
    1.4740   -0.6350    0.7290 O   0  0  0  0  0  0  0  0  0  0  0  0
    2.7810   -1.0480    0.8690 C   0  0  0  0  0  0  0  0  0  0  0  0
    3.6400   -0.5180   -0.2430 C   0  0  0  0  0  0  0  0  0  0  0  0
    3.6630    0.8390   -0.2850 O   0  0  0  0  0  0  0  0  0  0  0  0
   -0.9460    2.2220    0.6770 C   0  0  0  0  0  0  0  0  0  0  0  0
   -2.2020    2.3620   -0.1180 C   0  0  0  0  0  0  0  0  0  0  0  0
   -3.1400    1.5230    0.4900 O   0  0  0  0  0  0  0  0  0  0  0  0
   -2.8530    0.2300    0.1710 C   0  0  0  0  0  0  0  0  0  0  0  0
  1  2  1  0
  2  3  1  0
  3  4  2  0
  3 14  1  0
  4  5  1  0
  4 11  1  0
  5  6  2  0
  5  7  1  0
  7  8  1  0
  8  9  1  0
  9 10  1  0
 11 12  1  0
 12 13  1  0
 13 14  1  0
M  END
