
     RDKit          3D

 11 12  0  0  0  0  0  0  0  0999 V2000
    3.8760   -0.9100    0.0720 O   0  0  0  0  0  0  0  0  0  0  0  0
    2.6000   -0.3540    0.0810 C   0  0  0  0  0  0  0  0  0  0  0  0
    2.4100    0.9700   -0.2550 C   0  0  0  0  0  0  0  0  0  0  0  0
    1.1540    1.5680   -0.2600 C   0  0  0  0  0  0  0  0  0  0  0  0
    0.0450    0.8360    0.0790 C   0  0  0  0  0  0  0  0  0  0  0  0
    0.2350   -0.4960    0.4170 C   0  0  0  0  0  0  0  0  0  0  0  0
    1.4810   -1.0870    0.4220 C   0  0  0  0  0  0  0  0  0  0  0  0
   -1.0120   -1.2480    0.7780 C   0  0  0  0  0  0  0  0  0  0  0  0
   -2.0780   -0.9480   -0.2250 C   0  0  0  0  0  0  0  0  0  0  0  0
   -2.2280    0.4910   -0.5750 C   0  0  0  0  0  0  0  0  0  0  0  0
   -1.2770    1.3490    0.1050 N   0  0  0  0  0  0  0  0  0  0  0  0
  1  2  1  0
  2  3  2  0
  2  7  1  0
  3  4  1  0
  4  5  2  0
  5  6  1  0
  5 11  1  0
  6  7  2  0
  6  8  1  0
  8  9  1  0
  9 10  1  0
 10 11  1  0
M  CHG  1  11   1
M  END
