
     RDKit          3D

  8  8  0  0  0  0  0  0  0  0999 V2000
   -1.7610    0.9800   -0.0210 N   0  0  0  0  0  0  0  0  0  0  0  0
   -0.4260    0.4590   -0.0250 C   0  0  0  0  0  0  0  0  0  0  0  0
    0.6240    1.3460   -0.1290 C   0  0  0  0  0  0  0  0  0  0  0  0
    1.8990    0.7860   -0.1280 C   0  0  0  0  0  0  0  0  0  0  0  0
    2.0520   -0.5820   -0.0260 C   0  0  0  0  0  0  0  0  0  0  0  0
    1.0050   -1.4220    0.0750 N   0  0  0  0  0  0  0  0  0  0  0  0
   -0.2530   -0.8950    0.0760 C   0  0  0  0  0  0  0  0  0  0  0  0
   -1.3920   -1.7420    0.1800 N   0  0  0  0  0  0  0  0  0  0  0  0
  1  2  1  0
  2  3  2  0
  2  7  1  0
  3  4  1  0
  4  5  2  0
  5  6  1  0
  6  7  2  0
  7  8  1  0
M  END
