
     RDKit          3D

 11 12  0  0  0  0  0  0  0  0999 V2000
   -3.6910    1.2880    1.3540 O   0  0  0  0  0  0  0  0  0  0  0  0
   -2.7330    0.5770    0.6290 C   0  0  0  0  0  0  0  0  0  0  0  0
   -3.1560   -0.4950   -0.1270 C   0  0  0  0  0  0  0  0  0  0  0  0
   -2.2050   -1.1920   -0.8400 C   0  0  0  0  0  0  0  0  0  0  0  0
   -0.8610   -0.8420   -0.8110 C   0  0  0  0  0  0  0  0  0  0  0  0
   -0.4330    0.2300   -0.0560 C   0  0  0  0  0  0  0  0  0  0  0  0
    0.9380    0.6310    0.0070 N   0  0  0  0  0  0  0  0  0  0  0  0
    1.8440   -0.4760    0.0400 C   0  0  1  0  0  0  0  0  0  0  0  0
    3.1120   -0.3010   -0.7680 C   0  0  0  0  0  0  0  0  0  0  0  0
    3.2010   -0.1920    0.6980 C   0  0  0  0  0  0  0  0  0  0  0  0
   -1.3960    0.9220    0.6550 C   0  0  0  0  0  0  0  0  0  0  0  0
  1  2  1  0
  2  3  2  0
  2 11  1  0
  3  4  1  0
  4  5  2  0
  5  6  1  0
  6  7  1  0
  6 11  2  0
  8  7  1  6
  8  9  1  0
  8 10  1  0
  9 10  1  0
M  CHG  1   7   1
M  END
