
     RDKit          3D

 11 11  0  0  0  0  0  0  0  0999 V2000
    2.8700   -0.4560    0.3910 C   0  0  0  0  0  0  0  0  0  0  0  0
    1.4440   -0.6280    0.2470 C   0  0  0  0  0  0  0  0  0  0  0  0
    0.9180   -1.9040    0.3060 C   0  0  0  0  0  0  0  0  0  0  0  0
   -0.4140   -2.1050    0.1750 N   0  0  0  0  0  0  0  0  0  0  0  0
   -1.2320   -1.0600   -0.0130 C   0  0  0  0  0  0  0  0  0  0  0  0
   -2.6970   -1.2520   -0.1600 C   0  0  0  0  0  0  0  0  0  0  0  0
   -0.7470    0.2540   -0.0800 C   0  0  0  0  0  0  0  0  0  0  0  0
   -1.7150    1.3690   -0.2920 C   0  0  0  0  0  0  0  0  0  0  0  0
    0.6010    0.4550    0.0530 C   0  0  0  0  0  0  0  0  0  0  0  0
    1.1810    1.7660   -0.0030 C   0  0  0  0  0  0  0  0  0  0  0  0
    0.2970    2.8140   -0.1990 O   0  0  0  0  0  0  0  0  0  0  0  0
  1  2  1  0
  2  3  2  0
  2  9  1  0
  3  4  1  0
  4  5  2  0
  5  6  1  0
  5  7  1  0
  7  8  1  0
  7  9  2  0
  9 10  1  0
 10 11  1  0
M  CHG  1   4   1
M  END
