
     RDKit          3D

 11 12  0  0  0  0  0  0  0  0999 V2000
    3.3280    0.0810    0.0370 N   0  0  0  0  0  0  0  0  0  0  0  0
    1.8810    0.1520   -0.0390 C   0  0  0  0  0  0  0  0  0  0  0  0
    1.2940    1.2160   -0.5260 C   0  0  0  0  0  0  0  0  0  0  0  0
   -0.1380    1.3840   -0.6440 C   0  0  0  0  0  0  0  0  0  0  0  0
   -0.9460    0.4150   -0.2420 C   0  0  0  0  0  0  0  0  0  0  0  0
   -2.4190    0.2800   -0.2280 C   0  0  0  0  0  0  0  0  0  0  0  0
   -3.3090    1.2450   -0.6810 O   0  0  0  0  0  0  0  0  0  0  0  0
   -2.6420   -0.9040    0.2870 C   0  0  0  0  0  0  0  0  0  0  0  0
   -1.3980   -1.5670    0.6180 C   0  0  0  0  0  0  0  0  0  0  0  0
   -0.3450   -0.7820    0.3040 C   0  0  0  0  0  0  0  0  0  0  0  0
    1.1080   -0.9980    0.4440 C   0  0  0  0  0  0  0  0  0  0  0  0
  1  2  1  0
  2  3  2  0
  2 11  1  0
  3  4  1  0
  4  5  2  0
  5  6  1  0
  5 10  1  0
  6  7  1  0
  6  8  2  0
  8  9  1  0
  9 10  2  0
 10 11  1  0
M  END
