
     RDKit          3D

 11 11  0  0  0  0  0  0  0  0999 V2000
    0.7180    2.0680    0.6070 C   0  0  0  0  0  0  0  0  0  0  0  0
    1.3680    0.9710    0.2930 C   0  0  0  0  0  0  0  0  0  0  0  0
    2.8370    0.9380    0.4960 C   0  0  0  0  0  0  0  0  0  0  0  0
    3.4490   -0.3510    0.1050 C   0  0  0  0  0  0  0  0  0  0  0  0
    2.7560   -1.3670   -0.3760 C   0  0  0  0  0  0  0  0  0  0  0  0
    1.3090   -1.2710   -0.5520 C   0  0  0  0  0  0  0  0  0  0  0  0
    0.6400   -0.1790   -0.2430 C   0  0  0  0  0  0  0  0  0  0  0  0
   -0.7260   -0.1450   -0.4310 O   0  0  0  0  0  0  0  0  0  0  0  0
   -1.5840   -0.9960    0.3350 C   0  0  0  0  0  0  0  0  0  0  0  0
   -3.0250   -0.7560   -0.0700 C   0  0  0  0  0  0  0  0  0  0  0  0
   -3.4030    0.6090    0.1620 N   0  0  0  0  0  0  0  0  0  0  0  0
  1  2  2  0
  2  3  1  0
  2  7  1  0
  3  4  1  0
  4  5  2  0
  5  6  1  0
  6  7  2  0
  7  8  1  0
  8  9  1  0
  9 10  1  0
 10 11  1  0
M  CHG  1  11   1
M  END
