
     RDKit          3D

 11 11  0  0  0  0  0  0  0  0999 V2000
    2.9290    0.4480   -0.4520 C   0  0  0  0  0  0  0  0  0  0  0  0
    2.0140   -0.3030    0.3540 N   0  0  0  0  0  0  0  0  0  0  0  0
    0.6660   -0.3420   -0.2040 C   0  0  1  0  0  0  0  0  0  0  0  0
    0.0540   -1.6330    0.2230 C   0  0  0  0  0  0  0  0  0  0  0  0
   -1.1480   -2.0240   -0.5980 C   0  0  0  0  0  0  0  0  0  0  0  0
   -2.3320   -1.3770    0.0970 C   0  0  0  0  0  0  0  0  0  0  0  0
   -2.4830    0.0290   -0.3900 C   0  0  0  0  0  0  0  0  0  0  0  0
   -1.4480    0.9600    0.0500 C   0  0  0  0  0  0  0  0  0  0  0  0
   -0.1200    0.8440    0.1440 C   0  0  0  0  0  0  0  0  0  0  0  0
    0.5930    2.0470    0.6490 C   0  0  0  0  0  0  0  0  0  0  0  0
   -0.3390    3.0690    0.9220 O   0  0  0  0  0  0  0  0  0  0  0  0
  1  2  1  0
  3  2  1  1
  3  4  1  0
  3  9  1  0
  4  5  1  0
  5  6  1  0
  6  7  1  0
  7  8  1  0
  8  9  2  0
  9 10  1  0
 10 11  1  0
M  CHG  1   2   1
M  END
