
     RDKit          3D

 21 21  0  0  0  0  0  0  0  0999 V2000
   -4.2360    1.6590   -0.8900 C   0  0  0  0  0  0  0  0  0  0  0  0
   -4.3590    0.4710   -0.0600 C   0  0  0  0  0  0  0  0  0  0  0  0
   -3.1980   -0.0670    0.2890 C   0  0  0  0  0  0  0  0  0  0  0  0
   -2.0150   -0.5440    0.6190 C   0  0  0  0  0  0  0  0  0  0  0  0
   -1.4620   -0.0010    1.8250 C   0  0  0  0  0  0  0  0  0  0  0  0
   -0.2210    0.3530    2.1040 C   0  0  0  0  0  0  0  0  0  0  0  0
    0.0580    0.9040    3.4920 C   0  0  0  0  0  0  0  0  0  0  0  0
    0.8680    0.2830    1.2760 O   0  0  0  0  0  0  0  0  0  0  0  0
    1.0470    0.5940   -0.0210 N   0  0  0  0  0  0  0  0  0  0  0  0
    2.2230    0.2440   -0.7310 C   0  0  0  0  0  0  0  0  0  0  0  0
    2.3620    0.5460   -1.9380 O   0  0  0  0  0  0  0  0  0  0  0  0
    3.2790   -0.4450   -0.1430 O   0  0  0  0  0  0  0  0  0  0  0  0
    4.3530   -0.7390   -0.8770 O   0  0  0  0  0  0  0  0  0  0  0  0
    5.5360   -0.4970   -0.1770 C   0  0  0  0  0  0  0  0  0  0  0  0
    0.1430    1.2570   -0.7710 O   0  0  0  0  0  0  0  0  0  0  0  0
    0.0500    0.6540   -1.9810 N   0  0  0  0  0  0  0  0  0  0  0  0
   -0.6640   -0.4840   -1.9370 O   0  0  0  0  0  0  0  0  0  0  0  0
   -0.0400   -1.5190   -2.4610 O   0  0  0  0  0  0  0  0  0  0  0  0
    0.0500   -2.4650   -1.4760 C   0  0  0  0  0  0  0  0  0  0  0  0
   -0.4100   -2.1560   -0.2340 O   0  0  0  0  0  0  0  0  0  0  0  0
   -1.5520   -1.4660   -0.2610 O   0  0  0  0  0  0  0  0  0  0  0  0
  1  2  1  0
  2  3  2  0
  3  4  2  0
  4  5  1  0
  4 21  1  0
  5  6  2  0
  6  7  1  0
  6  8  1  0
  8  9  1  0
  9 10  1  0
  9 15  1  0
 10 11  2  0
 10 12  1  0
 12 13  1  0
 13 14  1  0
 15 16  1  0
 16 17  1  0
 17 18  1  0
 18 19  1  0
 19 20  1  0
 20 21  1  0
M  END
