
     RDKit          3D

 25 26  0  0  0  0  0  0  0  0999 V2000
   -2.8380    4.4750   -0.5220 C   0  0  0  0  0  0  0  0  0  0  0  0
   -1.4170    3.9910   -0.6170 C   0  0  0  0  0  0  0  0  0  0  0  0
   -1.0710    2.7610   -0.4310 C   0  0  0  0  0  0  0  0  0  0  0  0
   -2.0380    1.7300   -0.1120 C   0  0  0  0  0  0  0  0  0  0  0  0
   -1.7550    0.4560   -0.0110 C   0  0  0  0  0  0  0  0  0  0  0  0
   -2.8580   -0.4810    0.3220 C   0  0  0  0  0  0  0  0  0  0  0  0
   -4.1160   -0.0800    0.4670 C   0  0  0  0  0  0  0  0  0  0  0  0
   -5.2330   -0.9350    0.7870 C   0  0  0  0  0  0  0  0  0  0  0  0
   -6.4100   -0.4690    0.9160 O   0  0  0  0  0  0  0  0  0  0  0  0
   -2.5000   -1.8820    0.4850 C   0  0  0  0  0  0  0  0  0  0  0  0
   -3.1130   -2.6460    1.2470 O   0  0  0  0  0  0  0  0  0  0  0  0
   -1.3290   -2.3740   -0.3260 C   0  0  2  0  0  0  0  0  0  0  0  0
   -1.6970   -2.2340   -1.7760 C   0  0  0  0  0  0  0  0  0  0  0  0
   -1.0370   -3.7730    0.1030 C   0  0  0  0  0  0  0  0  0  0  0  0
   -0.2530   -1.4850   -0.0320 O   0  0  0  0  0  0  0  0  0  0  0  0
   -0.4360   -0.0880   -0.1520 C   0  0  0  0  0  0  0  0  0  0  0  0
    0.6860    0.5570   -0.3930 C   0  0  0  0  0  0  0  0  0  0  0  0
    1.9270   -0.0890   -0.5110 N   0  0  0  0  0  0  0  0  0  0  0  0
    2.5460   -0.6020    0.6920 C   0  0  0  0  0  0  0  0  0  0  0  0
    3.8590   -1.2450    0.3570 C   0  0  0  0  0  0  0  0  0  0  0  0
    4.7800   -0.2370   -0.2690 C   0  0  0  0  0  0  0  0  0  0  0  0
    5.0400    1.1390    0.9500 P   0  0  0  0  0  0  0  0  0  0  0  0
    6.3680    0.7680    1.9870 O   0  0  0  0  0  0  0  0  0  0  0  0
    5.1820    2.6690    0.1910 O   0  0  0  0  0  0  0  0  0  0  0  0
    0.6490    2.3210   -0.5750 S   0  0  0  0  0  0  0  0  0  0  0  0
  1  2  1  0
  2  3  2  3
  3  4  1  0
  3 25  1  0
  4  5  2  0
  5  6  1  0
  5 16  1  0
  6  7  2  3
  6 10  1  0
  7  8  1  0
  8  9  2  0
 10 11  2  0
 10 12  1  0
 12 13  1  6
 12 14  1  0
 12 15  1  0
 15 16  1  0
 16 17  2  0
 17 18  1  0
 17 25  1  0
 18 19  1  0
 19 20  1  0
 20 21  1  0
 21 22  1  0
 22 23  1  0
 22 24  1  0
M  END
