
     RDKit          3D

 22 22  0  0  0  0  0  0  0  0999 V2000
   -5.8810   -0.7980   -0.3870 N   0  0  0  0  0  0  0  0  0  0  0  0
   -4.7930    0.1200   -0.4010 C   0  0  0  0  0  0  0  0  0  0  0  0
   -4.7120    0.9140   -1.3470 O   0  0  0  0  0  0  0  0  0  0  0  0
   -3.8070    0.1080    0.6840 C   0  0  2  0  0  0  0  0  0  0  0  0
   -4.5680    0.4110    1.9730 C   0  0  0  0  0  0  0  0  0  0  0  0
   -5.5770   -0.5250    2.1520 O   0  0  0  0  0  0  0  0  0  0  0  0
   -2.7760    1.0470    0.4820 N   0  0  0  0  0  0  0  0  0  0  0  0
   -1.8050    0.5980   -0.8210 P   0  0  0  0  0  0  0  0  0  0  0  0
   -0.5600    1.5280   -1.2940 O   0  0  0  0  0  0  0  0  0  0  0  0
   -2.3710   -0.6390   -1.8180 O   0  0  0  0  0  0  0  0  0  0  0  0
   -0.8900   -0.4560    0.0290 C   0  0  0  0  0  0  0  0  0  0  0  0
    0.2600   -1.0500   -0.6100 N   0  0  0  0  0  0  0  0  0  0  0  0
    1.4650   -0.3730   -0.8790 C   0  0  0  0  0  0  0  0  0  0  0  0
    1.7080    0.8180   -0.5890 O   0  0  0  0  0  0  0  0  0  0  0  0
    2.4610   -1.1230   -1.5300 O   0  0  0  0  0  0  0  0  0  0  0  0
    3.7160   -0.6130   -1.8740 C   0  0  0  0  0  0  0  0  0  0  0  0
    4.4950   -0.1390   -0.6990 C   0  0  0  0  0  0  0  0  0  0  0  0
    5.1370   -1.0290    0.1540 C   0  0  0  0  0  0  0  0  0  0  0  0
    5.8590   -0.5790    1.2360 C   0  0  0  0  0  0  0  0  0  0  0  0
    5.9820    0.7610    1.5260 C   0  0  0  0  0  0  0  0  0  0  0  0
    5.3500    1.6500    0.6870 C   0  0  0  0  0  0  0  0  0  0  0  0
    4.6180    1.2020   -0.4090 C   0  0  0  0  0  0  0  0  0  0  0  0
  1  2  1  0
  2  3  2  0
  2  4  1  0
  4  5  1  1
  4  7  1  0
  5  6  1  0
  7  8  1  0
  8  9  1  0
  8 10  1  0
  8 11  1  0
 11 12  1  0
 12 13  1  0
 13 14  2  0
 13 15  1  0
 15 16  1  0
 16 17  1  0
 17 18  2  0
 17 22  1  0
 18 19  1  0
 19 20  2  0
 20 21  1  0
 21 22  2  0
M  END
