
     RDKit          3D

 26 27  0  0  0  0  0  0  0  0999 V2000
   -0.0760    0.9010   -2.7220 O   0  0  0  0  0  0  0  0  0  0  0  0
   -0.0660   -0.5540   -2.1520 P   0  0  0  0  0  0  0  0  0  0  0  0
   -1.3790   -0.9200   -0.8260 C   0  0  0  0  0  0  0  0  0  0  0  0
   -2.3670   -1.6730   -1.2330 C   0  0  0  0  0  0  0  0  0  0  0  0
   -3.5530   -2.1870   -0.6040 C   0  0  0  0  0  0  0  0  0  0  0  0
   -4.8060   -1.7760   -0.5960 C   0  0  0  0  0  0  0  0  0  0  0  0
   -5.3860   -0.6020   -1.2760 C   0  0  0  0  0  0  0  0  0  0  0  0
   -4.4370    0.1980   -2.0410 C   0  0  0  0  0  0  0  0  0  0  0  0
   -3.8070    1.2670   -1.5790 C   0  0  0  0  0  0  0  0  0  0  0  0
   -4.0030    1.9230    0.0660 S   0  0  0  0  0  0  0  0  0  0  0  0
   -4.1980    0.5880    1.2200 C   0  0  0  0  0  0  0  0  0  0  0  0
   -3.1940   -0.1060    1.7000 C   0  0  0  0  0  0  0  0  0  0  0  0
   -1.7900   -0.0170    1.4720 C   0  0  0  0  0  0  0  0  0  0  0  0
   -1.0320   -0.3390    0.4560 C   0  0  0  0  0  0  0  0  0  0  0  0
    0.3740   -0.0650    0.6610 O   0  0  0  0  0  0  0  0  0  0  0  0
    0.9130    0.3410    1.8630 C   0  0  0  0  0  0  0  0  0  0  0  0
    2.3980    0.5390    1.7700 C   0  0  0  0  0  0  0  0  0  0  0  0
    3.0750    0.9090    2.7620 O   0  0  0  0  0  0  0  0  0  0  0  0
    3.1070    0.3140    0.5480 N   0  0  0  0  0  0  0  0  0  0  0  0
    4.5280    0.5060    0.4700 C   0  0  2  0  0  0  0  0  0  0  0  0
    4.9250    1.5750   -0.5160 C   0  0  0  0  0  0  0  0  0  0  0  0
    6.3310    1.7830   -0.3410 O   0  0  0  0  0  0  0  0  0  0  0  0
    7.1480    0.7160    0.0170 C   0  0  0  0  0  0  0  0  0  0  0  0
    8.3470    0.9640    0.2990 O   0  0  0  0  0  0  0  0  0  0  0  0
    6.6240   -0.5580    0.0490 O   0  0  0  0  0  0  0  0  0  0  0  0
    5.2360   -0.7960    0.1560 C   0  0  0  0  0  0  0  0  0  0  0  0
  1  2  2  0
  2  3  1  0
  3  4  2  0
  3 14  1  0
  4  5  1  0
  5  6  2  0
  6  7  1  0
  7  8  1  0
  8  9  2  0
  9 10  1  0
 10 11  1  0
 11 12  2  0
 12 13  1  0
 13 14  2  0
 14 15  1  0
 15 16  1  0
 16 17  1  0
 17 18  2  0
 17 19  1  0
 20 19  1  6
 20 21  1  0
 20 26  1  0
 21 22  1  0
 22 23  1  0
 23 24  2  0
 23 25  1  0
 25 26  1  0
M  END
