
     RDKit          3D

 26 27  0  0  0  0  0  0  0  0999 V2000
    5.1940   -1.9090    3.4160 C   0  0  0  0  0  0  0  0  0  0  0  0
    4.8890   -1.3290    2.1050 C   0  0  0  0  0  0  0  0  0  0  0  0
    3.6150   -1.1130    1.7600 C   0  0  0  0  0  0  0  0  0  0  0  0
    3.2620   -0.5390    0.4670 C   0  0  0  0  0  0  0  0  0  0  0  0
    2.0070   -0.3410    0.1620 C   0  0  0  0  0  0  0  0  0  0  0  0
    1.4340    0.2010   -1.0310 C   0  0  0  0  0  0  0  0  0  0  0  0
    0.1190    0.3220   -1.1490 C   0  0  0  0  0  0  0  0  0  0  0  0
   -0.8530   -0.0440   -0.1760 C   0  0  0  0  0  0  0  0  0  0  0  0
   -2.1870    0.1230   -0.3990 C   0  0  0  0  0  0  0  0  0  0  0  0
   -2.6920    0.6800   -1.6330 C   0  0  0  0  0  0  0  0  0  0  0  0
   -4.0000    0.7930   -1.7350 N   0  0  0  0  0  0  0  0  0  0  0  0
   -4.8400    0.3870   -0.6850 C   0  0  0  0  0  0  0  0  0  0  0  0
   -6.6710    0.4410   -0.5830 S   0  0  0  0  0  0  0  0  0  0  0  0
   -6.6910   -0.2860    1.1120 C   0  0  0  0  0  0  0  0  0  0  0  0
   -5.4150   -0.4760    1.3970 C   0  0  0  0  0  0  0  0  0  0  0  0
   -5.0480   -1.0410    2.6660 O   0  0  0  0  0  0  0  0  0  0  0  0
   -5.9810   -1.4030    3.6250 C   0  0  0  0  0  0  0  0  0  0  0  0
   -4.4520   -0.1470    0.5110 C   0  0  0  0  0  0  0  0  0  0  0  0
   -3.0380   -0.2660    0.6130 O   0  0  0  0  0  0  0  0  0  0  0  0
    2.2840    0.6340   -2.1430 C   0  0  0  0  0  0  0  0  0  0  0  0
    3.5050    0.5450   -2.0880 O   0  0  0  0  0  0  0  0  0  0  0  0
    1.7160    1.1660   -3.3120 O   0  0  0  0  0  0  0  0  0  0  0  0
    2.5720    1.5690   -4.3570 C   0  0  0  0  0  0  0  0  0  0  0  0
    3.5010    2.6350   -3.8870 C   0  0  0  0  0  0  0  0  0  0  0  0
    4.3300    3.0940   -4.7250 O   0  0  0  0  0  0  0  0  0  0  0  0
    3.4920    3.1280   -2.6070 O   0  0  0  0  0  0  0  0  0  0  0  0
  1  2  1  0
  2  3  2  3
  3  4  1  0
  4  5  2  3
  5  6  1  0
  6  7  2  3
  6 20  1  0
  7  8  1  0
  8  9  2  3
  9 10  1  0
  9 19  1  0
 10 11  2  0
 11 12  1  0
 12 13  1  0
 12 18  2  0
 13 14  1  0
 14 15  2  0
 15 16  1  0
 15 18  1  0
 16 17  1  0
 18 19  1  0
 20 21  2  0
 20 22  1  0
 22 23  1  0
 23 24  1  0
 24 25  2  0
 24 26  1  0
M  END
