
     RDKit          3D

 25 26  0  0  0  0  0  0  0  0999 V2000
   -6.3340    1.0190   -0.2590 N   0  0  0  0  0  0  0  0  0  0  0  0
   -5.2920    0.0950   -0.0350 C   0  0  0  0  0  0  0  0  0  0  0  0
   -5.5310   -1.0020    0.4970 O   0  0  0  0  0  0  0  0  0  0  0  0
   -3.9100    0.4370   -0.4370 C   0  0  2  0  0  0  0  0  0  0  0  0
   -3.0010   -0.5440   -0.1360 O   0  0  0  0  0  0  0  0  0  0  0  0
   -2.2190   -0.2150    0.9200 C   0  0  1  0  0  0  0  0  0  0  0  0
   -2.6200   -1.1090    2.1090 C   0  0  0  0  0  0  0  0  0  0  0  0
   -1.8020   -0.7820    3.2190 O   0  0  0  0  0  0  0  0  0  0  0  0
   -0.7750   -0.5570    0.6670 C   0  0  0  0  0  0  0  0  0  0  0  0
   -0.1520    0.1210   -0.5040 C   0  0  0  0  0  0  0  0  0  0  0  0
    1.2720   -0.3530   -0.5870 C   0  0  0  0  0  0  0  0  0  0  0  0
    2.3070    0.4100   -0.1930 N   0  0  0  0  0  0  0  0  0  0  0  0
    3.5830   -0.0090   -0.2630 C   0  0  0  0  0  0  0  0  0  0  0  0
    4.6710    0.8190    0.1620 N   0  0  0  0  0  0  0  0  0  0  0  0
    6.0090    0.3600    0.0800 C   0  0  0  0  0  0  0  0  0  0  0  0
    6.1860   -0.8010   -0.3810 O   0  0  0  0  0  0  0  0  0  0  0  0
    7.1660    1.2030    0.5180 C   0  0  0  0  0  0  0  0  0  0  0  0
    8.3650    0.5460    0.3460 O   0  0  0  0  0  0  0  0  0  0  0  0
    3.7920   -1.2470   -0.7520 N   0  0  0  0  0  0  0  0  0  0  0  0
    2.8250   -2.0790   -1.1680 C   0  0  0  0  0  0  0  0  0  0  0  0
    1.5230   -1.6200   -1.0840 C   0  0  0  0  0  0  0  0  0  0  0  0
    0.4370   -2.4120   -1.4930 N   0  0  0  0  0  0  0  0  0  0  0  0
   -2.4600    1.1990    1.2700 C   0  0  0  0  0  0  0  0  0  0  0  0
   -3.4110    1.6820    0.2280 C   0  0  1  0  0  0  0  0  0  0  0  0
   -2.5840    2.7000   -1.0360 S   0  0  0  0  0  0  0  0  0  0  0  0
  1  2  1  0
  2  3  2  0
  4  2  1  1
  4  5  1  0
  4 24  1  0
  5  6  1  0
  6  7  1  1
  6  9  1  0
  6 23  1  0
  7  8  1  0
  9 10  1  0
 10 11  1  0
 11 12  2  0
 11 21  1  0
 12 13  1  0
 13 14  1  0
 13 19  2  0
 14 15  1  0
 15 16  2  0
 15 17  1  0
 17 18  1  0
 19 20  1  0
 20 21  2  0
 21 22  1  0
 23 24  1  0
 24 25  1  6
M  END
