
     RDKit          3D

 26 27  0  0  0  0  0  0  0  0999 V2000
    7.4700   -0.4190    1.8170 N   0  0  0  0  0  0  0  0  0  0  0  0
    6.8170    0.1550    0.6990 C   0  0  0  0  0  0  0  0  0  0  0  0
    7.5140    0.7600   -0.1570 O   0  0  0  0  0  0  0  0  0  0  0  0
    5.4110    0.0520    0.5450 N   0  0  0  0  0  0  0  0  0  0  0  0
    4.7610    0.6360   -0.5880 C   0  0  2  0  0  0  0  0  0  0  0  0
    3.7400    1.6810   -0.2010 C   0  0  0  0  0  0  0  0  0  0  0  0
    2.8500    1.7330   -1.4280 C   0  0  0  0  0  0  0  0  0  0  0  0
    2.6600    0.2610   -1.7040 C   0  0  2  0  0  0  0  0  0  0  0  0
    1.6090   -0.1740   -0.8060 N   0  0  0  0  0  0  0  0  0  0  0  0
    0.5040   -0.8110   -1.2520 C   0  0  0  0  0  0  0  0  0  0  0  0
    0.4280   -1.0130   -2.5420 O   0  0  0  0  0  0  0  0  0  0  0  0
   -0.5670   -1.2950   -0.6300 N   0  0  0  0  0  0  0  0  0  0  0  0
   -1.5850   -1.7400    0.0830 C   0  0  0  0  0  0  0  0  0  0  0  0
   -2.4710   -2.3050   -0.6890 O   0  0  0  0  0  0  0  0  0  0  0  0
   -1.8420   -1.7070    1.4000 N   0  0  0  0  0  0  0  0  0  0  0  0
   -3.0110   -2.2160    2.0240 C   0  0  0  0  0  0  0  0  0  0  0  0
   -4.2440   -1.5270    1.5930 C   0  0  0  0  0  0  0  0  0  0  0  0
   -5.3690   -1.9280    2.0570 O   0  0  0  0  0  0  0  0  0  0  0  0
   -4.3240   -0.4410    0.7010 N   0  0  0  0  0  0  0  0  0  0  0  0
   -5.5880    0.1680    0.3330 C   0  0  2  0  0  0  0  0  0  0  0  0
   -5.8490    0.0580   -1.1500 C   0  0  0  0  0  0  0  0  0  0  0  0
   -7.0830    1.4380   -1.2440 S   0  0  0  0  0  0  0  0  0  0  0  0
   -6.2970    2.4110    0.0470 C   0  0  0  0  0  0  0  0  0  0  0  0
   -5.5680    1.5730    0.7520 C   0  0  0  0  0  0  0  0  0  0  0  0
   -4.8030    2.0450    1.8700 O   0  0  0  0  0  0  0  0  0  0  0  0
    3.9710   -0.4000   -1.3320 C   0  0  0  0  0  0  0  0  0  0  0  0
  1  2  1  0
  2  3  2  0
  2  4  1  0
  5  4  1  1
  5  6  1  0
  5 26  1  0
  6  7  1  0
  7  8  1  0
  8  9  1  1
  8 26  1  0
  9 10  1  0
 10 11  2  0
 10 12  1  0
 12 13  1  0
 13 14  2  0
 13 15  1  0
 15 16  1  0
 16 17  1  0
 17 18  2  0
 17 19  1  0
 20 19  1  6
 20 21  1  0
 20 24  1  0
 21 22  1  0
 22 23  1  0
 23 24  2  0
 24 25  1  0
M  END
