
     RDKit          3D

 17 20  0  0  0  0  0  0  0  0999 V2000
   -0.1140    2.3540   -1.7570 O   0  0  0  0  0  0  0  0  0  0  0  0
   -0.0660    1.3480   -1.0060 C   0  0  0  0  0  0  0  0  0  0  0  0
   -1.2590    0.6680   -0.5100 C   0  0  0  0  0  0  0  0  0  0  0  0
   -2.5140    1.1130   -0.8530 C   0  0  0  0  0  0  0  0  0  0  0  0
   -3.6500    0.4800   -0.3920 C   0  0  0  0  0  0  0  0  0  0  0  0
   -3.5640   -0.6320    0.4380 C   0  0  0  0  0  0  0  0  0  0  0  0
   -2.3140   -1.0960    0.7960 C   0  0  0  0  0  0  0  0  0  0  0  0
   -1.1930   -0.4510    0.3260 C   0  0  0  0  0  0  0  0  0  0  0  0
    0.1310   -0.9430    0.7050 C   0  0  0  0  0  0  0  0  0  0  0  0
    0.6020   -1.9660    1.4720 N   0  0  0  0  0  0  0  0  0  0  0  0
    1.9280   -1.9140    1.4460 N   0  0  0  0  0  0  0  0  0  0  0  0
    2.3690   -0.8920    0.6870 C   0  0  0  0  0  0  0  0  0  0  0  0
    3.5770   -0.3570    0.2990 C   0  0  0  0  0  0  0  0  0  0  0  0
    3.5890    0.7430   -0.5210 C   0  0  0  0  0  0  0  0  0  0  0  0
    2.4440    1.3650   -0.9960 C   0  0  0  0  0  0  0  0  0  0  0  0
    1.2300    0.8060   -0.5900 C   0  0  0  0  0  0  0  0  0  0  0  0
    1.2300   -0.2780    0.2190 C   0  0  0  0  0  0  0  0  0  0  0  0
  1  2  2  0
  2  3  1  0
  2 16  1  0
  3  4  2  0
  3  8  1  0
  4  5  1  0
  5  6  2  0
  6  7  1  0
  7  8  2  0
  8  9  1  0
  9 10  1  0
  9 17  2  0
 10 11  1  0
 11 12  2  0
 12 13  1  0
 12 17  1  0
 13 14  2  0
 14 15  1  0
 15 16  2  0
 16 17  1  0
M  END
