
     RDKit          3D

 26 27  0  0  0  0  0  0  0  0999 V2000
    2.1270    0.7110   -1.6390 C   0  0  0  0  0  0  0  0  0  0  0  0
    2.0940   -0.0800   -0.4240 N   0  0  0  0  0  0  0  0  0  0  0  0
    3.3500   -0.2580    0.2690 C   0  0  0  0  0  0  0  0  0  0  0  0
    3.6350    0.6970    1.3610 C   0  0  1  0  0  0  0  0  0  0  0  0
    3.7690    2.0720    0.9280 N   0  0  0  0  0  0  0  0  0  0  0  0
    2.7230    0.6560    2.4020 O   0  0  0  0  0  0  0  0  0  0  0  0
    0.8800   -0.6820    0.0010 C   0  0  0  0  0  0  0  0  0  0  0  0
    0.9240   -1.3280    1.0860 O   0  0  0  0  0  0  0  0  0  0  0  0
   -0.3200   -0.5610   -0.7650 C   0  0  2  0  0  0  0  0  0  0  0  0
   -1.1170    0.6720   -0.7080 C   0  0  0  0  0  0  0  0  0  0  0  0
   -0.9760    1.8210   -0.1120 C   0  0  0  0  0  0  0  0  0  0  0  0
    0.3560    2.4120    0.9690 S   0  0  0  0  0  0  0  0  0  0  0  0
   -0.6810    3.6380    1.8140 C   0  0  0  0  0  0  0  0  0  0  0  0
   -0.4680    4.1010    2.9810 N   0  0  0  0  0  0  0  0  0  0  0  0
   -1.7040    3.9000    0.8670 N   0  0  0  0  0  0  0  0  0  0  0  0
   -1.8670    2.9640   -0.1390 C   0  0  0  0  0  0  0  0  0  0  0  0
   -2.7540    3.0760   -1.0640 O   0  0  0  0  0  0  0  0  0  0  0  0
   -2.2710    0.3250   -1.5220 N   0  0  0  0  0  0  0  0  0  0  0  0
   -2.4330   -1.0900   -1.4930 C   0  0  0  0  0  0  0  0  0  0  0  0
   -3.2300   -1.7850   -2.1560 O   0  0  0  0  0  0  0  0  0  0  0  0
   -1.4220   -1.5670   -0.4750 C   0  0  2  0  0  0  0  0  0  0  0  0
   -2.0530   -1.3770    0.8560 C   0  0  0  0  0  0  0  0  0  0  0  0
   -1.0110   -2.9710   -0.7460 C   0  0  0  0  0  0  0  0  0  0  0  0
   -2.1220   -3.9060   -0.4390 C   0  0  0  0  0  0  0  0  0  0  0  0
   -2.6320   -4.8080   -1.4200 N   0  0  0  0  0  0  0  0  0  0  0  0
   -2.6680   -3.9360    0.7180 O   0  0  0  0  0  0  0  0  0  0  0  0
  1  2  1  0
  2  3  1  0
  2  7  1  0
  3  4  1  0
  4  5  1  6
  4  6  1  0
  7  8  2  0
  9  7  1  1
  9 10  1  0
  9 21  1  0
 10 11  2  3
 10 18  1  0
 11 12  1  0
 11 16  1  0
 12 13  1  0
 13 14  2  0
 13 15  1  0
 15 16  1  0
 16 17  2  0
 18 19  1  0
 19 20  2  0
 19 21  1  0
 21 22  1  1
 21 23  1  0
 23 24  1  0
 24 25  1  0
 24 26  2  0
M  END
