
     RDKit          3D

 26 27  0  0  0  0  0  0  0  0999 V2000
   -6.6940   -2.5040    0.1440 C   0  0  0  0  0  0  0  0  0  0  0  0
   -7.1700   -1.1650   -0.3260 C   0  0  1  0  0  0  0  0  0  0  0  0
   -7.5100   -0.1790    0.7910 C   0  0  0  0  0  0  0  0  0  0  0  0
   -6.4130    0.0800   -0.1840 C   0  0  1  0  0  0  0  0  0  0  0  0
   -5.0140    0.0910    0.2930 N   0  0  0  0  0  0  0  0  0  0  0  0
   -4.0770    0.8870   -0.2980 C   0  0  0  0  0  0  0  0  0  0  0  0
   -3.9800    1.6300   -1.1270 O   0  0  0  0  0  0  0  0  0  0  0  0
   -2.4940    0.5850    0.6110 N   0  0  0  0  0  0  0  0  0  0  0  0
   -1.5510    1.7020   -0.1810 C   0  0  0  0  0  0  0  0  0  0  0  0
   -1.9600    2.3430   -1.0400 O   0  0  0  0  0  0  0  0  0  0  0  0
   -0.2710    1.6880    0.3950 N   0  0  0  0  0  0  0  0  0  0  0  0
    0.7660    2.5830   -0.1140 C   0  0  0  0  0  0  0  0  0  0  0  0
    1.1400    2.2340   -1.5490 C   0  0  0  0  0  0  0  0  0  0  0  0
    1.7560    0.8490   -1.4800 C   0  0  0  0  0  0  0  0  0  0  0  0
    0.9050   -0.3850   -2.0700 S   0  0  0  0  0  0  0  0  0  0  0  0
    3.0550    0.7240   -0.8630 N   0  0  0  0  0  0  0  0  0  0  0  0
    3.7380   -0.4990   -0.6940 C   0  0  0  0  0  0  0  0  0  0  0  0
    3.1150   -1.5430   -1.1270 O   0  0  0  0  0  0  0  0  0  0  0  0
    5.0470   -0.6770   -0.0910 C   0  0  0  0  0  0  0  0  0  0  0  0
    5.7490    0.3310    0.3590 C   0  0  0  0  0  0  0  0  0  0  0  0
    5.3550    1.6470    0.3220 O   0  0  0  0  0  0  0  0  0  0  0  0
    7.0750    0.0680    0.9580 C   0  0  0  0  0  0  0  0  0  0  0  0
    7.7720    1.0330    1.4000 O   0  0  0  0  0  0  0  0  0  0  0  0
    7.5420   -1.2520    1.0290 N   0  0  0  0  0  0  0  0  0  0  0  0
    6.5930   -2.3480    0.9450 C   0  0  0  0  0  0  0  0  0  0  0  0
    5.5640   -2.0220    0.0130 N   0  0  0  0  0  0  0  0  0  0  0  0
  2  1  1  1
  2  3  1  0
  2  4  1  0
  3  4  1  0
  4  5  1  1
  5  6  1  0
  6  7  2  0
  6  8  1  0
  8  9  1  0
  9 10  2  0
  9 11  1  0
 11 12  1  0
 12 13  1  0
 13 14  1  0
 14 15  2  0
 14 16  1  0
 16 17  1  0
 17 18  2  0
 17 19  1  0
 19 20  2  0
 19 26  1  0
 20 21  1  0
 20 22  1  0
 22 23  2  0
 22 24  1  0
 24 25  1  0
 25 26  1  0
M  END
