
     RDKit          3D

 26 27  0  0  0  0  0  0  0  0999 V2000
   -4.9620    1.6660    1.5460 C   0  0  0  0  0  0  0  0  0  0  0  0
   -4.4950    1.6780    0.1260 C   0  0  2  0  0  0  0  0  0  0  0  0
   -4.8990    0.5510   -0.5830 O   0  0  0  0  0  0  0  0  0  0  0  0
   -5.6800    0.8580   -1.6390 N   0  0  0  0  0  0  0  0  0  0  0  0
   -3.0260    1.8030    0.0070 C   0  0  0  0  0  0  0  0  0  0  0  0
   -2.4720    2.7670    0.5850 O   0  0  0  0  0  0  0  0  0  0  0  0
   -2.2200    0.8810   -0.7310 N   0  0  0  0  0  0  0  0  0  0  0  0
   -0.7960    1.0040   -0.8440 C   0  0  2  0  0  0  0  0  0  0  0  0
   -0.3380    1.0390   -2.2140 N   0  0  0  0  0  0  0  0  0  0  0  0
    1.0500    0.8780   -2.4600 C   0  0  0  0  0  0  0  0  0  0  0  0
    1.6180    1.3750   -3.4790 O   0  0  0  0  0  0  0  0  0  0  0  0
    1.8740    0.1220   -1.5300 C   0  0  0  0  0  0  0  0  0  0  0  0
    3.6250   -0.1080   -1.7950 S   0  0  0  0  0  0  0  0  0  0  0  0
    4.3140   -1.0700   -0.4780 C   0  0  0  0  0  0  0  0  0  0  0  0
    4.4200   -2.4060   -0.4410 N   0  0  0  0  0  0  0  0  0  0  0  0
    4.9910   -2.7900    0.7100 C   0  0  0  0  0  0  0  0  0  0  0  0
    5.2440   -1.6730    1.3980 N   0  0  0  0  0  0  0  0  0  0  0  0
    4.8370   -0.5910    0.6910 C   0  0  0  0  0  0  0  0  0  0  0  0
    4.9340    0.7900    1.0890 C   0  0  0  0  0  0  0  0  0  0  0  0
    5.5060    1.1150    2.3390 N   0  0  0  0  0  0  0  0  0  0  0  0
    4.5210    1.7210    0.3480 O   0  0  0  0  0  0  0  0  0  0  0  0
    1.2790   -0.3980   -0.4650 C   0  0  0  0  0  0  0  0  0  0  0  0
   -0.1640   -0.2140   -0.2380 C   0  0  0  0  0  0  0  0  0  0  0  0
   -0.8910   -1.0510    0.4590 C   0  0  0  0  0  0  0  0  0  0  0  0
   -0.3690   -2.2680    1.0890 C   0  0  0  0  0  0  0  0  0  0  0  0
   -1.0220   -3.4120    0.5860 O   0  0  0  0  0  0  0  0  0  0  0  0
  2  1  1  1
  2  3  1  0
  2  5  1  0
  3  4  1  0
  5  6  2  0
  5  7  1  0
  8  7  1  6
  8  9  1  0
  8 23  1  0
  9 10  1  0
 10 11  2  0
 10 12  1  0
 12 13  1  0
 12 22  2  0
 13 14  1  0
 14 15  1  0
 14 18  2  0
 15 16  1  0
 16 17  2  0
 17 18  1  0
 18 19  1  0
 19 20  1  0
 19 21  2  0
 22 23  1  0
 23 24  2  3
 24 25  1  0
 25 26  1  0
M  END
