
     RDKit          3D

 26 27  0  0  0  0  0  0  0  0999 V2000
   -3.7100   -2.0220   -0.1270 C   0  0  0  0  0  0  0  0  0  0  0  0
   -3.5300   -1.1210   -1.3260 C   0  0  1  0  0  0  0  0  0  0  0  0
   -2.5430   -0.0120   -1.0270 C   0  0  2  0  0  0  0  0  0  0  0  0
   -1.2320   -0.6580   -0.6750 C   0  0  0  0  0  0  0  0  0  0  0  0
   -0.2090    0.3470   -0.3670 N   0  0  0  0  0  0  0  0  0  0  0  0
    1.1130   -0.0880   -0.0070 C   0  0  0  0  0  0  0  0  0  0  0  0
    1.3380   -1.3100    0.0300 O   0  0  0  0  0  0  0  0  0  0  0  0
    2.1480    0.8260    0.3020 N   0  0  0  0  0  0  0  0  0  0  0  0
    3.4770    0.5030    0.6660 C   0  0  0  0  0  0  0  0  0  0  0  0
    3.9810   -0.7640    0.7800 C   0  0  0  0  0  0  0  0  0  0  0  0
    5.3130   -0.9310    1.1490 C   0  0  0  0  0  0  0  0  0  0  0  0
    6.1470    0.1300    1.4050 C   0  0  0  0  0  0  0  0  0  0  0  0
    5.6520    1.4160    1.2930 C   0  0  0  0  0  0  0  0  0  0  0  0
    4.3350    1.5740    0.9290 C   0  0  0  0  0  0  0  0  0  0  0  0
    3.8300    2.8920    0.8150 N   0  0  0  0  0  0  0  0  0  0  0  0
    7.3750   -0.4220    1.7370 O   0  0  0  0  0  0  0  0  0  0  0  0
    7.1760   -1.7140    2.1170 O   0  0  0  0  0  0  0  0  0  0  0  0
    6.1200   -2.1580    1.3450 C   0  0  0  0  0  0  0  0  0  0  0  0
   -3.0690    0.7800    0.0660 N   0  0  0  0  0  0  0  0  0  0  0  0
   -3.3870    2.1640   -0.1570 C   0  0  0  0  0  0  0  0  0  0  0  0
   -3.1910    2.6230   -1.3020 O   0  0  0  0  0  0  0  0  0  0  0  0
   -3.9040    2.9430    0.9180 N   0  0  0  0  0  0  0  0  0  0  0  0
   -4.2040    4.2830    0.6760 N   0  0  0  0  0  0  0  0  0  0  0  0
   -3.0040   -2.0950   -2.7440 S   0  0  0  0  0  0  0  0  0  0  0  0
   -4.2110   -3.3370   -3.1430 C   0  0  0  0  0  0  0  0  0  0  0  0
   -2.8840   -1.1440   -3.9250 O   0  0  0  0  0  0  0  0  0  0  0  0
  2  1  1  1
  2  3  1  0
  2 24  1  0
  3  4  1  1
  3 19  1  0
  4  5  1  0
  5  6  1  0
  6  7  2  0
  6  8  1  0
  8  9  1  0
  9 10  2  0
  9 14  1  0
 10 11  1  0
 11 12  2  0
 11 18  1  0
 12 13  1  0
 12 16  1  0
 13 14  2  0
 14 15  1  0
 16 17  1  0
 17 18  1  0
 19 20  1  0
 20 21  2  0
 20 22  1  0
 22 23  1  0
 24 25  1  6
 24 26  2  0
M  END
