
     RDKit          3D

 21 23  0  0  0  0  0  0  0  0999 V2000
    2.1040    1.9090   -1.2580 O   0  0  0  0  0  0  0  0  0  0  0  0
    2.3570    0.9160   -0.5480 C   0  0  0  0  0  0  0  0  0  0  0  0
    1.3160    0.3490    0.2300 N   0  0  0  0  0  0  0  0  0  0  0  0
    0.0220    0.8650    0.2220 N   0  0  0  0  0  0  0  0  0  0  0  0
   -1.0890    0.1340   -0.2900 C   0  0  0  0  0  0  0  0  0  0  0  0
   -0.7990   -1.0450   -0.7390 O   0  0  0  0  0  0  0  0  0  0  0  0
   -2.4860    0.5950   -0.3580 C   0  0  1  0  0  0  0  0  0  0  0  0
   -3.1900   -0.3350   -1.2530 N   0  0  0  0  0  0  0  0  0  0  0  0
   -4.2290   -0.9310   -0.4940 C   0  0  2  0  0  0  0  0  0  0  0  0
   -5.2120    0.1520   -0.0850 C   0  0  0  0  0  0  0  0  0  0  0  0
   -4.5140    0.9700    0.9820 C   0  0  0  0  0  0  0  0  0  0  0  0
   -3.1390    0.3520    1.0090 C   0  0  1  0  0  0  0  0  0  0  0  0
   -3.5060   -1.1210    0.8510 C   0  0  0  0  0  0  0  0  0  0  0  0
    3.6970    0.3650   -0.5290 C   0  0  0  0  0  0  0  0  0  0  0  0
    4.6820    0.8690   -1.2370 C   0  0  0  0  0  0  0  0  0  0  0  0
    6.0480    0.3650   -1.2560 C   0  0  0  0  0  0  0  0  0  0  0  0
    6.4680   -0.6580   -0.5550 C   0  0  0  0  0  0  0  0  0  0  0  0
    5.6630   -1.4030    0.3120 N   0  0  0  0  0  0  0  0  0  0  0  0
    3.9890   -1.0650    0.4260 S   0  0  1  0  0  0  0  0  0  0  0  0
    3.6610   -0.7200    1.8450 O   0  0  0  0  0  0  0  0  0  0  0  0
    3.1620   -2.2350   -0.0480 O   0  0  0  0  0  0  0  0  0  0  0  0
  1  2  2  0
  2  3  1  0
  2 14  1  0
  3  4  1  0
  4  5  1  0
  5  6  2  0
  7  5  1  1
  7  8  1  0
  7 12  1  0
  8  9  1  0
  9 10  1  1
  9 13  1  0
 10 11  1  0
 12 11  1  6
 12 13  1  0
 14 15  2  0
 14 19  1  0
 15 16  1  0
 16 17  2  0
 17 18  1  0
 19 18  1  1
 19 20  2  0
 19 21  2  0
M  END
