
     RDKit          3D

 20 22  0  0  0  0  0  0  0  0999 V2000
    3.3910    1.5540    0.8480 C   0  0  0  0  0  0  0  0  0  0  0  0
    3.0090    0.8310   -0.4560 C   0  0  1  0  0  0  0  0  0  0  0  0
    3.7630   -0.4000   -0.5390 C   0  0  0  0  0  0  0  0  0  0  0  0
    3.1580   -1.5480   -1.2640 C   0  0  0  0  0  0  0  0  0  0  0  0
    1.7530   -1.8590   -0.9560 C   0  0  0  0  0  0  0  0  0  0  0  0
    1.3760   -1.4000    0.4240 C   0  0  0  0  0  0  0  0  0  0  0  0
    0.8180    0.0160    0.4640 C   0  0  2  0  0  0  0  0  0  0  0  0
   -0.5970    0.1640    0.7160 C   0  0  1  0  0  0  0  0  0  0  0  0
   -0.7950   -0.5590    1.9480 O   0  0  0  0  0  0  0  0  0  0  0  0
   -0.8340    1.6080    1.2540 C   0  0  0  0  0  0  0  0  0  0  0  0
   -1.1300    2.5510    0.1870 C   0  0  0  0  0  0  0  0  0  0  0  0
   -1.4690    2.1100   -1.1640 C   0  0  0  0  0  0  0  0  0  0  0  0
   -1.7930    0.6990   -1.4150 C   0  0  0  0  0  0  0  0  0  0  0  0
   -1.7200   -0.1560   -0.1300 C   0  0  2  0  0  0  0  0  0  0  0  0
   -3.0320    0.2870    0.5580 C   0  0  0  0  0  0  0  0  0  0  0  0
   -3.4290   -0.7900    1.5150 C   0  0  0  0  0  0  0  0  0  0  0  0
   -3.1100   -1.9930    0.7090 C   0  0  0  0  0  0  0  0  0  0  0  0
   -2.1660   -1.5370   -0.4110 C   0  0  2  0  0  0  0  0  0  0  0  0
   -1.3120   -2.5310   -0.6480 O   0  0  0  0  0  0  0  0  0  0  0  0
    1.5020    0.8150   -0.6200 C   0  0  0  0  0  0  0  0  0  0  0  0
  2  1  1  1
  2  3  1  0
  2 20  1  0
  3  4  1  0
  4  5  1  0
  5  6  1  0
  7  6  1  6
  7  8  1  0
  7 20  1  0
  8  9  1  1
  8 10  1  0
  8 14  1  0
 10 11  1  0
 11 12  1  0
 12 13  1  0
 14 13  1  6
 14 15  1  0
 14 18  1  0
 15 16  1  0
 16 17  1  0
 17 18  1  0
 18 19  1  1
M  END
