
     RDKit          3D

 20 22  0  0  0  0  0  0  0  0999 V2000
   -1.2270   -2.2130   -1.1890 C   0  0  0  0  0  0  0  0  0  0  0  0
   -2.0320   -1.5240   -0.1560 C   0  0  0  0  0  0  0  0  0  0  0  0
   -3.0290   -2.1290    0.4650 C   0  0  0  0  0  0  0  0  0  0  0  0
   -3.6130   -1.2020    1.4060 C   0  0  0  0  0  0  0  0  0  0  0  0
   -2.8010    0.0130    1.2240 C   0  0  0  0  0  0  0  0  0  0  0  0
   -1.8600   -0.1460    0.3080 C   0  0  0  0  0  0  0  0  0  0  0  0
   -0.8480    0.8600   -0.1440 C   0  0  2  0  0  0  0  0  0  0  0  0
   -1.4690    2.1120    0.2590 O   0  0  0  0  0  0  0  0  0  0  0  0
   -0.9090    1.0670   -1.6320 C   0  0  0  0  0  0  0  0  0  0  0  0
   -0.3780    2.4360   -1.9580 C   0  0  0  0  0  0  0  0  0  0  0  0
    0.8100    2.8570   -1.1710 C   0  0  0  0  0  0  0  0  0  0  0  0
    0.9740    2.3740    0.2030 C   0  0  0  0  0  0  0  0  0  0  0  0
    0.4490    0.9390    0.4640 C   0  0  1  0  0  0  0  0  0  0  0  0
    0.1930    0.9550    2.0060 C   0  0  0  0  0  0  0  0  0  0  0  0
    1.5920    0.0530    0.3160 C   0  0  2  0  0  0  0  0  0  0  0  0
    2.2190   -0.2080   -0.9960 C   0  0  0  0  0  0  0  0  0  0  0  0
    3.1160   -1.4460   -0.7850 C   0  0  0  0  0  0  0  0  0  0  0  0
    2.3770   -2.2640    0.2460 C   0  0  0  0  0  0  0  0  0  0  0  0
    1.7050   -1.2060    1.0920 C   0  0  2  0  0  0  0  0  0  0  0  0
    0.5460   -1.6650    1.6930 O   0  0  0  0  0  0  0  0  0  0  0  0
  1  2  1  0
  2  3  2  0
  2  6  1  0
  3  4  1  0
  4  5  1  0
  5  6  2  0
  6  7  1  0
  7  8  1  1
  7  9  1  0
  7 13  1  0
  9 10  1  0
 10 11  1  0
 11 12  1  0
 12 13  1  0
 13 14  1  1
 13 15  1  0
 15 16  1  6
 15 19  1  0
 16 17  1  0
 17 18  1  0
 18 19  1  0
 19 20  1  6
M  END
