
     RDKit          3D

 17 18  0  0  0  0  0  0  0  0999 V2000
    2.9400    2.1520    1.6260 C   0  0  0  0  0  0  0  0  0  0  0  0
    2.1560    1.1000    1.0030 N   0  0  0  0  0  0  0  0  0  0  0  0
    2.6700   -0.1550    0.6340 C   0  0  0  0  0  0  0  0  0  0  0  0
    3.9150   -0.3040    0.8970 O   0  0  0  0  0  0  0  0  0  0  0  0
    1.9600   -1.2490    0.0130 C   0  0  0  0  0  0  0  0  0  0  0  0
    2.6890   -2.4060   -0.2610 C   0  0  0  0  0  0  0  0  0  0  0  0
    2.1400   -3.5240   -0.8500 C   0  0  0  0  0  0  0  0  0  0  0  0
    0.8090   -3.5460   -1.2030 C   0  0  0  0  0  0  0  0  0  0  0  0
    0.0840   -2.4130   -0.9380 C   0  0  0  0  0  0  0  0  0  0  0  0
    0.6280   -1.2650   -0.3380 C   0  0  0  0  0  0  0  0  0  0  0  0
   -0.1260   -0.1620   -0.0920 O   0  0  0  0  0  0  0  0  0  0  0  0
   -1.4670    0.0970   -0.3360 C   0  0  2  0  0  0  0  0  0  0  0  0
   -1.5530    1.2540   -1.2950 C   0  0  0  0  0  0  0  0  0  0  0  0
   -2.7550    2.1130   -1.1120 C   0  0  0  0  0  0  0  0  0  0  0  0
   -2.8680    2.5250    0.2340 O   0  0  0  0  0  0  0  0  0  0  0  0
   -3.2580    1.3580    0.9030 C   0  0  0  0  0  0  0  0  0  0  0  0
   -2.1440    0.3480    0.9830 C   0  0  0  0  0  0  0  0  0  0  0  0
  1  2  1  0
  2  3  1  0
  3  4  2  0
  3  5  1  0
  5  6  2  0
  5 10  1  0
  6  7  1  0
  7  8  2  0
  8  9  1  0
  9 10  2  0
 10 11  1  0
 12 11  1  1
 12 13  1  0
 12 17  1  0
 13 14  1  0
 14 15  1  0
 15 16  1  0
 16 17  1  0
M  END
