
     RDKit          3D

 20 22  0  0  0  0  0  0  0  0999 V2000
   -3.1340    2.3650    1.7700 C   0  0  0  0  0  0  0  0  0  0  0  0
   -1.7730    1.7620    1.7820 C   0  0  0  0  0  0  0  0  0  0  0  0
   -1.3010    1.1200    0.5030 C   0  0  1  0  0  0  0  0  0  0  0  0
    0.0300    0.6730    0.8280 O   0  0  0  0  0  0  0  0  0  0  0  0
    0.6200    0.3430   -0.3720 C   0  0  1  0  0  0  0  0  0  0  0  0
    2.0610    0.3920   -0.3920 C   0  0  0  0  0  0  0  0  0  0  0  0
    2.7620    1.3980   -0.9550 C   0  0  0  0  0  0  0  0  0  0  0  0
    4.2250    1.3610   -0.9680 C   0  0  0  0  0  0  0  0  0  0  0  0
    4.9090    0.3300   -0.4740 C   0  0  0  0  0  0  0  0  0  0  0  0
    4.2190   -0.8260    0.0740 C   0  0  1  0  0  0  0  0  0  0  0  0
    4.3780   -1.4910    1.3220 C   0  0  0  0  0  0  0  0  0  0  0  0
    2.9300   -1.3010    1.4960 C   0  0  0  0  0  0  0  0  0  0  0  0
    2.8530   -0.5120    0.5090 C   0  0  0  0  0  0  0  0  0  0  0  0
    0.0470   -1.0180   -0.7360 C   0  0  0  0  0  0  0  0  0  0  0  0
   -1.4140   -0.9060   -0.9180 C   0  0  1  0  0  0  0  0  0  0  0  0
   -1.8250   -0.2680   -2.2240 C   0  0  0  0  0  0  0  0  0  0  0  0
   -1.9970   -2.3270   -0.9550 C   0  0  0  0  0  0  0  0  0  0  0  0
   -2.0760   -0.1210    0.1900 C   0  0  2  0  0  0  0  0  0  0  0  0
   -3.5100    0.1890   -0.2740 C   0  0  0  0  0  0  0  0  0  0  0  0
   -2.2080   -0.8540    1.3620 O   0  0  0  0  0  0  0  0  0  0  0  0
  1  2  1  0
  3  2  1  1
  3  4  1  0
  3 18  1  0
  4  5  1  0
  5  6  1  1
  5 14  1  0
  6  7  2  0
  6 13  1  0
  7  8  1  0
  8  9  2  0
  9 10  1  0
 10 11  1  1
 10 13  1  0
 11 12  1  0
 12 13  2  0
 14 15  1  0
 15 16  1  6
 15 17  1  0
 15 18  1  0
 18 19  1  6
 18 20  1  0
M  END
