
     RDKit          3D

 20 22  0  0  0  0  0  0  0  0999 V2000
   -3.1550   -2.2420    0.0530 C   0  0  0  0  0  0  0  0  0  0  0  0
   -3.3450   -0.7800   -0.2320 C   0  0  1  0  0  0  0  0  0  0  0  0
   -3.6260   -0.0290    1.0390 C   0  0  0  0  0  0  0  0  0  0  0  0
   -3.4000    1.4350    0.9050 C   0  0  0  0  0  0  0  0  0  0  0  0
   -2.9050    2.0230   -0.1540 C   0  0  0  0  0  0  0  0  0  0  0  0
   -2.5300    1.2120   -1.3220 C   0  0  0  0  0  0  0  0  0  0  0  0
   -2.1280   -0.1910   -0.9630 C   0  0  1  0  0  0  0  0  0  0  0  0
   -0.9750   -0.2990   -0.0480 C   0  0  0  0  0  0  0  0  0  0  0  0
    0.3260    0.2110   -0.5430 C   0  0  2  0  0  0  0  0  0  0  0  0
    0.2300    1.5560   -0.8440 O   0  0  0  0  0  0  0  0  0  0  0  0
    0.8420   -0.5150   -1.7580 C   0  0  0  0  0  0  0  0  0  0  0  0
    2.1770   -0.0040   -2.1700 C   0  0  0  0  0  0  0  0  0  0  0  0
    3.1590    0.2180   -1.0950 C   0  0  0  0  0  0  0  0  0  0  0  0
    2.6350    0.7250    0.1950 C   0  0  2  0  0  0  0  0  0  0  0  0
    2.4920    2.0960    0.2570 O   0  0  0  0  0  0  0  0  0  0  0  0
    3.5580    0.1980    1.3040 C   0  0  0  0  0  0  0  0  0  0  0  0
    3.0090   -1.1430    1.6840 C   0  0  0  0  0  0  0  0  0  0  0  0
    1.7400   -1.3430    0.8400 C   0  0  0  0  0  0  0  0  0  0  0  0
    1.3370    0.0650    0.5700 C   0  0  2  0  0  0  0  0  0  0  0  0
    0.7990    0.6510    1.8660 C   0  0  0  0  0  0  0  0  0  0  0  0
  2  1  1  1
  2  3  1  0
  2  7  1  0
  3  4  1  0
  4  5  2  0
  5  6  1  0
  6  7  1  0
  7  8  1  1
  8  9  1  0
  9 10  1  6
  9 11  1  0
  9 19  1  0
 11 12  1  0
 12 13  1  0
 13 14  1  0
 14 15  1  6
 14 16  1  0
 14 19  1  0
 16 17  1  0
 17 18  1  0
 18 19  1  0
 19 20  1  1
M  END
