
     RDKit          3D

 20 22  0  0  0  0  0  0  0  0999 V2000
   -3.6070    1.4910   -2.5230 C   0  0  0  0  0  0  0  0  0  0  0  0
   -2.6870    0.4240   -2.0160 C   0  0  0  0  0  0  0  0  0  0  0  0
   -1.8310    0.8980   -0.8490 C   0  0  1  0  0  0  0  0  0  0  0  0
   -2.6860    1.3300    0.3150 C   0  0  0  0  0  0  0  0  0  0  0  0
   -2.7290    0.1360    1.2200 C   0  0  0  0  0  0  0  0  0  0  0  0
   -3.3310   -0.4140    2.2620 C   0  0  0  0  0  0  0  0  0  0  0  0
   -2.7320   -1.7150    2.5530 C   0  0  0  0  0  0  0  0  0  0  0  0
   -1.6840   -1.8750    1.5410 C   0  0  0  0  0  0  0  0  0  0  0  0
   -1.7110   -0.7770    0.7810 C   0  0  0  0  0  0  0  0  0  0  0  0
   -0.9800   -0.2280   -0.3990 C   0  0  1  0  0  0  0  0  0  0  0  0
   -0.9290   -1.2510   -1.3450 O   0  0  0  0  0  0  0  0  0  0  0  0
    0.4070    0.1510    0.0290 C   0  0  2  0  0  0  0  0  0  0  0  0
    1.2510    0.7420   -1.0420 C   0  0  0  0  0  0  0  0  0  0  0  0
    2.4440    1.3950   -0.3290 C   0  0  2  0  0  0  0  0  0  0  0  0
    3.5180    1.7900   -1.2860 C   0  0  0  0  0  0  0  0  0  0  0  0
    2.9390    0.5150    0.7900 C   0  0  0  0  0  0  0  0  0  0  0  0
    2.3610   -0.8660    0.7550 C   0  0  1  0  0  0  0  0  0  0  0  0
    3.0280   -1.7250   -0.3170 C   0  0  0  0  0  0  0  0  0  0  0  0
    2.6980   -1.5240    2.0930 C   0  0  0  0  0  0  0  0  0  0  0  0
    1.0190   -0.9380    0.5770 O   0  0  0  0  0  0  0  0  0  0  0  0
  1  2  1  0
  3  2  1  6
  3  4  1  0
  3 10  1  0
  4  5  1  0
  5  6  2  0
  5  9  1  0
  6  7  1  0
  7  8  1  0
  8  9  2  0
  9 10  1  0
 10 11  1  6
 10 12  1  0
 12 13  1  6
 12 20  1  0
 13 14  1  0
 14 15  1  6
 14 16  1  0
 16 17  1  0
 17 18  1  6
 17 19  1  0
 17 20  1  0
M  END
