
     RDKit          3D

 20 22  0  0  0  0  0  0  0  0999 V2000
   -1.4080    3.4890    0.5750 C   0  0  0  0  0  0  0  0  0  0  0  0
   -0.0100    3.0480    0.8110 C   0  0  0  0  0  0  0  0  0  0  0  0
    0.3320    1.6200    0.7700 C   0  0  0  0  0  0  0  0  0  0  0  0
    0.1610    0.8330   -0.4570 C   0  0  2  0  0  0  0  0  0  0  0  0
    0.9150    1.4290   -1.4950 O   0  0  0  0  0  0  0  0  0  0  0  0
   -1.2110    0.6170   -0.9080 C   0  0  0  0  0  0  0  0  0  0  0  0
   -2.0680   -0.3350   -0.1370 C   0  0  1  0  0  0  0  0  0  0  0  0
   -3.0870    0.3280    0.5470 O   0  0  0  0  0  0  0  0  0  0  0  0
   -2.8120   -1.2010   -1.1650 C   0  0  0  0  0  0  0  0  0  0  0  0
   -2.9830   -2.5440   -0.5500 C   0  0  0  0  0  0  0  0  0  0  0  0
   -1.8170   -2.7070    0.3610 C   0  0  0  0  0  0  0  0  0  0  0  0
   -1.3820   -1.3050    0.7400 C   0  0  1  0  0  0  0  0  0  0  0  0
    0.0840   -1.2380    0.8000 C   0  0  0  0  0  0  0  0  0  0  0  0
    0.7990   -0.5690   -0.3000 C   0  0  1  0  0  0  0  0  0  0  0  0
    0.7910   -1.2300   -1.6280 C   0  0  0  0  0  0  0  0  0  0  0  0
    2.2410   -0.4230    0.1160 C   0  0  0  0  0  0  0  0  0  0  0  0
    2.8170   -0.8660    1.2200 C   0  0  0  0  0  0  0  0  0  0  0  0
    4.2400   -0.5110    1.2360 C   0  0  0  0  0  0  0  0  0  0  0  0
    4.4330    0.2150   -0.0290 C   0  0  0  0  0  0  0  0  0  0  0  0
    3.2750    0.2520   -0.6530 C   0  0  0  0  0  0  0  0  0  0  0  0
  1  2  1  0
  2  3  1  0
  3  4  1  0
  4  5  1  6
  4  6  1  0
  4 14  1  0
  6  7  1  0
  7  8  1  1
  7  9  1  0
  7 12  1  0
  9 10  1  0
 10 11  1  0
 12 11  1  6
 12 13  1  0
 13 14  1  0
 14 15  1  6
 14 16  1  0
 16 17  2  0
 16 20  1  0
 17 18  1  0
 18 19  1  0
 19 20  2  0
M  END
