
     RDKit          3D

 20 23  0  0  0  0  0  0  0  0999 V2000
   -1.9390    2.2620    0.2210 C   0  0  0  0  0  0  0  0  0  0  0  0
   -0.9110    1.1850    0.4810 C   0  0  2  0  0  0  0  0  0  0  0  0
   -1.1840    0.6190    1.8540 C   0  0  0  0  0  0  0  0  0  0  0  0
    0.4710    1.7720    0.4020 C   0  0  0  0  0  0  0  0  0  0  0  0
    1.4140    0.9610   -0.4600 C   0  0  1  0  0  0  0  0  0  0  0  0
    2.8160    1.3200   -0.0640 C   0  0  0  0  0  0  0  0  0  0  0  0
    3.8360    0.4040   -0.6450 C   0  0  1  0  0  0  0  0  0  0  0  0
    5.1130    0.8830   -0.3870 O   0  0  0  0  0  0  0  0  0  0  0  0
    3.6060   -0.9320    0.0870 C   0  0  0  0  0  0  0  0  0  0  0  0
    2.2920   -1.4500   -0.3850 C   0  0  0  0  0  0  0  0  0  0  0  0
    1.2010   -0.4590   -0.4280 C   0  0  0  0  0  0  0  0  0  0  0  0
   -0.0620   -0.9160   -0.4560 C   0  0  0  0  0  0  0  0  0  0  0  0
   -0.6670   -2.2170   -0.4350 C   0  0  0  0  0  0  0  0  0  0  0  0
   -0.0960   -3.3200   -0.4290 O   0  0  0  0  0  0  0  0  0  0  0  0
   -2.1260   -2.0320   -0.4220 C   0  0  0  0  0  0  0  0  0  0  0  0
   -3.2620   -2.6750   -0.3920 C   0  0  0  0  0  0  0  0  0  0  0  0
   -4.3560   -1.6890   -0.3970 C   0  0  0  0  0  0  0  0  0  0  0  0
   -3.6910   -0.3870   -0.4270 C   0  0  0  0  0  0  0  0  0  0  0  0
   -2.3910   -0.6020   -0.4450 C   0  0  0  0  0  0  0  0  0  0  0  0
   -1.1140    0.1070   -0.5340 C   0  0  1  0  0  0  0  0  0  0  0  0
  2  1  1  6
  2  3  1  0
  2  4  1  0
  2 20  1  0
  5  4  1  1
  5  6  1  0
  5 11  1  0
  6  7  1  0
  7  8  1  1
  7  9  1  0
  9 10  1  0
 10 11  1  0
 11 12  2  0
 12 13  1  0
 12 20  1  0
 13 14  2  0
 13 15  1  0
 15 16  2  0
 15 19  1  0
 16 17  1  0
 17 18  1  0
 18 19  2  0
 20 19  1  1
M  END
