
     RDKit          3D

 26 29  0  0  0  0  0  0  0  0999 V2000
   -2.9470    1.1530   -0.6650 C   0  0  0  0  0  0  0  0  0  0  0  0
   -4.2290    0.4500   -0.3700 C   0  0  0  0  0  0  0  0  0  0  0  0
   -5.3560    1.1590   -0.3940 C   0  0  0  0  0  0  0  0  0  0  0  0
   -6.7070    0.6590   -0.1340 C   0  0  0  0  0  0  0  0  0  0  0  0
   -6.7160   -0.7190    0.0430 O   0  0  0  0  0  0  0  0  0  0  0  0
   -5.6100   -1.5270    0.0930 C   0  0  0  0  0  0  0  0  0  0  0  0
   -5.6920   -2.7730    0.3190 O   0  0  0  0  0  0  0  0  0  0  0  0
   -4.2500   -0.9600   -0.1210 C   0  0  0  0  0  0  0  0  0  0  0  0
   -3.2080   -1.7210   -0.0250 C   0  0  0  0  0  0  0  0  0  0  0  0
   -3.4740   -3.1560    0.2280 N   0  0  0  0  0  0  0  0  0  0  0  0
   -1.7940   -1.4070   -0.0420 C   0  0  0  0  0  0  0  0  0  0  0  0
   -0.9610   -0.6250    0.5110 N   0  0  0  0  0  0  0  0  0  0  0  0
    0.3070   -0.5700    0.2700 C   0  0  0  0  0  0  0  0  0  0  0  0
    0.8090   -1.4110   -0.6470 C   0  0  0  0  0  0  0  0  0  0  0  0
   -0.6390   -2.3300   -1.1890 S   0  0  0  0  0  0  0  0  0  0  0  0
    2.2310   -1.5360   -1.0990 C   0  0  0  0  0  0  0  0  0  0  0  0
    3.0700   -0.9830    0.0340 C   0  0  0  0  0  0  0  0  0  0  0  0
    2.5570    0.2710    0.4330 N   0  0  0  0  0  0  0  0  0  0  0  0
    3.1400    1.4320   -0.1500 C   0  0  0  0  0  0  0  0  0  0  0  0
    4.5900    1.4530    0.1740 C   0  0  0  0  0  0  0  0  0  0  0  0
    4.9530    1.8660    1.4390 C   0  0  0  0  0  0  0  0  0  0  0  0
    6.2590    1.8980    1.7580 N   0  0  0  0  0  0  0  0  0  0  0  0
    7.2290    1.5450    0.8980 C   0  0  0  0  0  0  0  0  0  0  0  0
    6.8430    1.1460   -0.3290 N   0  0  0  0  0  0  0  0  0  0  0  0
    5.5610    1.0860   -0.7240 C   0  0  0  0  0  0  0  0  0  0  0  0
    1.2800    0.3790    0.9570 C   0  0  0  0  0  0  0  0  0  0  0  0
  1  2  1  0
  2  3  2  0
  2  8  1  0
  3  4  1  0
  4  5  1  0
  5  6  1  0
  6  7  2  0
  6  8  1  0
  8  9  2  3
  9 10  1  0
  9 11  1  0
 11 12  2  0
 11 15  1  0
 12 13  1  0
 13 14  2  0
 13 26  1  0
 14 15  1  0
 14 16  1  0
 16 17  1  0
 17 18  1  0
 18 19  1  0
 18 26  1  0
 19 20  1  0
 20 21  2  0
 20 25  1  0
 21 22  1  0
 22 23  2  0
 23 24  1  0
 24 25  2  0
M  END
