
     RDKit          3D

 26 29  0  0  0  0  0  0  0  0999 V2000
    4.5460    1.9430    2.0980 C   0  0  0  0  0  0  0  0  0  0  0  0
    3.4530    1.6550    1.0970 C   0  0  1  0  0  0  0  0  0  0  0  0
    3.8180    0.3820    0.3550 C   0  0  0  0  0  0  0  0  0  0  0  0
    2.7160   -0.6320    0.4490 C   0  0  0  0  0  0  0  0  0  0  0  0
    1.3640   -0.0780    0.0380 C   0  0  1  0  0  0  0  0  0  0  0  0
    0.3440   -1.1170    0.1630 N   0  0  0  0  0  0  0  0  0  0  0  0
   -0.9510   -0.9110   -0.3200 C   0  0  0  0  0  0  0  0  0  0  0  0
   -1.1520    0.2340   -1.0830 C   0  0  0  0  0  0  0  0  0  0  0  0
   -2.3840    0.4890   -1.6260 C   0  0  0  0  0  0  0  0  0  0  0  0
   -2.5230    1.6440   -2.3760 C   0  0  0  0  0  0  0  0  0  0  0  0
   -1.1970    2.7680   -2.6380 S   0  0  1  0  0  0  0  0  0  0  0  0
   -0.3820    2.4060   -3.8330 O   0  0  0  0  0  0  0  0  0  0  0  0
   -1.8510    4.1260   -2.8800 O   0  0  0  0  0  0  0  0  0  0  0  0
   -3.7780    1.8790   -2.9180 C   0  0  0  0  0  0  0  0  0  0  0  0
   -4.8070    0.9900   -2.6980 C   0  0  0  0  0  0  0  0  0  0  0  0
   -4.6270   -0.1180   -1.9640 N   0  0  0  0  0  0  0  0  0  0  0  0
   -3.4380   -0.3970   -1.4160 C   0  0  0  0  0  0  0  0  0  0  0  0
   -3.2530   -1.5250   -0.6690 C   0  0  0  0  0  0  0  0  0  0  0  0
   -2.0030   -1.7810   -0.1190 C   0  0  0  0  0  0  0  0  0  0  0  0
   -1.8030   -2.9950    0.6880 C   0  0  0  0  0  0  0  0  0  0  0  0
   -0.7530   -3.4570    1.3490 N   0  0  0  0  0  0  0  0  0  0  0  0
   -1.0840   -4.6220    1.9300 C   0  0  0  0  0  0  0  0  0  0  0  0
   -2.3650   -4.8870    1.6210 N   0  0  0  0  0  0  0  0  0  0  0  0
   -2.7860   -3.9040    0.8760 N   0  0  0  0  0  0  0  0  0  0  0  0
    1.0440    1.1090    0.8870 C   0  0  0  0  0  0  0  0  0  0  0  0
    2.1530    1.3850    1.8540 C   0  0  0  0  0  0  0  0  0  0  0  0
  2  1  1  1
  2  3  1  0
  2 26  1  0
  3  4  1  0
  4  5  1  0
  5  6  1  1
  5 25  1  0
  6  7  1  0
  7  8  2  0
  7 19  1  0
  8  9  1  0
  9 10  2  0
  9 17  1  0
 11 10  1  6
 10 14  1  0
 11 12  2  0
 11 13  2  0
 14 15  2  0
 15 16  1  0
 16 17  2  0
 17 18  1  0
 18 19  2  0
 19 20  1  0
 20 21  1  0
 20 24  2  0
 21 22  2  0
 22 23  1  0
 23 24  1  0
 25 26  1  0
M  END
