
     RDKit          3D

 20 19  0  0  0  0  0  0  0  0999 V2000
   -3.1360    0.9080    1.1860 C   0  0  0  0  0  0  0  0  0  0  0  0
   -2.5450   -0.3080    0.5210 C   0  0  2  0  0  0  0  0  0  0  0  0
   -3.5130   -1.4640    0.8070 C   0  0  0  0  0  0  0  0  0  0  0  0
   -3.0770   -2.6430    0.2230 O   0  0  0  0  0  0  0  0  0  0  0  0
   -1.3100   -0.6820    1.0580 O   0  0  0  0  0  0  0  0  0  0  0  0
   -0.1740    0.1010    1.0880 C   0  0  0  0  0  0  0  0  0  0  0  0
   -0.2490    1.2490    0.5920 O   0  0  0  0  0  0  0  0  0  0  0  0
    1.0550   -0.3050    1.6370 N   0  0  0  0  0  0  0  0  0  0  0  0
    2.2400    0.5270    1.6610 C   0  0  0  0  0  0  0  0  0  0  0  0
    2.7140    0.9380    0.3090 C   0  0  1  0  0  0  0  0  0  0  0  0
    3.8660    1.7320    0.5090 O   0  0  0  0  0  0  0  0  0  0  0  0
    2.9460   -0.1710   -0.6570 C   0  0  2  0  0  0  0  0  0  0  0  0
    3.9660   -1.1820   -0.2510 C   0  0  0  0  0  0  0  0  0  0  0  0
    3.5770   -1.7810    0.9330 O   0  0  0  0  0  0  0  0  0  0  0  0
    3.3680    0.4840   -1.9810 C   0  0  0  0  0  0  0  0  0  0  0  0
    4.5220    1.2290   -1.8260 O   0  0  0  0  0  0  0  0  0  0  0  0
   -2.4890   -0.0390   -0.9650 C   0  0  1  0  0  0  0  0  0  0  0  0
   -2.0840   -1.1290   -1.6910 O   0  0  0  0  0  0  0  0  0  0  0  0
   -3.8390    0.4880   -1.4050 C   0  0  0  0  0  0  0  0  0  0  0  0
   -3.7260    0.8570   -2.7610 O   0  0  0  0  0  0  0  0  0  0  0  0
  2  1  1  1
  2  3  1  0
  2  5  1  0
  2 17  1  0
  3  4  1  0
  5  6  1  0
  6  7  2  0
  6  8  1  0
  8  9  1  0
  9 10  1  0
 10 11  1  1
 10 12  1  0
 12 13  1  1
 12 15  1  0
 13 14  1  0
 15 16  1  0
 17 18  1  6
 17 19  1  0
 19 20  1  0
M  END
