
     RDKit          3D

 26 29  0  0  0  0  0  0  0  0999 V2000
    0.5510   -3.4670   -0.2060 C   0  0  0  0  0  0  0  0  0  0  0  0
    1.3340   -2.3030   -0.0210 O   0  0  0  0  0  0  0  0  0  0  0  0
    0.6850   -1.0920    0.2080 C   0  0  0  0  0  0  0  0  0  0  0  0
   -0.7150   -1.0170    0.2560 C   0  0  0  0  0  0  0  0  0  0  0  0
   -1.3330    0.1700    0.4800 C   0  0  0  0  0  0  0  0  0  0  0  0
   -2.7440    0.3120    0.5050 N   0  0  0  0  0  0  0  0  0  0  0  0
   -3.6250   -0.5320   -0.1900 C   0  0  0  0  0  0  0  0  0  0  0  0
   -3.0600   -1.4590   -0.8800 O   0  0  0  0  0  0  0  0  0  0  0  0
   -5.0630   -0.4140   -0.1680 C   0  0  0  0  0  0  0  0  0  0  0  0
   -5.8130   -1.2670   -0.9270 N   0  0  0  0  0  0  0  0  0  0  0  0
   -7.0680   -0.9830   -0.7500 N   0  0  0  0  0  0  0  0  0  0  0  0
   -7.1760    0.0800    0.1430 C   0  0  0  0  0  0  0  0  0  0  0  0
   -8.2960    0.7360    0.6430 C   0  0  0  0  0  0  0  0  0  0  0  0
   -7.5170    1.9630    1.7220 S   0  0  0  0  0  0  0  0  0  0  0  0
   -5.8010    1.4830    1.4010 C   0  0  0  0  0  0  0  0  0  0  0  0
   -5.9590    0.4290    0.5000 C   0  0  0  0  0  0  0  0  0  0  0  0
   -0.5960    1.3520    0.6690 C   0  0  0  0  0  0  0  0  0  0  0  0
    0.7730    1.2630    0.6200 C   0  0  0  0  0  0  0  0  0  0  0  0
    1.4030    0.0610    0.3930 C   0  0  0  0  0  0  0  0  0  0  0  0
    2.8300   -0.0530    0.3370 N   0  0  0  0  0  0  0  0  0  0  0  0
    3.5440   -0.5240   -0.8120 C   0  0  0  0  0  0  0  0  0  0  0  0
    4.8220    0.2170   -1.0710 C   0  0  0  0  0  0  0  0  0  0  0  0
    5.5080    0.6080    0.1390 N   0  0  0  0  0  0  0  0  0  0  0  0
    6.5690    1.5200   -0.2480 C   0  0  0  0  0  0  0  0  0  0  0  0
    4.6510    1.2990    1.0650 C   0  0  0  0  0  0  0  0  0  0  0  0
    3.5680    0.3340    1.5210 C   0  0  0  0  0  0  0  0  0  0  0  0
  1  2  1  0
  2  3  1  0
  3  4  2  0
  3 19  1  0
  4  5  1  0
  5  6  1  0
  5 17  2  0
  6  7  1  0
  7  8  2  0
  7  9  1  0
  9 10  2  0
  9 16  1  0
 10 11  1  0
 11 12  1  0
 12 13  2  0
 12 16  1  0
 13 14  1  0
 14 15  1  0
 15 16  2  0
 17 18  1  0
 18 19  2  0
 19 20  1  0
 20 21  1  0
 20 26  1  0
 21 22  1  0
 22 23  1  0
 23 24  1  0
 23 25  1  0
 25 26  1  0
M  END
