
     RDKit          3D

 26 29  0  0  0  0  0  0  0  0999 V2000
    7.3990   -1.6510    1.2550 C   0  0  0  0  0  0  0  0  0  0  0  0
    6.4120   -0.6740    0.6940 C   0  0  0  0  0  0  0  0  0  0  0  0
    5.0810   -0.8040    1.0140 C   0  0  0  0  0  0  0  0  0  0  0  0
    4.1500    0.0840    0.5110 C   0  0  0  0  0  0  0  0  0  0  0  0
    2.8310   -0.0130    0.8040 N   0  0  0  0  0  0  0  0  0  0  0  0
    1.9180    0.8440    0.3200 C   0  0  0  0  0  0  0  0  0  0  0  0
    0.1970    0.6550    0.7490 S   0  0  0  0  0  0  0  0  0  0  0  0
   -0.5630   -0.4270   -0.4990 C   0  0  0  0  0  0  0  0  0  0  0  0
   -2.0200   -0.6310   -0.1990 C   0  0  0  0  0  0  0  0  0  0  0  0
   -2.5280   -1.6120    0.5640 N   0  0  0  0  0  0  0  0  0  0  0  0
   -3.8620   -1.4790    0.6060 N   0  0  0  0  0  0  0  0  0  0  0  0
   -4.1920   -0.4190   -0.1270 C   0  0  0  0  0  0  0  0  0  0  0  0
   -5.5490    0.1310   -0.3840 C   0  0  1  0  0  0  0  0  0  0  0  0
   -6.5120   -0.8830   -0.9030 C   0  0  0  0  0  0  0  0  0  0  0  0
   -7.7750   -0.9650   -0.0740 C   0  0  0  0  0  0  0  0  0  0  0  0
   -8.3450    0.2570    0.1810 O   0  0  0  0  0  0  0  0  0  0  0  0
   -7.4730    1.2230    0.6240 C   0  0  0  0  0  0  0  0  0  0  0  0
   -6.1030    0.6270    0.9590 C   0  0  0  0  0  0  0  0  0  0  0  0
   -3.0680    0.0940   -0.6150 N   0  0  0  0  0  0  0  0  0  0  0  0
    2.2830    1.8510   -0.4880 N   0  0  0  0  0  0  0  0  0  0  0  0
    3.5810    2.0100   -0.8240 C   0  0  0  0  0  0  0  0  0  0  0  0
    3.9340    2.9510   -1.5820 O   0  0  0  0  0  0  0  0  0  0  0  0
    4.5100    1.1230   -0.3210 C   0  0  0  0  0  0  0  0  0  0  0  0
    5.8680    1.2360   -0.6330 C   0  0  0  0  0  0  0  0  0  0  0  0
    6.7920    0.3470   -0.1270 C   0  0  0  0  0  0  0  0  0  0  0  0
    8.2290    0.4950   -0.4780 C   0  0  0  0  0  0  0  0  0  0  0  0
  1  2  1  0
  2  3  2  0
  2 25  1  0
  3  4  1  0
  4  5  1  0
  4 23  2  0
  5  6  2  0
  6  7  1  0
  6 20  1  0
  7  8  1  0
  8  9  1  0
  9 10  2  0
  9 19  1  0
 10 11  1  0
 11 12  1  0
 13 12  1  1
 12 19  2  0
 13 14  1  0
 13 18  1  0
 14 15  1  0
 15 16  1  0
 16 17  1  0
 17 18  1  0
 20 21  1  0
 21 22  2  0
 21 23  1  0
 23 24  1  0
 24 25  2  0
 25 26  1  0
M  END
