
     RDKit          3D

 20 20  0  0  0  0  0  0  0  0999 V2000
   -3.6210    2.0790   -1.1510 N   0  0  0  0  0  0  0  0  0  0  0  0
   -2.4820    1.2370   -1.1970 C   0  0  0  0  0  0  0  0  0  0  0  0
   -1.4560    1.6550   -1.7740 O   0  0  0  0  0  0  0  0  0  0  0  0
   -2.4660   -0.1120   -0.5870 C   0  0  1  0  0  0  0  0  0  0  0  0
   -1.1450   -0.7730   -0.7840 C   0  0  2  0  0  0  0  0  0  0  0  0
   -1.3770   -2.1190   -1.1240 O   0  0  0  0  0  0  0  0  0  0  0  0
   -0.3630   -0.6360    0.4850 C   0  0  1  0  0  0  0  0  0  0  0  0
    0.9670   -0.0980    0.1920 C   0  0  0  0  0  0  0  0  0  0  0  0
    1.2310    0.1510   -1.0090 O   0  0  0  0  0  0  0  0  0  0  0  0
    1.9450    0.1540    1.1290 O   0  0  0  0  0  0  0  0  0  0  0  0
    3.2070    0.6710    0.7740 C   0  0  0  0  0  0  0  0  0  0  0  0
    3.9800   -0.2220   -0.1670 C   0  0  2  0  0  0  0  0  0  0  0  0
    4.1640   -1.4520    0.4790 O   0  0  0  0  0  0  0  0  0  0  0  0
    5.3540    0.3390   -0.4630 C   0  0  0  0  0  0  0  0  0  0  0  0
    5.2720    1.5650   -1.1070 O   0  0  0  0  0  0  0  0  0  0  0  0
   -1.1770    0.2040    1.4270 C   0  0  0  0  0  0  0  0  0  0  0  0
   -2.5970    0.0710    0.9140 C   0  0  1  0  0  0  0  0  0  0  0  0
   -3.3660    1.1850    1.1420 O   0  0  0  0  0  0  0  0  0  0  0  0
   -3.2840   -1.1520    1.4710 C   0  0  0  0  0  0  0  0  0  0  0  0
   -4.5080   -1.2990    0.8470 O   0  0  0  0  0  0  0  0  0  0  0  0
  1  2  1  0
  2  3  2  0
  4  2  1  6
  4  5  1  0
  4 17  1  0
  5  6  1  1
  5  7  1  0
  7  8  1  6
  7 16  1  0
  8  9  2  0
  8 10  1  0
 10 11  1  0
 11 12  1  0
 12 13  1  1
 12 14  1  0
 14 15  1  0
 16 17  1  0
 17 18  1  6
 17 19  1  0
 19 20  1  0
M  END
