
     RDKit          3D

 26 29  0  0  0  0  0  0  0  0999 V2000
   -4.9980   -1.4470    0.1970 C   0  0  0  0  0  0  0  0  0  0  0  0
   -3.6030   -1.7740   -0.0810 C   0  0  0  0  0  0  0  0  0  0  0  0
   -3.0510   -3.0330   -0.1280 N   0  0  0  0  0  0  0  0  0  0  0  0
   -1.7340   -2.9450   -0.3380 N   0  0  0  0  0  0  0  0  0  0  0  0
   -1.3640   -1.6670   -0.4350 C   0  0  0  0  0  0  0  0  0  0  0  0
   -2.5570   -0.9460   -0.2740 C   0  0  0  0  0  0  0  0  0  0  0  0
   -2.6200    0.5060   -0.3220 C   0  0  0  0  0  0  0  0  0  0  0  0
   -3.8320    0.9160   -0.7940 C   0  0  0  0  0  0  0  0  0  0  0  0
   -4.0440    2.3020   -0.8330 C   0  0  0  0  0  0  0  0  0  0  0  0
   -3.0510    3.1680   -0.4100 C   0  0  0  0  0  0  0  0  0  0  0  0
   -1.8210    2.7120    0.0630 C   0  0  0  0  0  0  0  0  0  0  0  0
   -1.6230    1.3670    0.0990 C   0  0  0  0  0  0  0  0  0  0  0  0
   -0.2840    1.0250    0.5390 C   0  0  0  0  0  0  0  0  0  0  0  0
    0.4450    1.8330    1.3370 C   0  0  0  0  0  0  0  0  0  0  0  0
    1.6550    1.1710    1.5030 C   0  0  0  0  0  0  0  0  0  0  0  0
    2.7340    1.6730    2.3140 C   0  0  0  0  0  0  0  0  0  0  0  0
    3.5990    2.0950    2.9820 N   0  0  0  0  0  0  0  0  0  0  0  0
    1.6150   -0.0300    0.7880 C   0  0  0  0  0  0  0  0  0  0  0  0
    2.6870   -0.9620    0.6930 N   0  0  0  0  0  0  0  0  0  0  0  0
    4.0080   -0.8210    1.2050 C   0  0  0  0  0  0  0  0  0  0  0  0
    4.9290    0.0480    0.4070 C   0  0  0  0  0  0  0  0  0  0  0  0
    5.1550   -0.5770   -1.2440 S   0  0  2  0  0  0  0  0  0  0  0  0
    6.4350   -1.3580   -1.3710 O   0  0  0  0  0  0  0  0  0  0  0  0
    5.2590    0.6260   -2.1520 O   0  0  0  0  0  0  0  0  0  0  0  0
    0.3980   -0.1110    0.1910 N   0  0  0  0  0  0  0  0  0  0  0  0
    0.0350   -1.2260   -0.6180 C   0  0  0  0  0  0  0  0  0  0  0  0
  1  2  1  0
  2  3  2  0
  2  6  1  0
  3  4  1  0
  4  5  1  0
  5  6  2  0
  5 26  1  0
  6  7  1  0
  7  8  2  0
  7 12  1  0
  8  9  1  0
  9 10  2  0
 10 11  1  0
 11 12  2  0
 12 13  1  0
 13 14  2  0
 13 25  1  0
 14 15  1  0
 15 16  1  0
 15 18  2  0
 16 17  3  0
 18 19  1  0
 18 25  1  0
 19 20  1  0
 20 21  1  0
 22 21  1  1
 22 23  2  0
 22 24  2  0
 25 26  1  0
M  END
