
     RDKit          3D

 26 29  0  0  0  0  0  0  0  0999 V2000
    7.6680   -0.2300   -0.5980 C   0  0  0  0  0  0  0  0  0  0  0  0
    6.3410    0.4300   -0.4390 C   0  0  0  0  0  0  0  0  0  0  0  0
    5.1020   -0.1380   -0.3240 C   0  0  0  0  0  0  0  0  0  0  0  0
    4.0350    0.6700   -0.1870 C   0  0  0  0  0  0  0  0  0  0  0  0
    2.6940    0.0980   -0.0320 N   0  0  0  0  0  0  0  0  0  0  0  0
    1.5530    0.8200   -0.3550 C   0  0  0  0  0  0  0  0  0  0  0  0
    1.7560    2.0080   -0.8030 O   0  0  0  0  0  0  0  0  0  0  0  0
    0.1990    0.4010   -0.2480 C   0  0  0  0  0  0  0  0  0  0  0  0
   -0.3500   -0.7160    0.1600 C   0  0  0  0  0  0  0  0  0  0  0  0
    0.3380   -1.9040    0.6460 C   0  0  0  0  0  0  0  0  0  0  0  0
   -0.6350   -3.0190    1.0720 C   0  0  0  0  0  0  0  0  0  0  0  0
   -1.7020   -3.1670   -0.0230 C   0  0  0  0  0  0  0  0  0  0  0  0
   -2.4950   -1.9060    0.0200 C   0  0  0  0  0  0  0  0  0  0  0  0
   -3.8730   -1.9050   -0.0260 C   0  0  0  0  0  0  0  0  0  0  0  0
   -4.5590   -0.7070    0.0260 C   0  0  0  0  0  0  0  0  0  0  0  0
   -5.8100   -0.6360   -0.0110 O   0  0  0  0  0  0  0  0  0  0  0  0
   -3.8330    0.4810    0.1260 C   0  0  0  0  0  0  0  0  0  0  0  0
   -4.5180    1.7580    0.1840 C   0  0  0  0  0  0  0  0  0  0  0  0
   -5.8360    1.9650    0.1530 N   0  0  0  0  0  0  0  0  0  0  0  0
   -6.0910    3.2950    0.2290 C   0  0  0  0  0  0  0  0  0  0  0  0
   -4.8710    3.9230    0.3090 C   0  0  0  0  0  0  0  0  0  0  0  0
   -3.9280    2.9520    0.2790 N   0  0  0  0  0  0  0  0  0  0  0  0
   -2.4970    0.3680    0.1630 N   0  0  0  0  0  0  0  0  0  0  0  0
   -1.8100   -0.7540    0.1150 N   0  0  0  0  0  0  0  0  0  0  0  0
    4.2390    2.0190   -0.1690 C   0  0  0  0  0  0  0  0  0  0  0  0
    6.0290    2.1500   -0.3560 S   0  0  0  0  0  0  0  0  0  0  0  0
  1  2  1  0
  2  3  2  0
  2 26  1  0
  3  4  1  0
  4  5  1  0
  4 25  2  0
  5  6  1  0
  6  7  2  0
  6  8  1  0
  8  9  2  3
  9 10  1  0
  9 24  1  0
 10 11  1  0
 11 12  1  0
 12 13  1  0
 13 14  2  0
 13 24  1  0
 14 15  1  0
 15 16  2  0
 15 17  1  0
 17 18  1  0
 17 23  2  0
 18 19  2  0
 18 22  1  0
 19 20  1  0
 20 21  2  0
 21 22  1  0
 23 24  1  0
 25 26  1  0
M  END
