
     RDKit          3D

 20 19  0  0  0  0  0  0  0  0999 V2000
   -4.4330   -2.2810   -1.7290 C   0  0  0  0  0  0  0  0  0  0  0  0
   -3.0800   -1.6870   -1.6080 C   0  0  0  0  0  0  0  0  0  0  0  0
   -2.2660   -1.9140   -2.4780 O   0  0  0  0  0  0  0  0  0  0  0  0
   -2.7720   -0.8410   -0.4330 C   0  0  0  0  0  0  0  0  0  0  0  0
   -1.4690   -0.3580   -0.4590 O   0  0  0  0  0  0  0  0  0  0  0  0
   -1.1790    0.4380    0.6460 C   0  0  1  0  0  0  0  0  0  0  0  0
   -0.1390   -0.1960    1.5390 C   0  0  0  0  0  0  0  0  0  0  0  0
    1.0640   -0.4500    0.9560 O   0  0  0  0  0  0  0  0  0  0  0  0
    1.7560    0.6090    0.4450 C   0  0  0  0  0  0  0  0  0  0  0  0
    3.0360    0.1190   -0.1290 C   0  0  0  0  0  0  0  0  0  0  0  0
    3.3010   -1.1040   -0.0770 O   0  0  0  0  0  0  0  0  0  0  0  0
    3.9550    0.9820   -0.7260 O   0  0  0  0  0  0  0  0  0  0  0  0
    5.1110    0.4380   -1.2280 O   0  0  0  0  0  0  0  0  0  0  0  0
    5.9800   -0.2590   -0.4290 C   0  0  0  0  0  0  0  0  0  0  0  0
    5.6860   -0.3900    0.7960 O   0  0  0  0  0  0  0  0  0  0  0  0
    7.1630   -0.8350   -0.8640 O   0  0  0  0  0  0  0  0  0  0  0  0
   -0.8750    1.7630    0.2900 O   0  0  0  0  0  0  0  0  0  0  0  0
   -1.6930    2.7920    0.7010 C   0  0  0  0  0  0  0  0  0  0  0  0
   -2.6990    2.4980    1.3910 O   0  0  0  0  0  0  0  0  0  0  0  0
   -1.4300    4.1350    0.3690 O   0  0  0  0  0  0  0  0  0  0  0  0
  1  2  1  0
  2  3  2  0
  2  4  1  0
  4  5  1  0
  5  6  1  0
  6  7  1  6
  6 17  1  0
  7  8  1  0
  8  9  1  0
  9 10  1  0
 10 11  2  0
 10 12  1  0
 12 13  1  0
 13 14  1  0
 14 15  2  0
 14 16  1  0
 17 18  1  0
 18 19  2  0
 18 20  1  0
M  END
