
     RDKit          3D

 19 18  0  0  0  0  0  0  0  0999 V2000
   -5.7220    1.9720   -0.5220 O   0  0  0  0  0  0  0  0  0  0  0  0
   -5.7980    1.3730    0.5850 C   0  0  0  0  0  0  0  0  0  0  0  0
   -6.8150    1.7580    1.4610 O   0  0  0  0  0  0  0  0  0  0  0  0
   -4.8830    0.3840    0.8680 O   0  0  0  0  0  0  0  0  0  0  0  0
   -3.8620    0.0110   -0.0310 C   0  0  2  0  0  0  0  0  0  0  0  0
   -4.0750   -1.3950   -0.4220 C   0  0  0  0  0  0  0  0  0  0  0  0
   -5.0280   -2.0510    0.0260 O   0  0  0  0  0  0  0  0  0  0  0  0
   -3.1960   -2.0140   -1.3130 O   0  0  0  0  0  0  0  0  0  0  0  0
   -2.5020    0.2170    0.5620 C   0  0  0  0  0  0  0  0  0  0  0  0
   -2.4610    0.6770    1.7360 O   0  0  0  0  0  0  0  0  0  0  0  0
   -1.3640   -0.0810   -0.1390 O   0  0  0  0  0  0  0  0  0  0  0  0
   -0.1180    0.1340    0.4700 C   0  0  0  0  0  0  0  0  0  0  0  0
    1.0320   -0.2520   -0.4550 C   0  0  0  0  0  0  0  0  0  0  0  0
    2.2000   -0.0080    0.2250 O   0  0  0  0  0  0  0  0  0  0  0  0
    3.3480   -0.3060   -0.4760 C   0  0  0  0  0  0  0  0  0  0  0  0
    4.5230    0.0350    0.4500 C   0  0  0  0  0  0  0  0  0  0  0  0
    6.1450   -0.3030   -0.3290 P   0  0  0  0  0  0  0  0  0  0  0  0
    6.0180   -1.0370   -1.8860 O   0  0  0  0  0  0  0  0  0  0  0  0
    7.1200    1.1230   -0.3830 O   0  0  0  0  0  0  0  0  0  0  0  0
  1  2  2  0
  2  3  1  0
  2  4  1  0
  5  4  1  1
  5  6  1  0
  5  9  1  0
  6  7  2  0
  6  8  1  0
  9 10  2  0
  9 11  1  0
 11 12  1  0
 12 13  1  0
 13 14  1  0
 14 15  1  0
 15 16  1  0
 16 17  1  0
 17 18  1  0
 17 19  1  0
M  END
