
     RDKit          3D

 20 20  0  0  0  0  0  0  0  0999 V2000
    4.2970    0.2090    0.3890 O   0  0  0  0  0  0  0  0  0  0  0  0
    4.1970    0.9220   -0.6280 C   0  0  0  0  0  0  0  0  0  0  0  0
    5.1470    0.7440   -1.6490 O   0  0  0  0  0  0  0  0  0  0  0  0
    3.1830    1.8440   -0.7260 O   0  0  0  0  0  0  0  0  0  0  0  0
    2.2190    2.0410    0.2810 C   0  0  0  0  0  0  0  0  0  0  0  0
    1.4880    0.7370    0.4670 C   0  0  0  0  0  0  0  0  0  0  0  0
    1.7860   -0.2700   -0.2270 O   0  0  0  0  0  0  0  0  0  0  0  0
    0.4780    0.6040    1.3940 O   0  0  0  0  0  0  0  0  0  0  0  0
   -0.2660   -0.5290    1.6540 C   0  0  0  0  0  0  0  0  0  0  0  0
   -1.1030   -1.0820    0.5620 C   0  0  1  0  0  0  0  0  0  0  0  0
   -2.2440   -0.1730    0.1580 C   0  0  0  0  0  0  0  0  0  0  0  0
   -1.8080    0.9660   -0.5250 O   0  0  0  0  0  0  0  0  0  0  0  0
   -2.7560    1.8780   -0.9490 C   0  0  0  0  0  0  0  0  0  0  0  0
   -3.9850    1.6780   -0.7200 O   0  0  0  0  0  0  0  0  0  0  0  0
   -2.3340    3.0100   -1.6280 O   0  0  0  0  0  0  0  0  0  0  0  0
   -0.4510   -1.4770   -0.5710 O   0  0  0  0  0  0  0  0  0  0  0  0
   -1.1560   -2.5590   -1.1010 C   0  0  0  0  0  0  0  0  0  0  0  0
   -1.5720   -3.2730    0.1480 C   0  0  0  0  0  0  0  0  0  0  0  0
   -1.7500   -4.5030    0.3250 O   0  0  0  0  0  0  0  0  0  0  0  0
   -1.7250   -2.2670    1.0930 O   0  0  0  0  0  0  0  0  0  0  0  0
  1  2  2  0
  2  3  1  0
  2  4  1  0
  4  5  1  0
  5  6  1  0
  6  7  2  0
  6  8  1  0
  8  9  1  0
 10  9  1  1
 10 11  1  0
 10 16  1  0
 10 20  1  0
 11 12  1  0
 12 13  1  0
 13 14  2  0
 13 15  1  0
 16 17  1  0
 17 18  1  0
 18 19  2  0
 18 20  1  0
M  END
