
     RDKit          3D

 19 18  0  0  0  0  0  0  0  0999 V2000
   -0.8550   -2.5180    1.0690 C   0  0  0  0  0  0  0  0  0  0  0  0
   -0.1080   -1.4630    0.6880 O   0  0  0  0  0  0  0  0  0  0  0  0
   -0.5980   -0.4380   -0.0100 C   0  0  1  0  0  0  0  0  0  0  0  0
    0.4550    0.4800   -0.2320 O   0  0  0  0  0  0  0  0  0  0  0  0
    1.5190   -0.0090   -0.9170 C   0  0  0  0  0  0  0  0  0  0  0  0
    2.2350   -1.0340   -0.4050 O   0  0  0  0  0  0  0  0  0  0  0  0
    2.8760   -0.8990    0.7720 C   0  0  0  0  0  0  0  0  0  0  0  0
    3.9300    0.1840    0.8080 C   0  0  0  0  0  0  0  0  0  0  0  0
    4.9370   -0.0070   -0.1080 O   0  0  0  0  0  0  0  0  0  0  0  0
   -1.3180   -0.7100   -1.2580 C   0  0  0  0  0  0  0  0  0  0  0  0
   -1.8440    0.2050   -1.9360 O   0  0  0  0  0  0  0  0  0  0  0  0
   -1.4370   -1.9930   -1.7280 O   0  0  0  0  0  0  0  0  0  0  0  0
   -1.5560    0.3590    0.8400 C   0  0  0  0  0  0  0  0  0  0  0  0
   -1.7300    0.0170    2.0260 O   0  0  0  0  0  0  0  0  0  0  0  0
   -2.2360    1.4400    0.3540 O   0  0  0  0  0  0  0  0  0  0  0  0
   -3.1060    2.1970    1.0570 O   0  0  0  0  0  0  0  0  0  0  0  0
   -3.8460    3.1760    0.4450 C   0  0  0  0  0  0  0  0  0  0  0  0
   -3.6820    3.3400   -0.7950 O   0  0  0  0  0  0  0  0  0  0  0  0
   -4.7560    3.9970    1.0730 O   0  0  0  0  0  0  0  0  0  0  0  0
  1  2  1  0
  3  2  1  1
  3  4  1  0
  3 10  1  0
  3 13  1  0
  4  5  1  0
  5  6  1  0
  6  7  1  0
  7  8  1  0
  8  9  1  0
 10 11  2  0
 10 12  1  0
 13 14  2  0
 13 15  1  0
 15 16  1  0
 16 17  1  0
 17 18  2  0
 17 19  1  0
M  END
