
     RDKit          3D

 20 20  0  0  0  0  0  0  0  0999 V2000
   -3.9470   -0.7830   -0.1790 O   0  0  0  0  0  0  0  0  0  0  0  0
   -3.9670    0.2360    0.5550 C   0  0  0  0  0  0  0  0  0  0  0  0
   -5.2840    0.6890    1.0780 C   0  0  0  0  0  0  0  0  0  0  0  0
   -6.2830   -0.1460    0.6290 O   0  0  0  0  0  0  0  0  0  0  0  0
   -2.7780    0.8540    0.8180 O   0  0  0  0  0  0  0  0  0  0  0  0
   -1.5540    0.3760    0.2930 C   0  0  1  0  0  0  0  0  0  0  0  0
   -0.4660    1.1900    0.7040 O   0  0  0  0  0  0  0  0  0  0  0  0
    0.8020    0.7990    0.2210 C   0  0  0  0  0  0  0  0  0  0  0  0
    0.8960   -0.2070   -0.5190 O   0  0  0  0  0  0  0  0  0  0  0  0
    2.0160    1.5430    0.5650 C   0  0  0  0  0  0  0  0  0  0  0  0
    3.1360    0.9730    0.0600 O   0  0  0  0  0  0  0  0  0  0  0  0
    3.4900   -0.2720    0.4810 C   0  0  0  0  0  0  0  0  0  0  0  0
    4.7940   -0.6770   -0.2340 C   0  0  0  0  0  0  0  0  0  0  0  0
    4.5020   -0.6580   -1.5920 O   0  0  0  0  0  0  0  0  0  0  0  0
    5.5450   -0.9900   -2.3210 O   0  0  0  0  0  0  0  0  0  0  0  0
   -1.3770   -1.0220    0.8080 C   0  0  0  0  0  0  0  0  0  0  0  0
   -1.5590   -1.8300   -0.2930 O   0  0  0  0  0  0  0  0  0  0  0  0
   -1.3930   -1.1420   -1.3970 O   0  0  0  0  0  0  0  0  0  0  0  0
   -1.5700    0.2150   -1.1720 C   0  0  0  0  0  0  0  0  0  0  0  0
   -1.7150    1.1150   -2.0650 O   0  0  0  0  0  0  0  0  0  0  0  0
  1  2  2  0
  2  3  1  0
  2  5  1  0
  3  4  1  0
  6  5  1  1
  6  7  1  0
  6 16  1  0
  6 19  1  0
  7  8  1  0
  8  9  2  0
  8 10  1  0
 10 11  1  0
 11 12  1  0
 12 13  1  0
 13 14  1  0
 14 15  1  0
 16 17  1  0
 17 18  1  0
 18 19  1  0
 19 20  2  0
M  END
