
     RDKit          3D

 28 28  0  0  0  0  0  0  0  0999 V2000
   -5.4560   -0.7290    1.1570 C   0  0  0  0  0  0  0  0  0  0  0  0
   -4.2890   -1.5900    1.5580 C   0  0  1  0  0  0  0  0  0  0  0  0
   -4.5400   -2.9460    0.9170 C   0  0  0  0  0  0  0  0  0  0  0  0
   -2.9450   -1.0580    1.3670 C   0  0  0  0  0  0  0  0  0  0  0  0
   -2.3580   -0.6980    0.0850 C   0  0  2  0  0  0  0  0  0  0  0  0
   -0.9950   -0.1910    0.2230 N   0  0  0  0  0  0  0  0  0  0  0  0
    0.2150   -0.9230    0.8860 P   0  0  0  0  0  0  0  0  0  0  0  0
   -0.3660   -2.3800    0.2220 O   0  0  0  0  0  0  0  0  0  0  0  0
   -0.2030   -0.4280    2.3570 O   0  0  0  0  0  0  0  0  0  0  0  0
    1.5480   -0.1270    0.0390 C   0  0  0  0  0  0  0  0  0  0  0  0
    2.5730    0.3540    0.9800 N   0  0  0  0  0  0  0  0  0  0  0  0
    3.7390    1.0090    0.5600 C   0  0  0  0  0  0  0  0  0  0  0  0
    3.9420    1.2000   -0.6540 O   0  0  0  0  0  0  0  0  0  0  0  0
    4.6370    1.4210    1.5660 O   0  0  0  0  0  0  0  0  0  0  0  0
    5.8030    2.0760    1.1130 C   0  0  0  0  0  0  0  0  0  0  0  0
    6.5440    1.1400    0.2410 C   0  0  0  0  0  0  0  0  0  0  0  0
    7.5050    1.6100   -0.6210 C   0  0  0  0  0  0  0  0  0  0  0  0
    8.2160    0.7450   -1.4390 C   0  0  0  0  0  0  0  0  0  0  0  0
    7.9330   -0.6120   -1.3660 C   0  0  0  0  0  0  0  0  0  0  0  0
    6.9760   -1.0890   -0.5080 C   0  0  0  0  0  0  0  0  0  0  0  0
    6.2820   -0.2160    0.2950 C   0  0  0  0  0  0  0  0  0  0  0  0
   -3.0330    0.2550   -0.8050 C   0  0  0  0  0  0  0  0  0  0  0  0
   -2.5300    1.4460   -0.8960 O   0  0  0  0  0  0  0  0  0  0  0  0
   -4.1940   -0.0160   -1.5890 N   0  0  0  0  0  0  0  0  0  0  0  0
   -4.7260    1.0160   -2.4190 C   0  0  0  0  0  0  0  0  0  0  0  0
   -5.1290    2.2590   -1.7490 C   0  0  0  0  0  0  0  0  0  0  0  0
   -5.6720    3.2970   -2.5600 N   0  0  0  0  0  0  0  0  0  0  0  0
   -5.0410    2.4970   -0.5290 O   0  0  0  0  0  0  0  0  0  0  0  0
  2  1  1  6
  2  3  1  0
  2  4  1  0
  5  4  1  1
  5  6  1  0
  5 22  1  0
  6  7  1  0
  7  8  1  0
  7  9  1  0
  7 10  1  0
 10 11  1  0
 11 12  1  0
 12 13  2  0
 12 14  1  0
 14 15  1  0
 15 16  1  0
 16 17  2  0
 16 21  1  0
 17 18  1  0
 18 19  2  0
 19 20  1  0
 20 21  2  0
 22 23  2  0
 22 24  1  0
 24 25  1  0
 25 26  1  0
 26 27  1  0
 26 28  2  0
M  END
