
     RDKit          3D

 20 20  0  0  0  0  0  0  0  0999 V2000
    4.0750    1.4790    1.2010 O   0  0  0  0  0  0  0  0  0  0  0  0
    4.5870    0.4270    1.6300 C   0  0  0  0  0  0  0  0  0  0  0  0
    5.8600    0.4640    2.2510 O   0  0  0  0  0  0  0  0  0  0  0  0
    3.8990   -0.7550    1.4890 O   0  0  0  0  0  0  0  0  0  0  0  0
    2.6430   -0.8940    0.8870 C   0  0  0  0  0  0  0  0  0  0  0  0
    2.7250   -0.4930   -0.5440 C   0  0  0  0  0  0  0  0  0  0  0  0
    1.4900   -0.6070   -1.2270 O   0  0  0  0  0  0  0  0  0  0  0  0
    0.3450    0.0590   -0.8910 C   0  0  0  0  0  0  0  0  0  0  0  0
    0.3800    0.8350    0.0980 O   0  0  0  0  0  0  0  0  0  0  0  0
   -0.9430   -0.0720   -1.6190 C   0  0  2  0  0  0  0  0  0  0  0  0
   -1.9240    0.7130   -1.0630 O   0  0  0  0  0  0  0  0  0  0  0  0
   -2.0900    0.3260    0.1820 O   0  0  0  0  0  0  0  0  0  0  0  0
   -3.0360    1.1260    0.7980 C   0  0  0  0  0  0  0  0  0  0  0  0
   -3.2420    0.6960    2.2360 C   0  0  0  0  0  0  0  0  0  0  0  0
   -2.0020    0.8250    2.8890 O   0  0  0  0  0  0  0  0  0  0  0  0
   -1.4100   -1.4050   -1.5630 O   0  0  0  0  0  0  0  0  0  0  0  0
   -2.3830   -1.3690   -2.5810 C   0  0  0  0  0  0  0  0  0  0  0  0
   -1.6260   -0.6820   -3.6670 C   0  0  0  0  0  0  0  0  0  0  0  0
   -1.7560   -0.8690   -4.9040 O   0  0  0  0  0  0  0  0  0  0  0  0
   -0.7670    0.1900   -3.0090 O   0  0  0  0  0  0  0  0  0  0  0  0
  1  2  2  0
  2  3  1  0
  2  4  1  0
  4  5  1  0
  5  6  1  0
  6  7  1  0
  7  8  1  0
  8  9  2  0
  8 10  1  0
 10 11  1  1
 10 16  1  0
 10 20  1  0
 11 12  1  0
 12 13  1  0
 13 14  1  0
 14 15  1  0
 16 17  1  0
 17 18  1  0
 18 19  2  0
 18 20  1  0
M  END
