
     RDKit          3D

 33 36  0  0  0  0  0  0  0  0999 V2000
   -0.2750   -2.6120    0.2200 C   0  0  0  0  0  0  0  0  0  0  0  0
   -0.9480   -1.2640    0.3890 C   0  0  2  0  0  0  0  0  0  0  0  0
   -2.4040   -1.5270    0.3480 C   0  0  0  0  0  0  0  0  0  0  0  0
   -3.0610   -1.7860   -0.8320 C   0  0  0  0  0  0  0  0  0  0  0  0
   -4.4370   -2.0300   -0.8560 C   0  0  0  0  0  0  0  0  0  0  0  0
   -5.1450   -2.0160    0.2790 N   0  0  0  0  0  0  0  0  0  0  0  0
   -4.5380   -1.7660    1.4570 C   0  0  0  0  0  0  0  0  0  0  0  0
   -5.3290   -1.7670    2.5940 O   0  0  0  0  0  0  0  0  0  0  0  0
   -3.1790   -1.5250    1.4880 C   0  0  0  0  0  0  0  0  0  0  0  0
   -0.5540   -0.3140   -0.5830 N   0  0  2  0  0  0  0  0  0  0  0  0
    0.8240   -0.4960   -1.0520 C   0  0  0  0  0  0  0  0  0  0  0  0
    1.8090   -0.3360    0.0300 C   0  0  0  0  0  0  0  0  0  0  0  0
    1.4370   -0.0760    1.1910 O   0  0  0  0  0  0  0  0  0  0  0  0
    3.1760   -0.4770   -0.2550 N   0  0  0  0  0  0  0  0  0  0  0  0
    3.6930   -0.8130   -1.5870 C   0  0  0  0  0  0  0  0  0  0  0  0
    4.6980   -1.8600   -1.1780 C   0  0  0  0  0  0  0  0  0  0  0  0
    4.9590   -2.9630   -1.6760 O   0  0  0  0  0  0  0  0  0  0  0  0
    5.3440   -1.2550    0.0160 C   0  0  0  0  0  0  0  0  0  0  0  0
    6.5490   -1.4810    0.4510 C   0  0  0  0  0  0  0  0  0  0  0  0
    7.3340   -2.3600   -0.2310 F   0  0  0  0  0  0  0  0  0  0  0  0
    4.3410   -0.3620    0.5930 C   0  0  0  0  0  0  0  0  0  0  0  0
    4.3960    0.4390    1.6310 C   0  0  0  0  0  0  0  0  0  0  0  0
    3.3370    1.2350    1.9870 F   0  0  0  0  0  0  0  0  0  0  0  0
    5.8050    0.5850    2.6740 Cl  0  0  0  0  0  0  0  0  0  0  0  0
   -0.7180    1.0600   -0.2750 C   0  0  2  0  0  0  0  0  0  0  0  0
   -1.6370    1.4280    0.8230 C   0  0  0  0  0  0  0  0  0  0  0  0
   -1.2480    2.8580    1.2390 C   0  0  0  0  0  0  0  0  0  0  0  0
   -1.6880    3.7220    0.0750 C   0  0  0  0  0  0  0  0  0  0  0  0
   -2.1160    4.9510    0.1130 N   0  0  0  0  0  0  0  0  0  0  0  0
   -2.4690    5.6560   -0.7870 C   0  0  0  0  0  0  0  0  0  0  0  0
   -2.2020    4.4280   -2.2050 S   0  0  0  0  0  0  0  0  0  0  0  0
   -1.6210    3.1240   -1.1560 C   0  0  0  0  0  0  0  0  0  0  0  0
   -1.1990    1.8040   -1.5210 C   0  0  0  0  0  0  0  0  0  0  0  0
  2  1  1  6
  2  3  1  0
  2 10  1  0
  3  4  2  0
  3  9  1  0
  4  5  1  0
  5  6  2  0
  6  7  1  0
  7  8  1  0
  7  9  2  0
 10 11  1  1
 10 25  1  0
 11 12  1  0
 12 13  2  0
 12 14  1  0
 14 15  1  0
 14 21  1  0
 15 16  1  0
 16 17  2  0
 16 18  1  0
 18 19  2  3
 18 21  1  0
 19 20  1  0
 21 22  2  3
 22 23  1  0
 22 24  1  0
 25 26  1  1
 25 33  1  0
 26 27  1  0
 27 28  1  0
 28 29  1  0
 28 32  2  0
 29 30  2  0
 30 31  1  0
 31 32  1  0
 32 33  1  0
M  CHG  1  10   1
M  END
