
     RDKit          3D

 33 36  0  0  0  0  0  0  0  0999 V2000
   -3.8570   -2.3530    0.4560 O   0  0  0  0  0  0  0  0  0  0  0  0
   -2.8790   -1.6750    0.1920 C   0  0  0  0  0  0  0  0  0  0  0  0
   -2.9490   -0.7740   -0.8840 N   0  0  0  0  0  0  0  0  0  0  0  0
   -4.1030    0.0850   -0.7050 C   0  0  1  0  0  0  0  0  0  0  0  0
   -3.9050    1.4240   -1.3790 C   0  0  0  0  0  0  0  0  0  0  0  0
   -4.9480    2.3700   -0.8320 C   0  0  0  0  0  0  0  0  0  0  0  0
   -6.0200    1.6360   -0.0930 C   0  0  0  0  0  0  0  0  0  0  0  0
   -6.5110    0.3910   -0.7740 C   0  0  2  0  0  0  0  0  0  0  0  0
   -7.2800   -0.4080    0.2860 C   0  0  1  0  0  0  0  0  0  0  0  0
   -8.3230    0.3830    0.7270 F   0  0  0  0  0  0  0  0  0  0  0  0
   -7.8500   -1.8850   -0.5030 Cl  0  0  0  0  0  0  0  0  0  0  0  0
   -5.3730   -0.5060   -1.2390 C   0  0  0  0  0  0  0  0  0  0  0  0
   -1.6770   -1.8600    1.0420 C   0  0  2  0  0  0  0  0  0  0  0  0
   -1.8840   -1.2910    2.4350 C   0  0  0  0  0  0  0  0  0  0  0  0
   -1.5920    0.1060    2.3030 O   0  0  0  0  0  0  0  0  0  0  0  0
   -0.8180    0.3140    1.1460 C   0  0  0  0  0  0  0  0  0  0  0  0
   -0.3890    1.4010    0.6810 O   0  0  0  0  0  0  0  0  0  0  0  0
   -0.5980   -0.9710    0.5740 N   0  0  0  0  0  0  0  0  0  0  0  0
    0.4660   -1.3280   -0.2870 C   0  0  0  0  0  0  0  0  0  0  0  0
    1.7120   -1.2530    0.1080 C   0  0  0  0  0  0  0  0  0  0  0  0
    2.1410   -0.8050    1.4500 C   0  0  0  0  0  0  0  0  0  0  0  0
    3.1980    0.6470    1.4230 S   0  0  0  0  0  0  0  0  0  0  0  0
    4.7990    0.3630    0.7240 C   0  0  0  0  0  0  0  0  0  0  0  0
    5.5780    1.3810    0.6040 N   0  0  0  0  0  0  0  0  0  0  0  0
    6.8790    1.3110    0.0660 C   0  0  0  0  0  0  0  0  0  0  0  0
    7.7270    2.3890   -0.0620 C   0  0  0  0  0  0  0  0  0  0  0  0
    8.9970    2.3000   -0.5850 C   0  0  0  0  0  0  0  0  0  0  0  0
    9.4340    1.0480   -1.0010 C   0  0  0  0  0  0  0  0  0  0  0  0
   10.6800    0.8950   -1.5270 F   0  0  0  0  0  0  0  0  0  0  0  0
    8.5940   -0.0310   -0.8770 C   0  0  0  0  0  0  0  0  0  0  0  0
    7.3250    0.0770   -0.3520 C   0  0  0  0  0  0  0  0  0  0  0  0
    6.5130   -1.1580   -0.2770 C   0  0  0  0  0  0  0  0  0  0  0  0
    5.2120   -0.9150    0.3220 N   0  0  0  0  0  0  0  0  0  0  0  0
  1  2  2  0
  2  3  1  0
 13  2  1  6
  4  3  1  6
  4  5  1  0
  4 12  1  0
  5  6  1  0
  6  7  1  0
  8  7  1  1
  8  9  1  0
  8 12  1  0
  9 10  1  6
  9 11  1  0
 13 14  1  0
 13 18  1  0
 14 15  1  0
 15 16  1  0
 16 17  2  0
 16 18  1  0
 18 19  1  0
 19 20  2  3
 20 21  1  0
 21 22  1  0
 22 23  1  0
 23 24  2  0
 23 33  1  0
 24 25  1  0
 25 26  2  0
 25 31  1  0
 26 27  1  0
 27 28  2  0
 28 29  1  0
 28 30  1  0
 30 31  2  0
 31 32  1  0
 32 33  1  0
M  CHG  1   3   1
M  END
