
     RDKit          3D

 33 36  0  0  0  0  0  0  0  0999 V2000
   -6.6820    4.5330   -0.9550 C   0  0  0  0  0  0  0  0  0  0  0  0
   -5.9950    3.2890   -0.8140 O   0  0  0  0  0  0  0  0  0  0  0  0
   -4.6800    3.1940   -0.4480 C   0  0  0  0  0  0  0  0  0  0  0  0
   -4.0350    4.2620   -0.2210 O   0  0  0  0  0  0  0  0  0  0  0  0
   -3.9740    1.9770   -0.3010 N   0  0  0  0  0  0  0  0  0  0  0  0
   -2.5740    1.9650    0.0930 C   0  0  0  0  0  0  0  0  0  0  0  0
   -2.0500    0.5850    0.1820 C   0  0  0  0  0  0  0  0  0  0  0  0
   -2.7770   -0.5150   -0.0690 N   0  0  0  0  0  0  0  0  0  0  0  0
   -2.0670   -1.6010    0.0850 N   0  0  0  0  0  0  0  0  0  0  0  0
   -2.5180   -2.9590   -0.0990 C   0  0  0  0  0  0  0  0  0  0  0  0
   -1.8870   -3.7410   -1.0430 C   0  0  0  0  0  0  0  0  0  0  0  0
   -2.3280   -5.0370   -1.2080 C   0  0  0  0  0  0  0  0  0  0  0  0
   -1.7170   -5.8120   -2.1300 F   0  0  0  0  0  0  0  0  0  0  0  0
   -3.3820   -5.5210   -0.4330 C   0  0  0  0  0  0  0  0  0  0  0  0
   -4.0140   -4.7420    0.5110 C   0  0  0  0  0  0  0  0  0  0  0  0
   -5.3430   -5.3530    1.4880 Cl  0  0  0  0  0  0  0  0  0  0  0  0
   -3.5720   -3.4490    0.6740 C   0  0  0  0  0  0  0  0  0  0  0  0
   -4.1640   -2.6300    1.5980 F   0  0  0  0  0  0  0  0  0  0  0  0
   -0.8320   -1.2170    0.4490 C   0  0  0  0  0  0  0  0  0  0  0  0
   -0.8020    0.1580    0.5150 C   0  0  0  0  0  0  0  0  0  0  0  0
    0.4030    0.9300    0.8870 C   0  0  0  0  0  0  0  0  0  0  0  0
    1.4510    0.1650    1.4650 N   0  0  2  0  0  0  0  0  0  0  0  0
    2.5710    0.1040    0.5630 C   0  0  0  0  0  0  0  0  0  0  0  0
    3.5480    1.2530    0.8410 C   0  0  0  0  0  0  0  0  0  0  0  0
    4.7040    1.1370   -0.1350 C   0  0  0  0  0  0  0  0  0  0  0  0
    4.9220    2.1340   -0.9480 C   0  0  0  0  0  0  0  0  0  0  0  0
    5.9630    2.2660   -1.9740 C   0  0  0  0  0  0  0  0  0  0  0  0
    7.0220    0.8380   -2.0530 S   0  0  0  0  0  0  0  0  0  0  0  0
    8.4670    1.2830   -1.7530 O   0  0  0  0  0  0  0  0  0  0  0  0
    6.4840   -0.3250   -0.8460 C   0  0  0  0  0  0  0  0  0  0  0  0
    5.4580   -0.0890   -0.0620 C   0  0  0  0  0  0  0  0  0  0  0  0
    1.0920   -1.1530    1.8920 C   0  0  0  0  0  0  0  0  0  0  0  0
    0.4260   -1.9370    0.7730 C   0  0  0  0  0  0  0  0  0  0  0  0
  1  2  1  0
  2  3  1  0
  3  4  2  0
  3  5  1  0
  5  6  1  0
  6  7  1  0
  7  8  2  0
  7 20  1  0
  8  9  1  0
  9 10  1  0
  9 19  1  0
 10 11  2  0
 10 17  1  0
 11 12  1  0
 12 13  1  0
 12 14  2  0
 14 15  1  0
 15 16  1  0
 15 17  2  0
 17 18  1  0
 19 20  2  0
 19 33  1  0
 20 21  1  0
 21 22  1  0
 22 23  1  6
 22 32  1  0
 23 24  1  0
 24 25  1  0
 25 26  2  0
 25 31  1  0
 26 27  1  0
 28 27  1  1
 28 29  2  0
 28 30  1  0
 30 31  2  0
 32 33  1  0
M  CHG  1  22   1
M  END
