
     RDKit          3D

 32 33  0  0  0  0  0  0  0  0999 V2000
   -1.4020    0.3860   -2.8000 C   0  0  0  0  0  0  0  0  0  0  0  0
   -1.6450   -0.3160   -1.3810 C   0  0  2  0  0  0  0  0  0  0  0  0
   -2.6280   -1.2540   -1.6590 O   0  0  0  0  0  0  0  0  0  0  0  0
   -2.1620    0.8150   -0.5920 C   0  0  0  0  0  0  0  0  0  0  0  0
   -2.6910    0.6620    1.0620 S   0  0  0  0  0  0  0  0  0  0  0  0
   -4.1530   -0.3360    1.3430 C   0  0  0  0  0  0  0  0  0  0  0  0
   -5.4060    0.2560    0.7520 C   0  0  1  0  0  0  0  0  0  0  0  0
   -5.3650    0.4350   -0.6010 O   0  0  0  0  0  0  0  0  0  0  0  0
   -6.5430   -0.7240    1.0490 C   0  0  0  0  0  0  0  0  0  0  0  0
   -7.6620    0.1910    1.5160 C   0  0  0  0  0  0  0  0  0  0  0  0
   -7.0360    1.2830    2.0770 O   0  0  0  0  0  0  0  0  0  0  0  0
   -5.8510    1.5130    1.4230 C   0  0  0  0  0  0  0  0  0  0  0  0
   -0.3790   -1.0060   -1.0560 C   0  0  2  0  0  0  0  0  0  0  0  0
   -0.1830   -1.9600   -2.3050 C   0  0  0  0  0  0  0  0  0  0  0  0
   -0.3450   -1.9410    0.0550 C   0  0  0  0  0  0  0  0  0  0  0  0
   -0.5730   -1.6300    1.3990 N   0  0  0  0  0  0  0  0  0  0  0  0
    0.8350   -0.1090   -1.1780 C   0  0  1  0  0  0  0  0  0  0  0  0
    0.8180    0.9890   -0.3770 O   0  0  0  0  0  0  0  0  0  0  0  0
    2.1330   -0.8550   -0.8710 C   0  0  0  0  0  0  0  0  0  0  0  0
    3.2730    0.1610   -1.0370 C   0  0  1  0  0  0  0  0  0  0  0  0
    3.1380    1.2320   -0.1780 O   0  0  0  0  0  0  0  0  0  0  0  0
    4.3950    1.5330    0.3300 C   0  0  1  0  0  0  0  0  0  0  0  0
    4.3750    1.1050    1.8030 C   0  0  0  0  0  0  0  0  0  0  0  0
    4.1220   -0.2360    1.9220 O   0  0  0  0  0  0  0  0  0  0  0  0
    5.2950    0.6300   -0.4820 C   0  0  1  0  0  0  0  0  0  0  0  0
    6.5660    0.3230    0.1760 C   0  0  0  0  0  0  0  0  0  0  0  0
    6.9390   -0.8150    0.5490 O   0  0  0  0  0  0  0  0  0  0  0  0
    7.4430    1.3760    0.4130 O   0  0  0  0  0  0  0  0  0  0  0  0
    8.9560    1.1540    1.1710 S   0  0  1  0  0  0  0  0  0  0  0  0
   10.0870    1.3880    0.1960 O   0  0  0  0  0  0  0  0  0  0  0  0
    9.0670    2.2170    2.2310 O   0  0  0  0  0  0  0  0  0  0  0  0
    4.4850   -0.4730   -0.6770 O   0  0  0  0  0  0  0  0  0  0  0  0
  2  1  1  6
  2  3  1  0
  2  4  1  0
  2 13  1  0
  4  5  1  0
  5  6  1  0
  6  7  1  0
  7  8  1  6
  7  9  1  0
  7 12  1  0
  9 10  1  0
 10 11  1  0
 11 12  1  0
 13 14  1  6
 13 15  1  0
 13 17  1  0
 15 16  1  0
 17 18  1  1
 17 19  1  0
 20 19  1  1
 20 21  1  0
 20 32  1  0
 21 22  1  0
 22 23  1  1
 22 25  1  0
 23 24  1  0
 25 26  1  1
 25 32  1  0
 26 27  2  0
 26 28  1  0
 29 28  1  6
 29 30  2  0
 29 31  2  0
M  CHG  1  16   1
M  END
