
     RDKit          3D

 31 32  0  0  0  0  0  0  0  0999 V2000
   -0.8670    0.9240    2.1590 C   0  0  0  0  0  0  0  0  0  0  0  0
   -1.3000    0.5100    0.7280 C   0  0  1  0  0  0  0  0  0  0  0  0
   -2.6450   -0.0870    0.9140 C   0  0  1  0  0  0  0  0  0  0  0  0
   -3.4890    0.9240    1.5190 O   0  0  0  0  0  0  0  0  0  0  0  0
   -3.4040   -0.5770   -0.2660 C   0  0  2  0  0  0  0  0  0  0  0  0
   -3.0440   -1.9420   -0.7910 C   0  0  0  0  0  0  0  0  0  0  0  0
   -2.7240   -2.8130    0.2370 O   0  0  0  0  0  0  0  0  0  0  0  0
   -3.6870    0.3240   -1.2500 O   0  0  0  0  0  0  0  0  0  0  0  0
   -5.0120    0.6380   -1.3390 C   0  0  1  0  0  0  0  0  0  0  0  0
   -5.2620    2.1350   -1.1600 C   0  0  0  0  0  0  0  0  0  0  0  0
   -6.4760    2.3140   -2.0780 C   0  0  0  0  0  0  0  0  0  0  0  0
   -6.2100    1.4930   -3.1490 O   0  0  0  0  0  0  0  0  0  0  0  0
   -5.5870    0.3560   -2.7000 C   0  0  0  0  0  0  0  0  0  0  0  0
   -1.2940    1.7930   -0.0640 C   0  0  0  0  0  0  0  0  0  0  0  0
    0.2650    2.6490    0.3220 S   0  0  0  0  0  0  0  0  0  0  0  0
    1.5100    1.2920    0.4800 C   0  0  0  0  0  0  0  0  0  0  0  0
    0.9660    0.1640   -0.3310 C   0  0  1  0  0  0  0  0  0  0  0  0
    1.8890   -0.7870   -0.9320 C   0  0  2  0  0  0  0  0  0  0  0  0
    1.0900   -1.7830   -1.6750 N   0  0  0  0  0  0  0  0  0  0  0  0
    2.9190   -1.5060   -0.2010 C   0  0  0  0  0  0  0  0  0  0  0  0
    3.9920   -0.7330    0.4950 C   0  0  0  0  0  0  0  0  0  0  0  0
    4.9560   -1.7260    1.1630 C   0  0  0  0  0  0  0  0  0  0  0  0
    5.9780   -1.1610    1.8420 O   0  0  0  0  0  0  0  0  0  0  0  0
    6.8080   -0.4230    1.0360 C   0  0  2  0  0  0  0  0  0  0  0  0
    8.1460   -0.8760    1.1290 O   0  0  0  0  0  0  0  0  0  0  0  0
    6.8610    0.8870    1.5660 O   0  0  0  0  0  0  0  0  0  0  0  0
    6.5950    2.0160    0.3750 S   0  0  2  0  0  0  0  0  0  0  0  0
    5.2060    2.5800    0.5510 O   0  0  0  0  0  0  0  0  0  0  0  0
    6.7320    1.4230   -1.0080 O   0  0  0  0  0  0  0  0  0  0  0  0
   -0.2650   -0.4680    0.3020 C   0  0  1  0  0  0  0  0  0  0  0  0
    0.0610   -1.2550    1.3990 O   0  0  0  0  0  0  0  0  0  0  0  0
  2  1  1  1
  2  3  1  0
  2 14  1  0
  2 30  1  0
  3  4  1  6
  3  5  1  0
  5  6  1  6
  5  8  1  0
  6  7  1  0
  9  8  1  6
  9 10  1  0
  9 13  1  0
 10 11  1  0
 11 12  1  0
 12 13  1  0
 14 15  1  0
 15 16  1  0
 17 16  1  1
 17 18  1  0
 17 30  1  0
 18 19  1  1
 18 20  1  0
 20 21  1  0
 21 22  1  0
 22 23  1  0
 23 24  1  0
 24 25  1  1
 24 26  1  0
 27 26  1  1
 27 28  2  0
 27 29  2  0
 30 31  1  1
M  CHG  1  19   1
M  END
