
     RDKit          3D

 11 12  0  0  0  0  0  0  0  0999 V2000
   -2.3890    0.3390    0.0510 N   0  0  0  0  0  0  0  0  0  0  0  0
   -1.2530   -0.5140    0.0590 C   0  0  0  0  0  0  0  0  0  0  0  0
   -1.1650   -1.8350    0.1640 N   0  0  0  0  0  0  0  0  0  0  0  0
    0.0800   -2.2540    0.1310 N   0  0  0  0  0  0  0  0  0  0  0  0
    0.8610   -1.1580   -0.0020 C   0  0  0  0  0  0  0  0  0  0  0  0
    2.1880   -0.9730   -0.0900 N   0  0  0  0  0  0  0  0  0  0  0  0
    2.6940    0.2660   -0.2190 C   0  0  0  0  0  0  0  0  0  0  0  0
    1.8940    1.3410   -0.2650 N   0  0  0  0  0  0  0  0  0  0  0  0
    0.5640    1.2120   -0.1820 C   0  0  0  0  0  0  0  0  0  0  0  0
   -0.4910    2.6190   -0.2410 S   0  0  0  0  0  0  0  0  0  0  0  0
    0.0400   -0.0360   -0.0500 C   0  0  0  0  0  0  0  0  0  0  0  0
  1  2  1  0
  2  3  2  0
  2 11  1  0
  3  4  1  0
  4  5  1  0
  5  6  2  0
  5 11  1  0
  6  7  1  0
  7  8  2  0
  8  9  1  0
  9 10  1  0
  9 11  2  0
M  END
