
     RDKit          3D

 11 12  0  0  0  0  0  0  0  0999 V2000
   -0.7020    2.0010    0.0380 N   0  0  0  0  0  0  0  0  0  0  0  0
   -1.0390    0.6430   -0.0760 C   0  0  0  0  0  0  0  0  0  0  0  0
   -2.2420    0.0980   -0.0490 C   0  0  0  0  0  0  0  0  0  0  0  0
   -2.0640   -1.3300   -0.2070 C   0  0  0  0  0  0  0  0  0  0  0  0
   -0.8160   -1.6250   -0.3220 N   0  0  0  0  0  0  0  0  0  0  0  0
   -0.0640   -0.4270   -0.2520 C   0  0  0  0  0  0  0  0  0  0  0  0
    1.2830   -0.3150   -0.3330 C   0  0  0  0  0  0  0  0  0  0  0  0
    1.9230    0.9080   -0.2530 N   0  0  0  0  0  0  0  0  0  0  0  0
    3.1580    0.9620   -0.3320 N   0  0  0  0  0  0  0  0  0  0  0  0
    3.7230   -0.6950   -0.5390 S   0  0  0  0  0  0  0  0  0  0  0  0
    2.1270   -1.4290   -0.5040 N   0  0  0  0  0  0  0  0  0  0  0  0
  1  2  1  0
  2  3  2  0
  2  6  1  0
  3  4  1  0
  4  5  2  0
  5  6  1  0
  6  7  2  3
  7  8  1  0
  7 11  1  0
  8  9  2  0
  9 10  1  0
 10 11  1  0
M  END
