
     RDKit          3D

 11 12  0  0  0  0  0  0  0  0999 V2000
   -3.4450    0.6190   -0.1960 N   0  0  0  0  0  0  0  0  0  0  0  0
   -2.1000    0.1910   -0.0230 C   0  0  0  0  0  0  0  0  0  0  0  0
   -1.7880   -1.1060    0.0530 N   0  0  0  0  0  0  0  0  0  0  0  0
   -0.5500   -1.5850    0.2140 C   0  0  0  0  0  0  0  0  0  0  0  0
    0.5020   -0.6670    0.3120 C   0  0  0  0  0  0  0  0  0  0  0  0
    1.8220   -0.8220    0.4730 N   0  0  0  0  0  0  0  0  0  0  0  0
    2.3690    0.4050    0.5010 C   0  0  0  0  0  0  0  0  0  0  0  0
    4.1010    0.8050    0.6950 S   0  0  0  0  0  0  0  0  0  0  0  0
    1.3940    1.3070    0.3580 N   0  0  0  0  0  0  0  0  0  0  0  0
    0.1970    0.6720    0.2350 C   0  0  0  0  0  0  0  0  0  0  0  0
   -1.0750    1.0840    0.0710 N   0  0  0  0  0  0  0  0  0  0  0  0
  1  2  1  0
  2  3  2  0
  2 11  1  0
  3  4  1  0
  4  5  2  0
  5  6  1  0
  5 10  1  0
  6  7  1  0
  7  8  1  0
  7  9  2  0
  9 10  1  0
 10 11  2  0
M  END
