
     RDKit          3D

 22 23  0  0  0  0  0  0  0  0999 V2000
   -2.4510    3.1210   -0.7070 O   0  0  0  0  0  0  0  0  0  0  0  0
   -2.9000    2.0920    0.1090 C   0  0  0  0  0  0  0  0  0  0  0  0
   -3.1140    0.8580   -0.7310 C   0  0  1  0  0  0  0  0  0  0  0  0
   -1.8980    0.5130   -1.3200 O   0  0  0  0  0  0  0  0  0  0  0  0
   -1.1650   -0.3260   -0.4720 C   0  0  2  0  0  0  0  0  0  0  0  0
    0.1540   -0.2520   -0.8690 O   0  0  0  0  0  0  0  0  0  0  0  0
    0.9380    0.2070    0.1870 C   0  0  2  0  0  0  0  0  0  0  0  0
    1.5390    1.5700   -0.1680 C   0  0  2  0  0  0  0  0  0  0  0  0
    0.5510    2.3520   -0.7650 O   0  0  0  0  0  0  0  0  0  0  0  0
    2.6410    1.3230   -1.0570 N   0  0  0  0  0  0  0  0  0  0  0  0
    3.7710    0.9050   -0.2330 C   0  0  0  0  0  0  0  0  0  0  0  0
    3.3480   -0.0390    0.8580 C   0  0  2  0  0  0  0  0  0  0  0  0
    4.3920   -1.0480    1.1970 C   0  0  0  0  0  0  0  0  0  0  0  0
    4.7540   -1.8580    0.1460 O   0  0  0  0  0  0  0  0  0  0  0  0
    2.0520   -0.7640    0.5220 C   0  0  1  0  0  0  0  0  0  0  0  0
    1.6850   -1.4430    1.6870 O   0  0  0  0  0  0  0  0  0  0  0  0
   -1.7410   -1.7140   -0.6340 C   0  0  1  0  0  0  0  0  0  0  0  0
   -1.3230   -2.5310    0.3990 O   0  0  0  0  0  0  0  0  0  0  0  0
   -3.2450   -1.5780   -0.6260 C   0  0  1  0  0  0  0  0  0  0  0  0
   -3.8050   -2.6720    0.0510 O   0  0  0  0  0  0  0  0  0  0  0  0
   -3.6780   -0.2820    0.0650 C   0  0  2  0  0  0  0  0  0  0  0  0
   -5.0650   -0.2170   -0.0090 O   0  0  0  0  0  0  0  0  0  0  0  0
  1  2  1  0
  3  2  1  1
  3  4  1  0
  3 21  1  0
  4  5  1  0
  5  6  1  6
  5 17  1  0
  7  6  1  6
  7  8  1  0
  7 15  1  0
  8  9  1  6
  8 10  1  0
 10 11  1  0
 11 12  1  0
 12 13  1  6
 12 15  1  0
 13 14  1  0
 15 16  1  1
 17 18  1  1
 17 19  1  0
 19 20  1  1
 19 21  1  0
 21 22  1  6
M  CHG  1  10   1
M  END
