
     RDKit          3D

 11 12  0  0  0  0  0  0  0  0999 V2000
   -1.7030   -1.8420    0.2550 N   0  0  0  0  0  0  0  0  0  0  0  0
   -0.5410   -1.0580    0.0410 C   0  0  0  0  0  0  0  0  0  0  0  0
    0.6750   -1.5630   -0.1840 N   0  0  0  0  0  0  0  0  0  0  0  0
    1.7780   -0.8210   -0.3870 C   0  0  0  0  0  0  0  0  0  0  0  0
    3.3880   -1.5530   -0.6850 S   0  0  0  0  0  0  0  0  0  0  0  0
    1.6140    0.5190   -0.3540 N   0  0  0  0  0  0  0  0  0  0  0  0
    0.4270    1.1100   -0.1340 C   0  0  0  0  0  0  0  0  0  0  0  0
    0.0180    2.4340   -0.0560 C   0  0  0  0  0  0  0  0  0  0  0  0
   -1.2930    2.4120    0.1860 N   0  0  0  0  0  0  0  0  0  0  0  0
   -1.7170    1.1610    0.2620 N   0  0  0  0  0  0  0  0  0  0  0  0
   -0.6840    0.3090    0.0700 C   0  0  0  0  0  0  0  0  0  0  0  0
  1  2  1  0
  2  3  2  0
  2 11  1  0
  3  4  1  0
  4  5  1  0
  4  6  2  0
  6  7  1  0
  7  8  1  0
  7 11  2  0
  8  9  2  0
  9 10  1  0
 10 11  1  0
M  END
