
     RDKit          3D

 11 12  0  0  0  0  0  0  0  0999 V2000
    3.5760    0.0200    0.1970 N   0  0  0  0  0  0  0  0  0  0  0  0
    2.1540   -0.0060    0.2210 C   0  0  0  0  0  0  0  0  0  0  0  0
    1.3570    0.1240    1.3220 N   0  0  0  0  0  0  0  0  0  0  0  0
    0.0630    0.0500    0.9640 C   0  0  0  0  0  0  0  0  0  0  0  0
   -1.0980    0.1170    1.6410 N   0  0  0  0  0  0  0  0  0  0  0  0
   -2.2980    0.0100    1.0260 C   0  0  0  0  0  0  0  0  0  0  0  0
   -2.3390   -0.1730   -0.3440 C   0  0  0  0  0  0  0  0  0  0  0  0
   -3.9380   -0.3130   -1.1550 S   0  0  0  0  0  0  0  0  0  0  0  0
   -1.1880   -0.2390   -1.0190 N   0  0  0  0  0  0  0  0  0  0  0  0
    0.0220   -0.1320   -0.3950 C   0  0  0  0  0  0  0  0  0  0  0  0
    1.2980   -0.1600   -0.8040 N   0  0  0  0  0  0  0  0  0  0  0  0
  1  2  1  0
  2  3  2  0
  2 11  1  0
  3  4  1  0
  4  5  2  0
  4 10  1  0
  5  6  1  0
  6  7  2  0
  7  8  1  0
  7  9  1  0
  9 10  2  0
 10 11  1  0
M  END
