
     RDKit          3D

 11 12  0  0  0  0  0  0  0  0999 V2000
    3.0020    0.0420    0.0330 N   0  0  0  0  0  0  0  0  0  0  0  0
    1.6490   -0.3690   -0.0830 C   0  0  0  0  0  0  0  0  0  0  0  0
    1.2190   -1.6140   -0.3310 N   0  0  0  0  0  0  0  0  0  0  0  0
   -0.1150   -1.6310   -0.3710 N   0  0  0  0  0  0  0  0  0  0  0  0
   -0.6120   -0.3990   -0.1510 C   0  0  0  0  0  0  0  0  0  0  0  0
   -1.8960    0.1080   -0.0900 C   0  0  0  0  0  0  0  0  0  0  0  0
   -3.3210   -0.9490   -0.3290 S   0  0  0  0  0  0  0  0  0  0  0  0
   -2.0120    1.4310    0.1580 N   0  0  0  0  0  0  0  0  0  0  0  0
   -0.9280    2.2210    0.3370 C   0  0  0  0  0  0  0  0  0  0  0  0
    0.3150    1.7000    0.2730 N   0  0  0  0  0  0  0  0  0  0  0  0
    0.5110    0.3980    0.0310 C   0  0  0  0  0  0  0  0  0  0  0  0
  1  2  1  0
  2  3  2  0
  2 11  1  0
  3  4  1  0
  4  5  1  0
  5  6  2  0
  5 11  1  0
  6  7  1  0
  6  8  1  0
  8  9  2  0
  9 10  1  0
 10 11  2  0
M  END
