
     RDKit          3D

 11 12  0  0  0  0  0  0  0  0999 V2000
   -2.4310   -0.3050    0.0610 N   0  0  0  0  0  0  0  0  0  0  0  0
   -1.0970   -0.7650    0.0720 C   0  0  0  0  0  0  0  0  0  0  0  0
   -0.6090   -2.0050    0.2320 N   0  0  0  0  0  0  0  0  0  0  0  0
    0.7110   -2.0120    0.1780 N   0  0  0  0  0  0  0  0  0  0  0  0
    1.1220   -0.7580   -0.0220 C   0  0  0  0  0  0  0  0  0  0  0  0
    2.3790   -0.1530   -0.1630 C   0  0  0  0  0  0  0  0  0  0  0  0
    2.4560    1.1750   -0.3590 N   0  0  0  0  0  0  0  0  0  0  0  0
    1.3950    1.9580   -0.4290 N   0  0  0  0  0  0  0  0  0  0  0  0
    0.1820    1.4070   -0.2980 C   0  0  0  0  0  0  0  0  0  0  0  0
   -1.3240    2.3860   -0.3770 S   0  0  0  0  0  0  0  0  0  0  0  0
    0.0080    0.0430   -0.0920 C   0  0  0  0  0  0  0  0  0  0  0  0
  1  2  1  0
  2  3  2  0
  2 11  1  0
  3  4  1  0
  4  5  1  0
  5  6  2  0
  5 11  1  0
  6  7  1  0
  7  8  2  0
  8  9  1  0
  9 10  1  0
  9 11  2  0
M  END
