
     RDKit          3D

 11 12  0  0  0  0  0  0  0  0999 V2000
    2.2710   -1.3920    0.5830 N   0  0  0  0  0  0  0  0  0  0  0  0
    1.3840   -0.4580    0.0130 C   0  0  0  0  0  0  0  0  0  0  0  0
    1.7350    0.5560   -0.8500 C   0  0  0  0  0  0  0  0  0  0  0  0
    3.3470    0.9890   -1.4880 S   0  0  0  0  0  0  0  0  0  0  0  0
    0.5910    1.1910   -1.1380 N   0  0  0  0  0  0  0  0  0  0  0  0
   -0.4270    0.6160   -0.4970 N   0  0  0  0  0  0  0  0  0  0  0  0
    0.0080   -0.4200    0.2370 C   0  0  0  0  0  0  0  0  0  0  0  0
   -0.8870   -1.2010    1.0160 N   0  0  0  0  0  0  0  0  0  0  0  0
   -2.1470   -0.9710    1.0680 C   0  0  0  0  0  0  0  0  0  0  0  0
   -2.6370    0.1180    0.3030 N   0  0  0  0  0  0  0  0  0  0  0  0
   -1.8300    0.9770   -0.5220 C   0  0  0  0  0  0  0  0  0  0  0  0
  1  2  1  0
  2  3  1  0
  2  7  2  0
  3  4  1  0
  3  5  2  0
  5  6  1  0
  6  7  1  0
  6 11  1  0
  7  8  1  0
  8  9  2  0
  9 10  1  0
 10 11  1  0
M  END
