
     RDKit          3D

 23 24  0  0  0  0  0  0  0  0999 V2000
    3.0570    3.5190   -0.5540 C   0  0  0  0  0  0  0  0  0  0  0  0
    3.7210    2.6190    0.1440 C   0  0  0  0  0  0  0  0  0  0  0  0
    3.1160    1.8420    1.2940 C   0  0  0  0  0  0  0  0  0  0  0  0
    3.2270    0.4060    1.0090 C   0  0  0  0  0  0  0  0  0  0  0  0
    2.1810   -0.4360    1.1070 C   0  0  0  0  0  0  0  0  0  0  0  0
    2.5520   -1.8510    0.7620 C   0  0  0  0  0  0  0  0  0  0  0  0
    1.8880   -2.4550   -0.4020 C   0  0  0  0  0  0  0  0  0  0  0  0
    2.4940   -3.8760   -0.5430 C   0  0  0  0  0  0  0  0  0  0  0  0
    3.8680   -3.7830   -0.7390 O   0  0  0  0  0  0  0  0  0  0  0  0
    0.8850    0.0200    1.5700 C   0  0  0  0  0  0  0  0  0  0  0  0
   -0.3400   -0.1500    0.7550 C   0  0  1  0  0  0  0  0  0  0  0  0
   -1.4850    0.4430    1.4630 C   0  0  0  0  0  0  0  0  0  0  0  0
   -2.8420    0.5150    0.9980 C   0  0  1  0  0  0  0  0  0  0  0  0
   -3.6520    1.1890    2.1670 C   0  0  0  0  0  0  0  0  0  0  0  0
   -3.2340    1.3070   -0.1890 C   0  0  0  0  0  0  0  0  0  0  0  0
   -4.3330    0.5250   -0.8740 C   0  0  0  0  0  0  0  0  0  0  0  0
   -4.7150   -0.4550    0.2370 C   0  0  0  0  0  0  0  0  0  0  0  0
   -3.4800   -0.6990    0.8180 O   0  0  0  0  0  0  0  0  0  0  0  0
   -0.2200   -0.0060   -0.6950 C   0  0  0  0  0  0  0  0  0  0  0  0
    0.6570    0.6480   -1.4350 C   0  0  0  0  0  0  0  0  0  0  0  0
    0.3470    0.4750   -2.8510 C   0  0  0  0  0  0  0  0  0  0  0  0
   -0.8270   -0.4020   -2.8600 C   0  0  0  0  0  0  0  0  0  0  0  0
   -1.1650   -0.6820   -1.6310 C   0  0  0  0  0  0  0  0  0  0  0  0
  1  2  2  0
  2  3  1  0
  3  4  1  0
  4  5  2  3
  5  6  1  0
  5 10  1  0
  6  7  1  0
  7  8  1  0
  8  9  1  0
 11 10  1  1
 11 12  1  0
 11 19  1  0
 12 13  1  0
 13 14  1  1
 13 15  1  0
 13 18  1  0
 15 16  1  0
 16 17  1  0
 17 18  1  0
 19 20  2  0
 19 23  1  0
 20 21  1  0
 21 22  1  0
 22 23  2  0
M  END
