
     RDKit          3D

 23 24  0  0  0  0  0  0  0  0999 V2000
   -4.4330   -1.1450   -0.8260 C   0  0  0  0  0  0  0  0  0  0  0  0
   -3.1440   -0.2960   -1.0310 C   0  0  0  0  0  0  0  0  0  0  0  0
   -2.0290   -1.1630   -0.6940 C   0  0  1  0  0  0  0  0  0  0  0  0
   -0.6140   -0.8800   -0.7760 C   0  0  0  0  0  0  0  0  0  0  0  0
    0.1940    0.1170   -0.1570 C   0  0  2  0  0  0  0  0  0  0  0  0
    0.1430    1.5700   -0.3590 C   0  0  0  0  0  0  0  0  0  0  0  0
   -1.0930    2.2900   -0.0750 C   0  0  0  0  0  0  0  0  0  0  0  0
   -0.8720    3.8270   -0.2040 C   0  0  1  0  0  0  0  0  0  0  0  0
   -2.2000    4.4680    0.1070 C   0  0  0  0  0  0  0  0  0  0  0  0
    0.1450    4.2630    0.8200 C   0  0  0  0  0  0  0  0  0  0  0  0
    1.6850   -0.2370   -0.4140 C   0  0  1  0  0  0  0  0  0  0  0  0
    2.4310    0.7950    0.1880 O   0  0  0  0  0  0  0  0  0  0  0  0
    2.1450   -1.4990    0.1770 C   0  0  0  0  0  0  0  0  0  0  0  0
    3.6270   -1.6640   -0.1600 C   0  0  1  0  0  0  0  0  0  0  0  0
    3.9060   -1.7140   -1.6350 C   0  0  0  0  0  0  0  0  0  0  0  0
    5.4430   -1.5720   -1.5980 C   0  0  0  0  0  0  0  0  0  0  0  0
    5.5740   -0.6160   -0.4320 C   0  0  0  0  0  0  0  0  0  0  0  0
    4.3780   -0.5940    0.2510 O   0  0  0  0  0  0  0  0  0  0  0  0
   -2.3600   -1.7730    0.6840 C   0  0  0  0  0  0  0  0  0  0  0  0
   -3.1710   -1.2680    1.5810 C   0  0  0  0  0  0  0  0  0  0  0  0
   -3.2100   -2.1690    2.7670 C   0  0  0  0  0  0  0  0  0  0  0  0
   -2.2960   -3.2630    2.4060 C   0  0  0  0  0  0  0  0  0  0  0  0
   -1.8050   -3.0160    1.1790 C   0  0  0  0  0  0  0  0  0  0  0  0
  1  2  1  0
  3  2  1  1
  3  4  1  0
  3 19  1  0
  5  4  1  6
  5  6  1  0
  5 11  1  0
  6  7  1  0
  7  8  1  0
  8  9  1  1
  8 10  1  0
 11 12  1  1
 11 13  1  0
 14 13  1  6
 14 15  1  0
 14 18  1  0
 15 16  1  0
 16 17  1  0
 17 18  1  0
 19 20  2  0
 19 23  1  0
 20 21  1  0
 21 22  1  0
 22 23  2  0
M  END
