
     RDKit          3D

 23 24  0  0  0  0  0  0  0  0999 V2000
    4.6950    2.0860    0.6620 C   0  0  0  0  0  0  0  0  0  0  0  0
    4.6370    1.7590   -0.7800 C   0  0  0  0  0  0  0  0  0  0  0  0
    3.4380    1.0760   -1.3160 C   0  0  0  0  0  0  0  0  0  0  0  0
    3.0370   -0.2720   -0.9930 C   0  0  0  0  0  0  0  0  0  0  0  0
    2.7230   -0.8160    0.3180 C   0  0  1  0  0  0  0  0  0  0  0  0
    3.9160   -0.7670    1.2430 C   0  0  0  0  0  0  0  0  0  0  0  0
    1.5940   -0.1760    1.0750 C   0  0  2  0  0  0  0  0  0  0  0  0
    1.3250   -1.2890    2.1020 C   0  0  0  0  0  0  0  0  0  0  0  0
    1.1340   -2.4150    1.1480 C   0  0  1  0  0  0  0  0  0  0  0  0
   -0.1900   -2.3340    0.4080 C   0  0  0  0  0  0  0  0  0  0  0  0
   -0.5150   -1.0000   -0.1030 C   0  0  1  0  0  0  0  0  0  0  0  0
   -2.0320   -0.6030    0.0770 C   0  0  1  0  0  0  0  0  0  0  0  0
   -2.6620   -1.6590   -0.6480 O   0  0  0  0  0  0  0  0  0  0  0  0
   -2.4370   -0.6760    1.4590 C   0  0  0  0  0  0  0  0  0  0  0  0
   -3.8630   -0.3600    1.7410 C   0  0  0  0  0  0  0  0  0  0  0  0
   -4.8200   -1.2730    0.9810 C   0  0  0  0  0  0  0  0  0  0  0  0
   -2.1450    0.6070   -0.7460 C   0  0  0  0  0  0  0  0  0  0  0  0
   -3.3850    1.3630   -0.9190 C   0  0  0  0  0  0  0  0  0  0  0  0
   -3.1150    2.5350   -1.9330 C   0  0  0  0  0  0  0  0  0  0  0  0
   -4.3880    3.2990   -2.1020 C   0  0  0  0  0  0  0  0  0  0  0  0
    0.3540    0.1210    0.3620 C   0  0  0  0  0  0  0  0  0  0  0  0
    2.3140   -2.2830    0.2350 C   0  0  1  0  0  0  0  0  0  0  0  0
    2.1620   -2.7530   -1.0320 O   0  0  0  0  0  0  0  0  0  0  0  0
  1  2  1  0
  2  3  1  0
  3  4  1  0
  4  5  1  0
  5  6  1  1
  5  7  1  0
  5 22  1  0
  7  8  1  0
  7 21  1  6
  8  9  1  0
  9 10  1  6
  9 22  1  0
 11 10  1  1
 11 12  1  0
 11 21  1  0
 12 13  1  6
 12 14  1  0
 12 17  1  0
 14 15  1  0
 15 16  1  0
 17 18  1  0
 18 19  1  0
 19 20  1  0
 22 23  1  6
M  END
