
     RDKit          3D

 23 25  0  0  0  0  0  0  0  0999 V2000
   -4.4530    2.5210    0.7200 C   0  0  0  0  0  0  0  0  0  0  0  0
   -3.1400    1.7310    0.8090 C   0  0  0  0  0  0  0  0  0  0  0  0
   -3.4350    0.3410    0.2950 C   0  0  0  0  0  0  0  0  0  0  0  0
   -2.1760   -0.4960    0.3480 C   0  0  1  0  0  0  0  0  0  0  0  0
   -1.6510   -0.6110    1.7620 C   0  0  0  0  0  0  0  0  0  0  0  0
   -2.6770   -1.2530    2.6550 C   0  0  0  0  0  0  0  0  0  0  0  0
   -2.2710   -1.8060   -0.3620 C   0  0  1  0  0  0  0  0  0  0  0  0
   -3.5580   -2.1520   -1.0150 C   0  0  0  0  0  0  0  0  0  0  0  0
   -3.8170   -1.4550   -2.2870 C   0  0  0  0  0  0  0  0  0  0  0  0
   -2.8040   -1.1510   -3.0620 C   0  0  0  0  0  0  0  0  0  0  0  0
   -1.4080   -1.4840   -2.7060 C   0  0  0  0  0  0  0  0  0  0  0  0
   -1.1440   -1.4660   -1.2370 C   0  0  1  0  0  0  0  0  0  0  0  0
   -1.1120   -0.0750   -0.6430 C   0  0  2  0  0  0  0  0  0  0  0  0
    0.0780    0.2300    0.0250 O   0  0  0  0  0  0  0  0  0  0  0  0
    0.5870    1.4600   -0.3060 C   0  0  0  0  0  0  0  0  0  0  0  0
    1.8730    1.6400    0.4990 C   0  0  0  0  0  0  0  0  0  0  0  0
    2.7910    0.6350    0.1830 O   0  0  0  0  0  0  0  0  0  0  0  0
    3.9540    0.7820    0.9000 C   0  0  1  0  0  0  0  0  0  0  0  0
    4.2620   -0.4550    1.7220 C   0  0  0  0  0  0  0  0  0  0  0  0
    5.0040   -1.3280    0.7540 C   0  0  0  0  0  0  0  0  0  0  0  0
    5.8860   -0.3550   -0.0290 C   0  0  0  0  0  0  0  0  0  0  0  0
    5.1260    0.9370   -0.0150 C   0  0  1  0  0  0  0  0  0  0  0  0
    4.6390    1.2750   -1.4270 C   0  0  0  0  0  0  0  0  0  0  0  0
  1  2  1  0
  2  3  1  0
  4  3  1  1
  4  5  1  0
  4  7  1  0
  4 13  1  0
  5  6  1  0
  7  8  1  6
  7 12  1  0
  8  9  1  0
  9 10  2  0
 10 11  1  0
 12 11  1  6
 12 13  1  0
 13 14  1  1
 14 15  1  0
 15 16  1  0
 16 17  1  0
 18 17  1  6
 18 19  1  0
 18 22  1  0
 19 20  1  0
 20 21  1  0
 21 22  1  0
 22 23  1  6
M  END
