
     RDKit          3D

 23 24  0  0  0  0  0  0  0  0999 V2000
    4.8860   -3.6600    0.9530 C   0  0  0  0  0  0  0  0  0  0  0  0
    5.0220   -2.1720    0.9120 C   0  0  0  0  0  0  0  0  0  0  0  0
    4.4580   -1.3890    1.8020 C   0  0  0  0  0  0  0  0  0  0  0  0
    4.5080    0.0720    1.8830 C   0  0  1  0  0  0  0  0  0  0  0  0
    5.3240    0.7710    0.8530 C   0  0  0  0  0  0  0  0  0  0  0  0
    4.3570    1.4010   -0.0970 C   0  0  0  0  0  0  0  0  0  0  0  0
    2.9960    0.9010    0.2960 C   0  0  2  0  0  0  0  0  0  0  0  0
    2.7210   -0.2650   -0.4000 O   0  0  0  0  0  0  0  0  0  0  0  0
    1.9860    1.9300   -0.0800 C   0  0  0  0  0  0  0  0  0  0  0  0
    0.5620    1.4920    0.2900 C   0  0  0  0  0  0  0  0  0  0  0  0
   -0.3400    2.6220   -0.1470 C   0  0  0  0  0  0  0  0  0  0  0  0
   -1.6700    2.4280    0.0970 O   0  0  0  0  0  0  0  0  0  0  0  0
   -2.2140    1.3040   -0.5430 C   0  0  2  0  0  0  0  0  0  0  0  0
   -3.2500    1.6870   -1.5290 C   0  0  0  0  0  0  0  0  0  0  0  0
   -4.4120    2.4750   -1.0650 C   0  0  0  0  0  0  0  0  0  0  0  0
   -5.3010    1.9040   -0.0250 C   0  0  0  0  0  0  0  0  0  0  0  0
   -2.6550    0.3190    0.4630 C   0  0  0  0  0  0  0  0  0  0  0  0
   -3.1890   -0.9190   -0.1620 C   0  0  2  0  0  0  0  0  0  0  0  0
   -3.6440   -1.9410    0.8710 C   0  0  0  0  0  0  0  0  0  0  0  0
   -3.8160   -3.1760    0.0110 C   0  0  0  0  0  0  0  0  0  0  0  0
   -2.8250   -3.0200   -1.1340 C   0  0  0  0  0  0  0  0  0  0  0  0
   -2.0730   -1.7360   -0.8360 C   0  0  0  0  0  0  0  0  0  0  0  0
    3.1090    0.6760    1.7860 C   0  0  0  0  0  0  0  0  0  0  0  0
  1  2  1  0
  2  3  2  3
  4  3  1  6
  4  5  1  0
  4 23  1  0
  5  6  1  0
  6  7  1  0
  7  8  1  6
  7  9  1  0
  7 23  1  0
  9 10  1  0
 10 11  1  0
 11 12  1  0
 12 13  1  0
 13 14  1  1
 13 17  1  0
 14 15  1  0
 15 16  1  0
 18 17  1  1
 18 19  1  0
 18 22  1  0
 19 20  1  0
 20 21  1  0
 21 22  1  0
M  END
