
     RDKit          3D

 25 27  0  0  0  0  0  0  0  0999 V2000
   -2.7660   -2.3210   -0.2570 C   0  0  0  0  0  0  0  0  0  0  0  0
   -2.5490   -0.8190   -0.1800 C   0  0  1  0  0  0  0  0  0  0  0  0
   -3.8690   -0.0740   -0.0370 C   0  0  0  0  0  0  0  0  0  0  0  0
   -4.7470   -0.6650    0.8380 C   0  0  0  0  0  0  0  0  0  0  0  0
   -5.8760    0.1040    1.2050 C   0  0  0  0  0  0  0  0  0  0  0  0
   -6.0970    1.3690    0.7200 C   0  0  0  0  0  0  0  0  0  0  0  0
   -5.1500    1.9280   -0.1430 C   0  0  0  0  0  0  0  0  0  0  0  0
   -4.0120    1.1660   -0.5020 C   0  0  0  0  0  0  0  0  0  0  0  0
   -1.8320   -0.3880    1.1280 C   0  0  0  0  0  0  0  0  0  0  0  0
   -0.9120    0.6680    0.5570 C   0  0  0  0  0  0  0  0  0  0  0  0
   -0.5300    1.7480    1.0030 O   0  0  0  0  0  0  0  0  0  0  0  0
   -0.4780    0.0580   -0.6670 N   0  0  0  0  0  0  0  0  0  0  0  0
    0.7380    0.0670   -1.3310 C   0  0  0  0  0  0  0  0  0  0  0  0
    1.9270    0.0830   -0.2460 C   0  0  0  0  0  0  0  0  0  0  0  0
    3.0140   -0.7630   -0.5450 O   0  0  0  0  0  0  0  0  0  0  0  0
    4.2180   -0.3370   -0.1600 C   0  0  0  0  0  0  0  0  0  0  0  0
    4.3130    0.9240    0.4980 C   0  0  0  0  0  0  0  0  0  0  0  0
    5.5250    1.6540    0.8920 C   0  0  0  0  0  0  0  0  0  0  0  0
    6.6670    0.8420    0.4670 C   0  0  0  0  0  0  0  0  0  0  0  0
    7.8800    1.4340    0.3770 F   0  0  0  0  0  0  0  0  0  0  0  0
    6.5330   -0.4510   -0.1290 C   0  0  0  0  0  0  0  0  0  0  0  0
    7.7540   -1.0120    0.0140 C   0  0  0  0  0  0  0  0  0  0  0  0
    9.0980   -1.6400    0.1980 N   0  0  0  0  0  0  0  0  0  0  0  0
    5.3580   -0.9480   -0.3940 C   0  0  0  0  0  0  0  0  0  0  0  0
   -1.6340   -0.4210   -1.2860 C   0  0  0  0  0  0  0  0  0  0  0  0
  2  1  1  1
  2  3  1  0
  2  9  1  0
  2 25  1  0
  3  4  2  0
  3  8  1  0
  4  5  1  0
  5  6  2  0
  6  7  1  0
  7  8  2  0
  9 10  1  0
 10 11  2  0
 10 12  1  0
 12 13  1  0
 12 25  1  0
 13 14  1  0
 14 15  1  0
 15 16  1  0
 16 17  2  0
 16 24  1  0
 17 18  1  0
 18 19  2  0
 19 20  1  0
 19 21  1  0
 21 22  1  0
 21 24  2  0
 22 23  3  0
M  END
