
     RDKit          3D

  8  7  0  0  0  0  0  0  0  0999 V2000
    1.2650   -1.6990    0.3160 C   0  0  0  0  0  0  0  0  0  0  0  0
    0.5280   -0.6200    0.3220 C   0  0  0  0  0  0  0  0  0  0  0  0
    1.1130    0.6050    0.7070 N   0  0  0  0  0  0  0  0  0  0  0  0
    2.3780    1.0680    0.2010 C   0  0  0  0  0  0  0  0  0  0  0  0
   -0.8700   -0.6790   -0.0620 C   0  0  0  0  0  0  0  0  0  0  0  0
   -1.4140   -1.7590   -0.4090 O   0  0  0  0  0  0  0  0  0  0  0  0
   -1.6610    0.4580   -0.0600 O   0  0  0  0  0  0  0  0  0  0  0  0
   -3.0060    0.5000   -0.4110 C   0  0  0  0  0  0  0  0  0  0  0  0
  1  2  2  0
  2  3  1  0
  2  5  1  0
  3  4  1  0
  5  6  2  0
  5  7  1  0
  7  8  1  0
M  END
