
     RDKit          3D

  8  8  0  0  0  0  0  0  0  0999 V2000
    1.9040   -0.4040    0.6250 C   0  0  0  0  0  0  0  0  0  0  0  0
    0.7770   -0.3110   -0.4070 C   0  0  1  0  0  0  0  0  0  0  0  0
    0.0440   -1.6200   -0.5470 C   0  0  0  0  0  0  0  0  0  0  0  0
   -1.3050   -1.3300   -0.7650 O   0  0  0  0  0  0  0  0  0  0  0  0
   -1.8100   -0.7780    0.4200 C   0  0  0  0  0  0  0  0  0  0  0  0
   -1.1920    0.5780    0.6690 C   0  0  0  0  0  0  0  0  0  0  0  0
   -0.0200    0.7920   -0.0700 N   0  0  0  0  0  0  0  0  0  0  0  0
    0.1260    1.9810   -0.7900 C   0  0  0  0  0  0  0  0  0  0  0  0
  2  1  1  1
  2  3  1  0
  2  7  1  0
  3  4  1  0
  4  5  1  0
  5  6  1  0
  6  7  1  0
  7  8  1  0
M  END
