
     RDKit          3D

  9  9  0  0  0  0  0  0  0  0999 V2000
    3.4930   -0.4590    0.3590 C   0  0  0  0  0  0  0  0  0  0  0  0
    2.1970   -0.1760    0.8540 O   0  0  0  0  0  0  0  0  0  0  0  0
    1.1820    0.2580    0.0210 C   0  0  0  0  0  0  0  0  0  0  0  0
    1.4340    0.3970   -1.1990 O   0  0  0  0  0  0  0  0  0  0  0  0
   -0.1810    0.5640    0.4990 C   0  0  2  0  0  0  0  0  0  0  0  0
   -0.8090   -0.6970    1.0330 C   0  0  0  0  0  0  0  0  0  0  0  0
   -2.2090   -0.6790    0.4820 C   0  0  0  0  0  0  0  0  0  0  0  0
   -2.3660    0.7290   -0.0500 C   0  0  0  0  0  0  0  0  0  0  0  0
   -1.0320    0.9910   -0.5670 N   0  0  0  0  0  0  0  0  0  0  0  0
  1  2  1  0
  2  3  1  0
  3  4  2  0
  5  3  1  6
  5  6  1  0
  5  9  1  0
  6  7  1  0
  7  8  1  0
  8  9  1  0
M  END
