
     RDKit          3D

  9  9  0  0  0  0  0  0  0  0999 V2000
    3.2050    0.3160   -0.0670 C   0  0  0  0  0  0  0  0  0  0  0  0
    1.8290    0.4420    0.2610 O   0  0  0  0  0  0  0  0  0  0  0  0
    0.8290   -0.2500   -0.4040 C   0  0  0  0  0  0  0  0  0  0  0  0
    1.2170   -1.0070   -1.3290 O   0  0  0  0  0  0  0  0  0  0  0  0
   -0.5840   -0.1220   -0.0680 C   0  0  0  0  0  0  0  0  0  0  0  0
   -1.5940   -0.7980   -0.7140 C   0  0  0  0  0  0  0  0  0  0  0  0
   -2.8220   -0.4470   -0.1460 C   0  0  0  0  0  0  0  0  0  0  0  0
   -2.5020    0.4570    0.8540 C   0  0  0  0  0  0  0  0  0  0  0  0
   -1.1590    0.6230    0.8670 N   0  0  0  0  0  0  0  0  0  0  0  0
  1  2  1  0
  2  3  1  0
  3  4  2  0
  3  5  1  0
  5  6  2  0
  5  9  1  0
  6  7  1  0
  7  8  2  0
  8  9  1  0
M  END
