
     RDKit          3D

  9  9  0  0  0  0  0  0  0  0999 V2000
    1.9860    2.3190    1.0580 O   0  0  0  0  0  0  0  0  0  0  0  0
    1.2030    1.5190    0.4840 C   0  0  0  0  0  0  0  0  0  0  0  0
    1.7990    0.3220   -0.0050 N   0  0  0  0  0  0  0  0  0  0  0  0
    1.3320   -0.9720   -0.5040 C   0  0  0  0  0  0  0  0  0  0  0  0
    0.2570   -1.4980    0.3850 C   0  0  0  0  0  0  0  0  0  0  0  0
   -1.1060   -0.9870    0.1080 C   0  0  0  0  0  0  0  0  0  0  0  0
   -1.1890    0.2530   -0.6940 C   0  0  0  0  0  0  0  0  0  0  0  0
   -1.3920    1.5080    0.1590 C   0  0  0  0  0  0  0  0  0  0  0  0
   -0.1010    2.0040    0.4600 O   0  0  0  0  0  0  0  0  0  0  0  0
  1  2  2  0
  2  3  1  0
  2  9  1  0
  3  4  1  0
  4  5  1  0
  5  6  1  0
  6  7  1  0
  7  8  1  0
  8  9  1  0
M  END
