
     RDKit          3D

  9  8  0  0  0  0  0  0  0  0999 V2000
   -2.4870    1.4390   -0.2250 C   0  0  0  0  0  0  0  0  0  0  0  0
   -1.8560    0.2730   -0.3220 C   0  0  0  0  0  0  0  0  0  0  0  0
   -2.6060   -0.9850   -0.1970 C   0  0  0  0  0  0  0  0  0  0  0  0
   -0.4690    0.2010   -0.4000 N   0  0  0  0  0  0  0  0  0  0  0  0
    0.2490   -1.0180    0.0950 C   0  0  0  0  0  0  0  0  0  0  0  0
    1.7040   -0.7240    0.0650 C   0  0  0  0  0  0  0  0  0  0  0  0
    2.6040   -1.3910   -0.4450 O   0  0  0  0  0  0  0  0  0  0  0  0
    2.0780    0.4990    0.6530 O   0  0  0  0  0  0  0  0  0  0  0  0
    3.4500    0.8130    0.5020 C   0  0  0  0  0  0  0  0  0  0  0  0
  1  2  2  0
  2  3  1  0
  2  4  1  0
  4  5  1  0
  5  6  1  0
  6  7  2  0
  6  8  1  0
  8  9  1  0
M  END
