
     RDKit          3D

 16 15  0  0  0  0  0  0  0  0999 V2000
   -5.1410   -1.8110   -0.2260 C   0  0  0  0  0  0  0  0  0  0  0  0
   -4.0780   -0.8830   -0.6290 C   0  0  0  0  0  0  0  0  0  0  0  0
   -4.0330    0.3530   -0.1880 C   0  0  0  0  0  0  0  0  0  0  0  0
   -5.0500    0.8940    0.7450 C   0  0  0  0  0  0  0  0  0  0  0  0
   -4.3930    1.2980    1.9230 O   0  0  0  0  0  0  0  0  0  0  0  0
   -2.9290    1.2720   -0.6050 C   0  0  0  0  0  0  0  0  0  0  0  0
   -1.7840    0.3330   -1.6290 S   0  0  0  0  0  0  0  0  0  0  0  0
   -0.8160   -0.8220   -0.6350 C   0  0  0  0  0  0  0  0  0  0  0  0
    0.2100   -0.0720    0.1800 C   0  0  0  0  0  0  0  0  0  0  0  0
   -0.0800    0.6300    1.1680 O   0  0  0  0  0  0  0  0  0  0  0  0
    1.5180   -0.1890   -0.2140 O   0  0  0  0  0  0  0  0  0  0  0  0
    2.6080    0.4420    0.4160 C   0  0  0  0  0  0  0  0  0  0  0  0
    3.8360   -0.0450   -0.3720 C   0  0  0  0  0  0  0  0  0  0  0  0
    5.1250    0.5120    0.1270 C   0  0  0  0  0  0  0  0  0  0  0  0
    6.2160   -0.0980   -0.7590 C   0  0  0  0  0  0  0  0  0  0  0  0
    7.4570    0.3630   -0.3770 O   0  0  0  0  0  0  0  0  0  0  0  0
  1  2  1  0
  2  3  2  3
  3  4  1  0
  3  6  1  0
  4  5  1  0
  6  7  1  0
  7  8  1  0
  8  9  1  0
  9 10  2  0
  9 11  1  0
 11 12  1  0
 12 13  1  0
 13 14  1  0
 14 15  1  0
 15 16  1  0
M  END
