
     RDKit          3D

 24 25  0  0  0  0  0  0  0  0999 V2000
    0.4340   -0.2000   -2.5910 C   0  0  0  0  0  0  0  0  0  0  0  0
   -0.3980    0.4270   -1.4870 C   0  0  0  0  0  0  0  0  0  0  0  0
   -0.8060   -0.5430   -0.4460 C   0  0  0  0  0  0  0  0  0  0  0  0
   -2.0440   -0.9210   -0.0750 C   0  0  0  0  0  0  0  0  0  0  0  0
   -3.2590   -0.3810   -0.6990 C   0  0  2  0  0  0  0  0  0  0  0  0
   -4.0270    0.3440    0.2380 O   0  0  0  0  0  0  0  0  0  0  0  0
   -4.1910   -1.4280   -1.2620 C   0  0  2  0  0  0  0  0  0  0  0  0
   -5.3530   -0.6260   -1.8760 C   0  0  0  0  0  0  0  0  0  0  0  0
   -6.4930   -1.5810   -1.6590 C   0  0  0  0  0  0  0  0  0  0  0  0
   -6.2560   -2.2690   -0.5070 O   0  0  0  0  0  0  0  0  0  0  0  0
   -4.9000   -2.2420   -0.2200 C   0  0  0  0  0  0  0  0  0  0  0  0
   -1.9730   -1.8670    0.9640 N   0  0  0  0  0  0  0  0  0  0  0  0
   -0.6420   -2.4550    0.8920 C   0  0  0  0  0  0  0  0  0  0  0  0
    0.1270   -1.2660    0.3910 C   0  0  0  0  0  0  0  0  0  0  0  0
    1.3440   -1.0420    0.7140 N   0  0  0  0  0  0  0  0  0  0  0  0
    2.1620   -0.0110    0.3540 N   0  0  0  0  0  0  0  0  0  0  0  0
    2.5450    0.9470    1.3980 C   0  0  2  0  0  0  0  0  0  0  0  0
    1.1710    1.7810    2.1070 Cl  0  0  0  0  0  0  0  0  0  0  0  0
    3.5150    1.7700    0.8830 O   0  0  0  0  0  0  0  0  0  0  0  0
    4.7620    1.6210    1.4410 C   0  0  1  0  0  0  0  0  0  0  0  0
    5.6260    1.2110    0.4070 O   0  0  0  0  0  0  0  0  0  0  0  0
    5.3420    2.8930    2.0150 C   0  0  0  0  0  0  0  0  0  0  0  0
    6.7160    2.5100    2.5780 C   0  0  0  0  0  0  0  0  0  0  0  0
    7.3450    3.6120    3.1360 O   0  0  0  0  0  0  0  0  0  0  0  0
  1  2  1  0
  2  3  1  0
  3  4  2  0
  3 14  1  0
  4  5  1  0
  4 12  1  0
  5  6  1  1
  5  7  1  0
  7  8  1  1
  7 11  1  0
  8  9  1  0
  9 10  1  0
 10 11  1  0
 12 13  1  0
 13 14  1  0
 14 15  2  3
 15 16  1  0
 16 17  1  0
 17 18  1  6
 17 19  1  0
 19 20  1  0
 20 21  1  6
 20 22  1  0
 22 23  1  0
 23 24  1  0
M  CHG  1  12   1
M  END
