
     RDKit          3D

 16 15  0  0  0  0  0  0  0  0999 V2000
    6.6080   -0.1530    0.0990 C   0  0  0  0  0  0  0  0  0  0  0  0
    5.8340    0.8170    0.6900 O   0  0  0  0  0  0  0  0  0  0  0  0
    4.5120    0.7260    0.3550 C   0  0  0  0  0  0  0  0  0  0  0  0
    3.9050   -0.5760    0.7770 C   0  0  0  0  0  0  0  0  0  0  0  0
    2.5680   -0.6780    0.4600 O   0  0  0  0  0  0  0  0  0  0  0  0
    2.2980   -0.5880   -0.8810 C   0  0  0  0  0  0  0  0  0  0  0  0
    0.7730   -0.7590   -1.0510 C   0  0  0  0  0  0  0  0  0  0  0  0
    0.0550    0.3360   -0.2860 C   0  0  2  0  0  0  0  0  0  0  0  0
    0.3400    0.3040    1.0520 O   0  0  0  0  0  0  0  0  0  0  0  0
   -1.4440    0.2540   -0.5750 C   0  0  2  0  0  0  0  0  0  0  0  0
   -2.0000    1.3820    0.0700 O   0  0  0  0  0  0  0  0  0  0  0  0
   -2.0560   -0.9710   -0.0070 C   0  0  0  0  0  0  0  0  0  0  0  0
   -3.7850   -1.1060   -0.3710 S   0  0  0  0  0  0  0  0  0  0  0  0
   -4.9000    0.0630    0.3380 C   0  0  1  0  0  0  0  0  0  0  0  0
   -4.8570    1.4500   -0.2140 C   0  0  0  0  0  0  0  0  0  0  0  0
   -6.3460   -0.4510    0.3090 C   0  0  0  0  0  0  0  0  0  0  0  0
  1  2  1  0
  2  3  1  0
  3  4  1  0
  4  5  1  0
  5  6  1  0
  6  7  1  0
  7  8  1  0
  8  9  1  1
  8 10  1  0
 10 11  1  1
 10 12  1  0
 12 13  1  0
 13 14  1  0
 14 15  1  6
 14 16  1  0
M  END
