
     RDKit          3D

 16 15  0  0  0  0  0  0  0  0999 V2000
   -3.4320    3.4810   -0.3610 C   0  0  0  0  0  0  0  0  0  0  0  0
   -2.7210    2.2880   -0.9720 C   0  0  0  0  0  0  0  0  0  0  0  0
   -2.4530    1.2220    0.0610 C   0  0  0  0  0  0  0  0  0  0  0  0
   -1.7270    0.0100   -0.5960 C   0  0  1  0  0  0  0  0  0  0  0  0
   -2.6410   -0.4200   -1.5820 O   0  0  0  0  0  0  0  0  0  0  0  0
   -0.4720    0.4590   -1.2390 C   0  0  0  0  0  0  0  0  0  0  0  0
    0.6940    1.2600   -0.1660 S   0  0  0  0  0  0  0  0  0  0  0  0
    1.5410    0.2640    1.0150 C   0  0  0  0  0  0  0  0  0  0  0  0
    2.6140   -0.6380    0.5300 C   0  0  1  0  0  0  0  0  0  0  0  0
    3.1630   -1.3830    1.7580 C   0  0  0  0  0  0  0  0  0  0  0  0
    2.2660   -1.5780   -0.4000 O   0  0  0  0  0  0  0  0  0  0  0  0
    3.8130    0.1190   -0.0220 C   0  0  0  0  0  0  0  0  0  0  0  0
    3.4810    0.7330   -1.2270 O   0  0  0  0  0  0  0  0  0  0  0  0
   -1.5480   -0.8910    0.3890 O   0  0  0  0  0  0  0  0  0  0  0  0
   -1.0980   -2.1370   -0.0230 C   0  0  0  0  0  0  0  0  0  0  0  0
   -0.9010   -2.9850    1.2110 C   0  0  0  0  0  0  0  0  0  0  0  0
  1  2  1  0
  2  3  1  0
  3  4  1  0
  4  5  1  6
  4  6  1  0
  4 14  1  0
  6  7  1  0
  7  8  1  0
  8  9  1  0
  9 10  1  1
  9 11  1  0
  9 12  1  0
 12 13  1  0
 14 15  1  0
 15 16  1  0
M  END
