
     RDKit          3D

 25 27  0  0  0  0  0  0  0  0999 V2000
   -1.0960   -0.0850   -2.1760 C   0  0  0  0  0  0  0  0  0  0  0  0
   -1.5560    0.5270   -0.8210 C   0  0  2  0  0  0  0  0  0  0  0  0
   -2.9150   -0.0290   -0.5870 C   0  0  0  0  0  0  0  0  0  0  0  0
   -4.0920    0.6250   -0.8970 C   0  0  0  0  0  0  0  0  0  0  0  0
   -5.2990    0.0220   -0.6170 C   0  0  0  0  0  0  0  0  0  0  0  0
   -5.3690   -1.2280   -0.0330 C   0  0  0  0  0  0  0  0  0  0  0  0
   -4.1940   -1.9220    0.2920 C   0  0  0  0  0  0  0  0  0  0  0  0
   -3.0070   -1.2670   -0.0090 C   0  0  0  0  0  0  0  0  0  0  0  0
   -1.4780    1.9860   -0.9740 C   0  0  0  0  0  0  0  0  0  0  0  0
   -0.7380    2.4630    0.1850 C   0  0  0  0  0  0  0  0  0  0  0  0
   -0.6200    3.7180    0.5090 O   0  0  0  0  0  0  0  0  0  0  0  0
   -0.1880    1.4020    0.8860 N   0  0  0  0  0  0  0  0  0  0  0  0
    0.5470    1.3260    2.1260 C   0  0  0  0  0  0  0  0  0  0  0  0
    1.9940    1.6460    2.0790 C   0  0  0  0  0  0  0  0  0  0  0  0
    2.8230    1.0720    1.2540 O   0  0  0  0  0  0  0  0  0  0  0  0
    3.3450   -0.0470    0.7370 C   0  0  0  0  0  0  0  0  0  0  0  0
    3.0100   -1.3410    1.1010 C   0  0  0  0  0  0  0  0  0  0  0  0
    3.5670   -2.4650    0.5380 C   0  0  0  0  0  0  0  0  0  0  0  0
    4.5270   -2.3010   -0.4640 C   0  0  0  0  0  0  0  0  0  0  0  0
    5.0770   -3.3960   -1.0110 F   0  0  0  0  0  0  0  0  0  0  0  0
    4.8590   -1.0210   -0.8190 C   0  0  0  0  0  0  0  0  0  0  0  0
    5.8770   -0.8640   -1.8860 C   0  0  0  0  0  0  0  0  0  0  0  0
    6.6620   -0.7600   -2.6940 N   0  0  0  0  0  0  0  0  0  0  0  0
    4.3140    0.0940   -0.2680 C   0  0  0  0  0  0  0  0  0  0  0  0
   -0.5730    0.1340    0.2310 C   0  0  0  0  0  0  0  0  0  0  0  0
  2  1  1  6
  2  3  1  0
  2  9  1  0
  2 25  1  0
  3  4  2  0
  3  8  1  0
  4  5  1  0
  5  6  2  0
  6  7  1  0
  7  8  2  0
  9 10  1  0
 10 11  2  0
 10 12  1  0
 12 13  1  0
 12 25  1  0
 13 14  1  0
 14 15  1  0
 15 16  1  0
 16 17  2  0
 16 24  1  0
 17 18  1  0
 18 19  2  0
 19 20  1  0
 19 21  1  0
 21 22  1  0
 21 24  2  0
 22 23  3  0
M  END
