
     RDKit          3D

 16 15  0  0  0  0  0  0  0  0999 V2000
    0.6430    1.6550   -1.4410 C   0  0  0  0  0  0  0  0  0  0  0  0
    0.8890    0.4140   -0.6660 C   0  0  1  0  0  0  0  0  0  0  0  0
    1.1030   -0.7440   -1.6420 C   0  0  0  0  0  0  0  0  0  0  0  0
    2.2970    0.6560   -0.0890 C   0  0  0  0  0  0  0  0  0  0  0  0
    2.8420   -0.4160    0.7470 C   0  0  0  0  0  0  0  0  0  0  0  0
    4.5000    0.0120    1.3220 S   0  0  2  0  0  0  0  0  0  0  0  0
    4.4710    1.1900    2.2210 O   0  0  0  0  0  0  0  0  0  0  0  0
    5.3520    0.3670    0.1260 O   0  0  0  0  0  0  0  0  0  0  0  0
    0.0440    0.0040    0.4220 C   0  0  0  0  0  0  0  0  0  0  0  0
   -1.4070   -0.2710    0.3040 C   0  0  2  0  0  0  0  0  0  0  0  0
   -1.8140   -0.6820    1.7640 C   0  0  0  0  0  0  0  0  0  0  0  0
   -1.8030   -1.4570   -0.4580 C   0  0  0  0  0  0  0  0  0  0  0  0
   -1.2060   -2.5750    0.1940 O   0  0  0  0  0  0  0  0  0  0  0  0
   -2.1570    1.0020    0.1360 C   0  0  0  0  0  0  0  0  0  0  0  0
   -3.6390    0.9070    0.0000 C   0  0  0  0  0  0  0  0  0  0  0  0
   -4.0100    0.1760   -1.1050 O   0  0  0  0  0  0  0  0  0  0  0  0
  2  1  1  6
  2  3  1  0
  2  4  1  0
  2  9  1  0
  4  5  1  0
  6  5  1  6
  6  7  2  0
  6  8  2  0
  9 10  1  0
 10 11  1  1
 10 12  1  0
 10 14  1  0
 12 13  1  0
 14 15  1  0
 15 16  1  0
M  END
