
     RDKit          3D

 24 24  0  0  0  0  0  0  0  0999 V2000
   -6.9810   -1.5290    0.5060 C   0  0  0  0  0  0  0  0  0  0  0  0
   -5.8090   -0.8530    0.2210 N   0  0  0  0  0  0  0  0  0  0  0  0
   -5.3400    0.3100    0.2460 C   0  0  0  0  0  0  0  0  0  0  0  0
   -5.9950    1.5160    0.6510 C   0  0  0  0  0  0  0  0  0  0  0  0
   -7.2230    1.5670    1.0680 C   0  0  0  0  0  0  0  0  0  0  0  0
   -7.9350    3.1340    1.5490 Cl  0  0  0  0  0  0  0  0  0  0  0  0
   -3.9490    0.3660   -0.2090 N   0  0  0  0  0  0  0  0  0  0  0  0
   -3.6690    1.1650   -1.3250 C   0  0  0  0  0  0  0  0  0  0  0  0
   -2.2330    1.1790   -1.7670 C   0  0  0  0  0  0  0  0  0  0  0  0
   -1.3660    0.6800   -0.8030 O   0  0  0  0  0  0  0  0  0  0  0  0
   -1.7830   -0.5760   -0.4410 C   0  0  1  0  0  0  0  0  0  0  0  0
   -0.6980   -1.3890    0.2270 C   0  0  0  0  0  0  0  0  0  0  0  0
    0.3890   -1.5080   -0.7260 N   0  0  0  0  0  0  0  0  0  0  0  0
    1.6640   -1.7310   -0.1020 C   0  0  0  0  0  0  0  0  0  0  0  0
    2.4320   -0.4160   -0.0280 C   0  0  1  0  0  0  0  0  0  0  0  0
    1.7660    0.5440    0.7020 O   0  0  0  0  0  0  0  0  0  0  0  0
    3.8040   -0.7420    0.5310 C   0  0  0  0  0  0  0  0  0  0  0  0
    4.6230    0.3770    0.5520 O   0  0  0  0  0  0  0  0  0  0  0  0
    5.8540    0.0280    1.0670 C   0  0  2  0  0  0  0  0  0  0  0  0
    6.1690    0.7660    2.2150 O   0  0  0  0  0  0  0  0  0  0  0  0
    6.8970    0.3550    0.0160 C   0  0  1  0  0  0  0  0  0  0  0  0
    6.8460    1.8100   -0.3690 C   0  0  0  0  0  0  0  0  0  0  0  0
    8.1460    0.0080    0.5230 O   0  0  0  0  0  0  0  0  0  0  0  0
   -2.9770   -0.3870    0.5040 C   0  0  0  0  0  0  0  0  0  0  0  0
  1  2  1  0
  2  3  2  3
  3  4  1  0
  3  7  1  0
  4  5  2  3
  5  6  1  0
  7  8  1  0
  7 24  1  0
  8  9  1  0
  9 10  1  0
 10 11  1  0
 11 12  1  1
 11 24  1  0
 12 13  1  0
 13 14  1  0
 14 15  1  0
 15 16  1  1
 15 17  1  0
 17 18  1  0
 18 19  1  0
 19 20  1  1
 19 21  1  0
 21 22  1  1
 21 23  1  0
M  CHG  1  13   1
M  END
