
     RDKit          3D

 16 15  0  0  0  0  0  0  0  0999 V2000
   -3.0570    0.8940   -0.3630 C   0  0  0  0  0  0  0  0  0  0  0  0
   -2.1270    1.2020    0.7900 C   0  0  1  0  0  0  0  0  0  0  0  0
   -2.7840    2.2660    1.6420 C   0  0  0  0  0  0  0  0  0  0  0  0
   -1.8470   -0.2350    1.8490 S   0  0  0  0  0  0  0  0  0  0  0  0
   -0.9410   -1.5430    1.0120 C   0  0  1  0  0  0  0  0  0  0  0  0
   -1.6750   -2.1810   -0.1180 C   0  0  0  0  0  0  0  0  0  0  0  0
   -2.9690   -2.8120    0.3620 C   0  0  0  0  0  0  0  0  0  0  0  0
   -3.5930   -3.3820   -0.7460 O   0  0  0  0  0  0  0  0  0  0  0  0
    0.3360   -0.9690    0.4670 C   0  0  0  0  0  0  0  0  0  0  0  0
    0.5930   -0.9780   -0.7590 O   0  0  0  0  0  0  0  0  0  0  0  0
    1.2820   -0.4040    1.2940 O   0  0  0  0  0  0  0  0  0  0  0  0
    2.4870    0.1450    0.7950 C   0  0  0  0  0  0  0  0  0  0  0  0
    2.2970    1.2850   -0.1300 C   0  0  0  0  0  0  0  0  0  0  0  0
    3.6170    1.8370   -0.5730 C   0  0  0  0  0  0  0  0  0  0  0  0
    4.5250    0.9270   -1.3080 C   0  0  0  0  0  0  0  0  0  0  0  0
    4.9510   -0.1910   -0.6390 O   0  0  0  0  0  0  0  0  0  0  0  0
  2  1  1  6
  2  3  1  0
  2  4  1  0
  4  5  1  0
  5  6  1  6
  5  9  1  0
  6  7  1  0
  7  8  1  0
  9 10  2  0
  9 11  1  0
 11 12  1  0
 12 13  1  0
 13 14  1  0
 14 15  1  0
 15 16  1  0
M  END
