
     RDKit          3D

 21 22  0  0  0  0  0  0  0  0999 V2000
   -6.9390   -0.8510    0.6070 O   0  0  0  0  0  0  0  0  0  0  0  0
   -6.4930    0.4070    1.0280 C   0  0  0  0  0  0  0  0  0  0  0  0
   -5.1600    0.7230    0.3870 C   0  0  0  0  0  0  0  0  0  0  0  0
   -4.1890   -0.2150    0.7260 O   0  0  0  0  0  0  0  0  0  0  0  0
   -3.0170    0.1410    0.1090 C   0  0  2  0  0  0  0  0  0  0  0  0
   -2.4560   -0.9920   -0.7630 C   0  0  0  0  0  0  0  0  0  0  0  0
   -1.0260   -0.5970   -0.8580 C   0  0  2  0  0  0  0  0  0  0  0  0
   -0.0800   -1.6230   -0.2140 C   0  0  0  0  0  0  0  0  0  0  0  0
    1.0570   -0.6330    0.1080 C   0  0  2  0  0  0  0  0  0  0  0  0
    1.4770   -0.1840   -1.1310 O   0  0  0  0  0  0  0  0  0  0  0  0
    2.0910   -1.2440    0.9710 C   0  0  0  0  0  0  0  0  0  0  0  0
    3.1000   -0.3840    1.2930 O   0  0  0  0  0  0  0  0  0  0  0  0
    3.8880    0.1180    0.3040 C   0  0  2  0  0  0  0  0  0  0  0  0
    5.3360   -0.3410    0.6030 C   0  0  0  0  0  0  0  0  0  0  0  0
    6.2010    0.1360   -0.3700 O   0  0  0  0  0  0  0  0  0  0  0  0
    3.9590    1.6430    0.3270 C   0  0  1  0  0  0  0  0  0  0  0  0
    4.7660    2.1020   -0.7030 O   0  0  0  0  0  0  0  0  0  0  0  0
    2.7360    2.2500    0.2540 O   0  0  0  0  0  0  0  0  0  0  0  0
    0.3280    0.3420    0.7950 O   0  0  0  0  0  0  0  0  0  0  0  0
   -0.8680    0.5330    0.1390 C   0  0  2  0  0  0  0  0  0  0  0  0
   -1.9610    0.3330    0.9810 O   0  0  0  0  0  0  0  0  0  0  0  0
  1  2  1  0
  2  3  1  0
  3  4  1  0
  5  4  1  1
  5  6  1  0
  5 21  1  0
  7  6  1  1
  7  8  1  0
  7 20  1  0
  8  9  1  0
  9 10  1  6
  9 11  1  0
  9 19  1  0
 11 12  1  0
 12 13  1  0
 13 14  1  1
 13 16  1  0
 14 15  1  0
 16 17  1  6
 16 18  1  0
 20 19  1  1
 20 21  1  0
M  END
