
     RDKit          3D

 20 20  0  0  0  0  0  0  0  0999 V2000
   -4.3550    0.6120    1.6830 O   0  0  0  0  0  0  0  0  0  0  0  0
   -4.5020    0.3150    0.3300 C   0  0  0  0  0  0  0  0  0  0  0  0
   -3.2910   -0.4480   -0.1850 C   0  0  1  0  0  0  0  0  0  0  0  0
   -3.5170   -0.7000   -1.5280 O   0  0  0  0  0  0  0  0  0  0  0  0
   -2.0180    0.3460    0.0330 C   0  0  1  0  0  0  0  0  0  0  0  0
   -1.8530    0.5620    1.4000 O   0  0  0  0  0  0  0  0  0  0  0  0
   -0.8680   -0.4380   -0.5380 C   0  0  2  0  0  0  0  0  0  0  0  0
   -0.7870   -1.6670    0.0970 O   0  0  0  0  0  0  0  0  0  0  0  0
   -0.0480   -1.6230    1.2710 C   0  0  0  0  0  0  0  0  0  0  0  0
    1.2400   -2.4330    1.1640 C   0  0  0  0  0  0  0  0  0  0  0  0
    2.2150   -1.7960    0.4420 O   0  0  0  0  0  0  0  0  0  0  0  0
    2.9190   -0.8360    1.1650 C   0  0  0  0  0  0  0  0  0  0  0  0
    3.3810    0.2080    0.1660 C   0  0  2  0  0  0  0  0  0  0  0  0
    2.9530    1.4990    0.5370 O   0  0  0  0  0  0  0  0  0  0  0  0
    3.0040   -0.1150   -1.2420 C   0  0  0  0  0  0  0  0  0  0  0  0
    2.6060    1.0580   -2.0450 C   0  0  0  0  0  0  0  0  0  0  0  0
    1.4880    1.7100   -1.9580 C   0  0  0  0  0  0  0  0  0  0  0  0
    1.3070    2.8080   -2.8240 O   0  0  0  0  0  0  0  0  0  0  0  0
    0.3450    1.4550   -1.0530 C   0  0  0  0  0  0  0  0  0  0  0  0
    0.3360    0.2100   -0.5020 O   0  0  0  0  0  0  0  0  0  0  0  0
  1  2  1  0
  2  3  1  0
  3  4  1  6
  3  5  1  0
  5  6  1  1
  5  7  1  0
  7  8  1  1
  7 20  1  0
  8  9  1  0
  9 10  1  0
 10 11  1  0
 11 12  1  0
 12 13  1  0
 13 14  1  1
 13 15  1  0
 15 16  1  0
 16 17  2  0
 17 18  1  0
 17 19  1  0
 19 20  1  0
M  END
