
     RDKit          3D

 20 20  0  0  0  0  0  0  0  0999 V2000
    4.7800   -0.5590    1.2390 O   0  0  0  0  0  0  0  0  0  0  0  0
    4.2570   -1.5060    0.3880 C   0  0  0  0  0  0  0  0  0  0  0  0
    2.8800   -1.3490    0.2040 O   0  0  0  0  0  0  0  0  0  0  0  0
    2.7000   -0.0710   -0.3420 C   0  0  0  0  0  0  0  0  0  0  0  0
    1.2160    0.1960   -0.5820 C   0  0  1  0  0  0  0  0  0  0  0  0
    1.0410    1.4410   -1.1210 O   0  0  0  0  0  0  0  0  0  0  0  0
   -0.2980    1.8080   -0.9880 C   0  0  0  0  0  0  0  0  0  0  0  0
   -0.5160    2.9960   -0.0850 C   0  0  1  0  0  0  0  0  0  0  0  0
   -0.6740    4.1680   -0.8510 O   0  0  0  0  0  0  0  0  0  0  0  0
   -1.8440    2.7470    0.6480 C   0  0  0  0  0  0  0  0  0  0  0  0
   -1.8390    1.4670    1.1420 O   0  0  0  0  0  0  0  0  0  0  0  0
   -2.8890    0.6670    0.7670 C   0  0  0  0  0  0  0  0  0  0  0  0
   -2.5390   -0.7810    1.0850 C   0  0  2  0  0  0  0  0  0  0  0  0
   -1.3900   -0.8130    1.8750 O   0  0  0  0  0  0  0  0  0  0  0  0
   -2.2020   -1.5650   -0.1940 C   0  0  0  0  0  0  0  0  0  0  0  0
   -0.9570   -2.3340   -0.0130 C   0  0  0  0  0  0  0  0  0  0  0  0
   -1.0770   -3.4880    0.7960 O   0  0  0  0  0  0  0  0  0  0  0  0
    0.2310   -2.0780   -0.5060 C   0  0  0  0  0  0  0  0  0  0  0  0
    0.6130   -0.9410   -1.3760 C   0  0  1  0  0  0  0  0  0  0  0  0
   -0.3410   -0.5580   -2.2840 O   0  0  0  0  0  0  0  0  0  0  0  0
  1  2  1  0
  2  3  1  0
  3  4  1  0
  5  4  1  6
  5  6  1  0
  5 19  1  0
  6  7  1  0
  7  8  1  0
  8  9  1  6
  8 10  1  0
 10 11  1  0
 11 12  1  0
 12 13  1  0
 13 14  1  1
 13 15  1  0
 15 16  1  0
 16 17  1  0
 16 18  2  0
 18 19  1  0
 19 20  1  1
M  END
