
     RDKit          3D

 20 21  0  0  0  0  0  0  0  0999 V2000
   -2.4190    2.4330    1.1740 O   0  0  0  0  0  0  0  0  0  0  0  0
   -2.3790    2.1570   -0.1730 C   0  0  0  0  0  0  0  0  0  0  0  0
   -1.3970    1.3070   -0.5970 O   0  0  0  0  0  0  0  0  0  0  0  0
   -1.4380    0.0550   -0.0390 C   0  0  2  0  0  0  0  0  0  0  0  0
   -2.8180   -0.5860   -0.2460 C   0  0  0  0  0  0  0  0  0  0  0  0
   -3.0880   -0.6210   -1.6010 O   0  0  0  0  0  0  0  0  0  0  0  0
   -1.2940    0.1640    1.3420 O   0  0  0  0  0  0  0  0  0  0  0  0
   -0.0930    0.4940    1.8410 C   0  0  0  0  0  0  0  0  0  0  0  0
    1.1200    0.4070    1.0170 C   0  0  1  0  0  0  0  0  0  0  0  0
    1.6560    1.7990    0.7620 C   0  0  0  0  0  0  0  0  0  0  0  0
    1.9660    2.4100    1.9960 O   0  0  0  0  0  0  0  0  0  0  0  0
    2.2430   -0.2940    1.8070 C   0  0  0  0  0  0  0  0  0  0  0  0
    3.3940   -0.3830    1.0410 O   0  0  0  0  0  0  0  0  0  0  0  0
    0.9840   -0.2960   -0.2920 C   0  0  1  0  0  0  0  0  0  0  0  0
    1.8590   -1.3840   -0.3350 O   0  0  0  0  0  0  0  0  0  0  0  0
    1.9690   -1.9270   -1.5960 C   0  0  0  0  0  0  0  0  0  0  0  0
    0.6910   -2.1640   -2.2930 C   0  0  0  0  0  0  0  0  0  0  0  0
   -0.4780   -1.3330   -1.9260 C   0  0  0  0  0  0  0  0  0  0  0  0
   -0.3980   -0.8780   -0.5230 C   0  0  2  0  0  0  0  0  0  0  0  0
   -0.4450   -2.0230    0.3130 O   0  0  0  0  0  0  0  0  0  0  0  0
  1  2  1  0
  2  3  1  0
  3  4  1  0
  4  5  1  1
  4  7  1  0
  4 19  1  0
  5  6  1  0
  7  8  1  0
  8  9  1  0
  9 10  1  6
  9 12  1  0
  9 14  1  0
 10 11  1  0
 12 13  1  0
 14 15  1  1
 14 19  1  0
 15 16  1  0
 16 17  1  0
 17 18  1  0
 18 19  1  0
 19 20  1  1
M  END
