
     RDKit          3D

 20 20  0  0  0  0  0  0  0  0999 V2000
    3.7670   -1.5820   -0.9060 O   0  0  0  0  0  0  0  0  0  0  0  0
    3.7100   -0.5610    0.0030 C   0  0  0  0  0  0  0  0  0  0  0  0
    2.4310   -0.4180    0.7530 C   0  0  0  0  0  0  0  0  0  0  0  0
    1.2150   -0.1660   -0.0600 C   0  0  2  0  0  0  0  0  0  0  0  0
    0.8420   -1.1860   -1.0610 C   0  0  0  0  0  0  0  0  0  0  0  0
    0.4050   -2.5030   -0.5190 C   0  0  1  0  0  0  0  0  0  0  0  0
    1.3570   -3.1330    0.2610 O   0  0  0  0  0  0  0  0  0  0  0  0
   -0.8800   -2.4530    0.2620 C   0  0  1  0  0  0  0  0  0  0  0  0
   -0.7460   -1.8520    1.4930 O   0  0  0  0  0  0  0  0  0  0  0  0
   -2.0280   -1.8610   -0.4820 C   0  0  2  0  0  0  0  0  0  0  0  0
   -2.1430   -2.3580   -1.7760 O   0  0  0  0  0  0  0  0  0  0  0  0
   -2.0540   -0.4930   -0.5260 O   0  0  0  0  0  0  0  0  0  0  0  0
   -2.7610    0.0850    0.5190 C   0  0  0  0  0  0  0  0  0  0  0  0
   -2.4760    1.5760    0.4670 C   0  0  0  0  0  0  0  0  0  0  0  0
   -1.1720    1.8430    0.8230 O   0  0  0  0  0  0  0  0  0  0  0  0
   -0.4680    2.3580   -0.2710 C   0  0  1  0  0  0  0  0  0  0  0  0
   -0.7240    3.8500   -0.2870 C   0  0  0  0  0  0  0  0  0  0  0  0
   -2.0750    4.1480   -0.4200 O   0  0  0  0  0  0  0  0  0  0  0  0
    1.0120    2.1420   -0.0470 C   0  0  0  0  0  0  0  0  0  0  0  0
    1.4470    1.0400   -0.7700 O   0  0  0  0  0  0  0  0  0  0  0  0
  1  2  1  0
  2  3  1  0
  4  3  1  6
  4  5  1  0
  4 20  1  0
  5  6  1  0
  6  7  1  1
  6  8  1  0
  8  9  1  1
  8 10  1  0
 10 11  1  6
 10 12  1  0
 12 13  1  0
 13 14  1  0
 14 15  1  0
 15 16  1  0
 16 17  1  1
 16 19  1  0
 17 18  1  0
 19 20  1  0
M  END
