
     RDKit          3D

 20 22  0  0  0  0  0  0  0  0999 V2000
    3.6420   -1.5220    1.5040 O   0  0  0  0  0  0  0  0  0  0  0  0
    2.9800   -1.8990    0.4930 C   0  0  0  0  0  0  0  0  0  0  0  0
    3.1710   -3.2140    0.0920 O   0  0  0  0  0  0  0  0  0  0  0  0
    2.1080   -1.0660   -0.1930 O   0  0  0  0  0  0  0  0  0  0  0  0
    1.9550    0.2530    0.2580 C   0  0  1  0  0  0  0  0  0  0  0  0
    2.0860    1.2070   -0.9050 C   0  0  0  0  0  0  0  0  0  0  0  0
    0.5760    1.1730   -1.0370 C   0  0  1  0  0  0  0  0  0  0  0  0
    0.1490    2.5050   -1.2510 O   0  0  0  0  0  0  0  0  0  0  0  0
    0.1130    0.2150   -2.0570 C   0  0  0  0  0  0  0  0  0  0  0  0
   -0.9000   -0.6200   -1.7460 O   0  0  0  0  0  0  0  0  0  0  0  0
   -1.5010   -0.5100   -0.5460 C   0  0  1  0  0  0  0  0  0  0  0  0
   -2.5870    0.4930   -0.4180 C   0  0  0  0  0  0  0  0  0  0  0  0
   -3.5900    0.1680   -1.3260 O   0  0  0  0  0  0  0  0  0  0  0  0
   -2.0830   -1.8350   -0.0300 C   0  0  0  0  0  0  0  0  0  0  0  0
   -2.0500   -1.5520    1.4640 C   0  0  0  0  0  0  0  0  0  0  0  0
   -1.2210   -0.4480    1.6510 O   0  0  0  0  0  0  0  0  0  0  0  0
   -0.4360   -0.4000    0.5340 C   0  0  2  0  0  0  0  0  0  0  0  0
    0.4930    0.7040    0.3780 C   0  0  1  0  0  0  0  0  0  0  0  0
    0.3870    1.7600    1.4380 C   0  0  0  0  0  0  0  0  0  0  0  0
    1.1530    2.8810    1.1690 O   0  0  0  0  0  0  0  0  0  0  0  0
  1  2  2  0
  2  3  1  0
  2  4  1  0
  5  4  1  6
  5  6  1  0
  5 18  1  0
  6  7  1  0
  7  8  1  1
  7  9  1  0
  7 18  1  0
  9 10  1  0
 10 11  1  0
 11 12  1  6
 11 14  1  0
 11 17  1  0
 12 13  1  0
 14 15  1  0
 15 16  1  0
 17 16  1  1
 17 18  1  0
 18 19  1  1
 19 20  1  0
M  END
