
     RDKit          3D

 21 22  0  0  0  0  0  0  0  0999 V2000
    2.3810   -1.8340    1.6140 O   0  0  0  0  0  0  0  0  0  0  0  0
    3.2060   -2.1310    0.5460 C   0  0  0  0  0  0  0  0  0  0  0  0
    3.1880   -1.0320   -0.5260 C   0  0  1  0  0  0  0  0  0  0  0  0
    1.9230   -0.9090   -0.9690 O   0  0  0  0  0  0  0  0  0  0  0  0
    1.1060    0.0310   -0.3770 C   0  0  2  0  0  0  0  0  0  0  0  0
   -0.0670    0.2510   -1.0670 O   0  0  0  0  0  0  0  0  0  0  0  0
   -1.2310   -0.0940   -0.4480 C   0  0  2  0  0  0  0  0  0  0  0  0
   -1.7620   -1.2830   -1.2930 C   0  0  0  0  0  0  0  0  0  0  0  0
   -2.9810   -1.8380   -0.6350 C   0  0  0  0  0  0  0  0  0  0  0  0
   -3.9740   -0.8350   -0.7230 O   0  0  0  0  0  0  0  0  0  0  0  0
   -3.6000    0.2440    0.0440 C   0  0  2  0  0  0  0  0  0  0  0  0
   -4.7370    1.2510    0.0610 C   0  0  0  0  0  0  0  0  0  0  0  0
   -5.8940    0.7140    0.5920 O   0  0  0  0  0  0  0  0  0  0  0  0
   -2.3450    0.9170   -0.5300 C   0  0  1  0  0  0  0  0  0  0  0  0
   -2.1170    2.0970    0.1240 O   0  0  0  0  0  0  0  0  0  0  0  0
    1.7750    1.3570   -0.1680 C   0  0  1  0  0  0  0  0  0  0  0  0
    0.9210    2.2880    0.3710 O   0  0  0  0  0  0  0  0  0  0  0  0
    2.9900    1.1600    0.7140 C   0  0  1  0  0  0  0  0  0  0  0  0
    2.5900    0.7610    1.9810 O   0  0  0  0  0  0  0  0  0  0  0  0
    3.8650    0.1570    0.0470 C   0  0  2  0  0  0  0  0  0  0  0  0
    4.5190    0.8220   -1.0160 O   0  0  0  0  0  0  0  0  0  0  0  0
  1  2  1  0
  3  2  1  1
  3  4  1  0
  3 20  1  0
  4  5  1  0
  5  6  1  6
  5 16  1  0
  7  6  1  6
  7  8  1  0
  7 14  1  0
  8  9  1  0
  9 10  1  0
 10 11  1  0
 11 12  1  6
 11 14  1  0
 12 13  1  0
 14 15  1  1
 16 17  1  1
 16 18  1  0
 18 19  1  1
 18 20  1  0
 20 21  1  6
M  END
