
     RDKit          3D

 19 19  0  0  0  0  0  0  0  0999 V2000
   -5.2650    1.2360    0.1420 C   0  0  0  0  0  0  0  0  0  0  0  0
   -4.3230    0.2720   -0.1410 O   0  0  0  0  0  0  0  0  0  0  0  0
   -3.3560    0.1430    0.8410 C   0  0  0  0  0  0  0  0  0  0  0  0
   -2.3990   -0.9470    0.3880 C   0  0  1  0  0  0  0  0  0  0  0  0
   -3.1410   -2.2400    0.1090 C   0  0  0  0  0  0  0  0  0  0  0  0
   -4.1520   -2.0490   -0.8310 O   0  0  0  0  0  0  0  0  0  0  0  0
   -1.8520   -0.5300   -0.8240 O   0  0  0  0  0  0  0  0  0  0  0  0
   -0.4890   -0.4390   -0.6620 C   0  0  2  0  0  0  0  0  0  0  0  0
    0.0430    0.8780   -0.9490 N   0  0  0  0  0  0  0  0  0  0  0  0
    1.4970    0.5730   -1.0810 C   0  0  1  0  0  0  0  0  0  0  0  0
    1.8050    1.0320   -2.3740 O   0  0  0  0  0  0  0  0  0  0  0  0
    2.2390    1.2990   -0.0290 C   0  0  0  0  0  0  0  0  0  0  0  0
    3.7000    1.1170   -0.0370 C   0  0  1  0  0  0  0  0  0  0  0  0
    4.2160    1.9610    1.0320 O   0  0  0  0  0  0  0  0  0  0  0  0
    4.1070   -0.2890    0.3600 C   0  0  1  0  0  0  0  0  0  0  0  0
    5.5310   -0.2190    0.4550 O   0  0  0  0  0  0  0  0  0  0  0  0
    3.5920   -0.6510    1.5830 O   0  0  0  0  0  0  0  0  0  0  0  0
    1.5430   -0.9050   -1.1140 C   0  0  0  0  0  0  0  0  0  0  0  0
    0.2260   -1.2570   -1.5370 O   0  0  0  0  0  0  0  0  0  0  0  0
  1  2  1  0
  2  3  1  0
  4  3  1  6
  4  5  1  0
  4  7  1  0
  5  6  1  0
  8  7  1  6
  8  9  1  0
  8 19  1  0
  9 10  1  0
 10 11  1  6
 10 12  1  0
 10 18  1  0
 12 13  1  0
 13 14  1  1
 13 15  1  0
 15 16  1  1
 15 17  1  0
 18 19  1  0
M  END
