
     RDKit          3D

 19 19  0  0  0  0  0  0  0  0999 V2000
   -4.0800    1.5180    0.9510 C   0  0  0  0  0  0  0  0  0  0  0  0
   -3.2170    0.9890   -0.1830 C   0  0  1  0  0  0  0  0  0  0  0  0
   -1.9340    1.4700   -0.0630 O   0  0  0  0  0  0  0  0  0  0  0  0
   -1.1690    0.8070    0.8850 C   0  0  0  0  0  0  0  0  0  0  0  0
   -1.0610   -0.6650    0.6510 C   0  0  2  0  0  0  0  0  0  0  0  0
   -1.6780   -1.3580    1.6990 O   0  0  0  0  0  0  0  0  0  0  0  0
    0.3490   -1.1660    0.5530 C   0  0  1  0  0  0  0  0  0  0  0  0
    0.2770   -2.5570    0.3580 O   0  0  0  0  0  0  0  0  0  0  0  0
    1.1160   -0.5420   -0.4890 N   0  0  0  0  0  0  0  0  0  0  0  0
    2.3340    0.1530   -0.1890 C   0  0  0  0  0  0  0  0  0  0  0  0
    2.6710    0.1780    1.0040 O   0  0  0  0  0  0  0  0  0  0  0  0
    3.1020    0.7630   -1.1310 O   0  0  0  0  0  0  0  0  0  0  0  0
    4.2910    1.4500   -0.9290 C   0  0  0  0  0  0  0  0  0  0  0  0
    5.4310    0.6790   -0.3680 C   0  0  0  0  0  0  0  0  0  0  0  0
    5.2450    0.1110    0.8610 O   0  0  0  0  0  0  0  0  0  0  0  0
   -1.8650   -0.9910   -0.6000 C   0  0  1  0  0  0  0  0  0  0  0  0
   -1.8240   -2.3200   -0.9340 O   0  0  0  0  0  0  0  0  0  0  0  0
   -3.2910   -0.5120   -0.2980 C   0  0  2  0  0  0  0  0  0  0  0  0
   -4.1990   -0.9580   -1.2230 O   0  0  0  0  0  0  0  0  0  0  0  0
  2  1  1  1
  2  3  1  0
  2 18  1  0
  3  4  1  0
  4  5  1  0
  5  6  1  1
  5  7  1  0
  5 16  1  0
  7  8  1  6
  7  9  1  0
  9 10  1  0
 10 11  2  0
 10 12  1  0
 12 13  1  0
 13 14  1  0
 14 15  1  0
 16 17  1  1
 16 18  1  0
 18 19  1  6
M  END
