
     RDKit          3D

 19 19  0  0  0  0  0  0  0  0999 V2000
   -4.4810   -0.6930    2.0700 C   0  0  0  0  0  0  0  0  0  0  0  0
   -3.9640   -0.0340    0.9550 O   0  0  0  0  0  0  0  0  0  0  0  0
   -2.8730   -0.6840    0.4150 C   0  0  1  0  0  0  0  0  0  0  0  0
   -3.2320   -1.1230   -0.8790 O   0  0  0  0  0  0  0  0  0  0  0  0
   -1.6870    0.2270    0.2530 C   0  0  2  0  0  0  0  0  0  0  0  0
   -1.9830    1.3840   -0.6470 C   0  0  0  0  0  0  0  0  0  0  0  0
   -0.7230    2.2470   -0.6820 C   0  0  2  0  0  0  0  0  0  0  0  0
   -0.9520    3.4670   -1.2890 O   0  0  0  0  0  0  0  0  0  0  0  0
    0.2350    1.4820   -1.3560 O   0  0  0  0  0  0  0  0  0  0  0  0
    0.6500    0.4880   -0.4670 C   0  0  2  0  0  0  0  0  0  0  0  0
    1.6900   -0.1940   -1.0580 O   0  0  0  0  0  0  0  0  0  0  0  0
    2.8480   -0.2560   -0.3460 C   0  0  1  0  0  0  0  0  0  0  0  0
    3.2770   -1.6370    0.0550 C   0  0  0  0  0  0  0  0  0  0  0  0
    3.4760   -2.4350   -1.0940 O   0  0  0  0  0  0  0  0  0  0  0  0
    3.9960    0.4110   -0.9840 C   0  0  0  0  0  0  0  0  0  0  0  0
    5.2570    0.4250   -0.3570 N   0  0  0  0  0  0  0  0  0  0  0  0
    3.8570    0.9680   -2.0870 O   0  0  0  0  0  0  0  0  0  0  0  0
   -0.4810   -0.4960   -0.2560 C   0  0  1  0  0  0  0  0  0  0  0  0
   -0.1010   -1.4490    0.6890 O   0  0  0  0  0  0  0  0  0  0  0  0
  1  2  1  0
  2  3  1  0
  3  4  1  6
  3  5  1  0
  5  6  1  6
  5 18  1  0
  6  7  1  0
  7  8  1  6
  7  9  1  0
  9 10  1  0
 10 11  1  6
 10 18  1  0
 11 12  1  0
 12 13  1  6
 12 15  1  0
 13 14  1  0
 15 16  1  0
 15 17  2  0
 18 19  1  1
M  END
