
     RDKit          3D

 20 20  0  0  0  0  0  0  0  0999 V2000
   -4.6770    0.1100   -1.8610 N   0  0  0  0  0  0  0  0  0  0  0  0
   -3.4510   -0.2260   -1.2340 C   0  0  0  0  0  0  0  0  0  0  0  0
   -3.4890   -0.4530    0.0680 C   0  0  0  0  0  0  0  0  0  0  0  0
   -4.7500   -0.3560    0.8070 C   0  0  0  0  0  0  0  0  0  0  0  0
   -5.8300   -0.0610    0.2540 O   0  0  0  0  0  0  0  0  0  0  0  0
   -4.8020   -0.5940    2.1800 O   0  0  0  0  0  0  0  0  0  0  0  0
   -2.2100   -0.8040    0.7330 C   0  0  2  0  0  0  0  0  0  0  0  0
   -2.2880   -0.6790    2.1110 O   0  0  0  0  0  0  0  0  0  0  0  0
   -1.1040    0.0900    0.2030 C   0  0  1  0  0  0  0  0  0  0  0  0
   -1.3830    1.3720    0.7130 O   0  0  0  0  0  0  0  0  0  0  0  0
    0.0890   -0.4050    0.6650 O   0  0  0  0  0  0  0  0  0  0  0  0
    1.2010    0.3400    0.3620 C   0  0  0  0  0  0  0  0  0  0  0  0
    2.4020   -0.3890    0.9680 C   0  0  0  0  0  0  0  0  0  0  0  0
    3.5940    0.2520    0.7390 O   0  0  0  0  0  0  0  0  0  0  0  0
    3.9180    0.4060   -0.5990 C   0  0  1  0  0  0  0  0  0  0  0  0
    4.1740    1.7710   -0.8280 O   0  0  0  0  0  0  0  0  0  0  0  0
    5.2540   -0.3000   -0.8440 C   0  0  0  0  0  0  0  0  0  0  0  0
    6.1870    0.3100   -0.0240 O   0  0  0  0  0  0  0  0  0  0  0  0
   -1.0740    0.1500   -1.2850 C   0  0  0  0  0  0  0  0  0  0  0  0
   -2.2480   -0.3210   -1.9190 O   0  0  0  0  0  0  0  0  0  0  0  0
  1  2  1  0
  2  3  2  0
  2 20  1  0
  3  4  1  0
  3  7  1  0
  4  5  2  0
  4  6  1  0
  7  8  1  1
  7  9  1  0
  9 10  1  1
  9 11  1  0
  9 19  1  0
 11 12  1  0
 12 13  1  0
 13 14  1  0
 14 15  1  0
 15 16  1  1
 15 17  1  0
 17 18  1  0
 19 20  1  0
M  END
