
     RDKit          3D

 20 21  0  0  0  0  0  0  0  0999 V2000
    2.0830    3.1340    1.3230 O   0  0  0  0  0  0  0  0  0  0  0  0
    2.6060    2.2560    0.3760 C   0  0  0  0  0  0  0  0  0  0  0  0
    1.8740    0.9340    0.3490 C   0  0  2  0  0  0  0  0  0  0  0  0
    2.5270    0.0830   -0.7140 C   0  0  0  0  0  0  0  0  0  0  0  0
    1.9320   -1.3070   -0.6090 C   0  0  1  0  0  0  0  0  0  0  0  0
    2.8120   -2.1720    0.3030 C   0  0  0  0  0  0  0  0  0  0  0  0
    2.2210   -3.4110    0.4330 O   0  0  0  0  0  0  0  0  0  0  0  0
    0.7040   -1.2110   -0.0020 O   0  0  0  0  0  0  0  0  0  0  0  0
   -0.0350   -0.1090   -0.3590 C   0  0  1  0  0  0  0  0  0  0  0  0
   -0.1370   -0.0970   -1.7500 O   0  0  0  0  0  0  0  0  0  0  0  0
   -1.3330   -0.2150    0.2740 N   0  0  0  0  0  0  0  0  0  0  0  0
   -2.2010    0.8960   -0.0310 C   0  0  2  0  0  0  0  0  0  0  0  0
   -2.3110    1.7210    1.2560 C   0  0  0  0  0  0  0  0  0  0  0  0
   -2.8520    0.8630    2.2130 O   0  0  0  0  0  0  0  0  0  0  0  0
   -3.5580    0.2460   -0.2450 C   0  0  0  0  0  0  0  0  0  0  0  0
   -3.3760   -1.0360    0.3110 O   0  0  0  0  0  0  0  0  0  0  0  0
   -2.0960   -1.3420   -0.2080 C   0  0  2  0  0  0  0  0  0  0  0  0
   -1.7070   -2.5460    0.3280 O   0  0  0  0  0  0  0  0  0  0  0  0
   -2.2000   -1.3810   -1.5790 O   0  0  0  0  0  0  0  0  0  0  0  0
    0.5400    1.0800    0.0470 O   0  0  0  0  0  0  0  0  0  0  0  0
  1  2  1  0
  3  2  1  6
  3  4  1  0
  3 20  1  0
  4  5  1  0
  5  6  1  1
  5  8  1  0
  6  7  1  0
  8  9  1  0
  9 10  1  6
  9 11  1  0
  9 20  1  0
 11 12  1  0
 11 17  1  0
 12 13  1  1
 12 15  1  0
 13 14  1  0
 15 16  1  0
 16 17  1  0
 17 18  1  1
 17 19  1  0
M  END
