
     RDKit          3D

 19 19  0  0  0  0  0  0  0  0999 V2000
    4.1190   -0.5650    0.2800 O   0  0  0  0  0  0  0  0  0  0  0  0
    4.0020    0.5450   -0.2750 C   0  0  0  0  0  0  0  0  0  0  0  0
    5.0920    1.4700   -0.2500 N   0  0  0  0  0  0  0  0  0  0  0  0
    6.2440    1.1410    0.3740 O   0  0  0  0  0  0  0  0  0  0  0  0
    2.8410    0.8930   -0.9120 O   0  0  0  0  0  0  0  0  0  0  0  0
    1.6830    0.1150   -1.0220 C   0  0  0  0  0  0  0  0  0  0  0  0
    1.0210   -0.1990    0.2930 C   0  0  2  0  0  0  0  0  0  0  0  0
    1.7690   -0.9490    1.1630 O   0  0  0  0  0  0  0  0  0  0  0  0
   -0.3910   -0.7200    0.1250 C   0  0  1  0  0  0  0  0  0  0  0  0
   -0.4530   -1.9760   -0.7120 C   0  0  0  0  0  0  0  0  0  0  0  0
    0.0190   -1.8260   -1.9960 O   0  0  0  0  0  0  0  0  0  0  0  0
   -0.8380   -1.1760    1.5220 C   0  0  0  0  0  0  0  0  0  0  0  0
   -2.1600   -1.5150    1.5590 O   0  0  0  0  0  0  0  0  0  0  0  0
   -3.0130   -0.6200    0.9410 C   0  0  0  0  0  0  0  0  0  0  0  0
   -2.2890    0.6650    0.7240 C   0  0  2  0  0  0  0  0  0  0  0  0
   -3.1920    1.8050    0.3340 C   0  0  0  0  0  0  0  0  0  0  0  0
   -3.8830    1.5760   -0.8340 O   0  0  0  0  0  0  0  0  0  0  0  0
   -1.2470    0.3990   -0.3740 C   0  0  1  0  0  0  0  0  0  0  0  0
   -0.5720    1.6140   -0.5240 O   0  0  0  0  0  0  0  0  0  0  0  0
  1  2  2  0
  2  3  1  0
  2  5  1  0
  3  4  1  0
  5  6  1  0
  6  7  1  0
  7  8  1  6
  7  9  1  0
  9 10  1  6
  9 12  1  0
  9 18  1  0
 10 11  1  0
 12 13  1  0
 13 14  1  0
 14 15  1  0
 15 16  1  6
 15 18  1  0
 16 17  1  0
 18 19  1  1
M  END
