
     RDKit          3D

 19 19  0  0  0  0  0  0  0  0999 V2000
   -5.3790   -0.8220    1.3280 C   0  0  0  0  0  0  0  0  0  0  0  0
   -4.6180   -0.6640    0.1810 O   0  0  0  0  0  0  0  0  0  0  0  0
   -3.3540   -0.0940    0.4670 C   0  0  1  0  0  0  0  0  0  0  0  0
   -2.3460   -0.9870    0.1530 O   0  0  0  0  0  0  0  0  0  0  0  0
   -3.3280    1.2090   -0.2340 C   0  0  0  0  0  0  0  0  0  0  0  0
   -2.2670    2.0240   -0.1260 O   0  0  0  0  0  0  0  0  0  0  0  0
   -1.0510    1.6020   -0.5290 C   0  0  2  0  0  0  0  0  0  0  0  0
   -1.0000    1.2360   -1.8870 O   0  0  0  0  0  0  0  0  0  0  0  0
   -0.3990    0.6790    0.3510 N   0  0  0  0  0  0  0  0  0  0  0  0
    1.0510    0.8670    0.1500 C   0  0  1  0  0  0  0  0  0  0  0  0
    1.5820   -0.4250   -0.3300 C   0  0  2  0  0  0  0  0  0  0  0  0
    1.3270   -1.3990    0.6490 O   0  0  0  0  0  0  0  0  0  0  0  0
    3.0180   -0.4820   -0.6970 C   0  0  2  0  0  0  0  0  0  0  0  0
    3.3010   -1.9210   -1.1570 C   0  0  0  0  0  0  0  0  0  0  0  0
    3.0070   -2.7590   -0.0900 O   0  0  0  0  0  0  0  0  0  0  0  0
    3.9790   -0.1980    0.4200 C   0  0  0  0  0  0  0  0  0  0  0  0
    3.8190    1.0650    0.9700 O   0  0  0  0  0  0  0  0  0  0  0  0
    1.0320    1.9600   -0.8920 C   0  0  0  0  0  0  0  0  0  0  0  0
   -0.0960    2.6770   -0.4900 O   0  0  0  0  0  0  0  0  0  0  0  0
  1  2  1  0
  2  3  1  0
  3  4  1  6
  3  5  1  0
  5  6  1  0
  6  7  1  0
  7  8  1  6
  7  9  1  0
  7 19  1  0
  9 10  1  0
 10 11  1  0
 10 18  1  6
 11 12  1  1
 11 13  1  0
 13 14  1  1
 13 16  1  0
 14 15  1  0
 16 17  1  0
 18 19  1  0
M  END
