
     RDKit          3D

 34 36  0  0  0  0  0  0  0  0999 V2000
   -7.5580    0.1350   -2.1430 C   0  0  0  0  0  0  0  0  0  0  0  0
   -6.4650    0.4170   -1.3130 O   0  0  0  0  0  0  0  0  0  0  0  0
   -6.4970    0.6790    0.0270 C   0  0  0  0  0  0  0  0  0  0  0  0
   -7.0110    1.8780    0.3920 C   0  0  0  0  0  0  0  0  0  0  0  0
   -7.4640    2.7490   -0.6000 O   0  0  0  0  0  0  0  0  0  0  0  0
   -7.0670    2.1880    1.7160 O   0  0  0  0  0  0  0  0  0  0  0  0
   -6.6270    1.3590    2.7620 C   0  0  0  0  0  0  0  0  0  0  0  0
   -6.0860    0.0830    2.2870 C   0  0  0  0  0  0  0  0  0  0  0  0
   -6.0070   -0.2740    1.0110 C   0  0  0  0  0  0  0  0  0  0  0  0
   -5.4730   -1.5390    0.6670 N   0  0  0  0  0  0  0  0  0  0  0  0
   -4.3430   -1.7540   -0.1590 C   0  0  0  0  0  0  0  0  0  0  0  0
   -3.7570   -0.7600   -0.6500 O   0  0  0  0  0  0  0  0  0  0  0  0
   -3.8500   -3.0200   -0.4560 O   0  0  0  0  0  0  0  0  0  0  0  0
   -2.7510   -3.2840   -1.2660 C   0  0  0  0  0  0  0  0  0  0  0  0
   -1.4600   -2.7380   -0.8180 C   0  0  0  0  0  0  0  0  0  0  0  0
   -0.4730   -2.9600   -1.6100 O   0  0  0  0  0  0  0  0  0  0  0  0
   -1.1930   -2.0140    0.3490 N   0  0  0  0  0  0  0  0  0  0  0  0
    0.1160   -1.4800    0.6820 C   0  0  0  0  0  0  0  0  0  0  0  0
    0.7180   -0.8820    1.4960 N   0  0  0  0  0  0  0  0  0  0  0  0
    1.9360   -0.5160    1.4680 N   0  0  0  0  0  0  0  0  0  0  0  0
    2.7050   -0.7840    0.4690 C   0  0  0  0  0  0  0  0  0  0  0  0
    4.0300   -0.5790   -0.0160 C   0  0  0  0  0  0  0  0  0  0  0  0
    4.5430   -0.9020   -0.9870 O   0  0  0  0  0  0  0  0  0  0  0  0
    4.9940    0.3240    1.0780 N   0  0  0  0  0  0  0  0  0  0  0  0
    6.1540    0.4300    0.2100 C   0  0  0  0  0  0  0  0  0  0  0  0
    6.3980    0.0400   -0.8610 O   0  0  0  0  0  0  0  0  0  0  0  0
    7.1620    1.2320    0.9720 N   0  0  0  0  0  0  0  0  0  0  0  0
    8.3910    1.5340    0.3940 C   0  0  0  0  0  0  0  0  0  0  0  0
    8.8090    2.7810    0.0840 C   0  0  0  0  0  0  0  0  0  0  0  0
   10.1270    2.7170   -0.4980 C   0  0  0  0  0  0  0  0  0  0  0  0
   10.4870    1.4920   -0.5340 N   0  0  0  0  0  0  0  0  0  0  0  0
   11.7010    1.0500   -1.0310 O   0  0  0  0  0  0  0  0  0  0  0  0
    9.4960    0.6210    0.0040 C   0  0  0  0  0  0  0  0  0  0  0  0
    1.4790   -1.7120   -0.6030 S   0  0  0  0  0  0  0  0  0  0  0  0
  1  2  1  0
  2  3  1  0
  3  4  2  0
  3  9  1  0
  4  5  1  0
  4  6  1  0
  6  7  1  0
  7  8  1  0
  8  9  2  0
  9 10  1  0
 10 11  1  0
 11 12  2  0
 11 13  1  0
 13 14  1  0
 14 15  1  0
 15 16  2  0
 15 17  1  0
 17 18  1  0
 18 19  2  0
 18 34  1  0
 19 20  1  0
 20 21  2  0
 21 22  1  0
 21 34  1  0
 22 23  2  0
 22 24  1  0
 24 25  1  0
 25 26  2  0
 25 27  1  0
 27 28  1  0
 28 29  2  0
 28 33  1  0
 29 30  1  0
 30 31  2  0
 31 32  1  0
 31 33  1  0
M  CHG  2  31   1  32  -1
M  END
