
     RDKit          3D

 34 36  0  0  0  0  0  0  0  0999 V2000
   -5.9850    2.5040   -0.7140 C   0  0  0  0  0  0  0  0  0  0  0  0
   -6.5250    1.2050   -0.8850 O   0  0  0  0  0  0  0  0  0  0  0  0
   -5.7760    0.0580   -0.6740 C   0  0  0  0  0  0  0  0  0  0  0  0
   -4.4540    0.1230   -0.2850 C   0  0  0  0  0  0  0  0  0  0  0  0
   -3.6760   -0.9770   -0.0660 C   0  0  0  0  0  0  0  0  0  0  0  0
   -2.2920   -0.9170    0.3430 N   0  0  1  0  0  0  0  0  0  0  0  0
   -2.1370   -1.8250    1.4510 C   0  0  0  0  0  0  0  0  0  0  0  0
   -1.5150   -1.2760   -0.7210 O   0  0  0  0  0  0  0  0  0  0  0  0
   -2.0090    0.4450    0.6680 C   0  0  0  0  0  0  0  0  0  0  0  0
   -0.7180    0.6500    1.3830 C   0  0  0  0  0  0  0  0  0  0  0  0
    0.0820   -0.2490    1.6950 O   0  0  0  0  0  0  0  0  0  0  0  0
   -0.4170    1.9590    1.7110 O   0  0  0  0  0  0  0  0  0  0  0  0
    0.7230    2.3900    2.3700 C   0  0  0  0  0  0  0  0  0  0  0  0
    2.0020    2.1580    1.6790 C   0  0  0  0  0  0  0  0  0  0  0  0
    3.0960    2.4710    2.2730 O   0  0  0  0  0  0  0  0  0  0  0  0
    2.1240    1.6070    0.3800 N   0  0  0  0  0  0  0  0  0  0  0  0
    3.3660    1.4060   -0.2270 N   0  0  0  0  0  0  0  0  0  0  0  0
    4.4580    0.7170    0.3670 C   0  0  0  0  0  0  0  0  0  0  0  0
    4.2750    0.2580    1.5270 O   0  0  0  0  0  0  0  0  0  0  0  0
    5.7260    0.5320   -0.2920 C   0  0  0  0  0  0  0  0  0  0  0  0
    5.8730    0.9840   -1.4460 O   0  0  0  0  0  0  0  0  0  0  0  0
    6.7710   -0.1500    0.3710 N   0  0  0  0  0  0  0  0  0  0  0  0
    8.0400   -0.3750   -0.2060 C   0  0  0  0  0  0  0  0  0  0  0  0
    9.0670   -1.0230    0.3970 N   0  0  0  0  0  0  0  0  0  0  0  0
   10.0780   -1.0450   -0.4290 N   0  0  0  0  0  0  0  0  0  0  0  0
    9.7510   -0.4300   -1.5620 C   0  0  0  0  0  0  0  0  0  0  0  0
   10.7350   -0.2430   -2.8490 S   0  0  0  0  0  0  0  0  0  0  0  0
    8.4770   -0.0200   -1.4040 N   0  0  0  0  0  0  0  0  0  0  0  0
   -4.2670   -2.2340   -0.2500 C   0  0  0  0  0  0  0  0  0  0  0  0
   -5.5930   -2.3120   -0.6400 C   0  0  0  0  0  0  0  0  0  0  0  0
   -6.3590   -1.1760   -0.8550 C   0  0  0  0  0  0  0  0  0  0  0  0
   -7.6400   -1.5540   -1.2350 O   0  0  0  0  0  0  0  0  0  0  0  0
   -7.7690   -2.9210   -0.8810 C   0  0  0  0  0  0  0  0  0  0  0  0
   -6.4170   -3.3780   -0.8910 O   0  0  0  0  0  0  0  0  0  0  0  0
  1  2  1  0
  2  3  1  0
  3  4  2  0
  3 31  1  0
  4  5  1  0
  5  6  1  0
  5 29  2  0
  6  7  1  1
  6  8  1  0
  6  9  1  0
  9 10  1  0
 10 11  2  0
 10 12  1  0
 12 13  1  0
 13 14  1  0
 14 15  2  0
 14 16  1  0
 16 17  1  0
 17 18  1  0
 18 19  2  0
 18 20  1  0
 20 21  2  0
 20 22  1  0
 22 23  1  0
 23 24  2  0
 23 28  1  0
 24 25  1  0
 25 26  1  0
 26 27  2  0
 26 28  1  0
 29 30  1  0
 30 31  2  0
 30 34  1  0
 31 32  1  0
 32 33  1  0
 33 34  1  0
M  CHG  2   6   1   8  -1
M  END
