
     RDKit          3D

 34 36  0  0  0  0  0  0  0  0999 V2000
   -3.7460   -2.7390    0.9010 C   0  0  0  0  0  0  0  0  0  0  0  0
   -2.7150   -2.2450    1.7350 N   0  0  0  0  0  0  0  0  0  0  0  0
   -2.7380   -2.7510    3.1460 C   0  0  0  0  0  0  0  0  0  0  0  0
   -1.7220   -1.3410    1.4270 C   0  0  0  0  0  0  0  0  0  0  0  0
   -0.8430   -1.1220    2.3580 O   0  0  0  0  0  0  0  0  0  0  0  0
   -1.5120   -0.5960    0.1900 C   0  0  1  0  0  0  0  0  0  0  0  0
   -0.2180    0.0430    0.2320 N   0  0  0  0  0  0  0  0  0  0  0  0
    1.0120   -0.9520    0.5000 C   0  0  0  0  0  0  0  0  0  0  0  0
    0.6260   -1.9870    0.5930 O   0  0  0  0  0  0  0  0  0  0  0  0
    2.0940   -0.0450    0.4670 N   0  0  0  0  0  0  0  0  0  0  0  0
    3.2940   -1.2850    0.1030 C   0  0  0  0  0  0  0  0  0  0  0  0
    2.8280   -2.3420    0.0180 O   0  0  0  0  0  0  0  0  0  0  0  0
    4.5670   -0.6970   -0.0340 C   0  0  0  0  0  0  0  0  0  0  0  0
    5.0120    0.2540    0.7340 O   0  0  0  0  0  0  0  0  0  0  0  0
    5.4480   -1.0630   -1.0350 N   0  0  0  0  0  0  0  0  0  0  0  0
    6.7530   -0.5050   -1.3000 C   0  0  0  0  0  0  0  0  0  0  0  0
    7.5540   -0.3600   -2.1190 N   0  0  0  0  0  0  0  0  0  0  0  0
    8.6800    0.0540   -2.2470 N   0  0  0  0  0  0  0  0  0  0  0  0
    9.2430    0.4960   -1.1180 C   0  0  0  0  0  0  0  0  0  0  0  0
   10.4740    1.0600   -0.7500 C   0  0  0  0  0  0  0  0  0  0  0  0
   10.6730    1.3730    0.5220 O   0  0  0  0  0  0  0  0  0  0  0  0
   11.5680    1.3560   -1.5160 O   0  0  0  0  0  0  0  0  0  0  0  0
    7.8130    0.1860    0.0740 S   0  0  0  0  0  0  0  0  0  0  0  0
   -1.7990   -1.1890   -1.1320 C   0  0  0  0  0  0  0  0  0  0  0  0
   -3.0980   -0.6230   -1.6360 C   0  0  0  0  0  0  0  0  0  0  0  0
   -3.2860    0.5860   -0.9150 N   0  0  1  0  0  0  0  0  0  0  0  0
   -2.9460    1.6490   -1.7150 O   0  0  0  0  0  0  0  0  0  0  0  0
   -4.6780    0.8400   -0.5300 C   0  0  0  0  0  0  0  0  0  0  0  0
   -4.7040    2.3320   -0.2830 C   0  0  0  0  0  0  0  0  0  0  0  0
   -5.4640    3.1940   -0.9100 C   0  0  0  0  0  0  0  0  0  0  0  0
   -5.1370    4.5340   -0.3340 C   0  0  0  0  0  0  0  0  0  0  0  0
   -4.2850    4.3070    0.7330 O   0  0  0  0  0  0  0  0  0  0  0  0
   -3.9230    3.0110    0.6440 O   0  0  0  0  0  0  0  0  0  0  0  0
   -2.5170    0.5820    0.2860 C   0  0  0  0  0  0  0  0  0  0  0  0
  1  2  1  0
  2  3  1  0
  2  4  1  0
  4  5  2  0
  4  6  1  0
  6  7  1  6
  6 24  1  0
  6 34  1  0
  7  8  1  0
  8  9  2  0
  8 10  1  0
 10 11  1  0
 11 12  2  0
 11 13  1  0
 13 14  2  0
 13 15  1  0
 15 16  1  0
 16 17  2  0
 16 23  1  0
 17 18  1  0
 18 19  2  0
 19 20  1  0
 19 23  1  0
 20 21  2  0
 20 22  1  0
 24 25  1  0
 25 26  1  0
 26 27  1  6
 26 28  1  0
 26 34  1  0
 28 29  1  0
 29 30  2  0
 29 33  1  0
 30 31  1  0
 31 32  1  0
 32 33  1  0
M  CHG  2  26   1  27  -1
M  END
