
     RDKit          3D

 34 37  0  0  0  0  0  0  0  0999 V2000
    2.4530   -4.0320    1.4420 C   0  0  0  0  0  0  0  0  0  0  0  0
    1.9800   -2.7400    1.2190 O   0  0  0  0  0  0  0  0  0  0  0  0
    1.0250   -2.4350    0.2800 C   0  0  0  0  0  0  0  0  0  0  0  0
    0.4480   -3.4120   -0.5140 C   0  0  0  0  0  0  0  0  0  0  0  0
   -0.5050   -3.0920   -1.4460 C   0  0  0  0  0  0  0  0  0  0  0  0
   -0.9120   -1.7960   -1.6200 C   0  0  0  0  0  0  0  0  0  0  0  0
   -1.8900   -1.5230   -2.6870 C   0  0  0  0  0  0  0  0  0  0  0  0
   -2.4100   -2.6180   -3.4150 N   0  0  0  0  0  0  0  0  0  0  0  0
   -2.2990   -0.3870   -3.0000 O   0  0  0  0  0  0  0  0  0  0  0  0
   -0.3640   -0.7890   -0.8470 C   0  0  0  0  0  0  0  0  0  0  0  0
   -0.7600    0.4830   -1.0110 O   0  0  0  0  0  0  0  0  0  0  0  0
   -1.7200    1.3000   -0.5100 C   0  0  0  0  0  0  0  0  0  0  0  0
   -2.9110    0.8590   -0.2030 C   0  0  0  0  0  0  0  0  0  0  0  0
   -4.0020    1.6840    0.3300 C   0  0  1  0  0  0  0  0  0  0  0  0
   -5.0710    1.7920   -0.6910 N   0  0  0  0  0  0  0  0  0  0  0  0
   -6.1190    1.3360   -0.2190 N   0  0  0  0  0  0  0  0  0  0  0  0
   -6.0140    0.8730    1.0640 O   0  0  0  0  0  0  0  0  0  0  0  0
   -4.7030    1.0660    1.4550 C   0  0  0  0  0  0  0  0  0  0  0  0
   -4.1970    0.7700    2.5630 O   0  0  0  0  0  0  0  0  0  0  0  0
   -3.6040    2.9910    0.5590 O   0  0  0  0  0  0  0  0  0  0  0  0
   -2.3790    3.4770    0.2290 C   0  0  0  0  0  0  0  0  0  0  0  0
   -2.1520    4.8680    0.4640 O   0  0  0  0  0  0  0  0  0  0  0  0
   -1.4210    2.7430   -0.2820 C   0  0  0  0  0  0  0  0  0  0  0  0
    0.6060   -1.1200    0.1000 C   0  0  0  0  0  0  0  0  0  0  0  0
    1.2900   -0.0430    0.8460 C   0  0  0  0  0  0  0  0  0  0  0  0
    0.7380    1.0550    1.0950 O   0  0  0  0  0  0  0  0  0  0  0  0
    2.6320   -0.1510    1.3340 N   0  0  0  0  0  0  0  0  0  0  0  0
    3.2210    0.9460    2.0130 N   0  0  0  0  0  0  0  0  0  0  0  0
    4.1110    1.7260    1.2530 C   0  0  0  0  0  0  0  0  0  0  0  0
    5.0240    3.1950    1.8000 S   0  0  0  0  0  0  0  0  0  0  0  0
    5.8630    3.4850    0.1350 C   0  0  0  0  0  0  0  0  0  0  0  0
    5.3350    2.4900   -0.4820 N   0  0  0  0  0  0  0  0  0  0  0  0
    4.5320    1.6510   -0.0340 N   0  0  0  0  0  0  0  0  0  0  0  0
    4.0050    0.5820   -0.8130 O   0  0  0  0  0  0  0  0  0  0  0  0
  1  2  1  0
  2  3  1  0
  3  4  2  0
  3 24  1  0
  4  5  1  0
  5  6  2  0
  6  7  1  0
  6 10  1  0
  7  8  1  0
  7  9  2  0
 10 11  1  0
 10 24  2  0
 11 12  1  0
 12 13  2  0
 12 23  1  0
 13 14  1  0
 14 15  1  0
 14 18  1  0
 14 20  1  1
 15 16  2  0
 16 17  1  0
 17 18  1  0
 18 19  2  0
 20 21  1  0
 21 22  1  0
 21 23  2  0
 24 25  1  0
 25 26  2  0
 25 27  1  0
 27 28  1  0
 28 29  1  0
 29 30  1  0
 29 33  2  0
 30 31  1  0
 31 32  2  0
 32 33  1  0
 33 34  1  0
M  CHG  2  33   1  34  -1
M  END
