
     RDKit          3D

 34 36  0  0  0  0  0  0  0  0999 V2000
  -10.1940   -0.8650    2.6210 C   0  0  0  0  0  0  0  0  0  0  0  0
   -8.9590   -1.2200    2.0690 O   0  0  0  0  0  0  0  0  0  0  0  0
   -8.1650   -0.3160    1.3950 C   0  0  0  0  0  0  0  0  0  0  0  0
   -8.5710    0.8630    1.2780 O   0  0  0  0  0  0  0  0  0  0  0  0
   -6.8760   -0.7270    0.8300 C   0  0  0  0  0  0  0  0  0  0  0  0
   -6.4740   -2.0320    0.9850 C   0  0  0  0  0  0  0  0  0  0  0  0
   -5.2650   -2.3670    0.4410 C   0  0  0  0  0  0  0  0  0  0  0  0
   -4.4700   -1.4560   -0.2350 N   0  0  0  0  0  0  0  0  0  0  0  0
   -3.2870   -1.9310   -0.7250 O   0  0  0  0  0  0  0  0  0  0  0  0
   -4.8320   -0.1990   -0.3960 C   0  0  0  0  0  0  0  0  0  0  0  0
   -4.1030    0.7950   -1.0610 N   0  0  0  0  0  0  0  0  0  0  0  0
   -2.8670    0.7380   -1.7010 C   0  0  0  0  0  0  0  0  0  0  0  0
   -2.2270   -0.3100   -1.7470 O   0  0  0  0  0  0  0  0  0  0  0  0
   -2.2670    1.8900   -2.3410 N   0  0  0  0  0  0  0  0  0  0  0  0
   -0.9960    1.8060   -2.9810 C   0  0  0  0  0  0  0  0  0  0  0  0
    0.1400    1.4580   -2.1090 C   0  0  0  0  0  0  0  0  0  0  0  0
    1.2710    1.3520   -2.6910 O   0  0  0  0  0  0  0  0  0  0  0  0
    0.1120    1.2370   -0.7330 N   0  0  0  0  0  0  0  0  0  0  0  0
    1.2980    0.8970    0.0280 C   0  0  0  0  0  0  0  0  0  0  0  0
    1.4640    0.6620    1.2760 N   0  0  0  0  0  0  0  0  0  0  0  0
    2.6200    0.3780    1.7340 N   0  0  0  0  0  0  0  0  0  0  0  0
    3.6540    0.2970    1.0900 C   0  0  0  0  0  0  0  0  0  0  0  0
    5.0270    0.0270    1.2210 N   0  0  0  0  0  0  0  0  0  0  0  0
    5.8950    0.0500    0.1200 C   0  0  0  0  0  0  0  0  0  0  0  0
    5.4090    0.3250   -1.0200 O   0  0  0  0  0  0  0  0  0  0  0  0
    7.3470   -0.2270    0.2130 C   0  0  0  0  0  0  0  0  0  0  0  0
    8.0460   -0.5290    1.2900 C   0  0  0  0  0  0  0  0  0  0  0  0
    7.5990   -0.6610    2.5880 O   0  0  0  0  0  0  0  0  0  0  0  0
    9.3960   -0.7150    0.9340 O   0  0  0  0  0  0  0  0  0  0  0  0
    9.3300   -1.0210   -0.4660 C   0  0  2  0  0  0  0  0  0  0  0  0
   10.5600   -0.4700   -1.1580 C   0  0  0  0  0  0  0  0  0  0  0  0
    8.2350   -0.2130   -0.8480 O   0  0  0  0  0  0  0  0  0  0  0  0
    2.9180    0.7090   -0.6070 S   0  0  0  0  0  0  0  0  0  0  0  0
   -6.0720    0.1540    0.1580 C   0  0  0  0  0  0  0  0  0  0  0  0
  1  2  1  0
  2  3  1  0
  3  4  2  0
  3  5  1  0
  5  6  2  0
  5 34  1  0
  6  7  1  0
  7  8  2  0
  8  9  1  0
  8 10  1  0
 10 11  1  0
 10 34  2  0
 11 12  1  0
 12 13  2  0
 12 14  1  0
 14 15  1  0
 15 16  1  0
 16 17  2  0
 16 18  1  0
 18 19  1  0
 19 20  2  0
 19 33  1  0
 20 21  1  0
 21 22  2  0
 22 23  1  0
 22 33  1  0
 23 24  1  0
 24 25  2  0
 24 26  1  0
 26 27  2  0
 26 32  1  0
 27 28  1  0
 27 29  1  0
 29 30  1  0
 30 31  1  6
 30 32  1  0
M  CHG  2   8   1   9  -1
M  END
