
     RDKit          3D

 34 36  0  0  0  0  0  0  0  0999 V2000
   -5.8390   -4.4900    1.7390 C   0  0  0  0  0  0  0  0  0  0  0  0
   -4.7680   -3.8780    0.9520 N   0  0  0  0  0  0  0  0  0  0  0  0
   -4.5970   -2.4730    0.8850 C   0  0  0  0  0  0  0  0  0  0  0  0
   -5.3690   -1.6990    1.5060 O   0  0  0  0  0  0  0  0  0  0  0  0
   -3.5320   -1.8990    0.1010 N   0  0  0  0  0  0  0  0  0  0  0  0
   -3.4180   -0.4980    0.0770 C   0  0  0  0  0  0  0  0  0  0  0  0
   -4.2790    0.3010    0.7670 N   0  0  0  0  0  0  0  0  0  0  0  0
   -4.1610    1.6370    0.7370 C   0  0  0  0  0  0  0  0  0  0  0  0
   -5.0560    2.4910    1.4560 N   0  0  0  0  0  0  0  0  0  0  0  0
   -4.9170    3.8840    1.4130 C   0  0  0  0  0  0  0  0  0  0  0  0
   -4.0060    4.4060    0.7440 O   0  0  0  0  0  0  0  0  0  0  0  0
   -3.2070    2.2240    0.0390 O   0  0  0  0  0  0  0  0  0  0  0  0
   -2.3680    1.5100   -0.6310 C   0  0  0  0  0  0  0  0  0  0  0  0
   -1.4720    2.1040   -1.2860 O   0  0  0  0  0  0  0  0  0  0  0  0
   -2.4370    0.1180   -0.6410 C   0  0  0  0  0  0  0  0  0  0  0  0
   -1.4750   -0.5930   -1.4040 N   0  0  0  0  0  0  0  0  0  0  0  0
   -0.4720    0.1450   -2.1340 C   0  0  0  0  0  0  0  0  0  0  0  0
    0.7210    0.4620   -1.6360 C   0  0  0  0  0  0  0  0  0  0  0  0
    1.2150    0.1310   -0.3060 C   0  0  0  0  0  0  0  0  0  0  0  0
    0.4510   -0.5210    0.4690 O   0  0  0  0  0  0  0  0  0  0  0  0
    2.4740    0.4980    0.1360 O   0  0  0  0  0  0  0  0  0  0  0  0
    2.9110    0.1560    1.4340 C   0  0  0  0  0  0  0  0  0  0  0  0
    4.2890    0.6210    1.7580 C   0  0  0  0  0  0  0  0  0  0  0  0
    5.3480    0.1100    0.9440 N   0  0  1  0  0  0  0  0  0  0  0  0
    5.8090   -1.0850    1.3930 O   0  0  0  0  0  0  0  0  0  0  0  0
    4.9590    0.0690   -0.4180 C   0  0  0  0  0  0  0  0  0  0  0  0
    6.1620   -0.3260   -1.2670 C   0  0  0  0  0  0  0  0  0  0  0  0
    7.4870    0.5270   -0.3340 S   0  0  0  0  0  0  0  0  0  0  0  0
    6.4610    1.0640    1.0810 C   0  0  0  0  0  0  0  0  0  0  0  0
    1.4530    1.2040   -2.6600 C   0  0  0  0  0  0  0  0  0  0  0  0
    2.6220    1.6780   -2.5700 O   0  0  0  0  0  0  0  0  0  0  0  0
    0.6240    1.3110   -3.8000 N   0  0  0  0  0  0  0  0  0  0  0  0
   -0.5920    0.6500   -3.4870 C   0  0  0  0  0  0  0  0  0  0  0  0
   -1.6050    0.5120   -4.2280 O   0  0  0  0  0  0  0  0  0  0  0  0
  1  2  1  0
  2  3  1  0
  3  4  2  0
  3  5  1  0
  5  6  1  0
  6  7  1  0
  6 15  2  0
  7  8  2  0
  8  9  1  0
  8 12  1  0
  9 10  1  0
 10 11  2  0
 12 13  1  0
 13 14  2  0
 13 15  1  0
 15 16  1  0
 16 17  1  0
 17 18  2  0
 17 33  1  0
 18 19  1  0
 18 30  1  0
 19 20  2  0
 19 21  1  0
 21 22  1  0
 22 23  1  0
 23 24  1  0
 24 25  1  1
 24 26  1  0
 24 29  1  0
 26 27  1  0
 27 28  1  0
 28 29  1  0
 30 31  2  0
 30 32  1  0
 32 33  1  0
 33 34  2  0
M  CHG  2  24   1  25  -1
M  END
