
     RDKit          3D

 31 33  0  0  0  0  0  0  0  0999 V2000
   -5.0120    2.0750   -1.8310 C   0  0  0  0  0  0  0  0  0  0  0  0
   -4.9650    0.5040   -1.6380 C   0  0  1  0  0  0  0  0  0  0  0  0
   -3.5260    0.2480   -1.5610 C   0  0  0  0  0  0  0  0  0  0  0  0
   -2.6850   -0.0200   -2.4780 O   0  0  0  0  0  0  0  0  0  0  0  0
   -3.2330    0.3600   -0.1410 N   0  0  0  0  0  0  0  0  0  0  0  0
   -2.1450    0.3490    0.8370 C   0  0  0  0  0  0  0  0  0  0  0  0
   -0.7920   -0.0560    0.3580 C   0  0  0  0  0  0  0  0  0  0  0  0
   -0.4500    0.1820   -0.8500 O   0  0  0  0  0  0  0  0  0  0  0  0
    0.0980   -0.7200    1.1490 N   0  0  0  0  0  0  0  0  0  0  0  0
    1.3580   -1.1530    0.7010 C   0  0  0  0  0  0  0  0  0  0  0  0
    2.6100   -0.9060    1.6130 C   0  0  0  0  0  0  0  0  0  0  0  0
    3.5660   -1.4960    0.8440 O   0  0  0  0  0  0  0  0  0  0  0  0
    4.7300   -0.5790    0.1700 P   0  0  0  0  0  0  0  0  0  0  0  0
    6.0450    0.0500    0.9160 O   0  0  0  0  0  0  0  0  0  0  0  0
    5.0480   -1.2050   -1.5740 C   0  0  1  0  0  0  0  0  0  0  0  0
    3.7430   -1.4530   -2.2880 C   0  0  0  0  0  0  0  0  0  0  0  0
    3.2560   -0.2060   -2.9220 C   0  0  0  0  0  0  0  0  0  0  0  0
    4.2380    0.9480   -2.8410 C   0  0  0  0  0  0  0  0  0  0  0  0
    5.5300    0.5730   -3.1500 O   0  0  0  0  0  0  0  0  0  0  0  0
    6.0090   -0.4690   -2.3640 C   0  0  0  0  0  0  0  0  0  0  0  0
   -2.6050    0.3580    2.0440 C   0  0  0  0  0  0  0  0  0  0  0  0
   -1.8860    0.3880    3.3570 C   0  0  0  0  0  0  0  0  0  0  0  0
   -0.4470    0.7040    3.3600 N   0  0  0  0  0  0  0  0  0  0  0  0
   -2.3820    0.1890    4.4220 O   0  0  0  0  0  0  0  0  0  0  0  0
   -4.0180    0.3630    1.9450 N   0  0  0  0  0  0  0  0  0  0  0  0
   -5.0300    0.3110    2.9720 C   0  0  0  0  0  0  0  0  0  0  0  0
   -6.2360    0.4370    2.6560 O   0  0  0  0  0  0  0  0  0  0  0  0
   -4.7630    0.1010    4.3080 O   0  0  0  0  0  0  0  0  0  0  0  0
   -4.4360    0.3800    0.5710 C   0  0  0  0  0  0  0  0  0  0  0  0
   -5.4720    0.2610   -0.2790 C   0  0  0  0  0  0  0  0  0  0  0  0
   -6.7480   -0.0500    0.0420 O   0  0  0  0  0  0  0  0  0  0  0  0
  2  1  1  1
  2  3  1  0
  2 30  1  0
  3  4  2  0
  3  5  1  0
  5  6  1  0
  5 29  1  0
  6  7  1  0
  6 21  2  0
  7  8  2  0
  7  9  1  0
  9 10  1  0
 10 11  1  0
 11 12  1  0
 12 13  1  0
 13 14  1  0
 15 13  1  1
 15 16  1  0
 15 20  1  0
 16 17  1  0
 17 18  1  0
 18 19  1  0
 19 20  1  0
 21 22  1  0
 21 25  1  0
 22 23  1  0
 22 24  2  0
 25 26  1  0
 25 29  1  0
 26 27  2  0
 26 28  1  0
 29 30  2  0
 30 31  1  0
M  END
