
     RDKit          3D

 31 33  0  0  0  0  0  0  0  0999 V2000
   -3.1210   -0.7750    3.0910 C   0  0  0  0  0  0  0  0  0  0  0  0
   -4.1260   -0.4570    2.1200 C   0  0  0  0  0  0  0  0  0  0  0  0
   -3.8650   -0.0150    0.8590 C   0  0  0  0  0  0  0  0  0  0  0  0
   -2.4840    0.1210    0.5390 C   0  0  0  0  0  0  0  0  0  0  0  0
   -1.6330   -0.1870    1.4770 O   0  0  0  0  0  0  0  0  0  0  0  0
   -1.8820    0.5450   -0.6580 N   0  0  0  0  0  0  0  0  0  0  0  0
   -0.5000    0.6410   -0.8580 C   0  0  0  0  0  0  0  0  0  0  0  0
    0.5330    0.4080   -0.1180 C   0  0  0  0  0  0  0  0  0  0  0  0
    0.6600   -0.0380    1.1850 O   0  0  0  0  0  0  0  0  0  0  0  0
    2.0240   -0.3050    1.5350 C   0  0  0  0  0  0  0  0  0  0  0  0
    2.7100   -0.4510    0.1860 C   0  0  2  0  0  0  0  0  0  0  0  0
    4.1320   -0.2590    0.1340 C   0  0  0  0  0  0  0  0  0  0  0  0
    4.8270   -0.8190    1.0700 O   0  0  0  0  0  0  0  0  0  0  0  0
    4.7840    0.4970   -0.8710 N   0  0  0  0  0  0  0  0  0  0  0  0
    6.2150    0.4200   -1.0220 C   0  0  1  0  0  0  0  0  0  0  0  0
    6.9410    0.8050    0.1740 C   0  0  0  0  0  0  0  0  0  0  0  0
    7.7310   -0.1450    0.5110 N   0  0  0  0  0  0  0  0  0  0  0  0
    7.6620   -1.2390   -0.3500 N   0  0  0  0  0  0  0  0  0  0  0  0
    6.7040   -0.9200   -1.3450 C   0  0  0  0  0  0  0  0  0  0  0  0
    6.3870   -1.7000   -2.2980 O   0  0  0  0  0  0  0  0  0  0  0  0
    4.0010    1.3220   -1.7200 C   0  0  0  0  0  0  0  0  0  0  0  0
    4.4750    2.0300   -2.6250 O   0  0  0  0  0  0  0  0  0  0  0  0
    2.5520    1.3120   -1.4840 C   0  0  0  0  0  0  0  0  0  0  0  0
    1.9640    0.5970   -0.5810 C   0  0  0  0  0  0  0  0  0  0  0  0
   -5.0300    0.2350    0.0870 C   0  0  0  0  0  0  0  0  0  0  0  0
   -5.2690    0.6410   -1.0940 C   0  0  0  0  0  0  0  0  0  0  0  0
   -4.5940    1.0320   -2.1910 O   0  0  0  0  0  0  0  0  0  0  0  0
   -6.2660   -0.0550    0.8700 O   0  0  0  0  0  0  0  0  0  0  0  0
   -7.5500   -0.8100   -0.0220 P   0  0  0  0  0  0  0  0  0  0  0  0
   -8.7050    0.3960   -0.5320 O   0  0  0  0  0  0  0  0  0  0  0  0
   -6.9020   -1.6640   -1.3720 O   0  0  0  0  0  0  0  0  0  0  0  0
  1  2  1  0
  2  3  2  3
  3  4  1  0
  3 25  1  0
  4  5  2  0
  4  6  1  0
  6  7  1  0
  7  8  2  3
  8  9  1  0
  8 24  1  0
  9 10  1  0
 11 10  1  1
 11 12  1  0
 11 24  1  0
 12 13  2  0
 12 14  1  0
 15 14  1  1
 14 21  1  0
 15 16  1  0
 15 19  1  0
 16 17  2  0
 17 18  1  0
 18 19  1  0
 19 20  2  0
 21 22  2  0
 21 23  1  0
 23 24  2  0
 25 26  2  3
 25 28  1  0
 26 27  1  0
 28 29  1  0
 29 30  1  0
 29 31  1  0
M  END
