
     RDKit          3D

 30 32  0  0  0  0  0  0  0  0999 V2000
   -5.1710   -4.7780    0.8020 O   0  0  0  0  0  0  0  0  0  0  0  0
   -5.3440   -3.5450    0.9780 C   0  0  0  0  0  0  0  0  0  0  0  0
   -6.5920   -3.1260    1.4130 O   0  0  0  0  0  0  0  0  0  0  0  0
   -4.2600   -2.6660    0.7220 N   0  0  0  0  0  0  0  0  0  0  0  0
   -3.0360   -3.0210    0.7880 C   0  0  0  0  0  0  0  0  0  0  0  0
   -2.6000   -4.2900    1.1130 O   0  0  0  0  0  0  0  0  0  0  0  0
   -1.4380   -4.9250    0.6890 C   0  0  0  0  0  0  0  0  0  0  0  0
   -0.4610   -3.9750    0.0810 C   0  0  0  0  0  0  0  0  0  0  0  0
   -0.6650   -2.6360    0.6340 N   0  0  0  0  0  0  0  0  0  0  0  0
   -1.9400   -2.0260    0.5020 C   0  0  0  0  0  0  0  0  0  0  0  0
   -2.1950   -0.8110    0.1710 C   0  0  0  0  0  0  0  0  0  0  0  0
   -1.4440    0.3560   -0.1590 C   0  0  0  0  0  0  0  0  0  0  0  0
   -2.1890    1.4190   -0.4810 N   0  0  0  0  0  0  0  0  0  0  0  0
   -1.5100    2.5580   -0.8030 O   0  0  0  0  0  0  0  0  0  0  0  0
   -2.1550    3.8060   -0.9490 C   0  0  0  0  0  0  0  0  0  0  0  0
   -1.1760    4.8960   -1.3040 C   0  0  2  0  0  0  0  0  0  0  0  0
   -0.0500    5.2560   -0.4390 C   0  0  0  0  0  0  0  0  0  0  0  0
   -1.2950    6.1260   -0.4250 C   0  0  0  0  0  0  0  0  0  0  0  0
    0.0100    0.4940   -0.1270 C   0  0  1  0  0  0  0  0  0  0  0  0
    0.6170    0.4880    1.2550 C   0  0  0  0  0  0  0  0  0  0  0  0
    1.8340   -0.0890    1.2360 O   0  0  0  0  0  0  0  0  0  0  0  0
    2.8400    0.5650    0.5870 C   0  0  0  0  0  0  0  0  0  0  0  0
    3.0950    0.0910   -0.8150 C   0  0  1  0  0  0  0  0  0  0  0  0
    4.2520   -0.8840   -0.7490 C   0  0  0  0  0  0  0  0  0  0  0  0
    5.7870   -0.1470   -0.0870 P   0  0  0  0  0  0  0  0  0  0  0  0
    6.0060   -0.3610    1.5970 O   0  0  0  0  0  0  0  0  0  0  0  0
    6.1110    1.4350   -0.6450 O   0  0  0  0  0  0  0  0  0  0  0  0
    1.9390   -0.7140   -1.3270 C   0  0  0  0  0  0  0  0  0  0  0  0
    2.2490   -1.6700   -2.0880 O   0  0  0  0  0  0  0  0  0  0  0  0
    0.5950   -0.4770   -1.0210 N   0  0  0  0  0  0  0  0  0  0  0  0
  1  2  2  0
  2  3  1  0
  2  4  1  0
  4  5  2  3
  5  6  1  0
  5 10  1  0
  6  7  1  0
  7  8  1  0
  8  9  1  0
  9 10  1  0
 10 11  2  3
 11 12  1  0
 12 13  2  3
 19 12  1  1
 13 14  1  0
 14 15  1  0
 16 15  1  1
 16 17  1  0
 16 18  1  0
 17 18  1  0
 19 20  1  0
 19 30  1  0
 20 21  1  0
 21 22  1  0
 22 23  1  0
 23 24  1  1
 23 28  1  0
 24 25  1  0
 25 26  1  0
 25 27  1  0
 28 29  2  0
 28 30  1  0
M  END
