
     RDKit          3D

 31 33  0  0  0  0  0  0  0  0999 V2000
    2.4880    1.7750    1.7590 O   0  0  0  0  0  0  0  0  0  0  0  0
    1.6820    1.2330    0.8870 C   0  0  0  0  0  0  0  0  0  0  0  0
    0.3360    1.5660    1.0440 N   0  0  0  0  0  0  0  0  0  0  0  0
   -0.1130    2.4620    2.1140 C   0  0  0  0  0  0  0  0  0  0  0  0
    0.4900    3.8180    2.0220 C   0  0  0  0  0  0  0  0  0  0  0  0
   -0.0110    4.5950    3.0940 O   0  0  0  0  0  0  0  0  0  0  0  0
    2.3010    0.3890   -0.0870 C   0  0  0  0  0  0  0  0  0  0  0  0
    1.6600   -0.2310   -1.0370 C   0  0  0  0  0  0  0  0  0  0  0  0
    0.2550   -0.0930   -1.1570 N   0  0  0  0  0  0  0  0  0  0  0  0
   -0.4070   -1.1830   -1.3320 C   0  0  0  0  0  0  0  0  0  0  0  0
    0.1490   -2.4040   -1.4020 N   0  0  0  0  0  0  0  0  0  0  0  0
   -0.5530   -3.5360   -1.5860 C   0  0  0  0  0  0  0  0  0  0  0  0
   -1.8780   -3.4510   -1.7070 N   0  0  0  0  0  0  0  0  0  0  0  0
   -2.4860   -2.2490   -1.6450 C   0  0  0  0  0  0  0  0  0  0  0  0
   -1.7830   -1.0830   -1.4560 C   0  0  0  0  0  0  0  0  0  0  0  0
   -2.3630    0.2440   -1.4370 C   0  0  0  0  0  0  0  0  0  0  0  0
   -1.7720    1.1790   -2.0690 O   0  0  0  0  0  0  0  0  0  0  0  0
   -3.5880    0.5380   -0.7220 C   0  0  0  0  0  0  0  0  0  0  0  0
   -4.2850   -0.2750    0.0150 C   0  0  0  0  0  0  0  0  0  0  0  0
   -5.5590    0.0890    0.7330 C   0  0  0  0  0  0  0  0  0  0  0  0
   -5.9230    1.4200    0.5310 O   0  0  0  0  0  0  0  0  0  0  0  0
   -5.2250    2.3180   -0.2360 C   0  0  0  0  0  0  0  0  0  0  0  0
   -4.1220    1.9160   -0.8320 C   0  0  0  0  0  0  0  0  0  0  0  0
    2.3230   -1.0650   -1.9890 O   0  0  0  0  0  0  0  0  0  0  0  0
    3.7280   -0.9560   -2.0580 C   0  0  0  0  0  0  0  0  0  0  0  0
    4.2120   -0.9800   -0.6210 C   0  0  1  0  0  0  0  0  0  0  0  0
    5.5740   -1.0780   -0.5430 O   0  0  0  0  0  0  0  0  0  0  0  0
    6.1170   -2.5010    0.2730 P   0  0  0  0  0  0  0  0  0  0  0  0
    6.7340   -2.0100    1.8330 O   0  0  0  0  0  0  0  0  0  0  0  0
    4.8390   -3.6650    0.4620 O   0  0  0  0  0  0  0  0  0  0  0  0
    3.7130    0.2040   -0.0270 O   0  0  0  0  0  0  0  0  0  0  0  0
  1  2  2  0
  2  3  1  0
  2  7  1  0
  3  4  1  0
  4  5  1  0
  5  6  1  0
  7  8  2  0
  7 31  1  0
  8  9  1  0
  8 24  1  0
  9 10  2  3
 10 11  1  0
 10 15  1  0
 11 12  2  0
 12 13  1  0
 13 14  1  0
 14 15  2  0
 15 16  1  0
 16 17  2  0
 16 18  1  0
 18 19  2  0
 18 23  1  0
 19 20  1  0
 20 21  1  0
 21 22  1  0
 22 23  2  0
 24 25  1  0
 25 26  1  0
 26 27  1  6
 26 31  1  0
 27 28  1  0
 28 29  1  0
 28 30  1  0
M  END
