
     RDKit          3D

 31 32  0  0  0  0  0  0  0  0999 V2000
    5.9650   -0.5030   -3.2260 C   0  0  0  0  0  0  0  0  0  0  0  0
    6.3420   -1.3220   -2.1050 C   0  0  0  0  0  0  0  0  0  0  0  0
    5.9790   -1.2800   -0.8430 C   0  0  0  0  0  0  0  0  0  0  0  0
    6.7170   -2.3770   -0.0750 C   0  0  0  0  0  0  0  0  0  0  0  0
    6.7590   -2.4870    1.2430 C   0  0  0  0  0  0  0  0  0  0  0  0
    6.1570   -1.5600    2.0270 O   0  0  0  0  0  0  0  0  0  0  0  0
    7.3780   -0.1870    2.3840 P   0  0  0  0  0  0  0  0  0  0  0  0
    8.4370   -0.8400    3.5540 O   0  0  0  0  0  0  0  0  0  0  0  0
    8.0860    0.2160    0.8890 O   0  0  0  0  0  0  0  0  0  0  0  0
    4.8740   -0.7870   -0.1790 C   0  0  0  0  0  0  0  0  0  0  0  0
    4.5790   -0.7350    0.9670 O   0  0  0  0  0  0  0  0  0  0  0  0
    3.5800   -0.1420   -1.1170 N   0  0  0  0  0  0  0  0  0  0  0  0
    2.6230   -0.2040   -0.0380 C   0  0  0  0  0  0  0  0  0  0  0  0
    2.6520   -0.4120    1.1230 O   0  0  0  0  0  0  0  0  0  0  0  0
    1.4170    0.0450   -0.8550 N   0  0  0  0  0  0  0  0  0  0  0  0
    0.3070   -0.5340    0.3330 C   0  0  0  0  0  0  0  0  0  0  0  0
    0.7770   -0.8690    1.3380 O   0  0  0  0  0  0  0  0  0  0  0  0
   -1.0250   -0.5090   -0.1350 C   0  0  0  0  0  0  0  0  0  0  0  0
   -1.5020   -0.2320   -1.2700 O   0  0  0  0  0  0  0  0  0  0  0  0
   -1.9430   -0.8540    0.8780 O   0  0  0  0  0  0  0  0  0  0  0  0
   -3.3070   -0.9060    0.8000 C   0  0  0  0  0  0  0  0  0  0  0  0
   -3.8080    0.5060    0.5050 C   0  0  0  0  0  0  0  0  0  0  0  0
   -5.2100    0.4880    0.4430 N   0  0  0  0  0  0  0  0  0  0  0  0
   -6.0050    0.7980    1.6500 C   0  0  0  0  0  0  0  0  0  0  0  0
   -7.0690    1.8000    1.1280 C   0  0  1  0  0  0  0  0  0  0  0  0
   -6.3250    2.7670    0.2640 C   0  0  0  0  0  0  0  0  0  0  0  0
   -6.7900    2.4840   -1.1580 C   0  0  0  0  0  0  0  0  0  0  0  0
   -7.1640    0.9940   -0.9960 C   0  0  2  0  0  0  0  0  0  0  0  0
   -7.9320    1.0270    0.2450 N   0  0  0  0  0  0  0  0  0  0  0  0
   -5.9500    0.2020   -0.7910 C   0  0  0  0  0  0  0  0  0  0  0  0
   -5.4940   -0.6310   -1.5210 O   0  0  0  0  0  0  0  0  0  0  0  0
  1  2  1  0
  2  3  2  3
  3  4  1  0
  3 10  1  0
  4  5  2  3
  5  6  1  0
  6  7  1  0
  7  8  1  0
  7  9  1  0
 10 11  2  0
 10 12  1  0
 12 13  1  0
 13 14  2  0
 13 15  1  0
 15 16  1  0
 16 17  2  0
 16 18  1  0
 18 19  2  0
 18 20  1  0
 20 21  1  0
 21 22  1  0
 22 23  1  0
 23 24  1  0
 23 30  1  0
 25 24  1  6
 25 26  1  0
 25 29  1  0
 26 27  1  0
 28 27  1  1
 28 29  1  0
 28 30  1  0
 30 31  2  0
M  END
