
     RDKit          3D

 30 32  0  0  0  0  0  0  0  0999 V2000
   -0.7460    1.1100    3.7570 O   0  0  0  0  0  0  0  0  0  0  0  0
   -1.7010    1.1590    2.9500 C   0  0  0  0  0  0  0  0  0  0  0  0
   -2.6020    0.0650    2.7930 N   0  0  0  0  0  0  0  0  0  0  0  0
   -3.3330    0.0450    1.5570 C   0  0  0  0  0  0  0  0  0  0  0  0
   -4.5260   -0.3370    1.5070 O   0  0  0  0  0  0  0  0  0  0  0  0
   -2.5510    0.5170    0.3560 C   0  0  2  0  0  0  0  0  0  0  0  0
   -1.3350   -0.3470    0.1440 C   0  0  0  0  0  0  0  0  0  0  0  0
   -0.2610    0.1960    0.5730 O   0  0  0  0  0  0  0  0  0  0  0  0
   -1.3610   -1.6130   -0.4590 N   0  0  0  0  0  0  0  0  0  0  0  0
   -2.6120   -2.1550   -0.9280 C   0  0  0  0  0  0  0  0  0  0  0  0
   -2.7700   -3.5230   -0.3010 C   0  0  0  0  0  0  0  0  0  0  0  0
   -1.6320   -4.2710   -0.2600 O   0  0  0  0  0  0  0  0  0  0  0  0
   -0.4980   -3.6790    0.2290 C   0  0  0  0  0  0  0  0  0  0  0  0
   -0.2150   -2.4460   -0.6290 C   0  0  1  0  0  0  0  0  0  0  0  0
   -0.0870   -3.0190   -2.0410 C   0  0  0  0  0  0  0  0  0  0  0  0
   -1.1180   -3.8230   -2.4370 O   0  0  0  0  0  0  0  0  0  0  0  0
    1.1120   -1.8390   -0.3280 C   0  0  0  0  0  0  0  0  0  0  0  0
    1.4590   -0.7160   -1.1220 N   0  0  0  0  0  0  0  0  0  0  0  0
    2.7250   -0.1350   -0.8460 C   0  0  0  0  0  0  0  0  0  0  0  0
    3.0540    1.0530   -1.6940 C   0  0  0  0  0  0  0  0  0  0  0  0
    4.3760    1.6660   -1.4160 C   0  0  0  0  0  0  0  0  0  0  0  0
    4.5740    2.2730    0.3060 P   0  0  0  0  0  0  0  0  0  0  0  0
    6.2010    2.9100    0.4560 O   0  0  0  0  0  0  0  0  0  0  0  0
    3.4540    3.5620    0.5810 O   0  0  0  0  0  0  0  0  0  0  0  0
   -2.1330    1.8810    0.7170 N   0  0  0  0  0  0  0  0  0  0  0  0
   -1.7840    2.9990   -0.0860 C   0  0  0  0  0  0  0  0  0  0  0  0
   -2.0030    3.1350   -1.3210 O   0  0  0  0  0  0  0  0  0  0  0  0
   -1.1040    4.0300    0.7330 C   0  0  0  0  0  0  0  0  0  0  0  0
   -0.8620    3.3130    2.0340 C   0  0  0  0  0  0  0  0  0  0  0  0
   -1.9970    2.3300    2.0880 C   0  0  2  0  0  0  0  0  0  0  0  0
  1  2  2  0
  2  3  1  0
  2 30  1  0
  3  4  1  0
  4  5  2  0
  4  6  1  0
  6  7  1  1
  6 25  1  0
  7  8  2  0
  7  9  1  0
  9 10  1  0
  9 14  1  0
 10 11  1  0
 11 12  1  0
 12 13  1  0
 13 14  1  0
 14 15  1  6
 14 17  1  0
 15 16  1  0
 17 18  1  0
 18 19  1  0
 19 20  1  0
 20 21  1  0
 21 22  1  0
 22 23  1  0
 22 24  1  0
 25 26  1  0
 25 30  1  0
 26 27  2  0
 26 28  1  0
 28 29  1  0
 30 29  1  6
M  END
