
     RDKit          3D

 27 29  0  0  0  0  0  0  0  0999 V2000
   -0.0910    5.3600    1.4640 C   0  0  0  0  0  0  0  0  0  0  0  0
   -0.3450    4.0470    1.8260 O   0  0  0  0  0  0  0  0  0  0  0  0
   -0.5170    3.3070    0.6600 C   0  0  0  0  0  0  0  0  0  0  0  0
   -0.8040    1.8400    0.9580 C   0  0  0  0  0  0  0  0  0  0  0  0
   -0.9670    1.1330   -0.2720 N   0  0  0  0  0  0  0  0  0  0  0  0
   -2.3670    1.1230   -0.7970 C   0  0  0  0  0  0  0  0  0  0  0  0
   -3.0860   -0.0570   -0.2550 C   0  0  0  0  0  0  0  0  0  0  0  0
   -2.4850   -0.9640    0.6000 C   0  0  0  0  0  0  0  0  0  0  0  0
   -3.1540   -2.0620    1.1030 C   0  0  0  0  0  0  0  0  0  0  0  0
   -2.4320   -3.0010    2.0270 C   0  0  0  0  0  0  0  0  0  0  0  0
   -4.4490   -2.2780    0.7600 C   0  0  0  0  0  0  0  0  0  0  0  0
   -5.0920   -1.3950   -0.0930 C   0  0  0  0  0  0  0  0  0  0  0  0
   -6.5020   -1.6680   -0.4400 C   0  0  0  0  0  0  0  0  0  0  0  0
   -4.4030   -0.2980   -0.5890 C   0  0  0  0  0  0  0  0  0  0  0  0
   -5.0870    0.5510   -1.4360 O   0  0  0  0  0  0  0  0  0  0  0  0
   -0.0290    0.4620   -1.0430 C   0  0  0  0  0  0  0  0  0  0  0  0
   -0.5340   -0.0590   -2.1440 O   0  0  0  0  0  0  0  0  0  0  0  0
    1.3970    0.2400   -0.8420 C   0  0  0  0  0  0  0  0  0  0  0  0
    2.0900   -0.4500   -1.7600 C   0  0  0  0  0  0  0  0  0  0  0  0
    3.4670   -0.6560   -1.5640 N   0  0  0  0  0  0  0  0  0  0  0  0
    4.0990   -0.2090   -0.5540 C   0  0  0  0  0  0  0  0  0  0  0  0
    5.5310   -0.5000   -0.4660 N   0  0  0  0  0  0  0  0  0  0  0  0
    6.0780   -1.6020   -1.2280 C   0  0  2  0  0  0  0  0  0  0  0  0
    5.4430   -2.9520   -0.8530 C   0  0  0  0  0  0  0  0  0  0  0  0
    6.8920   -2.6420   -0.5710 C   0  0  0  0  0  0  0  0  0  0  0  0
    3.4930    0.5770    0.4210 N   0  0  0  0  0  0  0  0  0  0  0  0
    2.0880    0.6800    0.3550 C   0  0  0  0  0  0  0  0  0  0  0  0
  1  2  1  0
  2  3  1  0
  3  4  1  0
  4  5  1  0
  5  6  1  0
  5 16  1  0
  6  7  1  0
  7  8  2  0
  7 14  1  0
  8  9  1  0
  9 10  1  0
  9 11  2  0
 11 12  1  0
 12 13  1  0
 12 14  2  0
 14 15  1  0
 16 17  2  0
 16 18  1  0
 18 19  2  0
 18 27  1  0
 19 20  1  0
 20 21  2  0
 21 22  1  0
 21 26  1  0
 23 22  1  1
 23 24  1  0
 23 25  1  0
 24 25  1  0
 26 27  1  0
M  CHG  1  26   1
M  END
