
     RDKit          3D

 27 29  0  0  0  0  0  0  0  0999 V2000
   -3.7500   -0.5920    1.6500 C   0  0  0  0  0  0  0  0  0  0  0  0
   -3.4240    0.2330    0.4650 C   0  0  0  0  0  0  0  0  0  0  0  0
   -2.2140    0.0290   -0.1650 C   0  0  0  0  0  0  0  0  0  0  0  0
   -1.3260   -0.9350    0.3020 O   0  0  0  0  0  0  0  0  0  0  0  0
   -0.0750   -1.1130   -0.3880 C   0  0  0  0  0  0  0  0  0  0  0  0
    0.7210   -2.1650    0.2430 C   0  0  0  0  0  0  0  0  0  0  0  0
    0.2240   -2.7140    1.2750 O   0  0  0  0  0  0  0  0  0  0  0  0
    1.9790   -2.5550   -0.2680 N   0  0  0  0  0  0  0  0  0  0  0  0
    2.6660   -3.6300    0.4370 C   0  0  0  0  0  0  0  0  0  0  0  0
    2.5200   -1.9600   -1.4350 C   0  0  0  0  0  0  0  0  0  0  0  0
    3.3360   -0.7380   -1.3020 C   0  0  0  0  0  0  0  0  0  0  0  0
    4.5710   -0.7600   -0.4840 C   0  0  2  0  0  0  0  0  0  0  0  0
    4.4220   -1.0600    0.9710 C   0  0  0  0  0  0  0  0  0  0  0  0
    5.1320   -0.0550    1.8630 C   0  0  0  0  0  0  0  0  0  0  0  0
    4.6410    1.2900    1.6400 N   0  0  0  0  0  0  0  0  0  0  0  0
    4.5540    1.5830    0.2220 C   0  0  0  0  0  0  0  0  0  0  0  0
    5.2900    0.5910   -0.6120 C   0  0  0  0  0  0  0  0  0  0  0  0
   -1.9330    0.8150   -1.2630 C   0  0  0  0  0  0  0  0  0  0  0  0
   -2.8340    1.7630   -1.7020 C   0  0  0  0  0  0  0  0  0  0  0  0
   -4.0560    1.9750   -1.0720 C   0  0  0  0  0  0  0  0  0  0  0  0
   -4.3400    1.1910    0.0250 C   0  0  0  0  0  0  0  0  0  0  0  0
   -5.6280    1.3440    0.7610 C   0  0  2  0  0  0  0  0  0  0  0  0
   -6.1820    0.0670    1.1790 N   0  0  0  0  0  0  0  0  0  0  0  0
   -6.6800    1.9840   -0.1200 C   0  0  0  0  0  0  0  0  0  0  0  0
   -6.1710    3.1510   -0.8800 C   0  0  0  0  0  0  0  0  0  0  0  0
   -6.7610    4.2590   -0.9400 O   0  0  0  0  0  0  0  0  0  0  0  0
   -4.9410    2.9750   -1.5700 N   0  0  0  0  0  0  0  0  0  0  0  0
  1  2  1  0
  2  3  2  0
  2 21  1  0
  3  4  1  0
  3 18  1  0
  4  5  1  0
  5  6  1  0
  6  7  2  0
  6  8  1  0
  8  9  1  0
  8 10  1  0
 10 11  1  0
 12 11  1  1
 12 13  1  0
 12 17  1  0
 13 14  1  0
 14 15  1  0
 15 16  1  0
 16 17  1  0
 18 19  2  0
 19 20  1  0
 20 21  2  0
 20 27  1  0
 21 22  1  0
 22 23  1  6
 22 24  1  0
 24 25  1  0
 25 26  2  0
 25 27  1  0
M  CHG  1  15   1
M  END
