
     RDKit          3D

 27 28  0  0  0  0  0  0  0  0999 V2000
    8.2540   -1.4960    0.2890 C   0  0  0  0  0  0  0  0  0  0  0  0
    7.1570   -1.4510   -0.4040 C   0  0  0  0  0  0  0  0  0  0  0  0
    7.1690   -2.1540   -1.6100 C   0  0  0  0  0  0  0  0  0  0  0  0
    6.0880   -2.1950   -2.4210 C   0  0  0  0  0  0  0  0  0  0  0  0
    4.9600   -1.5130   -2.0120 C   0  0  0  0  0  0  0  0  0  0  0  0
    4.9140   -0.8110   -0.8330 C   0  0  0  0  0  0  0  0  0  0  0  0
    3.7030   -0.2230   -0.4620 N   0  0  0  0  0  0  0  0  0  0  0  0
    2.6060    0.0560   -1.3180 C   0  0  0  0  0  0  0  0  0  0  0  0
    2.6170   -0.1830   -2.5160 O   0  0  0  0  0  0  0  0  0  0  0  0
    1.4030    0.6510   -0.7850 N   0  0  0  0  0  0  0  0  0  0  0  0
    0.2950    0.9270   -1.6750 C   0  0  0  0  0  0  0  0  0  0  0  0
   -0.8170    1.5330   -0.8940 C   0  0  1  0  0  0  0  0  0  0  0  0
   -1.3470    0.5390    0.1510 C   0  0  0  0  0  0  0  0  0  0  0  0
   -2.5930    1.0710    0.5740 N   0  0  0  0  0  0  0  0  0  0  0  0
   -3.7620    0.4470    0.0920 C   0  0  0  0  0  0  0  0  0  0  0  0
   -4.9800    1.1530    0.6530 C   0  0  0  0  0  0  0  0  0  0  0  0
   -6.2200    0.6000    0.2260 N   0  0  0  0  0  0  0  0  0  0  0  0
   -6.5390   -0.7160    0.6240 C   0  0  2  0  0  0  0  0  0  0  0  0
   -5.8380   -1.2770    1.8010 C   0  0  0  0  0  0  0  0  0  0  0  0
   -6.3870   -1.6490   -0.5760 C   0  0  0  0  0  0  0  0  0  0  0  0
   -6.6930   -2.9600   -0.2260 O   0  0  0  0  0  0  0  0  0  0  0  0
   -2.6340    2.4730    0.7740 C   0  0  0  0  0  0  0  0  0  0  0  0
   -1.2200    2.9970    0.8530 C   0  0  0  0  0  0  0  0  0  0  0  0
   -0.4700    2.7170   -0.2740 O   0  0  0  0  0  0  0  0  0  0  0  0
    6.0390   -0.7640    0.0140 C   0  0  0  0  0  0  0  0  0  0  0  0
    5.9450   -0.0570    1.0920 C   0  0  0  0  0  0  0  0  0  0  0  0
    6.9020    0.2470    2.1740 C   0  0  0  0  0  0  0  0  0  0  0  0
  1  2  2  0
  2  3  1  0
  2 25  1  0
  3  4  2  0
  4  5  1  0
  5  6  2  0
  6  7  1  0
  6 25  1  0
  7  8  1  0
  8  9  2  0
  8 10  1  0
 10 11  1  0
 12 11  1  1
 12 13  1  0
 12 24  1  0
 13 14  1  0
 14 15  1  0
 14 22  1  0
 15 16  1  0
 16 17  1  0
 17 18  1  0
 18 19  1  1
 18 20  1  0
 20 21  1  0
 22 23  1  0
 23 24  1  0
 25 26  2  3
 26 27  1  0
M  CHG  1  17   1
M  END
