
     RDKit          3D

 27 29  0  0  0  0  0  0  0  0999 V2000
   -4.6660   -0.3450   -2.7520 C   0  0  0  0  0  0  0  0  0  0  0  0
   -3.9310    0.7080   -1.9880 C   0  0  0  0  0  0  0  0  0  0  0  0
   -3.8100    0.4820   -0.5350 C   0  0  0  0  0  0  0  0  0  0  0  0
   -3.0770   -0.7640   -0.1010 C   0  0  2  0  0  0  0  0  0  0  0  0
   -1.7600   -0.6790   -0.6650 N   0  0  0  0  0  0  0  0  0  0  0  0
   -0.6730   -1.1540    0.0870 C   0  0  0  0  0  0  0  0  0  0  0  0
   -0.0650   -0.0350    0.8830 C   0  0  0  0  0  0  0  0  0  0  0  0
   -0.5970    1.0970    0.7630 O   0  0  0  0  0  0  0  0  0  0  0  0
    1.0410   -0.2250    1.7220 N   0  0  0  0  0  0  0  0  0  0  0  0
    1.5960    0.8710    2.4670 C   0  0  0  0  0  0  0  0  0  0  0  0
    2.0900    1.9480    1.5310 C   0  0  0  0  0  0  0  0  0  0  0  0
    3.1460    1.4590    0.6160 C   0  0  0  0  0  0  0  0  0  0  0  0
    4.4670    1.2120    0.9980 C   0  0  0  0  0  0  0  0  0  0  0  0
    5.1840    0.7770   -0.0880 C   0  0  0  0  0  0  0  0  0  0  0  0
    4.2820    0.7580   -1.1470 C   0  0  0  0  0  0  0  0  0  0  0  0
    4.6420    0.3470   -2.5190 C   0  0  0  0  0  0  0  0  0  0  0  0
    3.0870    1.1700   -0.6830 N   0  0  0  0  0  0  0  0  0  0  0  0
    1.9210    1.2740   -1.5360 C   0  0  0  0  0  0  0  0  0  0  0  0
    6.5460    0.5290    0.3290 C   0  0  0  0  0  0  0  0  0  0  0  0
    7.4950    0.1180   -0.3980 O   0  0  0  0  0  0  0  0  0  0  0  0
    6.6460    0.8260    1.7050 N   0  0  0  0  0  0  0  0  0  0  0  0
    5.3620    1.2520    2.1350 C   0  0  0  0  0  0  0  0  0  0  0  0
    5.0470    1.6080    3.3160 O   0  0  0  0  0  0  0  0  0  0  0  0
   -3.7460   -2.0530   -0.4730 C   0  0  0  0  0  0  0  0  0  0  0  0
   -3.8130   -2.8430    0.8570 C   0  0  0  0  0  0  0  0  0  0  0  0
   -4.1740   -1.6660    1.7770 C   0  0  0  0  0  0  0  0  0  0  0  0
   -3.0720   -0.7000    1.4090 C   0  0  0  0  0  0  0  0  0  0  0  0
  1  2  1  0
  2  3  1  0
  4  3  1  6
  4  5  1  0
  4 24  1  0
  4 27  1  0
  5  6  1  0
  6  7  1  0
  7  8  2  0
  7  9  1  0
  9 10  1  0
 10 11  1  0
 11 12  1  0
 12 13  2  0
 12 17  1  0
 13 14  1  0
 13 22  1  0
 14 15  2  0
 14 19  1  0
 15 16  1  0
 15 17  1  0
 17 18  1  0
 19 20  2  0
 19 21  1  0
 21 22  1  0
 22 23  2  0
 24 25  1  0
 25 26  1  0
 26 27  1  0
M  CHG  1   5   1
M  END
