
     RDKit          3D

 33 35  0  0  0  0  0  0  0  0999 V2000
   -9.4790    0.5500    2.9330 C   0  0  0  0  0  0  0  0  0  0  0  0
   -8.0470    0.1530    2.6070 C   0  0  0  0  0  0  0  0  0  0  0  0
   -7.7300    0.6770    1.3500 O   0  0  0  0  0  0  0  0  0  0  0  0
   -6.4810    0.4500    0.8000 C   0  0  0  0  0  0  0  0  0  0  0  0
   -5.4260    0.4220    1.5430 C   0  0  0  0  0  0  0  0  0  0  0  0
   -4.0490    0.2010    1.1580 C   0  0  0  0  0  0  0  0  0  0  0  0
   -3.1510    0.2090    2.0430 O   0  0  0  0  0  0  0  0  0  0  0  0
   -3.6870   -0.0290   -0.2320 C   0  0  0  0  0  0  0  0  0  0  0  0
   -4.4600   -0.0700   -1.2860 O   0  0  0  0  0  0  0  0  0  0  0  0
   -3.8140   -0.2990   -2.3970 C   0  0  0  0  0  0  0  0  0  0  0  0
   -4.3880   -0.4050   -3.7480 C   0  0  0  0  0  0  0  0  0  0  0  0
   -5.7320   -0.2650   -3.9830 C   0  0  0  0  0  0  0  0  0  0  0  0
   -6.2640   -0.3680   -5.2720 C   0  0  0  0  0  0  0  0  0  0  0  0
   -5.4120   -0.6160   -6.3270 C   0  0  0  0  0  0  0  0  0  0  0  0
   -4.0990   -0.7500   -6.0810 N   0  0  0  0  0  0  0  0  0  0  0  0
   -3.5800   -0.6510   -4.8330 C   0  0  0  0  0  0  0  0  0  0  0  0
   -2.5230   -0.4160   -2.0510 N   0  0  0  0  0  0  0  0  0  0  0  0
   -2.4240   -0.2520   -0.7140 C   0  0  0  0  0  0  0  0  0  0  0  0
   -1.1660   -0.3120    0.0530 C   0  0  0  0  0  0  0  0  0  0  0  0
   -0.0180   -0.5400   -0.5880 C   0  0  0  0  0  0  0  0  0  0  0  0
    1.2280   -0.5960    0.2040 C   0  0  0  0  0  0  0  0  0  0  0  0
    2.1660    0.4430   -0.2560 C   0  0  0  0  0  0  0  0  0  0  0  0
    1.8270    1.1810   -1.1670 O   0  0  0  0  0  0  0  0  0  0  0  0
    3.5010    0.5650    0.4030 C   0  0  0  0  0  0  0  0  0  0  0  0
    4.5700   -0.1060   -0.4580 C   0  0  0  0  0  0  0  0  0  0  0  0
    5.9000    0.0170    0.2060 C   0  0  0  0  0  0  0  0  0  0  0  0
    6.3470   -0.9420    1.0820 C   0  0  0  0  0  0  0  0  0  0  0  0
    7.5730   -0.8460    1.7030 C   0  0  0  0  0  0  0  0  0  0  0  0
    8.3630    0.2320    1.4400 C   0  0  0  0  0  0  0  0  0  0  0  0
    9.6950    0.3370    2.1100 C   0  0  0  0  0  0  0  0  0  0  0  0
    9.5470    1.0760    3.4220 C   0  0  0  0  0  0  0  0  0  0  0  0
    7.9280    1.2100    0.5590 C   0  0  0  0  0  0  0  0  0  0  0  0
    6.7030    1.1180   -0.0640 C   0  0  0  0  0  0  0  0  0  0  0  0
  1  2  1  0
  2  3  1  0
  3  4  1  0
  4  5  2  3
  5  6  1  0
  6  7  2  0
  6  8  1  0
  8  9  1  0
  8 18  2  0
  9 10  1  0
 10 11  1  0
 10 17  2  0
 11 12  2  0
 11 16  1  0
 12 13  1  0
 13 14  2  0
 14 15  1  0
 15 16  2  0
 17 18  1  0
 18 19  1  0
 19 20  2  3
 20 21  1  0
 21 22  1  0
 22 23  2  0
 22 24  1  0
 24 25  1  0
 25 26  1  0
 26 27  2  0
 26 33  1  0
 27 28  1  0
 28 29  2  0
 29 30  1  0
 29 32  1  0
 30 31  1  0
 32 33  2  0
M  END
