
     RDKit          3D

 32 35  0  0  0  0  0  0  0  0999 V2000
   -2.5760   -3.4520    2.3070 F   0  0  0  0  0  0  0  0  0  0  0  0
   -2.1210   -3.4310    1.0010 C   0  0  1  0  0  0  0  0  0  0  0  0
   -1.2270   -4.4910    0.8020 F   0  0  0  0  0  0  0  0  0  0  0  0
   -3.2030   -3.5750    0.1160 F   0  0  0  0  0  0  0  0  0  0  0  0
   -1.4230   -2.1760    0.6460 C   0  0  0  0  0  0  0  0  0  0  0  0
   -1.9890   -1.0030    0.6010 C   0  0  0  0  0  0  0  0  0  0  0  0
   -3.4290   -0.9760    0.9360 C   0  0  0  0  0  0  0  0  0  0  0  0
   -4.1870    0.0740    0.7860 C   0  0  0  0  0  0  0  0  0  0  0  0
   -5.6570    0.1050    1.1500 C   0  0  0  0  0  0  0  0  0  0  0  0
   -5.9370    1.4390    1.4950 O   0  0  0  0  0  0  0  0  0  0  0  0
   -5.9240    2.3130    0.4180 C   0  0  0  0  0  0  0  0  0  0  0  0
   -4.7710    1.9780   -0.5320 C   0  0  0  0  0  0  0  0  0  0  0  0
   -3.7910    1.3140    0.2550 O   0  0  0  0  0  0  0  0  0  0  0  0
   -1.2630    0.1890    0.2830 N   0  0  0  0  0  0  0  0  0  0  0  0
   -1.4710    1.3620    0.9830 C   0  0  0  0  0  0  0  0  0  0  0  0
   -0.8370    2.3880    0.3880 N   0  0  0  0  0  0  0  0  0  0  0  0
   -0.2010    1.9260   -0.6960 C   0  0  0  0  0  0  0  0  0  0  0  0
    0.7800    2.8130   -1.8430 Cl  0  0  0  0  0  0  0  0  0  0  0  0
   -0.4930    0.5400   -0.7150 C   0  0  0  0  0  0  0  0  0  0  0  0
    0.0440   -0.2850   -1.8500 C   0  0  0  0  0  0  0  0  0  0  0  0
    1.4260   -0.1470   -1.7440 O   0  0  0  0  0  0  0  0  0  0  0  0
    2.2160   -0.4240   -0.6920 C   0  0  0  0  0  0  0  0  0  0  0  0
    3.6060   -0.1710   -0.7720 C   0  0  0  0  0  0  0  0  0  0  0  0
    4.4700   -0.4150    0.2370 C   0  0  0  0  0  0  0  0  0  0  0  0
    5.8900   -0.0630    0.1320 C   0  0  0  0  0  0  0  0  0  0  0  0
    6.5240    0.6480   -0.8660 C   0  0  0  0  0  0  0  0  0  0  0  0
    7.8370    0.8870   -0.7210 C   0  0  0  0  0  0  0  0  0  0  0  0
    8.5040    0.4520    0.3450 C   0  0  0  0  0  0  0  0  0  0  0  0
    7.1520   -0.4030    1.2820 S   0  0  0  0  0  0  0  0  0  0  0  0
    4.0190   -0.9410    1.4180 C   0  0  0  0  0  0  0  0  0  0  0  0
    2.6490   -1.1970    1.5120 C   0  0  0  0  0  0  0  0  0  0  0  0
    1.8330   -0.9350    0.4840 N   0  0  0  0  0  0  0  0  0  0  0  0
  2  1  1  1
  2  3  1  0
  2  4  1  0
  2  5  1  0
  5  6  2  3
  6  7  1  0
  6 14  1  0
  7  8  2  3
  8  9  1  0
  8 13  1  0
  9 10  1  0
 10 11  1  0
 11 12  1  0
 12 13  1  0
 14 15  1  0
 14 19  1  0
 15 16  2  0
 16 17  1  0
 17 18  1  0
 17 19  2  0
 19 20  1  0
 20 21  1  0
 21 22  1  0
 22 23  2  0
 22 32  1  0
 23 24  1  0
 24 25  1  0
 24 30  2  0
 25 26  2  0
 25 29  1  0
 26 27  1  0
 27 28  2  0
 28 29  1  0
 30 31  1  0
 31 32  2  0
M  END
