
     RDKit          3D

 33 36  0  0  0  0  0  0  0  0999 V2000
    1.3120   -3.2270    2.2200 O   0  0  0  0  0  0  0  0  0  0  0  0
    1.5260   -2.4500    1.2440 C   0  0  0  0  0  0  0  0  0  0  0  0
    2.7430   -1.6600    1.1010 C   0  0  0  0  0  0  0  0  0  0  0  0
    3.8940   -1.4990    1.8490 C   0  0  0  0  0  0  0  0  0  0  0  0
    4.9060   -0.6520    1.4560 C   0  0  0  0  0  0  0  0  0  0  0  0
    6.0390   -0.4720    2.1650 F   0  0  0  0  0  0  0  0  0  0  0  0
    4.7820    0.0720    0.2680 C   0  0  0  0  0  0  0  0  0  0  0  0
    5.8100    0.9580   -0.1560 N   0  0  0  0  0  0  0  0  0  0  0  0
    6.8550    0.4940   -0.8440 C   0  0  0  0  0  0  0  0  0  0  0  0
    7.8630    1.2830   -1.2710 N   0  0  0  0  0  0  0  0  0  0  0  0
    7.8730    2.6080   -1.0220 C   0  0  0  0  0  0  0  0  0  0  0  0
    6.8070    3.1210   -0.3110 C   0  0  0  0  0  0  0  0  0  0  0  0
    6.7250    4.8150    0.0630 Cl  0  0  0  0  0  0  0  0  0  0  0  0
    5.7920    2.2760    0.1080 C   0  0  0  0  0  0  0  0  0  0  0  0
    4.8390    2.7830    0.7530 O   0  0  0  0  0  0  0  0  0  0  0  0
    3.6260   -0.0980   -0.4730 C   0  0  0  0  0  0  0  0  0  0  0  0
    2.5990   -0.9530   -0.0790 C   0  0  0  0  0  0  0  0  0  0  0  0
    1.3050   -1.2850   -0.6840 C   0  0  0  0  0  0  0  0  0  0  0  0
    0.8330   -0.8410   -1.7520 O   0  0  0  0  0  0  0  0  0  0  0  0
    0.6420   -2.2150    0.1400 N   0  0  0  0  0  0  0  0  0  0  0  0
   -0.6530   -2.8500    0.0050 C   0  0  0  0  0  0  0  0  0  0  0  0
   -1.7430   -2.0390    0.6540 C   0  0  0  0  0  0  0  0  0  0  0  0
   -1.8960   -0.7200    0.1080 N   0  0  0  0  0  0  0  0  0  0  0  0
   -2.4060   -0.7260   -1.2050 C   0  0  0  0  0  0  0  0  0  0  0  0
   -3.8520   -0.4830   -1.4120 C   0  0  0  0  0  0  0  0  0  0  0  0
   -4.5340    0.1840   -0.2720 C   0  0  2  0  0  0  0  0  0  0  0  0
   -5.7980    0.8920   -0.6920 C   0  0  0  0  0  0  0  0  0  0  0  0
   -6.5320    1.5780    0.4030 C   0  0  1  0  0  0  0  0  0  0  0  0
   -6.9250    0.6880    1.4090 F   0  0  0  0  0  0  0  0  0  0  0  0
   -5.9180    2.6900    0.9100 F   0  0  0  0  0  0  0  0  0  0  0  0
   -8.1200    2.1560   -0.3250 S   0  0  0  0  0  0  0  0  0  0  0  0
   -3.5270    1.0750    0.4070 C   0  0  0  0  0  0  0  0  0  0  0  0
   -2.5540    0.1010    1.0600 C   0  0  0  0  0  0  0  0  0  0  0  0
  1  2  2  0
  2  3  1  0
  2 20  1  0
  3  4  2  0
  3 17  1  0
  4  5  1  0
  5  6  1  0
  5  7  2  0
  7  8  1  0
  7 16  1  0
  8  9  1  0
  8 14  1  0
  9 10  2  0
 10 11  1  0
 11 12  2  0
 12 13  1  0
 12 14  1  0
 14 15  2  0
 16 17  2  0
 17 18  1  0
 18 19  2  0
 18 20  1  0
 20 21  1  0
 21 22  1  0
 22 23  1  0
 23 24  1  0
 23 33  1  0
 24 25  1  0
 25 26  1  0
 26 27  1  6
 26 32  1  0
 27 28  1  0
 28 29  1  1
 28 30  1  0
 28 31  1  0
 32 33  1  0
M  END
