
     RDKit          3D

 33 34  0  0  0  0  0  0  0  0999 V2000
   -4.6500    1.3680   -3.5530 C   0  0  0  0  0  0  0  0  0  0  0  0
   -4.9960    2.3140   -2.7890 C   0  0  0  0  0  0  0  0  0  0  0  0
   -4.4370    2.9650   -1.6540 C   0  0  0  0  0  0  0  0  0  0  0  0
   -5.0280    4.0200   -1.0490 C   0  0  0  0  0  0  0  0  0  0  0  0
   -4.2440    4.4660    0.0630 C   0  0  0  0  0  0  0  0  0  0  0  0
   -3.0740    3.5080    0.1350 C   0  0  0  0  0  0  0  0  0  0  0  0
   -2.1120    3.6180    1.2610 C   0  0  0  0  0  0  0  0  0  0  0  0
   -3.2050    2.6750   -0.8610 C   0  0  0  0  0  0  0  0  0  0  0  0
   -2.3520    1.5730   -1.2100 N   0  0  0  0  0  0  0  0  0  0  0  0
   -1.1960    1.1240   -0.6210 C   0  0  0  0  0  0  0  0  0  0  0  0
   -0.6620    1.6760    0.3550 O   0  0  0  0  0  0  0  0  0  0  0  0
   -0.4640   -0.1440   -1.1540 C   0  0  0  0  0  0  0  0  0  0  0  0
    0.5990   -0.3690   -0.5060 C   0  0  0  0  0  0  0  0  0  0  0  0
    1.7300   -1.2640   -0.4120 C   0  0  0  0  0  0  0  0  0  0  0  0
    2.5480   -1.0470    0.5600 C   0  0  0  0  0  0  0  0  0  0  0  0
    3.6110   -1.2220    1.3540 C   0  0  0  0  0  0  0  0  0  0  0  0
    4.5860   -1.2200    2.2630 C   0  0  0  0  0  0  0  0  0  0  0  0
    4.7580   -0.3880    3.3860 C   0  0  0  0  0  0  0  0  0  0  0  0
    5.8350   -0.4950    4.2160 C   0  0  0  0  0  0  0  0  0  0  0  0
    5.7430    0.4620    5.2810 C   0  0  0  0  0  0  0  0  0  0  0  0
    6.5680    0.6600    6.2390 O   0  0  0  0  0  0  0  0  0  0  0  0
    4.5380    1.2140    5.1200 N   0  0  0  0  0  0  0  0  0  0  0  0
    4.0210    2.2370    6.0110 C   0  0  0  0  0  0  0  0  0  0  0  0
    3.9600    0.6730    3.9520 C   0  0  0  0  0  0  0  0  0  0  0  0
    2.8410    1.0890    3.4630 O   0  0  0  0  0  0  0  0  0  0  0  0
    2.0860   -2.4090   -1.2750 C   0  0  0  0  0  0  0  0  0  0  0  0
    2.3230   -1.8400   -2.6760 C   0  0  0  0  0  0  0  0  0  0  0  0
   -1.3120   -0.8380   -2.1020 C   0  0  0  0  0  0  0  0  0  0  0  0
   -1.1640   -2.2410   -2.4960 C   0  0  0  0  0  0  0  0  0  0  0  0
   -1.3660   -3.1810   -1.3420 C   0  0  0  0  0  0  0  0  0  0  0  0
   -1.4950   -2.7730   -0.2080 O   0  0  0  0  0  0  0  0  0  0  0  0
   -1.4160   -4.6520   -1.5460 C   0  0  0  0  0  0  0  0  0  0  0  0
   -1.5600   -4.9490   -3.0290 C   0  0  0  0  0  0  0  0  0  0  0  0
  1  2  2  0
  2  3  1  0
  3  4  2  0
  3  8  1  0
  4  5  1  0
  5  6  1  0
  6  7  1  0
  6  8  2  0
  8  9  1  0
  9 10  1  0
 10 11  2  0
 10 12  1  0
 12 13  2  3
 12 28  1  0
 13 14  1  0
 14 15  2  3
 14 26  1  0
 15 16  1  0
 16 17  2  3
 17 18  1  0
 18 19  2  0
 18 24  1  0
 19 20  1  0
 20 21  2  0
 20 22  1  0
 22 23  1  0
 22 24  1  0
 24 25  2  0
 26 27  1  0
 28 29  1  0
 29 30  1  0
 30 31  2  0
 30 32  1  0
 32 33  1  0
M  END
