
     RDKit          3D

 33 35  0  0  0  0  0  0  0  0999 V2000
   -6.4040   -0.8540   -1.3160 C   0  0  0  0  0  0  0  0  0  0  0  0
   -5.0960   -0.5660   -0.5440 C   0  0  0  0  0  0  0  0  0  0  0  0
   -3.9760   -1.0260   -1.3880 C   0  0  0  0  0  0  0  0  0  0  0  0
   -2.6020   -0.8330   -0.9870 C   0  0  0  0  0  0  0  0  0  0  0  0
   -1.8170    0.1840   -1.5900 C   0  0  0  0  0  0  0  0  0  0  0  0
   -0.4950    0.3650   -1.3160 C   0  0  0  0  0  0  0  0  0  0  0  0
    0.2050    1.3550   -1.9280 O   0  0  0  0  0  0  0  0  0  0  0  0
   -0.2280    2.3180   -2.8410 C   0  0  0  0  0  0  0  0  0  0  0  0
   -1.2240    3.2640   -2.2780 C   0  0  0  0  0  0  0  0  0  0  0  0
   -2.4570    3.5510   -2.6080 C   0  0  0  0  0  0  0  0  0  0  0  0
   -3.0290    4.5930   -1.7080 C   0  0  0  0  0  0  0  0  0  0  0  0
   -1.9160    4.8750   -0.7970 C   0  0  0  0  0  0  0  0  0  0  0  0
   -0.8920    4.1250   -1.1140 C   0  0  0  0  0  0  0  0  0  0  0  0
    0.1860   -0.4620   -0.4030 C   0  0  0  0  0  0  0  0  0  0  0  0
    1.5620   -0.2120   -0.1680 N   0  0  0  0  0  0  0  0  0  0  0  0
    2.4010   -0.9240    0.7080 C   0  0  0  0  0  0  0  0  0  0  0  0
    1.9520   -1.8820    1.3740 O   0  0  0  0  0  0  0  0  0  0  0  0
    3.8170   -0.5480    0.8520 C   0  0  0  0  0  0  0  0  0  0  0  0
    4.2350    0.5010    1.5930 C   0  0  0  0  0  0  0  0  0  0  0  0
    5.5760    0.8420    1.6980 C   0  0  0  0  0  0  0  0  0  0  0  0
    6.5250    0.1020    1.0340 C   0  0  0  0  0  0  0  0  0  0  0  0
    7.8870    0.4230    1.1200 O   0  0  0  0  0  0  0  0  0  0  0  0
    8.3210    1.5130    1.8910 C   0  0  0  0  0  0  0  0  0  0  0  0
    6.1130   -0.9760    0.2710 C   0  0  0  0  0  0  0  0  0  0  0  0
    7.0260   -1.7500   -0.4140 O   0  0  0  0  0  0  0  0  0  0  0  0
    6.5820   -2.8580   -1.1960 C   0  0  0  0  0  0  0  0  0  0  0  0
    4.7810   -1.2790    0.1940 C   0  0  0  0  0  0  0  0  0  0  0  0
   -0.5580   -1.4330    0.1770 C   0  0  0  0  0  0  0  0  0  0  0  0
   -1.9360   -1.6240   -0.1030 C   0  0  0  0  0  0  0  0  0  0  0  0
   -2.6440   -2.6660    0.6920 C   0  0  0  0  0  0  0  0  0  0  0  0
   -3.0450   -1.9980    2.0040 C   0  0  0  0  0  0  0  0  0  0  0  0
   -3.7920   -2.8510    2.8710 N   0  0  0  0  0  0  0  0  0  0  0  0
   -4.1190   -2.0790    4.0660 C   0  0  0  0  0  0  0  0  0  0  0  0
  1  2  1  0
  2  3  1  0
  3  4  1  0
  4  5  2  0
  4 29  1  0
  5  6  1  0
  6  7  1  0
  6 14  2  0
  7  8  1  0
  8  9  1  0
  9 10  2  0
  9 13  1  0
 10 11  1  0
 11 12  1  0
 12 13  2  0
 14 15  1  0
 14 28  1  0
 15 16  1  0
 16 17  2  0
 16 18  1  0
 18 19  2  0
 18 27  1  0
 19 20  1  0
 20 21  2  0
 21 22  1  0
 21 24  1  0
 22 23  1  0
 24 25  1  0
 24 27  2  0
 25 26  1  0
 28 29  2  0
 29 30  1  0
 30 31  1  0
 31 32  1  0
 32 33  1  0
M  END
