
     RDKit          3D

 33 35  0  0  0  0  0  0  0  0999 V2000
   -7.7500   -2.8570   -1.4120 C   0  0  0  0  0  0  0  0  0  0  0  0
   -7.4750   -1.5620   -2.1040 C   0  0  0  0  0  0  0  0  0  0  0  0
   -6.7720   -0.6170   -1.3790 O   0  0  0  0  0  0  0  0  0  0  0  0
   -5.5350   -0.6700   -0.8330 C   0  0  0  0  0  0  0  0  0  0  0  0
   -4.4370   -0.2720   -1.5560 C   0  0  0  0  0  0  0  0  0  0  0  0
   -4.6100    0.2130   -2.9240 C   0  0  0  0  0  0  0  0  0  0  0  0
   -3.1510   -0.3230   -1.0010 C   0  0  0  0  0  0  0  0  0  0  0  0
   -2.9780   -0.7760    0.2850 C   0  0  0  0  0  0  0  0  0  0  0  0
   -1.6230   -0.8460    0.9280 C   0  0  0  0  0  0  0  0  0  0  0  0
   -1.3370    0.4640    1.6280 C   0  0  0  0  0  0  0  0  0  0  0  0
   -0.0790    0.5310    2.2850 N   0  0  0  0  0  0  0  0  0  0  0  0
    1.1750    0.3640    1.6230 C   0  0  0  0  0  0  0  0  0  0  0  0
    1.1300    0.3690    0.2540 N   0  0  0  0  0  0  0  0  0  0  0  0
    2.2300    0.3880   -0.5110 C   0  0  0  0  0  0  0  0  0  0  0  0
    2.1760    0.3920   -1.8940 C   0  0  0  0  0  0  0  0  0  0  0  0
    3.3350    0.4110   -2.6440 C   0  0  0  0  0  0  0  0  0  0  0  0
    4.5830    0.4270   -2.0560 C   0  0  0  0  0  0  0  0  0  0  0  0
    4.6660    0.4250   -0.6820 C   0  0  0  0  0  0  0  0  0  0  0  0
    5.8040    0.4370    0.0060 O   0  0  0  0  0  0  0  0  0  0  0  0
    7.1450    0.4750   -0.0850 C   0  0  0  0  0  0  0  0  0  0  0  0
    7.7710    1.7090   -0.6680 C   0  0  0  0  0  0  0  0  0  0  0  0
    7.3750    1.9510   -1.9420 O   0  0  0  0  0  0  0  0  0  0  0  0
    7.9470    3.0920   -2.5000 C   0  0  0  0  0  0  0  0  0  0  0  0
    3.4560    0.4040    0.0780 C   0  0  0  0  0  0  0  0  0  0  0  0
    3.5190    0.3960    1.4410 C   0  0  0  0  0  0  0  0  0  0  0  0
    2.3680    0.3720    2.2700 C   0  0  0  0  0  0  0  0  0  0  0  0
    2.6050    0.1800    3.6630 C   0  0  0  0  0  0  0  0  0  0  0  0
    2.0190   -0.5020    4.5840 C   0  0  0  0  0  0  0  0  0  0  0  0
    0.8800   -1.3580    4.5460 C   0  0  0  0  0  0  0  0  0  0  0  0
    0.4840   -1.9100    5.6360 O   0  0  0  0  0  0  0  0  0  0  0  0
   -4.0640   -1.1750    1.0150 C   0  0  0  0  0  0  0  0  0  0  0  0
   -5.3460   -1.1200    0.4500 C   0  0  0  0  0  0  0  0  0  0  0  0
   -6.5200   -1.5540    1.2440 C   0  0  0  0  0  0  0  0  0  0  0  0
  1  2  1  0
  2  3  1  0
  3  4  1  0
  4  5  2  0
  4 32  1  0
  5  6  1  0
  5  7  1  0
  7  8  2  0
  8  9  1  0
  8 31  1  0
  9 10  1  0
 10 11  1  0
 11 12  1  0
 12 13  2  0
 12 26  1  0
 13 14  1  0
 14 15  2  0
 14 24  1  0
 15 16  1  0
 16 17  2  0
 17 18  1  0
 18 19  1  0
 18 24  2  0
 19 20  1  0
 20 21  1  0
 21 22  1  0
 22 23  1  0
 24 25  1  0
 25 26  2  0
 26 27  1  0
 27 28  2  3
 28 29  1  0
 29 30  2  0
 31 32  2  0
 32 33  1  0
M  END
