
     RDKit          3D

 27 28  0  0  0  0  0  0  0  0999 V2000
    5.0340   -2.2900   -1.0550 C   0  0  0  0  0  0  0  0  0  0  0  0
    4.8160   -1.5570    0.2620 C   0  0  1  0  0  0  0  0  0  0  0  0
    5.1000   -0.0900    0.0060 C   0  0  0  0  0  0  0  0  0  0  0  0
    4.9160    0.6710    1.2020 O   0  0  0  0  0  0  0  0  0  0  0  0
    5.1320    2.0410    1.1630 C   0  0  0  0  0  0  0  0  0  0  0  0
    5.4840    2.5520    0.0570 O   0  0  0  0  0  0  0  0  0  0  0  0
    4.9750    2.8560    2.2840 O   0  0  0  0  0  0  0  0  0  0  0  0
    3.4210   -1.7700    0.6580 C   0  0  0  0  0  0  0  0  0  0  0  0
    3.1120   -2.3240    1.7210 O   0  0  0  0  0  0  0  0  0  0  0  0
    2.4020   -1.3550   -0.1560 O   0  0  0  0  0  0  0  0  0  0  0  0
    1.0500   -1.4860    0.0790 C   0  0  0  0  0  0  0  0  0  0  0  0
    0.5280   -0.8190    1.3100 C   0  0  0  0  0  0  0  0  0  0  0  0
   -0.8740   -1.0660    1.3780 O   0  0  0  0  0  0  0  0  0  0  0  0
   -1.6460   -0.6050    0.3190 C   0  0  0  0  0  0  0  0  0  0  0  0
   -1.2430    0.4670   -0.2890 N   0  0  0  0  0  0  0  0  0  0  0  0
   -1.9530    1.0290   -1.3860 C   0  0  0  0  0  0  0  0  0  0  0  0
   -1.4120    1.5610   -2.5360 C   0  0  0  0  0  0  0  0  0  0  0  0
   -2.4460    1.9680   -3.2830 N   0  0  0  0  0  0  0  0  0  0  0  0
   -3.5790    1.6980   -2.6180 C   0  0  0  0  0  0  0  0  0  0  0  0
   -4.7400    1.9510   -3.0330 O   0  0  0  0  0  0  0  0  0  0  0  0
   -3.2940    1.1140   -1.4350 N   0  0  0  0  0  0  0  0  0  0  0  0
   -4.2520    0.6820   -0.4520 C   0  0  0  0  0  0  0  0  0  0  0  0
   -4.2480    1.1720    0.8380 C   0  0  0  0  0  0  0  0  0  0  0  0
   -5.1610    0.7630    1.7780 C   0  0  0  0  0  0  0  0  0  0  0  0
   -6.1220   -0.1680    1.4450 C   0  0  0  0  0  0  0  0  0  0  0  0
   -6.1350   -0.6690    0.1480 C   0  0  0  0  0  0  0  0  0  0  0  0
   -5.2110   -0.2480   -0.7870 C   0  0  0  0  0  0  0  0  0  0  0  0
  2  1  1  6
  2  3  1  0
  2  8  1  0
  3  4  1  0
  4  5  1  0
  5  6  2  0
  5  7  1  0
  8  9  2  0
  8 10  1  0
 10 11  1  0
 11 12  1  0
 12 13  1  0
 13 14  1  0
 14 15  2  3
 15 16  1  0
 16 17  2  0
 16 21  1  0
 17 18  1  0
 18 19  1  0
 19 20  2  0
 19 21  1  0
 21 22  1  0
 22 23  2  0
 22 27  1  0
 23 24  1  0
 24 25  2  0
 25 26  1  0
 26 27  2  0
M  END
