
     RDKit          3D

 27 28  0  0  0  0  0  0  0  0999 V2000
    6.5060    4.0260   -0.2160 O   0  0  0  0  0  0  0  0  0  0  0  0
    6.8300    2.8280   -0.4280 C   0  0  0  0  0  0  0  0  0  0  0  0
    5.9140    1.7860   -0.3660 O   0  0  0  0  0  0  0  0  0  0  0  0
    4.5810    2.1430   -0.0490 C   0  0  0  0  0  0  0  0  0  0  0  0
    3.6680    0.9440   -0.0060 C   0  0  0  0  0  0  0  0  0  0  0  0
    2.2910    1.4620    0.3400 C   0  0  0  0  0  0  0  0  0  0  0  0
    1.3020    0.4490    0.4210 N   0  0  0  0  0  0  0  0  0  0  0  0
    1.0850   -0.1930    1.7150 C   0  0  0  0  0  0  0  0  0  0  0  0
    1.7810    0.1640    2.6770 O   0  0  0  0  0  0  0  0  0  0  0  0
    0.0790   -1.2240    1.8870 N   0  0  0  0  0  0  0  0  0  0  0  0
   -0.0630   -2.4260    1.1140 C   0  0  0  0  0  0  0  0  0  0  0  0
   -1.4990   -2.8320    0.8270 C   0  0  0  0  0  0  0  0  0  0  0  0
   -1.6910   -2.9110   -0.5260 O   0  0  0  0  0  0  0  0  0  0  0  0
   -2.9490   -2.8600   -1.0570 C   0  0  0  0  0  0  0  0  0  0  0  0
   -2.9350   -2.2880   -2.5450 C   0  0  0  0  0  0  0  0  0  0  0  0
   -1.4770   -2.0690   -2.7120 C   0  0  0  0  0  0  0  0  0  0  0  0
   -0.7210   -1.2460   -1.9780 C   0  0  0  0  0  0  0  0  0  0  0  0
    0.5860   -1.3260   -2.3810 O   0  0  0  0  0  0  0  0  0  0  0  0
    1.3370   -0.6310   -1.6990 N   0  0  0  0  0  0  0  0  0  0  0  0
    0.5330   -0.0100   -0.7480 C   0  0  0  0  0  0  0  0  0  0  0  0
   -0.7920   -0.3480   -0.9160 C   0  0  0  0  0  0  0  0  0  0  0  0
   -1.9270    0.2080   -0.3680 C   0  0  0  0  0  0  0  0  0  0  0  0
   -2.3100    1.1100    0.6550 C   0  0  0  0  0  0  0  0  0  0  0  0
   -1.5550    1.8250    1.4310 C   0  0  0  0  0  0  0  0  0  0  0  0
   -2.1810    2.6640    2.4000 O   0  0  0  0  0  0  0  0  0  0  0  0
   -3.8200    1.2670    0.8980 C   0  0  0  0  0  0  0  0  0  0  0  0
   -4.0120    2.1410    1.8960 O   0  0  0  0  0  0  0  0  0  0  0  0
  1  2  2  0
  2  3  1  0
  3  4  1  0
  4  5  1  0
  5  6  1  0
  6  7  1  0
  7  8  1  0
  7 20  1  0
  8  9  2  0
  8 10  1  0
 10 11  1  0
 11 12  1  0
 12 13  1  0
 13 14  1  0
 14 15  1  0
 15 16  1  0
 16 17  2  0
 17 18  1  0
 17 21  1  0
 18 19  1  0
 19 20  2  0
 20 21  1  0
 21 22  2  3
 22 23  1  0
 23 24  2  3
 23 26  1  0
 24 25  1  0
 26 27  1  0
M  END
