
     RDKit          3D

 27 28  0  0  0  0  0  0  0  0999 V2000
   -3.8280    3.5900   -0.7970 C   0  0  0  0  0  0  0  0  0  0  0  0
   -2.9500    2.5350   -1.1370 O   0  0  0  0  0  0  0  0  0  0  0  0
   -2.5750    1.6010   -0.1550 C   0  0  0  0  0  0  0  0  0  0  0  0
   -3.0530    1.7640    0.9770 O   0  0  0  0  0  0  0  0  0  0  0  0
   -1.6680    0.5170   -0.5070 C   0  0  0  0  0  0  0  0  0  0  0  0
   -1.2120    0.4250   -1.7220 C   0  0  0  0  0  0  0  0  0  0  0  0
   -0.3240   -0.5610   -2.2260 N   0  0  0  0  0  0  0  0  0  0  0  0
    1.0350   -0.5700   -1.7780 C   0  0  0  0  0  0  0  0  0  0  0  0
    1.3640    0.3450   -0.9480 N   0  0  0  0  0  0  0  0  0  0  0  0
    2.5920    0.5900   -0.3490 C   0  0  0  0  0  0  0  0  0  0  0  0
    3.2440    1.6140   -0.6810 O   0  0  0  0  0  0  0  0  0  0  0  0
    3.2030   -0.2790    0.6720 C   0  0  0  0  0  0  0  0  0  0  0  0
    2.5690   -1.4350    1.0950 C   0  0  0  0  0  0  0  0  0  0  0  0
    3.1770   -2.2090    2.0550 C   0  0  0  0  0  0  0  0  0  0  0  0
    4.3340   -1.8580    2.5590 O   0  0  0  0  0  0  0  0  0  0  0  0
    4.9800   -0.7760    2.1980 C   0  0  0  0  0  0  0  0  0  0  0  0
    6.0950   -0.4530    2.6960 O   0  0  0  0  0  0  0  0  0  0  0  0
    4.4100    0.0310    1.2390 C   0  0  0  0  0  0  0  0  0  0  0  0
   -1.6390    1.4110   -2.6630 O   0  0  0  0  0  0  0  0  0  0  0  0
   -1.7320    1.0610   -4.0140 C   0  0  0  0  0  0  0  0  0  0  0  0
   -1.3400   -0.4180    0.5450 C   0  0  0  0  0  0  0  0  0  0  0  0
   -1.0070    0.0790    1.8210 C   0  0  0  0  0  0  0  0  0  0  0  0
   -0.7160   -0.7470    2.8710 C   0  0  0  0  0  0  0  0  0  0  0  0
   -0.7530   -2.1090    2.6640 C   0  0  0  0  0  0  0  0  0  0  0  0
   -1.0670   -2.6140    1.4600 N   0  0  0  0  0  0  0  0  0  0  0  0
   -1.3550   -1.7950    0.4190 C   0  0  0  0  0  0  0  0  0  0  0  0
   -1.6450   -2.3170   -0.6850 O   0  0  0  0  0  0  0  0  0  0  0  0
  1  2  1  0
  2  3  1  0
  3  4  2  0
  3  5  1  0
  5  6  2  3
  5 21  1  0
  6  7  1  0
  6 19  1  0
  7  8  1  0
  8  9  2  3
  9 10  1  0
 10 11  2  0
 10 12  1  0
 12 13  1  0
 12 18  2  0
 13 14  2  0
 14 15  1  0
 15 16  1  0
 16 17  2  0
 16 18  1  0
 19 20  1  0
 21 22  2  0
 21 26  1  0
 22 23  1  0
 23 24  2  0
 24 25  1  0
 25 26  1  0
 26 27  2  0
M  END
