
     RDKit          3D

 27 28  0  0  0  0  0  0  0  0999 V2000
    4.3870   -2.1060    0.4520 C   0  0  0  0  0  0  0  0  0  0  0  0
    3.7570   -1.1270   -0.4800 C   0  0  1  0  0  0  0  0  0  0  0  0
    4.7280   -0.2580   -1.2550 C   0  0  0  0  0  0  0  0  0  0  0  0
    5.4930    0.6540   -0.5160 N   0  0  0  0  0  0  0  0  0  0  0  0
    6.5120    0.1580    0.3570 C   0  0  0  0  0  0  0  0  0  0  0  0
    7.2220    1.3440    1.0520 C   0  0  0  0  0  0  0  0  0  0  0  0
    7.7660    2.1310    0.0620 O   0  0  0  0  0  0  0  0  0  0  0  0
    8.3820    3.1620    0.5710 O   0  0  0  0  0  0  0  0  0  0  0  0
    3.0990   -1.8950   -1.4670 O   0  0  0  0  0  0  0  0  0  0  0  0
    1.7820   -1.5610   -1.4930 C   0  0  0  0  0  0  0  0  0  0  0  0
    1.1010   -1.8540   -0.1900 C   0  0  0  0  0  0  0  0  0  0  0  0
   -0.3190   -1.4490   -0.3310 C   0  0  0  0  0  0  0  0  0  0  0  0
   -0.9510   -1.7850   -1.3510 O   0  0  0  0  0  0  0  0  0  0  0  0
   -0.9610   -0.7030    0.6400 O   0  0  0  0  0  0  0  0  0  0  0  0
   -2.2950   -0.3370    0.4960 C   0  0  0  0  0  0  0  0  0  0  0  0
   -3.2150   -1.0890    1.0620 C   0  0  0  0  0  0  0  0  0  0  0  0
   -4.5450   -0.7270    0.9200 O   0  0  0  0  0  0  0  0  0  0  0  0
   -4.9340    0.3820    0.2110 C   0  0  0  0  0  0  0  0  0  0  0  0
   -6.3490    0.6930    0.1040 C   0  0  0  0  0  0  0  0  0  0  0  0
   -7.3110   -0.0950    0.7370 C   0  0  0  0  0  0  0  0  0  0  0  0
   -8.6500    0.1740    0.6410 C   0  0  0  0  0  0  0  0  0  0  0  0
   -9.0550    1.2550   -0.1060 C   0  0  0  0  0  0  0  0  0  0  0  0
  -10.4180    1.5320   -0.2090 O   0  0  0  0  0  0  0  0  0  0  0  0
   -8.1540    2.0740   -0.7580 C   0  0  0  0  0  0  0  0  0  0  0  0
   -6.8190    1.7630   -0.6280 C   0  0  0  0  0  0  0  0  0  0  0  0
   -4.0730    1.1390   -0.3550 N   0  0  0  0  0  0  0  0  0  0  0  0
   -2.7000    0.8060   -0.2340 N   0  0  0  0  0  0  0  0  0  0  0  0
  2  1  1  1
  2  3  1  0
  2  9  1  0
  3  4  1  0
  4  5  1  0
  5  6  1  0
  6  7  1  0
  7  8  1  0
  9 10  1  0
 10 11  1  0
 11 12  1  0
 12 13  2  0
 12 14  1  0
 14 15  1  0
 15 16  2  0
 15 27  1  0
 16 17  1  0
 17 18  1  0
 18 19  1  0
 18 26  2  0
 19 20  2  0
 19 25  1  0
 20 21  1  0
 21 22  2  0
 22 23  1  0
 22 24  1  0
 24 25  2  0
 26 27  1  0
M  END
