
     RDKit          3D

 27 28  0  0  0  0  0  0  0  0999 V2000
   -0.6620   -2.2650    2.2310 O   0  0  0  0  0  0  0  0  0  0  0  0
   -1.8540   -1.9210    2.4520 C   0  0  0  0  0  0  0  0  0  0  0  0
   -2.6230   -1.4790    1.3660 N   0  0  0  0  0  0  0  0  0  0  0  0
   -2.1230   -1.3950   -0.0060 C   0  0  1  0  0  0  0  0  0  0  0  0
   -3.0060   -2.1760   -0.9350 C   0  0  0  0  0  0  0  0  0  0  0  0
   -4.3260   -1.6780   -0.9010 O   0  0  0  0  0  0  0  0  0  0  0  0
   -2.2710    0.0670   -0.3930 C   0  0  0  0  0  0  0  0  0  0  0  0
   -3.3130    0.6350    0.0630 O   0  0  0  0  0  0  0  0  0  0  0  0
   -1.3160    0.7130   -1.1880 N   0  0  0  0  0  0  0  0  0  0  0  0
   -0.2000   -0.1240   -1.6700 C   0  0  0  0  0  0  0  0  0  0  0  0
    0.9200   -0.1160   -0.6910 C   0  0  0  0  0  0  0  0  0  0  0  0
    0.7670    0.5620    0.3470 O   0  0  0  0  0  0  0  0  0  0  0  0
    2.1120   -0.8220   -0.8830 N   0  0  0  0  0  0  0  0  0  0  0  0
    3.2440   -0.8900   -0.0370 C   0  0  0  0  0  0  0  0  0  0  0  0
    3.4140   -0.0620    1.0370 C   0  0  0  0  0  0  0  0  0  0  0  0
    4.5520   -0.1920    1.8470 C   0  0  0  0  0  0  0  0  0  0  0  0
    5.4980   -1.1510    1.5640 C   0  0  0  0  0  0  0  0  0  0  0  0
    5.3100   -1.9780    0.4760 C   0  0  0  0  0  0  0  0  0  0  0  0
    6.2830   -2.9370    0.2140 O   0  0  0  0  0  0  0  0  0  0  0  0
    4.2130   -1.8770   -0.3320 C   0  0  0  0  0  0  0  0  0  0  0  0
   -1.3510    2.0300   -1.6150 C   0  0  0  0  0  0  0  0  0  0  0  0
   -0.4340    2.2790   -2.5310 O   0  0  0  0  0  0  0  0  0  0  0  0
   -2.1580    3.1580   -1.2790 C   0  0  0  0  0  0  0  0  0  0  0  0
   -2.2690    4.3180   -2.0740 C   0  0  0  0  0  0  0  0  0  0  0  0
   -3.0380    5.2130   -1.4050 C   0  0  0  0  0  0  0  0  0  0  0  0
   -3.3990    4.6970   -0.2780 O   0  0  0  0  0  0  0  0  0  0  0  0
   -2.8920    3.4630   -0.1580 C   0  0  0  0  0  0  0  0  0  0  0  0
  1  2  2  0
  2  3  1  0
  3  4  1  0
  4  5  1  6
  4  7  1  0
  5  6  1  0
  7  8  2  0
  7  9  1  0
  9 10  1  0
  9 21  1  0
 10 11  1  0
 11 12  2  0
 11 13  1  0
 13 14  1  0
 14 15  2  0
 14 20  1  0
 15 16  1  0
 16 17  2  0
 17 18  1  0
 18 19  1  0
 18 20  2  0
 21 22  2  0
 21 23  1  0
 23 24  1  0
 23 27  2  0
 24 25  2  0
 25 26  1  0
 26 27  1  0
M  END
