
     RDKit          3D

 16 17  0  0  0  0  0  0  0  0999 V2000
    4.0580    1.6890    0.3240 F   0  0  0  0  0  0  0  0  0  0  0  0
    4.3080    0.5360   -0.4190 C   0  0  1  0  0  0  0  0  0  0  0  0
    3.9070    0.6640   -1.7160 F   0  0  0  0  0  0  0  0  0  0  0  0
    5.6730    0.3030   -0.3840 F   0  0  0  0  0  0  0  0  0  0  0  0
    3.6120   -0.6240    0.2470 C   0  0  0  0  0  0  0  0  0  0  0  0
    2.1340   -0.4740    0.3610 C   0  0  0  0  0  0  0  0  0  0  0  0
    1.4300   -0.3500   -0.8850 N   0  0  0  0  0  0  0  0  0  0  0  0
    0.0190   -0.1790   -0.8460 C   0  0  0  0  0  0  0  0  0  0  0  0
   -0.6750   -0.0570   -2.0350 C   0  0  0  0  0  0  0  0  0  0  0  0
   -1.9960    0.1040   -2.0700 N   0  0  0  0  0  0  0  0  0  0  0  0
   -2.7010    0.1530   -0.8970 C   0  0  0  0  0  0  0  0  0  0  0  0
   -2.0180    0.0320    0.2850 C   0  0  0  0  0  0  0  0  0  0  0  0
   -0.6680   -0.1320    0.2930 N   0  0  0  0  0  0  0  0  0  0  0  0
   -2.8520    0.1000    1.3360 C   0  0  0  0  0  0  0  0  0  0  0  0
   -4.2040    0.2820    0.7910 C   0  0  0  0  0  0  0  0  0  0  0  0
   -3.9910    0.3020   -0.6670 C   0  0  0  0  0  0  0  0  0  0  0  0
  2  1  1  1
  2  3  1  0
  2  4  1  0
  2  5  1  0
  5  6  1  0
  6  7  1  0
  7  8  1  0
  8  9  1  0
  8 13  2  0
  9 10  2  0
 10 11  1  0
 11 12  1  0
 11 16  2  0
 12 13  1  0
 12 14  2  0
 14 15  1  0
 15 16  1  0
M  CHG  1  10   1
M  END
