
     RDKit          3D

 16 17  0  0  0  0  0  0  0  0999 V2000
    4.1300    0.4000   -0.2710 C   0  0  0  0  0  0  0  0  0  0  0  0
    3.9790   -0.9450    0.4090 C   0  0  0  0  0  0  0  0  0  0  0  0
    3.1070   -1.8250   -0.3600 N   0  0  0  0  0  0  0  0  0  0  0  0
    1.8560   -1.5090   -0.4450 C   0  0  0  0  0  0  0  0  0  0  0  0
    1.1720   -0.3990    0.1120 N   0  0  0  0  0  0  0  0  0  0  0  0
    0.0670    0.0350   -0.7040 C   0  0  1  0  0  0  0  0  0  0  0  0
   -0.7690   -1.1590   -1.0660 C   0  0  2  0  0  0  0  0  0  0  0  0
   -1.6250   -1.5590   -0.0700 O   0  0  0  0  0  0  0  0  0  0  0  0
   -2.5070   -0.5580    0.2340 C   0  0  2  0  0  0  0  0  0  0  0  0
   -3.3410   -0.1130   -0.9620 C   0  0  0  0  0  0  0  0  0  0  0  0
   -4.1870    0.9040   -0.5050 O   0  0  0  0  0  0  0  0  0  0  0  0
   -1.8440    0.6920    0.7830 C   0  0  1  0  0  0  0  0  0  0  0  0
   -1.4490    0.5120    2.1160 O   0  0  0  0  0  0  0  0  0  0  0  0
   -0.6860    1.1420   -0.0770 C   0  0  2  0  0  0  0  0  0  0  0  0
   -1.2130    2.0000   -1.0450 O   0  0  0  0  0  0  0  0  0  0  0  0
    0.5540   -2.4100   -1.3260 S   0  0  0  0  0  0  0  0  0  0  0  0
  1  2  1  0
  2  3  1  0
  3  4  2  3
  4  5  1  0
  4 16  1  0
  6  5  1  1
  6  7  1  0
  6 14  1  0
  7  8  1  1
  7 16  1  0
  8  9  1  0
  9 10  1  6
  9 12  1  0
 10 11  1  0
 12 13  1  1
 12 14  1  0
 14 15  1  6
M  END
