
     RDKit          3D

 16 17  0  0  0  0  0  0  0  0999 V2000
    3.8980    0.9290   -1.1480 N   0  0  0  0  0  0  0  0  0  0  0  0
    3.1440    0.2390   -0.1570 N   0  0  0  0  0  0  0  0  0  0  0  0
    1.7560    0.4970   -0.4060 C   0  0  0  0  0  0  0  0  0  0  0  0
    0.8530   -0.0300    0.5840 N   0  0  2  0  0  0  0  0  0  0  0  0
    0.0990   -1.1700    0.1930 C   0  0  0  0  0  0  0  0  0  0  0  0
   -1.3130   -0.7040   -0.0560 C   0  0  0  0  0  0  0  0  0  0  0  0
   -2.3600   -1.2640   -0.5710 C   0  0  0  0  0  0  0  0  0  0  0  0
   -3.6720   -0.6120   -0.7230 C   0  0  0  0  0  0  0  0  0  0  0  0
   -3.7540    0.7850   -0.2420 C   0  0  0  0  0  0  0  0  0  0  0  0
   -2.5190    1.3520    0.3310 C   0  0  0  0  0  0  0  0  0  0  0  0
   -1.3940    0.6660    0.4170 C   0  0  0  0  0  0  0  0  0  0  0  0
   -0.0770    1.0240    0.9400 C   0  0  0  0  0  0  0  0  0  0  0  0
    3.3930   -1.1890   -0.2890 C   0  0  2  0  0  0  0  0  0  0  0  0
    4.7610   -1.4520   -0.1420 F   0  0  0  0  0  0  0  0  0  0  0  0
    3.0130   -1.6850   -1.5160 F   0  0  0  0  0  0  0  0  0  0  0  0
    2.6870   -1.8520    0.6780 F   0  0  0  0  0  0  0  0  0  0  0  0
  1  2  1  0
  2  3  1  0
  2 13  1  0
  4  3  1  6
  4  5  1  0
  4 12  1  0
  5  6  1  0
  6  7  2  0
  6 11  1  0
  7  8  1  0
  8  9  1  0
  9 10  1  0
 10 11  2  0
 11 12  1  0
 13 14  1  1
 13 15  1  0
 13 16  1  0
M  CHG  1   4   1
M  END
