
     RDKit          3D

 15 16  0  0  0  0  0  0  0  0999 V2000
    4.6390    1.2710    1.2000 F   0  0  0  0  0  0  0  0  0  0  0  0
    4.0720    0.7260    0.0550 C   0  0  2  0  0  0  0  0  0  0  0  0
    3.6920    1.6890   -0.8460 F   0  0  0  0  0  0  0  0  0  0  0  0
    2.8880    0.0060    0.4880 N   0  0  0  0  0  0  0  0  0  0  0  0
    2.0470   -0.2970   -0.5750 N   0  0  0  0  0  0  0  0  0  0  0  0
    0.7720   -0.8370   -0.2780 C   0  0  0  0  0  0  0  0  0  0  0  0
    0.5320   -2.0960   -0.5470 C   0  0  0  0  0  0  0  0  0  0  0  0
   -0.7480   -2.7100   -0.2690 C   0  0  0  0  0  0  0  0  0  0  0  0
   -1.7280   -1.9990    0.2750 C   0  0  0  0  0  0  0  0  0  0  0  0
   -1.4940   -0.6390    0.5740 N   0  0  0  0  0  0  0  0  0  0  0  0
   -2.5380    0.1740    1.1700 C   0  0  0  0  0  0  0  0  0  0  0  0
   -2.9470    1.1970    0.1430 C   0  0  0  0  0  0  0  0  0  0  0  0
   -1.9430    1.3730   -0.9530 C   0  0  0  0  0  0  0  0  0  0  0  0
   -0.5190    1.2540   -0.5110 C   0  0  0  0  0  0  0  0  0  0  0  0
   -0.2390    0.0370    0.3220 C   0  0  2  0  0  0  0  0  0  0  0  0
  2  1  1  1
  2  3  1  0
  2  4  1  0
  4  5  1  0
  5  6  1  0
  6  7  2  0
  6 15  1  0
  7  8  1  0
  8  9  2  0
  9 10  1  0
 10 11  1  0
 10 15  1  0
 11 12  1  0
 12 13  1  0
 13 14  1  0
 15 14  1  6
M  CHG  1   4   1
M  END
