
     RDKit          3D

 16 16  0  0  0  0  0  0  0  0999 V2000
    2.3600   -0.1890   -2.0780 C   0  0  0  0  0  0  0  0  0  0  0  0
    2.0910   -0.8840   -0.8330 N   0  0  2  0  0  0  0  0  0  0  0  0
    0.8850   -1.6880   -0.8980 C   0  0  0  0  0  0  0  0  0  0  0  0
   -0.3060   -0.7710   -0.9530 C   0  0  0  0  0  0  0  0  0  0  0  0
   -0.3670   -0.1020    0.3420 N   0  0  0  0  0  0  0  0  0  0  0  0
   -1.5390    0.5030    0.8460 C   0  0  0  0  0  0  0  0  0  0  0  0
   -1.8600    1.8560    0.4470 C   0  0  0  0  0  0  0  0  0  0  0  0
   -1.1050    2.5550   -0.3650 C   0  0  0  0  0  0  0  0  0  0  0  0
   -1.4880    3.8550   -0.7000 O   0  0  0  0  0  0  0  0  0  0  0  0
   -2.3320   -0.1360    1.6670 C   0  0  0  0  0  0  0  0  0  0  0  0
   -2.1120   -1.5080    2.1490 C   0  0  2  0  0  0  0  0  0  0  0  0
   -3.3170   -2.0420    2.5860 F   0  0  0  0  0  0  0  0  0  0  0  0
   -1.2580   -1.4270    3.2340 F   0  0  0  0  0  0  0  0  0  0  0  0
   -1.5200   -2.2880    1.2090 F   0  0  0  0  0  0  0  0  0  0  0  0
    0.8450   -0.0650    1.1240 C   0  0  0  0  0  0  0  0  0  0  0  0
    2.0860    0.0270    0.2800 C   0  0  0  0  0  0  0  0  0  0  0  0
  2  1  1  6
  2  3  1  0
  2 16  1  0
  3  4  1  0
  4  5  1  0
  5  6  1  0
  5 15  1  0
  6  7  1  0
  6 10  2  3
  7  8  2  3
  8  9  1  0
 10 11  1  0
 11 12  1  1
 11 13  1  0
 11 14  1  0
 15 16  1  0
M  CHG  1   2   1
M  END
