
     RDKit          3D

 16 17  0  0  0  0  0  0  0  0999 V2000
    4.7040    0.4840    1.2590 F   0  0  0  0  0  0  0  0  0  0  0  0
    4.2560    0.0590    0.0140 C   0  0  1  0  0  0  0  0  0  0  0  0
    4.4540    1.0860   -0.8830 F   0  0  0  0  0  0  0  0  0  0  0  0
    5.0760   -0.9860   -0.3810 F   0  0  0  0  0  0  0  0  0  0  0  0
    2.8620   -0.3940    0.0840 C   0  0  0  0  0  0  0  0  0  0  0  0
    1.8820    0.3480   -0.3330 N   0  0  0  0  0  0  0  0  0  0  0  0
    0.5380   -0.0830   -0.2680 C   0  0  0  0  0  0  0  0  0  0  0  0
    0.2720   -1.3440   -0.5920 C   0  0  0  0  0  0  0  0  0  0  0  0
   -0.9970   -2.0970   -0.6290 C   0  0  0  0  0  0  0  0  0  0  0  0
   -2.1110   -1.2010   -0.8470 N   0  0  0  0  0  0  0  0  0  0  0  0
   -2.4340   -0.5960    0.4510 C   0  0  0  0  0  0  0  0  0  0  0  0
   -1.7180    0.7180    0.4700 C   0  0  0  0  0  0  0  0  0  0  0  0
   -2.2880    1.9250    0.8180 C   0  0  0  0  0  0  0  0  0  0  0  0
   -1.3030    2.8880    0.7080 C   0  0  0  0  0  0  0  0  0  0  0  0
   -0.1690    2.2120    0.2930 C   0  0  0  0  0  0  0  0  0  0  0  0
   -0.4220    0.9100    0.1510 N   0  0  0  0  0  0  0  0  0  0  0  0
  2  1  1  1
  2  3  1  0
  2  4  1  0
  2  5  1  0
  5  6  2  3
  6  7  1  0
  7  8  2  0
  7 16  1  0
  8  9  1  0
  9 10  1  0
 10 11  1  0
 11 12  1  0
 12 13  2  0
 12 16  1  0
 13 14  1  0
 14 15  2  0
 15 16  1  0
M  CHG  1  10   1
M  END
