
     RDKit          3D

 16 17  0  0  0  0  0  0  0  0999 V2000
   -2.6240    2.7130    0.4000 C   0  0  0  0  0  0  0  0  0  0  0  0
   -2.4150    1.2340    0.4830 C   0  0  0  0  0  0  0  0  0  0  0  0
   -1.4250    0.4440    0.0630 C   0  0  0  0  0  0  0  0  0  0  0  0
   -0.1690    0.4200   -0.5980 N   0  0  0  0  0  0  0  0  0  0  0  0
    0.8460   -0.5760   -0.7610 C   0  0  1  0  0  0  0  0  0  0  0  0
    2.1510   -0.2620   -0.1270 C   0  0  0  0  0  0  0  0  0  0  0  0
    2.8120    0.9870   -0.6260 C   0  0  0  0  0  0  0  0  0  0  0  0
    4.1290    1.2000    0.0920 C   0  0  2  0  0  0  0  0  0  0  0  0
    4.7770    2.3240   -0.3210 F   0  0  0  0  0  0  0  0  0  0  0  0
    4.9610    0.1120   -0.1440 F   0  0  0  0  0  0  0  0  0  0  0  0
    3.8880    1.2250    1.4490 F   0  0  0  0  0  0  0  0  0  0  0  0
    0.4040   -1.9450   -0.2810 C   0  0  0  0  0  0  0  0  0  0  0  0
   -1.0150   -2.2480   -0.6390 C   0  0  0  0  0  0  0  0  0  0  0  0
   -1.8010   -2.0420    0.5870 N   0  0  0  0  0  0  0  0  0  0  0  0
   -2.1470   -0.6840    0.5930 N   0  0  0  0  0  0  0  0  0  0  0  0
   -3.2260    0.1400    1.0560 C   0  0  0  0  0  0  0  0  0  0  0  0
  1  2  1  0
  2  3  2  0
  2 16  1  0
  3  4  1  0
  3 15  1  0
  4  5  1  0
  5  6  1  1
  5 12  1  0
  6  7  1  0
  7  8  1  0
  8  9  1  6
  8 10  1  0
  8 11  1  0
 12 13  1  0
 13 14  1  0
 14 15  1  0
 15 16  1  0
M  CHG  1  14   1
M  END
