
     RDKit          3D

 16 17  0  0  0  0  0  0  0  0999 V2000
   -4.6150    1.1660    0.9750 C   0  0  0  0  0  0  0  0  0  0  0  0
   -3.5100    0.2230    0.6870 C   0  0  0  0  0  0  0  0  0  0  0  0
   -3.5760   -1.0450    0.8710 N   0  0  0  0  0  0  0  0  0  0  0  0
   -2.3630   -1.6740    0.5030 N   0  0  0  0  0  0  0  0  0  0  0  0
   -1.5070   -0.6580    0.0400 C   0  0  0  0  0  0  0  0  0  0  0  0
   -0.1450   -0.9000   -0.4690 C   0  0  0  0  0  0  0  0  0  0  0  0
    0.5520    0.3170   -0.8630 N   0  0  0  0  0  0  0  0  0  0  0  0
    1.7250   -0.0630   -1.6410 C   0  0  0  0  0  0  0  0  0  0  0  0
    2.5620   -0.8120   -0.6540 C   0  0  0  0  0  0  0  0  0  0  0  0
    2.4360    0.0540    0.5840 C   0  0  1  0  0  0  0  0  0  0  0  0
    3.7250    0.8640    0.6420 C   0  0  1  0  0  0  0  0  0  0  0  0
    3.8690    1.6510   -0.4860 F   0  0  0  0  0  0  0  0  0  0  0  0
    3.8710    1.5890    1.7750 F   0  0  0  0  0  0  0  0  0  0  0  0
    4.7470   -0.0950    0.5840 F   0  0  0  0  0  0  0  0  0  0  0  0
    1.2310    0.8970    0.3060 C   0  0  0  0  0  0  0  0  0  0  0  0
   -2.1710    0.4730    0.1470 C   0  0  0  0  0  0  0  0  0  0  0  0
  1  2  1  0
  2  3  2  0
  2 16  1  0
  3  4  1  0
  4  5  1  0
  5  6  1  0
  5 16  2  0
  6  7  1  0
  7  8  1  0
  7 15  1  0
  8  9  1  0
 10  9  1  6
 10 11  1  0
 10 15  1  0
 11 12  1  6
 11 13  1  0
 11 14  1  0
M  CHG  1   4   1
M  END
