
     RDKit          3D

 26 27  0  0  0  0  0  0  0  0999 V2000
   -5.6510    2.2510   -1.7240 C   0  0  0  0  0  0  0  0  0  0  0  0
   -4.7330    1.5950   -0.7150 C   0  0  0  0  0  0  0  0  0  0  0  0
   -4.6080    0.2580   -0.4800 C   0  0  0  0  0  0  0  0  0  0  0  0
   -5.4030   -0.6900   -1.2340 C   0  0  0  0  0  0  0  0  0  0  0  0
   -5.5640   -1.9570   -1.2740 C   0  0  0  0  0  0  0  0  0  0  0  0
   -4.9810   -2.9080   -0.5430 F   0  0  0  0  0  0  0  0  0  0  0  0
   -6.4930   -2.4330   -2.2260 F   0  0  0  0  0  0  0  0  0  0  0  0
   -3.6200    0.0750    0.5680 C   0  0  0  0  0  0  0  0  0  0  0  0
   -3.0640   -1.1920    1.1280 C   0  0  2  0  0  0  0  0  0  0  0  0
   -2.4550   -0.9870    2.4240 N   0  0  0  0  0  0  0  0  0  0  0  0
   -2.1490   -1.8810    0.1790 C   0  0  0  0  0  0  0  0  0  0  0  0
   -0.9290   -1.3170   -0.1250 O   0  0  0  0  0  0  0  0  0  0  0  0
    0.2180   -1.1200    0.5260 C   0  0  0  0  0  0  0  0  0  0  0  0
    0.3460   -1.5140    1.7040 O   0  0  0  0  0  0  0  0  0  0  0  0
    1.3390   -0.4220   -0.1800 C   0  0  0  0  0  0  0  0  0  0  0  0
    2.4930   -0.3400    0.7850 C   0  0  0  0  0  0  0  0  0  0  0  0
    3.5950    0.3190    0.1730 N   0  0  0  0  0  0  0  0  0  0  0  0
    4.2150   -0.2020   -0.9830 C   0  0  0  0  0  0  0  0  0  0  0  0
    3.8160   -1.2590   -1.5030 O   0  0  0  0  0  0  0  0  0  0  0  0
    5.3670    0.5300   -1.5890 C   0  0  2  0  0  0  0  0  0  0  0  0
    6.6370   -0.2840   -1.5330 C   0  0  0  0  0  0  0  0  0  0  0  0
    7.0110   -0.0810   -0.0570 C   0  0  0  0  0  0  0  0  0  0  0  0
    6.6100    1.3710    0.1000 C   0  0  0  0  0  0  0  0  0  0  0  0
    5.6690    1.6510   -0.8450 O   0  0  0  0  0  0  0  0  0  0  0  0
   -3.1660    1.2630    0.9620 C   0  0  0  0  0  0  0  0  0  0  0  0
   -3.8260    2.3020    0.1960 C   0  0  0  0  0  0  0  0  0  0  0  0
  1  2  1  0
  2  3  2  0
  2 26  1  0
  3  4  1  0
  3  8  1  0
  4  5  2  3
  5  6  1  0
  5  7  1  0
  8  9  1  0
  8 25  2  0
  9 10  1  1
  9 11  1  0
 11 12  1  0
 12 13  1  0
 13 14  2  0
 13 15  1  0
 15 16  1  0
 16 17  1  0
 17 18  1  0
 18 19  2  0
 20 18  1  1
 20 21  1  0
 20 24  1  0
 21 22  1  0
 22 23  1  0
 23 24  1  0
 25 26  1  0
M  CHG  1  10   1
M  END
