
     RDKit          3D

 27 28  0  0  0  0  0  0  0  0999 V2000
   -4.0580    1.5220   -1.1490 C   0  0  0  0  0  0  0  0  0  0  0  0
   -3.0680    1.6470   -0.0060 C   0  0  2  0  0  0  0  0  0  0  0  0
   -2.6390    3.0970    0.0550 C   0  0  0  0  0  0  0  0  0  0  0  0
   -1.9210    0.7170   -0.3130 C   0  0  0  0  0  0  0  0  0  0  0  0
   -1.1280    0.3190    0.9180 C   0  0  2  0  0  0  0  0  0  0  0  0
   -0.2110   -0.7010    0.4650 N   0  0  0  0  0  0  0  0  0  0  0  0
    1.1730   -0.4820    0.6030 C   0  0  0  0  0  0  0  0  0  0  0  0
    2.0260   -1.3520    0.1890 O   0  0  0  0  0  0  0  0  0  0  0  0
    1.8030    0.7270    1.2190 C   0  0  0  0  0  0  0  0  0  0  0  0
    2.3130    1.6760    0.1730 C   0  0  2  0  0  0  0  0  0  0  0  0
    1.3510    2.1320   -0.6920 O   0  0  0  0  0  0  0  0  0  0  0  0
    3.5750    1.2460   -0.4790 C   0  0  0  0  0  0  0  0  0  0  0  0
    4.8720    1.2520    0.1530 C   0  0  0  0  0  0  0  0  0  0  0  0
    5.9560    0.7280   -0.5790 O   0  0  0  0  0  0  0  0  0  0  0  0
    5.1470    1.6990    1.3450 C   0  0  0  0  0  0  0  0  0  0  0  0
    4.2960    2.2460    2.2380 F   0  0  0  0  0  0  0  0  0  0  0  0
    3.5090    0.7590   -1.7380 C   0  0  0  0  0  0  0  0  0  0  0  0
    4.6240    0.3570   -2.3700 F   0  0  0  0  0  0  0  0  0  0  0  0
    2.3210    0.6770   -2.3580 F   0  0  0  0  0  0  0  0  0  0  0  0
   -0.6520   -1.9420   -0.1240 C   0  0  1  0  0  0  0  0  0  0  0  0
   -0.1470   -2.1970   -1.5160 C   0  0  0  0  0  0  0  0  0  0  0  0
   -0.1100   -3.7150   -1.5880 C   0  0  0  0  0  0  0  0  0  0  0  0
   -0.6650   -4.2040   -0.3270 N   0  0  0  0  0  0  0  0  0  0  0  0
   -0.2000   -3.1730    0.6180 C   0  0  0  0  0  0  0  0  0  0  0  0
   -2.0700   -0.1500    1.9700 C   0  0  0  0  0  0  0  0  0  0  0  0
   -3.4760   -0.0640    1.4820 C   0  0  0  0  0  0  0  0  0  0  0  0
   -3.7440    1.2650    1.1530 O   0  0  0  0  0  0  0  0  0  0  0  0
  2  1  1  6
  2  3  1  0
  2  4  1  0
  2 27  1  0
  4  5  1  0
  5  6  1  6
  5 25  1  0
  6  7  1  0
 20  6  1  1
  7  8  2  0
  7  9  1  0
  9 10  1  0
 10 11  1  6
 10 12  1  0
 12 13  1  0
 12 17  2  3
 13 14  1  0
 13 15  2  3
 15 16  1  0
 17 18  1  0
 17 19  1  0
 20 21  1  0
 20 24  1  0
 21 22  1  0
 22 23  1  0
 23 24  1  0
 25 26  1  0
 26 27  1  0
M  CHG  1  23   1
M  END
