
     RDKit          3D

 27 27  0  0  0  0  0  0  0  0999 V2000
    7.1440   -0.6810   -1.2370 C   0  0  0  0  0  0  0  0  0  0  0  0
    5.7070   -0.4810   -1.1940 C   0  0  0  0  0  0  0  0  0  0  0  0
    5.0530   -0.0350   -0.1240 C   0  0  0  0  0  0  0  0  0  0  0  0
    3.5680    0.0990   -0.2970 C   0  0  0  0  0  0  0  0  0  0  0  0
    2.8520   -0.9510    0.4530 C   0  0  1  0  0  0  0  0  0  0  0  0
    3.0200   -1.0350    1.7780 O   0  0  0  0  0  0  0  0  0  0  0  0
    1.3760   -1.0440    0.0510 C   0  0  2  0  0  0  0  0  0  0  0  0
    1.2780   -0.9560   -1.3100 O   0  0  0  0  0  0  0  0  0  0  0  0
    0.4970   -0.1570    0.8470 C   0  0  1  0  0  0  0  0  0  0  0  0
    0.6510    1.3060    0.6480 C   0  0  0  0  0  0  0  0  0  0  0  0
   -0.9130   -0.4920    0.5040 N   0  0  2  0  0  0  0  0  0  0  0  0
   -1.0910   -1.9330    0.6420 C   0  0  0  0  0  0  0  0  0  0  0  0
   -1.2380   -0.0910   -0.7970 C   0  0  0  0  0  0  0  0  0  0  0  0
   -2.5080    0.4930   -1.1510 C   0  0  0  0  0  0  0  0  0  0  0  0
   -2.6080    0.8010   -2.4500 O   0  0  0  0  0  0  0  0  0  0  0  0
   -3.6180    0.7810   -0.3860 N   0  0  0  0  0  0  0  0  0  0  0  0
   -3.8430    0.5820    1.0140 C   0  0  0  0  0  0  0  0  0  0  0  0
   -5.2940    0.9970    1.3860 C   0  0  0  0  0  0  0  0  0  0  0  0
   -6.3000    0.3310    0.5090 C   0  0  0  0  0  0  0  0  0  0  0  0
   -5.9130    0.4050   -0.9580 C   0  0  1  0  0  0  0  0  0  0  0  0
   -6.9920    0.7950   -1.7440 O   0  0  0  0  0  0  0  0  0  0  0  0
   -4.7940    1.4030   -1.0880 C   0  0  0  0  0  0  0  0  0  0  0  0
    5.7910    0.3050    1.0670 C   0  0  0  0  0  0  0  0  0  0  0  0
    7.1510    0.0310    1.0120 F   0  0  0  0  0  0  0  0  0  0  0  0
    5.3800    0.8240    2.1900 C   0  0  0  0  0  0  0  0  0  0  0  0
    6.2860    1.0530    3.2120 F   0  0  0  0  0  0  0  0  0  0  0  0
    4.1450    1.2580    2.4340 F   0  0  0  0  0  0  0  0  0  0  0  0
  1  2  1  0
  2  3  2  3
  3  4  1  0
  3 23  1  0
  4  5  1  0
  5  6  1  1
  5  7  1  0
  7  8  1  6
  7  9  1  0
  9 10  1  6
  9 11  1  0
 11 12  1  6
 11 13  1  0
 13 14  1  0
 14 15  2  0
 14 16  1  0
 16 17  1  0
 16 22  1  0
 17 18  1  0
 18 19  1  0
 19 20  1  0
 20 21  1  6
 20 22  1  0
 23 24  1  0
 23 25  2  3
 25 26  1  0
 25 27  1  0
M  CHG  1  11   1
M  END
