
     RDKit          3D

 27 27  0  0  0  0  0  0  0  0999 V2000
   -1.7530   -3.3930    1.2950 C   0  0  0  0  0  0  0  0  0  0  0  0
   -2.5480   -2.5410    0.6460 C   0  0  0  0  0  0  0  0  0  0  0  0
   -3.9530   -3.0380    0.5290 C   0  0  0  0  0  0  0  0  0  0  0  0
   -2.0400   -1.2870    0.1510 C   0  0  0  0  0  0  0  0  0  0  0  0
   -2.7210   -0.4310   -0.5220 C   0  0  0  0  0  0  0  0  0  0  0  0
   -4.1070   -0.4010   -0.9980 C   0  0  1  0  0  0  0  0  0  0  0  0
   -4.2270    0.7480   -1.8880 F   0  0  0  0  0  0  0  0  0  0  0  0
   -4.3150   -1.4480   -1.9210 F   0  0  0  0  0  0  0  0  0  0  0  0
   -5.1170   -0.2060   -0.1280 F   0  0  0  0  0  0  0  0  0  0  0  0
   -0.5880   -1.0260    0.4460 C   0  0  0  0  0  0  0  0  0  0  0  0
   -0.0440    0.2410   -0.0600 C   0  0  2  0  0  0  0  0  0  0  0  0
    1.5010    0.2430    0.3380 C   0  0  0  0  0  0  0  0  0  0  0  0
    2.1330   -0.8980   -0.1600 N   0  0  1  0  0  0  0  0  0  0  0  0
    2.0470   -1.2110   -1.5420 C   0  0  0  0  0  0  0  0  0  0  0  0
    2.5300   -2.6740   -1.6510 C   0  0  0  0  0  0  0  0  0  0  0  0
    3.8670   -2.6940   -1.3500 O   0  0  0  0  0  0  0  0  0  0  0  0
    4.2510   -2.1040   -0.1700 C   0  0  1  0  0  0  0  0  0  0  0  0
    5.7470   -1.8500   -0.2910 C   0  0  0  0  0  0  0  0  0  0  0  0
    3.6020   -0.7650    0.1040 C   0  0  0  0  0  0  0  0  0  0  0  0
   -0.4610    1.3650    0.6060 O   0  0  0  0  0  0  0  0  0  0  0  0
   -0.6390    2.5130   -0.0900 C   0  0  0  0  0  0  0  0  0  0  0  0
   -1.1530    3.6310    0.8280 C   0  0  2  0  0  0  0  0  0  0  0  0
   -0.0830    4.2430    1.6540 C   0  0  0  0  0  0  0  0  0  0  0  0
   -2.2690    3.2050    1.5070 O   0  0  0  0  0  0  0  0  0  0  0  0
   -1.6400    4.6910   -0.1600 C   0  0  0  0  0  0  0  0  0  0  0  0
   -3.0120    4.5990   -0.5740 N   0  0  0  0  0  0  0  0  0  0  0  0
   -0.9440    5.5910   -0.6210 O   0  0  0  0  0  0  0  0  0  0  0  0
  1  2  2  0
  2  3  1  0
  2  4  1  0
  4  5  2  3
  4 10  1  0
  5  6  1  0
  6  7  1  6
  6  8  1  0
  6  9  1  0
 11 10  1  1
 11 12  1  0
 11 20  1  0
 13 12  1  6
 13 14  1  0
 13 19  1  0
 14 15  1  0
 15 16  1  0
 16 17  1  0
 17 18  1  6
 17 19  1  0
 20 21  1  0
 21 22  1  0
 22 23  1  1
 22 24  1  0
 22 25  1  0
 25 26  1  0
 25 27  2  0
M  CHG  1  13   1
M  END
