
     RDKit          3D

 20 21  0  0  0  0  0  0  0  0999 V2000
   -1.3660   -2.2250   -0.8790 C   0  0  0  0  0  0  0  0  0  0  0  0
   -1.3060   -0.7600   -0.3810 C   0  0  2  0  0  0  0  0  0  0  0  0
   -2.3210   -0.0230   -1.1490 C   0  0  2  0  0  0  0  0  0  0  0  0
   -2.1020   -0.3620   -2.5190 O   0  0  0  0  0  0  0  0  0  0  0  0
   -2.1120    1.5000   -1.1720 C   0  0  0  0  0  0  0  0  0  0  0  0
   -3.0860    1.9730   -2.0730 O   0  0  0  0  0  0  0  0  0  0  0  0
   -0.0340   -0.3360   -0.7970 O   0  0  0  0  0  0  0  0  0  0  0  0
    0.5370    0.2630    0.3440 C   0  0  2  0  0  0  0  0  0  0  0  0
    2.0050    0.4610    0.2040 C   0  0  2  0  0  0  0  0  0  0  0  0
    2.4930    1.0480    1.3520 O   0  0  0  0  0  0  0  0  0  0  0  0
    2.2270    1.4020   -0.9820 C   0  0  0  0  0  0  0  0  0  0  0  0
    3.4430    1.1600   -1.5880 O   0  0  0  0  0  0  0  0  0  0  0  0
    4.3920    0.7660   -0.6750 C   0  0  0  0  0  0  0  0  0  0  0  0
    4.1380   -0.4470   -0.0840 O   0  0  0  0  0  0  0  0  0  0  0  0
    2.7810   -0.7840   -0.0700 C   0  0  0  0  0  0  0  0  0  0  0  0
    0.1310   -0.6840    1.4210 C   0  0  1  0  0  0  0  0  0  0  0  0
    0.3290   -0.1950    2.7500 N   0  0  0  0  0  0  0  0  0  0  0  0
   -1.3620   -0.8310    1.0760 C   0  0  1  0  0  0  0  0  0  0  0  0
   -2.0980    0.1740    1.8540 C   0  0  0  0  0  0  0  0  0  0  0  0
   -3.4560    0.2560    1.5630 O   0  0  0  0  0  0  0  0  0  0  0  0
  2  1  1  6
  2  3  1  0
  2  7  1  0
  2 18  1  0
  3  4  1  6
  3  5  1  0
  5  6  1  0
  8  7  1  6
  8  9  1  0
  8 16  1  0
  9 10  1  1
  9 11  1  0
  9 15  1  0
 11 12  1  0
 12 13  1  0
 13 14  1  0
 14 15  1  0
 16 17  1  1
 16 18  1  0
 18 19  1  1
 19 20  1  0
M  CHG  1  17   1
M  END
