
     RDKit          3D

 27 28  0  0  0  0  0  0  0  0999 V2000
   -4.5930   -1.2340    0.3690 C   0  0  0  0  0  0  0  0  0  0  0  0
   -4.2960    0.2230    0.4710 C   0  0  1  0  0  0  0  0  0  0  0  0
   -4.3010    0.8790   -0.9030 C   0  0  0  0  0  0  0  0  0  0  0  0
   -5.3300    0.8240    1.1910 O   0  0  0  0  0  0  0  0  0  0  0  0
   -2.9930    0.5290    1.1630 C   0  0  1  0  0  0  0  0  0  0  0  0
   -3.0590    0.1670    2.6370 C   0  0  0  0  0  0  0  0  0  0  0  0
   -4.1720    0.7490    3.1900 O   0  0  0  0  0  0  0  0  0  0  0  0
   -1.8540   -0.0420    0.5070 N   0  0  0  0  0  0  0  0  0  0  0  0
   -0.7870    0.7210   -0.0380 C   0  0  0  0  0  0  0  0  0  0  0  0
   -0.8070    1.9530    0.0400 O   0  0  0  0  0  0  0  0  0  0  0  0
    0.3830    0.0700   -0.7150 C   0  0  0  0  0  0  0  0  0  0  0  0
    1.3290    1.0670   -1.1780 N   0  0  1  0  0  0  0  0  0  0  0  0
    2.0960    1.5580   -0.0250 C   0  0  0  0  0  0  0  0  0  0  0  0
    2.7740    0.3650    0.5820 C   0  0  0  0  0  0  0  0  0  0  0  0
    2.5250    0.0340    1.8030 C   0  0  0  0  0  0  0  0  0  0  0  0
    3.0490   -1.0790    2.6110 C   0  0  1  0  0  0  0  0  0  0  0  0
    4.2380   -0.8230    3.2260 F   0  0  0  0  0  0  0  0  0  0  0  0
    2.1160   -1.3840    3.6440 F   0  0  0  0  0  0  0  0  0  0  0  0
    3.1500   -2.2210    1.8390 F   0  0  0  0  0  0  0  0  0  0  0  0
    3.7050   -0.3590   -0.2640 C   0  0  0  0  0  0  0  0  0  0  0  0
    4.8150   -1.0260   -0.0580 C   0  0  0  0  0  0  0  0  0  0  0  0
    5.3140   -1.5540   -1.3530 C   0  0  0  0  0  0  0  0  0  0  0  0
    4.3190   -1.0160   -2.3330 C   0  0  0  0  0  0  0  0  0  0  0  0
    3.3770   -0.3180   -1.7090 C   0  0  0  0  0  0  0  0  0  0  0  0
    2.1960    0.4240   -2.0910 C   0  0  0  0  0  0  0  0  0  0  0  0
    1.9610    0.4700   -3.4170 C   0  0  0  0  0  0  0  0  0  0  0  0
    0.8270    1.1780   -3.8180 O   0  0  0  0  0  0  0  0  0  0  0  0
  2  1  1  6
  2  3  1  0
  2  4  1  0
  2  5  1  0
  5  6  1  1
  5  8  1  0
  6  7  1  0
  8  9  1  0
  9 10  2  0
  9 11  1  0
 12 11  1  1
 12 13  1  0
 12 25  1  0
 13 14  1  0
 14 15  2  3
 14 20  1  0
 15 16  1  0
 16 17  1  1
 16 18  1  0
 16 19  1  0
 20 21  2  0
 20 24  1  0
 21 22  1  0
 22 23  1  0
 23 24  2  0
 24 25  1  0
 25 26  2  3
 26 27  1  0
M  CHG  1  12   1
M  END
