
     RDKit          3D

 27 28  0  0  0  0  0  0  0  0999 V2000
   -3.0590    4.3090    0.2910 C   0  0  0  0  0  0  0  0  0  0  0  0
   -3.6650    2.9890    0.0900 N   0  0  0  0  0  0  0  0  0  0  0  0
   -2.8820    1.8660   -0.2760 C   0  0  0  0  0  0  0  0  0  0  0  0
   -1.6510    2.0680   -0.4150 O   0  0  0  0  0  0  0  0  0  0  0  0
   -3.4730    0.5600   -0.4790 C   0  0  0  0  0  0  0  0  0  0  0  0
   -2.5950   -0.5470   -0.8780 C   0  0  2  0  0  0  0  0  0  0  0  0
   -3.4170   -1.8030   -1.0100 C   0  0  2  0  0  0  0  0  0  0  0  0
   -4.7140   -1.5210   -1.3600 O   0  0  0  0  0  0  0  0  0  0  0  0
   -3.2440   -2.4150    0.3470 C   0  0  2  0  0  0  0  0  0  0  0  0
   -4.0540   -1.8430    1.3200 O   0  0  0  0  0  0  0  0  0  0  0  0
   -1.7550   -2.1380    0.6040 C   0  0  1  0  0  0  0  0  0  0  0  0
   -1.0350   -3.3440    0.0680 C   0  0  0  0  0  0  0  0  0  0  0  0
    0.3360   -3.3290    0.2630 O   0  0  0  0  0  0  0  0  0  0  0  0
   -1.5090   -0.8730    0.0490 N   0  0  1  0  0  0  0  0  0  0  0  0
   -0.2590   -0.6700   -0.6080 C   0  0  0  0  0  0  0  0  0  0  0  0
    0.8620   -0.1020    0.2280 C   0  0  0  0  0  0  0  0  0  0  0  0
    1.9590    0.2350   -0.7510 C   0  0  0  0  0  0  0  0  0  0  0  0
    3.2040    0.7500   -0.1960 C   0  0  0  0  0  0  0  0  0  0  0  0
    3.3030    2.0130    0.3000 C   0  0  0  0  0  0  0  0  0  0  0  0
    4.5070    2.5440    0.6870 C   0  0  0  0  0  0  0  0  0  0  0  0
    5.6820    1.8080    0.5850 C   0  0  0  0  0  0  0  0  0  0  0  0
    5.5900    0.5160    0.0740 C   0  0  0  0  0  0  0  0  0  0  0  0
    6.8610   -0.2430   -0.0760 C   0  0  2  0  0  0  0  0  0  0  0  0
    7.0510   -1.1300    0.9530 F   0  0  0  0  0  0  0  0  0  0  0  0
    7.9460    0.6280   -0.1200 F   0  0  0  0  0  0  0  0  0  0  0  0
    6.8520   -0.9230   -1.2850 F   0  0  0  0  0  0  0  0  0  0  0  0
    4.3860    0.0040   -0.3020 C   0  0  0  0  0  0  0  0  0  0  0  0
  1  2  1  0
  2  3  1  0
  3  4  2  0
  3  5  1  0
  6  5  1  1
  6  7  1  0
  6 14  1  0
  7  8  1  1
  7  9  1  0
  9 10  1  1
  9 11  1  0
 11 12  1  6
 11 14  1  0
 12 13  1  0
 14 15  1  6
 15 16  1  0
 16 17  1  0
 17 18  1  0
 18 19  2  0
 18 27  1  0
 19 20  1  0
 20 21  2  0
 21 22  1  0
 22 23  1  0
 22 27  2  0
 23 24  1  1
 23 25  1  0
 23 26  1  0
M  CHG  1  14   1
M  END
