
     RDKit          3D

 26 27  0  0  0  0  0  0  0  0999 V2000
   -3.5190   -2.1300   -1.4060 C   0  0  0  0  0  0  0  0  0  0  0  0
   -3.9810   -1.0400   -0.4270 C   0  0  2  0  0  0  0  0  0  0  0  0
   -3.5000   -1.3980    0.8040 F   0  0  0  0  0  0  0  0  0  0  0  0
   -5.4640   -1.0960   -0.4170 C   0  0  0  0  0  0  0  0  0  0  0  0
   -6.1610   -0.1220    0.4710 C   0  0  0  0  0  0  0  0  0  0  0  0
   -5.7970   -0.2800    1.8220 O   0  0  0  0  0  0  0  0  0  0  0  0
   -3.4800    0.3010   -0.8820 C   0  0  1  0  0  0  0  0  0  0  0  0
   -3.8700    1.3000   -0.0310 O   0  0  0  0  0  0  0  0  0  0  0  0
   -1.9730    0.3370   -1.0080 C   0  0  2  0  0  0  0  0  0  0  0  0
   -1.2690   -0.0950    0.2460 C   0  0  0  0  0  0  0  0  0  0  0  0
    0.0470    0.5550    0.3650 N   0  0  1  0  0  0  0  0  0  0  0  0
    0.9020    0.2340   -0.7300 C   0  0  0  0  0  0  0  0  0  0  0  0
    2.2590   -0.3220   -0.2660 C   0  0  2  0  0  0  0  0  0  0  0  0
    2.0310   -1.4910    0.4810 O   0  0  0  0  0  0  0  0  0  0  0  0
    2.9440    0.6660    0.6130 C   0  0  0  0  0  0  0  0  0  0  0  0
    4.1440    0.1980    1.0880 O   0  0  0  0  0  0  0  0  0  0  0  0
    5.3120   -0.1580    0.5250 C   0  0  0  0  0  0  0  0  0  0  0  0
    5.6430   -0.1200   -0.7960 C   0  0  0  0  0  0  0  0  0  0  0  0
    6.8940   -0.5200   -1.2760 C   0  0  0  0  0  0  0  0  0  0  0  0
    7.8530   -0.9740   -0.4190 C   0  0  0  0  0  0  0  0  0  0  0  0
    7.5320   -1.0170    0.9280 C   0  0  0  0  0  0  0  0  0  0  0  0
    8.5200   -1.4770    1.7540 F   0  0  0  0  0  0  0  0  0  0  0  0
    6.3080   -0.6260    1.3940 C   0  0  0  0  0  0  0  0  0  0  0  0
   -0.2310    1.9560    0.5090 C   0  0  0  0  0  0  0  0  0  0  0  0
   -0.9200    2.4930   -0.6840 C   0  0  0  0  0  0  0  0  0  0  0  0
   -1.5800    1.5900   -1.5220 N   0  0  0  0  0  0  0  0  0  0  0  0
  2  1  1  6
  2  3  1  0
  2  4  1  0
  2  7  1  0
  4  5  1  0
  5  6  1  0
  7  8  1  1
  7  9  1  0
  9 10  1  1
  9 26  1  0
 10 11  1  0
 11 12  1  6
 11 24  1  0
 12 13  1  0
 13 14  1  1
 13 15  1  0
 15 16  1  0
 16 17  1  0
 17 18  2  0
 17 23  1  0
 18 19  1  0
 19 20  2  0
 20 21  1  0
 21 22  1  0
 21 23  2  0
 24 25  1  0
 25 26  1  0
M  CHG  1  11   1
M  END
