
     RDKit          3D

 26 26  0  0  0  0  0  0  0  0999 V2000
   -2.6180    3.4700   -1.6730 C   0  0  0  0  0  0  0  0  0  0  0  0
   -1.7460    2.5560   -1.3280 C   0  0  0  0  0  0  0  0  0  0  0  0
   -1.9850    1.6440   -0.2070 C   0  0  0  0  0  0  0  0  0  0  0  0
   -1.2000    0.6860    0.2450 C   0  0  0  0  0  0  0  0  0  0  0  0
    0.0770    0.3860   -0.3360 N   0  0  0  0  0  0  0  0  0  0  0  0
    0.9010   -0.6550    0.1770 C   0  0  0  0  0  0  0  0  0  0  0  0
    0.4270   -1.2930    1.1750 O   0  0  0  0  0  0  0  0  0  0  0  0
    2.1730   -1.0320   -0.3210 C   0  0  0  0  0  0  0  0  0  0  0  0
    3.1540   -0.9110    0.5330 C   0  0  0  0  0  0  0  0  0  0  0  0
    4.1690   -0.6900    1.3370 C   0  0  0  0  0  0  0  0  0  0  0  0
    4.7320    0.5390    1.2500 O   0  0  0  0  0  0  0  0  0  0  0  0
    5.7280    0.8030    0.2930 C   0  0  0  0  0  0  0  0  0  0  0  0
    6.9230   -0.1010    0.5000 C   0  0  0  0  0  0  0  0  0  0  0  0
    2.5430   -1.5270   -1.6330 C   0  0  0  0  0  0  0  0  0  0  0  0
    1.7800   -2.8220   -1.8870 C   0  0  0  0  0  0  0  0  0  0  0  0
   -1.7950    0.0430    1.3350 O   0  0  0  0  0  0  0  0  0  0  0  0
   -3.1890    0.2470    1.1830 C   0  0  2  0  0  0  0  0  0  0  0  0
   -3.8980    0.1370    2.4340 N   0  0  0  0  0  0  0  0  0  0  0  0
   -5.2730    0.4790    2.4480 C   0  0  0  0  0  0  0  0  0  0  0  0
   -5.8810    0.8680    1.4220 O   0  0  0  0  0  0  0  0  0  0  0  0
   -3.2800   -0.2910    3.6160 C   0  0  0  0  0  0  0  0  0  0  0  0
   -3.9180   -0.3790    4.6960 O   0  0  0  0  0  0  0  0  0  0  0  0
   -3.8010   -0.8890   -0.1180 P   0  0  0  0  0  0  0  0  0  0  0  0
   -3.6850   -2.5480    0.2900 O   0  0  0  0  0  0  0  0  0  0  0  0
   -5.3040   -0.4350   -0.7960 O   0  0  0  0  0  0  0  0  0  0  0  0
   -3.2040    1.6580    0.6360 C   0  0  0  0  0  0  0  0  0  0  0  0
  1  2  2  0
  2  3  1  0
  3  4  2  0
  3 26  1  0
  4  5  1  0
  4 16  1  0
  5  6  1  0
  6  7  2  0
  6  8  1  0
  8  9  2  0
  8 14  1  0
  9 10  2  0
 10 11  1  0
 11 12  1  0
 12 13  1  0
 14 15  1  0
 16 17  1  0
 17 18  1  1
 17 23  1  0
 17 26  1  0
 18 19  1  0
 18 21  1  0
 19 20  2  0
 21 22  2  0
 23 24  1  0
 23 25  1  0
M  END
