
     RDKit          3D

 26 25  0  0  0  0  0  0  0  0999 V2000
    5.9280    2.4940    0.7020 C   0  0  0  0  0  0  0  0  0  0  0  0
    5.9650    1.0620    0.1380 C   0  0  2  0  0  0  0  0  0  0  0  0
    6.1890    1.1700   -1.3490 C   0  0  0  0  0  0  0  0  0  0  0  0
    4.6870    0.4110    0.3580 N   0  0  0  0  0  0  0  0  0  0  0  0
    4.4920   -0.8130    1.0730 C   0  0  0  0  0  0  0  0  0  0  0  0
    4.5380   -2.0440    0.2450 C   0  0  0  0  0  0  0  0  0  0  0  0
    6.0760   -2.3830   -0.6530 P   0  0  0  0  0  0  0  0  0  0  0  0
    7.5190   -2.1140    0.1900 O   0  0  0  0  0  0  0  0  0  0  0  0
    6.0960   -1.9290   -2.3010 O   0  0  0  0  0  0  0  0  0  0  0  0
    3.5250    1.0680   -0.1870 C   0  0  0  0  0  0  0  0  0  0  0  0
    3.6610    2.1400   -0.8090 O   0  0  0  0  0  0  0  0  0  0  0  0
    2.2660    0.5420   -0.0380 O   0  0  0  0  0  0  0  0  0  0  0  0
    1.0900    1.0920   -0.5220 C   0  0  0  0  0  0  0  0  0  0  0  0
    1.0720    2.1720   -1.1680 N   0  0  0  0  0  0  0  0  0  0  0  0
   -0.1960    0.3840   -0.2690 C   0  0  0  0  0  0  0  0  0  0  0  0
   -1.3130    0.8850   -0.7150 C   0  0  0  0  0  0  0  0  0  0  0  0
   -2.6430    0.2420   -0.5070 C   0  0  0  0  0  0  0  0  0  0  0  0
   -3.4090    1.1390    0.1880 O   0  0  0  0  0  0  0  0  0  0  0  0
   -4.6720    0.6790    0.4200 C   0  0  0  0  0  0  0  0  0  0  0  0
   -4.6640   -0.5620    1.2480 C   0  0  0  0  0  0  0  0  0  0  0  0
   -6.1110   -1.0030    1.4900 C   0  0  0  0  0  0  0  0  0  0  0  0
   -6.6940   -1.2480    0.1730 C   0  0  0  0  0  0  0  0  0  0  0  0
   -6.0860   -2.2230   -0.6190 O   0  0  0  0  0  0  0  0  0  0  0  0
   -7.7320   -0.6180   -0.2910 C   0  0  0  0  0  0  0  0  0  0  0  0
   -8.4980    0.4280    0.3880 C   0  0  0  0  0  0  0  0  0  0  0  0
   -8.4530    1.6110   -0.3790 O   0  0  0  0  0  0  0  0  0  0  0  0
  2  1  1  6
  2  3  1  0
  2  4  1  0
  4  5  1  0
  4 10  1  0
  5  6  1  0
  6  7  1  0
  7  8  1  0
  7  9  1  0
 10 11  2  0
 10 12  1  0
 12 13  1  0
 13 14  2  0
 13 15  1  0
 15 16  2  3
 16 17  1  0
 17 18  1  0
 18 19  1  0
 19 20  1  0
 20 21  1  0
 21 22  1  0
 22 23  1  0
 22 24  2  3
 24 25  1  0
 25 26  1  0
M  END
