
     RDKit          3D

 26 27  0  0  0  0  0  0  0  0999 V2000
   -0.6150    5.5740   -2.3630 C   0  0  0  0  0  0  0  0  0  0  0  0
   -1.2090    4.4380   -2.0320 C   0  0  0  0  0  0  0  0  0  0  0  0
   -1.0740    3.8550   -0.6730 C   0  0  0  0  0  0  0  0  0  0  0  0
   -0.4410    2.4840   -0.8430 C   0  0  0  0  0  0  0  0  0  0  0  0
   -0.2580    1.8260    0.3730 O   0  0  0  0  0  0  0  0  0  0  0  0
    0.3040    0.5600    0.3850 C   0  0  0  0  0  0  0  0  0  0  0  0
   -0.3960   -0.6160    0.3310 C   0  0  0  0  0  0  0  0  0  0  0  0
   -1.8560   -0.5670    0.2590 C   0  0  0  0  0  0  0  0  0  0  0  0
   -2.5030    0.5590    0.2670 O   0  0  0  0  0  0  0  0  0  0  0  0
   -3.8040    0.6410    0.2040 C   0  0  0  0  0  0  0  0  0  0  0  0
   -4.3960    1.7620    0.2150 O   0  0  0  0  0  0  0  0  0  0  0  0
   -4.6120   -0.4840    0.1210 C   0  0  0  0  0  0  0  0  0  0  0  0
   -5.9950   -0.4020    0.0540 O   0  0  0  0  0  0  0  0  0  0  0  0
   -3.9500   -1.6980    0.1110 C   0  0  0  0  0  0  0  0  0  0  0  0
   -2.5770   -1.7410    0.1790 C   0  0  0  0  0  0  0  0  0  0  0  0
   -1.8920   -2.9490    0.1690 O   0  0  0  0  0  0  0  0  0  0  0  0
   -2.5260   -4.1950    0.0910 C   0  0  0  0  0  0  0  0  0  0  0  0
    0.1910   -1.7880    0.3440 O   0  0  0  0  0  0  0  0  0  0  0  0
    1.4820   -1.9100    0.4090 N   0  0  0  0  0  0  0  0  0  0  0  0
    2.2440   -0.8050    0.4660 C   0  0  0  0  0  0  0  0  0  0  0  0
    3.5420   -0.8700    0.5340 N   0  0  0  0  0  0  0  0  0  0  0  0
    4.2610   -2.1130    0.5520 C   0  0  0  0  0  0  0  0  0  0  0  0
    5.7530   -1.7570    0.5980 C   0  0  0  0  0  0  0  0  0  0  0  0
    6.1350   -0.7640    2.1200 P   0  0  0  0  0  0  0  0  0  0  0  0
    1.6980    0.4550    0.4570 C   0  0  0  0  0  0  0  0  0  0  0  0
    2.3720    1.5070    0.5090 O   0  0  0  0  0  0  0  0  0  0  0  0
  1  2  2  0
  2  3  1  0
  3  4  1  0
  4  5  1  0
  5  6  1  0
  6  7  2  0
  6 25  1  0
  7  8  1  0
  7 18  1  0
  8  9  1  0
  8 15  2  0
  9 10  1  0
 10 11  2  0
 10 12  1  0
 12 13  1  0
 12 14  2  0
 14 15  1  0
 15 16  1  0
 16 17  1  0
 18 19  1  0
 19 20  1  0
 20 21  2  3
 20 25  1  0
 21 22  1  0
 22 23  1  0
 23 24  1  0
 25 26  2  0
M  END
