
     RDKit          3D

 20 20  0  0  0  0  0  0  0  0999 V2000
    1.4170    3.2280   -2.2500 C   0  0  0  0  0  0  0  0  0  0  0  0
    1.8820    1.9610   -1.4950 C   0  0  2  0  0  0  0  0  0  0  0  0
    2.6690    2.4840   -0.4650 F   0  0  0  0  0  0  0  0  0  0  0  0
    2.6230    1.1830   -2.3600 F   0  0  0  0  0  0  0  0  0  0  0  0
    0.7070    1.3070   -0.9570 C   0  0  0  0  0  0  0  0  0  0  0  0
    0.7130    0.2680   -0.1570 C   0  0  0  0  0  0  0  0  0  0  0  0
   -0.5920   -0.2140    0.2550 C   0  0  0  0  0  0  0  0  0  0  0  0
   -0.7280   -1.1860    1.0060 O   0  0  0  0  0  0  0  0  0  0  0  0
   -1.7550    0.4540   -0.2230 O   0  0  0  0  0  0  0  0  0  0  0  0
   -2.9830   -0.0820    0.2280 C   0  0  1  0  0  0  0  0  0  0  0  0
   -3.0020   -0.0020    1.7330 C   0  0  0  0  0  0  0  0  0  0  0  0
   -4.1630    0.6620   -0.3260 C   0  0  0  0  0  0  0  0  0  0  0  0
   -3.0720   -1.5120   -0.2380 C   0  0  0  0  0  0  0  0  0  0  0  0
    1.9220   -0.3810    0.2880 C   0  0  0  0  0  0  0  0  0  0  0  0
    1.9950   -1.4220    1.1000 C   0  0  0  0  0  0  0  0  0  0  0  0
    3.2570   -2.0680    1.5440 C   0  0  0  0  0  0  0  0  0  0  0  0
    4.0520   -2.4920    0.4900 O   0  0  0  0  0  0  0  0  0  0  0  0
    4.3220   -1.1870   -0.6330 P   0  0  0  0  0  0  0  0  0  0  0  0
    4.0930   -1.6730   -2.2590 O   0  0  0  0  0  0  0  0  0  0  0  0
    3.1900    0.0870   -0.1480 O   0  0  0  0  0  0  0  0  0  0  0  0
  2  1  1  6
  2  3  1  0
  2  4  1  0
  2  5  1  0
  5  6  2  3
  6  7  1  0
  6 14  1  0
  7  8  2  0
  7  9  1  0
  9 10  1  0
 10 11  1  1
 10 12  1  0
 10 13  1  0
 14 15  2  0
 14 20  1  0
 15 16  1  0
 16 17  1  0
 17 18  1  0
 18 19  1  0
 18 20  1  0
M  END
