
     RDKit          3D

 26 26  0  0  0  0  0  0  0  0999 V2000
    4.3220   -1.8260    0.6300 C   0  0  0  0  0  0  0  0  0  0  0  0
    3.4130   -2.9080    0.3590 N   0  0  0  0  0  0  0  0  0  0  0  0
    3.9660   -4.2400    0.4250 C   0  0  0  0  0  0  0  0  0  0  0  0
    5.1740   -4.3660    0.7070 O   0  0  0  0  0  0  0  0  0  0  0  0
    3.1360   -5.3070    0.1730 O   0  0  0  0  0  0  0  0  0  0  0  0
    2.0660   -2.7430    0.0440 C   0  0  0  0  0  0  0  0  0  0  0  0
    1.4400   -3.8820   -0.1620 O   0  0  0  0  0  0  0  0  0  0  0  0
    1.2590   -1.5910   -0.0910 C   0  0  0  0  0  0  0  0  0  0  0  0
    1.6050   -0.3420    0.0540 C   0  0  0  0  0  0  0  0  0  0  0  0
    0.6320    0.7510   -0.1250 C   0  0  0  0  0  0  0  0  0  0  0  0
    1.0140    1.9870    0.0290 C   0  0  0  0  0  0  0  0  0  0  0  0
    0.0660    3.0800   -0.1440 C   0  0  0  0  0  0  0  0  0  0  0  0
    0.4250    4.3430    0.0050 C   0  0  0  0  0  0  0  0  0  0  0  0
    1.7640    4.6940    0.3430 N   0  0  0  0  0  0  0  0  0  0  0  0
   -0.5390    5.4540   -0.1700 C   0  0  0  0  0  0  0  0  0  0  0  0
   -0.6640    6.2390    1.0490 N   0  0  0  0  0  0  0  0  0  0  0  0
   -1.0680    0.2950   -0.5550 P   0  0  0  0  0  0  0  0  0  0  0  0
   -1.0700   -0.6520   -2.0330 O   0  0  0  0  0  0  0  0  0  0  0  0
   -1.4460    0.1280   -3.0100 O   0  0  0  0  0  0  0  0  0  0  0  0
   -1.8500   -0.6760    0.6630 O   0  0  0  0  0  0  0  0  0  0  0  0
   -2.9170   -1.4580    0.2770 C   0  0  0  0  0  0  0  0  0  0  0  0
   -3.9470   -0.8960   -0.3140 C   0  0  0  0  0  0  0  0  0  0  0  0
   -5.1340   -1.6780   -0.7580 C   0  0  0  0  0  0  0  0  0  0  0  0
   -5.0070   -3.0490   -0.4710 O   0  0  0  0  0  0  0  0  0  0  0  0
   -3.9250   -3.6140    0.1450 C   0  0  0  0  0  0  0  0  0  0  0  0
   -2.8900   -2.8820    0.5250 C   0  0  0  0  0  0  0  0  0  0  0  0
  1  2  1  0
  2  3  1  0
  2  6  1  0
  3  4  2  0
  3  5  1  0
  6  7  2  0
  6  8  1  0
  8  9  2  3
  9 10  1  0
 10 11  2  3
 10 17  1  0
 11 12  1  0
 12 13  2  3
 13 14  1  0
 13 15  1  0
 15 16  1  0
 17 18  1  0
 17 20  1  0
 18 19  1  0
 20 21  1  0
 21 22  2  0
 21 26  1  0
 22 23  1  0
 23 24  1  0
 24 25  1  0
 25 26  2  0
M  END
