
     RDKit          3D

 26 27  0  0  0  0  0  0  0  0999 V2000
   -4.2170   -0.7510    2.7250 C   0  0  0  0  0  0  0  0  0  0  0  0
   -3.1830   -0.8000    1.6490 C   0  0  0  0  0  0  0  0  0  0  0  0
   -3.0310    0.4070    0.9760 O   0  0  0  0  0  0  0  0  0  0  0  0
   -1.8030    0.1720   -0.2270 P   0  0  0  0  0  0  0  0  0  0  0  0
   -1.4300   -1.5560   -0.4300 N   0  0  0  0  0  0  0  0  0  0  0  0
   -1.9890   -2.2430   -1.3610 C   0  0  0  0  0  0  0  0  0  0  0  0
   -1.6510   -3.6950   -1.5010 C   0  0  0  0  0  0  0  0  0  0  0  0
   -2.8780   -1.6390   -2.2030 O   0  0  0  0  0  0  0  0  0  0  0  0
   -3.3910   -0.4140   -2.0050 O   0  0  0  0  0  0  0  0  0  0  0  0
   -0.2570    1.1160    0.1710 C   0  0  1  0  0  0  0  0  0  0  0  0
    0.7740    0.2270    0.7780 C   0  0  0  0  0  0  0  0  0  0  0  0
    1.1510    0.4800    2.0560 C   0  0  0  0  0  0  0  0  0  0  0  0
    2.0970   -0.2940    2.6950 O   0  0  0  0  0  0  0  0  0  0  0  0
    1.3210   -0.8070    0.0860 O   0  0  0  0  0  0  0  0  0  0  0  0
    2.1330   -0.8990   -1.0220 C   0  0  2  0  0  0  0  0  0  0  0  0
    3.5300   -0.2720   -1.0260 C   0  0  0  0  0  0  0  0  0  0  0  0
    4.4300   -0.8500    0.0210 C   0  0  0  0  0  0  0  0  0  0  0  0
    4.6090   -2.2250   -0.1340 O   0  0  0  0  0  0  0  0  0  0  0  0
    1.4630   -0.9520   -2.3720 C   0  0  0  0  0  0  0  0  0  0  0  0
    2.0770   -2.1670   -1.8350 C   0  0  0  0  0  0  0  0  0  0  0  0
    0.2100    1.7630   -1.1100 C   0  0  0  0  0  0  0  0  0  0  0  0
   -0.2040    3.1030   -1.2050 O   0  0  0  0  0  0  0  0  0  0  0  0
    0.3850    3.9370   -0.2830 C   0  0  0  0  0  0  0  0  0  0  0  0
    0.6090    3.1330    1.0120 C   0  0  0  0  0  0  0  0  0  0  0  0
   -0.4770    2.2100    1.0570 N   0  0  0  0  0  0  0  0  0  0  0  0
   -1.7700    2.7110    1.1940 C   0  0  0  0  0  0  0  0  0  0  0  0
  1  2  1  0
  2  3  1  0
  3  4  1  0
  4  5  1  0
 10  4  1  6
  5  6  2  3
  6  7  1  0
  6  8  1  0
  8  9  1  0
 10 11  1  0
 10 21  1  0
 10 25  1  0
 11 12  2  3
 11 14  1  0
 12 13  1  0
 14 15  1  0
 15 16  1  6
 15 19  1  0
 15 20  1  0
 16 17  1  0
 17 18  1  0
 19 20  1  0
 21 22  1  0
 22 23  1  0
 23 24  1  0
 24 25  1  0
 25 26  1  0
M  END
