
     RDKit          3D

 25 26  0  0  0  0  0  0  0  0999 V2000
   -1.4060    2.4120   -1.9630 C   0  0  0  0  0  0  0  0  0  0  0  0
   -0.9200    2.1000   -0.6260 C   0  0  0  0  0  0  0  0  0  0  0  0
   -1.1410    2.8810    0.3110 O   0  0  0  0  0  0  0  0  0  0  0  0
   -0.1730    0.9000   -0.3590 C   0  0  0  0  0  0  0  0  0  0  0  0
    1.2210    1.0190   -0.4630 C   0  0  0  0  0  0  0  0  0  0  0  0
    1.7250    2.2600   -0.7990 O   0  0  0  0  0  0  0  0  0  0  0  0
    2.0220    3.1320    0.2590 C   0  0  0  0  0  0  0  0  0  0  0  0
    2.2700    2.6160    1.4060 N   0  0  0  0  0  0  0  0  0  0  0  0
    2.0530    4.4960    0.1030 O   0  0  0  0  0  0  0  0  0  0  0  0
    2.0760   -0.0400   -0.2450 C   0  0  0  0  0  0  0  0  0  0  0  0
    3.3640    0.1090   -0.3510 C   0  0  0  0  0  0  0  0  0  0  0  0
    4.5070   -0.6900   -0.2130 C   0  0  0  0  0  0  0  0  0  0  0  0
    4.6840   -1.9230    0.0850 C   0  0  0  0  0  0  0  0  0  0  0  0
    6.0430   -2.4450    0.1420 O   0  0  0  0  0  0  0  0  0  0  0  0
    1.4970   -1.2350    0.0840 C   0  0  0  0  0  0  0  0  0  0  0  0
    0.1130   -1.3820    0.1940 C   0  0  0  0  0  0  0  0  0  0  0  0
   -0.7130   -0.3010   -0.0320 C   0  0  0  0  0  0  0  0  0  0  0  0
   -2.0370   -0.4540    0.0450 C   0  0  0  0  0  0  0  0  0  0  0  0
   -3.0000    0.6000   -0.2020 C   0  0  0  0  0  0  0  0  0  0  0  0
   -4.6630   -0.1000    0.4810 P   0  0  0  0  0  0  0  0  0  0  0  0
   -5.5260   -0.9060   -0.7420 O   0  0  0  0  0  0  0  0  0  0  0  0
   -4.4200   -0.9550    1.9270 O   0  0  0  0  0  0  0  0  0  0  0  0
   -2.5030   -1.8570    0.3790 C   0  0  0  0  0  0  0  0  0  0  0  0
   -1.6540   -2.8640   -0.1990 N   0  0  0  0  0  0  0  0  0  0  0  0
   -0.3910   -2.7250    0.5500 C   0  0  0  0  0  0  0  0  0  0  0  0
  1  2  1  0
  2  3  2  0
  2  4  1  0
  4  5  2  0
  4 17  1  0
  5  6  1  0
  5 10  1  0
  6  7  1  0
  7  8  2  0
  7  9  1  0
 10 11  2  3
 10 15  1  0
 11 12  1  0
 12 13  2  3
 13 14  1  0
 15 16  2  0
 16 17  1  0
 16 25  1  0
 17 18  2  0
 18 19  1  0
 18 23  1  0
 19 20  1  0
 20 21  1  0
 20 22  1  0
 23 24  1  0
 24 25  1  0
M  END
