
     RDKit          3D

 26 27  0  0  0  0  0  0  0  0999 V2000
    0.1890   -3.8560    1.3540 C   0  0  0  0  0  0  0  0  0  0  0  0
   -0.2070   -3.4490    0.0530 O   0  0  0  0  0  0  0  0  0  0  0  0
   -1.0160   -2.4050    0.0560 C   0  0  0  0  0  0  0  0  0  0  0  0
   -0.6800   -1.0040    0.1360 C   0  0  0  0  0  0  0  0  0  0  0  0
    0.3880   -0.2180    0.1840 C   0  0  0  0  0  0  0  0  0  0  0  0
    1.7850   -0.7390    0.1340 C   0  0  0  0  0  0  0  0  0  0  0  0
    1.9710   -2.0390   -0.1000 O   0  0  0  0  0  0  0  0  0  0  0  0
    2.8990   -2.9720   -0.2460 C   0  0  0  0  0  0  0  0  0  0  0  0
    2.8320    0.0460    0.2940 C   0  0  0  0  0  0  0  0  0  0  0  0
    2.8300    1.4900    0.5440 C   0  0  0  0  0  0  0  0  0  0  0  0
    3.9280    2.2580    0.6230 C   0  0  0  0  0  0  0  0  0  0  0  0
    5.5640    1.4840    0.3950 P   0  0  0  0  0  0  0  0  0  0  0  0
    6.6420    2.4830   -0.6300 N   0  0  0  0  0  0  0  0  0  0  0  0
    5.1510    0.0380   -0.5940 O   0  0  0  0  0  0  0  0  0  0  0  0
    4.1500   -0.5210    0.1510 N   0  0  0  0  0  0  0  0  0  0  0  0
   -0.0750    1.1850    0.1830 C   0  0  0  0  0  0  0  0  0  0  0  0
   -1.5320    1.1000   -0.3220 C   0  0  2  0  0  0  0  0  0  0  0  0
   -1.5600    1.0950   -1.8280 C   0  0  0  0  0  0  0  0  0  0  0  0
   -2.2850    2.1200    0.2400 O   0  0  0  0  0  0  0  0  0  0  0  0
   -3.5440    2.1100   -0.1470 O   0  0  0  0  0  0  0  0  0  0  0  0
   -4.6180    1.7340    0.6250 C   0  0  0  0  0  0  0  0  0  0  0  0
   -6.0180    1.9300    0.1400 C   0  0  0  0  0  0  0  0  0  0  0  0
   -4.3900    1.2080    1.7770 N   0  0  0  0  0  0  0  0  0  0  0  0
   -5.4910    0.8120    2.5910 C   0  0  0  0  0  0  0  0  0  0  0  0
   -5.8170   -0.4030    2.6700 O   0  0  0  0  0  0  0  0  0  0  0  0
   -1.8570   -0.1380    0.1850 O   0  0  0  0  0  0  0  0  0  0  0  0
  1  2  1  0
  2  3  1  0
  3  4  1  0
  4  5  2  0
  4 26  1  0
  5  6  1  0
  5 16  1  0
  6  7  1  0
  6  9  2  3
  7  8  1  0
  9 10  1  0
  9 15  1  0
 10 11  2  0
 11 12  1  0
 12 13  1  0
 12 14  1  0
 14 15  1  0
 16 17  1  0
 17 18  1  6
 17 19  1  0
 17 26  1  0
 19 20  1  0
 20 21  1  0
 21 22  1  0
 21 23  2  3
 23 24  1  0
 24 25  2  0
M  END
