
     RDKit          3D

 25 25  0  0  0  0  0  0  0  0999 V2000
   -0.7500    3.0260   -2.5740 C   0  0  0  0  0  0  0  0  0  0  0  0
   -0.3880    2.3920   -1.2340 C   0  0  0  0  0  0  0  0  0  0  0  0
   -0.2700    0.8900   -1.3740 C   0  0  0  0  0  0  0  0  0  0  0  0
    0.0860    0.3350   -0.0090 C   0  0  2  0  0  0  0  0  0  0  0  0
    0.2440   -1.1750   -0.0690 C   0  0  0  0  0  0  0  0  0  0  0  0
    0.5580   -1.6420    1.2610 N   0  0  0  0  0  0  0  0  0  0  0  0
   -1.0000    0.6260    0.8880 N   0  0  0  0  0  0  0  0  0  0  0  0
   -2.3320    0.0960    0.7370 C   0  0  0  0  0  0  0  0  0  0  0  0
   -2.6970   -0.9600    1.4740 C   0  0  0  0  0  0  0  0  0  0  0  0
   -4.0430   -1.4780    1.3060 C   0  0  0  0  0  0  0  0  0  0  0  0
   -4.4360   -2.5220    2.0190 C   0  0  0  0  0  0  0  0  0  0  0  0
   -3.5730   -3.1040    2.9060 O   0  0  0  0  0  0  0  0  0  0  0  0
   -4.9550   -0.9010    0.4010 O   0  0  0  0  0  0  0  0  0  0  0  0
   -4.5490    0.1830   -0.3400 C   0  0  0  0  0  0  0  0  0  0  0  0
   -5.4270    0.7740   -1.2400 O   0  0  0  0  0  0  0  0  0  0  0  0
   -6.1430   -0.0270   -2.1830 C   0  0  0  0  0  0  0  0  0  0  0  0
   -3.3080    0.6500   -0.1760 C   0  0  0  0  0  0  0  0  0  0  0  0
    1.2570    0.8620    0.4720 O   0  0  0  0  0  0  0  0  0  0  0  0
    2.3790    0.6380   -0.2640 C   0  0  0  0  0  0  0  0  0  0  0  0
    3.8900    1.4280    0.5400 P   0  0  0  0  0  0  0  0  0  0  0  0
    3.5990    1.7010    2.2060 O   0  0  0  0  0  0  0  0  0  0  0  0
    3.8660    0.5320    2.9050 C   0  0  0  0  0  0  0  0  0  0  0  0
    5.3140    0.5330    0.2190 O   0  0  0  0  0  0  0  0  0  0  0  0
    5.0740   -0.6510   -0.4660 C   0  0  0  0  0  0  0  0  0  0  0  0
    6.4200   -1.3350   -0.6800 C   0  0  0  0  0  0  0  0  0  0  0  0
  1  2  1  0
  2  3  1  0
  4  3  1  6
  4  5  1  0
  4  7  1  0
  4 18  1  0
  5  6  1  0
  7  8  1  0
  8  9  2  0
  8 17  1  0
  9 10  1  0
 10 11  2  3
 10 13  1  0
 11 12  1  0
 13 14  1  0
 14 15  1  0
 14 17  2  0
 15 16  1  0
 18 19  1  0
 19 20  1  0
 20 21  1  0
 20 23  1  0
 21 22  1  0
 23 24  1  0
 24 25  1  0
M  END
