
     RDKit          3D

 30 31  0  0  0  0  0  0  0  0999 V2000
   -1.3230   -1.5200    2.3280 C   0  0  0  0  0  0  0  0  0  0  0  0
   -1.1610   -0.2100    2.5870 O   0  0  0  0  0  0  0  0  0  0  0  0
   -0.5680    0.6400    1.7480 C   0  0  0  0  0  0  0  0  0  0  0  0
   -1.1600    1.0210    0.5040 N   0  0  0  0  0  0  0  0  0  0  0  0
   -2.0040    2.2130    0.5370 C   0  0  0  0  0  0  0  0  0  0  0  0
   -2.2120    2.8360    1.6170 O   0  0  0  0  0  0  0  0  0  0  0  0
   -0.9490    0.3880   -0.7440 C   0  0  2  0  0  0  0  0  0  0  0  0
   -2.0590   -0.0970   -1.6000 C   0  0  0  0  0  0  0  0  0  0  0  0
   -3.0080   -1.1050   -1.1150 C   0  0  2  0  0  0  0  0  0  0  0  0
   -3.9590   -1.4240   -2.3400 C   0  0  0  0  0  0  0  0  0  0  0  0
   -3.9600   -0.5690   -0.0470 C   0  0  0  0  0  0  0  0  0  0  0  0
   -4.8030    0.5200   -0.6280 C   0  0  0  0  0  0  0  0  0  0  0  0
   -5.9640    1.2070    0.6580 P   0  0  0  0  0  0  0  0  0  0  0  0
   -7.3750    1.8850   -0.0810 O   0  0  0  0  0  0  0  0  0  0  0  0
   -6.3880   -0.0090    1.8270 O   0  0  0  0  0  0  0  0  0  0  0  0
    0.2730   -0.5360   -0.7740 C   0  0  0  0  0  0  0  0  0  0  0  0
    1.0650    0.6430   -0.9670 N   0  0  0  0  0  0  0  0  0  0  0  0
    2.3650    1.0710   -0.6550 C   0  0  0  0  0  0  0  0  0  0  0  0
    2.7360    2.2480   -0.9960 O   0  0  0  0  0  0  0  0  0  0  0  0
    3.2730    0.2020    0.0380 C   0  0  0  0  0  0  0  0  0  0  0  0
    3.0040   -1.4350    0.5990 P   0  0  0  0  0  0  0  0  0  0  0  0
    4.8340   -1.6500    1.3730 C   0  0  0  0  0  0  0  0  0  0  0  0
    5.0210   -0.2010    1.6650 C   0  0  0  0  0  0  0  0  0  0  0  0
    4.6760    0.5280    0.4330 C   0  0  0  0  0  0  0  0  0  0  0  0
    5.3980    1.3600   -0.2940 C   0  0  0  0  0  0  0  0  0  0  0  0
    6.7000    1.6240    0.1280 O   0  0  0  0  0  0  0  0  0  0  0  0
    7.7790    0.7620   -0.2310 C   0  0  0  0  0  0  0  0  0  0  0  0
    7.9420    0.6740   -1.6050 O   0  0  0  0  0  0  0  0  0  0  0  0
   -0.0310    1.2400   -1.6400 C   0  0  0  0  0  0  0  0  0  0  0  0
   -0.2930    2.0630   -2.5360 O   0  0  0  0  0  0  0  0  0  0  0  0
  1  2  1  0
  2  3  1  0
  3  4  1  0
  4  5  1  0
  4  7  1  0
  5  6  2  0
  7  8  1  6
  7 16  1  0
  7 29  1  0
  8  9  1  0
  9 10  1  6
  9 11  1  0
 11 12  1  0
 12 13  1  0
 13 14  1  0
 13 15  1  0
 16 17  1  0
 17 18  1  0
 17 29  1  0
 18 19  2  0
 18 20  1  0
 20 21  2  0
 20 24  1  0
 21 22  1  0
 22 23  1  0
 23 24  1  0
 24 25  2  3
 25 26  1  0
 26 27  1  0
 27 28  1  0
 29 30  2  0
M  END
