
     RDKit          3D

 30 30  0  0  0  0  0  0  0  0999 V2000
    7.2330   -4.8500    0.4490 C   0  0  0  0  0  0  0  0  0  0  0  0
    6.8370   -3.7740   -0.5380 C   0  0  0  0  0  0  0  0  0  0  0  0
    6.0260   -2.8590    0.1270 O   0  0  0  0  0  0  0  0  0  0  0  0
    5.4980   -1.5720   -0.8800 P   0  0  0  0  0  0  0  0  0  0  0  0
    6.0710   -1.6770   -2.4930 O   0  0  0  0  0  0  0  0  0  0  0  0
    3.3580   -1.2020   -0.7400 P   0  0  0  0  0  0  0  0  0  0  0  0
    2.6960    0.2780   -0.4040 C   0  0  0  0  0  0  0  0  0  0  0  0
    3.5660    1.4160   -0.1840 C   0  0  0  0  0  0  0  0  0  0  0  0
    3.1630    2.6360    0.0900 C   0  0  0  0  0  0  0  0  0  0  0  0
    1.7200    3.0100    0.2130 C   0  0  0  0  0  0  0  0  0  0  0  0
    4.2110    3.7010    0.2890 C   0  0  0  0  0  0  0  0  0  0  0  0
    4.1280    4.3060    1.6580 C   0  0  0  0  0  0  0  0  0  0  0  0
    1.3330    0.4100   -0.3380 O   0  0  0  0  0  0  0  0  0  0  0  0
    0.4890    0.3920   -1.4600 C   0  0  0  0  0  0  0  0  0  0  0  0
   -0.9400    0.5470   -0.9910 C   0  0  0  0  0  0  0  0  0  0  0  0
   -1.8600    0.5950   -1.8270 O   0  0  0  0  0  0  0  0  0  0  0  0
   -1.2320    0.6360    0.3780 N   0  0  0  0  0  0  0  0  0  0  0  0
   -2.5160    0.7730    0.9750 C   0  0  0  0  0  0  0  0  0  0  0  0
   -3.3760   -0.3970    0.7110 C   0  0  2  0  0  0  0  0  0  0  0  0
   -3.6800   -0.6970   -0.6580 N   0  0  0  0  0  0  0  0  0  0  0  0
   -4.2440   -2.0590   -0.6330 C   0  0  2  0  0  0  0  0  0  0  0  0
   -4.3970   -2.6090   -2.0240 C   0  0  0  0  0  0  0  0  0  0  0  0
   -4.9330   -3.8900   -1.9010 O   0  0  0  0  0  0  0  0  0  0  0  0
   -5.5440   -1.9440    0.1110 C   0  0  0  0  0  0  0  0  0  0  0  0
   -5.2830   -1.6240    1.4170 O   0  0  0  0  0  0  0  0  0  0  0  0
   -4.6130   -0.4220    1.5930 C   0  0  2  0  0  0  0  0  0  0  0  0
   -5.4900    0.7430    1.4260 C   0  0  0  0  0  0  0  0  0  0  0  0
   -6.7180    0.5410    1.1450 O   0  0  0  0  0  0  0  0  0  0  0  0
   -5.0980    2.0520    1.5480 O   0  0  0  0  0  0  0  0  0  0  0  0
   -5.9810    3.1500    1.3780 C   0  0  0  0  0  0  0  0  0  0  0  0
  1  2  1  0
  2  3  1  0
  3  4  1  0
  4  5  1  0
  4  6  1  0
  6  7  2  3
  7  8  1  0
  7 13  1  0
  8  9  2  3
  9 10  1  0
  9 11  1  0
 11 12  1  0
 13 14  1  0
 14 15  1  0
 15 16  2  0
 15 17  1  0
 17 18  1  0
 19 18  1  6
 19 20  1  0
 19 26  1  0
 20 21  1  0
 21 22  1  6
 21 24  1  0
 22 23  1  0
 24 25  1  0
 25 26  1  0
 26 27  1  6
 27 28  2  0
 27 29  1  0
 29 30  1  0
M  END
