
     RDKit          3D

 30 30  0  0  0  0  0  0  0  0999 V2000
   -8.2960   -0.7710    0.6590 C   0  0  0  0  0  0  0  0  0  0  0  0
   -7.5210   -0.4590   -0.5800 C   0  0  1  0  0  0  0  0  0  0  0  0
   -7.7050    1.0280   -0.8670 C   0  0  0  0  0  0  0  0  0  0  0  0
   -6.0900   -0.8620   -0.5990 C   0  0  0  0  0  0  0  0  0  0  0  0
   -5.1720   -0.2730    0.4000 C   0  0  2  0  0  0  0  0  0  0  0  0
   -3.8050   -0.7960    0.2160 N   0  0  0  0  0  0  0  0  0  0  0  0
   -2.6740   -0.0200   -0.0150 C   0  0  0  0  0  0  0  0  0  0  0  0
   -2.8850    1.2520   -0.0540 O   0  0  0  0  0  0  0  0  0  0  0  0
   -1.2820   -0.4190   -0.2190 C   0  0  2  0  0  0  0  0  0  0  0  0
   -0.9050   -1.8160    0.0610 C   0  0  0  0  0  0  0  0  0  0  0  0
   -1.6360   -2.7210   -0.8030 N   0  0  0  0  0  0  0  0  0  0  0  0
   -0.3970    0.6150    0.2160 N   0  0  0  0  0  0  0  0  0  0  0  0
    1.2520    0.4910    0.1070 P   0  0  0  0  0  0  0  0  0  0  0  0
    2.0880    1.4150   -1.0890 O   0  0  0  0  0  0  0  0  0  0  0  0
    1.5450    1.7780    0.9610 O   0  0  0  0  0  0  0  0  0  0  0  0
    2.2050   -0.5490    1.1120 C   0  0  0  0  0  0  0  0  0  0  0  0
    3.5830   -0.1090    1.1420 N   0  0  0  0  0  0  0  0  0  0  0  0
    4.3900   -0.0640   -0.0230 C   0  0  0  0  0  0  0  0  0  0  0  0
    3.9440   -0.4080   -1.1430 O   0  0  0  0  0  0  0  0  0  0  0  0
    5.7230    0.3640    0.0100 O   0  0  0  0  0  0  0  0  0  0  0  0
    6.5450    0.4160   -1.1430 C   0  0  0  0  0  0  0  0  0  0  0  0
    7.8690    0.9080   -0.7480 C   0  0  0  0  0  0  0  0  0  0  0  0
    8.8610    0.0280   -0.3970 C   0  0  0  0  0  0  0  0  0  0  0  0
   10.1280    0.4540   -0.0170 C   0  0  0  0  0  0  0  0  0  0  0  0
   10.3830    1.8200    0.0000 C   0  0  0  0  0  0  0  0  0  0  0  0
    9.4020    2.7270   -0.3490 C   0  0  0  0  0  0  0  0  0  0  0  0
    8.1580    2.2480   -0.7180 C   0  0  0  0  0  0  0  0  0  0  0  0
   -5.6190   -0.4430    1.7790 C   0  0  0  0  0  0  0  0  0  0  0  0
   -5.3460   -1.4500    2.5040 O   0  0  0  0  0  0  0  0  0  0  0  0
   -6.4010    0.5310    2.4090 O   0  0  0  0  0  0  0  0  0  0  0  0
  2  1  1  1
  2  3  1  0
  2  4  1  0
  5  4  1  6
  5  6  1  0
  5 28  1  0
  6  7  1  0
  7  8  2  0
  7  9  1  0
  9 10  1  1
  9 12  1  0
 10 11  1  0
 12 13  1  0
 13 14  1  0
 13 15  1  0
 13 16  1  0
 16 17  1  0
 17 18  1  0
 18 19  2  0
 18 20  1  0
 20 21  1  0
 21 22  1  0
 22 23  2  0
 22 27  1  0
 23 24  1  0
 24 25  2  0
 25 26  1  0
 26 27  2  0
 28 29  2  0
 28 30  1  0
M  CHG  1  11   1
M  END
