
     RDKit          3D

 30 31  0  0  0  0  0  0  0  0999 V2000
   -1.8960    1.5810    1.3770 C   0  0  0  0  0  0  0  0  0  0  0  0
   -2.4700    1.7140    0.2120 C   0  0  0  0  0  0  0  0  0  0  0  0
   -3.4750    2.7540   -0.1050 C   0  0  0  0  0  0  0  0  0  0  0  0
   -4.2140    3.4250    0.8680 O   0  0  0  0  0  0  0  0  0  0  0  0
   -3.5030    2.8860   -1.4210 C   0  0  0  0  0  0  0  0  0  0  0  0
   -4.4180    3.8630   -2.0870 C   0  0  0  0  0  0  0  0  0  0  0  0
   -2.5970    2.0170   -1.9930 O   0  0  0  0  0  0  0  0  0  0  0  0
   -2.3390    0.9630   -1.0530 C   0  0  2  0  0  0  0  0  0  0  0  0
   -3.4380    0.1110   -1.1700 O   0  0  0  0  0  0  0  0  0  0  0  0
   -1.1280    0.3460   -1.2710 O   0  0  0  0  0  0  0  0  0  0  0  0
   -0.4720   -0.6120   -0.5760 C   0  0  0  0  0  0  0  0  0  0  0  0
    0.7900   -0.3390   -0.2070 C   0  0  0  0  0  0  0  0  0  0  0  0
    1.5210   -1.2630    0.5010 O   0  0  0  0  0  0  0  0  0  0  0  0
    1.9640   -0.9410    1.8110 C   0  0  0  0  0  0  0  0  0  0  0  0
    2.7300   -2.1420    2.3220 C   0  0  0  0  0  0  0  0  0  0  0  0
    1.5990    1.2500   -0.6190 P   0  0  0  0  0  0  0  0  0  0  0  0
    1.9230    2.1080    0.9250 N   0  0  0  0  0  0  0  0  0  0  0  0
    3.2480    2.7150    0.8640 C   0  0  0  0  0  0  0  0  0  0  0  0
    3.5480    3.4420    2.1470 C   0  0  0  0  0  0  0  0  0  0  0  0
    4.8000    4.0090    2.0740 O   0  0  0  0  0  0  0  0  0  0  0  0
    3.1100    0.9760   -1.4190 O   0  0  0  0  0  0  0  0  0  0  0  0
    3.0770   -0.1860   -2.1910 C   0  0  0  0  0  0  0  0  0  0  0  0
    4.3980   -0.4200   -2.8880 C   0  0  0  0  0  0  0  0  0  0  0  0
   -1.0080   -1.8770   -0.2070 N   0  0  0  0  0  0  0  0  0  0  0  0
   -0.7920   -2.9580   -1.1440 C   0  0  0  0  0  0  0  0  0  0  0  0
   -1.9390   -3.9390   -1.1770 C   0  0  0  0  0  0  0  0  0  0  0  0
   -1.7590   -4.8470    0.0440 C   0  0  0  0  0  0  0  0  0  0  0  0
   -2.0680   -3.7320    1.5210 P   0  0  0  0  0  0  0  0  0  0  0  0
   -3.7610   -3.9280    1.9290 O   0  0  0  0  0  0  0  0  0  0  0  0
   -1.7070   -1.9800    1.0400 C   0  0  0  0  0  0  0  0  0  0  0  0
  1  2  2  0
  2  3  1  0
  2  8  1  0
  3  4  1  0
  3  5  2  0
  5  6  1  0
  5  7  1  0
  7  8  1  0
  8  9  1  1
  8 10  1  0
 10 11  1  0
 11 12  2  3
 11 24  1  0
 12 13  1  0
 12 16  1  0
 13 14  1  0
 14 15  1  0
 16 17  1  0
 16 21  1  0
 17 18  1  0
 18 19  1  0
 19 20  1  0
 21 22  1  0
 22 23  1  0
 24 25  1  0
 24 30  1  0
 25 26  1  0
 26 27  1  0
 27 28  1  0
 28 29  1  0
 28 30  1  0
M  END
