
     RDKit          3D

 30 31  0  0  0  0  0  0  0  0999 V2000
    1.2740   -2.4400   -1.4680 C   0  0  0  0  0  0  0  0  0  0  0  0
   -0.0530   -1.7210   -1.4800 C   0  0  2  0  0  0  0  0  0  0  0  0
   -1.0830   -2.7960   -1.6490 C   0  0  0  0  0  0  0  0  0  0  0  0
   -1.0930   -3.8470   -0.6030 C   0  0  0  0  0  0  0  0  0  0  0  0
   -1.8920   -3.8390    0.3680 O   0  0  0  0  0  0  0  0  0  0  0  0
   -0.2080   -4.9230   -0.6300 O   0  0  0  0  0  0  0  0  0  0  0  0
   -0.1680   -0.8190   -2.7020 C   0  0  0  0  0  0  0  0  0  0  0  0
    1.1530   -0.3510   -3.1950 C   0  0  0  0  0  0  0  0  0  0  0  0
    1.9520    0.4910   -2.2970 C   0  0  0  0  0  0  0  0  0  0  0  0
    1.3740    0.9080   -0.9960 C   0  0  2  0  0  0  0  0  0  0  0  0
    2.0840    1.9820   -0.3950 N   0  0  0  0  0  0  0  0  0  0  0  0
    3.4210    1.9380   -0.0760 C   0  0  0  0  0  0  0  0  0  0  0  0
    3.9370    1.0530    1.0180 C   0  0  0  0  0  0  0  0  0  0  0  0
    5.4530    1.2120    1.1670 C   0  0  0  0  0  0  0  0  0  0  0  0
    6.0520    0.0980    2.5400 P   0  0  0  0  0  0  0  0  0  0  0  0
    5.9280    0.4720    4.0320 O   0  0  0  0  0  0  0  0  0  0  0  0
    0.9030   -0.0810   -0.0200 C   0  0  2  0  0  0  0  0  0  0  0  0
   -0.2560   -0.8780   -0.3630 N   0  0  0  0  0  0  0  0  0  0  0  0
   -1.4910   -0.1920   -0.3120 C   0  0  0  0  0  0  0  0  0  0  0  0
   -2.0980   -0.1610    1.0720 C   0  0  2  0  0  0  0  0  0  0  0  0
   -1.8580   -1.2570    1.8530 O   0  0  0  0  0  0  0  0  0  0  0  0
   -3.5690    0.2170    1.0450 C   0  0  0  0  0  0  0  0  0  0  0  0
   -3.9490    0.4900    2.3240 O   0  0  0  0  0  0  0  0  0  0  0  0
   -5.2500    0.8420    2.5250 C   0  0  0  0  0  0  0  0  0  0  0  0
   -5.6270    2.0860    1.8740 C   0  0  0  0  0  0  0  0  0  0  0  0
   -6.8370    2.4560    1.9650 O   0  0  0  0  0  0  0  0  0  0  0  0
   -4.7430    2.8600    1.1820 O   0  0  0  0  0  0  0  0  0  0  0  0
   -1.3750    0.9930    1.7860 C   0  0  0  0  0  0  0  0  0  0  0  0
    0.4600    0.8070    1.5840 P   0  0  0  0  0  0  0  0  0  0  0  0
    1.0860    2.4320    1.5520 O   0  0  0  0  0  0  0  0  0  0  0  0
  2  1  1  1
  2  3  1  0
  2  7  1  0
  2 18  1  0
  3  4  1  0
  4  5  2  0
  4  6  1  0
  7  8  1  0
  8  9  1  0
  9 10  1  0
 10 11  1  1
 10 17  1  0
 11 12  1  0
 12 13  1  0
 13 14  1  0
 14 15  1  0
 15 16  2  0
 17 18  1  0
 17 29  1  1
 18 19  1  0
 19 20  1  0
 20 21  1  1
 20 22  1  0
 20 28  1  0
 22 23  1  0
 23 24  1  0
 24 25  1  0
 25 26  2  0
 25 27  1  0
 28 29  1  0
 29 30  1  0
M  END
