
     RDKit          3D

 11 11  0  0  0  0  0  0  0  0999 V2000
    2.9780    0.3840    0.8330 N   0  0  0  0  0  0  0  0  0  0  0  0
    1.6750    0.1860    0.9560 O   0  0  0  0  0  0  0  0  0  0  0  0
    1.2820   -1.0940    0.5840 C   0  0  0  0  0  0  0  0  0  0  0  0
    0.3940   -0.9280   -0.6080 C   0  0  2  0  0  0  0  0  0  0  0  0
    1.2460   -0.4780   -1.6620 O   0  0  0  0  0  0  0  0  0  0  0  0
   -0.6960    0.0440   -0.5260 C   0  0  2  0  0  0  0  0  0  0  0  0
   -0.4120    1.3180   -0.9950 O   0  0  0  0  0  0  0  0  0  0  0  0
   -1.1520    0.2750    0.9380 C   0  0  0  0  0  0  0  0  0  0  0  0
   -2.4800    0.9570    0.6370 C   0  0  0  0  0  0  0  0  0  0  0  0
   -2.9900    0.3700   -0.5010 O   0  0  0  0  0  0  0  0  0  0  0  0
   -2.0250   -0.4350   -1.0710 C   0  0  0  0  0  0  0  0  0  0  0  0
  1  2  1  0
  2  3  1  0
  3  4  1  0
  4  5  1  6
  4  6  1  0
  6  7  1  6
  6  8  1  0
  6 11  1  0
  8  9  1  0
  9 10  1  0
 10 11  1  0
M  CHG  1   1   1
M  END
