
     RDKit          3D

 16 15  0  0  0  0  0  0  0  0999 V2000
   -3.6130    1.8870   -1.5050 C   0  0  0  0  0  0  0  0  0  0  0  0
   -3.0740    2.2960   -0.1620 C   0  0  0  0  0  0  0  0  0  0  0  0
   -2.7650    1.2180    0.7840 C   0  0  0  0  0  0  0  0  0  0  0  0
   -1.7290    0.2110    0.4390 C   0  0  2  0  0  0  0  0  0  0  0  0
   -0.4070    0.8100    0.1890 C   0  0  0  0  0  0  0  0  0  0  0  0
    0.6400    0.8060    0.9570 C   0  0  0  0  0  0  0  0  0  0  0  0
    0.6530    0.1730    2.2470 C   0  0  0  0  0  0  0  0  0  0  0  0
    1.7200    0.2040    2.9620 O   0  0  0  0  0  0  0  0  0  0  0  0
    1.8930    1.4930    0.5190 C   0  0  0  0  0  0  0  0  0  0  0  0
    3.0780    0.6020    0.4010 C   0  0  0  0  0  0  0  0  0  0  0  0
    2.9360   -0.5140   -0.5770 C   0  0  0  0  0  0  0  0  0  0  0  0
    4.2280   -1.3180   -0.5730 C   0  0  0  0  0  0  0  0  0  0  0  0
    4.0810   -2.3720   -1.5020 O   0  0  0  0  0  0  0  0  0  0  0  0
   -2.1070   -0.7970   -0.5870 C   0  0  0  0  0  0  0  0  0  0  0  0
   -0.9910   -1.7890   -0.8450 C   0  0  0  0  0  0  0  0  0  0  0  0
   -0.6520   -2.5500    0.3890 C   0  0  0  0  0  0  0  0  0  0  0  0
  1  2  1  0
  2  3  1  0
  4  3  1  6
  4  5  1  0
  4 14  1  0
  5  6  2  3
  6  7  1  0
  6  9  1  0
  7  8  2  0
  9 10  1  0
 10 11  1  0
 11 12  1  0
 12 13  1  0
 14 15  1  0
 15 16  1  0
M  END
