
     RDKit          3D

 10 10  0  0  0  0  0  0  0  0999 V2000
    3.0050    0.5080   -0.5970 N   0  0  0  0  0  0  0  0  0  0  0  0
    1.6890   -0.0560   -0.8410 C   0  0  0  0  0  0  0  0  0  0  0  0
    0.8250    0.0830    0.3850 C   0  0  2  0  0  0  0  0  0  0  0  0
    1.4500   -0.6030    1.4250 O   0  0  0  0  0  0  0  0  0  0  0  0
   -0.5040   -0.5810    0.1530 C   0  0  1  0  0  0  0  0  0  0  0  0
   -1.3970   -0.4630    1.3580 C   0  0  0  0  0  0  0  0  0  0  0  0
   -2.6470   -0.0900    0.9310 O   0  0  0  0  0  0  0  0  0  0  0  0
   -2.7090   -0.3740   -0.4430 C   0  0  0  0  0  0  0  0  0  0  0  0
   -1.3430    0.1810   -0.8730 C   0  0  1  0  0  0  0  0  0  0  0  0
   -1.3330    1.5200   -0.5650 O   0  0  0  0  0  0  0  0  0  0  0  0
  1  2  1  0
  2  3  1  0
  3  4  1  1
  3  5  1  0
  5  6  1  1
  5  9  1  0
  6  7  1  0
  7  8  1  0
  8  9  1  0
  9 10  1  1
M  CHG  1   1   1
M  END
