
     RDKit          3D

 11 11  0  0  0  0  0  0  0  0999 V2000
   -2.0020    0.1700    1.4800 N   0  0  0  0  0  0  0  0  0  0  0  0
   -1.3820    0.5810    0.2160 C   0  0  2  0  0  0  0  0  0  0  0  0
   -2.4180    0.4680   -0.8840 C   0  0  0  0  0  0  0  0  0  0  0  0
   -2.6010   -0.8660   -1.2180 O   0  0  0  0  0  0  0  0  0  0  0  0
   -1.6010   -1.3850   -1.8660 O   0  0  0  0  0  0  0  0  0  0  0  0
   -0.4400   -0.7030   -1.6200 C   0  0  0  0  0  0  0  0  0  0  0  0
   -0.2460   -0.3520   -0.1550 C   0  0  1  0  0  0  0  0  0  0  0  0
    0.9890    0.2540   -0.0740 O   0  0  0  0  0  0  0  0  0  0  0  0
    1.8880   -0.3340    0.7550 C   0  0  0  0  0  0  0  0  0  0  0  0
    3.1700    0.5100    0.6800 C   0  0  0  0  0  0  0  0  0  0  0  0
    3.6400    0.5250   -0.6420 O   0  0  0  0  0  0  0  0  0  0  0  0
  2  1  1  1
  2  3  1  0
  2  7  1  0
  3  4  1  0
  4  5  1  0
  5  6  1  0
  6  7  1  0
  7  8  1  6
  8  9  1  0
  9 10  1  0
 10 11  1  0
M  CHG  1   1   1
M  END
