
     RDKit          3D

 11 11  0  0  0  0  0  0  0  0999 V2000
    3.0290    1.4240    0.6430 O   0  0  0  0  0  0  0  0  0  0  0  0
    2.6900    0.2930   -0.1040 C   0  0  1  0  0  0  0  0  0  0  0  0
    3.9250   -0.3750   -0.3120 O   0  0  0  0  0  0  0  0  0  0  0  0
    1.7960   -0.5200    0.5050 O   0  0  0  0  0  0  0  0  0  0  0  0
    0.6300   -0.8310   -0.1070 C   0  0  0  0  0  0  0  0  0  0  0  0
   -0.2920    0.3160   -0.3670 C   0  0  2  0  0  0  0  0  0  0  0  0
    0.2300    1.2840   -1.1760 O   0  0  0  0  0  0  0  0  0  0  0  0
   -0.7310    0.9600    0.9600 C   0  0  0  0  0  0  0  0  0  0  0  0
   -2.0130    0.1940    1.2090 C   0  0  0  0  0  0  0  0  0  0  0  0
   -2.6580    0.3530   -0.1050 N   0  0  0  0  0  0  0  0  0  0  0  0
   -1.6170   -0.1700   -0.9700 C   0  0  0  0  0  0  0  0  0  0  0  0
  2  1  1  1
  2  3  1  0
  2  4  1  0
  4  5  1  0
  5  6  1  0
  6  7  1  6
  6  8  1  0
  6 11  1  0
  8  9  1  0
  9 10  1  0
 10 11  1  0
M  CHG  1  10   1
M  END
