
     RDKit          3D

 20 21  0  0  0  0  0  0  0  0999 V2000
    5.8590   -2.0550   -0.7130 N   0  0  0  0  0  0  0  0  0  0  0  0
    4.5980   -1.7690   -0.1350 C   0  0  0  0  0  0  0  0  0  0  0  0
    4.1490   -2.6160    0.6900 O   0  0  0  0  0  0  0  0  0  0  0  0
    3.8570   -0.5610   -0.4740 C   0  0  0  0  0  0  0  0  0  0  0  0
    2.6660   -0.3710    0.1260 C   0  0  0  0  0  0  0  0  0  0  0  0
    1.8860    0.7840   -0.1550 N   0  0  0  0  0  0  0  0  0  0  0  0
    0.4590    0.7520    0.1000 C   0  0  2  0  0  0  0  0  0  0  0  0
   -0.2260    0.1150   -1.0680 C   0  0  0  0  0  0  0  0  0  0  0  0
   -1.6000    0.5890   -1.1130 N   0  0  0  0  0  0  0  0  0  0  0  0
   -2.2350    1.1910    0.0070 C   0  0  0  0  0  0  0  0  0  0  0  0
   -3.5200    1.0390    0.2610 C   0  0  0  0  0  0  0  0  0  0  0  0
   -4.4580    0.2550   -0.5430 C   0  0  0  0  0  0  0  0  0  0  0  0
   -4.9940   -0.7550    0.2840 O   0  0  0  0  0  0  0  0  0  0  0  0
   -5.8520   -1.4830   -0.4260 O   0  0  0  0  0  0  0  0  0  0  0  0
   -1.4120    1.9690    0.8460 O   0  0  0  0  0  0  0  0  0  0  0  0
   -0.0870    2.1630    0.3230 C   0  0  0  0  0  0  0  0  0  0  0  0
    0.1750    0.0200    1.3820 C   0  0  0  0  0  0  0  0  0  0  0  0
   -0.7300    0.4010    2.1820 O   0  0  0  0  0  0  0  0  0  0  0  0
    0.9650   -1.0890    1.6260 O   0  0  0  0  0  0  0  0  0  0  0  0
    2.1610   -1.2870    1.0290 O   0  0  0  0  0  0  0  0  0  0  0  0
  1  2  1  0
  2  3  2  0
  2  4  1  0
  4  5  2  3
  5  6  1  0
  5 20  1  0
  6  7  1  0
  7  8  1  6
  7 16  1  0
  7 17  1  0
  8  9  1  0
  9 10  1  0
 10 11  2  3
 10 15  1  0
 11 12  1  0
 12 13  1  0
 13 14  1  0
 15 16  1  0
 17 18  2  0
 17 19  1  0
 19 20  1  0
M  END
