
     RDKit          3D

 20 21  0  0  0  0  0  0  0  0999 V2000
   -4.9420    2.4290    1.7040 C   0  0  0  0  0  0  0  0  0  0  0  0
   -4.4580    1.1180    1.6790 O   0  0  0  0  0  0  0  0  0  0  0  0
   -3.5960    0.6360    0.7090 C   0  0  0  0  0  0  0  0  0  0  0  0
   -3.0710    1.2710   -0.3450 N   0  0  0  0  0  0  0  0  0  0  0  0
   -2.2890    0.4280   -1.0210 N   0  0  0  0  0  0  0  0  0  0  0  0
   -2.2810   -0.7720   -0.4340 C   0  0  0  0  0  0  0  0  0  0  0  0
   -3.1110   -0.6550    0.6740 C   0  0  0  0  0  0  0  0  0  0  0  0
   -3.2660   -1.7850    1.4550 O   0  0  0  0  0  0  0  0  0  0  0  0
   -2.8090   -2.9900    1.0960 O   0  0  0  0  0  0  0  0  0  0  0  0
   -1.5340   -2.8830    0.5460 C   0  0  0  0  0  0  0  0  0  0  0  0
   -1.6140   -2.0860   -0.7130 C   0  0  2  0  0  0  0  0  0  0  0  0
   -0.2500   -1.7770   -1.2820 C   0  0  0  0  0  0  0  0  0  0  0  0
    0.5160   -1.0170   -0.3340 O   0  0  0  0  0  0  0  0  0  0  0  0
    1.7940   -0.6250   -0.6440 C   0  0  0  0  0  0  0  0  0  0  0  0
    2.2930   -0.9400   -1.7770 O   0  0  0  0  0  0  0  0  0  0  0  0
    2.6380    0.1280    0.2190 N   0  0  0  0  0  0  0  0  0  0  0  0
    3.9950    0.4970   -0.2140 C   0  0  0  0  0  0  0  0  0  0  0  0
    4.7100    1.2820    0.8340 C   0  0  0  0  0  0  0  0  0  0  0  0
    5.9770    1.5880    0.3470 O   0  0  0  0  0  0  0  0  0  0  0  0
    6.7030    2.2760    1.1760 O   0  0  0  0  0  0  0  0  0  0  0  0
  1  2  1  0
  2  3  1  0
  3  4  1  0
  3  7  2  0
  4  5  1  0
  5  6  2  0
  6  7  1  0
  6 11  1  0
  7  8  1  0
  8  9  1  0
  9 10  1  0
 10 11  1  0
 11 12  1  1
 12 13  1  0
 13 14  1  0
 14 15  2  0
 14 16  1  0
 16 17  1  0
 17 18  1  0
 18 19  1  0
 19 20  1  0
M  END
