
     RDKit          3D

 20 21  0  0  0  0  0  0  0  0999 V2000
    0.1990    0.0970   -0.0620 O   0  0  0  0  0  0  0  0  0  0  0  0
   -0.1380   -0.9820    0.4440 C   0  0  0  0  0  0  0  0  0  0  0  0
   -1.3750   -1.1950    1.0610 N   0  0  0  0  0  0  0  0  0  0  0  0
   -2.2820   -0.1000    1.0710 C   0  0  0  0  0  0  0  0  0  0  0  0
   -3.4490   -0.2010    0.4290 C   0  0  0  0  0  0  0  0  0  0  0  0
   -4.4250    0.9010    0.4040 C   0  0  0  0  0  0  0  0  0  0  0  0
   -4.0270    2.0410    1.1020 O   0  0  0  0  0  0  0  0  0  0  0  0
   -2.8350    2.1800    1.7740 C   0  0  0  0  0  0  0  0  0  0  0  0
   -2.0000    1.1470    1.7550 C   0  0  0  0  0  0  0  0  0  0  0  0
    0.8410   -1.9520    0.3290 N   0  0  0  0  0  0  0  0  0  0  0  0
    2.0860   -1.6640   -0.3560 C   0  0  0  0  0  0  0  0  0  0  0  0
    2.7730   -2.7050   -0.2610 N   0  0  0  0  0  0  0  0  0  0  0  0
    4.0040   -2.5240   -0.8940 C   0  0  0  0  0  0  0  0  0  0  0  0
    4.8700   -3.4310   -0.9330 O   0  0  0  0  0  0  0  0  0  0  0  0
    4.0680   -1.2730   -1.4130 O   0  0  0  0  0  0  0  0  0  0  0  0
    2.8300   -0.6760   -1.1200 C   0  0  2  0  0  0  0  0  0  0  0  0
    3.2100    0.4920   -0.3530 O   0  0  0  0  0  0  0  0  0  0  0  0
    2.9200    1.7140   -0.9280 C   0  0  0  0  0  0  0  0  0  0  0  0
    2.3590    1.7770   -2.0510 O   0  0  0  0  0  0  0  0  0  0  0  0
    3.2310    2.9280   -0.3000 O   0  0  0  0  0  0  0  0  0  0  0  0
  1  2  2  0
  2  3  1  0
  2 10  1  0
  3  4  1  0
  4  5  2  0
  4  9  1  0
  5  6  1  0
  6  7  1  0
  7  8  1  0
  8  9  2  0
 10 11  1  0
 11 12  2  0
 11 16  1  0
 12 13  1  0
 13 14  2  0
 13 15  1  0
 15 16  1  0
 16 17  1  1
 17 18  1  0
 18 19  2  0
 18 20  1  0
M  END
