
     RDKit          3D

 19 20  0  0  0  0  0  0  0  0999 V2000
   -1.5730    0.2610   -1.6460 C   0  0  0  0  0  0  0  0  0  0  0  0
   -1.6390   -0.3310   -0.2720 C   0  0  1  0  0  0  0  0  0  0  0  0
   -0.6190   -1.4240   -0.0510 C   0  0  0  0  0  0  0  0  0  0  0  0
    0.5960   -0.6870    0.2390 N   0  0  0  0  0  0  0  0  0  0  0  0
    1.8730   -1.2880    0.3380 C   0  0  0  0  0  0  0  0  0  0  0  0
    2.0520   -2.5230    0.1810 O   0  0  0  0  0  0  0  0  0  0  0  0
    3.0270   -0.5460    0.6200 O   0  0  0  0  0  0  0  0  0  0  0  0
    4.2460   -1.1490    0.7110 O   0  0  0  0  0  0  0  0  0  0  0  0
    5.3900   -0.4820    0.3020 C   0  0  0  0  0  0  0  0  0  0  0  0
    5.2340    0.6880   -0.1480 O   0  0  0  0  0  0  0  0  0  0  0  0
    6.6620   -1.0670    0.3790 O   0  0  0  0  0  0  0  0  0  0  0  0
    0.3160    0.7260    0.4080 C   0  0  0  0  0  0  0  0  0  0  0  0
   -1.1320    0.7000    0.7540 C   0  0  1  0  0  0  0  0  0  0  0  0
   -1.8760    1.8890    0.5250 N   0  0  0  0  0  0  0  0  0  0  0  0
   -3.3050    1.7690    0.5380 C   0  0  0  0  0  0  0  0  0  0  0  0
   -4.0000    2.7970    0.7200 O   0  0  0  0  0  0  0  0  0  0  0  0
   -3.8880    0.4630    0.3400 N   0  0  0  0  0  0  0  0  0  0  0  0
   -3.0030   -0.6560    0.1390 C   0  0  0  0  0  0  0  0  0  0  0  0
   -3.4710   -1.8040    0.3320 O   0  0  0  0  0  0  0  0  0  0  0  0
  2  1  1  6
  2  3  1  0
  2 13  1  0
  2 18  1  0
  3  4  1  0
  4  5  1  0
  4 12  1  0
  5  6  2  0
  5  7  1  0
  7  8  1  0
  8  9  1  0
  9 10  2  0
  9 11  1  0
 13 12  1  6
 13 14  1  0
 14 15  1  0
 15 16  2  0
 15 17  1  0
 17 18  1  0
 18 19  2  0
M  END
