
     RDKit          3D

 21 21  0  0  0  0  0  0  0  0999 V2000
   -3.8220    2.0110   -1.4210 O   0  0  0  0  0  0  0  0  0  0  0  0
   -3.6330    1.0400   -0.6600 C   0  0  0  0  0  0  0  0  0  0  0  0
   -3.1180    1.4370    0.6880 C   0  0  0  0  0  0  0  0  0  0  0  0
   -2.1600    2.3940    0.6520 O   0  0  0  0  0  0  0  0  0  0  0  0
   -0.8500    2.4660    0.3400 C   0  0  0  0  0  0  0  0  0  0  0  0
   -0.5000    3.2270   -0.5670 O   0  0  0  0  0  0  0  0  0  0  0  0
    0.0950    1.7760    0.9990 O   0  0  0  0  0  0  0  0  0  0  0  0
    0.3710    0.4550    1.2620 C   0  0  0  0  0  0  0  0  0  0  0  0
    0.8660   -0.1840    0.1500 O   0  0  0  0  0  0  0  0  0  0  0  0
    0.9810   -1.5720    0.1730 C   0  0  2  0  0  0  0  0  0  0  0  0
    2.4850   -1.8540    0.2650 C   0  0  0  0  0  0  0  0  0  0  0  0
    3.0540   -0.8520   -0.6250 O   0  0  0  0  0  0  0  0  0  0  0  0
    3.7660   -0.1400    0.2760 O   0  0  0  0  0  0  0  0  0  0  0  0
    4.7040    0.5470   -0.1260 O   0  0  0  0  0  0  0  0  0  0  0  0
    4.4080    1.7730   -0.4880 O   0  0  0  0  0  0  0  0  0  0  0  0
    0.3180   -2.3060   -0.8550 C   0  0  0  0  0  0  0  0  0  0  0  0
    0.6900   -3.4640   -1.2220 O   0  0  0  0  0  0  0  0  0  0  0  0
   -0.7900   -1.7450   -1.5390 O   0  0  0  0  0  0  0  0  0  0  0  0
   -1.7480   -0.9600   -0.7920 C   0  0  0  0  0  0  0  0  0  0  0  0
   -3.0540   -1.2430   -1.2650 O   0  0  0  0  0  0  0  0  0  0  0  0
   -3.8600   -0.2550   -0.9550 O   0  0  0  0  0  0  0  0  0  0  0  0
  1  2  2  0
  2  3  1  0
  2 21  1  0
  3  4  1  0
  4  5  1  0
  5  6  2  0
  5  7  1  0
  7  8  1  0
  8  9  1  0
  9 10  1  0
 10 11  1  6
 10 16  1  0
 11 12  1  0
 12 13  1  0
 13 14  1  0
 14 15  1  0
 16 17  2  0
 16 18  1  0
 18 19  1  0
 19 20  1  0
 20 21  1  0
M  END
