
     RDKit          3D

 20 21  0  0  0  0  0  0  0  0999 V2000
    0.4300    3.5820   -0.5790 N   0  0  0  0  0  0  0  0  0  0  0  0
   -0.2210    2.3330   -0.3770 C   0  0  0  0  0  0  0  0  0  0  0  0
   -1.5150    2.3580   -0.3280 N   0  0  0  0  0  0  0  0  0  0  0  0
   -2.1760    1.1200   -0.1270 C   0  0  0  0  0  0  0  0  0  0  0  0
   -3.4960    1.1230   -0.0740 C   0  0  0  0  0  0  0  0  0  0  0  0
   -4.2600   -0.0980    0.1280 C   0  0  0  0  0  0  0  0  0  0  0  0
   -5.5250   -0.4630    0.2310 C   0  0  0  0  0  0  0  0  0  0  0  0
   -5.1770   -1.8510    0.4120 C   0  0  0  0  0  0  0  0  0  0  0  0
   -5.6760   -2.9830    0.5920 O   0  0  0  0  0  0  0  0  0  0  0  0
   -3.8690   -1.4150    0.2980 O   0  0  0  0  0  0  0  0  0  0  0  0
   -1.4470   -0.0660    0.0110 O   0  0  0  0  0  0  0  0  0  0  0  0
   -0.0490   -0.0270   -0.0510 C   0  0  0  0  0  0  0  0  0  0  0  0
    0.7500   -1.2950    0.0950 C   0  0  0  0  0  0  0  0  0  0  0  0
    2.1130   -0.9300   -0.0110 O   0  0  0  0  0  0  0  0  0  0  0  0
    3.1600   -1.8290    0.0740 C   0  0  0  0  0  0  0  0  0  0  0  0
    2.8600   -3.0360    0.2560 O   0  0  0  0  0  0  0  0  0  0  0  0
    4.5810   -1.4550   -0.0350 C   0  0  0  0  0  0  0  0  0  0  0  0
    4.7300   -0.0860   -0.2340 O   0  0  0  0  0  0  0  0  0  0  0  0
    5.9980    0.2190   -0.3280 O   0  0  0  0  0  0  0  0  0  0  0  0
    0.4970    1.1110   -0.2340 N   0  0  0  0  0  0  0  0  0  0  0  0
  1  2  1  0
  2  3  2  0
  2 20  1  0
  3  4  1  0
  4  5  2  3
  4 11  1  0
  5  6  1  0
  6  7  2  0
  6 10  1  0
  7  8  1  0
  8  9  2  0
  8 10  1  0
 11 12  1  0
 12 13  1  0
 12 20  2  0
 13 14  1  0
 14 15  1  0
 15 16  2  0
 15 17  1  0
 17 18  1  0
 18 19  1  0
M  END
