
     RDKit          3D

 33 38  0  0  0  0  0  0  0  0999 V2000
    3.5960   -0.3900    1.7750 O   0  0  0  0  0  0  0  0  0  0  0  0
    2.9990   -0.1550    0.6880 C   0  0  0  0  0  0  0  0  0  0  0  0
    3.7400    0.0410   -0.4840 N   0  0  0  0  0  0  0  0  0  0  0  0
    5.1810   -0.0340   -0.4090 C   0  0  0  0  0  0  0  0  0  0  0  0
    5.9670    0.1480   -1.5200 C   0  0  0  0  0  0  0  0  0  0  0  0
    7.3430    0.0630   -1.3850 C   0  0  0  0  0  0  0  0  0  0  0  0
    7.9320   -0.1980   -0.1660 C   0  0  0  0  0  0  0  0  0  0  0  0
    9.3950   -0.2900   -0.0100 C   0  0  0  0  0  0  0  0  0  0  0  0
   10.3550   -0.1410   -0.9830 C   0  0  0  0  0  0  0  0  0  0  0  0
   11.5860   -0.3090   -0.3900 C   0  0  0  0  0  0  0  0  0  0  0  0
   11.3060   -0.5570    0.9480 C   0  0  0  0  0  0  0  0  0  0  0  0
   10.0040   -0.5320    1.1030 O   0  0  0  0  0  0  0  0  0  0  0  0
    7.1140   -0.3670    0.8870 N   0  0  0  0  0  0  0  0  0  0  0  0
    5.7930   -0.2870    0.7600 N   0  0  0  0  0  0  0  0  0  0  0  0
    1.5520   -0.0990    0.7040 C   0  0  0  0  0  0  0  0  0  0  0  0
    0.8580   -0.2910    1.8860 C   0  0  0  0  0  0  0  0  0  0  0  0
   -0.4950   -0.2580    2.0030 C   0  0  0  0  0  0  0  0  0  0  0  0
   -1.2190   -0.0120    0.8400 C   0  0  0  0  0  0  0  0  0  0  0  0
   -2.5840    0.0310    0.9010 C   0  0  0  0  0  0  0  0  0  0  0  0
   -3.4050    0.2680   -0.1890 C   0  0  0  0  0  0  0  0  0  0  0  0
   -4.8100    0.3020   -0.0710 N   0  0  0  0  0  0  0  0  0  0  0  0
   -5.5350    0.0980    1.1610 C   0  0  0  0  0  0  0  0  0  0  0  0
   -6.9590    0.1040    0.7090 C   0  0  0  0  0  0  0  0  0  0  0  0
   -8.0620   -0.1210    1.3670 C   0  0  0  0  0  0  0  0  0  0  0  0
   -9.3590   -0.0490    0.6630 C   0  0  0  0  0  0  0  0  0  0  0  0
   -9.2250   -0.3370   -0.7970 C   0  0  0  0  0  0  0  0  0  0  0  0
   -8.2000    0.5830   -1.4270 C   0  0  0  0  0  0  0  0  0  0  0  0
   -6.9140    0.4310   -0.7130 C   0  0  0  0  0  0  0  0  0  0  0  0
   -5.6920    0.5350   -1.1240 N   0  0  0  0  0  0  0  0  0  0  0  0
   -2.7500    0.4670   -1.4010 C   0  0  0  0  0  0  0  0  0  0  0  0
   -1.3690    0.4270   -1.4870 C   0  0  0  0  0  0  0  0  0  0  0  0
   -0.6010    0.1890   -0.3710 C   0  0  0  0  0  0  0  0  0  0  0  0
    0.7840    0.1400   -0.4130 C   0  0  0  0  0  0  0  0  0  0  0  0
  1  2  2  0
  2  3  1  0
  2 15  1  0
  3  4  1  0
  4  5  2  0
  4 14  1  0
  5  6  1  0
  6  7  2  0
  7  8  1  0
  7 13  1  0
  8  9  2  0
  8 12  1  0
  9 10  1  0
 10 11  2  0
 11 12  1  0
 13 14  2  0
 15 16  2  0
 15 33  1  0
 16 17  1  0
 17 18  2  0
 18 19  1  0
 18 32  1  0
 19 20  2  0
 20 21  1  0
 20 30  1  0
 21 22  1  0
 21 29  1  0
 22 23  1  0
 23 24  2  0
 23 28  1  0
 24 25  1  0
 25 26  1  0
 26 27  1  0
 27 28  1  0
 28 29  2  0
 30 31  2  0
 31 32  1  0
 32 33  2  0
M  END
