
     RDKit          3D

 33 38  0  0  0  0  0  0  0  0999 V2000
    1.1530   -2.2100   -1.1030 C   0  0  0  0  0  0  0  0  0  0  0  0
    1.7240   -0.8640   -1.2420 C   0  0  0  0  0  0  0  0  0  0  0  0
    2.8680   -0.4700   -0.7470 C   0  0  0  0  0  0  0  0  0  0  0  0
    3.2690    0.9360   -1.0000 C   0  0  0  0  0  0  0  0  0  0  0  0
    4.3960    1.3600   -0.5240 C   0  0  0  0  0  0  0  0  0  0  0  0
    5.3600    0.5980    0.2620 C   0  0  0  0  0  0  0  0  0  0  0  0
    4.9290   -0.7920    0.4930 C   0  0  0  0  0  0  0  0  0  0  0  0
    3.7910   -1.2800    0.0320 C   0  0  0  0  0  0  0  0  0  0  0  0
    3.6870   -2.6810    0.4480 C   0  0  0  0  0  0  0  0  0  0  0  0
    4.7680   -3.0130    1.1540 C   0  0  0  0  0  0  0  0  0  0  0  0
    5.6630   -1.8700    1.2600 C   0  0  0  0  0  0  0  0  0  0  0  0
    0.9080    0.0590   -2.0000 N   0  0  0  0  0  0  0  0  0  0  0  0
    1.1110    0.4750   -3.2540 C   0  0  0  0  0  0  0  0  0  0  0  0
    0.1200    1.3270   -3.5700 N   0  0  0  0  0  0  0  0  0  0  0  0
   -0.6920    1.4280   -2.4960 C   0  0  0  0  0  0  0  0  0  0  0  0
   -1.8350    2.1410   -2.2620 C   0  0  0  0  0  0  0  0  0  0  0  0
   -2.4940    2.0710   -1.0480 C   0  0  0  0  0  0  0  0  0  0  0  0
   -1.9850    1.2520   -0.0340 C   0  0  0  0  0  0  0  0  0  0  0  0
   -0.8400    0.5310   -0.2550 C   0  0  0  0  0  0  0  0  0  0  0  0
   -0.1970    0.6140   -1.4700 C   0  0  0  0  0  0  0  0  0  0  0  0
   -2.6540    1.2070    1.1390 N   0  0  0  0  0  0  0  0  0  0  0  0
   -2.1790    0.3760    2.2260 C   0  0  0  0  0  0  0  0  0  0  0  0
   -2.7470   -0.9950    2.1940 C   0  0  0  0  0  0  0  0  0  0  0  0
   -2.2840   -2.1340    1.6100 C   0  0  0  0  0  0  0  0  0  0  0  0
   -3.2100   -3.1430    1.8850 C   0  0  0  0  0  0  0  0  0  0  0  0
   -4.2080   -2.6540    2.6080 N   0  0  0  0  0  0  0  0  0  0  0  0
   -3.9510   -1.3610    2.8060 C   0  0  0  0  0  0  0  0  0  0  0  0
   -3.7700    1.9460    1.2780 C   0  0  0  0  0  0  0  0  0  0  0  0
   -4.4320    1.9350    2.3650 O   0  0  0  0  0  0  0  0  0  0  0  0
   -4.2670    2.7520    0.2710 C   0  0  0  0  0  0  0  0  0  0  0  0
   -5.3100    3.4440    0.3980 O   0  0  0  0  0  0  0  0  0  0  0  0
   -3.6110    2.8060   -0.9010 N   0  0  0  0  0  0  0  0  0  0  0  0
   -4.1200    3.6520   -1.9780 C   0  0  0  0  0  0  0  0  0  0  0  0
  1  2  1  0
  2  3  2  3
  2 12  1  0
  3  4  1  0
  3  8  1  0
  4  5  2  0
  5  6  1  0
  6  7  1  0
  7  8  2  0
  7 11  1  0
  8  9  1  0
  9 10  2  0
 10 11  1  0
 12 13  1  0
 12 20  1  0
 13 14  2  0
 14 15  1  0
 15 16  2  0
 15 20  1  0
 16 17  1  0
 17 18  2  0
 17 32  1  0
 18 19  1  0
 18 21  1  0
 19 20  2  0
 21 22  1  0
 21 28  1  0
 22 23  1  0
 23 24  1  0
 23 27  2  0
 24 25  2  0
 25 26  1  0
 26 27  1  0
 28 29  2  0
 28 30  1  0
 30 31  2  0
 30 32  1  0
 32 33  1  0
M  END
