
     RDKit          3D

 33 36  0  0  0  0  0  0  0  0999 V2000
   -8.1120   -0.6570   -2.1470 C   0  0  0  0  0  0  0  0  0  0  0  0
   -7.3980    0.0300   -1.0440 C   0  0  0  0  0  0  0  0  0  0  0  0
   -6.1500   -0.4060   -0.6350 C   0  0  0  0  0  0  0  0  0  0  0  0
   -5.4770    0.2290    0.3930 C   0  0  0  0  0  0  0  0  0  0  0  0
   -4.1980   -0.2240    0.7930 N   0  0  0  0  0  0  0  0  0  0  0  0
   -3.5280   -1.4030    0.3000 C   0  0  0  0  0  0  0  0  0  0  0  0
   -2.1510   -1.1220   -0.2650 C   0  0  0  0  0  0  0  0  0  0  0  0
   -1.5670   -0.0070    0.4360 N   0  0  0  0  0  0  0  0  0  0  0  0
   -0.1590    0.1370    0.2940 C   0  0  0  0  0  0  0  0  0  0  0  0
    0.6540   -0.9040    0.9410 C   0  0  0  0  0  0  0  0  0  0  0  0
    0.0670   -1.8250    1.5650 O   0  0  0  0  0  0  0  0  0  0  0  0
    2.0700   -0.9250    0.9010 N   0  0  0  0  0  0  0  0  0  0  0  0
    2.8230   -1.9720    1.5610 C   0  0  0  0  0  0  0  0  0  0  0  0
    3.9700   -1.3520    2.3030 C   0  0  0  0  0  0  0  0  0  0  0  0
    4.6130   -0.4320    1.6560 N   0  0  0  0  0  0  0  0  0  0  0  0
    4.2070   -0.0820    0.3430 C   0  0  0  0  0  0  0  0  0  0  0  0
    4.9800    0.0560   -0.6990 C   0  0  0  0  0  0  0  0  0  0  0  0
    6.4210   -0.1350   -0.6600 C   0  0  0  0  0  0  0  0  0  0  0  0
    7.2940   -0.9380   -0.0270 C   0  0  0  0  0  0  0  0  0  0  0  0
    8.5710   -0.7560   -0.3090 N   0  0  0  0  0  0  0  0  0  0  0  0
    9.0830   -0.0240   -1.0090 C   0  0  0  0  0  0  0  0  0  0  0  0
   10.4370    0.4550   -1.5550 C   0  0  0  0  0  0  0  0  0  0  0  0
   10.5940    1.8810   -1.2870 N   0  0  0  0  0  0  0  0  0  0  0  0
    7.5720    0.9020   -1.6920 S   0  0  0  0  0  0  0  0  0  0  0  0
    2.7380    0.1410    0.1710 C   0  0  0  0  0  0  0  0  0  0  0  0
   -2.0360   -0.0500    1.7970 C   0  0  0  0  0  0  0  0  0  0  0  0
   -3.4600    0.5480    1.7800 C   0  0  0  0  0  0  0  0  0  0  0  0
   -6.0390    1.3100    1.0310 C   0  0  0  0  0  0  0  0  0  0  0  0
   -5.4180    1.9770    2.0570 O   0  0  0  0  0  0  0  0  0  0  0  0
   -7.2990    1.7580    0.6250 C   0  0  0  0  0  0  0  0  0  0  0  0
   -7.9550    1.1090   -0.4060 C   0  0  0  0  0  0  0  0  0  0  0  0
   -9.2720    1.5950   -0.8150 C   0  0  0  0  0  0  0  0  0  0  0  0
   -9.9370    1.0680   -1.7380 O   0  0  0  0  0  0  0  0  0  0  0  0
  1  2  1  0
  2  3  2  0
  2 31  1  0
  3  4  1  0
  4  5  1  0
  4 28  2  0
  5  6  1  0
  5 27  1  0
  6  7  1  0
  7  8  1  0
  8  9  1  0
  8 26  1  0
  9 10  1  0
 10 11  2  0
 10 12  1  0
 12 13  1  0
 12 25  1  0
 13 14  1  0
 14 15  2  0
 15 16  1  0
 16 17  2  3
 16 25  1  0
 17 18  1  0
 18 19  2  0
 18 24  1  0
 19 20  1  0
 20 21  2  0
 21 22  1  0
 21 24  1  0
 22 23  1  0
 26 27  1  0
 28 29  1  0
 28 30  1  0
 30 31  2  0
 31 32  1  0
 32 33  2  0
M  CHG  1  23   1
M  END
