
     RDKit          3D

 33 38  0  0  0  0  0  0  0  0999 V2000
   -4.5920   -2.6140    2.1070 C   0  0  0  0  0  0  0  0  0  0  0  0
   -4.9290   -1.5930    1.0880 C   0  0  0  0  0  0  0  0  0  0  0  0
   -6.2330   -1.3540    0.6900 C   0  0  0  0  0  0  0  0  0  0  0  0
   -6.4750   -0.3910   -0.2610 C   0  0  0  0  0  0  0  0  0  0  0  0
   -7.7690   -0.1340   -0.6740 C   0  0  0  0  0  0  0  0  0  0  0  0
   -8.0540    0.8220   -1.6240 C   0  0  0  0  0  0  0  0  0  0  0  0
   -7.0050    1.5420   -2.1760 C   0  0  0  0  0  0  0  0  0  0  0  0
   -5.7070    1.3000   -1.7780 C   0  0  0  0  0  0  0  0  0  0  0  0
   -5.4400    0.3340   -0.8200 C   0  0  0  0  0  0  0  0  0  0  0  0
   -4.1440    0.0810   -0.4110 C   0  0  0  0  0  0  0  0  0  0  0  0
   -3.8650   -0.8750    0.5390 C   0  0  0  0  0  0  0  0  0  0  0  0
   -2.5050   -1.1470    0.9740 C   0  0  0  0  0  0  0  0  0  0  0  0
   -2.0280   -2.0160    1.8660 N   0  0  0  0  0  0  0  0  0  0  0  0
   -0.7200   -1.9000    1.9240 O   0  0  0  0  0  0  0  0  0  0  0  0
   -0.3130   -0.9620    1.0800 C   0  0  0  0  0  0  0  0  0  0  0  0
    1.0570   -0.5200    0.8350 C   0  0  0  0  0  0  0  0  0  0  0  0
    1.2450    0.4540   -0.0660 N   0  0  0  0  0  0  0  0  0  0  0  0
    2.4700    0.9100   -0.3330 C   0  0  0  0  0  0  0  0  0  0  0  0
    2.7040    1.8840   -1.2790 C   0  0  0  0  0  0  0  0  0  0  0  0
    3.9500    2.3080   -1.5600 N   0  0  0  0  0  0  0  0  0  0  0  0
    4.9960    1.7840   -0.9130 C   0  0  0  0  0  0  0  0  0  0  0  0
    4.8050    0.7920    0.0610 C   0  0  0  0  0  0  0  0  0  0  0  0
    3.5500    0.3320    0.3640 C   0  0  0  0  0  0  0  0  0  0  0  0
    3.3740   -0.6590    1.2750 C   0  0  0  0  0  0  0  0  0  0  0  0
    4.2450   -1.2330    1.9160 O   0  0  0  0  0  0  0  0  0  0  0  0
    2.0970   -1.0760    1.5000 N   0  0  0  0  0  0  0  0  0  0  0  0
    5.6790    0.1370    1.0270 C   0  0  0  0  0  0  0  0  0  0  0  0
    6.9360   -0.2570    0.9270 C   0  0  0  0  0  0  0  0  0  0  0  0
    7.9570   -0.2020   -0.1520 C   0  0  0  0  0  0  0  0  0  0  0  0
    8.1460    0.7020   -1.1230 C   0  0  0  0  0  0  0  0  0  0  0  0
    7.4810    1.9590   -1.5370 C   0  0  0  0  0  0  0  0  0  0  0  0
    6.2230    2.3740   -1.4460 C   0  0  0  0  0  0  0  0  0  0  0  0
   -1.4250   -0.5040    0.4990 N   0  0  0  0  0  0  0  0  0  0  0  0
  1  2  1  0
  2  3  2  0
  2 11  1  0
  3  4  1  0
  4  5  2  0
  4  9  1  0
  5  6  1  0
  6  7  2  0
  7  8  1  0
  8  9  2  0
  9 10  1  0
 10 11  2  0
 11 12  1  0
 12 13  2  0
 12 33  1  0
 13 14  1  0
 14 15  1  0
 15 16  1  0
 15 33  2  0
 16 17  2  0
 16 26  1  0
 17 18  1  0
 18 19  2  0
 18 23  1  0
 19 20  1  0
 20 21  2  0
 21 22  1  0
 21 32  1  0
 22 23  2  0
 22 27  1  0
 23 24  1  0
 24 25  2  0
 24 26  1  0
 27 28  2  0
 28 29  1  0
 29 30  2  0
 30 31  1  0
 31 32  2  0
M  END
