
     RDKit          3D

 33 36  0  0  0  0  0  0  0  0999 V2000
   -6.6090    1.0530   -2.2640 C   0  0  0  0  0  0  0  0  0  0  0  0
   -6.1500    0.8610   -1.0680 C   0  0  0  0  0  0  0  0  0  0  0  0
   -6.4350   -0.3010   -0.1140 C   0  0  0  0  0  0  0  0  0  0  0  0
   -6.4560    0.4680    1.1770 C   0  0  2  0  0  0  0  0  0  0  0  0
   -7.7040    1.2170    1.2140 N   0  0  0  0  0  0  0  0  0  0  0  0
   -5.3870    1.4690    0.9680 C   0  0  0  0  0  0  0  0  0  0  0  0
   -5.2380    1.6700   -0.3320 C   0  0  0  0  0  0  0  0  0  0  0  0
   -4.0860    2.5370   -0.8770 C   0  0  0  0  0  0  0  0  0  0  0  0
   -2.9400    1.9290   -0.1870 N   0  0  0  0  0  0  0  0  0  0  0  0
   -2.7300    0.5060   -0.5730 C   0  0  0  0  0  0  0  0  0  0  0  0
   -3.4480    0.0880   -1.4900 O   0  0  0  0  0  0  0  0  0  0  0  0
   -1.7320   -0.2160    0.1810 C   0  0  0  0  0  0  0  0  0  0  0  0
   -0.4180    0.3240    0.1360 N   0  0  0  0  0  0  0  0  0  0  0  0
   -0.1480    1.6260   -0.0060 N   0  0  0  0  0  0  0  0  0  0  0  0
    1.2120    1.7950   -0.0970 C   0  0  0  0  0  0  0  0  0  0  0  0
    1.7660    0.5880   -0.0050 C   0  0  0  0  0  0  0  0  0  0  0  0
    3.1020    0.0790    0.3240 C   0  0  0  0  0  0  0  0  0  0  0  0
    4.1230   -0.1010   -0.5450 N   0  0  0  0  0  0  0  0  0  0  0  0
    5.1450   -0.9460    0.1000 C   0  0  0  0  0  0  0  0  0  0  0  0
    6.3260   -0.1600    0.5100 C   0  0  0  0  0  0  0  0  0  0  0  0
    6.4020    1.1500   -0.0420 N   0  0  0  0  0  0  0  0  0  0  0  0
    7.3170    2.0700    0.4960 C   0  0  0  0  0  0  0  0  0  0  0  0
    7.4500    3.2050   -0.1740 O   0  0  0  0  0  0  0  0  0  0  0  0
    8.0600    1.9460    1.6210 O   0  0  0  0  0  0  0  0  0  0  0  0
    5.5360    1.6920   -1.1030 C   0  0  0  0  0  0  0  0  0  0  0  0
    4.5690    0.6540   -1.5870 C   0  0  0  0  0  0  0  0  0  0  0  0
    0.7230   -0.3750    0.1370 C   0  0  0  0  0  0  0  0  0  0  0  0
    0.9800   -1.8340    0.1280 C   0  0  1  0  0  0  0  0  0  0  0  0
   -0.0390   -2.6270    0.9600 C   0  0  0  0  0  0  0  0  0  0  0  0
    0.8810   -3.5920    1.7670 C   0  0  0  0  0  0  0  0  0  0  0  0
    2.1140   -4.1610    0.5180 S   0  0  0  0  0  0  0  0  0  0  0  0
    1.5130   -3.8070   -1.1730 C   0  0  0  0  0  0  0  0  0  0  0  0
    0.9470   -2.4070   -1.2890 C   0  0  0  0  0  0  0  0  0  0  0  0
  1  2  2  0
  2  3  1  0
  2  7  1  0
  3  4  1  0
  4  5  1  6
  4  6  1  0
  6  7  2  0
  7  8  1  0
  8  9  1  0
  9 10  1  0
 10 11  2  0
 10 12  1  0
 12 13  1  0
 13 14  1  0
 13 27  1  0
 14 15  2  0
 15 16  1  0
 16 17  1  0
 16 27  2  0
 17 18  1  0
 18 19  1  0
 18 26  1  0
 19 20  1  0
 20 21  1  0
 21 22  1  0
 21 25  1  0
 22 23  2  0
 22 24  1  0
 25 26  1  0
 28 27  1  6
 28 29  1  0
 28 33  1  0
 29 30  1  0
 30 31  1  0
 31 32  1  0
 32 33  1  0
M  CHG  1   5   1
M  END
