
     RDKit          3D

 33 36  0  0  0  0  0  0  0  0999 V2000
    4.2870   -0.6910   -0.3920 C   0  0  0  0  0  0  0  0  0  0  0  0
    4.4970    0.7360   -0.3620 N   0  0  0  0  0  0  0  0  0  0  0  0
    3.5180    1.6570   -0.4400 C   0  0  0  0  0  0  0  0  0  0  0  0
    1.7700    1.2560   -0.6470 S   0  0  0  0  0  0  0  0  0  0  0  0
    1.1580    0.9770    1.0570 C   0  0  0  0  0  0  0  0  0  0  0  0
   -0.3100    0.9450    1.1670 C   0  0  0  0  0  0  0  0  0  0  0  0
   -0.9200   -0.0870    0.3030 C   0  0  0  0  0  0  0  0  0  0  0  0
   -0.1870   -0.8250   -0.3900 O   0  0  0  0  0  0  0  0  0  0  0  0
   -2.3290   -0.2440    0.2390 N   0  0  0  0  0  0  0  0  0  0  0  0
   -3.0620   -1.1520   -0.5660 C   0  0  0  0  0  0  0  0  0  0  0  0
   -4.5270   -1.1610   -0.3610 C   0  0  0  0  0  0  0  0  0  0  0  0
   -5.1800   -1.7440   -1.3300 O   0  0  0  0  0  0  0  0  0  0  0  0
   -5.2890   -0.6650    0.6640 N   0  0  0  0  0  0  0  0  0  0  0  0
   -4.8030   -0.4020    1.9940 C   0  0  0  0  0  0  0  0  0  0  0  0
   -5.1630    0.9930    2.3790 C   0  0  0  0  0  0  0  0  0  0  0  0
   -5.5530    1.8520    1.2370 C   0  0  0  0  0  0  0  0  0  0  0  0
   -6.4790    1.3030    0.2260 C   0  0  0  0  0  0  0  0  0  0  0  0
   -6.6670   -0.2210    0.4710 C   0  0  1  0  0  0  0  0  0  0  0  0
   -7.3350   -0.7900   -0.7230 C   0  0  0  0  0  0  0  0  0  0  0  0
   -7.6160   -0.1060   -1.8470 C   0  0  0  0  0  0  0  0  0  0  0  0
   -8.2740   -1.0160   -2.7900 C   0  0  0  0  0  0  0  0  0  0  0  0
   -8.3510   -2.3140   -2.0930 C   0  0  0  0  0  0  0  0  0  0  0  0
   -7.7930   -2.1450   -0.8900 C   0  0  0  0  0  0  0  0  0  0  0  0
    4.0530    2.8930   -0.3660 N   0  0  0  0  0  0  0  0  0  0  0  0
    5.3620    2.7170   -0.2400 N   0  0  0  0  0  0  0  0  0  0  0  0
    5.6610    1.3780   -0.2330 C   0  0  0  0  0  0  0  0  0  0  0  0
    7.0080    0.8440   -0.1000 C   0  0  2  0  0  0  0  0  0  0  0  0
    7.8820    1.9130    0.2410 O   0  0  0  0  0  0  0  0  0  0  0  0
    7.6160    0.2570   -1.3440 C   0  0  0  0  0  0  0  0  0  0  0  0
    9.0730   -0.0370   -0.9610 C   0  0  0  0  0  0  0  0  0  0  0  0
    9.0670   -1.1680   -0.0920 N   0  0  0  0  0  0  0  0  0  0  0  0
    7.8890   -1.3730    0.6820 C   0  0  0  0  0  0  0  0  0  0  0  0
    7.1420   -0.1400    1.0480 C   0  0  0  0  0  0  0  0  0  0  0  0
  1  2  1  0
  2  3  1  0
  2 26  1  0
  3  4  1  0
  3 24  2  0
  4  5  1  0
  5  6  1  0
  6  7  1  0
  7  8  2  0
  7  9  1  0
  9 10  1  0
 10 11  1  0
 11 12  2  0
 11 13  1  0
 13 14  1  0
 13 18  1  0
 14 15  1  0
 15 16  1  0
 16 17  1  0
 17 18  1  0
 18 19  1  6
 19 20  2  0
 19 23  1  0
 20 21  1  0
 21 22  1  0
 22 23  2  0
 24 25  1  0
 25 26  2  0
 26 27  1  0
 27 28  1  1
 27 29  1  0
 27 33  1  0
 29 30  1  0
 30 31  1  0
 31 32  1  0
 32 33  1  0
M  CHG  1  31   1
M  END
