
     RDKit          3D

 33 37  0  0  0  0  0  0  0  0999 V2000
   -5.5540   -1.8520   -1.2790 C   0  0  0  0  0  0  0  0  0  0  0  0
   -4.9090   -0.7580   -0.4290 C   0  0  1  0  0  0  0  0  0  0  0  0
   -4.1250    0.1710   -1.3080 C   0  0  1  0  0  0  0  0  0  0  0  0
   -4.9510    0.8470   -2.3810 C   0  0  0  0  0  0  0  0  0  0  0  0
   -3.3640    1.1550   -0.6170 N   0  0  0  0  0  0  0  0  0  0  0  0
   -2.2080    0.8210    0.1430 C   0  0  0  0  0  0  0  0  0  0  0  0
   -2.2030    0.1510    1.3280 C   0  0  0  0  0  0  0  0  0  0  0  0
   -0.9910   -0.1560    1.9600 C   0  0  0  0  0  0  0  0  0  0  0  0
    0.2090    0.2130    1.4010 C   0  0  0  0  0  0  0  0  0  0  0  0
    0.1840    0.8920    0.2030 C   0  0  0  0  0  0  0  0  0  0  0  0
   -0.9960    1.1930   -0.4190 C   0  0  0  0  0  0  0  0  0  0  0  0
    1.6000    1.1560   -0.1610 C   0  0  0  0  0  0  0  0  0  0  0  0
    1.9460    1.7640   -1.2070 O   0  0  0  0  0  0  0  0  0  0  0  0
    2.4460    0.6230    0.8360 N   0  0  0  0  0  0  0  0  0  0  0  0
    3.8450    0.6950    0.8060 N   0  0  0  0  0  0  0  0  0  0  0  0
    4.5910    0.0280   -0.1910 C   0  0  0  0  0  0  0  0  0  0  0  0
    4.0020   -0.6480   -1.0560 O   0  0  0  0  0  0  0  0  0  0  0  0
    6.0310    0.1300   -0.2080 C   0  0  0  0  0  0  0  0  0  0  0  0
    6.6680    1.3400   -0.3270 C   0  0  0  0  0  0  0  0  0  0  0  0
    8.0310    1.4280   -0.3460 C   0  0  0  0  0  0  0  0  0  0  0  0
    8.8130    0.2890   -0.2430 C   0  0  0  0  0  0  0  0  0  0  0  0
   10.1320    0.0690   -0.2290 N   0  0  0  0  0  0  0  0  0  0  0  0
   10.3400   -1.2580   -0.1040 C   0  0  0  0  0  0  0  0  0  0  0  0
    9.1630   -1.8790   -0.0370 N   0  0  0  0  0  0  0  0  0  0  0  0
    8.2010   -0.9470   -0.1210 C   0  0  0  0  0  0  0  0  0  0  0  0
    6.8240   -0.9860   -0.1080 C   0  0  0  0  0  0  0  0  0  0  0  0
    1.6040    0.0440    1.7950 C   0  0  0  0  0  0  0  0  0  0  0  0
    2.0200   -0.5330    2.8400 O   0  0  0  0  0  0  0  0  0  0  0  0
   -5.7310   -0.1850    0.5220 N   0  0  0  0  0  0  0  0  0  0  0  0
   -6.2410   -1.0520    1.5470 C   0  0  0  0  0  0  0  0  0  0  0  0
   -7.5910   -1.5740    1.1300 C   0  0  0  0  0  0  0  0  0  0  0  0
   -8.2220   -0.1020    0.2210 S   0  0  0  0  0  0  0  0  0  0  0  0
   -6.6340    0.8440    0.2740 C   0  0  0  0  0  0  0  0  0  0  0  0
  2  1  1  6
  2  3  1  0
  2 29  1  0
  3  4  1  6
  3  5  1  0
  5  6  1  0
  6  7  2  0
  6 11  1  0
  7  8  1  0
  8  9  2  0
  9 10  1  0
  9 27  1  0
 10 11  2  0
 10 12  1  0
 12 13  2  0
 12 14  1  0
 14 15  1  0
 14 27  1  0
 15 16  1  0
 16 17  2  0
 16 18  1  0
 18 19  2  0
 18 26  1  0
 19 20  1  0
 20 21  2  0
 21 22  1  0
 21 25  1  0
 22 23  1  0
 23 24  2  0
 24 25  1  0
 25 26  2  0
 27 28  2  0
 29 30  1  0
 29 33  1  0
 30 31  1  0
 31 32  1  0
 32 33  1  0
M  CHG  1  24   1
M  END
