
     RDKit          3D

 33 38  0  0  0  0  0  0  0  0999 V2000
    4.0660   -2.6390    0.2700 C   0  0  0  0  0  0  0  0  0  0  0  0
    4.3900   -1.5000   -0.6890 C   0  0  0  0  0  0  0  0  0  0  0  0
    3.6300   -0.3080   -0.3940 N   0  0  0  0  0  0  0  0  0  0  0  0
    4.0850    0.6060    0.4660 C   0  0  0  0  0  0  0  0  0  0  0  0
    5.3490    0.4400    1.1590 C   0  0  0  0  0  0  0  0  0  0  0  0
    5.8510    1.3910    2.0620 C   0  0  0  0  0  0  0  0  0  0  0  0
    7.0590    0.9340    2.5420 C   0  0  0  0  0  0  0  0  0  0  0  0
    7.2450   -0.2900    1.9040 C   0  0  0  0  0  0  0  0  0  0  0  0
    6.2220   -0.5030    1.1280 O   0  0  0  0  0  0  0  0  0  0  0  0
    3.3080    1.7110    0.6760 N   0  0  0  0  0  0  0  0  0  0  0  0
    2.1490    1.9040    0.0740 N   0  0  0  0  0  0  0  0  0  0  0  0
    1.6670    1.0000   -0.7950 C   0  0  0  0  0  0  0  0  0  0  0  0
    0.3860    1.2630   -1.4280 C   0  0  0  0  0  0  0  0  0  0  0  0
    0.1930    1.9400   -2.6230 C   0  0  0  0  0  0  0  0  0  0  0  0
    1.2890    2.5060   -3.4470 C   0  0  0  0  0  0  0  0  0  0  0  0
   -1.0990    2.0000   -2.9080 N   0  0  0  0  0  0  0  0  0  0  0  0
   -1.7780    1.3830   -1.9380 C   0  0  0  0  0  0  0  0  0  0  0  0
   -0.8760    0.9180   -1.0090 C   0  0  0  0  0  0  0  0  0  0  0  0
   -1.3110    0.2380    0.1030 C   0  0  0  0  0  0  0  0  0  0  0  0
   -2.6770    0.0340    0.2630 C   0  0  0  0  0  0  0  0  0  0  0  0
   -3.1440   -0.6810    1.3760 N   0  0  0  0  0  0  0  0  0  0  0  0
   -3.7310   -2.0180    1.3120 C   0  0  0  0  0  0  0  0  0  0  0  0
   -4.7090   -2.0480    2.4590 C   0  0  0  0  0  0  0  0  0  0  0  0
   -4.0320   -1.2310    3.5090 C   0  0  0  0  0  0  0  0  0  0  0  0
   -3.1550   -0.2620    2.7700 C   0  0  0  0  0  0  0  0  0  0  0  0
   -3.5780    0.5030   -0.6710 C   0  0  0  0  0  0  0  0  0  0  0  0
   -4.9470    0.3280   -0.5430 C   0  0  0  0  0  0  0  0  0  0  0  0
   -5.8340    0.8080   -1.4800 C   0  0  0  0  0  0  0  0  0  0  0  0
   -5.3510    1.4850   -2.5830 C   0  0  0  0  0  0  0  0  0  0  0  0
   -4.0010    1.6850   -2.7560 C   0  0  0  0  0  0  0  0  0  0  0  0
   -3.1310    1.1940   -1.8000 C   0  0  0  0  0  0  0  0  0  0  0  0
    2.4450   -0.1140   -1.0110 C   0  0  0  0  0  0  0  0  0  0  0  0
    2.0260   -0.9740   -1.8130 O   0  0  0  0  0  0  0  0  0  0  0  0
  1  2  1  0
  2  3  1  0
  3  4  1  0
  3 32  1  0
  4  5  1  0
  4 10  2  0
  5  6  2  0
  5  9  1  0
  6  7  1  0
  7  8  2  0
  8  9  1  0
 10 11  1  0
 11 12  2  0
 12 13  1  0
 12 32  1  0
 13 14  2  0
 13 18  1  0
 14 15  1  0
 14 16  1  0
 16 17  1  0
 17 18  2  0
 17 31  1  0
 18 19  1  0
 19 20  2  0
 20 21  1  0
 20 26  1  0
 21 22  1  0
 21 25  1  0
 22 23  1  0
 23 24  1  0
 24 25  1  0
 26 27  2  0
 26 31  1  0
 27 28  1  0
 28 29  2  0
 29 30  1  0
 30 31  2  0
 32 33  2  0
M  END
