
     RDKit          3D

 32 36  0  0  0  0  0  0  0  0999 V2000
   -2.1790    2.3440   -1.0700 C   0  0  0  0  0  0  0  0  0  0  0  0
   -2.9520    1.2300   -0.4520 C   0  0  0  0  0  0  0  0  0  0  0  0
   -4.3280    1.2750   -0.4100 C   0  0  0  0  0  0  0  0  0  0  0  0
   -5.0110    0.2220    0.1700 C   0  0  0  0  0  0  0  0  0  0  0  0
   -4.3190   -0.8500    0.6960 C   0  0  0  0  0  0  0  0  0  0  0  0
   -2.9300   -0.8670    0.6380 C   0  0  0  0  0  0  0  0  0  0  0  0
   -2.2130    0.1560    0.0700 C   0  0  0  0  0  0  0  0  0  0  0  0
   -0.8040    0.2130   -0.0450 N   0  0  0  0  0  0  0  0  0  0  0  0
   -0.2540   -0.0490   -1.3310 C   0  0  0  0  0  0  0  0  0  0  0  0
   -0.9860   -0.3430   -2.2700 O   0  0  0  0  0  0  0  0  0  0  0  0
    1.2010    0.0380   -1.5120 C   0  0  0  0  0  0  0  0  0  0  0  0
    1.6930   -0.2080   -2.7650 C   0  0  0  0  0  0  0  0  0  0  0  0
    3.0490   -0.1220   -2.9740 C   0  0  0  0  0  0  0  0  0  0  0  0
    3.9020    0.2050   -1.9480 C   0  0  0  0  0  0  0  0  0  0  0  0
    3.4180    0.4520   -0.6850 C   0  0  0  0  0  0  0  0  0  0  0  0
    4.2790    0.7920    0.3540 C   0  0  0  0  0  0  0  0  0  0  0  0
    5.7140    0.8900    0.1130 C   0  0  0  0  0  0  0  0  0  0  0  0
    6.4890   -0.3750    0.0430 C   0  0  0  0  0  0  0  0  0  0  0  0
    6.4110   -1.1910    1.3450 C   0  0  0  0  0  0  0  0  0  0  0  0
    7.2040   -2.3400    1.1010 O   0  0  0  0  0  0  0  0  0  0  0  0
    3.6990    1.0360    1.5910 C   0  0  0  0  0  0  0  0  0  0  0  0
    2.3520    0.9550    1.8110 C   0  0  0  0  0  0  0  0  0  0  0  0
    1.4840    0.6190    0.7860 C   0  0  0  0  0  0  0  0  0  0  0  0
    2.0480    0.3660   -0.4700 C   0  0  0  0  0  0  0  0  0  0  0  0
    0.0510    0.5500    1.0360 C   0  0  0  0  0  0  0  0  0  0  0  0
   -0.4180    0.7820    2.1770 O   0  0  0  0  0  0  0  0  0  0  0  0
   -5.2130   -1.7300    1.1930 N   0  0  0  0  0  0  0  0  0  0  0  0
   -4.8750   -3.0060    1.8370 C   0  0  0  0  0  0  0  0  0  0  0  0
   -6.4440   -1.2280    0.9880 C   0  0  0  0  0  0  0  0  0  0  0  0
   -7.5160   -1.7710    1.3180 O   0  0  0  0  0  0  0  0  0  0  0  0
   -6.3160   -0.0490    0.3700 N   0  0  0  0  0  0  0  0  0  0  0  0
   -7.3740    0.8670   -0.0610 C   0  0  0  0  0  0  0  0  0  0  0  0
  1  2  1  0
  2  3  2  0
  2  7  1  0
  3  4  1  0
  4  5  2  0
  4 31  1  0
  5  6  1  0
  5 27  1  0
  6  7  2  0
  7  8  1  0
  8  9  1  0
  8 25  1  0
  9 10  2  0
  9 11  1  0
 11 12  2  0
 11 24  1  0
 12 13  1  0
 13 14  2  0
 14 15  1  0
 15 16  2  0
 15 24  1  0
 16 17  1  0
 16 21  1  0
 17 18  1  0
 18 19  1  0
 19 20  1  0
 21 22  2  0
 22 23  1  0
 23 24  2  0
 23 25  1  0
 25 26  2  0
 27 28  1  0
 27 29  1  0
 29 30  2  0
 29 31  1  0
 31 32  1  0
M  END
