
     RDKit          3D

 18 18  0  0  0  0  0  0  0  0999 V2000
   -2.7260    3.7440   -1.1070 C   0  0  0  0  0  0  0  0  0  0  0  0
   -2.1620    3.7240    0.2700 C   0  0  0  0  0  0  0  0  0  0  0  0
   -1.9580    2.3110    0.7980 C   0  0  0  0  0  0  0  0  0  0  0  0
   -1.0090    1.5270   -0.0290 C   0  0  0  0  0  0  0  0  0  0  0  0
   -0.8280    0.2050    0.5170 N   0  0  0  0  0  0  0  0  0  0  0  0
    0.2310   -0.5170   -0.1620 C   0  0  0  0  0  0  0  0  0  0  0  0
    1.6040    0.0390    0.1040 C   0  0  0  0  0  0  0  0  0  0  0  0
    2.5770   -0.8260   -0.6660 C   0  0  0  0  0  0  0  0  0  0  0  0
    4.0040   -0.4150   -0.5090 C   0  0  1  0  0  0  0  0  0  0  0  0
    4.2450    1.0140   -0.9880 C   0  0  0  0  0  0  0  0  0  0  0  0
    4.5380   -0.6290    0.8190 N   0  0  0  0  0  0  0  0  0  0  0  0
    5.9770   -0.8770    0.7480 C   0  0  0  0  0  0  0  0  0  0  0  0
   -2.0480   -0.5540    0.5540 C   0  0  1  0  0  0  0  0  0  0  0  0
   -2.6290   -0.8270   -0.8070 C   0  0  0  0  0  0  0  0  0  0  0  0
   -2.9410   -2.2960   -1.0050 C   0  0  0  0  0  0  0  0  0  0  0  0
   -3.8270   -2.8310    0.0950 C   0  0  0  0  0  0  0  0  0  0  0  0
   -3.3630   -2.3650    1.4590 C   0  0  0  0  0  0  0  0  0  0  0  0
   -1.9120   -1.8610    1.3000 C   0  0  0  0  0  0  0  0  0  0  0  0
  1  2  1  0
  2  3  1  0
  3  4  1  0
  4  5  1  0
  5  6  1  0
 13  5  1  6
  6  7  1  0
  7  8  1  0
  8  9  1  0
  9 10  1  1
  9 11  1  0
 11 12  1  0
 13 14  1  0
 13 18  1  0
 14 15  1  0
 15 16  1  0
 16 17  1  0
 17 18  1  0
M  CHG  1  11   1
M  END
