
     RDKit          3D

 17 16  0  0  0  0  0  0  0  0999 V2000
    4.9120   -0.0930    1.9790 C   0  0  0  0  0  0  0  0  0  0  0  0
    4.5620   -1.2770    1.1550 C   0  0  0  0  0  0  0  0  0  0  0  0
    3.1820   -1.2750    0.5590 C   0  0  0  0  0  0  0  0  0  0  0  0
    2.8950   -0.1400   -0.3570 C   0  0  0  0  0  0  0  0  0  0  0  0
    1.5490   -0.2210   -0.9000 N   0  0  0  0  0  0  0  0  0  0  0  0
    0.5390    0.0250    0.0730 C   0  0  0  0  0  0  0  0  0  0  0  0
   -0.8790   -0.2340   -0.4580 C   0  0  1  0  0  0  0  0  0  0  0  0
   -0.8980   -1.6900   -0.8540 C   0  0  0  0  0  0  0  0  0  0  0  0
   -1.8280    0.0770    0.6870 C   0  0  0  0  0  0  0  0  0  0  0  0
   -3.1990   -0.1020    0.4080 N   0  0  0  0  0  0  0  0  0  0  0  0
   -3.6850   -1.4230    0.2320 C   0  0  0  0  0  0  0  0  0  0  0  0
   -4.0320    0.6250    1.3210 C   0  0  1  0  0  0  0  0  0  0  0  0
   -3.8710    2.1130    1.2660 C   0  0  0  0  0  0  0  0  0  0  0  0
   -5.5070    0.2890    1.1270 C   0  0  0  0  0  0  0  0  0  0  0  0
    1.4290    0.5920   -2.0910 C   0  0  1  0  0  0  0  0  0  0  0  0
    1.6320    2.0480   -1.8510 C   0  0  0  0  0  0  0  0  0  0  0  0
    2.4560    0.1600   -3.1260 C   0  0  0  0  0  0  0  0  0  0  0  0
  1  2  1  0
  2  3  1  0
  3  4  1  0
  4  5  1  0
  5  6  1  0
  5 15  1  0
  6  7  1  0
  7  8  1  1
  7  9  1  0
  9 10  1  0
 10 11  1  0
 10 12  1  0
 12 13  1  6
 12 14  1  0
 15 16  1  1
 15 17  1  0
M  END
