
     RDKit          3D

 18 17  0  0  0  0  0  0  0  0999 V2000
   -1.1320    3.4520   -3.0320 C   0  0  0  0  0  0  0  0  0  0  0  0
   -0.7870    2.6110   -1.7800 C   0  0  0  0  0  0  0  0  0  0  0  0
   -1.4990    1.3390   -1.8860 C   0  0  0  0  0  0  0  0  0  0  0  0
   -1.3970    0.3640   -0.8370 N   0  0  0  0  0  0  0  0  0  0  0  0
   -0.2510   -0.3550   -0.6640 C   0  0  0  0  0  0  0  0  0  0  0  0
    1.0330    0.3500   -0.2310 C   0  0  0  0  0  0  0  0  0  0  0  0
    2.1390   -0.7080   -0.0530 C   0  0  0  0  0  0  0  0  0  0  0  0
    3.3950   -0.1580    0.3100 N   0  0  1  0  0  0  0  0  0  0  0  0
    3.4380    0.7960    1.3580 C   0  0  0  0  0  0  0  0  0  0  0  0
    4.7220    1.6180    1.1600 C   0  0  0  0  0  0  0  0  0  0  0  0
    4.2500   -1.2840    0.7050 C   0  0  0  0  0  0  0  0  0  0  0  0
    4.8060   -2.0090   -0.4760 C   0  0  0  0  0  0  0  0  0  0  0  0
   -2.6970   -0.0450   -0.5780 C   0  0  0  0  0  0  0  0  0  0  0  0
   -3.2080   -0.9730    0.4110 C   0  0  1  0  0  0  0  0  0  0  0  0
   -2.7890   -2.4030    0.3790 C   0  0  0  0  0  0  0  0  0  0  0  0
   -3.4710   -3.2410    1.4920 C   0  0  0  0  0  0  0  0  0  0  0  0
   -3.2160   -0.3680    1.8220 C   0  0  0  0  0  0  0  0  0  0  0  0
   -4.1130    0.8830    1.7420 C   0  0  0  0  0  0  0  0  0  0  0  0
  1  2  1  0
  2  3  1  0
  3  4  1  0
  4  5  1  0
  4 13  1  0
  5  6  1  0
  6  7  1  0
  8  7  1  1
  8  9  1  0
  8 11  1  0
  9 10  1  0
 11 12  1  0
 14 13  1  6
 14 15  1  0
 14 17  1  0
 15 16  1  0
 17 18  1  0
M  CHG  1   8   1
M  END
