
     RDKit          3D

 18 17  0  0  0  0  0  0  0  0999 V2000
    5.4360    1.2660    0.2170 C   0  0  0  0  0  0  0  0  0  0  0  0
    4.0810    1.1270   -0.4320 C   0  0  0  0  0  0  0  0  0  0  0  0
    3.3550    0.0670    0.0810 N   0  0  0  0  0  0  0  0  0  0  0  0
    3.6700   -1.2570   -0.1840 C   0  0  0  0  0  0  0  0  0  0  0  0
    4.9360   -1.7410    0.4770 C   0  0  0  0  0  0  0  0  0  0  0  0
    2.0130    0.3410    0.5880 C   0  0  0  0  0  0  0  0  0  0  0  0
    1.0650    0.6580   -0.5260 C   0  0  0  0  0  0  0  0  0  0  0  0
   -0.3120    0.9890   -0.2500 C   0  0  0  0  0  0  0  0  0  0  0  0
   -1.3320    0.2870    0.3020 N   0  0  0  0  0  0  0  0  0  0  0  0
   -2.4740    1.0610    0.6050 C   0  0  0  0  0  0  0  0  0  0  0  0
   -3.3510    1.6350   -0.4280 C   0  0  1  0  0  0  0  0  0  0  0  0
   -4.5360    2.3900    0.2830 C   0  0  0  0  0  0  0  0  0  0  0  0
   -2.7840    2.6930   -1.3270 C   0  0  0  0  0  0  0  0  0  0  0  0
   -1.5160   -1.1100    0.2550 C   0  0  2  0  0  0  0  0  0  0  0  0
   -0.5140   -1.9560    0.9940 C   0  0  0  0  0  0  0  0  0  0  0  0
   -1.5980   -1.5580   -1.2200 C   0  0  0  0  0  0  0  0  0  0  0  0
   -2.8540   -1.4580    0.8670 C   0  0  0  0  0  0  0  0  0  0  0  0
   -3.0870   -2.9770    0.8140 C   0  0  0  0  0  0  0  0  0  0  0  0
  1  2  1  0
  2  3  1  0
  3  4  1  0
  3  6  1  0
  4  5  1  0
  6  7  1  0
  7  8  1  0
  8  9  1  0
  9 10  1  0
  9 14  1  0
 10 11  1  0
 11 12  1  1
 11 13  1  0
 14 15  1  1
 14 16  1  0
 14 17  1  0
 17 18  1  0
M  END
