
     RDKit          3D

 14 14  0  0  0  0  0  0  0  0999 V2000
    3.8230    1.0590   -0.4810 C   0  0  0  0  0  0  0  0  0  0  0  0
    3.5510   -0.2430    0.2340 C   0  0  0  0  0  0  0  0  0  0  0  0
    2.2170   -0.6770    0.0920 O   0  0  0  0  0  0  0  0  0  0  0  0
    1.1230    0.0690    0.5230 C   0  0  0  0  0  0  0  0  0  0  0  0
    1.3310    1.1600    1.0540 O   0  0  0  0  0  0  0  0  0  0  0  0
   -0.2380   -0.4130    0.3580 C   0  0  0  0  0  0  0  0  0  0  0  0
   -0.4620   -1.5970   -0.2190 C   0  0  0  0  0  0  0  0  0  0  0  0
    0.9290   -2.5030   -0.7460 Cl  0  0  0  0  0  0  0  0  0  0  0  0
   -1.8480   -2.0510   -0.3680 C   0  0  0  0  0  0  0  0  0  0  0  0
   -2.6710   -0.8740   -0.7820 C   0  0  0  0  0  0  0  0  0  0  0  0
   -3.5610   -0.9780   -1.6400 O   0  0  0  0  0  0  0  0  0  0  0  0
   -2.4090    0.3620   -0.1710 N   0  0  0  0  0  0  0  0  0  0  0  0
   -3.1620    1.5530   -0.5240 C   0  0  0  0  0  0  0  0  0  0  0  0
   -1.3540    0.4280    0.8380 C   0  0  0  0  0  0  0  0  0  0  0  0
  1  2  1  0
  2  3  1  0
  3  4  1  0
  4  5  2  0
  4  6  1  0
  6  7  2  0
  6 14  1  0
  7  8  1  0
  7  9  1  0
  9 10  1  0
 10 11  2  0
 10 12  1  0
 12 13  1  0
 12 14  1  0
M  END
