
     RDKit          3D

 13 13  0  0  0  0  0  0  0  0999 V2000
    4.3880   -0.9310   -0.3770 C   0  0  0  0  0  0  0  0  0  0  0  0
    3.4220   -0.4210   -1.2870 O   0  0  0  0  0  0  0  0  0  0  0  0
    2.2350    0.0770   -0.7140 C   0  0  0  0  0  0  0  0  0  0  0  0
    2.0780    0.0540    0.5270 O   0  0  0  0  0  0  0  0  0  0  0  0
    1.1980    0.6110   -1.5240 N   0  0  0  0  0  0  0  0  0  0  0  0
   -0.0440    1.1290   -1.0420 C   0  0  0  0  0  0  0  0  0  0  0  0
   -0.9220    0.1770   -0.3590 C   0  0  0  0  0  0  0  0  0  0  0  0
   -0.6320   -1.0970   -0.2350 C   0  0  0  0  0  0  0  0  0  0  0  0
   -1.5100   -2.0830    0.4580 C   0  0  0  0  0  0  0  0  0  0  0  0
   -2.6820   -1.4850    0.9560 O   0  0  0  0  0  0  0  0  0  0  0  0
   -2.9960   -0.1510    0.8330 C   0  0  0  0  0  0  0  0  0  0  0  0
   -2.1800    0.6760    0.2110 C   0  0  0  0  0  0  0  0  0  0  0  0
   -2.5800    2.1000    0.1140 C   0  0  0  0  0  0  0  0  0  0  0  0
  1  2  1  0
  2  3  1  0
  3  4  2  0
  3  5  1  0
  5  6  1  0
  6  7  1  0
  7  8  2  0
  7 12  1  0
  8  9  1  0
  9 10  1  0
 10 11  1  0
 11 12  2  0
 12 13  1  0
M  END
