
     RDKit          3D

 13 13  0  0  0  0  0  0  0  0999 V2000
   -1.3470    3.5890   -0.3950 C   0  0  0  0  0  0  0  0  0  0  0  0
   -0.0450    3.4620   -0.5060 C   0  0  0  0  0  0  0  0  0  0  0  0
    0.4950    2.0330   -0.0750 C   0  0  0  0  0  0  0  0  0  0  0  0
    1.9140    2.3130   -0.3860 C   0  0  0  0  0  0  0  0  0  0  0  0
    0.1840    1.0270    0.5300 C   0  0  0  0  0  0  0  0  0  0  0  0
   -0.9540    0.6690    1.2200 O   0  0  0  0  0  0  0  0  0  0  0  0
    1.0340   -0.2200    0.6760 N   0  0  0  0  0  0  0  0  0  0  0  0
    0.7490   -1.4530    1.2660 C   0  0  0  0  0  0  0  0  0  0  0  0
   -0.2410   -2.2440    0.4320 C   0  0  0  0  0  0  0  0  0  0  0  0
   -0.8670   -1.7620   -0.6240 C   0  0  0  0  0  0  0  0  0  0  0  0
   -1.7030   -2.8140   -1.1140 O   0  0  0  0  0  0  0  0  0  0  0  0
   -1.1210   -4.0240   -0.6340 C   0  0  0  0  0  0  0  0  0  0  0  0
   -0.6300   -3.6020    0.6500 O   0  0  0  0  0  0  0  0  0  0  0  0
  1  2  2  0
  2  3  1  0
  3  4  2  0
  3  5  1  0
  5  6  2  0
  5  7  1  0
  7  8  1  0
  8  9  1  0
  9 10  2  0
  9 13  1  0
 10 11  1  0
 11 12  1  0
 12 13  1  0
M  END
