
     RDKit          3D

 13 13  0  0  0  0  0  0  0  0999 V2000
   -4.0110    0.5470   -0.3850 C   0  0  0  0  0  0  0  0  0  0  0  0
   -3.0880   -0.2400    0.3990 N   0  0  0  0  0  0  0  0  0  0  0  0
   -1.6770   -0.2050    0.2260 C   0  0  0  0  0  0  0  0  0  0  0  0
   -1.1320    0.9110    0.7030 C   0  0  0  0  0  0  0  0  0  0  0  0
    0.3010    1.2560    0.6810 C   0  0  0  0  0  0  0  0  0  0  0  0
    0.6050    2.2460    1.3950 O   0  0  0  0  0  0  0  0  0  0  0  0
    1.3350    0.5720   -0.0660 C   0  0  0  0  0  0  0  0  0  0  0  0
    2.6020    1.0980    0.0590 O   0  0  0  0  0  0  0  0  0  0  0  0
    3.5530    0.6410    0.9970 C   0  0  0  0  0  0  0  0  0  0  0  0
    1.2360   -0.4740   -0.8410 C   0  0  0  0  0  0  0  0  0  0  0  0
    2.4670   -0.9830   -1.4980 C   0  0  0  0  0  0  0  0  0  0  0  0
    0.0690   -1.1870   -1.1310 O   0  0  0  0  0  0  0  0  0  0  0  0
   -1.1180   -1.3870   -0.4310 C   0  0  0  0  0  0  0  0  0  0  0  0
  1  2  1  0
  2  3  1  0
  3  4  2  0
  3 13  1  0
  4  5  1  0
  5  6  2  0
  5  7  1  0
  7  8  1  0
  7 10  2  0
  8  9  1  0
 10 11  1  0
 10 12  1  0
 12 13  1  0
M  END
