
     RDKit          3D

 13 13  0  0  0  0  0  0  0  0999 V2000
   -4.4860    0.3840   -0.1810 C   0  0  0  0  0  0  0  0  0  0  0  0
   -3.0010    0.4870   -0.2010 C   0  0  0  0  0  0  0  0  0  0  0  0
   -2.3270   -0.7790    0.2520 C   0  0  0  0  0  0  0  0  0  0  0  0
   -2.9780   -1.7840    0.5990 O   0  0  0  0  0  0  0  0  0  0  0  0
   -0.8700   -0.7630    0.2620 C   0  0  0  0  0  0  0  0  0  0  0  0
   -0.0600   -1.8300    0.6460 C   0  0  0  0  0  0  0  0  0  0  0  0
    1.2280   -1.4490    0.5260 N   0  0  0  0  0  0  0  0  0  0  0  0
    1.3110   -0.1850    0.0810 C   0  0  0  0  0  0  0  0  0  0  0  0
    2.5310    0.5760   -0.1740 C   0  0  0  0  0  0  0  0  0  0  0  0
    2.5040    1.7640   -0.5930 O   0  0  0  0  0  0  0  0  0  0  0  0
    3.7870    0.0270    0.0330 O   0  0  0  0  0  0  0  0  0  0  0  0
    4.9680    0.8010   -0.2280 C   0  0  0  0  0  0  0  0  0  0  0  0
    0.0060    0.2310   -0.0790 C   0  0  0  0  0  0  0  0  0  0  0  0
  1  2  1  0
  2  3  1  0
  3  4  2  0
  3  5  1  0
  5  6  2  0
  5 13  1  0
  6  7  1  0
  7  8  1  0
  8  9  1  0
  8 13  2  0
  9 10  2  0
  9 11  1  0
 11 12  1  0
M  END
