
     RDKit          3D

  7  6  0  0  0  0  0  0  0  0999 V2000
   -2.3090    0.2790   -0.1610 N   0  0  0  0  0  0  0  0  0  0  0  0
   -1.3200    0.5450   -1.1610 C   0  0  0  0  0  0  0  0  0  0  0  0
   -0.0210    0.4500   -0.7110 O   0  0  0  0  0  0  0  0  0  0  0  0
    0.2470   -0.8300   -0.2300 C   0  0  0  0  0  0  0  0  0  0  0  0
    1.6200   -0.9760    0.2590 C   0  0  0  0  0  0  0  0  0  0  0  0
    2.5220   -0.0210    0.2570 C   0  0  0  0  0  0  0  0  0  0  0  0
    2.2300    1.2460   -0.2280 O   0  0  0  0  0  0  0  0  0  0  0  0
  1  2  1  0
  2  3  1  0
  3  4  1  0
  4  5  1  0
  5  6  2  3
  6  7  1  0
M  CHG  1   1   1
M  END
