
     RDKit          3D

 13 13  0  0  0  0  0  0  0  0999 V2000
    5.0370   -0.6690    0.0930 C   0  0  0  0  0  0  0  0  0  0  0  0
    3.8830    0.3360    0.1430 C   0  0  0  0  0  0  0  0  0  0  0  0
    2.8820   -0.1810   -0.6410 O   0  0  0  0  0  0  0  0  0  0  0  0
    1.7790    0.5970   -0.7030 N   0  0  0  0  0  0  0  0  0  0  0  0
    0.5170    0.1840   -0.1730 C   0  0  0  0  0  0  0  0  0  0  0  0
    0.4640   -0.9560    0.3660 O   0  0  0  0  0  0  0  0  0  0  0  0
   -0.6020    1.0200   -0.2570 O   0  0  0  0  0  0  0  0  0  0  0  0
   -1.8330    0.5870    0.2730 C   0  0  0  0  0  0  0  0  0  0  0  0
   -2.2400    0.7930    1.5110 C   0  0  0  0  0  0  0  0  0  0  0  0
   -3.5700    0.1870    1.6590 C   0  0  0  0  0  0  0  0  0  0  0  0
   -3.8310   -0.3840    0.3110 C   0  0  0  0  0  0  0  0  0  0  0  0
   -2.8100   -0.1450   -0.4950 C   0  0  0  0  0  0  0  0  0  0  0  0
   -2.7000   -0.5640   -1.9340 C   0  0  0  0  0  0  0  0  0  0  0  0
  1  2  1  0
  2  3  1  0
  3  4  1  0
  4  5  1  0
  5  6  2  0
  5  7  1  0
  7  8  1  0
  8  9  2  0
  8 12  1  0
  9 10  1  0
 10 11  1  0
 11 12  2  0
 12 13  1  0
M  END
