
     RDKit          3D

 13 13  0  0  0  0  0  0  0  0999 V2000
    2.0880   -1.9370   -0.4200 C   0  0  0  0  0  0  0  0  0  0  0  0
    2.2540   -0.7140    0.3780 C   0  0  0  0  0  0  0  0  0  0  0  0
    1.5060    0.3610    0.3260 C   0  0  0  0  0  0  0  0  0  0  0  0
    1.7400    1.5520    1.1660 C   0  0  0  0  0  0  0  0  0  0  0  0
    2.6670    1.6750    2.0050 O   0  0  0  0  0  0  0  0  0  0  0  0
    0.7210    2.5110    0.8350 C   0  0  0  0  0  0  0  0  0  0  0  0
   -0.0500    1.9970   -0.0860 C   0  0  0  0  0  0  0  0  0  0  0  0
    0.3750    0.6870   -0.4420 N   0  0  0  0  0  0  0  0  0  0  0  0
   -0.2920   -0.1290   -1.4340 C   0  0  0  0  0  0  0  0  0  0  0  0
   -1.6090   -0.5330   -0.8880 C   0  0  0  0  0  0  0  0  0  0  0  0
   -2.4040   -1.2670   -1.5740 O   0  0  0  0  0  0  0  0  0  0  0  0
   -1.9550   -0.0960    0.3790 O   0  0  0  0  0  0  0  0  0  0  0  0
   -3.2070   -0.4700    0.9180 C   0  0  0  0  0  0  0  0  0  0  0  0
  1  2  1  0
  2  3  2  3
  3  4  1  0
  3  8  1  0
  4  5  2  0
  4  6  1  0
  6  7  2  0
  7  8  1  0
  8  9  1  0
  9 10  1  0
 10 11  2  0
 10 12  1  0
 12 13  1  0
M  END
