
     RDKit          3D

 13 13  0  0  0  0  0  0  0  0999 V2000
   -1.3540    2.7620    0.4030 C   0  0  0  0  0  0  0  0  0  0  0  0
   -0.1400    1.9060    0.3490 C   0  0  0  0  0  0  0  0  0  0  0  0
   -0.1930    0.5890    0.3390 C   0  0  0  0  0  0  0  0  0  0  0  0
   -1.4000   -0.0370    0.3790 O   0  0  0  0  0  0  0  0  0  0  0  0
   -2.2250   -0.3500   -0.7000 C   0  0  0  0  0  0  0  0  0  0  0  0
   -3.4620   -1.0440   -0.1470 C   0  0  0  0  0  0  0  0  0  0  0  0
    1.0840   -0.1550    0.2830 C   0  0  0  0  0  0  0  0  0  0  0  0
    2.2070    0.4400    0.2450 N   0  0  0  0  0  0  0  0  0  0  0  0
    3.4660   -0.2350    0.1920 C   0  0  0  0  0  0  0  0  0  0  0  0
    3.3110   -1.5640   -0.4900 C   0  0  0  0  0  0  0  0  0  0  0  0
    2.2530   -2.2610    0.1990 O   0  0  0  0  0  0  0  0  0  0  0  0
    0.9980   -1.6160    0.2630 C   0  0  0  0  0  0  0  0  0  0  0  0
   -0.0880   -2.2460    0.3000 O   0  0  0  0  0  0  0  0  0  0  0  0
  1  2  1  0
  2  3  2  3
  3  4  1  0
  3  7  1  0
  4  5  1  0
  5  6  1  0
  7  8  2  0
  7 12  1  0
  8  9  1  0
  9 10  1  0
 10 11  1  0
 11 12  1  0
 12 13  2  0
M  END
