
     RDKit          3D

 13 13  0  0  0  0  0  0  0  0999 V2000
    4.8250   -0.2180   -0.4610 C   0  0  0  0  0  0  0  0  0  0  0  0
    3.5120   -0.9980   -0.6070 C   0  0  0  0  0  0  0  0  0  0  0  0
    2.4880   -0.0990   -0.2290 O   0  0  0  0  0  0  0  0  0  0  0  0
    1.1410   -0.5310   -0.2590 C   0  0  0  0  0  0  0  0  0  0  0  0
    0.9590   -1.6940   -0.6240 O   0  0  0  0  0  0  0  0  0  0  0  0
    0.0830    0.2950    0.0990 N   0  0  0  0  0  0  0  0  0  0  0  0
   -1.2920   -0.0560    0.0970 C   0  0  0  0  0  0  0  0  0  0  0  0
   -2.2040    0.8550    0.4710 C   0  0  0  0  0  0  0  0  0  0  0  0
   -1.7270    2.2130    0.8750 C   0  0  0  0  0  0  0  0  0  0  0  0
   -3.6560    0.6180    0.5140 C   0  0  0  0  0  0  0  0  0  0  0  0
   -4.0170   -0.6740    0.1200 O   0  0  0  0  0  0  0  0  0  0  0  0
   -3.1170   -1.6400   -0.2700 C   0  0  0  0  0  0  0  0  0  0  0  0
   -1.8330   -1.3410   -0.2780 C   0  0  0  0  0  0  0  0  0  0  0  0
  1  2  1  0
  2  3  1  0
  3  4  1  0
  4  5  2  0
  4  6  1  0
  6  7  1  0
  7  8  2  0
  7 13  1  0
  8  9  1  0
  8 10  1  0
 10 11  1  0
 11 12  1  0
 12 13  2  0
M  END
