
     RDKit          3D

 13 13  0  0  0  0  0  0  0  0999 V2000
    5.0210   -0.3860   -0.7520 C   0  0  0  0  0  0  0  0  0  0  0  0
    4.5580    0.8140    0.0150 C   0  0  0  0  0  0  0  0  0  0  0  0
    3.1770    1.0830   -0.1510 O   0  0  0  0  0  0  0  0  0  0  0  0
    2.1700    0.2170    0.1840 C   0  0  0  0  0  0  0  0  0  0  0  0
    2.4780   -0.8970    0.6730 O   0  0  0  0  0  0  0  0  0  0  0  0
    0.7240    0.5640   -0.0170 C   0  0  0  0  0  0  0  0  0  0  0  0
   -0.0950   -0.4980    0.4080 O   0  0  0  0  0  0  0  0  0  0  0  0
   -1.4730   -0.3200    0.2820 C   0  0  0  0  0  0  0  0  0  0  0  0
   -2.0030   -0.5780   -0.8940 C   0  0  0  0  0  0  0  0  0  0  0  0
   -3.4040   -0.4360   -1.1540 N   0  0  0  0  0  0  0  0  0  0  0  0
   -4.3010   -0.1010   -0.0870 C   0  0  0  0  0  0  0  0  0  0  0  0
   -3.6900   -0.5110    1.2350 C   0  0  0  0  0  0  0  0  0  0  0  0
   -2.3330    0.1330    1.3830 C   0  0  0  0  0  0  0  0  0  0  0  0
  1  2  1  0
  2  3  1  0
  3  4  1  0
  4  5  2  0
  4  6  1  0
  6  7  1  0
  7  8  1  0
  8  9  2  0
  8 13  1  0
  9 10  1  0
 10 11  1  0
 11 12  1  0
 12 13  1  0
M  END
