
     RDKit          3D

 18 18  0  0  0  0  0  0  0  0999 V2000
    5.4200   -0.6800   -1.2780 C   0  0  0  0  0  0  0  0  0  0  0  0
    4.2280   -0.9940   -0.3950 C   0  0  0  0  0  0  0  0  0  0  0  0
    3.8490    0.2170    0.4870 C   0  0  0  0  0  0  0  0  0  0  0  0
    2.6810   -0.1310    1.3560 C   0  0  0  0  0  0  0  0  0  0  0  0
    1.4930   -0.4460    0.6180 N   0  0  0  0  0  0  0  0  0  0  0  0
    0.6770   -1.4040    1.3720 C   0  0  0  0  0  0  0  0  0  0  0  0
   -0.7420   -1.1670    1.5360 C   0  0  0  0  0  0  0  0  0  0  0  0
   -1.4310   -0.3310    0.5840 N   0  0  0  0  0  0  0  0  0  0  0  0
   -2.7450   -0.7280    0.3130 C   0  0  1  0  0  0  0  0  0  0  0  0
   -3.7180    0.3840    0.2790 C   0  0  0  0  0  0  0  0  0  0  0  0
   -3.5470    1.4410   -0.7470 C   0  0  0  0  0  0  0  0  0  0  0  0
   -2.9280   -1.7540   -0.7850 C   0  0  0  0  0  0  0  0  0  0  0  0
   -4.4090   -2.0640   -0.9910 C   0  0  0  0  0  0  0  0  0  0  0  0
   -0.5590    0.0550   -0.4540 C   0  0  0  0  0  0  0  0  0  0  0  0
    0.6630    0.6810    0.2520 C   0  0  1  0  0  0  0  0  0  0  0  0
    0.1370    1.3370    1.5450 C   0  0  0  0  0  0  0  0  0  0  0  0
    1.2610    1.7460   -0.5560 C   0  0  0  0  0  0  0  0  0  0  0  0
    0.1500    2.7950   -0.8310 C   0  0  0  0  0  0  0  0  0  0  0  0
  1  2  1  0
  2  3  1  0
  3  4  1  0
  4  5  1  0
  5  6  1  0
  5 15  1  0
  6  7  1  0
  7  8  1  0
  8  9  1  0
  8 14  1  0
  9 10  1  6
  9 12  1  0
 10 11  1  0
 12 13  1  0
 14 15  1  0
 15 16  1  1
 15 17  1  0
 17 18  1  0
M  END
