
     RDKit          3D

 18 17  0  0  0  0  0  0  0  0999 V2000
   -1.3530    3.8050    0.9850 C   0  0  0  0  0  0  0  0  0  0  0  0
   -0.8280    2.8300   -0.0680 C   0  0  0  0  0  0  0  0  0  0  0  0
   -1.3430    1.4450    0.3040 C   0  0  0  0  0  0  0  0  0  0  0  0
   -0.9520    0.4310   -0.5590 N   0  0  0  0  0  0  0  0  0  0  0  0
    0.4430    0.1090   -0.6010 C   0  0  0  0  0  0  0  0  0  0  0  0
    0.8560   -0.4990    0.6850 C   0  0  0  0  0  0  0  0  0  0  0  0
    2.3180   -0.8840    0.7370 C   0  0  0  0  0  0  0  0  0  0  0  0
    3.2110    0.2210    0.5450 N   0  0  2  0  0  0  0  0  0  0  0  0
    3.6530    0.3500   -0.8380 C   0  0  0  0  0  0  0  0  0  0  0  0
    3.9360    1.8100   -1.1450 C   0  0  0  0  0  0  0  0  0  0  0  0
    4.4230   -0.0210    1.3280 C   0  0  0  0  0  0  0  0  0  0  0  0
    5.1740   -1.2130    0.8200 C   0  0  0  0  0  0  0  0  0  0  0  0
   -1.8240   -0.3910   -1.2360 C   0  0  0  0  0  0  0  0  0  0  0  0
   -2.5300   -1.4000   -0.3940 C   0  0  1  0  0  0  0  0  0  0  0  0
   -3.3760   -0.8770    0.7190 C   0  0  0  0  0  0  0  0  0  0  0  0
   -4.0120   -2.1010    1.4090 C   0  0  0  0  0  0  0  0  0  0  0  0
   -3.4510   -2.2730   -1.2650 C   0  0  0  0  0  0  0  0  0  0  0  0
   -4.4870   -1.4700   -1.9690 C   0  0  0  0  0  0  0  0  0  0  0  0
  1  2  1  0
  2  3  1  0
  3  4  1  0
  4  5  1  0
  4 13  1  0
  5  6  1  0
  6  7  1  0
  8  7  1  6
  8  9  1  0
  8 11  1  0
  9 10  1  0
 11 12  1  0
 14 13  1  6
 14 15  1  0
 14 17  1  0
 15 16  1  0
 17 18  1  0
M  CHG  1   8   1
M  END
