
     RDKit          3D

 18 18  0  0  0  0  0  0  0  0999 V2000
   -4.6300    3.4090    0.3920 C   0  0  0  0  0  0  0  0  0  0  0  0
   -3.5430    2.7050    1.1920 C   0  0  0  0  0  0  0  0  0  0  0  0
   -2.6410    1.9880    0.1750 C   0  0  0  0  0  0  0  0  0  0  0  0
   -1.5470    1.2560    0.8670 C   0  0  0  0  0  0  0  0  0  0  0  0
   -0.6210    0.5650   -0.0710 N   0  0  0  0  0  0  0  0  0  0  0  0
    0.5240    0.2480    0.7840 C   0  0  0  0  0  0  0  0  0  0  0  0
    1.7800   -0.0350    0.0120 C   0  0  0  0  0  0  0  0  0  0  0  0
    2.8800   -0.3590    1.0070 C   0  0  0  0  0  0  0  0  0  0  0  0
    4.2180   -0.5820    0.3200 C   0  0  1  0  0  0  0  0  0  0  0  0
    4.1740   -1.7110   -0.6830 C   0  0  0  0  0  0  0  0  0  0  0  0
    4.7070    0.6500   -0.2130 N   0  0  0  0  0  0  0  0  0  0  0  0
    5.7960    1.2010    0.5750 C   0  0  0  0  0  0  0  0  0  0  0  0
   -1.3370   -0.6110   -0.4720 C   0  0  1  0  0  0  0  0  0  0  0  0
   -0.9310   -1.2580   -1.7630 C   0  0  0  0  0  0  0  0  0  0  0  0
   -2.1170   -2.1350   -2.1700 C   0  0  0  0  0  0  0  0  0  0  0  0
   -3.2640   -2.0820   -1.2210 C   0  0  0  0  0  0  0  0  0  0  0  0
   -2.8840   -2.3260    0.2110 C   0  0  0  0  0  0  0  0  0  0  0  0
   -1.5230   -1.6850    0.5380 C   0  0  0  0  0  0  0  0  0  0  0  0
  1  2  1  0
  2  3  1  0
  3  4  1  0
  4  5  1  0
  5  6  1  0
 13  5  1  1
  6  7  1  0
  7  8  1  0
  8  9  1  0
  9 10  1  6
  9 11  1  0
 11 12  1  0
 13 14  1  0
 13 18  1  0
 14 15  1  0
 15 16  1  0
 16 17  1  0
 17 18  1  0
M  CHG  1  11   1
M  END
