
     RDKit          3D

 17 16  0  0  0  0  0  0  0  0999 V2000
   -4.0740    2.5100    0.8910 C   0  0  0  0  0  0  0  0  0  0  0  0
   -4.0520    2.0990   -0.5680 C   0  0  0  0  0  0  0  0  0  0  0  0
   -2.7880    1.3120   -0.8730 C   0  0  0  0  0  0  0  0  0  0  0  0
   -2.7600    0.0550    0.0080 C   0  0  0  0  0  0  0  0  0  0  0  0
   -1.5850   -0.7000   -0.2690 N   0  0  0  0  0  0  0  0  0  0  0  0
   -0.4250   -0.0570    0.1500 C   0  0  0  0  0  0  0  0  0  0  0  0
    0.8710   -0.8430   -0.1170 C   0  0  1  0  0  0  0  0  0  0  0  0
    0.8990   -1.0410   -1.6370 C   0  0  0  0  0  0  0  0  0  0  0  0
    1.9590    0.1250    0.3330 C   0  0  0  0  0  0  0  0  0  0  0  0
    3.2840   -0.3510    0.2070 N   0  0  0  0  0  0  0  0  0  0  0  0
    3.8040   -0.5370   -1.1050 C   0  0  0  0  0  0  0  0  0  0  0  0
    4.1650    0.5770    0.9100 C   0  0  1  0  0  0  0  0  0  0  0  0
    4.1670    1.9530    0.3370 C   0  0  0  0  0  0  0  0  0  0  0  0
    3.8710    0.6700    2.3800 C   0  0  0  0  0  0  0  0  0  0  0  0
   -1.6570   -2.0970   -0.2810 C   0  0  2  0  0  0  0  0  0  0  0  0
   -2.5950   -2.5350   -1.4170 C   0  0  0  0  0  0  0  0  0  0  0  0
   -2.2290   -2.7090    0.9810 C   0  0  0  0  0  0  0  0  0  0  0  0
  1  2  1  0
  2  3  1  0
  3  4  1  0
  4  5  1  0
  5  6  1  0
  5 15  1  0
  6  7  1  0
  7  8  1  6
  7  9  1  0
  9 10  1  0
 10 11  1  0
 10 12  1  0
 12 13  1  6
 12 14  1  0
 15 16  1  6
 15 17  1  0
M  END
