
     RDKit          3D

 18 17  0  0  0  0  0  0  0  0999 V2000
    2.2040   -2.9580    0.5420 C   0  0  0  0  0  0  0  0  0  0  0  0
    1.8820   -1.9710   -0.5330 C   0  0  0  0  0  0  0  0  0  0  0  0
    1.8410   -0.5930   -0.0640 N   0  0  0  0  0  0  0  0  0  0  0  0
    0.6530   -0.5600    0.8080 C   0  0  0  0  0  0  0  0  0  0  0  0
    0.2470    0.8410    1.1000 C   0  0  0  0  0  0  0  0  0  0  0  0
   -0.9400    0.8120    2.0340 C   0  0  0  0  0  0  0  0  0  0  0  0
   -2.0800    0.0360    1.4870 C   0  0  0  0  0  0  0  0  0  0  0  0
   -2.6140    0.5160    0.1520 C   0  0  0  0  0  0  0  0  0  0  0  0
   -3.7010   -0.3630   -0.2260 N   0  0  1  0  0  0  0  0  0  0  0  0
   -4.9420   -0.1290    0.4010 C   0  0  0  0  0  0  0  0  0  0  0  0
   -5.3630    1.2810    0.6110 C   0  0  0  0  0  0  0  0  0  0  0  0
   -3.7390   -0.5360   -1.6610 C   0  0  0  0  0  0  0  0  0  0  0  0
   -4.7530    0.3130   -2.3670 C   0  0  0  0  0  0  0  0  0  0  0  0
    2.9820   -0.2970    0.7740 C   0  0  0  0  0  0  0  0  0  0  0  0
    4.3070   -0.2660    0.1330 C   0  0  0  0  0  0  0  0  0  0  0  0
    4.4890    0.7830   -0.9390 C   0  0  1  0  0  0  0  0  0  0  0  0
    4.2880    2.1780   -0.4140 C   0  0  0  0  0  0  0  0  0  0  0  0
    5.9290    0.7170   -1.4680 C   0  0  0  0  0  0  0  0  0  0  0  0
  1  2  1  0
  2  3  1  0
  3  4  1  0
  3 14  1  0
  4  5  1  0
  5  6  1  0
  6  7  1  0
  7  8  1  0
  9  8  1  6
  9 10  1  0
  9 12  1  0
 10 11  1  0
 12 13  1  0
 14 15  1  0
 15 16  1  0
 16 17  1  1
 16 18  1  0
M  CHG  1   9   1
M  END
