
     RDKit          3D

 14 14  0  0  0  0  0  0  0  0999 V2000
    3.9580   -0.8190    0.5750 C   0  0  0  0  0  0  0  0  0  0  0  0
    3.3260   -0.7750   -0.7740 C   0  0  0  0  0  0  0  0  0  0  0  0
    1.9330   -0.5920   -0.7440 O   0  0  0  0  0  0  0  0  0  0  0  0
    1.2890    0.4920   -0.1920 C   0  0  0  0  0  0  0  0  0  0  0  0
    1.9940    1.3870    0.3250 O   0  0  0  0  0  0  0  0  0  0  0  0
   -0.1550    0.6590   -0.1720 C   0  0  0  0  0  0  0  0  0  0  0  0
   -0.6370    1.7550    0.3940 C   0  0  0  0  0  0  0  0  0  0  0  0
    0.4270    2.9790    1.1040 Cl  0  0  0  0  0  0  0  0  0  0  0  0
   -2.0990    2.0420    0.4770 C   0  0  0  0  0  0  0  0  0  0  0  0
   -2.7690    0.7310    0.7210 C   0  0  0  0  0  0  0  0  0  0  0  0
   -3.6930    0.5950    1.5630 O   0  0  0  0  0  0  0  0  0  0  0  0
   -2.3100   -0.3780   -0.0520 N   0  0  0  0  0  0  0  0  0  0  0  0
   -3.1620   -1.5500   -0.0930 C   0  0  0  0  0  0  0  0  0  0  0  0
   -1.0620   -0.3700   -0.7710 C   0  0  0  0  0  0  0  0  0  0  0  0
  1  2  1  0
  2  3  1  0
  3  4  1  0
  4  5  2  0
  4  6  1  0
  6  7  2  0
  6 14  1  0
  7  8  1  0
  7  9  1  0
  9 10  1  0
 10 11  2  0
 10 12  1  0
 12 13  1  0
 12 14  1  0
M  END
