
     RDKit          3D

 13 13  0  0  0  0  0  0  0  0999 V2000
    4.2340    0.2970    0.3480 C   0  0  0  0  0  0  0  0  0  0  0  0
    3.7070   -0.8100   -0.5340 C   0  0  0  0  0  0  0  0  0  0  0  0
    2.4010   -0.5700   -0.9810 O   0  0  0  0  0  0  0  0  0  0  0  0
    1.3120   -0.4080   -0.1230 C   0  0  0  0  0  0  0  0  0  0  0  0
    1.5600   -0.4870    1.0930 O   0  0  0  0  0  0  0  0  0  0  0  0
    0.0080   -0.1690   -0.5610 N   0  0  0  0  0  0  0  0  0  0  0  0
   -1.1460    0.0070    0.2360 C   0  0  0  0  0  0  0  0  0  0  0  0
   -2.2990    0.2270   -0.4250 C   0  0  0  0  0  0  0  0  0  0  0  0
   -2.3130    0.2750   -1.9340 C   0  0  0  0  0  0  0  0  0  0  0  0
   -3.6020    0.4320    0.2430 C   0  0  0  0  0  0  0  0  0  0  0  0
   -3.5220    0.3770    1.6320 O   0  0  0  0  0  0  0  0  0  0  0  0
   -2.3450    0.1520    2.3080 C   0  0  0  0  0  0  0  0  0  0  0  0
   -1.1920   -0.0280    1.6700 C   0  0  0  0  0  0  0  0  0  0  0  0
  1  2  1  0
  2  3  1  0
  3  4  1  0
  4  5  2  0
  4  6  1  0
  6  7  1  0
  7  8  2  0
  7 13  1  0
  8  9  1  0
  8 10  1  0
 10 11  1  0
 11 12  1  0
 12 13  2  0
M  END
