
     RDKit          3D

 13 13  0  0  0  0  0  0  0  0999 V2000
    2.3430   -2.6590    0.2570 C   0  0  0  0  0  0  0  0  0  0  0  0
    2.9230   -1.5240    0.4530 C   0  0  0  0  0  0  0  0  0  0  0  0
    2.3160   -0.2400    0.2270 C   0  0  0  0  0  0  0  0  0  0  0  0
    3.0940    0.8270    0.4930 C   0  0  0  0  0  0  0  0  0  0  0  0
    0.9630   -0.0270   -0.2520 C   0  0  0  0  0  0  0  0  0  0  0  0
    0.2500   -1.0600   -0.4950 O   0  0  0  0  0  0  0  0  0  0  0  0
    0.3780    1.2510   -0.4700 N   0  0  0  0  0  0  0  0  0  0  0  0
   -0.9840    1.3990   -0.9500 C   0  0  0  0  0  0  0  0  0  0  0  0
   -2.0050    0.8210   -0.0710 C   0  0  0  0  0  0  0  0  0  0  0  0
   -3.0010    1.5140    0.5010 C   0  0  0  0  0  0  0  0  0  0  0  0
   -3.7970    0.6840    1.2720 O   0  0  0  0  0  0  0  0  0  0  0  0
   -3.4510   -0.6400    0.9080 C   0  0  0  0  0  0  0  0  0  0  0  0
   -2.1550   -0.4930    0.3380 O   0  0  0  0  0  0  0  0  0  0  0  0
  1  2  2  0
  2  3  1  0
  3  4  2  0
  3  5  1  0
  5  6  2  0
  5  7  1  0
  7  8  1  0
  8  9  1  0
  9 10  2  0
  9 13  1  0
 10 11  1  0
 11 12  1  0
 12 13  1  0
M  END
