
     RDKit          3D

 13 13  0  0  0  0  0  0  0  0999 V2000
    4.7750    0.4760    0.7020 C   0  0  0  0  0  0  0  0  0  0  0  0
    3.3730    0.3400    0.9760 O   0  0  0  0  0  0  0  0  0  0  0  0
    2.4820    0.0180   -0.0380 C   0  0  0  0  0  0  0  0  0  0  0  0
    2.9570   -0.1480   -1.1960 O   0  0  0  0  0  0  0  0  0  0  0  0
    1.0790   -0.1190    0.2340 N   0  0  0  0  0  0  0  0  0  0  0  0
    0.2190   -0.4520   -0.8540 C   0  0  0  0  0  0  0  0  0  0  0  0
   -1.2150   -0.5370   -0.4440 C   0  0  0  0  0  0  0  0  0  0  0  0
   -1.8300   -1.6940   -0.5530 C   0  0  0  0  0  0  0  0  0  0  0  0
   -3.2410   -1.8500   -0.1680 C   0  0  0  0  0  0  0  0  0  0  0  0
   -3.8520   -0.6790    0.2790 O   0  0  0  0  0  0  0  0  0  0  0  0
   -3.1910    0.5260    0.3830 C   0  0  0  0  0  0  0  0  0  0  0  0
   -1.8940    0.6480    0.0400 C   0  0  0  0  0  0  0  0  0  0  0  0
   -1.2500    1.9830    0.1460 C   0  0  0  0  0  0  0  0  0  0  0  0
  1  2  1  0
  2  3  1  0
  3  4  2  0
  3  5  1  0
  5  6  1  0
  6  7  1  0
  7  8  2  0
  7 12  1  0
  8  9  1  0
  9 10  1  0
 10 11  1  0
 11 12  2  0
 12 13  1  0
M  END
