
     RDKit          3D

 13 13  0  0  0  0  0  0  0  0999 V2000
   -1.8640    2.7940   -0.3930 C   0  0  0  0  0  0  0  0  0  0  0  0
   -0.5240    2.1310   -0.2200 C   0  0  0  0  0  0  0  0  0  0  0  0
   -0.4110    0.8490   -0.4190 C   0  0  0  0  0  0  0  0  0  0  0  0
   -1.5580    0.1110   -0.7950 O   0  0  0  0  0  0  0  0  0  0  0  0
   -2.4800   -0.3340    0.1700 C   0  0  0  0  0  0  0  0  0  0  0  0
   -1.7750   -1.2560    1.1630 C   0  0  0  0  0  0  0  0  0  0  0  0
    0.8300    0.1130   -0.2800 C   0  0  0  0  0  0  0  0  0  0  0  0
    0.8460   -1.1740   -0.5010 N   0  0  0  0  0  0  0  0  0  0  0  0
    1.9540   -2.0510   -0.4150 C   0  0  0  0  0  0  0  0  0  0  0  0
    3.3020   -1.4140   -0.3550 C   0  0  0  0  0  0  0  0  0  0  0  0
    3.2570   -0.1130    0.2040 O   0  0  0  0  0  0  0  0  0  0  0  0
    2.1060    0.6860    0.0960 C   0  0  0  0  0  0  0  0  0  0  0  0
    2.2480    1.9050    0.3400 O   0  0  0  0  0  0  0  0  0  0  0  0
  1  2  1  0
  2  3  2  3
  3  4  1  0
  3  7  1  0
  4  5  1  0
  5  6  1  0
  7  8  2  0
  7 12  1  0
  8  9  1  0
  9 10  1  0
 10 11  1  0
 11 12  1  0
 12 13  2  0
M  END
