
     RDKit          3D

  7  6  0  0  0  0  0  0  0  0999 V2000
   -2.4860    0.2480   -0.0320 N   0  0  0  0  0  0  0  0  0  0  0  0
   -1.7210   -0.7220   -0.7950 C   0  0  0  0  0  0  0  0  0  0  0  0
   -0.4420   -0.2680   -1.0910 O   0  0  0  0  0  0  0  0  0  0  0  0
    0.2270   -0.0160    0.1010 C   0  0  0  0  0  0  0  0  0  0  0  0
    1.5960    0.4710   -0.0920 C   0  0  0  0  0  0  0  0  0  0  0  0
    2.6350   -0.1760    0.3770 C   0  0  0  0  0  0  0  0  0  0  0  0
    3.9290    0.2800    0.1970 O   0  0  0  0  0  0  0  0  0  0  0  0
  1  2  1  0
  2  3  1  0
  3  4  1  0
  4  5  1  0
  5  6  2  3
  6  7  1  0
M  CHG  1   1   1
M  END
