
     RDKit          3D

 13 13  0  0  0  0  0  0  0  0999 V2000
    4.6100   -0.7360   -0.7020 C   0  0  0  0  0  0  0  0  0  0  0  0
    3.1070   -0.6300   -0.3590 C   0  0  0  0  0  0  0  0  0  0  0  0
    3.0310   -0.6490    0.9990 O   0  0  0  0  0  0  0  0  0  0  0  0
    1.8450   -0.5600    1.5770 N   0  0  0  0  0  0  0  0  0  0  0  0
    0.6510   -0.4150    0.8490 C   0  0  0  0  0  0  0  0  0  0  0  0
    0.6270   -0.3600   -0.4160 O   0  0  0  0  0  0  0  0  0  0  0  0
   -0.6040   -0.3190    1.4560 O   0  0  0  0  0  0  0  0  0  0  0  0
   -1.7690   -0.1810    0.6760 C   0  0  0  0  0  0  0  0  0  0  0  0
   -2.4790   -1.1920    0.2460 C   0  0  0  0  0  0  0  0  0  0  0  0
   -3.6200   -0.6740   -0.5330 C   0  0  0  0  0  0  0  0  0  0  0  0
   -3.4660    0.7960   -0.4910 C   0  0  0  0  0  0  0  0  0  0  0  0
   -2.3890    1.0380    0.2150 C   0  0  0  0  0  0  0  0  0  0  0  0
   -1.8710    2.4030    0.5030 C   0  0  0  0  0  0  0  0  0  0  0  0
  1  2  1  0
  2  3  1  0
  3  4  1  0
  4  5  1  0
  5  6  2  0
  5  7  1  0
  7  8  1  0
  8  9  2  0
  8 12  1  0
  9 10  1  0
 10 11  1  0
 11 12  2  0
 12 13  1  0
M  END
