
     RDKit          3D

 16 17  0  0  0  0  0  0  0  0999 V2000
    4.9260   -0.4140    0.6920 O   0  0  0  0  0  0  0  0  0  0  0  0
    3.8020   -0.0670    0.2650 C   0  0  0  0  0  0  0  0  0  0  0  0
    3.1340    1.1090    0.7420 N   0  0  0  0  0  0  0  0  0  0  0  0
    1.8610    1.4510    0.2210 C   0  0  0  0  0  0  0  0  0  0  0  0
    1.4030    2.5840    0.4940 O   0  0  0  0  0  0  0  0  0  0  0  0
    1.0860    0.5330   -0.6100 C   0  0  2  0  0  0  0  0  0  0  0  0
   -0.0460   -0.1410    0.1650 C   0  0  2  0  0  0  0  0  0  0  0  0
   -0.7870   -1.0660   -0.7380 C   0  0  0  0  0  0  0  0  0  0  0  0
   -1.9500   -1.6250    0.0830 C   0  0  0  0  0  0  0  0  0  0  0  0
   -2.9250   -0.4840    0.2260 C   0  0  0  0  0  0  0  0  0  0  0  0
   -2.2430    0.8270    0.4990 C   0  0  2  0  0  0  0  0  0  0  0  0
   -2.4540    1.7510   -0.5500 O   0  0  0  0  0  0  0  0  0  0  0  0
   -0.8870    0.7790    0.7980 N   0  0  0  0  0  0  0  0  0  0  0  0
    1.8810   -0.4690   -1.2130 O   0  0  0  0  0  0  0  0  0  0  0  0
    3.1130   -0.8520   -0.7480 C   0  0  0  0  0  0  0  0  0  0  0  0
    3.6480   -1.8930   -1.2040 O   0  0  0  0  0  0  0  0  0  0  0  0
  1  2  2  0
  2  3  1  0
  2 15  1  0
  3  4  1  0
  4  5  2  0
  4  6  1  0
  6  7  1  0
  6 14  1  1
  7  8  1  6
  7 13  1  0
  8  9  1  0
  9 10  1  0
 10 11  1  0
 11 12  1  6
 11 13  1  0
 14 15  1  0
 15 16  2  0
M  END
