
     RDKit          3D

 17 18  0  0  0  0  0  0  0  0999 V2000
   -2.8640    3.3060   -0.2390 O   0  0  0  0  0  0  0  0  0  0  0  0
   -2.9530    2.0420   -0.0870 C   0  0  0  0  0  0  0  0  0  0  0  0
   -4.1960    1.4110    0.1340 N   0  0  0  0  0  0  0  0  0  0  0  0
   -4.2320    0.0270    0.2940 N   0  0  0  0  0  0  0  0  0  0  0  0
   -3.0310   -0.7050    0.2310 C   0  0  0  0  0  0  0  0  0  0  0  0
   -3.0720   -1.9410    0.0560 O   0  0  0  0  0  0  0  0  0  0  0  0
   -1.6890   -0.0300    0.3700 C   0  0  1  0  0  0  0  0  0  0  0  0
   -0.7450   -0.7700   -0.5040 C   0  0  0  0  0  0  0  0  0  0  0  0
    0.4970   -1.0450   -0.1680 C   0  0  0  0  0  0  0  0  0  0  0  0
    1.3510   -1.7900   -1.1230 C   0  0  0  0  0  0  0  0  0  0  0  0
    2.4780   -1.0530   -1.3800 O   0  0  0  0  0  0  0  0  0  0  0  0
    2.9860   -0.3400   -0.3290 C   0  0  1  0  0  0  0  0  0  0  0  0
    2.5590    1.1320   -0.4060 C   0  0  0  0  0  0  0  0  0  0  0  0
    3.0810    1.8460    0.6670 O   0  0  0  0  0  0  0  0  0  0  0  0
    2.5430   -0.8380    1.0320 C   0  0  0  0  0  0  0  0  0  0  0  0
    1.1090   -0.6980    1.0240 O   0  0  0  0  0  0  0  0  0  0  0  0
   -1.8060    1.2820   -0.1410 O   0  0  0  0  0  0  0  0  0  0  0  0
  1  2  2  0
  2  3  1  0
  2 17  1  0
  3  4  1  0
  4  5  1  0
  5  6  2  0
  5  7  1  0
  7  8  1  6
  7 17  1  0
  8  9  2  3
  9 10  1  0
  9 16  1  0
 10 11  1  0
 11 12  1  0
 12 13  1  6
 12 15  1  0
 13 14  1  0
 15 16  1  0
M  END
