
     RDKit          3D

 17 18  0  0  0  0  0  0  0  0999 V2000
    0.2690   -0.6170    2.2190 O   0  0  0  0  0  0  0  0  0  0  0  0
    0.3300    0.1100    1.1880 C   0  0  0  0  0  0  0  0  0  0  0  0
    1.4910    0.0490    0.4550 O   0  0  0  0  0  0  0  0  0  0  0  0
    2.5800   -0.7830    0.8210 C   0  0  0  0  0  0  0  0  0  0  0  0
    3.7050   -0.6560   -0.1420 C   0  0  0  0  0  0  0  0  0  0  0  0
    4.2130   -1.6250   -0.8600 N   0  0  0  0  0  0  0  0  0  0  0  0
    5.2380   -1.1460   -1.6370 O   0  0  0  0  0  0  0  0  0  0  0  0
    5.0170    0.2610   -1.7080 C   0  0  0  0  0  0  0  0  0  0  0  0
    4.4120    0.4990   -0.4500 O   0  0  0  0  0  0  0  0  0  0  0  0
   -0.7880    0.9850    0.7830 C   0  0  1  0  0  0  0  0  0  0  0  0
   -0.4400    1.6540   -0.3690 O   0  0  0  0  0  0  0  0  0  0  0  0
   -2.0230    0.1330    0.6400 C   0  0  1  0  0  0  0  0  0  0  0  0
   -2.2620   -0.4810    1.8590 O   0  0  0  0  0  0  0  0  0  0  0  0
   -3.2450    0.9740    0.2940 C   0  0  0  0  0  0  0  0  0  0  0  0
   -4.1010   -0.0840   -0.4170 C   0  0  0  0  0  0  0  0  0  0  0  0
   -3.1160   -0.6500   -1.3200 N   0  0  0  0  0  0  0  0  0  0  0  0
   -1.9490   -0.8500   -0.4810 C   0  0  0  0  0  0  0  0  0  0  0  0
  1  2  2  0
  2  3  1  0
  2 10  1  0
  3  4  1  0
  4  5  1  0
  5  6  2  0
  5  9  1  0
  6  7  1  0
  7  8  1  0
  8  9  1  0
 10 11  1  6
 10 12  1  0
 12 13  1  1
 12 14  1  0
 12 17  1  0
 14 15  1  0
 15 16  1  0
 16 17  1  0
M  END
