
     RDKit          3D

 16 17  0  0  0  0  0  0  0  0999 V2000
    4.8530   -0.1510   -0.0470 N   0  0  0  0  0  0  0  0  0  0  0  0
    3.4790    0.2500    0.1170 C   0  0  0  0  0  0  0  0  0  0  0  0
    3.1650    0.7610    1.2020 O   0  0  0  0  0  0  0  0  0  0  0  0
    2.5230    0.0800   -0.8930 N   0  0  0  0  0  0  0  0  0  0  0  0
    1.1300    0.4290   -0.8480 C   0  0  0  0  0  0  0  0  0  0  0  0
    0.4150   -0.3270    0.1920 C   0  0  2  0  0  0  0  0  0  0  0  0
    0.8380   -0.1500    1.4730 O   0  0  0  0  0  0  0  0  0  0  0  0
    0.4310   -1.8460   -0.0690 C   0  0  0  0  0  0  0  0  0  0  0  0
   -0.4920   -2.2420    0.9250 O   0  0  0  0  0  0  0  0  0  0  0  0
   -1.5660   -1.3930    0.8200 C   0  0  0  0  0  0  0  0  0  0  0  0
   -1.0910   -0.1170    0.1720 C   0  0  1  0  0  0  0  0  0  0  0  0
   -1.3880    1.1020    0.9860 C   0  0  0  0  0  0  0  0  0  0  0  0
   -2.6660    1.7880    0.6260 C   0  0  0  0  0  0  0  0  0  0  0  0
   -2.8810    1.7510   -0.7610 O   0  0  0  0  0  0  0  0  0  0  0  0
   -2.8950    0.3770   -1.0960 C   0  0  0  0  0  0  0  0  0  0  0  0
   -1.5950   -0.0640   -1.1080 O   0  0  0  0  0  0  0  0  0  0  0  0
  1  2  1  0
  2  3  2  0
  2  4  1  0
  4  5  1  0
  5  6  1  0
  6  7  1  1
  6  8  1  0
  6 11  1  0
  8  9  1  0
  9 10  1  0
 11 10  1  1
 11 12  1  0
 11 16  1  0
 12 13  1  0
 13 14  1  0
 14 15  1  0
 15 16  1  0
M  END
