
     RDKit          3D

 16 17  0  0  0  0  0  0  0  0999 V2000
    2.7780   -0.4740   -0.8590 O   0  0  0  0  0  0  0  0  0  0  0  0
    2.6080    0.6310   -0.3090 C   0  0  0  0  0  0  0  0  0  0  0  0
    3.4070    1.7610   -0.7190 N   0  0  0  0  0  0  0  0  0  0  0  0
    4.3410    1.6510   -1.6900 O   0  0  0  0  0  0  0  0  0  0  0  0
    1.6300    0.7530    0.7090 N   0  0  0  0  0  0  0  0  0  0  0  0
    0.7800   -0.2820    1.1990 C   0  0  0  0  0  0  0  0  0  0  0  0
   -0.1470   -0.9130    0.2270 C   0  0  1  0  0  0  0  0  0  0  0  0
    0.4150   -1.5350   -0.8530 O   0  0  0  0  0  0  0  0  0  0  0  0
   -0.9830   -1.9280    1.0260 C   0  0  0  0  0  0  0  0  0  0  0  0
   -2.0760   -2.2440    0.0570 C   0  0  0  0  0  0  0  0  0  0  0  0
   -2.3020   -0.9700   -0.7250 C   0  0  0  0  0  0  0  0  0  0  0  0
   -1.2420    0.0130   -0.2510 C   0  0  2  0  0  0  0  0  0  0  0  0
   -0.8270    0.9110   -1.3630 C   0  0  0  0  0  0  0  0  0  0  0  0
   -0.9140    2.1730   -0.8380 O   0  0  0  0  0  0  0  0  0  0  0  0
   -1.4290    2.1170    0.4320 C   0  0  0  0  0  0  0  0  0  0  0  0
   -1.7350    0.8190    0.7520 O   0  0  0  0  0  0  0  0  0  0  0  0
  1  2  2  0
  2  3  1  0
  2  5  1  0
  3  4  1  0
  5  6  1  0
  6  7  1  0
  7  8  1  6
  7  9  1  0
  7 12  1  0
  9 10  1  0
 10 11  1  0
 12 11  1  6
 12 13  1  0
 12 16  1  0
 13 14  1  0
 14 15  1  0
 15 16  1  0
M  END
