
     RDKit          3D

 16 17  0  0  0  0  0  0  0  0999 V2000
   -2.0360   -2.7320   -1.2830 O   0  0  0  0  0  0  0  0  0  0  0  0
   -2.1780   -1.6970   -0.5660 C   0  0  0  0  0  0  0  0  0  0  0  0
   -3.4420   -1.1970   -0.3470 O   0  0  0  0  0  0  0  0  0  0  0  0
   -3.5810    0.2010   -0.1110 C   0  0  0  0  0  0  0  0  0  0  0  0
   -2.4870    0.5930    0.8540 C   0  0  2  0  0  0  0  0  0  0  0  0
   -2.6250    1.8950    1.3210 O   0  0  0  0  0  0  0  0  0  0  0  0
   -1.1670    0.4250    0.1000 C   0  0  0  0  0  0  0  0  0  0  0  0
   -0.9480   -1.0890   -0.0020 C   0  0  2  0  0  0  0  0  0  0  0  0
    0.1500   -1.2970   -0.8430 O   0  0  0  0  0  0  0  0  0  0  0  0
    1.3920   -0.7960   -0.4770 C   0  0  0  0  0  0  0  0  0  0  0  0
    2.1350   -1.4020    0.4590 C   0  0  0  0  0  0  0  0  0  0  0  0
    3.4050   -0.8990    0.8390 N   0  0  0  0  0  0  0  0  0  0  0  0
    3.8820    0.2650    0.2090 N   0  0  0  0  0  0  0  0  0  0  0  0
    3.1050    0.9200   -0.7860 C   0  0  0  0  0  0  0  0  0  0  0  0
    3.5900    2.0590   -1.3910 O   0  0  0  0  0  0  0  0  0  0  0  0
    1.9260    0.4080   -1.1030 C   0  0  0  0  0  0  0  0  0  0  0  0
  1  2  2  0
  2  3  1  0
  2  8  1  0
  3  4  1  0
  4  5  1  0
  5  6  1  6
  5  7  1  0
  7  8  1  0
  8  9  1  6
  9 10  1  0
 10 11  2  0
 10 16  1  0
 11 12  1  0
 12 13  1  0
 13 14  1  0
 14 15  1  0
 14 16  2  0
M  END
