
     RDKit          3D

 24 26  0  0  0  0  0  0  0  0999 V2000
   -5.3440    1.4530    0.6080 O   0  0  0  0  0  0  0  0  0  0  0  0
   -5.5610    0.3610    0.0510 C   0  0  0  0  0  0  0  0  0  0  0  0
   -6.9910   -0.0640   -0.2230 C   0  0  0  0  0  0  0  0  0  0  0  0
   -8.1050    1.1930    0.3610 Cl  0  0  0  0  0  0  0  0  0  0  0  0
   -4.5570   -0.5450   -0.3620 N   0  0  0  0  0  0  0  0  0  0  0  0
   -3.1760   -0.3240   -0.1850 C   0  0  0  0  0  0  0  0  0  0  0  0
   -2.2510   -1.1150   -0.8700 C   0  0  0  0  0  0  0  0  0  0  0  0
   -0.8890   -0.9360   -0.7070 C   0  0  0  0  0  0  0  0  0  0  0  0
   -0.3930    0.0300    0.1370 C   0  0  0  0  0  0  0  0  0  0  0  0
    0.9750    0.2520    0.3370 C   0  0  0  0  0  0  0  0  0  0  0  0
    1.9210   -0.5400   -0.3490 N   0  0  0  0  0  0  0  0  0  0  0  0
    3.3320   -0.4450   -0.2590 C   0  0  0  0  0  0  0  0  0  0  0  0
    4.0200    0.4440    0.5190 C   0  0  0  0  0  0  0  0  0  0  0  0
    5.4270    0.4700    0.5490 C   0  0  0  0  0  0  0  0  0  0  0  0
    6.0650    1.4020    1.3640 O   0  0  0  0  0  0  0  0  0  0  0  0
    6.1640   -0.4010   -0.2070 C   0  0  0  0  0  0  0  0  0  0  0  0
    5.4930   -1.3040   -0.9970 C   0  0  0  0  0  0  0  0  0  0  0  0
    4.1330   -1.3150   -1.0130 C   0  0  0  0  0  0  0  0  0  0  0  0
    3.3330   -2.4960   -2.0460 Cl  0  0  0  0  0  0  0  0  0  0  0  0
    1.3490    1.2330    1.1940 N   0  0  0  0  0  0  0  0  0  0  0  0
    0.4480    1.9740    1.8360 C   0  0  0  0  0  0  0  0  0  0  0  0
   -0.8740    1.7950    1.6730 N   0  0  0  0  0  0  0  0  0  0  0  0
   -1.2980    0.8310    0.8310 C   0  0  0  0  0  0  0  0  0  0  0  0
   -2.6730    0.6280    0.6480 C   0  0  0  0  0  0  0  0  0  0  0  0
  1  2  2  0
  2  3  1  0
  2  5  1  0
  3  4  1  0
  5  6  1  0
  6  7  2  0
  6 24  1  0
  7  8  1  0
  8  9  2  0
  9 10  1  0
  9 23  1  0
 10 11  1  0
 10 20  2  0
 11 12  1  0
 12 13  2  0
 12 18  1  0
 13 14  1  0
 14 15  1  0
 14 16  2  0
 16 17  1  0
 17 18  2  0
 18 19  1  0
 20 21  1  0
 21 22  2  0
 22 23  1  0
 23 24  2  0
M  END
