
     RDKit          3D

 17 17  0  0  0  0  0  0  0  0999 V2000
   -4.5690   -1.6990    1.6240 N   0  0  0  0  0  0  0  0  0  0  0  0
   -4.0280   -1.1650    0.4250 C   0  0  0  0  0  0  0  0  0  0  0  0
   -2.8600   -0.5470    0.3910 C   0  0  0  0  0  0  0  0  0  0  0  0
   -2.1090   -0.4210    1.6660 C   0  0  1  0  0  0  0  0  0  0  0  0
   -2.5800   -1.3890    2.6250 N   0  0  0  0  0  0  0  0  0  0  0  0
   -0.6620   -0.5740    1.4920 C   0  0  0  0  0  0  0  0  0  0  0  0
   -0.0570   -1.4560    2.1460 O   0  0  0  0  0  0  0  0  0  0  0  0
    0.0770    0.2440    0.6090 O   0  0  0  0  0  0  0  0  0  0  0  0
    1.4310    0.0980    0.4500 C   0  0  0  0  0  0  0  0  0  0  0  0
    2.0110   -0.7910    1.1150 O   0  0  0  0  0  0  0  0  0  0  0  0
    2.2380    0.9190   -0.4510 C   0  0  0  0  0  0  0  0  0  0  0  0
    3.5410    0.8120   -0.6330 C   0  0  0  0  0  0  0  0  0  0  0  0
    3.9750    1.7500   -1.5590 O   0  0  0  0  0  0  0  0  0  0  0  0
    2.8250    2.1470   -2.2810 C   0  0  1  0  0  0  0  0  0  0  0  0
    2.6530    1.1550   -3.4210 C   0  0  0  0  0  0  0  0  0  0  0  0
    3.8230    1.2440   -4.1920 O   0  0  0  0  0  0  0  0  0  0  0  0
    1.8150    1.9530   -1.2780 O   0  0  0  0  0  0  0  0  0  0  0  0
  1  2  1  0
  2  3  2  3
  3  4  1  0
  4  5  1  1
  4  6  1  0
  6  7  2  0
  6  8  1  0
  8  9  1  0
  9 10  2  0
  9 11  1  0
 11 12  2  0
 11 17  1  0
 12 13  1  0
 13 14  1  0
 14 15  1  6
 14 17  1  0
 15 16  1  0
M  END
