
     RDKit          3D

 16 17  0  0  0  0  0  0  0  0999 V2000
    0.8500    1.5110   -0.9740 C   0  0  0  0  0  0  0  0  0  0  0  0
    0.7460    0.5400    0.2100 C   0  0  2  0  0  0  0  0  0  0  0  0
    2.1750    0.2030    0.5880 C   0  0  0  0  0  0  0  0  0  0  0  0
    2.8030   -0.4400   -0.6560 C   0  0  0  0  0  0  0  0  0  0  0  0
    2.1100   -1.5890   -1.0200 O   0  0  0  0  0  0  0  0  0  0  0  0
    0.1150   -0.6790   -0.1960 N   0  0  0  0  0  0  0  0  0  0  0  0
   -1.2960   -0.6220   -0.3620 C   0  0  1  0  0  0  0  0  0  0  0  0
   -2.0310   -1.6860    0.3410 C   0  0  0  0  0  0  0  0  0  0  0  0
   -1.6970   -2.8860    0.4150 O   0  0  0  0  0  0  0  0  0  0  0  0
   -3.1890   -1.1210    0.9240 N   0  0  0  0  0  0  0  0  0  0  0  0
   -3.3100    0.2110    0.4410 C   0  0  0  0  0  0  0  0  0  0  0  0
   -4.3520    0.8900    0.3640 O   0  0  0  0  0  0  0  0  0  0  0  0
   -1.9410    0.6510    0.0380 C   0  0  1  0  0  0  0  0  0  0  0  0
   -1.3640    1.2590    1.1680 O   0  0  0  0  0  0  0  0  0  0  0  0
    0.0200    1.2260    1.2780 C   0  0  0  0  0  0  0  0  0  0  0  0
    0.5850    1.7800    2.2780 O   0  0  0  0  0  0  0  0  0  0  0  0
  2  1  1  6
  2  3  1  0
  2  6  1  0
  2 15  1  0
  3  4  1  0
  4  5  1  0
  7  6  1  1
  7  8  1  0
  7 13  1  0
  8  9  2  0
  8 10  1  0
 10 11  1  0
 11 12  2  0
 11 13  1  0
 13 14  1  1
 14 15  1  0
 15 16  2  0
M  END
