
     RDKit          3D

 27 29  0  0  0  0  0  0  0  0999 V2000
   -6.2450   -2.1640   -0.3800 O   0  0  0  0  0  0  0  0  0  0  0  0
   -6.9610   -1.1700   -0.2060 C   0  0  0  0  0  0  0  0  0  0  0  0
   -6.6230    0.1980    0.0430 C   0  0  0  0  0  0  0  0  0  0  0  0
   -7.6920    1.1030    0.1990 C   0  0  0  0  0  0  0  0  0  0  0  0
   -7.4850    2.4300    0.4390 C   0  0  0  0  0  0  0  0  0  0  0  0
   -6.1960    2.8890    0.5300 C   0  0  0  0  0  0  0  0  0  0  0  0
   -5.1510    1.9830    0.3730 C   0  0  0  0  0  0  0  0  0  0  0  0
   -5.3010    0.6410    0.1310 C   0  0  0  0  0  0  0  0  0  0  0  0
   -4.2290   -0.2670   -0.0260 N   0  0  0  0  0  0  0  0  0  0  0  0
   -2.8730    0.0640    0.0420 C   0  0  0  0  0  0  0  0  0  0  0  0
   -2.4970    1.2320    0.2550 O   0  0  0  0  0  0  0  0  0  0  0  0
   -1.7970   -0.9480   -0.1340 C   0  0  0  0  0  0  0  0  0  0  0  0
   -2.0630   -2.2600   -0.3720 C   0  0  0  0  0  0  0  0  0  0  0  0
   -1.0320   -3.1530   -0.5270 C   0  0  0  0  0  0  0  0  0  0  0  0
    0.3030   -2.7340   -0.4430 C   0  0  0  0  0  0  0  0  0  0  0  0
    0.6080   -1.4050   -0.2010 C   0  0  0  0  0  0  0  0  0  0  0  0
    1.9790   -0.9330   -0.1070 C   0  0  0  0  0  0  0  0  0  0  0  0
    2.9990   -1.7380   -0.2460 C   0  0  0  0  0  0  0  0  0  0  0  0
    4.3800   -1.2250   -0.1450 C   0  0  0  0  0  0  0  0  0  0  0  0
    4.3840    0.2460    0.0980 C   0  0  0  0  0  0  0  0  0  0  0  0
    5.7910    0.7750    0.2100 C   0  0  0  0  0  0  0  0  0  0  0  0
    6.3040    1.6900   -0.5860 C   0  0  0  0  0  0  0  0  0  0  0  0
    7.6810    1.9100   -0.1300 C   0  0  0  0  0  0  0  0  0  0  0  0
    7.9070    1.0160    1.0230 C   0  0  0  0  0  0  0  0  0  0  0  0
    6.7560    0.3460    1.2050 C   0  0  0  0  0  0  0  0  0  0  0  0
   -0.4540   -0.5350   -0.0510 C   0  0  0  0  0  0  0  0  0  0  0  0
   -0.2340    0.7970    0.1910 O   0  0  0  0  0  0  0  0  0  0  0  0
  1  2  2  0
  2  3  1  0
  3  4  2  0
  3  8  1  0
  4  5  1  0
  5  6  2  0
  6  7  1  0
  7  8  2  0
  8  9  1  0
  9 10  1  0
 10 11  2  0
 10 12  1  0
 12 13  2  0
 12 26  1  0
 13 14  1  0
 14 15  2  0
 15 16  1  0
 16 17  1  0
 16 26  2  0
 17 18  2  3
 18 19  1  0
 19 20  1  0
 20 21  1  0
 21 22  2  0
 21 25  1  0
 22 23  1  0
 23 24  1  0
 24 25  2  0
 26 27  1  0
M  END
