
     RDKit          3D

 27 29  0  0  0  0  0  0  0  0999 V2000
    3.9000    3.5960    1.9980 C   0  0  0  0  0  0  0  0  0  0  0  0
    3.6280    2.2730    1.3840 C   0  0  0  0  0  0  0  0  0  0  0  0
    4.5980    1.4260    1.1120 C   0  0  0  0  0  0  0  0  0  0  0  0
    4.4120    0.1180    0.5140 C   0  0  0  0  0  0  0  0  0  0  0  0
    5.4330   -0.6770    0.2690 C   0  0  0  0  0  0  0  0  0  0  0  0
    5.2220   -1.9950   -0.3360 C   0  0  0  0  0  0  0  0  0  0  0  0
    5.9630   -2.0970   -1.6560 C   0  0  0  0  0  0  0  0  0  0  0  0
    7.3240   -1.9060   -1.4030 O   0  0  0  0  0  0  0  0  0  0  0  0
    3.0710   -0.3530    0.1650 C   0  0  0  0  0  0  0  0  0  0  0  0
    2.0200    0.6280    0.4860 C   0  0  0  0  0  0  0  0  0  0  0  0
    0.6770    0.3110    0.2030 C   0  0  0  0  0  0  0  0  0  0  0  0
   -0.3690    1.1570    0.4650 C   0  0  0  0  0  0  0  0  0  0  0  0
   -1.6820    0.7820    0.1590 O   0  0  0  0  0  0  0  0  0  0  0  0
   -1.8870   -0.4880   -0.4240 C   0  0  0  0  0  0  0  0  0  0  0  0
   -3.3440   -0.6470   -0.6500 C   0  0  0  0  0  0  0  0  0  0  0  0
   -3.8270   -1.8070   -1.2170 C   0  0  0  0  0  0  0  0  0  0  0  0
   -5.1750   -1.9850   -1.4390 C   0  0  0  0  0  0  0  0  0  0  0  0
   -5.7060   -3.2310   -2.0500 C   0  0  0  0  0  0  0  0  0  0  0  0
   -6.0460   -0.9520   -1.0730 C   0  0  0  0  0  0  0  0  0  0  0  0
   -5.6190    0.2200   -0.5060 C   0  0  0  0  0  0  0  0  0  0  0  0
   -6.4300    1.3040   -0.1110 N   0  0  0  0  0  0  0  0  0  0  0  0
   -7.8220    1.3690   -0.2300 C   0  0  0  0  0  0  0  0  0  0  0  0
   -8.4810    0.4470   -0.7110 O   0  0  0  0  0  0  0  0  0  0  0  0
   -4.2400    0.3170   -0.3170 C   0  0  0  0  0  0  0  0  0  0  0  0
   -0.0920    2.3880    1.0380 C   0  0  0  0  0  0  0  0  0  0  0  0
    1.2090    2.7330    1.3300 C   0  0  0  0  0  0  0  0  0  0  0  0
    2.2570    1.8560    1.0540 C   0  0  0  0  0  0  0  0  0  0  0  0
  1  2  1  0
  2  3  2  0
  2 27  1  0
  3  4  1  0
  4  5  2  3
  4  9  1  0
  5  6  1  0
  6  7  1  0
  7  8  1  0
  9 10  1  0
 10 11  2  0
 10 27  1  0
 11 12  1  0
 12 13  1  0
 12 25  2  0
 13 14  1  0
 14 15  1  0
 15 16  2  0
 15 24  1  0
 16 17  1  0
 17 18  1  0
 17 19  2  0
 19 20  1  0
 20 21  1  0
 20 24  2  0
 21 22  1  0
 22 23  2  0
 25 26  1  0
 26 27  2  0
M  END
