
     RDKit          3D

 27 28  0  0  0  0  0  0  0  0999 V2000
   -4.5050   -4.3170    3.5190 C   0  0  0  0  0  0  0  0  0  0  0  0
   -3.6900   -3.9300    2.7490 C   0  0  0  0  0  0  0  0  0  0  0  0
   -2.6940   -3.4530    1.7730 C   0  0  0  0  0  0  0  0  0  0  0  0
   -2.6880   -2.1180    1.4110 C   0  0  0  0  0  0  0  0  0  0  0  0
   -1.7900   -1.6200    0.4570 C   0  0  0  0  0  0  0  0  0  0  0  0
   -1.8760   -0.2360    0.0690 C   0  0  0  0  0  0  0  0  0  0  0  0
   -0.9330    0.6580   -0.1260 C   0  0  0  0  0  0  0  0  0  0  0  0
   -1.4320    1.9900   -0.5360 C   0  0  0  0  0  0  0  0  0  0  0  0
   -0.6690    2.9360   -0.7290 O   0  0  0  0  0  0  0  0  0  0  0  0
   -2.7930    2.1950   -0.7030 O   0  0  0  0  0  0  0  0  0  0  0  0
   -3.2910    3.4530   -1.0960 C   0  0  0  0  0  0  0  0  0  0  0  0
   -2.7840    3.9440   -2.4260 C   0  0  0  0  0  0  0  0  0  0  0  0
   -3.4400    5.3110   -2.6600 C   0  0  0  0  0  0  0  0  0  0  0  0
    0.4820    0.4930    0.1460 C   0  0  0  0  0  0  0  0  0  0  0  0
    0.9580   -0.4040    1.0870 C   0  0  0  0  0  0  0  0  0  0  0  0
    2.3240   -0.5780    1.1990 C   0  0  0  0  0  0  0  0  0  0  0  0
    3.2400    0.1040    0.4160 C   0  0  0  0  0  0  0  0  0  0  0  0
    4.6660   -0.1210    0.5850 C   0  0  0  0  0  0  0  0  0  0  0  0
    5.5990    0.4630   -0.1140 C   0  0  0  0  0  0  0  0  0  0  0  0
    7.0630    0.2340    0.0570 C   0  0  0  0  0  0  0  0  0  0  0  0
    7.6520   -0.2520   -1.1180 O   0  0  0  0  0  0  0  0  0  0  0  0
    2.7460    0.9840   -0.5040 C   0  0  0  0  0  0  0  0  0  0  0  0
    1.3950    1.1960   -0.6590 C   0  0  0  0  0  0  0  0  0  0  0  0
   -0.9220   -2.5190   -0.0910 C   0  0  0  0  0  0  0  0  0  0  0  0
   -0.9140   -3.8660    0.2650 C   0  0  0  0  0  0  0  0  0  0  0  0
   -1.8100   -4.3380    1.2030 C   0  0  0  0  0  0  0  0  0  0  0  0
   -1.8230   -5.7300    1.5820 N   0  0  0  0  0  0  0  0  0  0  0  0
  1  2  3  0
  2  3  1  0
  3  4  2  0
  3 26  1  0
  4  5  1  0
  5  6  1  0
  5 24  2  0
  6  7  2  3
  7  8  1  0
  7 14  1  0
  8  9  2  0
  8 10  1  0
 10 11  1  0
 11 12  1  0
 12 13  1  0
 14 15  2  0
 14 23  1  0
 15 16  1  0
 16 17  2  0
 17 18  1  0
 17 22  1  0
 18 19  2  3
 19 20  1  0
 20 21  1  0
 22 23  2  0
 24 25  1  0
 25 26  2  0
 26 27  1  0
M  END
