
     RDKit          3D

 27 29  0  0  0  0  0  0  0  0999 V2000
    6.2170    1.5270   -1.0740 C   0  0  0  0  0  0  0  0  0  0  0  0
    5.3350    0.8260   -0.1300 C   0  0  0  0  0  0  0  0  0  0  0  0
    5.8590    0.3540    1.0470 C   0  0  0  0  0  0  0  0  0  0  0  0
    5.0700   -0.3090    1.9630 C   0  0  0  0  0  0  0  0  0  0  0  0
    3.7550   -0.4830    1.6670 C   0  0  0  0  0  0  0  0  0  0  0  0
    3.1630   -0.0270    0.4880 C   0  0  0  0  0  0  0  0  0  0  0  0
    1.7400   -0.2450    0.2270 C   0  0  0  0  0  0  0  0  0  0  0  0
    1.0980   -1.3680    0.7050 C   0  0  0  0  0  0  0  0  0  0  0  0
   -0.2370   -1.5770    0.4630 C   0  0  0  0  0  0  0  0  0  0  0  0
   -0.9750   -0.6820   -0.2580 C   0  0  0  0  0  0  0  0  0  0  0  0
   -2.3230   -0.8660   -0.5180 O   0  0  0  0  0  0  0  0  0  0  0  0
   -2.9910   -1.9830   -0.0500 C   0  0  0  0  0  0  0  0  0  0  0  0
   -3.1760   -2.1910    1.2380 C   0  0  0  0  0  0  0  0  0  0  0  0
   -3.8550   -3.3140    1.8450 C   0  0  0  0  0  0  0  0  0  0  0  0
   -4.3920   -4.3240    0.9230 C   0  0  0  0  0  0  0  0  0  0  0  0
   -4.1640   -4.0550   -0.4980 C   0  0  0  0  0  0  0  0  0  0  0  0
   -3.5300   -2.9960   -0.9450 C   0  0  0  0  0  0  0  0  0  0  0  0
   -3.3710   -2.8430   -2.3490 N   0  0  0  0  0  0  0  0  0  0  0  0
   -0.3640    0.4810   -0.7680 C   0  0  0  0  0  0  0  0  0  0  0  0
   -1.1290    1.3620   -1.4860 O   0  0  0  0  0  0  0  0  0  0  0  0
   -0.8580    2.5590   -2.0770 C   0  0  0  0  0  0  0  0  0  0  0  0
   -0.4730    3.6770   -1.1570 C   0  0  0  0  0  0  0  0  0  0  0  0
   -1.5270    4.0640   -0.1680 C   0  0  0  0  0  0  0  0  0  0  0  0
   -1.9450    3.0020    0.7920 C   0  0  0  0  0  0  0  0  0  0  0  0
   -0.8570    2.5740    1.5820 O   0  0  0  0  0  0  0  0  0  0  0  0
    0.9750    0.6550   -0.5060 C   0  0  0  0  0  0  0  0  0  0  0  0
    3.9950    0.6310   -0.3960 C   0  0  0  0  0  0  0  0  0  0  0  0
  1  2  1  0
  2  3  2  0
  2 27  1  0
  3  4  1  0
  4  5  2  0
  5  6  1  0
  6  7  1  0
  6 27  2  0
  7  8  2  0
  7 26  1  0
  8  9  1  0
  9 10  2  0
 10 11  1  0
 10 19  1  0
 11 12  1  0
 12 13  2  0
 12 17  1  0
 13 14  1  0
 14 15  1  0
 15 16  1  0
 16 17  2  0
 17 18  1  0
 19 20  1  0
 19 26  2  0
 20 21  1  0
 21 22  1  0
 22 23  1  0
 23 24  1  0
 24 25  1  0
M  END
