
     RDKit          3D

 27 29  0  0  0  0  0  0  0  0999 V2000
   -6.7760    2.3490    0.0400 O   0  0  0  0  0  0  0  0  0  0  0  0
   -7.2980    1.7960   -0.9360 C   0  0  0  0  0  0  0  0  0  0  0  0
   -6.8580    0.7290   -1.7750 C   0  0  0  0  0  0  0  0  0  0  0  0
   -5.8590   -0.0490   -1.8990 C   0  0  0  0  0  0  0  0  0  0  0  0
   -4.6140   -0.2610   -1.2310 C   0  0  0  0  0  0  0  0  0  0  0  0
   -3.7680   -1.2770   -1.7220 C   0  0  0  0  0  0  0  0  0  0  0  0
   -2.5550   -1.5430   -1.1380 C   0  0  0  0  0  0  0  0  0  0  0  0
   -2.0970   -0.8570   -0.0640 C   0  0  0  0  0  0  0  0  0  0  0  0
   -2.8820    0.1370    0.4470 C   0  0  0  0  0  0  0  0  0  0  0  0
   -2.5190    0.9620    1.6120 C   0  0  2  0  0  0  0  0  0  0  0  0
   -2.7400    2.3020    1.2470 O   0  0  0  0  0  0  0  0  0  0  0  0
   -1.1560    0.8220    2.0910 C   0  0  0  0  0  0  0  0  0  0  0  0
   -0.3730    1.8040    2.0220 O   0  0  0  0  0  0  0  0  0  0  0  0
   -0.6200   -0.3840    2.6530 N   0  0  0  0  0  0  0  0  0  0  0  0
    0.7440   -0.4460    3.1040 C   0  0  0  0  0  0  0  0  0  0  0  0
    1.7180   -0.1670    2.0070 C   0  0  0  0  0  0  0  0  0  0  0  0
    2.6230   -1.0560    1.6420 C   0  0  0  0  0  0  0  0  0  0  0  0
    3.6020   -0.8600    0.5880 C   0  0  0  0  0  0  0  0  0  0  0  0
    4.4980   -1.8650    0.2980 C   0  0  0  0  0  0  0  0  0  0  0  0
    5.4620   -1.7780   -0.6800 C   0  0  0  0  0  0  0  0  0  0  0  0
    5.5510   -0.6030   -1.4360 C   0  0  0  0  0  0  0  0  0  0  0  0
    4.6690    0.4190   -1.1690 C   0  0  0  0  0  0  0  0  0  0  0  0
    3.7070    0.2850   -0.1660 C   0  0  0  0  0  0  0  0  0  0  0  0
    4.9890    1.4960   -2.0910 C   0  0  0  0  0  0  0  0  0  0  0  0
    5.9910    1.1680   -2.8680 C   0  0  0  0  0  0  0  0  0  0  0  0
    6.4430   -0.1900   -2.5300 C   0  0  0  0  0  0  0  0  0  0  0  0
   -4.1240    0.4170   -0.1440 C   0  0  0  0  0  0  0  0  0  0  0  0
  1  2  2  0
  2  3  1  0
  3  4  2  3
  4  5  1  0
  5  6  2  0
  5 27  1  0
  6  7  1  0
  7  8  2  0
  8  9  1  0
  9 10  1  0
  9 27  2  0
 10 11  1  6
 10 12  1  0
 12 13  2  0
 12 14  1  0
 14 15  1  0
 15 16  1  0
 16 17  2  3
 17 18  1  0
 18 19  2  0
 18 23  1  0
 19 20  1  0
 20 21  2  0
 21 22  1  0
 21 26  1  0
 22 23  2  0
 22 24  1  0
 24 25  2  0
 25 26  1  0
M  END
