
     RDKit          3D

 23 24  0  0  0  0  0  0  0  0999 V2000
   -2.0730   -2.8140    0.6580 C   0  0  0  0  0  0  0  0  0  0  0  0
   -1.0300   -1.7860    0.3970 C   0  0  0  0  0  0  0  0  0  0  0  0
   -1.4700   -0.5300   -0.0310 N   0  0  0  0  0  0  0  0  0  0  0  0
   -2.8460   -0.1990   -0.2220 C   0  0  0  0  0  0  0  0  0  0  0  0
   -3.7110   -1.0550   -0.0050 O   0  0  0  0  0  0  0  0  0  0  0  0
   -3.2230    1.0840   -0.6550 O   0  0  0  0  0  0  0  0  0  0  0  0
   -4.5970    1.3650   -0.8300 C   0  0  2  0  0  0  0  0  0  0  0  0
   -5.4010    1.2030    0.4280 C   0  0  0  0  0  0  0  0  0  0  0  0
   -5.1050    0.5070   -1.7850 F   0  0  0  0  0  0  0  0  0  0  0  0
   -4.7870    2.7710   -1.3680 C   0  0  0  0  0  0  0  0  0  0  0  0
   -4.2510    3.6590   -0.4670 O   0  0  0  0  0  0  0  0  0  0  0  0
    0.2210   -2.0780    0.5690 C   0  0  0  0  0  0  0  0  0  0  0  0
    0.7970   -3.6790    1.1140 S   0  0  0  0  0  0  0  0  0  0  0  0
    2.5340   -3.2850    1.0990 C   0  0  0  0  0  0  0  0  0  0  0  0
    2.6600   -2.0410    0.7110 C   0  0  0  0  0  0  0  0  0  0  0  0
    3.9950   -1.4130    0.5950 C   0  0  0  0  0  0  0  0  0  0  0  0
    5.0020   -2.1140    0.8820 O   0  0  0  0  0  0  0  0  0  0  0  0
    4.2420   -0.0990    0.1930 N   0  0  0  0  0  0  0  0  0  0  0  0
    5.6230    0.4090    0.1190 C   0  0  1  0  0  0  0  0  0  0  0  0
    5.9410    1.5640   -0.7410 C   0  0  0  0  0  0  0  0  0  0  0  0
    5.7370    1.8090    0.7200 C   0  0  0  0  0  0  0  0  0  0  0  0
    1.4430   -1.3330    0.4090 C   0  0  0  0  0  0  0  0  0  0  0  0
    1.3830   -0.1060    0.0150 O   0  0  0  0  0  0  0  0  0  0  0  0
  1  2  1  0
  2  3  1  0
  2 12  2  3
  3  4  1  0
  4  5  2  0
  4  6  1  0
  6  7  1  0
  7  8  1  1
  7  9  1  0
  7 10  1  0
 10 11  1  0
 12 13  1  0
 12 22  1  0
 13 14  1  0
 14 15  2  0
 15 16  1  0
 15 22  1  0
 16 17  2  0
 16 18  1  0
 19 18  1  6
 19 20  1  0
 19 21  1  0
 20 21  1  0
 22 23  2  0
M  END
