
     RDKit          3D

 27 29  0  0  0  0  0  0  0  0999 V2000
    6.7670    1.1720    1.7470 C   0  0  0  0  0  0  0  0  0  0  0  0
    5.7740    1.9990    1.7300 C   0  0  0  0  0  0  0  0  0  0  0  0
    4.3300    1.7970    1.6740 C   0  0  0  0  0  0  0  0  0  0  0  0
    3.8780    0.5160    1.6230 O   0  0  0  0  0  0  0  0  0  0  0  0
    4.2260   -0.2470    0.5300 C   0  0  1  0  0  0  0  0  0  0  0  0
    4.7450   -1.5160    0.9750 N   0  0  0  0  0  0  0  0  0  0  0  0
    2.9670   -0.5580   -0.2740 C   0  0  0  0  0  0  0  0  0  0  0  0
    1.8100   -0.9620    0.3440 C   0  0  0  0  0  0  0  0  0  0  0  0
    0.6580   -1.2450   -0.4040 C   0  0  0  0  0  0  0  0  0  0  0  0
   -0.4510   -1.6390    0.2710 O   0  0  0  0  0  0  0  0  0  0  0  0
   -1.6790   -1.0620    0.3460 C   0  0  0  0  0  0  0  0  0  0  0  0
   -2.7020   -1.6670    1.0440 C   0  0  0  0  0  0  0  0  0  0  0  0
   -3.9700   -1.1000    1.1390 C   0  0  0  0  0  0  0  0  0  0  0  0
   -5.0490   -1.7780    1.9020 C   0  0  0  0  0  0  0  0  0  0  0  0
   -5.2180   -1.0790    3.2320 C   0  0  0  0  0  0  0  0  0  0  0  0
   -4.1800    0.1050    0.5040 C   0  0  0  0  0  0  0  0  0  0  0  0
   -3.1650    0.7440   -0.2110 C   0  0  0  0  0  0  0  0  0  0  0  0
   -1.9130    0.1400   -0.2780 C   0  0  0  0  0  0  0  0  0  0  0  0
   -3.6580    2.0200   -0.7930 C   0  0  0  0  0  0  0  0  0  0  0  0
   -5.1630    1.8650   -0.7310 C   0  0  0  0  0  0  0  0  0  0  0  0
   -5.4280    0.9330    0.4340 C   0  0  0  0  0  0  0  0  0  0  0  0
    0.6770   -1.1200   -1.7710 C   0  0  0  0  0  0  0  0  0  0  0  0
   -0.4350   -1.3880   -2.5650 O   0  0  0  0  0  0  0  0  0  0  0  0
   -0.4430   -1.2710   -3.9540 C   0  0  0  0  0  0  0  0  0  0  0  0
    1.8450   -0.7140   -2.3760 C   0  0  0  0  0  0  0  0  0  0  0  0
    3.0060   -0.4270   -1.6380 C   0  0  0  0  0  0  0  0  0  0  0  0
    4.2580    0.0070   -2.2770 C   0  0  0  0  0  0  0  0  0  0  0  0
  1  2  2  0
  2  3  1  0
  3  4  1  0
  4  5  1  0
  5  6  1  1
  5  7  1  0
  7  8  2  0
  7 26  1  0
  8  9  1  0
  9 10  1  0
  9 22  2  0
 10 11  1  0
 11 12  2  0
 11 18  1  0
 12 13  1  0
 13 14  1  0
 13 16  2  0
 14 15  1  0
 16 17  1  0
 16 21  1  0
 17 18  2  0
 17 19  1  0
 19 20  1  0
 20 21  1  0
 22 23  1  0
 22 25  1  0
 23 24  1  0
 25 26  2  0
 26 27  1  0
M  END
