
     RDKit          3D

 32 33  0  0  0  0  0  0  0  0999 V2000
   -4.6560   -2.6080    0.9770 C   0  0  0  0  0  0  0  0  0  0  0  0
   -4.0260   -1.4580    0.4400 O   0  0  0  0  0  0  0  0  0  0  0  0
   -3.2820   -1.4950   -0.7290 C   0  0  0  0  0  0  0  0  0  0  0  0
   -3.1860   -2.6020   -1.3050 O   0  0  0  0  0  0  0  0  0  0  0  0
   -2.6170   -0.2290   -1.2760 C   0  0  1  0  0  0  0  0  0  0  0  0
   -3.7280    0.6840   -1.4940 C   0  0  0  0  0  0  0  0  0  0  0  0
   -4.4620    1.0070   -0.3050 O   0  0  0  0  0  0  0  0  0  0  0  0
   -5.5380    1.8740   -0.4310 C   0  0  0  0  0  0  0  0  0  0  0  0
   -5.8240    2.3340   -1.5650 O   0  0  0  0  0  0  0  0  0  0  0  0
   -6.3220    2.2600    0.6470 O   0  0  0  0  0  0  0  0  0  0  0  0
   -1.4640   -0.0190   -0.4520 C   0  0  0  0  0  0  0  0  0  0  0  0
   -0.5110    1.0790   -0.5880 C   0  0  1  0  0  0  0  0  0  0  0  0
   -1.1960    2.3610   -0.3870 C   0  0  0  0  0  0  0  0  0  0  0  0
   -1.4600    2.2480    1.1180 C   0  0  0  0  0  0  0  0  0  0  0  0
   -2.3270    2.9000    1.7780 O   0  0  0  0  0  0  0  0  0  0  0  0
   -0.5610    1.2900    1.6280 O   0  0  0  0  0  0  0  0  0  0  0  0
    0.3970    1.2550    0.6590 C   0  0  2  0  0  0  0  0  0  0  0  0
    0.9040    2.5880    0.5860 O   0  0  0  0  0  0  0  0  0  0  0  0
    1.4970    0.3480    0.5890 C   0  0  1  0  0  0  0  0  0  0  0  0
    1.6220   -0.7520    1.5790 C   0  0  1  0  0  0  0  0  0  0  0  0
    0.6360   -1.6740    1.6790 O   0  0  0  0  0  0  0  0  0  0  0  0
    2.9790   -1.3390    1.4610 C   0  0  0  0  0  0  0  0  0  0  0  0
    3.0990   -2.5810    1.4720 O   0  0  0  0  0  0  0  0  0  0  0  0
    4.0850   -0.5350    1.3410 O   0  0  0  0  0  0  0  0  0  0  0  0
    5.3540   -1.1490    1.2310 C   0  0  0  0  0  0  0  0  0  0  0  0
    6.4610   -0.1220    1.1070 C   0  0  0  0  0  0  0  0  0  0  0  0
    7.6680   -0.8360    1.0060 O   0  0  0  0  0  0  0  0  0  0  0  0
    1.6150    0.0240   -0.8580 C   0  0  2  0  0  0  0  0  0  0  0  0
    1.5210   -1.3990   -1.2460 C   0  0  0  0  0  0  0  0  0  0  0  0
    2.8250    0.5080   -1.4340 O   0  0  0  0  0  0  0  0  0  0  0  0
    0.5620    0.9100   -1.5720 C   0  0  1  0  0  0  0  0  0  0  0  0
    0.2460    0.1580   -2.7000 O   0  0  0  0  0  0  0  0  0  0  0  0
  1  2  1  0
  2  3  1  0
  3  4  2  0
  3  5  1  0
  5  6  1  1
  5 11  1  0
  6  7  1  0
  7  8  1  0
  8  9  2  0
  8 10  1  0
 12 11  1  1
 12 13  1  0
 12 17  1  0
 12 31  1  0
 13 14  1  0
 14 15  2  0
 14 16  1  0
 16 17  1  0
 17 18  1  6
 17 19  1  0
 19 20  1  1
 19 28  1  0
 20 21  1  6
 20 22  1  0
 22 23  2  0
 22 24  1  0
 24 25  1  0
 25 26  1  0
 26 27  1  0
 28 29  1  1
 28 30  1  0
 28 31  1  0
 31 32  1  6
M  END
