
     RDKit          3D

 34 37  0  0  0  0  0  0  0  0999 V2000
    8.3140   -1.3120   -1.8240 C   0  0  0  0  0  0  0  0  0  0  0  0
    7.5380   -2.3650   -1.7330 C   0  0  0  0  0  0  0  0  0  0  0  0
    6.2020   -2.1820   -1.1440 C   0  0  0  0  0  0  0  0  0  0  0  0
    5.4670   -3.1910   -1.0590 O   0  0  0  0  0  0  0  0  0  0  0  0
    5.7560   -0.9680   -0.6990 O   0  0  0  0  0  0  0  0  0  0  0  0
    4.4310   -0.8600   -0.1430 C   0  0  0  0  0  0  0  0  0  0  0  0
    3.3810   -1.1410   -1.1400 C   0  0  0  0  0  0  0  0  0  0  0  0
    2.0030   -1.1860   -0.6440 C   0  0  0  0  0  0  0  0  0  0  0  0
    1.4520   -0.0080    0.0300 C   0  0  1  0  0  0  0  0  0  0  0  0
    0.0230   -0.3800    0.2500 O   0  0  0  0  0  0  0  0  0  0  0  0
   -0.4790    0.7270    0.9320 C   0  0  1  0  0  0  0  0  0  0  0  0
   -1.6890    0.3630    1.6190 N   0  0  0  0  0  0  0  0  0  0  0  0
   -2.9100    0.3520    1.0790 C   0  0  0  0  0  0  0  0  0  0  0  0
   -3.4270    0.6550   -0.1980 N   0  0  0  0  0  0  0  0  0  0  0  0
   -2.6490    1.1220   -1.3030 C   0  0  0  0  0  0  0  0  0  0  0  0
   -3.5210    1.1610   -2.5520 C   0  0  0  0  0  0  0  0  0  0  0  0
   -3.6310    0.0830   -3.3950 C   0  0  0  0  0  0  0  0  0  0  0  0
   -4.4210    0.1210   -4.5240 C   0  0  0  0  0  0  0  0  0  0  0  0
   -5.1290    1.2620   -4.8330 C   0  0  0  0  0  0  0  0  0  0  0  0
   -6.1480    1.3850   -6.2430 Cl  0  0  0  0  0  0  0  0  0  0  0  0
   -5.0140    2.3430   -3.9810 C   0  0  0  0  0  0  0  0  0  0  0  0
   -4.2200    2.3070   -2.8450 C   0  0  0  0  0  0  0  0  0  0  0  0
   -3.7950   -0.0640    2.0590 N   0  0  0  0  0  0  0  0  0  0  0  0
   -3.1190   -0.3010    3.1780 C   0  0  0  0  0  0  0  0  0  0  0  0
   -3.4720   -0.7350    4.4560 C   0  0  0  0  0  0  0  0  0  0  0  0
   -4.8440   -0.9960    4.6890 N   0  0  0  0  0  0  0  0  0  0  0  0
   -2.4900   -0.8680    5.3500 N   0  0  0  0  0  0  0  0  0  0  0  0
   -1.1980   -0.5980    5.0520 C   0  0  0  0  0  0  0  0  0  0  0  0
   -0.8440   -0.1800    3.8280 N   0  0  0  0  0  0  0  0  0  0  0  0
   -1.8120   -0.0360    2.9010 C   0  0  0  0  0  0  0  0  0  0  0  0
    0.6310    1.2360    1.7880 C   0  0  2  0  0  0  0  0  0  0  0  0
    1.2100    2.4120    1.2530 O   0  0  0  0  0  0  0  0  0  0  0  0
    1.7180    0.1570    1.5120 C   0  0  2  0  0  0  0  0  0  0  0  0
    2.9170    0.5890    1.9300 O   0  0  0  0  0  0  0  0  0  0  0  0
  1  2  2  0
  2  3  1  0
  3  4  2  0
  3  5  1  0
  5  6  1  0
  6  7  1  0
  7  8  1  0
  9  8  1  1
  9 10  1  0
  9 33  1  0
 10 11  1  0
 11 12  1  1
 11 31  1  0
 12 13  1  0
 12 30  1  0
 13 14  1  0
 13 23  2  0
 14 15  1  0
 15 16  1  0
 16 17  2  0
 16 22  1  0
 17 18  1  0
 18 19  2  0
 19 20  1  0
 19 21  1  0
 21 22  2  0
 23 24  1  0
 24 25  2  0
 24 30  1  0
 25 26  1  0
 25 27  1  0
 27 28  2  0
 28 29  1  0
 29 30  2  0
 31 32  1  6
 31 33  1  0
 33 34  1  6
M  END
