
     RDKit          3D

 33 33  0  0  0  0  0  0  0  0999 V2000
    2.8350   -0.9000   -1.5270 O   0  0  0  0  0  0  0  0  0  0  0  0
    2.7550    0.0880   -0.7810 C   0  0  0  0  0  0  0  0  0  0  0  0
    3.9290    0.5790   -0.2320 O   0  0  0  0  0  0  0  0  0  0  0  0
    5.1430   -0.0550   -0.5390 C   0  0  2  0  0  0  0  0  0  0  0  0
    5.7370   -0.5060    0.7970 C   0  0  0  0  0  0  0  0  0  0  0  0
    5.9470    0.5940    1.6050 O   0  0  0  0  0  0  0  0  0  0  0  0
    6.0990    0.9210   -1.1770 C   0  0  1  0  0  0  0  0  0  0  0  0
    6.4040    2.0030   -0.3610 O   0  0  0  0  0  0  0  0  0  0  0  0
    7.3680    0.3070   -1.6700 C   0  0  0  0  0  0  0  0  0  0  0  0
    8.2150   -0.1580   -0.6860 O   0  0  0  0  0  0  0  0  0  0  0  0
    1.4860    0.7320   -0.4740 C   0  0  2  0  0  0  0  0  0  0  0  0
    1.7360    1.9020    0.2410 O   0  0  0  0  0  0  0  0  0  0  0  0
    0.5780   -0.1810    0.3250 C   0  0  0  0  0  0  0  0  0  0  0  0
    0.2920    0.2080    1.5590 C   0  0  0  0  0  0  0  0  0  0  0  0
    0.8500    1.4240    2.0260 O   0  0  0  0  0  0  0  0  0  0  0  0
   -0.5610   -0.4820    2.5420 C   0  0  0  0  0  0  0  0  0  0  0  0
   -1.7030    0.2730    2.8960 O   0  0  0  0  0  0  0  0  0  0  0  0
   -2.8470    0.4710    2.1820 C   0  0  0  0  0  0  0  0  0  0  0  0
   -3.1720    1.6880    1.9300 O   0  0  0  0  0  0  0  0  0  0  0  0
   -3.7760   -0.5360    1.6520 C   0  0  2  0  0  0  0  0  0  0  0  0
   -3.2340   -1.8180    1.6210 O   0  0  0  0  0  0  0  0  0  0  0  0
   -4.5210   -0.1520    0.4140 C   0  0  1  0  0  0  0  0  0  0  0  0
   -4.9580    1.1700    0.4850 O   0  0  0  0  0  0  0  0  0  0  0  0
   -6.3150    1.3320    0.5410 C   0  0  0  0  0  0  0  0  0  0  0  0
   -7.0660    0.8010   -0.6340 C   0  0  0  0  0  0  0  0  0  0  0  0
   -8.4420    1.0410   -0.4300 O   0  0  0  0  0  0  0  0  0  0  0  0
   -3.8800   -0.3700   -0.8990 C   0  0  0  0  0  0  0  0  0  0  0  0
   -2.5010   -0.9520   -0.8360 C   0  0  1  0  0  0  0  0  0  0  0  0
   -2.6260   -2.3170   -0.8690 O   0  0  0  0  0  0  0  0  0  0  0  0
   -1.6400   -0.5960   -1.8480 O   0  0  0  0  0  0  0  0  0  0  0  0
   -0.4120   -1.2220   -1.7260 C   0  0  0  0  0  0  0  0  0  0  0  0
    0.1120   -1.3850   -0.3430 C   0  0  1  0  0  0  0  0  0  0  0  0
    1.1380   -2.3250   -0.3610 O   0  0  0  0  0  0  0  0  0  0  0  0
  1  2  2  0
  2  3  1  0
  2 11  1  0
  3  4  1  0
  4  5  1  1
  4  7  1  0
  5  6  1  0
  7  8  1  1
  7  9  1  0
  9 10  1  0
 11 12  1  1
 11 13  1  0
 13 14  2  0
 13 32  1  0
 14 15  1  0
 14 16  1  0
 16 17  1  0
 17 18  1  0
 18 19  2  0
 18 20  1  0
 20 21  1  6
 20 22  1  0
 22 23  1  1
 22 27  1  0
 23 24  1  0
 24 25  1  0
 25 26  1  0
 27 28  1  0
 28 29  1  6
 28 30  1  0
 30 31  1  0
 31 32  1  0
 32 33  1  6
M  END
