
     RDKit          3D

 32 34  0  0  0  0  0  0  0  0999 V2000
   -2.9440   -1.2160   -2.8870 O   0  0  0  0  0  0  0  0  0  0  0  0
   -3.9010   -0.2050   -2.7980 C   0  0  0  0  0  0  0  0  0  0  0  0
   -3.4900    0.9740   -2.0380 C   0  0  0  0  0  0  0  0  0  0  0  0
   -3.1050    0.9120   -0.6300 C   0  0  2  0  0  0  0  0  0  0  0  0
   -4.1320    0.4170    0.3430 C   0  0  1  0  0  0  0  0  0  0  0  0
   -5.3360    1.1220    0.2880 O   0  0  0  0  0  0  0  0  0  0  0  0
   -4.2760   -1.0500    0.4850 C   0  0  0  0  0  0  0  0  0  0  0  0
   -5.3750   -1.3300    1.5300 C   0  0  1  0  0  0  0  0  0  0  0  0
   -5.5560   -2.6800    1.7060 O   0  0  0  0  0  0  0  0  0  0  0  0
   -4.9300   -0.7260    2.7040 O   0  0  0  0  0  0  0  0  0  0  0  0
   -6.5630   -0.6940    1.1740 O   0  0  0  0  0  0  0  0  0  0  0  0
   -7.0340   -1.0740    0.0280 O   0  0  0  0  0  0  0  0  0  0  0  0
   -2.7670    2.3380   -0.1440 C   0  0  0  0  0  0  0  0  0  0  0  0
   -1.4470    2.5960   -0.0030 O   0  0  0  0  0  0  0  0  0  0  0  0
   -0.7740    1.8530    0.9330 C   0  0  0  0  0  0  0  0  0  0  0  0
    0.1060    0.9020    0.1060 C   0  0  2  0  0  0  0  0  0  0  0  0
    0.6330   -0.2290    0.8930 C   0  0  0  0  0  0  0  0  0  0  0  0
    1.8680   -0.6150    0.3540 O   0  0  0  0  0  0  0  0  0  0  0  0
    2.8310    0.3830    0.5130 C   0  0  1  0  0  0  0  0  0  0  0  0
    3.8130    0.2160   -0.4460 O   0  0  0  0  0  0  0  0  0  0  0  0
    5.0620   -0.0520    0.1040 C   0  0  1  0  0  0  0  0  0  0  0  0
    5.5040    0.9670    0.9380 O   0  0  0  0  0  0  0  0  0  0  0  0
    5.0840   -1.3480    0.8860 C   0  0  0  0  0  0  0  0  0  0  0  0
    6.5530   -1.7720    1.0060 C   0  0  0  0  0  0  0  0  0  0  0  0
    7.3930   -0.6670    0.9160 O   0  0  0  0  0  0  0  0  0  0  0  0
    7.4800   -0.2390   -0.4070 C   0  0  0  0  0  0  0  0  0  0  0  0
    6.0820   -0.1900   -1.0070 C   0  0  2  0  0  0  0  0  0  0  0  0
    6.0470    0.9380   -1.8280 O   0  0  0  0  0  0  0  0  0  0  0  0
    2.2090    1.7730    0.4150 C   0  0  0  0  0  0  0  0  0  0  0  0
    1.1160    1.6580   -0.4350 O   0  0  0  0  0  0  0  0  0  0  0  0
   -0.8370    0.4590   -1.0260 C   0  0  0  0  0  0  0  0  0  0  0  0
   -2.0000    0.0770   -0.4380 O   0  0  0  0  0  0  0  0  0  0  0  0
  1  2  1  0
  2  3  1  0
  4  3  1  6
  4  5  1  0
  4 13  1  0
  4 32  1  0
  5  6  1  6
  5  7  1  0
  7  8  1  0
  8  9  1  1
  8 10  1  0
  8 11  1  0
 11 12  1  0
 13 14  1  0
 14 15  1  0
 16 15  1  1
 16 17  1  0
 16 30  1  0
 16 31  1  0
 17 18  1  0
 18 19  1  0
 19 20  1  6
 19 29  1  0
 20 21  1  0
 21 22  1  1
 21 23  1  0
 21 27  1  0
 23 24  1  0
 24 25  1  0
 25 26  1  0
 26 27  1  0
 27 28  1  6
 29 30  1  0
 31 32  1  0
M  END
