
     RDKit          3D

 35 37  0  0  0  0  0  0  0  0999 V2000
    4.9530    1.2100    0.0690 C   0  0  0  0  0  0  0  0  0  0  0  0
    5.0500    0.3750   -1.1890 C   0  0  0  0  0  0  0  0  0  0  0  0
    4.7600   -1.0670   -0.8820 C   0  0  0  0  0  0  0  0  0  0  0  0
    3.3820   -1.2270   -0.3010 C   0  0  0  0  0  0  0  0  0  0  0  0
    2.3670   -0.7550   -1.2430 C   0  0  0  0  0  0  0  0  0  0  0  0
    0.9110   -0.9080   -0.8550 C   0  0  1  0  0  0  0  0  0  0  0  0
    0.4720   -2.2890   -0.6240 C   0  0  0  0  0  0  0  0  0  0  0  0
   -0.7320   -2.6760   -1.4050 C   0  0  0  0  0  0  0  0  0  0  0  0
   -0.5390   -2.5750   -2.9010 C   0  0  0  0  0  0  0  0  0  0  0  0
   -1.8560   -3.0710   -0.9630 N   0  0  0  0  0  0  0  0  0  0  0  0
   -2.3960   -3.2940    0.3090 C   0  0  0  0  0  0  0  0  0  0  0  0
   -2.4790   -4.7270    0.8570 C   0  0  0  0  0  0  0  0  0  0  0  0
   -2.9430   -2.3600    1.1180 C   0  0  0  0  0  0  0  0  0  0  0  0
   -3.3990   -2.8110    2.3350 C   0  0  0  0  0  0  0  0  0  0  0  0
   -4.0060   -1.9400    3.2210 C   0  0  0  0  0  0  0  0  0  0  0  0
   -4.1660   -0.6210    2.9110 C   0  0  0  0  0  0  0  0  0  0  0  0
   -3.7110   -0.1820    1.7040 C   0  0  0  0  0  0  0  0  0  0  0  0
   -3.0810   -1.0000    0.7390 C   0  0  0  0  0  0  0  0  0  0  0  0
   -2.7410   -0.5220   -0.3100 N   0  0  0  0  0  0  0  0  0  0  0  0
   -2.3270   -0.1330   -1.4840 N   0  0  0  0  0  0  0  0  0  0  0  0
   -1.4770    0.9820   -1.8480 C   0  0  0  0  0  0  0  0  0  0  0  0
   -1.4740    1.2360   -3.1060 O   0  0  0  0  0  0  0  0  0  0  0  0
   -0.6730    1.7870   -0.9350 C   0  0  0  0  0  0  0  0  0  0  0  0
   -0.9400    3.2430   -1.0860 C   0  0  0  0  0  0  0  0  0  0  0  0
   -0.7470    3.8700   -2.2920 C   0  0  0  0  0  0  0  0  0  0  0  0
   -1.0640    5.2070   -2.3770 C   0  0  0  0  0  0  0  0  0  0  0  0
   -1.5540    5.8460   -1.2610 C   0  0  0  0  0  0  0  0  0  0  0  0
   -1.7440    5.2370   -0.0810 N   0  0  0  0  0  0  0  0  0  0  0  0
   -1.4290    3.9120   -0.0020 C   0  0  0  0  0  0  0  0  0  0  0  0
    0.2040    1.3860   -0.0280 C   0  0  0  0  0  0  0  0  0  0  0  0
    0.9100    2.4040    0.7930 C   0  0  0  0  0  0  0  0  0  0  0  0
    0.5520    0.0040    0.2240 N   0  0  0  0  0  0  0  0  0  0  0  0
    0.5330   -0.5610    1.5420 C   0  0  0  0  0  0  0  0  0  0  0  0
    0.3510    0.3910    2.6970 C   0  0  0  0  0  0  0  0  0  0  0  0
    0.3320   -0.3790    3.9150 O   0  0  0  0  0  0  0  0  0  0  0  0
  1  2  1  0
  2  3  1  0
  3  4  1  0
  4  5  1  0
  6  5  1  1
  6  7  1  0
  6 32  1  0
  7  8  1  0
  8  9  1  0
  8 10  2  0
 10 11  1  0
 11 12  1  0
 11 13  2  0
 13 14  1  0
 13 18  1  0
 14 15  2  0
 15 16  1  0
 16 17  2  0
 17 18  1  0
 18 19  2  0
 19 20  1  0
 20 21  1  0
 21 22  2  0
 21 23  1  0
 23 24  1  0
 23 30  2  0
 24 25  2  0
 24 29  1  0
 25 26  1  0
 26 27  2  0
 27 28  1  0
 28 29  2  0
 30 31  1  0
 30 32  1  0
 32 33  1  0
 33 34  1  0
 34 35  1  0
M  CHG  1  28   1
M  END
