
     RDKit          3D

 35 38  0  0  0  0  0  0  0  0999 V2000
   10.6790   -3.0940   -0.1500 C   0  0  0  0  0  0  0  0  0  0  0  0
    9.4870   -2.2020   -0.1790 C   0  0  0  0  0  0  0  0  0  0  0  0
    9.5420   -0.9200   -0.7030 C   0  0  0  0  0  0  0  0  0  0  0  0
    8.4310   -0.1080   -0.7230 C   0  0  0  0  0  0  0  0  0  0  0  0
    7.2310   -0.5660   -0.2170 C   0  0  0  0  0  0  0  0  0  0  0  0
    6.0520    0.1830   -0.1970 N   0  0  0  0  0  0  0  0  0  0  0  0
    5.6160    1.0080    0.6360 C   0  0  0  0  0  0  0  0  0  0  0  0
    4.3110    1.6400    0.3630 C   0  0  0  0  0  0  0  0  0  0  0  0
    3.6280    2.5740    1.1090 C   0  0  0  0  0  0  0  0  0  0  0  0
    2.4240    2.8990    0.4710 C   0  0  0  0  0  0  0  0  0  0  0  0
    1.4350    3.8820    0.9970 C   0  0  0  0  0  0  0  0  0  0  0  0
    2.3840    2.1720   -0.6430 N   0  0  0  0  0  0  0  0  0  0  0  0
    1.3290    2.1620   -1.6280 C   0  0  0  0  0  0  0  0  0  0  0  0
    0.2970    1.1390   -1.3290 C   0  0  0  0  0  0  0  0  0  0  0  0
    0.4670   -0.0870   -1.5900 O   0  0  0  0  0  0  0  0  0  0  0  0
   -0.9220    1.5400   -0.7330 N   0  0  0  0  0  0  0  0  0  0  0  0
   -1.9810    0.6110   -0.4020 C   0  0  0  0  0  0  0  0  0  0  0  0
   -3.1510    1.3120    0.1800 C   0  0  0  0  0  0  0  0  0  0  0  0
   -3.0670    2.5770    0.2950 O   0  0  0  0  0  0  0  0  0  0  0  0
   -4.3190    0.6680    0.6010 N   0  0  0  0  0  0  0  0  0  0  0  0
   -5.4200    1.4370    1.1340 C   0  0  0  0  0  0  0  0  0  0  0  0
   -6.6280    1.1030    0.2850 C   0  0  2  0  0  0  0  0  0  0  0  0
   -7.8270    1.9480    0.5800 C   0  0  0  0  0  0  0  0  0  0  0  0
   -6.8630   -0.3780    0.4150 C   0  0  1  0  0  0  0  0  0  0  0  0
   -8.1480   -0.7480   -0.1360 N   0  0  0  0  0  0  0  0  0  0  0  0
   -8.3130   -2.1830   -0.0140 C   0  0  0  0  0  0  0  0  0  0  0  0
   -7.2900   -2.8280   -0.9450 C   0  0  0  0  0  0  0  0  0  0  0  0
   -5.9310   -2.5780   -0.3540 C   0  0  0  0  0  0  0  0  0  0  0  0
   -5.7140   -1.0840   -0.2650 C   0  0  2  0  0  0  0  0  0  0  0  0
   -4.4600   -0.7570    0.5260 C   0  0  0  0  0  0  0  0  0  0  0  0
    3.4930    1.4120   -0.7380 C   0  0  0  0  0  0  0  0  0  0  0  0
    3.8650    0.4440   -1.8240 C   0  0  0  0  0  0  0  0  0  0  0  0
    7.1970   -1.8430    0.2990 C   0  0  0  0  0  0  0  0  0  0  0  0
    5.9190   -2.3910    0.8620 C   0  0  0  0  0  0  0  0  0  0  0  0
    8.2930   -2.6550    0.3240 C   0  0  0  0  0  0  0  0  0  0  0  0
  1  2  1  0
  2  3  2  0
  2 35  1  0
  3  4  1  0
  4  5  2  0
  5  6  1  0
  5 33  1  0
  6  7  2  3
  7  8  1  0
  8  9  1  0
  8 31  2  0
  9 10  2  0
 10 11  1  0
 10 12  1  0
 12 13  1  0
 12 31  1  0
 13 14  1  0
 14 15  2  0
 14 16  1  0
 16 17  1  0
 17 18  1  0
 18 19  2  0
 18 20  1  0
 20 21  1  0
 20 30  1  0
 21 22  1  0
 22 23  1  1
 22 24  1  0
 24 25  1  6
 24 29  1  0
 25 26  1  0
 26 27  1  0
 27 28  1  0
 29 28  1  1
 29 30  1  0
 31 32  1  0
 33 34  1  0
 33 35  2  0
M  CHG  1  25   1
M  END
