
     RDKit          3D

 30 32  0  0  0  0  0  0  0  0999 V2000
   -7.8950    1.5390    0.3230 C   0  0  0  0  0  0  0  0  0  0  0  0
   -6.4670    1.0710    0.1610 C   0  0  0  0  0  0  0  0  0  0  0  0
   -6.2180   -0.1650   -0.2220 C   0  0  0  0  0  0  0  0  0  0  0  0
   -4.9260   -0.7460   -0.4170 C   0  0  0  0  0  0  0  0  0  0  0  0
   -4.8200   -2.1800   -0.8590 C   0  0  0  0  0  0  0  0  0  0  0  0
   -3.7730   -0.1380   -0.2460 C   0  0  0  0  0  0  0  0  0  0  0  0
   -2.5030   -0.8290   -0.4740 C   0  0  0  0  0  0  0  0  0  0  0  0
   -1.6890   -0.1300   -1.5690 C   0  0  0  0  0  0  0  0  0  0  0  0
   -0.4190   -0.9260   -1.7100 C   0  0  0  0  0  0  0  0  0  0  0  0
   -0.1690   -1.9340   -1.0320 O   0  0  0  0  0  0  0  0  0  0  0  0
    0.5120   -0.4800   -2.6670 N   0  0  0  0  0  0  0  0  0  0  0  0
    1.7510   -0.2310   -2.4130 C   0  0  0  0  0  0  0  0  0  0  0  0
    2.6280    0.1910   -3.3260 N   0  0  0  0  0  0  0  0  0  0  0  0
    3.7850    0.3390   -2.7170 N   0  0  0  0  0  0  0  0  0  0  0  0
    3.6540    0.0140   -1.4200 C   0  0  0  0  0  0  0  0  0  0  0  0
    4.7070    0.0480   -0.4200 C   0  0  0  0  0  0  0  0  0  0  0  0
    4.4110   -0.3170    0.8720 C   0  0  0  0  0  0  0  0  0  0  0  0
    5.4400   -0.2760    1.8180 C   0  0  0  0  0  0  0  0  0  0  0  0
    6.7090    0.1110    1.4910 C   0  0  0  0  0  0  0  0  0  0  0  0
    7.7390    0.1580    2.4070 O   0  0  0  0  0  0  0  0  0  0  0  0
    7.5710   -0.1920    3.7720 C   0  0  0  0  0  0  0  0  0  0  0  0
    6.6270    0.6150    4.3870 F   0  0  0  0  0  0  0  0  0  0  0  0
    7.0040    0.4780    0.1890 C   0  0  0  0  0  0  0  0  0  0  0  0
    8.2450    0.8650   -0.1690 F   0  0  0  0  0  0  0  0  0  0  0  0
    5.9770    0.4360   -0.7510 C   0  0  0  0  0  0  0  0  0  0  0  0
    2.3720   -0.3440   -1.2370 N   0  0  0  0  0  0  0  0  0  0  0  0
   -3.7730    1.5290    0.2660 S   0  0  2  0  0  0  0  0  0  0  0  0
   -3.0350    2.4210   -0.6860 O   0  0  0  0  0  0  0  0  0  0  0  0
   -3.0920    1.6400    1.5980 O   0  0  0  0  0  0  0  0  0  0  0  0
   -5.4220    1.9830    0.4270 N   0  0  0  0  0  0  0  0  0  0  0  0
  1  2  1  0
  2  3  2  0
  2 30  1  0
  3  4  1  0
  4  5  1  0
  4  6  2  0
  6  7  1  0
  6 27  1  0
  7  8  1  0
  8  9  1  0
  9 10  2  0
  9 11  1  0
 11 12  2  3
 12 13  1  0
 12 26  1  0
 13 14  1  0
 14 15  2  0
 15 16  1  0
 15 26  1  0
 16 17  2  0
 16 25  1  0
 17 18  1  0
 18 19  2  0
 19 20  1  0
 19 23  1  0
 20 21  1  0
 21 22  1  0
 23 24  1  0
 23 25  2  0
 27 28  2  0
 27 29  2  0
 27 30  1  1
M  END
