
     RDKit          3D

 30 33  0  0  0  0  0  0  0  0999 V2000
   -5.7910    3.1840   -1.4500 C   0  0  0  0  0  0  0  0  0  0  0  0
   -4.6010    2.8510   -0.9900 C   0  0  0  0  0  0  0  0  0  0  0  0
   -4.3730    2.5040    0.4270 C   0  0  0  0  0  0  0  0  0  0  0  0
   -3.8310    1.1390    0.5520 N   0  0  0  0  0  0  0  0  0  0  0  0
   -4.5520    0.0050    0.1600 C   0  0  0  0  0  0  0  0  0  0  0  0
   -5.9340    0.1290    0.1190 C   0  0  0  0  0  0  0  0  0  0  0  0
   -6.7210   -1.0010   -0.1240 C   0  0  0  0  0  0  0  0  0  0  0  0
   -6.1220   -2.2150   -0.3180 C   0  0  0  0  0  0  0  0  0  0  0  0
   -4.7520   -2.3490   -0.2820 C   0  0  0  0  0  0  0  0  0  0  0  0
   -3.9650   -1.2110   -0.0390 C   0  0  0  0  0  0  0  0  0  0  0  0
   -2.5580   -1.6900   -0.0870 C   0  0  0  0  0  0  0  0  0  0  0  0
   -1.4700   -0.9530   -0.0110 C   0  0  0  0  0  0  0  0  0  0  0  0
   -0.1560   -1.5550   -0.0630 C   0  0  0  0  0  0  0  0  0  0  0  0
    0.9420   -0.7970    0.0130 C   0  0  0  0  0  0  0  0  0  0  0  0
    2.3280   -1.2840   -0.0280 C   0  0  0  0  0  0  0  0  0  0  0  0
    3.1860   -0.2700    0.0690 C   0  0  0  0  0  0  0  0  0  0  0  0
    4.6210   -0.4650    0.0570 C   0  0  0  0  0  0  0  0  0  0  0  0
    5.1130   -1.7770    0.0300 C   0  0  0  0  0  0  0  0  0  0  0  0
    6.4700   -2.0660   -0.0030 C   0  0  0  0  0  0  0  0  0  0  0  0
    7.3800   -1.0310   -0.0080 C   0  0  0  0  0  0  0  0  0  0  0  0
    6.9520    0.2730    0.0180 C   0  0  0  0  0  0  0  0  0  0  0  0
    7.9010    1.4060    0.0130 C   0  0  0  0  0  0  0  0  0  0  0  0
    5.5720    0.5110    0.0500 C   0  0  0  0  0  0  0  0  0  0  0  0
    2.4850    0.9480    0.1830 N   0  0  0  0  0  0  0  0  0  0  0  0
    2.9530    2.3090    0.3270 C   0  0  0  0  0  0  0  0  0  0  0  0
    1.0590    0.6310    0.1480 C   0  0  0  0  0  0  0  0  0  0  0  0
    0.1550    1.4780    0.2240 O   0  0  0  0  0  0  0  0  0  0  0  0
   -2.5740   -3.1300   -0.3530 C   0  0  0  0  0  0  0  0  0  0  0  0
   -1.6250   -3.9320   -0.4700 O   0  0  0  0  0  0  0  0  0  0  0  0
   -3.9440   -3.4870   -0.4660 N   0  0  0  0  0  0  0  0  0  0  0  0
  1  2  2  0
  2  3  1  0
  3  4  1  0
  4  5  1  0
  5  6  2  0
  5 10  1  0
  6  7  1  0
  7  8  2  0
  8  9  1  0
  9 10  2  0
  9 30  1  0
 10 11  1  0
 11 12  2  3
 11 28  1  0
 12 13  1  0
 13 14  2  3
 14 15  1  0
 14 26  1  0
 15 16  2  0
 16 17  1  0
 16 24  1  0
 17 18  2  0
 17 23  1  0
 18 19  1  0
 19 20  2  0
 20 21  1  0
 21 22  1  0
 21 23  2  0
 24 25  1  0
 24 26  1  0
 26 27  2  0
 28 29  2  0
 28 30  1  0
M  END
