
     RDKit          3D

 30 33  0  0  0  0  0  0  0  0999 V2000
    5.7530    1.9680    2.6350 C   0  0  0  0  0  0  0  0  0  0  0  0
    6.4900    2.6030    1.4810 C   0  0  0  0  0  0  0  0  0  0  0  0
    5.5090    3.2850    0.5280 C   0  0  0  0  0  0  0  0  0  0  0  0
    4.5450    2.2590   -0.0130 C   0  0  0  0  0  0  0  0  0  0  0  0
    3.3030    2.0840    0.3490 O   0  0  0  0  0  0  0  0  0  0  0  0
    2.7370    1.0980   -0.3220 C   0  0  0  0  0  0  0  0  0  0  0  0
    1.4890    0.5320   -0.3180 C   0  0  0  0  0  0  0  0  0  0  0  0
    1.1210   -0.5390   -1.1510 C   0  0  0  0  0  0  0  0  0  0  0  0
   -0.2040   -0.9970   -1.0300 N   0  0  0  0  0  0  0  0  0  0  0  0
   -0.7480   -2.1740   -1.5580 C   0  0  0  0  0  0  0  0  0  0  0  0
   -0.0190   -2.9380   -2.2110 O   0  0  0  0  0  0  0  0  0  0  0  0
   -2.1520   -2.5890   -1.3960 C   0  0  0  0  0  0  0  0  0  0  0  0
   -3.0550   -1.9050   -0.7420 C   0  0  0  0  0  0  0  0  0  0  0  0
   -4.4180   -2.3790   -0.6250 C   0  0  0  0  0  0  0  0  0  0  0  0
   -4.8790   -3.5420   -1.2140 C   0  0  0  0  0  0  0  0  0  0  0  0
   -6.2160   -3.9410   -1.0860 C   0  0  0  0  0  0  0  0  0  0  0  0
   -7.0860   -3.1570   -0.3580 C   0  0  0  0  0  0  0  0  0  0  0  0
   -6.6600   -1.9920    0.2430 C   0  0  0  0  0  0  0  0  0  0  0  0
   -5.3210   -1.6120    0.1030 C   0  0  0  0  0  0  0  0  0  0  0  0
   -4.8630   -0.4040    0.7760 C   0  0  0  0  0  0  0  0  0  0  0  0
   -5.5640    0.6720    0.5380 N   0  0  0  0  0  0  0  0  0  0  0  0
   -5.2090    1.9140    1.1370 C   0  0  0  0  0  0  0  0  0  0  0  0
   -4.1780    2.0670    1.9500 C   0  0  0  0  0  0  0  0  0  0  0  0
   -3.3150    0.9040    2.2800 C   0  0  0  0  0  0  0  0  0  0  0  0
   -3.7960   -0.3140    1.6790 N   0  0  0  0  0  0  0  0  0  0  0  0
    2.0500   -1.0550   -2.0190 C   0  0  0  0  0  0  0  0  0  0  0  0
    3.3190   -0.4770   -2.0200 C   0  0  0  0  0  0  0  0  0  0  0  0
    3.6660    0.5740   -1.1970 C   0  0  0  0  0  0  0  0  0  0  0  0
    4.8060    1.3210   -0.9880 C   0  0  0  0  0  0  0  0  0  0  0  0
    6.0830    1.1140   -1.7180 C   0  0  0  0  0  0  0  0  0  0  0  0
  1  2  1  0
  2  3  1  0
  3  4  1  0
  4  5  1  0
  4 29  2  0
  5  6  1  0
  6  7  2  0
  6 28  1  0
  7  8  1  0
  8  9  1  0
  8 26  2  0
  9 10  1  0
 10 11  2  0
 10 12  1  0
 12 13  2  3
 13 14  1  0
 14 15  2  0
 14 19  1  0
 15 16  1  0
 16 17  2  0
 17 18  1  0
 18 19  2  0
 19 20  1  0
 20 21  2  0
 20 25  1  0
 21 22  1  0
 22 23  2  0
 23 24  1  0
 24 25  1  0
 26 27  1  0
 27 28  2  0
 28 29  1  0
 29 30  1  0
M  END
