
     RDKit          3D

 31 34  0  0  0  0  0  0  0  0999 V2000
    6.0740    0.8480    0.9760 C   0  0  0  0  0  0  0  0  0  0  0  0
    5.5570    0.8830   -0.3150 O   0  0  0  0  0  0  0  0  0  0  0  0
    4.9510    2.0760   -0.5980 C   0  0  0  0  0  0  0  0  0  0  0  0
    3.8060    2.5020    0.2280 C   0  0  0  0  0  0  0  0  0  0  0  0
    2.5280    1.8170    0.2740 C   0  0  0  0  0  0  0  0  0  0  0  0
    2.3860    0.3800    0.6700 C   0  0  1  0  0  0  0  0  0  0  0  0
    0.9790    0.1590    0.6850 O   0  0  0  0  0  0  0  0  0  0  0  0
    0.8030   -1.1610    0.3620 C   0  0  1  0  0  0  0  0  0  0  0  0
   -0.5880   -1.4630    0.1370 N   0  0  0  0  0  0  0  0  0  0  0  0
   -1.4830   -0.7020   -0.5260 C   0  0  0  0  0  0  0  0  0  0  0  0
   -1.2040    0.5530   -1.1300 N   0  0  0  0  0  0  0  0  0  0  0  0
   -2.2520    1.2840   -1.8180 C   0  0  0  0  0  0  0  0  0  0  0  0
   -3.3900    1.6320   -0.9300 C   0  0  0  0  0  0  0  0  0  0  0  0
   -4.5790    0.9380   -0.9230 C   0  0  0  0  0  0  0  0  0  0  0  0
   -5.5970    1.3140   -0.0670 C   0  0  0  0  0  0  0  0  0  0  0  0
   -5.4390    2.3870    0.7910 C   0  0  0  0  0  0  0  0  0  0  0  0
   -6.7240    2.8630    1.8720 Cl  0  0  0  0  0  0  0  0  0  0  0  0
   -4.2440    3.0700    0.7710 C   0  0  0  0  0  0  0  0  0  0  0  0
   -3.2210    2.7080   -0.0750 C   0  0  0  0  0  0  0  0  0  0  0  0
   -2.6420   -1.3790   -0.4820 N   0  0  0  0  0  0  0  0  0  0  0  0
   -2.4900   -2.5320    0.1870 C   0  0  0  0  0  0  0  0  0  0  0  0
   -3.3450   -3.5570    0.5040 C   0  0  0  0  0  0  0  0  0  0  0  0
   -4.6820   -3.4670    0.0820 N   0  0  0  0  0  0  0  0  0  0  0  0
   -2.8640   -4.6120    1.2110 N   0  0  0  0  0  0  0  0  0  0  0  0
   -1.5750   -4.6570    1.5950 C   0  0  0  0  0  0  0  0  0  0  0  0
   -0.7190   -3.6630    1.2950 N   0  0  0  0  0  0  0  0  0  0  0  0
   -1.1740   -2.5970    0.5890 C   0  0  0  0  0  0  0  0  0  0  0  0
    1.6600   -1.2960   -0.8600 C   0  0  2  0  0  0  0  0  0  0  0  0
    1.9920   -2.6130   -1.1480 O   0  0  0  0  0  0  0  0  0  0  0  0
    2.9150   -0.5220   -0.3930 C   0  0  2  0  0  0  0  0  0  0  0  0
    3.8370   -1.4670    0.1000 O   0  0  0  0  0  0  0  0  0  0  0  0
  1  2  1  0
  2  3  1  0
  3  4  1  0
  4  5  1  0
  6  5  1  6
  6  7  1  0
  6 30  1  0
  7  8  1  0
  8  9  1  6
  8 28  1  0
  9 10  1  0
  9 27  1  0
 10 11  1  0
 10 20  2  0
 11 12  1  0
 12 13  1  0
 13 14  2  0
 13 19  1  0
 14 15  1  0
 15 16  2  0
 16 17  1  0
 16 18  1  0
 18 19  2  0
 20 21  1  0
 21 22  2  0
 21 27  1  0
 22 23  1  0
 22 24  1  0
 24 25  2  0
 25 26  1  0
 26 27  2  0
 28 29  1  1
 28 30  1  0
 30 31  1  1
M  END
