
     RDKit          3D

 30 33  0  0  0  0  0  0  0  0999 V2000
   -1.7280    4.4470    0.6930 C   0  0  0  0  0  0  0  0  0  0  0  0
   -2.3370    3.6220   -0.0710 C   0  0  0  0  0  0  0  0  0  0  0  0
   -2.2040    2.2390   -0.4180 C   0  0  0  0  0  0  0  0  0  0  0  0
   -3.1280    1.7680   -1.2940 C   0  0  0  0  0  0  0  0  0  0  0  0
   -3.1860    0.4040   -1.7870 C   0  0  0  0  0  0  0  0  0  0  0  0
   -1.2120    1.3380    0.1100 C   0  0  0  0  0  0  0  0  0  0  0  0
   -0.0980    1.6200    0.8410 C   0  0  0  0  0  0  0  0  0  0  0  0
    0.7570    0.6180    1.3380 C   0  0  0  0  0  0  0  0  0  0  0  0
    1.9230    1.0170    2.1060 C   0  0  0  0  0  0  0  0  0  0  0  0
    1.8540    1.6650    3.3180 C   0  0  0  0  0  0  0  0  0  0  0  0
    2.9660    2.0350    4.0440 C   0  0  0  0  0  0  0  0  0  0  0  0
    4.1980    1.7470    3.5390 C   0  0  0  0  0  0  0  0  0  0  0  0
    4.3330    1.1040    2.3390 C   0  0  0  0  0  0  0  0  0  0  0  0
    3.2110    0.7400    1.6240 C   0  0  0  0  0  0  0  0  0  0  0  0
    3.3080    0.0610    0.3410 C   0  0  0  0  0  0  0  0  0  0  0  0
    2.8630    0.5890   -0.8490 C   0  0  0  0  0  0  0  0  0  0  0  0
    3.1290   -0.3530   -1.8490 C   0  0  0  0  0  0  0  0  0  0  0  0
    3.7250   -1.3980   -1.1820 C   0  0  0  0  0  0  0  0  0  0  0  0
    4.1970   -2.6360   -1.7770 C   0  0  0  0  0  0  0  0  0  0  0  0
    4.0890   -2.8580   -3.0120 O   0  0  0  0  0  0  0  0  0  0  0  0
    3.8020   -1.1010    0.0840 O   0  0  0  0  0  0  0  0  0  0  0  0
    0.4360   -0.6440    1.0630 N   0  0  0  0  0  0  0  0  0  0  0  0
   -0.6530   -0.9820    0.3440 C   0  0  0  0  0  0  0  0  0  0  0  0
   -0.9220   -2.3520    0.0990 N   0  0  0  0  0  0  0  0  0  0  0  0
   -2.0260   -2.8480   -0.6360 C   0  0  0  0  0  0  0  0  0  0  0  0
   -3.2660   -3.0890   -0.2050 C   0  0  0  0  0  0  0  0  0  0  0  0
   -4.1050   -3.6030   -1.3070 C   0  0  0  0  0  0  0  0  0  0  0  0
   -3.1550   -3.6250   -2.4550 C   0  0  0  0  0  0  0  0  0  0  0  0
   -1.9710   -3.1900   -2.0490 C   0  0  0  0  0  0  0  0  0  0  0  0
   -1.4290    0.0020   -0.1020 N   0  0  0  0  0  0  0  0  0  0  0  0
  1  2  2  0
  2  3  1  0
  3  4  2  3
  3  6  1  0
  4  5  1  0
  6  7  2  0
  6 30  1  0
  7  8  1  0
  8  9  1  0
  8 22  2  0
  9 10  2  0
  9 14  1  0
 10 11  1  0
 11 12  2  0
 12 13  1  0
 13 14  2  0
 14 15  1  0
 15 16  2  0
 15 21  1  0
 16 17  1  0
 17 18  2  0
 18 19  1  0
 18 21  1  0
 19 20  2  0
 22 23  1  0
 23 24  1  0
 23 30  2  0
 24 25  1  0
 25 26  2  0
 25 29  1  0
 26 27  1  0
 27 28  1  0
 28 29  2  0
M  END
