
     RDKit          3D

 30 33  0  0  0  0  0  0  0  0999 V2000
    6.8080    0.2180    0.6200 C   0  0  0  0  0  0  0  0  0  0  0  0
    5.6760    0.5100    1.5870 C   0  0  0  0  0  0  0  0  0  0  0  0
    4.4990    1.0510    0.8170 C   0  0  0  0  0  0  0  0  0  0  0  0
    4.3710    2.4010    0.5890 C   0  0  0  0  0  0  0  0  0  0  0  0
    3.3030    2.8880   -0.1090 C   0  0  0  0  0  0  0  0  0  0  0  0
    2.3340    2.0220   -0.5970 C   0  0  0  0  0  0  0  0  0  0  0  0
    2.4320    0.6620   -0.3860 C   0  0  0  0  0  0  0  0  0  0  0  0
    1.3620   -0.2730   -0.9270 C   0  0  0  0  0  0  0  0  0  0  0  0
    0.2440   -0.3120   -0.0510 N   0  0  0  0  0  0  0  0  0  0  0  0
   -1.0860   -0.7210   -0.3000 C   0  0  0  0  0  0  0  0  0  0  0  0
   -2.0160    0.1130    0.1440 C   0  0  0  0  0  0  0  0  0  0  0  0
   -1.7620    1.3680    0.8530 C   0  0  0  0  0  0  0  0  0  0  0  0
   -1.1440    1.5170    2.0430 C   0  0  0  0  0  0  0  0  0  0  0  0
   -0.9250    2.7870    2.5880 C   0  0  0  0  0  0  0  0  0  0  0  0
   -1.3390    3.9050    1.9180 C   0  0  0  0  0  0  0  0  0  0  0  0
   -1.9690    3.7820    0.7130 C   0  0  0  0  0  0  0  0  0  0  0  0
   -2.1750    2.5370    0.1920 C   0  0  0  0  0  0  0  0  0  0  0  0
   -2.8240    2.7220   -1.0180 O   0  0  0  0  0  0  0  0  0  0  0  0
   -3.0290    4.0720   -1.3080 C   0  0  0  0  0  0  0  0  0  0  0  0
   -2.4870    4.7600   -0.1660 N   0  0  0  0  0  0  0  0  0  0  0  0
   -1.4880   -1.9800   -0.9040 C   0  0  0  0  0  0  0  0  0  0  0  0
   -0.6030   -2.6870   -1.6890 C   0  0  0  0  0  0  0  0  0  0  0  0
   -0.9820   -3.9160   -2.1830 C   0  0  0  0  0  0  0  0  0  0  0  0
   -2.2310   -4.4220   -1.8920 C   0  0  0  0  0  0  0  0  0  0  0  0
   -3.1120   -3.7630   -1.1350 N   0  0  0  0  0  0  0  0  0  0  0  0
   -4.4250   -4.3320   -0.8520 C   0  0  0  0  0  0  0  0  0  0  0  0
   -4.3580   -5.1600    0.4130 C   0  0  0  0  0  0  0  0  0  0  0  0
   -2.7380   -2.5440   -0.6420 C   0  0  0  0  0  0  0  0  0  0  0  0
   -3.6190   -2.0000    0.0600 O   0  0  0  0  0  0  0  0  0  0  0  0
    3.5210    0.2120    0.3210 C   0  0  0  0  0  0  0  0  0  0  0  0
  1  2  1  0
  2  3  1  0
  3  4  2  0
  3 30  1  0
  4  5  1  0
  5  6  2  0
  6  7  1  0
  7  8  1  0
  7 30  2  0
  8  9  1  0
  9 10  1  0
 10 11  2  3
 10 21  1  0
 11 12  1  0
 12 13  2  0
 12 17  1  0
 13 14  1  0
 14 15  2  0
 15 16  1  0
 16 17  2  0
 16 20  1  0
 17 18  1  0
 18 19  1  0
 19 20  1  0
 21 22  2  0
 21 28  1  0
 22 23  1  0
 23 24  2  0
 24 25  1  0
 25 26  1  0
 25 28  1  0
 26 27  1  0
 28 29  2  0
M  END
