
     RDKit          3D

 30 33  0  0  0  0  0  0  0  0999 V2000
    3.5230    1.1910   -4.0040 C   0  0  0  0  0  0  0  0  0  0  0  0
    3.1430    0.2510   -3.1550 C   0  0  0  0  0  0  0  0  0  0  0  0
    4.1490   -0.5510   -2.4530 C   0  0  0  0  0  0  0  0  0  0  0  0
    4.0770   -0.4370   -1.0480 O   0  0  0  0  0  0  0  0  0  0  0  0
    2.9640   -0.7790   -0.3060 C   0  0  0  0  0  0  0  0  0  0  0  0
    1.9630   -1.2170   -0.9300 O   0  0  0  0  0  0  0  0  0  0  0  0
    2.9470   -0.6350    1.1940 C   0  0  2  0  0  0  0  0  0  0  0  0
    4.1290   -1.3790    1.7120 C   0  0  0  0  0  0  0  0  0  0  0  0
    3.8420   -2.8530    1.9370 C   0  0  0  0  0  0  0  0  0  0  0  0
    2.7610   -2.8930    2.9040 N   0  0  0  0  0  0  0  0  0  0  0  0
    1.5940   -2.1420    2.6000 C   0  0  0  0  0  0  0  0  0  0  0  0
    0.2960   -2.2860    2.9860 N   0  0  0  0  0  0  0  0  0  0  0  0
   -0.4610   -1.3220    2.4360 C   0  0  0  0  0  0  0  0  0  0  0  0
   -1.9280   -1.1080    2.5940 C   0  0  0  0  0  0  0  0  0  0  0  0
    0.3980   -0.5450    1.6760 C   0  0  0  0  0  0  0  0  0  0  0  0
    0.0510    0.6280    0.8830 C   0  0  0  0  0  0  0  0  0  0  0  0
   -1.1800    1.0100    0.8650 N   0  0  0  0  0  0  0  0  0  0  0  0
   -1.6270    2.1390    0.1250 C   0  0  0  0  0  0  0  0  0  0  0  0
   -0.8890    3.2930    0.1150 C   0  0  0  0  0  0  0  0  0  0  0  0
   -1.3260    4.3850   -0.6030 C   0  0  0  0  0  0  0  0  0  0  0  0
   -2.4990    4.3450   -1.3200 C   0  0  0  0  0  0  0  0  0  0  0  0
   -3.2220    3.1820   -1.2980 C   0  0  0  0  0  0  0  0  0  0  0  0
   -2.7960    2.0720   -0.5780 C   0  0  0  0  0  0  0  0  0  0  0  0
   -3.6290    0.8810   -0.6120 C   0  0  0  0  0  0  0  0  0  0  0  0
   -4.9780    0.9960   -0.4580 C   0  0  0  0  0  0  0  0  0  0  0  0
   -5.7670   -0.1310   -0.4910 C   0  0  0  0  0  0  0  0  0  0  0  0
   -5.2200   -1.3780   -0.6760 C   0  0  0  0  0  0  0  0  0  0  0  0
   -3.8650   -1.5050   -0.8320 C   0  0  0  0  0  0  0  0  0  0  0  0
   -3.0680   -0.3490   -0.7970 C   0  0  0  0  0  0  0  0  0  0  0  0
    1.6810   -1.0500    1.7740 C   0  0  0  0  0  0  0  0  0  0  0  0
  1  2  2  0
  2  3  1  0
  3  4  1  0
  4  5  1  0
  5  6  2  0
  7  5  1  6
  7  8  1  0
  7 30  1  0
  8  9  1  0
  9 10  1  0
 10 11  1  0
 11 12  1  0
 11 30  2  0
 12 13  1  0
 13 14  1  0
 13 15  2  0
 15 16  1  0
 15 30  1  0
 16 17  2  3
 17 18  1  0
 18 19  2  0
 18 23  1  0
 19 20  1  0
 20 21  2  0
 21 22  1  0
 22 23  2  0
 23 24  1  0
 24 25  2  0
 24 29  1  0
 25 26  1  0
 26 27  2  0
 27 28  1  0
 28 29  2  0
M  END
