
     RDKit          3D

 30 33  0  0  0  0  0  0  0  0999 V2000
   -7.3510   -0.9090   -0.8920 C   0  0  0  0  0  0  0  0  0  0  0  0
   -5.9200   -0.9580   -0.5330 C   0  0  0  0  0  0  0  0  0  0  0  0
   -5.2480    0.0730    0.0700 C   0  0  0  0  0  0  0  0  0  0  0  0
   -3.9070   -0.0060    0.3970 C   0  0  0  0  0  0  0  0  0  0  0  0
   -3.1560   -1.1360    0.1360 C   0  0  0  0  0  0  0  0  0  0  0  0
   -1.7510   -1.2830    0.4870 C   0  0  0  0  0  0  0  0  0  0  0  0
   -1.2380   -2.4190    0.3400 O   0  0  0  0  0  0  0  0  0  0  0  0
   -0.9160   -0.1940    0.9860 C   0  0  0  0  0  0  0  0  0  0  0  0
   -1.0420    0.4950    2.1670 C   0  0  0  0  0  0  0  0  0  0  0  0
   -2.0430    0.2590    3.2680 C   0  0  0  0  0  0  0  0  0  0  0  0
   -0.0760    1.4300    2.1680 N   0  0  0  0  0  0  0  0  0  0  0  0
    0.6500    1.3490    1.0350 N   0  0  0  0  0  0  0  0  0  0  0  0
    1.7590    2.1960    0.8450 C   0  0  0  0  0  0  0  0  0  0  0  0
    2.8820    2.0810    1.6960 C   0  0  0  0  0  0  0  0  0  0  0  0
    3.9810    2.9110    1.5600 C   0  0  0  0  0  0  0  0  0  0  0  0
    4.0280    3.8840    0.5890 C   0  0  0  0  0  0  0  0  0  0  0  0
    2.9380    3.9980   -0.2450 C   0  0  0  0  0  0  0  0  0  0  0  0
    1.8270    3.1660   -0.1110 C   0  0  0  0  0  0  0  0  0  0  0  0
    0.1800    0.3690    0.2700 C   0  0  0  0  0  0  0  0  0  0  0  0
    0.6300   -0.1980   -1.0140 C   0  0  0  0  0  0  0  0  0  0  0  0
    1.8490   -1.0550   -0.9440 C   0  0  0  0  0  0  0  0  0  0  0  0
    2.0490   -2.3420   -0.5540 C   0  0  0  0  0  0  0  0  0  0  0  0
    3.3620   -2.6260   -0.6040 N   0  0  0  0  0  0  0  0  0  0  0  0
    4.0420   -1.5600   -1.0220 C   0  0  0  0  0  0  0  0  0  0  0  0
    5.5330   -1.4810   -1.2220 C   0  0  0  0  0  0  0  0  0  0  0  0
    3.1300   -0.5710   -1.2420 C   0  0  0  0  0  0  0  0  0  0  0  0
    3.4980    0.7460   -1.7990 C   0  0  0  0  0  0  0  0  0  0  0  0
   -3.8270   -2.2080   -0.4810 C   0  0  0  0  0  0  0  0  0  0  0  0
   -3.0840   -3.3500   -0.7470 O   0  0  0  0  0  0  0  0  0  0  0  0
   -5.1550   -2.0900   -0.7900 C   0  0  0  0  0  0  0  0  0  0  0  0
  1  2  1  0
  2  3  2  0
  2 30  1  0
  3  4  1  0
  4  5  2  0
  5  6  1  0
  5 28  1  0
  6  7  2  0
  6  8  1  0
  8  9  1  0
  8 19  2  0
  9 10  1  0
  9 11  2  0
 11 12  1  0
 12 13  1  0
 12 19  1  0
 13 14  2  0
 13 18  1  0
 14 15  1  0
 15 16  2  0
 16 17  1  0
 17 18  2  0
 19 20  1  0
 20 21  1  0
 21 22  2  0
 21 26  1  0
 22 23  1  0
 23 24  1  0
 24 25  1  0
 24 26  2  0
 26 27  1  0
 28 29  1  0
 28 30  2  0
M  END
