
     RDKit          3D

 15 15  0  0  0  0  0  0  0  0999 V2000
   -2.4890   -1.6480   -0.3150 C   0  0  0  0  0  0  0  0  0  0  0  0
   -1.3230   -0.7590   -0.6000 C   0  0  2  0  0  0  0  0  0  0  0  0
   -0.0830   -1.3490   -0.2530 O   0  0  0  0  0  0  0  0  0  0  0  0
    0.8470   -0.2910   -0.1860 C   0  0  0  0  0  0  0  0  0  0  0  0
    2.1260   -0.4490   -0.2300 N   0  0  0  0  0  0  0  0  0  0  0  0
    2.6790   -1.7320   -0.3520 N   0  0  0  0  0  0  0  0  0  0  0  0
    0.0480    0.9320   -0.0640 C   0  0  2  0  0  0  0  0  0  0  0  0
    0.0040    1.6500   -1.2560 O   0  0  0  0  0  0  0  0  0  0  0  0
    0.5290    1.8750    1.0090 C   0  0  1  0  0  0  0  0  0  0  0  0
   -0.5020    3.2930    1.1360 Cl  0  0  0  0  0  0  0  0  0  0  0  0
    0.6760    1.0540    2.5870 Cl  0  0  0  0  0  0  0  0  0  0  0  0
    1.8130    2.2840    0.6570 O   0  0  0  0  0  0  0  0  0  0  0  0
    1.8080    3.0900   -0.8600 Cl  0  0  0  0  0  0  0  0  0  0  0  0
   -1.2900    0.4410    0.1860 N   0  0  0  0  0  0  0  0  0  0  0  0
   -1.5940    0.2950    1.4600 O   0  0  0  0  0  0  0  0  0  0  0  0
  2  1  1  1
  2  3  1  0
  2 14  1  0
  3  4  1  0
  4  5  2  3
  4  7  1  0
  5  6  1  0
  7  8  1  6
  7  9  1  0
  7 14  1  0
  9 10  1  1
  9 11  1  0
  9 12  1  0
 12 13  1  0
 14 15  1  0
M  CHG  1   5   1
M  END
