
     RDKit          3D

 15 15  0  0  0  0  0  0  0  0999 V2000
    2.0440   -0.0740   -0.2310 C   0  0  0  0  0  0  0  0  0  0  0  0
    0.7560   -0.1520    0.5200 C   0  0  1  0  0  0  0  0  0  0  0  0
    0.6230   -1.3770    1.2000 O   0  0  0  0  0  0  0  0  0  0  0  0
    0.6150    0.8890    1.4600 O   0  0  0  0  0  0  0  0  0  0  0  0
    1.5650    0.8740    2.3490 O   0  0  0  0  0  0  0  0  0  0  0  0
   -0.4420   -0.0440   -0.4050 C   0  0  2  0  0  0  0  0  0  0  0  0
   -0.5040   -1.1110   -1.3510 N   0  0  0  0  0  0  0  0  0  0  0  0
   -0.5250    1.2710   -0.9920 N   0  0  0  0  0  0  0  0  0  0  0  0
    0.7580    2.2090   -1.7290 Cl  0  0  0  0  0  0  0  0  0  0  0  0
   -1.8730    1.7090   -0.8740 C   0  0  0  0  0  0  0  0  0  0  0  0
   -2.5300    3.1200   -1.7260 Cl  0  0  0  0  0  0  0  0  0  0  0  0
   -2.5580    0.9620   -0.0780 N   0  0  0  0  0  0  0  0  0  0  0  0
   -1.7080   -0.0880    0.4350 C   0  0  2  0  0  0  0  0  0  0  0  0
   -1.4400    0.0390    1.7870 O   0  0  0  0  0  0  0  0  0  0  0  0
   -2.5820   -1.6340    0.1640 Cl  0  0  0  0  0  0  0  0  0  0  0  0
  2  1  1  6
  2  3  1  0
  2  4  1  0
  2  6  1  0
  4  5  1  0
  6  7  1  6
  6  8  1  0
  6 13  1  0
  8  9  1  0
  8 10  1  0
 10 11  1  0
 10 12  2  0
 12 13  1  0
 13 14  1  1
 13 15  1  0
M  CHG  1   7   1
M  END
