
     RDKit          3D

 15 15  0  0  0  0  0  0  0  0999 V2000
   -1.1930    0.0880    2.4540 N   0  0  0  0  0  0  0  0  0  0  0  0
   -0.4340    0.1810    1.4120 N   0  0  0  0  0  0  0  0  0  0  0  0
    0.8510    0.7080    1.3630 N   0  0  0  0  0  0  0  0  0  0  0  0
    1.3800    0.6340    0.0280 C   0  0  1  0  0  0  0  0  0  0  0  0
    1.7100    1.8830   -0.4870 O   0  0  0  0  0  0  0  0  0  0  0  0
    2.5800   -0.2180    0.0760 C   0  0  0  0  0  0  0  0  0  0  0  0
    2.5620   -1.3630    0.4870 O   0  0  0  0  0  0  0  0  0  0  0  0
    0.2710   -0.0000   -0.7300 C   0  0  0  0  0  0  0  0  0  0  0  0
    0.3920   -0.2550   -2.0920 O   0  0  0  0  0  0  0  0  0  0  0  0
   -0.7420   -0.2430    0.0820 C   0  0  0  0  0  0  0  0  0  0  0  0
   -2.0310   -0.8820   -0.2940 C   0  0  2  0  0  0  0  0  0  0  0  0
   -3.3640    0.1270    0.3350 Cl  0  0  0  0  0  0  0  0  0  0  0  0
   -2.0910   -2.5130    0.3540 Cl  0  0  0  0  0  0  0  0  0  0  0  0
   -2.1600   -0.8940   -1.6900 O   0  0  0  0  0  0  0  0  0  0  0  0
   -2.1790    0.7480   -2.2170 Cl  0  0  0  0  0  0  0  0  0  0  0  0
  1  2  2  0
  2  3  1  0
  2 10  1  0
  3  4  1  0
  4  5  1  6
  4  6  1  0
  4  8  1  0
  6  7  2  0
  8  9  1  0
  8 10  2  0
 10 11  1  0
 11 12  1  1
 11 13  1  0
 11 14  1  0
 14 15  1  0
M  CHG  1   2   1
M  END
