
     RDKit          3D

 15 15  0  0  0  0  0  0  0  0999 V2000
   -1.2920    0.0970   -1.6710 C   0  0  0  0  0  0  0  0  0  0  0  0
   -0.5500   -0.2020   -0.3630 C   0  0  1  0  0  0  0  0  0  0  0  0
   -1.6080   -0.5500    0.6510 C   0  0  0  0  0  0  0  0  0  0  0  0
   -1.0240   -1.0530    1.8130 O   0  0  0  0  0  0  0  0  0  0  0  0
    0.1680   -1.4370   -0.6450 N   0  0  0  0  0  0  0  0  0  0  0  0
    1.0910   -1.7230    0.2840 O   0  0  0  0  0  0  0  0  0  0  0  0
    2.0680   -0.7790    0.3850 C   0  0  1  0  0  0  0  0  0  0  0  0
    2.6870   -0.9210    1.6470 O   0  0  0  0  0  0  0  0  0  0  0  0
    3.0310   -0.8420   -0.6150 O   0  0  0  0  0  0  0  0  0  0  0  0
    1.4970    0.5290    0.3480 N   0  0  0  0  0  0  0  0  0  0  0  0
    0.3330    0.8100    0.0180 N   0  0  0  0  0  0  0  0  0  0  0  0
   -0.0050    2.2060    0.0620 C   0  0  2  0  0  0  0  0  0  0  0  0
   -1.3420    2.5400    1.1810 Cl  0  0  0  0  0  0  0  0  0  0  0  0
   -0.3970    2.8080   -1.5870 Cl  0  0  0  0  0  0  0  0  0  0  0  0
    1.3510    3.2120    0.6260 Cl  0  0  0  0  0  0  0  0  0  0  0  0
  2  1  1  6
  2  3  1  0
  2  5  1  0
  2 11  1  0
  3  4  1  0
  5  6  1  0
  6  7  1  0
  7  8  1  1
  7  9  1  0
  7 10  1  0
 10 11  2  0
 11 12  1  0
 12 13  1  1
 12 14  1  0
 12 15  1  0
M  CHG  1  11   1
M  END
