
     RDKit          3D

 23 25  0  0  0  0  0  0  0  0999 V2000
   -5.3450    3.2160   -0.3540 Br  0  0  0  0  0  0  0  0  0  0  0  0
   -5.3980    1.5660    0.6600 C   0  0  0  0  0  0  0  0  0  0  0  0
   -5.3340    0.4730   -0.2560 N   0  0  0  0  0  0  0  0  0  0  0  0
   -5.3690   -0.8160    0.3700 C   0  0  0  0  0  0  0  0  0  0  0  0
   -3.9570   -1.2230    0.8100 C   0  0  0  0  0  0  0  0  0  0  0  0
   -3.1560   -1.6600   -0.3770 C   0  0  0  0  0  0  0  0  0  0  0  0
   -2.2710   -0.6500   -0.9030 N   0  0  2  0  0  0  0  0  0  0  0  0
   -1.0000   -0.5870   -0.2800 C   0  0  1  0  0  0  0  0  0  0  0  0
   -0.9600   -0.9370    1.1800 C   0  0  0  0  0  0  0  0  0  0  0  0
    0.4490   -1.4180    1.5440 C   0  0  0  0  0  0  0  0  0  0  0  0
    1.3910   -0.5080    0.7290 C   0  0  0  0  0  0  0  0  0  0  0  0
    1.3940   -1.0020   -0.5950 N   0  0  0  0  0  0  0  0  0  0  0  0
    2.1670   -0.3430   -1.5810 C   0  0  0  0  0  0  0  0  0  0  0  0
    3.6280   -0.4580   -1.3510 C   0  0  0  0  0  0  0  0  0  0  0  0
    4.0530    0.2220   -0.1040 N   0  0  0  0  0  0  0  0  0  0  0  0
    5.4270   -0.0930    0.1590 C   0  0  0  0  0  0  0  0  0  0  0  0
    6.3670    1.0100    0.3930 C   0  0  0  0  0  0  0  0  0  0  0  0
    6.0580    2.1760   -0.3180 O   0  0  0  0  0  0  0  0  0  0  0  0
    4.8290    2.5720    0.2050 C   0  0  0  0  0  0  0  0  0  0  0  0
    3.7810    1.6270   -0.2370 C   0  0  0  0  0  0  0  0  0  0  0  0
    0.0550   -1.3470   -1.0690 C   0  0  0  0  0  0  0  0  0  0  0  0
   -2.9450    0.6590   -0.8100 C   0  0  0  0  0  0  0  0  0  0  0  0
   -4.3480    0.6020   -1.2900 C   0  0  0  0  0  0  0  0  0  0  0  0
  1  2  1  0
  2  3  1  0
  3  4  1  0
  3 23  1  0
  4  5  1  0
  5  6  1  0
  7  6  1  1
  7  8  1  0
  7 22  1  0
  8  9  1  1
  8 21  1  0
  9 10  1  0
 10 11  1  0
 11 12  1  0
 12 13  1  0
 12 21  1  0
 13 14  1  0
 14 15  1  0
 15 16  1  0
 15 20  1  0
 16 17  1  0
 17 18  1  0
 18 19  1  0
 19 20  1  0
 22 23  1  0
M  CHG  1   7   1
M  END
