
     RDKit          3D

 23 25  0  0  0  0  0  0  0  0999 V2000
   -5.8990    0.7610    1.2870 C   0  0  0  0  0  0  0  0  0  0  0  0
   -6.2120    0.5680   -0.1560 C   0  0  0  0  0  0  0  0  0  0  0  0
   -8.0080    0.5570   -0.7590 Br  0  0  0  0  0  0  0  0  0  0  0  0
   -5.2230    0.4060   -0.9970 C   0  0  0  0  0  0  0  0  0  0  0  0
   -3.8750    0.4090   -0.5820 N   0  0  0  0  0  0  0  0  0  0  0  0
   -3.0780    1.5830   -0.3440 C   0  0  0  0  0  0  0  0  0  0  0  0
   -1.7680    1.2190   -1.0200 C   0  0  0  0  0  0  0  0  0  0  0  0
   -1.6890   -0.2590   -0.8210 C   0  0  2  0  0  0  0  0  0  0  0  0
   -3.0370   -0.7340   -0.3190 C   0  0  1  0  0  0  0  0  0  0  0  0
   -2.8570   -0.9870    1.1620 C   0  0  0  0  0  0  0  0  0  0  0  0
   -1.3730   -1.2500    1.3060 C   0  0  0  0  0  0  0  0  0  0  0  0
   -0.7310   -0.6010    0.2000 N   0  0  0  0  0  0  0  0  0  0  0  0
    0.6600   -0.3230    0.1020 C   0  0  0  0  0  0  0  0  0  0  0  0
    1.1440    0.2580   -0.9200 O   0  0  0  0  0  0  0  0  0  0  0  0
    1.5720   -0.6800    1.1370 N   0  0  0  0  0  0  0  0  0  0  0  0
    2.9910   -0.4160    1.0710 C   0  0  0  0  0  0  0  0  0  0  0  0
    3.6700   -1.0950   -0.0980 C   0  0  0  0  0  0  0  0  0  0  0  0
    5.1080   -0.7770   -0.0880 C   0  0  0  0  0  0  0  0  0  0  0  0
    6.0990   -1.6340    0.0020 C   0  0  0  0  0  0  0  0  0  0  0  0
    7.3260   -0.8350   -0.0310 C   0  0  0  0  0  0  0  0  0  0  0  0
    6.9390    0.3680    0.0000 N   0  0  0  0  0  0  0  0  0  0  0  0
    5.6920    0.5440   -0.1780 C   0  0  0  0  0  0  0  0  0  0  0  0
    5.0110    1.8280   -0.4220 C   0  0  0  0  0  0  0  0  0  0  0  0
  1  2  1  0
  2  3  1  0
  2  4  2  3
  4  5  1  0
  5  6  1  0
  5  9  1  0
  6  7  1  0
  8  7  1  1
  8  9  1  0
  8 12  1  0
  9 10  1  1
 10 11  1  0
 11 12  1  0
 12 13  1  0
 13 14  2  0
 13 15  1  0
 15 16  1  0
 16 17  1  0
 17 18  1  0
 18 19  2  0
 18 22  1  0
 19 20  1  0
 20 21  2  0
 21 22  2  0
 22 23  1  0
M  CHG  1  21   1
M  END
