
     RDKit          3D

 15 15  0  0  0  0  0  0  0  0999 V2000
   -3.4990   -0.8530   -0.4390 N   0  0  0  0  0  0  0  0  0  0  0  0
   -2.1640   -0.3890   -0.2120 C   0  0  0  0  0  0  0  0  0  0  0  0
   -1.5980    0.4940   -0.9610 N   0  0  0  0  0  0  0  0  0  0  0  0
   -0.2490    0.9810   -0.7560 C   0  0  1  0  0  0  0  0  0  0  0  0
   -0.2600    2.1140    0.0560 O   0  0  0  0  0  0  0  0  0  0  0  0
    0.1520    3.1780   -0.5990 O   0  0  0  0  0  0  0  0  0  0  0  0
    0.6530   -0.0040   -0.2630 N   0  0  0  0  0  0  0  0  0  0  0  0
    1.7620    0.5740    0.2140 O   0  0  0  0  0  0  0  0  0  0  0  0
    2.8940   -0.1570   -0.1680 C   0  0  0  0  0  0  0  0  0  0  0  0
    4.0370    0.4350    0.3220 O   0  0  0  0  0  0  0  0  0  0  0  0
    0.1060   -1.0340    0.5420 C   0  0  2  0  0  0  0  0  0  0  0  0
    0.3020   -2.5810   -0.3180 Cl  0  0  0  0  0  0  0  0  0  0  0  0
   -1.3300   -0.8940    0.9080 C   0  0  2  0  0  0  0  0  0  0  0  0
   -1.9700   -2.5250    1.3170 Cl  0  0  0  0  0  0  0  0  0  0  0  0
   -1.5790    0.1210    2.3550 Cl  0  0  0  0  0  0  0  0  0  0  0  0
  1  2  1  0
  2  3  2  0
  2 13  1  0
  3  4  1  0
  4  5  1  1
  4  7  1  0
  5  6  1  0
  7  8  1  0
  7 11  1  0
  8  9  1  0
  9 10  1  0
 11 12  1  6
 11 13  1  0
 13 14  1  1
 13 15  1  0
M  END
