
     RDKit          3D

 23 25  0  0  0  0  0  0  0  0999 V2000
    5.7670    2.4380   -0.2260 C   0  0  0  0  0  0  0  0  0  0  0  0
    4.7100    1.4200   -0.3240 N   0  0  0  0  0  0  0  0  0  0  0  0
    3.3920    1.7880   -0.6410 N   0  0  0  0  0  0  0  0  0  0  0  0
    2.4600    0.9070   -0.7290 C   0  0  0  0  0  0  0  0  0  0  0  0
    2.7250   -0.4990   -0.5050 C   0  0  0  0  0  0  0  0  0  0  0  0
    1.7250   -1.2260   -0.2680 N   0  0  0  0  0  0  0  0  0  0  0  0
    0.4110   -1.0310   -0.1640 C   0  0  2  0  0  0  0  0  0  0  0  0
   -0.5230    0.0200   -0.4610 C   0  0  0  0  0  0  0  0  0  0  0  0
   -1.9510   -0.5360   -0.2250 C   0  0  2  0  0  0  0  0  0  0  0  0
   -2.9390    0.4740   -0.5640 C   0  0  0  0  0  0  0  0  0  0  0  0
   -3.0080    1.6790    0.1160 C   0  0  0  0  0  0  0  0  0  0  0  0
   -3.9760    2.5840   -0.2680 C   0  0  0  0  0  0  0  0  0  0  0  0
   -4.8680    2.3330   -1.2950 C   0  0  0  0  0  0  0  0  0  0  0  0
   -4.7950    1.1310   -1.9680 C   0  0  0  0  0  0  0  0  0  0  0  0
   -3.8330    0.2330   -1.5850 C   0  0  0  0  0  0  0  0  0  0  0  0
   -2.1430   -0.9880    1.1880 C   0  0  0  0  0  0  0  0  0  0  0  0
   -1.1760   -2.0480    1.4090 N   0  0  2  0  0  0  0  0  0  0  0  0
   -1.3620   -2.7400    2.6400 C   0  0  0  0  0  0  0  0  0  0  0  0
    0.1090   -1.4080    1.3260 C   0  0  0  0  0  0  0  0  0  0  0  0
    4.1390   -1.0250   -0.5510 C   0  0  1  0  0  0  0  0  0  0  0  0
    4.5940   -1.6630   -2.3110 Br  0  0  0  0  0  0  0  0  0  0  0  0
    5.0450    0.0640   -0.0910 C   0  0  0  0  0  0  0  0  0  0  0  0
    6.0990   -0.2500    0.4990 O   0  0  0  0  0  0  0  0  0  0  0  0
  1  2  1  0
  2  3  1  0
  2 22  1  0
  3  4  2  0
  4  5  1  0
  5  6  2  3
  5 20  1  0
  7  6  1  1
  7  8  1  0
  7 19  1  0
  8  9  1  0
  9 10  1  1
  9 16  1  0
 10 11  2  0
 10 15  1  0
 11 12  1  0
 12 13  2  0
 13 14  1  0
 14 15  2  0
 16 17  1  0
 17 18  1  1
 17 19  1  0
 20 21  1  6
 20 22  1  0
 22 23  2  0
M  CHG  1  17   1
M  END
