
     RDKit          3D

 15 15  0  0  0  0  0  0  0  0999 V2000
   -4.3420    0.1160    1.9150 N   0  0  0  0  0  0  0  0  0  0  0  0
   -3.4510   -0.0050    0.8170 C   0  0  0  0  0  0  0  0  0  0  0  0
   -2.2890    0.6190    0.7030 C   0  0  0  0  0  0  0  0  0  0  0  0
   -1.6260    0.3670   -0.3820 C   0  0  0  0  0  0  0  0  0  0  0  0
   -0.4020    0.9030   -0.7010 O   0  0  0  0  0  0  0  0  0  0  0  0
    0.5310    0.3110   -1.4630 O   0  0  0  0  0  0  0  0  0  0  0  0
    1.6510   -0.2590   -0.9260 N   0  0  0  0  0  0  0  0  0  0  0  0
    2.7160    0.3800   -0.6200 C   0  0  0  0  0  0  0  0  0  0  0  0
    2.7510    2.0980   -0.9050 Cl  0  0  0  0  0  0  0  0  0  0  0  0
    3.8570   -0.3690   -0.0440 C   0  0  2  0  0  0  0  0  0  0  0  0
    4.1970    0.0960    1.2330 O   0  0  0  0  0  0  0  0  0  0  0  0
    5.2530   -0.1010   -1.1150 Cl  0  0  0  0  0  0  0  0  0  0  0  0
    3.5210   -2.1010   -0.0220 Cl  0  0  0  0  0  0  0  0  0  0  0  0
   -2.4190   -0.5410   -1.1190 N   0  0  0  0  0  0  0  0  0  0  0  0
   -3.5570   -0.7580   -0.3450 O   0  0  0  0  0  0  0  0  0  0  0  0
  1  2  1  0
  2  3  2  0
  2 15  1  0
  3  4  2  0
  4  5  1  0
  4 14  1  0
  5  6  1  0
  6  7  1  0
  7  8  2  3
  8  9  1  0
  8 10  1  0
 10 11  1  1
 10 12  1  0
 10 13  1  0
 14 15  1  0
M  END
