
     RDKit          3D

 15 15  0  0  0  0  0  0  0  0999 V2000
   -2.6890   -0.3560    1.3700 C   0  0  0  0  0  0  0  0  0  0  0  0
   -1.8140   -1.0600    0.5560 O   0  0  0  0  0  0  0  0  0  0  0  0
   -1.0360   -0.2140   -0.2420 C   0  0  2  0  0  0  0  0  0  0  0  0
   -1.9730    0.4510   -1.1480 N   0  0  0  0  0  0  0  0  0  0  0  0
   -0.2230   -1.0100   -0.9910 O   0  0  0  0  0  0  0  0  0  0  0  0
    1.0540   -0.5940   -1.1810 C   0  0  1  0  0  0  0  0  0  0  0  0
    2.0450   -2.0660   -1.4930 Cl  0  0  0  0  0  0  0  0  0  0  0  0
    1.1690    0.3810   -2.6890 Cl  0  0  0  0  0  0  0  0  0  0  0  0
    1.6610    0.1960   -0.0790 C   0  0  2  0  0  0  0  0  0  0  0  0
    2.0250    1.8720   -0.5720 Cl  0  0  0  0  0  0  0  0  0  0  0  0
    2.9920   -0.3950    0.3940 C   0  0  0  0  0  0  0  0  0  0  0  0
    3.5530    0.4070    1.3600 O   0  0  0  0  0  0  0  0  0  0  0  0
    0.8290    0.2650    1.0400 O   0  0  0  0  0  0  0  0  0  0  0  0
   -0.3640    0.7260    0.6080 N   0  0  0  0  0  0  0  0  0  0  0  0
   -0.2960    2.0090    0.1010 N   0  0  0  0  0  0  0  0  0  0  0  0
  1  2  1  0
  2  3  1  0
  3  4  1  6
  3  5  1  0
  3 14  1  0
  5  6  1  0
  6  7  1  6
  6  8  1  0
  6  9  1  0
  9 10  1  6
  9 11  1  0
  9 13  1  0
 11 12  1  0
 13 14  1  0
 14 15  1  0
M  CHG  1   4   1
M  END
