
     RDKit          3D

 15 15  0  0  0  0  0  0  0  0999 V2000
    0.8970    0.5440    1.0100 O   0  0  0  0  0  0  0  0  0  0  0  0
    1.0210    0.0880   -0.1060 C   0  0  0  0  0  0  0  0  0  0  0  0
   -0.2230   -0.3810   -0.6420 C   0  0  2  0  0  0  0  0  0  0  0  0
   -1.3380   -0.0010    0.2130 N   0  0  0  0  0  0  0  0  0  0  0  0
   -2.3210    1.0470    0.0360 C   0  0  0  0  0  0  0  0  0  0  0  0
   -1.6870    2.2920   -0.0330 O   0  0  0  0  0  0  0  0  0  0  0  0
   -1.2390   -0.9320    1.3080 C   0  0  0  0  0  0  0  0  0  0  0  0
   -1.8230   -0.5520    2.9240 Cl  0  0  0  0  0  0  0  0  0  0  0  0
   -0.6810   -2.0170    0.8930 N   0  0  0  0  0  0  0  0  0  0  0  0
   -0.3700   -1.8830   -0.5110 C   0  0  2  0  0  0  0  0  0  0  0  0
    1.0780   -2.7550   -0.9900 Cl  0  0  0  0  0  0  0  0  0  0  0  0
   -1.8060   -2.4030   -1.4220 Cl  0  0  0  0  0  0  0  0  0  0  0  0
    2.3760    0.3130   -0.1950 N   0  0  2  0  0  0  0  0  0  0  0  0
    3.1260    0.0640    0.9810 O   0  0  0  0  0  0  0  0  0  0  0  0
    2.6480    1.6010   -0.2970 O   0  0  0  0  0  0  0  0  0  0  0  0
  1  2  2  0
  3  2  1  1
  2 13  1  0
  3  4  1  0
  3 10  1  0
  4  5  1  0
  4  7  1  0
  5  6  1  0
  7  8  1  0
  7  9  2  0
  9 10  1  0
 10 11  1  6
 10 12  1  0
 13 14  1  1
 13 15  1  0
M  CHG  1  13   1
M  END
