
     RDKit          3D

 27 28  0  0  0  0  0  0  0  0999 V2000
    5.1060   -1.5940    2.7380 C   0  0  0  0  0  0  0  0  0  0  0  0
    4.0230   -0.7550    3.3610 C   0  0  0  0  0  0  0  0  0  0  0  0
    2.8670   -0.6690    2.5720 O   0  0  0  0  0  0  0  0  0  0  0  0
    2.8700   -0.1040    1.3080 C   0  0  0  0  0  0  0  0  0  0  0  0
    3.9860    0.4310    0.7170 C   0  0  0  0  0  0  0  0  0  0  0  0
    3.9700    0.9960   -0.5560 C   0  0  0  0  0  0  0  0  0  0  0  0
    2.8100    1.0430   -1.2910 C   0  0  0  0  0  0  0  0  0  0  0  0
    2.7600    1.6300   -2.6320 C   0  0  0  0  0  0  0  0  0  0  0  0
    3.9960    2.1970   -3.2310 C   0  0  0  0  0  0  0  0  0  0  0  0
    1.6760    1.6500   -3.2680 O   0  0  0  0  0  0  0  0  0  0  0  0
    1.6770    0.5040   -0.7030 C   0  0  0  0  0  0  0  0  0  0  0  0
    1.6810   -0.0560    0.5570 C   0  0  0  0  0  0  0  0  0  0  0  0
    0.5340   -0.6220    1.1100 N   0  0  0  0  0  0  0  0  0  0  0  0
   -0.7930   -0.5280    0.6420 C   0  0  0  0  0  0  0  0  0  0  0  0
   -1.6740   -1.6150    0.7310 C   0  0  0  0  0  0  0  0  0  0  0  0
   -2.9770   -1.5120    0.3130 C   0  0  0  0  0  0  0  0  0  0  0  0
   -3.8720   -2.6660    0.4200 C   0  0  0  0  0  0  0  0  0  0  0  0
   -3.4580   -3.7510    0.8920 O   0  0  0  0  0  0  0  0  0  0  0  0
   -5.1930   -2.6030    0.0090 O   0  0  0  0  0  0  0  0  0  0  0  0
   -6.0910   -3.6940    0.0950 C   0  0  0  0  0  0  0  0  0  0  0  0
   -3.4460   -0.3080   -0.2140 C   0  0  0  0  0  0  0  0  0  0  0  0
   -2.5980    0.7690   -0.3090 C   0  0  0  0  0  0  0  0  0  0  0  0
   -3.0820    2.0120   -0.8530 C   0  0  0  0  0  0  0  0  0  0  0  0
   -2.3010    2.9900   -0.9360 O   0  0  0  0  0  0  0  0  0  0  0  0
   -4.3760    2.1900   -1.2930 O   0  0  0  0  0  0  0  0  0  0  0  0
   -4.8680    3.3990   -1.8290 C   0  0  0  0  0  0  0  0  0  0  0  0
   -1.2980    0.6480    0.1150 C   0  0  0  0  0  0  0  0  0  0  0  0
  1  2  1  0
  2  3  1  0
  3  4  1  0
  4  5  2  0
  4 12  1  0
  5  6  1  0
  6  7  2  0
  7  8  1  0
  7 11  1  0
  8  9  1  0
  8 10  2  0
 11 12  2  0
 12 13  1  0
 13 14  1  0
 14 15  2  0
 14 27  1  0
 15 16  1  0
 16 17  1  0
 16 21  2  0
 17 18  2  0
 17 19  1  0
 19 20  1  0
 21 22  1  0
 22 23  1  0
 22 27  2  0
 23 24  2  0
 23 25  1  0
 25 26  1  0
M  END
