
     RDKit          3D

 13 13  0  0  0  0  0  0  0  0999 V2000
    1.9530    1.1800   -0.6060 O   0  0  0  0  0  0  0  0  0  0  0  0
    1.6950    0.5110    0.4280 C   0  0  0  0  0  0  0  0  0  0  0  0
    1.8010    1.1830    1.6410 O   0  0  0  0  0  0  0  0  0  0  0  0
    1.3030   -0.9000    0.3810 C   0  0  0  0  0  0  0  0  0  0  0  0
   -0.1470   -1.1220    0.0060 C   0  0  1  0  0  0  0  0  0  0  0  0
   -0.3350   -2.5210    0.0100 O   0  0  0  0  0  0  0  0  0  0  0  0
   -1.0430   -0.5430    0.9840 N   0  0  0  0  0  0  0  0  0  0  0  0
   -1.3680    0.8470    0.9280 C   0  0  0  0  0  0  0  0  0  0  0  0
   -1.7740    1.4950    1.9260 O   0  0  0  0  0  0  0  0  0  0  0  0
   -1.2410    1.5760   -0.3010 N   0  0  0  0  0  0  0  0  0  0  0  0
   -0.7880    0.8360   -1.3980 N   0  0  0  0  0  0  0  0  0  0  0  0
   -0.4690   -0.5480   -1.3210 C   0  0  0  0  0  0  0  0  0  0  0  0
   -0.4470   -1.3090   -2.3290 O   0  0  0  0  0  0  0  0  0  0  0  0
  1  2  2  0
  2  3  1  0
  2  4  1  0
  4  5  1  0
  5  6  1  6
  5  7  1  0
  5 12  1  0
  7  8  1  0
  8  9  2  0
  8 10  1  0
 10 11  1  0
 11 12  1  0
 12 13  2  0
M  END
