
     RDKit          3D

 13 13  0  0  0  0  0  0  0  0999 V2000
   -0.8840    2.4680    0.4630 N   0  0  0  0  0  0  0  0  0  0  0  0
   -1.3670    1.2570    1.0290 C   0  0  0  0  0  0  0  0  0  0  0  0
   -2.1840    1.3960    2.0020 O   0  0  0  0  0  0  0  0  0  0  0  0
   -0.9770   -0.0700    0.5560 C   0  0  1  0  0  0  0  0  0  0  0  0
   -1.3330   -0.2960   -0.8740 C   0  0  0  0  0  0  0  0  0  0  0  0
   -1.0390   -1.5250   -1.5240 N   0  0  0  0  0  0  0  0  0  0  0  0
   -1.9010    0.5920   -1.5360 O   0  0  0  0  0  0  0  0  0  0  0  0
    0.5070   -0.3210    0.7410 C   0  0  1  0  0  0  0  0  0  0  0  0
    0.8800   -1.5750    0.2950 O   0  0  0  0  0  0  0  0  0  0  0  0
    2.1840   -1.4270   -0.0300 N   0  0  0  0  0  0  0  0  0  0  0  0
    2.4660   -0.0600   -0.2930 C   0  0  0  0  0  0  0  0  0  0  0  0
    3.5490    0.4250   -0.7210 O   0  0  0  0  0  0  0  0  0  0  0  0
    1.2840    0.6170    0.0250 O   0  0  0  0  0  0  0  0  0  0  0  0
  1  2  1  0
  2  3  2  0
  4  2  1  6
  4  5  1  0
  4  8  1  0
  5  6  1  0
  5  7  2  0
  8  9  1  6
  8 13  1  0
  9 10  1  0
 10 11  1  0
 11 12  2  0
 11 13  1  0
M  END
