
     RDKit          3D

 13 13  0  0  0  0  0  0  0  0999 V2000
    3.2700   -1.7140   -0.1970 O   0  0  0  0  0  0  0  0  0  0  0  0
    3.8090   -0.5910   -0.0980 C   0  0  0  0  0  0  0  0  0  0  0  0
    2.9840    0.5640   -0.2290 N   0  0  0  0  0  0  0  0  0  0  0  0
    1.6070    0.4720   -0.4600 N   0  0  0  0  0  0  0  0  0  0  0  0
    0.6420    0.4770    0.5860 C   0  0  0  0  0  0  0  0  0  0  0  0
    1.0600    0.5670    1.7580 O   0  0  0  0  0  0  0  0  0  0  0  0
   -0.7990    0.3810    0.3440 C   0  0  2  0  0  0  0  0  0  0  0  0
   -1.4530   -0.7680    1.0730 C   0  0  0  0  0  0  0  0  0  0  0  0
   -2.8520   -0.4490    1.1160 O   0  0  0  0  0  0  0  0  0  0  0  0
   -3.3330    0.0780   -0.0770 C   0  0  0  0  0  0  0  0  0  0  0  0
   -4.4920    0.5170   -0.2360 O   0  0  0  0  0  0  0  0  0  0  0  0
   -2.4260    0.1120   -1.1780 N   0  0  0  0  0  0  0  0  0  0  0  0
   -1.1060    0.2860   -1.0100 O   0  0  0  0  0  0  0  0  0  0  0  0
  1  2  2  0
  2  3  1  0
  3  4  1  0
  4  5  1  0
  5  6  2  0
  7  5  1  6
  7  8  1  0
  7 13  1  0
  8  9  1  0
  9 10  1  0
 10 11  2  0
 10 12  1  0
 12 13  1  0
M  END
