
     RDKit          3D

 13 13  0  0  0  0  0  0  0  0999 V2000
   -2.0530   -1.0550    0.1510 N   0  0  0  0  0  0  0  0  0  0  0  0
   -1.0950   -0.4470   -0.7630 C   0  0  0  0  0  0  0  0  0  0  0  0
   -0.1810    0.4150    0.1220 C   0  0  2  0  0  0  0  0  0  0  0  0
   -1.0020    1.4100    0.8220 C   0  0  0  0  0  0  0  0  0  0  0  0
   -1.9590    1.0650    1.5990 O   0  0  0  0  0  0  0  0  0  0  0  0
   -0.7230    2.7540    0.6260 O   0  0  0  0  0  0  0  0  0  0  0  0
    0.7880    1.0530   -0.6570 O   0  0  0  0  0  0  0  0  0  0  0  0
    1.9940    0.4860   -1.0090 C   0  0  0  0  0  0  0  0  0  0  0  0
    2.7020    0.9660   -1.9650 O   0  0  0  0  0  0  0  0  0  0  0  0
    2.4490   -0.6500   -0.2910 N   0  0  0  0  0  0  0  0  0  0  0  0
    1.6760   -1.1610    0.7400 N   0  0  0  0  0  0  0  0  0  0  0  0
    0.4560   -0.5540    1.0650 C   0  0  0  0  0  0  0  0  0  0  0  0
   -0.1240   -0.8090    2.1450 O   0  0  0  0  0  0  0  0  0  0  0  0
  1  2  1  0
  3  2  1  6
  3  4  1  0
  3  7  1  0
  3 12  1  0
  4  5  2  0
  4  6  1  0
  7  8  1  0
  8  9  2  0
  8 10  1  0
 10 11  1  0
 11 12  1  0
 12 13  2  0
M  END
