
     RDKit          3D

 13 13  0  0  0  0  0  0  0  0999 V2000
    3.4350   -1.4020    0.1270 C   0  0  0  0  0  0  0  0  0  0  0  0
    2.0660   -1.1400    0.0210 O   0  0  0  0  0  0  0  0  0  0  0  0
    1.5340    0.0190   -0.5310 C   0  0  0  0  0  0  0  0  0  0  0  0
    2.3300    0.8920   -0.9640 O   0  0  0  0  0  0  0  0  0  0  0  0
    0.0950    0.2900   -0.6390 C   0  0  1  0  0  0  0  0  0  0  0  0
   -0.6500   -0.7890   -0.1060 O   0  0  0  0  0  0  0  0  0  0  0  0
   -1.8790   -0.2160    0.0890 C   0  0  1  0  0  0  0  0  0  0  0  0
   -2.4830   -0.0500   -1.1530 O   0  0  0  0  0  0  0  0  0  0  0  0
   -2.7190   -0.9310    1.0230 N   0  0  0  0  0  0  0  0  0  0  0  0
   -2.9140   -2.1710    0.5500 O   0  0  0  0  0  0  0  0  0  0  0  0
   -1.5350    1.1000    0.5930 N   0  0  0  0  0  0  0  0  0  0  0  0
   -0.3590    1.4330    0.1760 C   0  0  0  0  0  0  0  0  0  0  0  0
    0.3010    2.6480    0.4690 N   0  0  0  0  0  0  0  0  0  0  0  0
  1  2  1  0
  2  3  1  0
  3  4  2  0
  5  3  1  1
  5  6  1  0
  5 12  1  0
  6  7  1  0
  7  8  1  6
  7  9  1  0
  7 11  1  0
  9 10  1  0
 11 12  2  0
 12 13  1  0
M  END
