
     RDKit          3D

 13 13  0  0  0  0  0  0  0  0999 V2000
    2.2240   -0.9850   -1.1560 N   0  0  0  0  0  0  0  0  0  0  0  0
    1.6080    0.2490   -0.8080 C   0  0  0  0  0  0  0  0  0  0  0  0
    2.1870    1.3210   -1.1050 O   0  0  0  0  0  0  0  0  0  0  0  0
    0.3020    0.1950   -0.1060 C   0  0  1  0  0  0  0  0  0  0  0  0
    0.5620   -0.5170    1.2160 C   0  0  0  0  0  0  0  0  0  0  0  0
    1.4840    0.2710    1.9140 O   0  0  0  0  0  0  0  0  0  0  0  0
   -0.2120    1.4550    0.1880 O   0  0  0  0  0  0  0  0  0  0  0  0
   -1.5330    1.5750    0.5580 C   0  0  0  0  0  0  0  0  0  0  0  0
   -1.9160    2.5670    1.2580 O   0  0  0  0  0  0  0  0  0  0  0  0
   -2.4800    0.5920    0.1620 N   0  0  0  0  0  0  0  0  0  0  0  0
   -2.0100   -0.4990   -0.6180 N   0  0  0  0  0  0  0  0  0  0  0  0
   -0.6320   -0.5540   -0.9610 C   0  0  0  0  0  0  0  0  0  0  0  0
   -0.2970   -1.2310   -1.9610 O   0  0  0  0  0  0  0  0  0  0  0  0
  1  2  1  0
  2  3  2  0
  2  4  1  0
  4  5  1  1
  4  7  1  0
  4 12  1  0
  5  6  1  0
  7  8  1  0
  8  9  2  0
  8 10  1  0
 10 11  1  0
 11 12  1  0
 12 13  2  0
M  END
