
     RDKit          3D

 13 13  0  0  0  0  0  0  0  0999 V2000
    2.0870   -0.6320    1.4790 O   0  0  0  0  0  0  0  0  0  0  0  0
    2.5460   -0.5300    0.3240 C   0  0  0  0  0  0  0  0  0  0  0  0
    3.8810   -0.2100    0.1670 O   0  0  0  0  0  0  0  0  0  0  0  0
    1.7270   -0.7340   -0.7990 N   0  0  0  0  0  0  0  0  0  0  0  0
    0.3460   -1.0620   -0.7620 C   0  0  0  0  0  0  0  0  0  0  0  0
   -0.5620   -0.0880   -0.1180 C   0  0  1  0  0  0  0  0  0  0  0  0
   -0.3390    0.1990    1.1970 O   0  0  0  0  0  0  0  0  0  0  0  0
   -0.6040    1.2000   -0.8210 N   0  0  0  0  0  0  0  0  0  0  0  0
   -1.8440    1.7790   -0.4390 C   0  0  0  0  0  0  0  0  0  0  0  0
   -2.1510    3.0180   -0.4020 O   0  0  0  0  0  0  0  0  0  0  0  0
   -2.7450    0.7280   -0.0850 N   0  0  0  0  0  0  0  0  0  0  0  0
   -2.0100   -0.4800   -0.2660 C   0  0  0  0  0  0  0  0  0  0  0  0
   -2.4230   -1.6300   -0.4970 O   0  0  0  0  0  0  0  0  0  0  0  0
  1  2  2  0
  2  3  1  0
  2  4  1  0
  4  5  1  0
  5  6  1  0
  6  7  1  1
  6  8  1  0
  6 12  1  0
  8  9  1  0
  9 10  2  0
  9 11  1  0
 11 12  1  0
 12 13  2  0
M  END
