
     RDKit          3D

 13 13  0  0  0  0  0  0  0  0999 V2000
    3.6960    0.2240   -0.8730 C   0  0  0  0  0  0  0  0  0  0  0  0
    2.3990    0.7660   -1.0350 O   0  0  0  0  0  0  0  0  0  0  0  0
    1.3150    0.1040   -0.4250 C   0  0  0  0  0  0  0  0  0  0  0  0
    1.4820   -0.9280    0.2390 O   0  0  0  0  0  0  0  0  0  0  0  0
    0.0070    0.6080   -0.5600 N   0  0  0  0  0  0  0  0  0  0  0  0
   -1.1580    0.0250    0.0100 C   0  0  2  0  0  0  0  0  0  0  0  0
   -2.3680    0.8680   -0.3800 C   0  0  0  0  0  0  0  0  0  0  0  0
   -2.1850    2.1560    0.1070 O   0  0  0  0  0  0  0  0  0  0  0  0
   -1.1120   -0.2530    1.3920 N   0  0  0  0  0  0  0  0  0  0  0  0
   -0.6630   -1.4690    1.6100 O   0  0  0  0  0  0  0  0  0  0  0  0
   -1.1230   -2.2030    0.5490 N   0  0  0  0  0  0  0  0  0  0  0  0
   -1.2950   -1.3400   -0.5620 C   0  0  0  0  0  0  0  0  0  0  0  0
   -1.5120   -1.6640   -1.7420 O   0  0  0  0  0  0  0  0  0  0  0  0
  1  2  1  0
  2  3  1  0
  3  4  2  0
  3  5  1  0
  5  6  1  0
  6  7  1  1
  6  9  1  0
  6 12  1  0
  7  8  1  0
  9 10  1  0
 10 11  1  0
 11 12  1  0
 12 13  2  0
M  END
