
     RDKit          3D

 17 18  0  0  0  0  0  0  0  0999 V2000
    3.4290    0.0620   -1.1730 O   0  0  0  0  0  0  0  0  0  0  0  0
    3.8260    0.6090   -0.1010 C   0  0  0  0  0  0  0  0  0  0  0  0
    5.0430    1.2800   -0.1200 O   0  0  0  0  0  0  0  0  0  0  0  0
    3.0210    0.5140    1.0600 N   0  0  0  0  0  0  0  0  0  0  0  0
    1.8370   -0.1540    1.0460 N   0  0  0  0  0  0  0  0  0  0  0  0
    0.7500    0.4420    0.3410 C   0  0  0  0  0  0  0  0  0  0  0  0
   -0.4390   -0.4470    0.4570 C   0  0  2  0  0  0  0  0  0  0  0  0
   -0.7820   -0.6060    1.7940 O   0  0  0  0  0  0  0  0  0  0  0  0
   -0.0630   -1.8130   -0.1330 C   0  0  0  0  0  0  0  0  0  0  0  0
   -1.4850   -2.2910   -0.4860 C   0  0  0  0  0  0  0  0  0  0  0  0
   -1.9370   -1.1790   -1.1830 O   0  0  0  0  0  0  0  0  0  0  0  0
   -1.6050   -0.0970   -0.4090 C   0  0  1  0  0  0  0  0  0  0  0  0
   -2.7820    0.2080    0.5280 C   0  0  0  0  0  0  0  0  0  0  0  0
   -2.4670    1.6710    0.8610 C   0  0  0  0  0  0  0  0  0  0  0  0
   -1.9060    2.1870   -0.3300 O   0  0  0  0  0  0  0  0  0  0  0  0
   -1.4590    1.1560   -1.1390 C   0  0  0  0  0  0  0  0  0  0  0  0
   -1.0130    1.2970   -2.2930 O   0  0  0  0  0  0  0  0  0  0  0  0
  1  2  2  0
  2  3  1  0
  2  4  1  0
  4  5  1  0
  5  6  1  0
  6  7  1  0
  7  8  1  1
  7  9  1  0
  7 12  1  0
  9 10  1  0
 10 11  1  0
 11 12  1  0
 12 13  1  1
 12 16  1  0
 13 14  1  0
 14 15  1  0
 15 16  1  0
 16 17  2  0
M  END
