
     RDKit          3D

 26 28  0  0  0  0  0  0  0  0999 V2000
    3.0650    3.9700   -2.3320 C   0  0  0  0  0  0  0  0  0  0  0  0
    2.1410    2.9970   -1.9260 O   0  0  0  0  0  0  0  0  0  0  0  0
    2.8050    2.1490   -1.0510 C   0  0  0  0  0  0  0  0  0  0  0  0
    1.9430    1.1480   -0.6020 O   0  0  0  0  0  0  0  0  0  0  0  0
    2.3160    0.1470    0.2850 C   0  0  0  0  0  0  0  0  0  0  0  0
    3.5940    0.1050    0.7710 C   0  0  0  0  0  0  0  0  0  0  0  0
    3.9360   -0.8890    1.6420 C   0  0  0  0  0  0  0  0  0  0  0  0
    3.0270   -1.8300    2.0300 C   0  0  0  0  0  0  0  0  0  0  0  0
    3.4230   -2.8940    2.9730 C   0  0  0  0  0  0  0  0  0  0  0  0
    1.7370   -1.7510    1.5120 C   0  0  0  0  0  0  0  0  0  0  0  0
    1.3160   -0.7920    0.6380 C   0  0  0  0  0  0  0  0  0  0  0  0
    0.0160   -0.6400    0.1040 N   0  0  0  0  0  0  0  0  0  0  0  0
   -1.0190   -1.5760    0.2480 C   0  0  0  0  0  0  0  0  0  0  0  0
   -0.6360   -2.8230    0.7060 N   0  0  0  0  0  0  0  0  0  0  0  0
   -1.4720   -3.8420    0.7670 C   0  0  0  0  0  0  0  0  0  0  0  0
   -2.7800   -3.7020    0.3700 C   0  0  0  0  0  0  0  0  0  0  0  0
   -3.1520   -2.4720   -0.0770 C   0  0  0  0  0  0  0  0  0  0  0  0
   -2.2920   -1.3440   -0.1610 C   0  0  0  0  0  0  0  0  0  0  0  0
   -2.8540   -0.0540   -0.4780 C   0  0  0  0  0  0  0  0  0  0  0  0
   -4.0120   -0.0950   -1.1730 C   0  0  0  0  0  0  0  0  0  0  0  0
   -4.8090    1.0230   -1.5750 C   0  0  0  0  0  0  0  0  0  0  0  0
   -4.5680    2.2620   -1.3110 C   0  0  0  0  0  0  0  0  0  0  0  0
   -3.4450    2.7650   -0.5310 C   0  0  0  0  0  0  0  0  0  0  0  0
   -2.1820    1.5160   -0.2550 S   0  0  1  0  0  0  0  0  0  0  0  0
   -1.6490    1.6690    1.1250 O   0  0  0  0  0  0  0  0  0  0  0  0
   -1.1270    1.8780   -1.3130 O   0  0  0  0  0  0  0  0  0  0  0  0
  1  2  1  0
  2  3  1  0
  3  4  1  0
  4  5  1  0
  5  6  2  0
  5 11  1  0
  6  7  1  0
  7  8  2  0
  8  9  1  0
  8 10  1  0
 10 11  2  0
 11 12  1  0
 12 13  1  0
 13 14  2  0
 13 18  1  0
 14 15  1  0
 15 16  2  0
 16 17  1  0
 17 18  2  0
 18 19  1  0
 19 20  2  0
 19 24  1  0
 20 21  1  0
 21 22  2  0
 22 23  1  0
 24 23  1  1
 24 25  2  0
 24 26  2  0
M  END
