
     RDKit          3D

 26 28  0  0  0  0  0  0  0  0999 V2000
   -6.3620   -0.1180   -0.5820 C   0  0  0  0  0  0  0  0  0  0  0  0
   -5.4530    0.8260   -0.4790 C   0  0  0  0  0  0  0  0  0  0  0  0
   -5.8930    2.5140   -0.7970 S   0  0  0  0  0  0  0  0  0  0  0  0
   -4.3980    3.4490   -0.5560 C   0  0  0  0  0  0  0  0  0  0  0  0
   -3.3160    2.8180   -0.2150 C   0  0  0  0  0  0  0  0  0  0  0  0
   -3.1200    1.4170    0.0110 C   0  0  0  0  0  0  0  0  0  0  0  0
   -4.0620    0.5140   -0.1010 C   0  0  0  0  0  0  0  0  0  0  0  0
   -3.8110   -0.9290    0.1730 C   0  0  0  0  0  0  0  0  0  0  0  0
   -2.4750   -1.1480    0.6250 N   0  0  0  0  0  0  0  0  0  0  0  0
   -2.2320   -0.6700    1.9510 C   0  0  0  0  0  0  0  0  0  0  0  0
   -1.9420   -2.4350    0.3250 C   0  0  0  0  0  0  0  0  0  0  0  0
   -0.5320   -2.6270    0.8210 C   0  0  0  0  0  0  0  0  0  0  0  0
    0.3690   -1.6370    0.2200 N   0  0  0  0  0  0  0  0  0  0  0  0
    1.7470   -1.6080    0.5250 C   0  0  0  0  0  0  0  0  0  0  0  0
    2.1550   -2.4950    1.3500 O   0  0  0  0  0  0  0  0  0  0  0  0
    2.6880   -0.6450   -0.0410 C   0  0  0  0  0  0  0  0  0  0  0  0
    4.0380   -0.7000    0.2350 C   0  0  0  0  0  0  0  0  0  0  0  0
    4.9550    0.1970   -0.2800 C   0  0  0  0  0  0  0  0  0  0  0  0
    6.2950    0.0760    0.0440 O   0  0  0  0  0  0  0  0  0  0  0  0
    6.7270   -0.9580    0.8950 C   0  0  0  0  0  0  0  0  0  0  0  0
    4.5110    1.2070   -1.1160 C   0  0  0  0  0  0  0  0  0  0  0  0
    3.1670    1.2910   -1.4120 C   0  0  0  0  0  0  0  0  0  0  0  0
    2.2650    0.3670   -0.8750 C   0  0  0  0  0  0  0  0  0  0  0  0
    3.0350    2.3980   -2.2660 O   0  0  0  0  0  0  0  0  0  0  0  0
    4.2350    3.1790   -2.1390 C   0  0  0  0  0  0  0  0  0  0  0  0
    5.2100    2.2200   -1.7550 O   0  0  0  0  0  0  0  0  0  0  0  0
  1  2  2  0
  2  3  1  0
  2  7  1  0
  3  4  1  0
  4  5  2  0
  5  6  1  0
  6  7  2  0
  7  8  1  0
  8  9  1  0
  9 10  1  0
  9 11  1  0
 11 12  1  0
 12 13  1  0
 13 14  1  0
 14 15  2  0
 14 16  1  0
 16 17  2  0
 16 23  1  0
 17 18  1  0
 18 19  1  0
 18 21  2  0
 19 20  1  0
 21 22  1  0
 21 26  1  0
 22 23  2  0
 22 24  1  0
 24 25  1  0
 25 26  1  0
M  END
