
     RDKit          3D

  7  7  0  0  0  0  0  0  0  0999 V2000
   -1.9340    0.2770    0.4840 C   0  0  0  0  0  0  0  0  0  0  0  0
   -1.1140   -0.0830   -0.7610 C   0  0  0  0  0  0  0  0  0  0  0  0
    0.3010   -0.2070   -0.2940 C   0  0  0  0  0  0  0  0  0  0  0  0
    1.2330    0.7990   -0.2440 C   0  0  0  0  0  0  0  0  0  0  0  0
    2.4410    0.2920    0.2500 C   0  0  0  0  0  0  0  0  0  0  0  0
    2.1850   -1.0100    0.4780 N   0  0  0  0  0  0  0  0  0  0  0  0
    0.9330   -1.3060    0.1610 N   0  0  0  0  0  0  0  0  0  0  0  0
  1  2  1  0
  2  3  1  0
  3  4  2  0
  3  7  1  0
  4  5  1  0
  5  6  2  0
  6  7  1  0
M  END
