
     RDKit          3D

  7  7  0  0  0  0  0  0  0  0999 V2000
   -2.1250    0.2380    0.4540 C   0  0  0  0  0  0  0  0  0  0  0  0
   -1.2650   -0.3090   -0.6910 C   0  0  0  0  0  0  0  0  0  0  0  0
    0.1660   -0.0470   -0.3780 C   0  0  0  0  0  0  0  0  0  0  0  0
    0.8790    1.0600   -0.7170 N   0  0  0  0  0  0  0  0  0  0  0  0
    2.1330    0.9500   -0.2690 C   0  0  0  0  0  0  0  0  0  0  0  0
    2.2450   -0.2620    0.3810 C   0  0  0  0  0  0  0  0  0  0  0  0
    1.0340   -0.8270    0.2900 N   0  0  0  0  0  0  0  0  0  0  0  0
  1  2  1  0
  2  3  1  0
  3  4  2  0
  3  7  1  0
  4  5  1  0
  5  6  2  0
  6  7  1  0
M  END
