
     RDKit          3D

  7  7  0  0  0  0  0  0  0  0999 V2000
    2.5790   -0.2680   -0.1430 N   0  0  0  0  0  0  0  0  0  0  0  0
    1.1680   -0.3210   -0.0740 C   0  0  0  0  0  0  0  0  0  0  0  0
    0.4230   -1.1140   -0.7280 N   0  0  0  0  0  0  0  0  0  0  0  0
   -1.0050   -1.1860   -0.6730 C   0  0  0  0  0  0  0  0  0  0  0  0
   -1.6630   -0.0170   -0.0190 C   0  0  0  0  0  0  0  0  0  0  0  0
   -0.7090    1.1520    0.0490 C   0  0  0  0  0  0  0  0  0  0  0  0
    0.5000    0.6430    0.8510 C   0  0  0  0  0  0  0  0  0  0  0  0
  1  2  1  0
  2  3  2  0
  2  7  1  0
  3  4  1  0
  4  5  1  0
  5  6  1  0
  6  7  1  0
M  END
