
     RDKit          3D

  7  7  0  0  0  0  0  0  0  0999 V2000
    2.6370    0.0100   -0.1410 C   0  0  0  0  0  0  0  0  0  0  0  0
    1.1720    0.2790    0.0450 C   0  0  0  0  0  0  0  0  0  0  0  0
    0.1450   -0.5760   -0.2780 C   0  0  0  0  0  0  0  0  0  0  0  0
   -1.0360    0.0500    0.0490 C   0  0  0  0  0  0  0  0  0  0  0  0
   -2.4030   -0.5430   -0.1430 C   0  0  0  0  0  0  0  0  0  0  0  0
   -0.7200    1.2530    0.5580 N   0  0  0  0  0  0  0  0  0  0  0  0
    0.5930    1.3840    0.5520 N   0  0  0  0  0  0  0  0  0  0  0  0
  1  2  1  0
  2  3  1  0
  2  7  2  0
  3  4  2  0
  4  5  1  0
  4  6  1  0
  6  7  1  0
M  END
