
     RDKit          3D

  7  7  0  0  0  0  0  0  0  0999 V2000
    1.3780   -1.4860    0.1500 C   0  0  0  0  0  0  0  0  0  0  0  0
    0.8390   -0.0850    0.0490 C   0  0  0  0  0  0  0  0  0  0  0  0
    1.5280    1.0690    0.0180 N   0  0  0  0  0  0  0  0  0  0  0  0
    0.6950    2.1180   -0.0780 C   0  0  0  0  0  0  0  0  0  0  0  0
   -0.5580    1.6260   -0.1090 N   0  0  0  0  0  0  0  0  0  0  0  0
   -0.4910    0.2750   -0.0320 C   0  0  0  0  0  0  0  0  0  0  0  0
   -1.6460   -0.6810   -0.0330 C   0  0  0  0  0  0  0  0  0  0  0  0
  1  2  1  0
  2  3  1  0
  2  6  2  0
  3  4  2  0
  4  5  1  0
  5  6  1  0
  6  7  1  0
M  END
