
     RDKit          3D

  7  7  0  0  0  0  0  0  0  0999 V2000
    1.7630   -0.6620   -0.0680 C   0  0  0  0  0  0  0  0  0  0  0  0
    0.2990   -0.4470   -0.0560 C   0  0  0  0  0  0  0  0  0  0  0  0
   -0.6080   -1.4320   -0.1980 N   0  0  0  0  0  0  0  0  0  0  0  0
   -1.8400   -0.8730   -0.1370 C   0  0  0  0  0  0  0  0  0  0  0  0
   -1.6720    0.4950    0.0470 C   0  0  0  0  0  0  0  0  0  0  0  0
   -0.3270    0.7650    0.0980 C   0  0  0  0  0  0  0  0  0  0  0  0
    0.3300    2.0080    0.2700 N   0  0  0  0  0  0  0  0  0  0  0  0
  1  2  1  0
  2  3  1  0
  2  6  2  0
  3  4  1  0
  4  5  2  0
  5  6  1  0
  6  7  1  0
M  END
