
     RDKit          3D

  7  6  0  0  0  0  0  0  0  0999 V2000
   -1.3410   -0.2570    1.4240 C   0  0  0  0  0  0  0  0  0  0  0  0
   -0.8410    0.0920    0.0780 C   0  0  0  0  0  0  0  0  0  0  0  0
   -1.6550    0.8460   -0.9070 C   0  0  0  0  0  0  0  0  0  0  0  0
    0.3770   -0.2610   -0.3090 C   0  0  0  0  0  0  0  0  0  0  0  0
    0.9160    0.0700   -1.6530 C   0  0  0  0  0  0  0  0  0  0  0  0
    1.1810   -0.9760    0.5920 N   0  0  0  0  0  0  0  0  0  0  0  0
    2.2740   -0.3370    1.1750 N   0  0  0  0  0  0  0  0  0  0  0  0
  1  2  1  0
  2  3  1  0
  2  4  2  3
  4  5  1  0
  4  6  1  0
  6  7  1  0
M  END
