
     RDKit          3D

  6  5  0  0  0  0  0  0  0  0999 V2000
   -1.4580   -1.0920    0.6370 C   0  0  0  0  0  0  0  0  0  0  0  0
   -0.5560   -0.1250   -0.0360 C   0  0  0  0  0  0  0  0  0  0  0  0
   -1.1760    0.7490   -1.0620 C   0  0  0  0  0  0  0  0  0  0  0  0
    0.7320   -0.0120    0.2310 C   0  0  0  0  0  0  0  0  0  0  0  0
    1.5500    0.9920   -0.5010 C   0  0  0  0  0  0  0  0  0  0  0  0
    1.3710   -0.8330    1.2120 N   0  0  0  0  0  0  0  0  0  0  0  0
  1  2  1  0
  2  3  1  0
  2  4  2  3
  4  5  1  0
  4  6  1  0
M  END
