
     RDKit          3D

  6  5  0  0  0  0  0  0  0  0999 V2000
   -1.1040    0.3660    1.3550 C   0  0  0  0  0  0  0  0  0  0  0  0
   -0.6100    0.0160    0.1860 C   0  0  0  0  0  0  0  0  0  0  0  0
   -1.4770   -0.4120   -0.9170 C   0  0  0  0  0  0  0  0  0  0  0  0
    0.8320    0.0600    0.0020 C   0  0  0  0  0  0  0  0  0  0  0  0
    1.3590   -0.2900   -1.1750 C   0  0  0  0  0  0  0  0  0  0  0  0
    1.7050    0.4660    1.0340 N   0  0  0  0  0  0  0  0  0  0  0  0
  1  2  2  0
  2  3  1  0
  2  4  1  0
  4  5  2  0
  4  6  1  0
M  END
