
     RDKit          3D

  8  8  0  0  0  0  0  0  0  0999 V2000
    2.7830    0.0520   -0.1920 N   0  0  0  0  0  0  0  0  0  0  0  0
    1.3530   -0.0220   -0.1810 C   0  0  0  0  0  0  0  0  0  0  0  0
    0.8180   -1.1930   -0.1250 N   0  0  0  0  0  0  0  0  0  0  0  0
   -0.5630   -1.6320   -0.0980 C   0  0  0  0  0  0  0  0  0  0  0  0
   -1.3990   -0.6620    0.7390 C   0  0  0  0  0  0  0  0  0  0  0  0
   -1.6990    0.5180   -0.1330 C   0  0  0  0  0  0  0  0  0  0  0  0
   -0.6810    1.6240    0.0180 C   0  0  0  0  0  0  0  0  0  0  0  0
    0.6630    1.2030   -0.2320 N   0  0  0  0  0  0  0  0  0  0  0  0
  1  2  1  0
  2  3  2  0
  2  8  1  0
  3  4  1  0
  4  5  1  0
  5  6  1  0
  6  7  1  0
  7  8  1  0
M  CHG  1   3   1
M  END
