
     RDKit          3D

  9  9  0  0  0  0  0  0  0  0999 V2000
   -2.8350    0.1470   -0.3700 N   0  0  0  0  0  0  0  0  0  0  0  0
   -1.8180    0.0130    0.5390 N   0  0  0  0  0  0  0  0  0  0  0  0
   -0.4230   -0.0130    0.2620 C   0  0  0  0  0  0  0  0  0  0  0  0
    0.2510   -1.1530   -0.1090 C   0  0  0  0  0  0  0  0  0  0  0  0
    1.5560   -1.2020   -0.3500 N   0  0  0  0  0  0  0  0  0  0  0  0
    2.2560   -0.0610   -0.2200 C   0  0  0  0  0  0  0  0  0  0  0  0
    1.6670    1.1370    0.1480 C   0  0  0  0  0  0  0  0  0  0  0  0
    2.4350    2.2310    0.2610 F   0  0  0  0  0  0  0  0  0  0  0  0
    0.2900    1.1590    0.3950 C   0  0  0  0  0  0  0  0  0  0  0  0
  1  2  1  0
  2  3  1  0
  3  4  2  0
  3  9  1  0
  4  5  1  0
  5  6  2  0
  6  7  1  0
  7  8  1  0
  7  9  2  0
M  CHG  1   5   1
M  END
