
     RDKit          3D

  8  8  0  0  0  0  0  0  0  0999 V2000
    2.8660   -0.1220    0.5100 N   0  0  0  0  0  0  0  0  0  0  0  0
    1.9250   -0.2990   -0.5140 N   0  0  0  0  0  0  0  0  0  0  0  0
    0.5380   -0.1230   -0.2940 C   0  0  0  0  0  0  0  0  0  0  0  0
   -0.1450   -1.0840    0.2820 C   0  0  0  0  0  0  0  0  0  0  0  0
   -1.6170   -0.9750    0.5500 C   0  0  0  0  0  0  0  0  0  0  0  0
   -2.1460    0.2870    0.1000 N   0  0  0  0  0  0  0  0  0  0  0  0
   -1.4090    1.3170   -0.5190 C   0  0  0  0  0  0  0  0  0  0  0  0
   -0.0980    1.1060   -0.7070 C   0  0  0  0  0  0  0  0  0  0  0  0
  1  2  1  0
  2  3  1  0
  3  4  2  0
  3  8  1  0
  4  5  1  0
  5  6  1  0
  6  7  1  0
  7  8  2  0
M  END
