
     RDKit          3D

  8  8  0  0  0  0  0  0  0  0999 V2000
    1.4210    1.6330    0.1080 N   0  0  0  0  0  0  0  0  0  0  0  0
    0.2990    0.7710    0.0320 C   0  0  0  0  0  0  0  0  0  0  0  0
   -1.0070    1.2160   -0.0320 C   0  0  0  0  0  0  0  0  0  0  0  0
   -2.0500    0.3270   -0.1030 C   0  0  0  0  0  0  0  0  0  0  0  0
   -1.7600   -1.0200   -0.1100 C   0  0  0  0  0  0  0  0  0  0  0  0
   -0.4980   -1.4900   -0.0480 N   0  0  0  0  0  0  0  0  0  0  0  0
    0.5170   -0.5840    0.0220 C   0  0  0  0  0  0  0  0  0  0  0  0
    1.8480   -1.0710    0.0870 N   0  0  0  0  0  0  0  0  0  0  0  0
  1  2  1  0
  2  3  2  0
  2  7  1  0
  3  4  1  0
  4  5  2  0
  5  6  1  0
  6  7  2  0
  7  8  1  0
M  CHG  1   6   1
M  END
