
     RDKit          3D

  9  9  0  0  0  0  0  0  0  0999 V2000
   -1.8710    0.5500   -1.2780 N   0  0  0  0  0  0  0  0  0  0  0  0
   -1.2770    0.1450   -0.0340 C   0  0  0  0  0  0  0  0  0  0  0  0
   -2.0700   -0.0470    0.9560 N   0  0  0  0  0  0  0  0  0  0  0  0
   -1.6810   -0.4260    2.1840 F   0  0  0  0  0  0  0  0  0  0  0  0
    0.1630   -0.0260    0.0450 C   0  0  0  0  0  0  0  0  0  0  0  0
    0.9070   -0.4010    1.1270 C   0  0  0  0  0  0  0  0  0  0  0  0
    2.2560   -0.4370    0.7520 C   0  0  0  0  0  0  0  0  0  0  0  0
    2.2800   -0.0720   -0.5780 C   0  0  0  0  0  0  0  0  0  0  0  0
    1.0280    0.1690   -0.9830 N   0  0  0  0  0  0  0  0  0  0  0  0
  1  2  1  0
  2  3  2  3
  2  5  1  0
  3  4  1  0
  5  6  2  0
  5  9  1  0
  6  7  1  0
  7  8  2  0
  8  9  1  0
M  CHG  1   3   1
M  END
