
     RDKit          3D

  9  9  0  0  0  0  0  0  0  0999 V2000
    2.6140    0.7570    0.2970 N   0  0  0  0  0  0  0  0  0  0  0  0
    1.7350   -0.2870   -0.0920 C   0  0  0  0  0  0  0  0  0  0  0  0
    2.2520   -1.3960   -0.8190 N   0  0  0  0  0  0  0  0  0  0  0  0
    0.4910   -0.2150    0.2160 N   0  0  0  0  0  0  0  0  0  0  0  0
   -0.4280   -1.2640   -0.1680 C   0  0  0  0  0  0  0  0  0  0  0  0
   -1.5650   -0.5910   -0.9270 C   0  0  0  0  0  0  0  0  0  0  0  0
   -2.2750    0.2870    0.1030 C   0  0  0  0  0  0  0  0  0  0  0  0
   -1.3310    1.4280    0.4100 C   0  0  0  0  0  0  0  0  0  0  0  0
   -0.0440    0.9070    0.9540 C   0  0  0  0  0  0  0  0  0  0  0  0
  1  2  1  0
  2  3  1  0
  2  4  2  3
  4  5  1  0
  4  9  1  0
  5  6  1  0
  6  7  1  0
  7  8  1  0
  8  9  1  0
M  CHG  1   4   1
M  END
