
     RDKit          3D

  8  8  0  0  0  0  0  0  0  0999 V2000
   -2.3970   -0.9770   -0.5810 N   0  0  0  0  0  0  0  0  0  0  0  0
   -1.2030   -0.2790   -0.2490 C   0  0  0  0  0  0  0  0  0  0  0  0
   -1.2030    1.0810    0.0220 C   0  0  0  0  0  0  0  0  0  0  0  0
   -0.0350    1.7390    0.3420 C   0  0  0  0  0  0  0  0  0  0  0  0
    1.1450    1.1140    0.4080 N   0  0  0  0  0  0  0  0  0  0  0  0
    1.1800   -0.2130    0.1490 C   0  0  0  0  0  0  0  0  0  0  0  0
    2.4450   -0.8760    0.2210 N   0  0  0  0  0  0  0  0  0  0  0  0
    0.0270   -0.9020   -0.1750 C   0  0  0  0  0  0  0  0  0  0  0  0
  1  2  1  0
  2  3  2  0
  2  8  1  0
  3  4  1  0
  4  5  2  0
  5  6  1  0
  6  7  1  0
  6  8  2  0
M  CHG  1   5   1
M  END
