
     RDKit          3D

 31 34  0  0  0  0  0  0  0  0999 V2000
    6.5920   -1.6120   -2.2740 C   0  0  0  0  0  0  0  0  0  0  0  0
    5.2150   -1.7660   -2.4330 O   0  0  0  0  0  0  0  0  0  0  0  0
    4.6240   -1.1880   -1.4040 O   0  0  0  0  0  0  0  0  0  0  0  0
    3.2410   -1.3770   -1.4190 C   0  0  0  0  0  0  0  0  0  0  0  0
    2.6780   -0.6900   -0.2360 C   0  0  0  0  0  0  0  0  0  0  0  0
    2.6680    0.6220   -0.1080 C   0  0  0  0  0  0  0  0  0  0  0  0
    3.1230    1.6240   -0.9370 C   0  0  0  0  0  0  0  0  0  0  0  0
    2.8630    2.8570   -0.3300 C   0  0  0  0  0  0  0  0  0  0  0  0
    2.2640    2.5470    0.8340 N   0  0  0  0  0  0  0  0  0  0  0  0
    2.1410    1.2630    0.9850 N   0  0  0  0  0  0  0  0  0  0  0  0
    1.5550    0.5890    2.1030 C   0  0  0  0  0  0  0  0  0  0  0  0
    0.2440    0.5790    2.1660 C   0  0  0  0  0  0  0  0  0  0  0  0
   -0.4550    1.2280    1.1350 N   0  0  0  0  0  0  0  0  0  0  0  0
   -1.8770    1.6170    1.1360 C   0  0  1  0  0  0  0  0  0  0  0  0
   -2.6160    0.4980    0.4770 C   0  0  0  0  0  0  0  0  0  0  0  0
   -3.9680    0.2220    0.4810 C   0  0  0  0  0  0  0  0  0  0  0  0
   -4.1920   -0.9150   -0.2590 C   0  0  0  0  0  0  0  0  0  0  0  0
   -5.4260   -1.6130   -0.5550 C   0  0  0  0  0  0  0  0  0  0  0  0
   -5.9950   -1.6280   -1.9300 C   0  0  0  0  0  0  0  0  0  0  0  0
   -6.1030   -2.2650    0.3660 C   0  0  0  0  0  0  0  0  0  0  0  0
   -6.7960   -2.7190    1.2890 O   0  0  0  0  0  0  0  0  0  0  0  0
   -2.9500   -1.2970   -0.6970 C   0  0  0  0  0  0  0  0  0  0  0  0
   -2.0680   -0.4660   -0.2570 O   0  0  0  0  0  0  0  0  0  0  0  0
   -2.2990    1.7730    2.4070 O   0  0  0  0  0  0  0  0  0  0  0  0
   -2.6980    0.7570    3.1840 C   0  0  0  0  0  0  0  0  0  0  0  0
   -1.6800   -0.1400    3.6510 O   0  0  0  0  0  0  0  0  0  0  0  0
   -0.3000   -0.1160    3.3250 C   0  0  0  0  0  0  0  0  0  0  0  0
    0.4850   -0.7360    4.0880 O   0  0  0  0  0  0  0  0  0  0  0  0
    3.3230    3.8470   -1.1680 O   0  0  0  0  0  0  0  0  0  0  0  0
    3.8440    3.2170   -2.2470 O   0  0  0  0  0  0  0  0  0  0  0  0
    3.7240    1.8390   -2.1110 C   0  0  0  0  0  0  0  0  0  0  0  0
  1  2  1  0
  2  3  1  0
  3  4  1  0
  4  5  1  0
  5  6  2  3
  6  7  1  0
  6 10  1  0
  7  8  1  0
  7 31  2  0
  8  9  2  0
  8 29  1  0
  9 10  1  0
 10 11  1  0
 11 12  2  3
 12 13  1  0
 12 27  1  0
 13 14  1  0
 14 15  1  1
 14 24  1  0
 15 16  2  0
 15 23  1  0
 16 17  1  0
 17 18  1  0
 17 22  2  0
 18 19  1  0
 18 20  2  0
 20 21  2  0
 22 23  1  0
 24 25  1  0
 25 26  1  0
 26 27  1  0
 27 28  2  0
 29 30  1  0
 30 31  1  0
M  END
