
     RDKit          3D

 31 31  0  0  0  0  0  0  0  0999 V2000
   -4.1330   -0.2600    2.6450 C   0  0  0  0  0  0  0  0  0  0  0  0
   -5.0860    0.2940    1.8460 C   0  0  0  0  0  0  0  0  0  0  0  0
   -6.3940    0.3560    2.5020 C   0  0  0  0  0  0  0  0  0  0  0  0
   -7.5200    0.8050    2.0690 C   0  0  0  0  0  0  0  0  0  0  0  0
   -7.7910    1.3510    0.8610 O   0  0  0  0  0  0  0  0  0  0  0  0
   -4.7850    0.7380    0.5190 C   0  0  0  0  0  0  0  0  0  0  0  0
   -5.7140    1.2700   -0.1920 O   0  0  0  0  0  0  0  0  0  0  0  0
   -3.5520    0.6620   -0.1280 N   0  0  0  0  0  0  0  0  0  0  0  0
   -3.3730    1.1770   -1.4950 C   0  0  0  0  0  0  0  0  0  0  0  0
   -3.6490    0.1000   -2.4850 C   0  0  0  0  0  0  0  0  0  0  0  0
   -4.9940   -0.4850   -2.4320 C   0  0  0  0  0  0  0  0  0  0  0  0
   -5.2100   -1.4110   -1.5900 O   0  0  0  0  0  0  0  0  0  0  0  0
   -5.9970   -0.0590   -3.2570 O   0  0  0  0  0  0  0  0  0  0  0  0
   -2.4590    0.1300    0.4140 O   0  0  0  0  0  0  0  0  0  0  0  0
   -2.2490   -1.0270   -0.1630 O   0  0  0  0  0  0  0  0  0  0  0  0
   -1.0520   -1.5190    0.0490 O   0  0  0  0  0  0  0  0  0  0  0  0
    0.0830   -0.7210    0.0110 C   0  0  0  0  0  0  0  0  0  0  0  0
    0.0610    0.4740    0.4160 N   0  0  0  0  0  0  0  0  0  0  0  0
    1.1520    1.4100    0.4350 C   0  0  1  0  0  0  0  0  0  0  0  0
    0.8700    2.6100   -0.4700 C   0  0  0  0  0  0  0  0  0  0  0  0
    1.1660    1.9960    1.8570 C   0  0  0  0  0  0  0  0  0  0  0  0
    2.4980    0.8410    0.1800 C   0  0  0  0  0  0  0  0  0  0  0  0
    2.5130   -0.5330   -0.2040 N   0  0  0  0  0  0  0  0  0  0  0  0
    3.7650   -1.2010   -0.2870 C   0  0  0  0  0  0  0  0  0  0  0  0
    3.8580   -2.4300   -0.6240 O   0  0  0  0  0  0  0  0  0  0  0  0
    4.9900   -0.5910   -0.0160 O   0  0  0  0  0  0  0  0  0  0  0  0
    6.2170   -1.2930   -0.1110 C   0  0  1  0  0  0  0  0  0  0  0  0
    6.4590   -1.8270   -1.5060 C   0  0  0  0  0  0  0  0  0  0  0  0
    7.3200   -0.3180    0.2400 C   0  0  0  0  0  0  0  0  0  0  0  0
    6.2100   -2.4670    0.8330 C   0  0  0  0  0  0  0  0  0  0  0  0
    1.3310   -1.3060   -0.5190 C   0  0  0  0  0  0  0  0  0  0  0  0
  1  2  2  0
  2  3  1  0
  2  6  1  0
  3  4  2  3
  4  5  1  0
  6  7  2  0
  6  8  1  0
  8  9  1  0
  8 14  1  0
  9 10  1  0
 10 11  1  0
 11 12  2  0
 11 13  1  0
 14 15  1  0
 15 16  1  0
 16 17  1  0
 17 18  2  0
 17 31  1  0
 18 19  1  0
 19 20  1  6
 19 21  1  0
 19 22  1  0
 22 23  1  0
 23 24  1  0
 23 31  1  0
 24 25  2  0
 24 26  1  0
 26 27  1  0
 27 28  1  6
 27 29  1  0
 27 30  1  0
M  END
