
     RDKit          3D

 31 31  0  0  0  0  0  0  0  0999 V2000
   -0.6270   -3.7050   -0.7550 C   0  0  0  0  0  0  0  0  0  0  0  0
   -2.0350   -3.2510   -0.6680 C   0  0  1  0  0  0  0  0  0  0  0  0
   -2.8560   -4.2450    0.1670 C   0  0  0  0  0  0  0  0  0  0  0  0
   -2.2660   -1.8480   -0.2110 C   0  0  0  0  0  0  0  0  0  0  0  0
   -1.6290   -0.7980   -1.0710 C   0  0  2  0  0  0  0  0  0  0  0  0
   -0.2400   -0.7980   -1.1970 N   0  0  0  0  0  0  0  0  0  0  0  0
    0.8610   -0.4160    0.0060 P   0  0  0  0  0  0  0  0  0  0  0  0
    1.7990   -1.5730   -0.4080 O   0  0  0  0  0  0  0  0  0  0  0  0
    0.8680   -1.1210    1.5090 O   0  0  0  0  0  0  0  0  0  0  0  0
    2.0010    0.9060   -0.2670 C   0  0  0  0  0  0  0  0  0  0  0  0
    3.2870    0.6110   -0.8250 N   0  0  0  0  0  0  0  0  0  0  0  0
    4.1740   -0.2550   -0.1120 C   0  0  0  0  0  0  0  0  0  0  0  0
    3.8390   -0.7580    0.9990 O   0  0  0  0  0  0  0  0  0  0  0  0
    5.4180   -0.5810   -0.5930 O   0  0  0  0  0  0  0  0  0  0  0  0
    6.2700   -1.4340    0.1260 C   0  0  0  0  0  0  0  0  0  0  0  0
    6.5580   -0.8390    1.4450 C   0  0  0  0  0  0  0  0  0  0  0  0
    6.0550   -1.4190    2.5810 C   0  0  0  0  0  0  0  0  0  0  0  0
    6.3080   -0.8790    3.8490 C   0  0  0  0  0  0  0  0  0  0  0  0
    7.0770    0.2570    3.9490 C   0  0  0  0  0  0  0  0  0  0  0  0
    7.5730    0.8260    2.7960 C   0  0  0  0  0  0  0  0  0  0  0  0
    7.3190    0.2860    1.5460 C   0  0  0  0  0  0  0  0  0  0  0  0
   -2.2180    0.5680   -0.8680 C   0  0  0  0  0  0  0  0  0  0  0  0
   -1.4460    1.5840   -0.7990 O   0  0  0  0  0  0  0  0  0  0  0  0
   -3.5960    0.8410   -0.7450 N   0  0  0  0  0  0  0  0  0  0  0  0
   -4.1220    2.2040   -0.5470 C   0  0  1  0  0  0  0  0  0  0  0  0
   -4.9200    2.6420   -1.7110 C   0  0  0  0  0  0  0  0  0  0  0  0
   -5.4540    4.0270   -1.5100 C   0  0  0  0  0  0  0  0  0  0  0  0
   -6.2010    4.4830   -2.6900 N   0  0  0  0  0  0  0  0  0  0  0  0
   -4.8220    2.3290    0.7140 C   0  0  0  0  0  0  0  0  0  0  0  0
   -5.0300    1.3200    1.4730 O   0  0  0  0  0  0  0  0  0  0  0  0
   -5.3010    3.5240    1.1790 O   0  0  0  0  0  0  0  0  0  0  0  0
  2  1  1  1
  2  3  1  0
  2  4  1  0
  5  4  1  1
  5  6  1  0
  5 22  1  0
  6  7  1  0
  7  8  1  0
  7  9  1  0
  7 10  1  0
 10 11  1  0
 11 12  1  0
 12 13  2  0
 12 14  1  0
 14 15  1  0
 15 16  1  0
 16 17  2  0
 16 21  1  0
 17 18  1  0
 18 19  2  0
 19 20  1  0
 20 21  2  0
 22 23  2  0
 22 24  1  0
 24 25  1  0
 25 26  1  6
 25 29  1  0
 26 27  1  0
 27 28  1  0
 29 30  2  0
 29 31  1  0
M  CHG  1  28   1
M  END
