
     RDKit          3D

 30 32  0  0  0  0  0  0  0  0999 V2000
   -2.8110   -1.5120   -2.4510 C   0  0  0  0  0  0  0  0  0  0  0  0
   -1.4890   -1.7170   -2.5520 O   0  0  0  0  0  0  0  0  0  0  0  0
   -0.6680   -1.6370   -1.4740 C   0  0  2  0  0  0  0  0  0  0  0  0
   -0.5580   -0.2640   -0.8610 C   0  0  0  0  0  0  0  0  0  0  0  0
   -0.8880    0.8070   -1.5340 C   0  0  0  0  0  0  0  0  0  0  0  0
   -0.8170    2.1450   -1.0060 C   0  0  0  0  0  0  0  0  0  0  0  0
   -1.3590    2.5430    0.2080 C   0  0  0  0  0  0  0  0  0  0  0  0
   -1.2690    3.8230    0.6990 C   0  0  0  0  0  0  0  0  0  0  0  0
   -0.6430    4.7210   -0.0080 O   0  0  0  0  0  0  0  0  0  0  0  0
   -0.1090    4.4310   -1.1550 C   0  0  0  0  0  0  0  0  0  0  0  0
    0.5040    5.3480   -1.8280 N   0  0  0  0  0  0  0  0  0  0  0  0
    0.6050    6.6180   -1.3630 O   0  0  0  0  0  0  0  0  0  0  0  0
   -0.1620    3.1720   -1.7040 C   0  0  0  0  0  0  0  0  0  0  0  0
    0.0420   -0.1280    0.4830 C   0  0  0  0  0  0  0  0  0  0  0  0
    1.3110   -0.7260    0.4840 O   0  0  0  0  0  0  0  0  0  0  0  0
    1.9370   -0.6590    1.6610 N   0  0  0  0  0  0  0  0  0  0  0  0
    3.2980   -0.2130    1.4080 C   0  0  2  0  0  0  0  0  0  0  0  0
    3.2080    1.1570    0.7690 C   0  0  0  0  0  0  0  0  0  0  0  0
    3.8730   -1.2070    0.3890 C   0  0  0  0  0  0  0  0  0  0  0  0
    4.1500   -0.2260    2.6520 C   0  0  0  0  0  0  0  0  0  0  0  0
    0.6630   -2.2070   -1.8470 C   0  0  0  0  0  0  0  0  0  0  0  0
    0.5770   -3.5320   -1.4380 O   0  0  0  0  0  0  0  0  0  0  0  0
   -0.3470   -3.6150   -0.4570 N   0  0  0  0  0  0  0  0  0  0  0  0
   -1.1050   -2.5930   -0.3900 C   0  0  0  0  0  0  0  0  0  0  0  0
   -2.2080   -2.3360    0.5310 C   0  0  0  0  0  0  0  0  0  0  0  0
   -2.5270   -3.2330    1.4550 C   0  0  0  0  0  0  0  0  0  0  0  0
   -3.6020   -2.9340    2.3200 O   0  0  0  0  0  0  0  0  0  0  0  0
   -4.5810   -2.0640    1.7250 C   0  0  0  0  0  0  0  0  0  0  0  0
   -3.9040   -0.8910    1.4080 O   0  0  0  0  0  0  0  0  0  0  0  0
   -2.9680   -1.1870    0.5050 O   0  0  0  0  0  0  0  0  0  0  0  0
  1  2  1  0
  3  2  1  6
  3  4  1  0
  3 21  1  0
  3 24  1  0
  4  5  2  3
  4 14  1  0
  5  6  1  0
  6  7  1  0
  6 13  2  0
  7  8  2  0
  8  9  1  0
  9 10  1  0
 10 11  2  3
 10 13  1  0
 11 12  1  0
 14 15  1  0
 15 16  1  0
 16 17  1  0
 17 18  1  6
 17 19  1  0
 17 20  1  0
 21 22  1  0
 22 23  1  0
 23 24  2  0
 24 25  1  0
 25 26  2  0
 25 30  1  0
 26 27  1  0
 27 28  1  0
 28 29  1  0
 29 30  1  0
M  END
