
     RDKit          3D

 30 31  0  0  0  0  0  0  0  0999 V2000
    2.2000   -1.4690   -2.7770 C   0  0  0  0  0  0  0  0  0  0  0  0
    3.4460   -1.5380   -3.1170 C   0  0  0  0  0  0  0  0  0  0  0  0
    4.5440   -1.0540   -2.2960 C   0  0  0  0  0  0  0  0  0  0  0  0
    5.7520   -1.2190   -2.8260 C   0  0  0  0  0  0  0  0  0  0  0  0
    6.9760   -0.8210   -2.2030 C   0  0  0  0  0  0  0  0  0  0  0  0
    8.0850   -1.0470   -2.8430 O   0  0  0  0  0  0  0  0  0  0  0  0
    4.3190   -0.4430   -1.0040 C   0  0  0  0  0  0  0  0  0  0  0  0
    5.3020    0.0200   -0.2090 N   0  0  0  0  0  0  0  0  0  0  0  0
    5.1550    0.5850    0.9760 C   0  0  0  0  0  0  0  0  0  0  0  0
    3.8860    0.7340    1.4840 C   0  0  0  0  0  0  0  0  0  0  0  0
    3.6380    1.3630    2.8160 C   0  0  0  0  0  0  0  0  0  0  0  0
    2.8380    0.2800    0.7180 C   0  0  0  0  0  0  0  0  0  0  0  0
    1.5550    0.4300    1.2310 O   0  0  0  0  0  0  0  0  0  0  0  0
    0.4070   -0.0160    0.4950 C   0  0  0  0  0  0  0  0  0  0  0  0
   -0.7940    0.2990    1.3350 C   0  0  2  0  0  0  0  0  0  0  0  0
   -0.7240    1.7520    1.7390 C   0  0  0  0  0  0  0  0  0  0  0  0
   -0.6400   -0.5090    2.6320 C   0  0  0  0  0  0  0  0  0  0  0  0
   -2.0130   -0.0690    0.7750 O   0  0  0  0  0  0  0  0  0  0  0  0
   -2.5440    0.3750   -0.4180 C   0  0  0  0  0  0  0  0  0  0  0  0
   -1.7950    1.2100   -1.0340 O   0  0  0  0  0  0  0  0  0  0  0  0
   -3.7820   -0.0100   -0.9690 N   0  0  0  0  0  0  0  0  0  0  0  0
   -4.1480    0.5230   -2.1490 O   0  0  0  0  0  0  0  0  0  0  0  0
   -5.3180    1.2570   -1.9680 C   0  0  2  0  0  0  0  0  0  0  0  0
   -5.0300    2.6200   -2.0200 O   0  0  0  0  0  0  0  0  0  0  0  0
   -5.9250    1.0090   -0.7510 O   0  0  0  0  0  0  0  0  0  0  0  0
   -6.0850   -0.3740   -0.5310 C   0  0  0  0  0  0  0  0  0  0  0  0
   -4.6910   -0.9380   -0.3580 C   0  0  2  0  0  0  0  0  0  0  0  0
   -4.3840   -1.3070    1.0520 C   0  0  0  0  0  0  0  0  0  0  0  0
   -4.3800   -0.2030    1.9070 O   0  0  0  0  0  0  0  0  0  0  0  0
    3.0810   -0.2790   -0.4720 N   0  0  0  0  0  0  0  0  0  0  0  0
  1  2  2  0
  2  3  1  0
  3  4  2  3
  3  7  1  0
  4  5  1  0
  5  6  2  0
  7  8  2  0
  7 30  1  0
  8  9  1  0
  9 10  2  0
 10 11  1  0
 10 12  1  0
 12 13  1  0
 12 30  2  0
 13 14  1  0
 14 15  1  0
 15 16  1  1
 15 17  1  0
 15 18  1  0
 18 19  1  0
 19 20  2  0
 19 21  1  0
 21 22  1  0
 21 27  1  0
 22 23  1  0
 23 24  1  1
 23 25  1  0
 25 26  1  0
 26 27  1  0
 27 28  1  1
 28 29  1  0
M  END
