
     RDKit          3D

 31 32  0  0  0  0  0  0  0  0999 V2000
    7.3180   -0.2000   -0.2610 C   0  0  0  0  0  0  0  0  0  0  0  0
    6.5650   -1.1880    0.1720 C   0  0  0  0  0  0  0  0  0  0  0  0
    6.5830   -1.4930    1.6380 C   0  0  0  0  0  0  0  0  0  0  0  0
    5.7820   -1.9180   -0.7120 O   0  0  0  0  0  0  0  0  0  0  0  0
    4.4530   -2.2440   -0.4370 C   0  0  0  0  0  0  0  0  0  0  0  0
    3.6140   -1.1730   -0.2480 O   0  0  0  0  0  0  0  0  0  0  0  0
    3.5250   -0.3270   -1.3270 C   0  0  2  0  0  0  0  0  0  0  0  0
    3.8790    1.0470   -0.9060 C   0  0  0  0  0  0  0  0  0  0  0  0
    4.2400    1.2820    0.3470 C   0  0  0  0  0  0  0  0  0  0  0  0
    3.8420    2.2010   -1.8660 C   0  0  0  0  0  0  0  0  0  0  0  0
    2.1100   -0.3190   -1.8190 C   0  0  0  0  0  0  0  0  0  0  0  0
    1.7040   -0.3970   -3.0870 N   0  0  0  0  0  0  0  0  0  0  0  0
    0.3490   -0.3520   -3.0330 C   0  0  0  0  0  0  0  0  0  0  0  0
   -0.0400   -0.2460   -1.7140 C   0  0  0  0  0  0  0  0  0  0  0  0
   -1.4160   -0.1700   -1.2410 C   0  0  0  0  0  0  0  0  0  0  0  0
   -2.3690   -0.1980   -2.0390 O   0  0  0  0  0  0  0  0  0  0  0  0
   -1.7050   -0.0610    0.1440 N   0  0  0  0  0  0  0  0  0  0  0  0
   -3.0450    0.0150    0.6390 C   0  0  0  0  0  0  0  0  0  0  0  0
   -3.5070    1.0350    1.3370 C   0  0  0  0  0  0  0  0  0  0  0  0
   -4.8970    1.1070    1.8470 C   0  0  1  0  0  0  0  0  0  0  0  0
   -5.5840    2.2390    1.3510 O   0  0  0  0  0  0  0  0  0  0  0  0
   -6.0100    3.2250    2.2220 C   0  0  0  0  0  0  0  0  0  0  0  0
   -5.7710    3.0820    3.4370 O   0  0  0  0  0  0  0  0  0  0  0  0
   -6.6960    4.3670    1.7720 O   0  0  0  0  0  0  0  0  0  0  0  0
   -5.6630   -0.0190    1.5080 O   0  0  0  0  0  0  0  0  0  0  0  0
   -5.1610   -1.0710    0.7790 C   0  0  0  0  0  0  0  0  0  0  0  0
   -6.0160   -2.2570    0.4390 C   0  0  0  0  0  0  0  0  0  0  0  0
   -7.1200   -1.8790   -0.3120 O   0  0  0  0  0  0  0  0  0  0  0  0
   -6.7580   -1.2760   -1.5130 C   0  0  0  0  0  0  0  0  0  0  0  0
   -3.9430   -1.0450    0.3800 N   0  0  0  0  0  0  0  0  0  0  0  0
    1.0640   -0.2300   -1.0170 O   0  0  0  0  0  0  0  0  0  0  0  0
  1  2  2  0
  2  3  1  0
  2  4  1  0
  4  5  1  0
  5  6  1  0
  7  6  1  1
  7  8  1  0
  7 11  1  0
  8  9  2  0
  8 10  1  0
 11 12  2  0
 11 31  1  0
 12 13  1  0
 13 14  2  0
 14 15  1  0
 14 31  1  0
 15 16  2  0
 15 17  1  0
 17 18  1  0
 18 19  2  0
 18 30  1  0
 19 20  1  0
 20 21  1  6
 20 25  1  0
 21 22  1  0
 22 23  2  0
 22 24  1  0
 25 26  1  0
 26 27  1  0
 26 30  2  0
 27 28  1  0
 28 29  1  0
M  END
