
     RDKit          3D

 31 31  0  0  0  0  0  0  0  0999 V2000
   -7.0310    0.7070   -1.2240 C   0  0  0  0  0  0  0  0  0  0  0  0
   -6.0550    0.6000   -0.3530 C   0  0  0  0  0  0  0  0  0  0  0  0
   -5.1030    0.4230    0.5290 C   0  0  0  0  0  0  0  0  0  0  0  0
   -5.5130    0.3860    1.8310 O   0  0  0  0  0  0  0  0  0  0  0  0
   -5.6710   -0.8390    2.4060 O   0  0  0  0  0  0  0  0  0  0  0  0
   -5.8170   -1.8370    1.4650 C   0  0  0  0  0  0  0  0  0  0  0  0
   -3.8540    0.3040    0.0130 O   0  0  0  0  0  0  0  0  0  0  0  0
   -2.6920    0.1300    0.7110 C   0  0  0  0  0  0  0  0  0  0  0  0
   -2.7570    0.0730    1.9780 O   0  0  0  0  0  0  0  0  0  0  0  0
   -1.4100    0.0090    0.0520 N   0  0  0  0  0  0  0  0  0  0  0  0
   -1.3590    0.0520   -1.3880 C   0  0  0  0  0  0  0  0  0  0  0  0
   -1.2300    1.4940   -1.8300 C   0  0  0  0  0  0  0  0  0  0  0  0
   -1.1600    1.5460   -3.2980 C   0  0  0  0  0  0  0  0  0  0  0  0
   -0.3540    0.7970   -3.9160 O   0  0  0  0  0  0  0  0  0  0  0  0
   -1.9870    2.4230   -4.0300 O   0  0  0  0  0  0  0  0  0  0  0  0
   -0.2290   -0.1620    0.7840 C   0  0  0  0  0  0  0  0  0  0  0  0
    0.9790   -0.2860    0.2120 C   0  0  0  0  0  0  0  0  0  0  0  0
    2.1230   -0.4550    1.0570 C   0  0  0  0  0  0  0  0  0  0  0  0
    3.3800   -0.6080    0.7910 C   0  0  0  0  0  0  0  0  0  0  0  0
    4.0830   -0.6620   -0.4630 C   0  0  0  0  0  0  0  0  0  0  0  0
    5.3650   -0.8420   -0.6900 C   0  0  0  0  0  0  0  0  0  0  0  0
    6.4430   -1.0350    0.2500 C   0  0  0  0  0  0  0  0  0  0  0  0
    6.4510   -1.0830    1.6950 C   0  0  0  0  0  0  0  0  0  0  0  0
    7.6020   -1.1920   -0.3160 O   0  0  0  0  0  0  0  0  0  0  0  0
    5.5490   -0.8410   -2.2030 C   0  0  0  0  0  0  0  0  0  0  0  0
    4.4330   -0.2840   -2.7290 O   0  0  0  0  0  0  0  0  0  0  0  0
    3.4040   -0.4660   -1.8020 C   0  0  0  0  0  0  0  0  0  0  0  0
   -0.2890   -0.1880    2.1990 N   0  0  0  0  0  0  0  0  0  0  0  0
   -0.3160    0.8890    2.9150 C   0  0  0  0  0  0  0  0  0  0  0  0
   -0.2870    2.1890    2.3400 N   0  0  0  0  0  0  0  0  0  0  0  0
   -0.3750    0.7690    4.2780 O   0  0  0  0  0  0  0  0  0  0  0  0
  1  2  2  0
  2  3  2  0
  3  4  1  0
  3  7  1  0
  4  5  1  0
  5  6  1  0
  7  8  1  0
  8  9  2  0
  8 10  1  0
 10 11  1  0
 10 16  1  0
 11 12  1  0
 12 13  1  0
 13 14  2  0
 13 15  1  0
 16 17  2  3
 16 28  1  0
 17 18  1  0
 18 19  2  3
 19 20  1  0
 20 21  2  0
 20 27  1  0
 21 22  1  0
 21 25  1  0
 22 23  1  0
 22 24  2  0
 25 26  1  0
 26 27  1  0
 28 29  2  3
 29 30  1  0
 29 31  1  0
M  END
