
     RDKit          3D

 31 32  0  0  0  0  0  0  0  0999 V2000
    4.7340   -0.7240    2.5520 C   0  0  0  0  0  0  0  0  0  0  0  0
    4.5410   -1.2370    1.1330 C   0  0  2  0  0  0  0  0  0  0  0  0
    5.5590   -2.1440    0.7960 O   0  0  0  0  0  0  0  0  0  0  0  0
    5.1050   -3.3070    0.4430 O   0  0  0  0  0  0  0  0  0  0  0  0
    4.6480   -0.1690    0.2750 O   0  0  0  0  0  0  0  0  0  0  0  0
    3.4750   -0.0060   -0.4940 C   0  0  1  0  0  0  0  0  0  0  0  0
    2.9930    1.3660   -0.3510 C   0  0  0  0  0  0  0  0  0  0  0  0
    1.7410    1.6890   -0.2510 C   0  0  0  0  0  0  0  0  0  0  0  0
    0.5980    0.8150   -0.2600 C   0  0  0  0  0  0  0  0  0  0  0  0
    0.5260   -0.5220   -0.3690 N   0  0  0  0  0  0  0  0  0  0  0  0
   -0.7480   -0.9390   -0.3310 C   0  0  0  0  0  0  0  0  0  0  0  0
   -1.1960   -2.2010   -0.4120 C   0  0  0  0  0  0  0  0  0  0  0  0
   -2.6230   -2.5580   -0.3610 C   0  0  1  0  0  0  0  0  0  0  0  0
   -3.5350   -1.4010   -0.1740 C   0  0  0  0  0  0  0  0  0  0  0  0
   -2.9620   -3.2970   -1.6590 C   0  0  0  0  0  0  0  0  0  0  0  0
   -2.8090   -3.4960    0.7700 C   0  0  0  0  0  0  0  0  0  0  0  0
   -3.5790   -3.1710    1.7020 O   0  0  0  0  0  0  0  0  0  0  0  0
   -2.1700   -4.7140    0.8410 O   0  0  0  0  0  0  0  0  0  0  0  0
   -1.4510    0.1500   -0.1990 O   0  0  0  0  0  0  0  0  0  0  0  0
   -0.7230    1.2270   -0.1500 C   0  0  0  0  0  0  0  0  0  0  0  0
   -1.1370    2.4970   -0.0190 C   0  0  0  0  0  0  0  0  0  0  0  0
   -2.5460    2.7450    0.0830 C   0  0  0  0  0  0  0  0  0  0  0  0
   -3.3830    1.8260    0.0530 O   0  0  0  0  0  0  0  0  0  0  0  0
   -3.0200    4.0890    0.2240 N   0  0  0  0  0  0  0  0  0  0  0  0
   -2.2270    5.1750    0.2700 C   0  0  0  0  0  0  0  0  0  0  0  0
   -3.0540    6.2590    0.4090 C   0  0  0  0  0  0  0  0  0  0  0  0
   -4.3310    5.7610    0.4400 C   0  0  0  0  0  0  0  0  0  0  0  0
   -4.2800    4.4330    0.3250 N   0  0  0  0  0  0  0  0  0  0  0  0
    3.7820   -0.2550   -1.8710 O   0  0  0  0  0  0  0  0  0  0  0  0
    3.3180   -1.3240   -2.5830 C   0  0  0  0  0  0  0  0  0  0  0  0
    2.5810   -2.1650   -2.0540 O   0  0  0  0  0  0  0  0  0  0  0  0
  2  1  1  1
  2  3  1  0
  2  5  1  0
  3  4  1  0
  6  5  1  1
  6  7  1  0
  6 29  1  0
  7  8  2  3
  8  9  1  0
  9 10  2  0
  9 20  1  0
 10 11  1  0
 11 12  2  3
 11 19  1  0
 12 13  1  0
 13 14  1  1
 13 15  1  0
 13 16  1  0
 16 17  2  0
 16 18  1  0
 19 20  1  0
 20 21  2  3
 21 22  1  0
 22 23  2  0
 22 24  1  0
 24 25  1  0
 24 28  1  0
 25 26  2  0
 26 27  1  0
 27 28  2  0
 29 30  1  0
 30 31  2  0
M  END
