
     RDKit          3D

 31 31  0  0  0  0  0  0  0  0999 V2000
   -2.4490    2.7000    1.6510 C   0  0  0  0  0  0  0  0  0  0  0  0
   -2.2970    1.3420    1.4790 O   0  0  0  0  0  0  0  0  0  0  0  0
   -1.3770    0.7370    0.6740 C   0  0  0  0  0  0  0  0  0  0  0  0
   -0.4610    1.3660    0.1870 N   0  0  0  0  0  0  0  0  0  0  0  0
    0.1600    2.4620    0.0270 O   0  0  0  0  0  0  0  0  0  0  0  0
    0.2720    3.7660    0.3740 C   0  0  0  0  0  0  0  0  0  0  0  0
    1.3490    4.4670   -0.3010 N   0  0  0  0  0  0  0  0  0  0  0  0
    1.4060    5.6410   -0.1330 O   0  0  0  0  0  0  0  0  0  0  0  0
   -1.4950   -0.7640    0.3750 C   0  0  0  0  0  0  0  0  0  0  0  0
   -2.6050   -1.3800    0.9950 C   0  0  0  0  0  0  0  0  0  0  0  0
   -3.3020   -0.4540    1.7050 O   0  0  0  0  0  0  0  0  0  0  0  0
   -3.1430   -2.6420    1.0620 N   0  0  0  0  0  0  0  0  0  0  0  0
   -4.4310   -2.6400    1.9270 C   0  0  0  0  0  0  0  0  0  0  0  0
   -2.8940   -3.9270    0.6180 C   0  0  0  0  0  0  0  0  0  0  0  0
   -3.8730   -5.0530    1.0490 C   0  0  0  0  0  0  0  0  0  0  0  0
   -2.0020   -4.4170   -0.0960 O   0  0  0  0  0  0  0  0  0  0  0  0
   -0.5840   -1.2580   -0.3890 C   0  0  0  0  0  0  0  0  0  0  0  0
   -0.4330   -2.5540   -0.8280 O   0  0  0  0  0  0  0  0  0  0  0  0
    0.6700   -3.1380   -1.4210 C   0  0  0  0  0  0  0  0  0  0  0  0
    0.5200   -0.4070   -0.9410 C   0  0  0  0  0  0  0  0  0  0  0  0
    0.4030    0.1990   -2.1690 C   0  0  0  0  0  0  0  0  0  0  0  0
    1.4530    0.9450   -2.6990 C   0  0  0  0  0  0  0  0  0  0  0  0
    1.3510    1.6080   -4.0210 C   0  0  0  0  0  0  0  0  0  0  0  0
    2.6370    1.0900   -1.9970 C   0  0  0  0  0  0  0  0  0  0  0  0
    2.7590    0.4840   -0.7660 C   0  0  0  0  0  0  0  0  0  0  0  0
    4.0160    0.6270   -0.0050 C   0  0  0  0  0  0  0  0  0  0  0  0
    4.0080    1.7840    0.8370 O   0  0  0  0  0  0  0  0  0  0  0  0
    5.1600    1.9830    1.5850 C   0  0  0  0  0  0  0  0  0  0  0  0
    6.1620    1.2330    1.5600 O   0  0  0  0  0  0  0  0  0  0  0  0
    5.2030    3.0900    2.4180 O   0  0  0  0  0  0  0  0  0  0  0  0
    1.7010   -0.2600   -0.2470 C   0  0  0  0  0  0  0  0  0  0  0  0
  1  2  1  0
  2  3  1  0
  3  4  2  3
  3  9  1  0
  4  5  1  0
  5  6  1  0
  6  7  1  0
  7  8  2  0
  9 10  1  0
  9 17  2  3
 10 11  2  0
 10 12  1  0
 12 13  1  0
 12 14  1  0
 14 15  1  0
 14 16  2  0
 17 18  1  0
 17 20  1  0
 18 19  1  0
 20 21  2  0
 20 31  1  0
 21 22  1  0
 22 23  1  0
 22 24  2  0
 24 25  1  0
 25 26  1  0
 25 31  2  0
 26 27  1  0
 27 28  1  0
 28 29  2  0
 28 30  1  0
M  END
