
     RDKit          3D

 35 39  0  0  0  0  0  0  0  0999 V2000
   -6.6200    4.1340   -1.3720 C   0  0  0  0  0  0  0  0  0  0  0  0
   -6.4260    2.7800   -0.7790 C   0  0  0  0  0  0  0  0  0  0  0  0
   -6.0400    2.6310    0.5380 C   0  0  0  0  0  0  0  0  0  0  0  0
   -5.8710    1.3390    1.0480 C   0  0  0  0  0  0  0  0  0  0  0  0
   -6.0830    0.2390    0.2640 C   0  0  0  0  0  0  0  0  0  0  0  0
   -5.9060   -1.1130    0.8150 C   0  0  0  0  0  0  0  0  0  0  0  0
   -4.4610   -1.4870    0.6280 C   0  0  0  0  0  0  0  0  0  0  0  0
   -3.9310   -2.0820   -0.4640 N   0  0  0  0  0  0  0  0  0  0  0  0
   -2.6360   -2.2470   -0.2520 N   0  0  0  0  0  0  0  0  0  0  0  0
   -2.3320   -1.7550    0.9850 C   0  0  0  0  0  0  0  0  0  0  0  0
   -1.0050   -1.7530    1.5840 C   0  0  0  0  0  0  0  0  0  0  0  0
   -0.7520   -1.2480    2.8380 C   0  0  0  0  0  0  0  0  0  0  0  0
    0.5160   -1.2560    3.3970 C   0  0  0  0  0  0  0  0  0  0  0  0
    1.5800   -1.7790    2.6990 C   0  0  0  0  0  0  0  0  0  0  0  0
    1.3430   -2.2980    1.4190 C   0  0  0  0  0  0  0  0  0  0  0  0
    2.3950   -2.8670    0.6670 N   0  0  0  0  0  0  0  0  0  0  0  0
    2.1930   -3.1860   -0.7220 C   0  0  0  0  0  0  0  0  0  0  0  0
    2.0300   -1.9050   -1.4630 C   0  0  0  0  0  0  0  0  0  0  0  0
    1.1000   -1.7070   -2.4560 C   0  0  0  0  0  0  0  0  0  0  0  0
    1.0250   -0.4860   -3.1080 C   0  0  0  0  0  0  0  0  0  0  0  0
    1.8780    0.5330   -2.7690 C   0  0  0  0  0  0  0  0  0  0  0  0
    1.8160    1.7510   -3.4070 F   0  0  0  0  0  0  0  0  0  0  0  0
    2.8200    0.3220   -1.7600 C   0  0  0  0  0  0  0  0  0  0  0  0
    3.6720    1.4470   -1.4450 N   0  0  0  0  0  0  0  0  0  0  0  0
    4.7950    1.3210   -0.5890 C   0  0  0  0  0  0  0  0  0  0  0  0
    5.5600    0.2980   -0.8010 N   0  0  0  0  0  0  0  0  0  0  0  0
    6.7430   -0.0090   -0.0430 C   0  0  0  0  0  0  0  0  0  0  0  0
    6.6500    0.6080    1.2530 N   0  0  0  0  0  0  0  0  0  0  0  0
    6.4660    2.0370    1.0690 C   0  0  0  0  0  0  0  0  0  0  0  0
    5.0980    2.3050    0.4720 C   0  0  0  0  0  0  0  0  0  0  0  0
    2.8750   -0.8760   -1.1350 C   0  0  0  0  0  0  0  0  0  0  0  0
    0.0700   -2.2770    0.8880 C   0  0  0  0  0  0  0  0  0  0  0  0
   -3.4680   -1.3150    1.4560 O   0  0  0  0  0  0  0  0  0  0  0  0
   -6.4670    0.3970   -1.0400 C   0  0  0  0  0  0  0  0  0  0  0  0
   -6.6340    1.6700   -1.5460 C   0  0  0  0  0  0  0  0  0  0  0  0
  1  2  1  0
  2  3  2  0
  2 35  1  0
  3  4  1  0
  4  5  2  0
  5  6  1  0
  5 34  1  0
  6  7  1  0
  7  8  2  0
  7 33  1  0
  8  9  1  0
  9 10  2  0
 10 11  1  0
 10 33  1  0
 11 12  2  0
 11 32  1  0
 12 13  1  0
 13 14  2  0
 14 15  1  0
 15 16  1  0
 15 32  2  0
 16 17  1  0
 17 18  1  0
 18 19  2  0
 18 31  1  0
 19 20  1  0
 20 21  2  0
 21 22  1  0
 21 23  1  0
 23 24  1  0
 23 31  2  0
 24 25  1  0
 25 26  2  0
 25 30  1  0
 26 27  1  0
 27 28  1  0
 28 29  1  0
 29 30  1  0
 34 35  2  0
M  CHG  1  26   1
M  END
