
     RDKit          3D

 42 47  0  0  0  0  0  0  0  0999 V2000
   -2.4000    3.0640   -4.5790 C   0  0  0  0  0  0  0  0  0  0  0  0
   -1.9060    2.0780   -3.6970 O   0  0  0  0  0  0  0  0  0  0  0  0
   -1.9720    2.3210   -2.3370 C   0  0  0  0  0  0  0  0  0  0  0  0
   -2.5010    3.4850   -1.8630 C   0  0  0  0  0  0  0  0  0  0  0  0
   -2.5740    3.7410   -0.5120 C   0  0  0  0  0  0  0  0  0  0  0  0
   -2.0980    2.7920    0.3640 C   0  0  0  0  0  0  0  0  0  0  0  0
   -2.1670    3.0270    1.8110 C   0  0  0  0  0  0  0  0  0  0  0  0
   -1.7630    2.2110    2.8330 C   0  0  0  0  0  0  0  0  0  0  0  0
   -2.0370    2.8570    4.0420 C   0  0  0  0  0  0  0  0  0  0  0  0
   -2.6010    4.0510    3.7060 N   0  0  0  0  0  0  0  0  0  0  0  0
   -2.6650    4.1230    2.4010 N   0  0  0  0  0  0  0  0  0  0  0  0
   -1.5650    1.6150   -0.1430 C   0  0  0  0  0  0  0  0  0  0  0  0
   -1.4770    1.3290   -1.4810 C   0  0  0  0  0  0  0  0  0  0  0  0
   -0.9950    0.0990   -2.0610 C   0  0  0  0  0  0  0  0  0  0  0  0
   -0.4110   -0.8850   -1.1850 N   0  0  0  0  0  0  0  0  0  0  0  0
    1.0320   -0.9540   -1.1840 C   0  0  0  0  0  0  0  0  0  0  0  0
    1.8450   -0.3090   -0.1610 C   0  0  2  0  0  0  0  0  0  0  0  0
    1.8030    1.1510    0.0240 C   0  0  0  0  0  0  0  0  0  0  0  0
    3.0940    1.6510    0.6580 C   0  0  0  0  0  0  0  0  0  0  0  0
    4.1180    2.1080   -0.3800 C   0  0  0  0  0  0  0  0  0  0  0  0
    4.7760    0.9130   -0.8660 N   0  0  0  0  0  0  0  0  0  0  0  0
    6.1760    0.7560   -0.7840 C   0  0  0  0  0  0  0  0  0  0  0  0
    6.8010   -0.4490   -1.0730 C   0  0  0  0  0  0  0  0  0  0  0  0
    8.1720   -0.5550   -0.9990 C   0  0  0  0  0  0  0  0  0  0  0  0
    8.9470    0.5110   -0.6440 C   0  0  0  0  0  0  0  0  0  0  0  0
    8.3240    1.7000   -0.3590 C   0  0  0  0  0  0  0  0  0  0  0  0
    6.9620    1.7680   -0.4430 N   0  0  0  0  0  0  0  0  0  0  0  0
    3.9830   -0.1710   -1.4740 C   0  0  0  0  0  0  0  0  0  0  0  0
    3.2900   -0.8500   -0.3430 C   0  0  0  0  0  0  0  0  0  0  0  0
   -1.1130   -1.8530   -0.4490 C   0  0  0  0  0  0  0  0  0  0  0  0
   -0.3420   -2.6420    0.2410 O   0  0  0  0  0  0  0  0  0  0  0  0
   -2.5240   -2.1030   -0.3380 C   0  0  0  0  0  0  0  0  0  0  0  0
   -3.5640   -1.4280   -0.8940 C   0  0  0  0  0  0  0  0  0  0  0  0
   -4.7090   -2.0320   -0.5070 N   0  0  0  0  0  0  0  0  0  0  0  0
   -4.4710   -3.0850    0.2880 C   0  0  0  0  0  0  0  0  0  0  0  0
   -5.5010   -3.9360    0.8650 C   0  0  0  0  0  0  0  0  0  0  0  0
   -6.8470   -3.8090    0.6960 N   0  0  0  0  0  0  0  0  0  0  0  0
   -7.4690   -4.7510    1.3690 N   0  0  0  0  0  0  0  0  0  0  0  0
   -6.6040   -5.5420    2.0090 C   0  0  0  0  0  0  0  0  0  0  0  0
   -5.3390   -5.0230    1.6890 C   0  0  0  0  0  0  0  0  0  0  0  0
   -4.0980   -5.6080    2.2000 C   0  0  0  0  0  0  0  0  0  0  0  0
   -3.1120   -3.1390    0.3990 C   0  0  0  0  0  0  0  0  0  0  0  0
  1  2  1  0
  2  3  1  0
  3  4  2  0
  3 13  1  0
  4  5  1  0
  5  6  2  0
  6  7  1  0
  6 12  1  0
  7  8  1  0
  7 11  2  0
  8  9  2  0
  9 10  1  0
 10 11  1  0
 12 13  2  0
 13 14  1  0
 14 15  1  0
 15 16  1  0
 15 30  1  0
 17 16  1  6
 17 18  1  0
 17 29  1  0
 18 19  1  0
 19 20  1  0
 20 21  1  0
 21 22  1  0
 21 28  1  0
 22 23  2  0
 22 27  1  0
 23 24  1  0
 24 25  2  0
 25 26  1  0
 26 27  2  0
 28 29  1  0
 30 31  2  0
 30 32  1  0
 32 33  2  0
 32 42  1  0
 33 34  1  0
 34 35  1  0
 35 36  1  0
 35 42  2  0
 36 37  2  0
 36 40  1  0
 37 38  1  0
 38 39  1  0
 39 40  2  0
 40 41  1  0
M  CHG  1  27   1
M  END
