
     RDKit          3D

 43 48  0  0  0  0  0  0  0  0999 V2000
   -6.0200    2.8770    2.9570 C   0  0  0  0  0  0  0  0  0  0  0  0
   -5.1070    1.6920    3.2180 C   0  0  0  0  0  0  0  0  0  0  0  0
   -5.6110    0.4470    2.5330 C   0  0  0  0  0  0  0  0  0  0  0  0
   -5.6680    0.6760    1.0860 C   0  0  0  0  0  0  0  0  0  0  0  0
   -6.8870    1.1060    0.6220 N   0  0  0  0  0  0  0  0  0  0  0  0
   -7.1230    1.4050   -0.6560 C   0  0  0  0  0  0  0  0  0  0  0  0
   -8.3440    1.8410   -1.1260 C   0  0  0  0  0  0  0  0  0  0  0  0
   -8.5640    2.1430   -2.4190 N   0  0  0  0  0  0  0  0  0  0  0  0
   -7.5670    2.0240   -3.3150 C   0  0  0  0  0  0  0  0  0  0  0  0
   -6.3100    1.5850   -2.8880 C   0  0  0  0  0  0  0  0  0  0  0  0
   -6.0950    1.2760   -1.5540 C   0  0  0  0  0  0  0  0  0  0  0  0
   -4.8410    0.8360   -1.0920 C   0  0  0  0  0  0  0  0  0  0  0  0
   -4.6080    0.5310    0.2210 C   0  0  0  0  0  0  0  0  0  0  0  0
   -3.3250    0.0560    0.6910 C   0  0  0  0  0  0  0  0  0  0  0  0
   -2.3110   -0.1120   -0.3320 N   0  0  0  0  0  0  0  0  0  0  0  0
   -0.9950   -0.5660   -0.0520 C   0  0  0  0  0  0  0  0  0  0  0  0
   -0.6410   -0.8380    1.1020 O   0  0  0  0  0  0  0  0  0  0  0  0
    0.0080   -0.7280   -1.2080 C   0  0  0  0  0  0  0  0  0  0  0  0
    0.5300   -2.0800   -1.1450 N   0  0  0  0  0  0  0  0  0  0  0  0
    1.7090   -2.4010   -0.7110 C   0  0  0  0  0  0  0  0  0  0  0  0
    2.8190   -1.4830   -0.4550 C   0  0  0  0  0  0  0  0  0  0  0  0
    3.7420   -1.8650    0.5400 C   0  0  0  0  0  0  0  0  0  0  0  0
    4.8900   -1.1570    0.8060 C   0  0  0  0  0  0  0  0  0  0  0  0
    5.1940   -0.0170    0.0950 C   0  0  0  0  0  0  0  0  0  0  0  0
    6.4240    0.7470    0.3590 C   0  0  0  0  0  0  0  0  0  0  0  0
    6.6990    1.8740   -0.3270 N   0  0  0  0  0  0  0  0  0  0  0  0
    7.8110    2.5850   -0.1150 C   0  0  0  0  0  0  0  0  0  0  0  0
    8.7330    2.1900    0.8270 C   0  0  0  0  0  0  0  0  0  0  0  0
    9.9450    3.0090    1.0340 C   0  0  0  0  0  0  0  0  0  0  0  0
    9.7830    4.0660    2.0850 C   0  0  0  0  0  0  0  0  0  0  0  0
    8.4530    1.0420    1.5260 C   0  0  0  0  0  0  0  0  0  0  0  0
    7.3120    0.3470    1.2820 N   0  0  0  0  0  0  0  0  0  0  0  0
    4.3060    0.3650   -0.8750 C   0  0  0  0  0  0  0  0  0  0  0  0
    3.1320   -0.3660   -1.1440 C   0  0  0  0  0  0  0  0  0  0  0  0
    1.9780   -3.7410   -0.4800 N   0  0  0  0  0  0  0  0  0  0  0  0
    1.1240   -4.7240   -0.6760 C   0  0  0  0  0  0  0  0  0  0  0  0
    1.4350   -6.0240   -0.4290 N   0  0  0  0  0  0  0  0  0  0  0  0
    0.5620   -7.0140   -0.6250 C   0  0  0  0  0  0  0  0  0  0  0  0
   -0.6890   -6.6970   -1.0910 C   0  0  0  0  0  0  0  0  0  0  0  0
   -1.0640   -5.4030   -1.3590 C   0  0  0  0  0  0  0  0  0  0  0  0
   -0.1280   -4.4020   -1.1430 C   0  0  0  0  0  0  0  0  0  0  0  0
   -0.3980   -3.0930   -1.3670 C   0  0  0  0  0  0  0  0  0  0  0  0
   -1.5210   -2.7540   -1.7910 O   0  0  0  0  0  0  0  0  0  0  0  0
  1  2  1  0
  2  3  1  0
  3  4  1  0
  4  5  2  0
  4 13  1  0
  5  6  1  0
  6  7  2  0
  6 11  1  0
  7  8  1  0
  8  9  2  0
  9 10  1  0
 10 11  2  0
 11 12  1  0
 12 13  2  0
 13 14  1  0
 14 15  1  0
 15 16  1  0
 16 17  2  0
 16 18  1  0
 18 19  1  0
 19 20  1  0
 19 42  1  0
 20 21  1  0
 20 35  2  0
 21 22  2  0
 21 34  1  0
 22 23  1  0
 23 24  2  0
 24 25  1  0
 24 33  1  0
 25 26  2  0
 25 32  1  0
 26 27  1  0
 27 28  2  0
 28 29  1  0
 28 31  1  0
 29 30  1  0
 31 32  2  0
 33 34  2  0
 35 36  1  0
 36 37  2  0
 36 41  1  0
 37 38  1  0
 38 39  2  0
 39 40  1  0
 40 41  2  0
 41 42  1  0
 42 43  2  0
M  CHG  1   8   1
M  END
