
     RDKit          3D

 43 48  0  0  0  0  0  0  0  0999 V2000
   -9.6060    3.2640   -0.1550 C   0  0  0  0  0  0  0  0  0  0  0  0
   -8.9020    2.0010   -0.0470 N   0  0  0  0  0  0  0  0  0  0  0  0
   -8.4620    1.3950    1.2040 C   0  0  0  0  0  0  0  0  0  0  0  0
   -8.5610   -0.0910    0.8500 C   0  0  2  0  0  0  0  0  0  0  0  0
   -7.7710   -0.9320    1.6840 N   0  0  0  0  0  0  0  0  0  0  0  0
   -8.4570   -1.8290    2.6170 C   0  0  0  0  0  0  0  0  0  0  0  0
   -6.3870   -0.9560    1.6690 C   0  0  0  0  0  0  0  0  0  0  0  0
   -5.7110   -1.7090    2.4560 O   0  0  0  0  0  0  0  0  0  0  0  0
   -5.6220   -0.1560    0.7890 N   0  0  0  0  0  0  0  0  0  0  0  0
   -4.1890   -0.1930    0.7950 C   0  0  0  0  0  0  0  0  0  0  0  0
   -3.4710   -0.5210   -0.2590 C   0  0  0  0  0  0  0  0  0  0  0  0
   -2.0230   -0.5510   -0.2290 C   0  0  0  0  0  0  0  0  0  0  0  0
   -1.2830   -0.2730    0.8530 N   0  0  0  0  0  0  0  0  0  0  0  0
    0.0100   -0.3710    0.5830 N   0  0  0  0  0  0  0  0  0  0  0  0
    1.0520   -0.1370    1.5130 C   0  0  0  0  0  0  0  0  0  0  0  0
    0.7540    0.4690    2.7470 C   0  0  0  0  0  0  0  0  0  0  0  0
    1.7560    0.6980    3.6520 C   0  0  0  0  0  0  0  0  0  0  0  0
    3.0500    0.3340    3.3480 C   0  0  0  0  0  0  0  0  0  0  0  0
    3.3860   -0.2610    2.1520 C   0  0  0  0  0  0  0  0  0  0  0  0
    4.7100   -0.6500    1.8340 N   0  0  0  0  0  0  0  0  0  0  0  0
    5.1970   -1.0170    0.5430 C   0  0  2  0  0  0  0  0  0  0  0  0
    6.6320   -1.5200    0.6770 C   0  0  0  0  0  0  0  0  0  0  0  0
    7.5820   -0.3750    0.9240 C   0  0  0  0  0  0  0  0  0  0  0  0
    7.4850    0.6440   -0.0840 N   0  0  1  0  0  0  0  0  0  0  0  0
    7.7860    0.1810   -1.4120 C   0  0  0  0  0  0  0  0  0  0  0  0
    9.2710    0.2520   -1.6160 C   0  0  0  0  0  0  0  0  0  0  0  0
   10.0420   -0.7830   -1.8980 C   0  0  0  0  0  0  0  0  0  0  0  0
   11.4280   -0.2580   -2.0140 C   0  0  0  0  0  0  0  0  0  0  0  0
   11.2910    1.1910   -1.7560 C   0  0  0  0  0  0  0  0  0  0  0  0
   10.0400    1.4850   -1.5260 C   0  0  0  0  0  0  0  0  0  0  0  0
    6.1710    1.2050   -0.0690 C   0  0  0  0  0  0  0  0  0  0  0  0
    5.1570    0.1400   -0.4400 C   0  0  0  0  0  0  0  0  0  0  0  0
    2.3590   -0.4860    1.2490 C   0  0  0  0  0  0  0  0  0  0  0  0
    0.0900   -0.7180   -0.6970 C   0  0  0  0  0  0  0  0  0  0  0  0
    1.1460   -0.9220   -1.3830 O   0  0  0  0  0  0  0  0  0  0  0  0
   -1.1720   -0.8360   -1.2230 N   0  0  0  0  0  0  0  0  0  0  0  0
   -1.5080   -1.1980   -2.5910 C   0  0  0  0  0  0  0  0  0  0  0  0
   -8.2840   -0.1200   -0.5780 C   0  0  0  0  0  0  0  0  0  0  0  0
   -7.8710   -1.1490   -1.4290 C   0  0  0  0  0  0  0  0  0  0  0  0
   -7.6950   -0.9130   -2.7760 C   0  0  0  0  0  0  0  0  0  0  0  0
   -7.9220    0.3380   -3.3150 C   0  0  0  0  0  0  0  0  0  0  0  0
   -8.3300    1.3570   -2.4730 C   0  0  0  0  0  0  0  0  0  0  0  0
   -8.5120    1.1300   -1.1030 C   0  0  0  0  0  0  0  0  0  0  0  0
  1  2  1  0
  2  3  1  0
  2 43  1  0
  3  4  1  0
  4  5  1  1
  4 38  1  0
  5  6  1  0
  5  7  1  0
  7  8  2  0
  7  9  1  0
  9 10  1  0
 10 11  2  3
 11 12  1  0
 12 13  2  0
 12 36  1  0
 13 14  1  0
 14 15  1  0
 14 34  1  0
 15 16  2  0
 15 33  1  0
 16 17  1  0
 17 18  2  0
 18 19  1  0
 19 20  1  0
 19 33  2  0
 21 20  1  1
 21 22  1  0
 21 32  1  0
 22 23  1  0
 23 24  1  0
 24 25  1  6
 24 31  1  0
 25 26  1  0
 26 27  2  0
 26 30  1  0
 27 28  1  0
 28 29  1  0
 29 30  2  0
 31 32  1  0
 34 35  2  0
 34 36  1  0
 36 37  1  0
 38 39  2  0
 38 43  1  0
 39 40  1  0
 40 41  2  0
 41 42  1  0
 42 43  2  0
M  CHG  1  24   1
M  END
