
     RDKit          3D

 42 47  0  0  0  0  0  0  0  0999 V2000
   11.4530   -0.9330    0.6610 C   0  0  0  0  0  0  0  0  0  0  0  0
   10.3890   -1.4270   -0.2990 C   0  0  0  0  0  0  0  0  0  0  0  0
    9.2370   -0.6390   -0.3190 O   0  0  0  0  0  0  0  0  0  0  0  0
    9.2650    0.6820   -0.6930 C   0  0  0  0  0  0  0  0  0  0  0  0
   10.4340    1.3030   -1.0790 C   0  0  0  0  0  0  0  0  0  0  0  0
   10.4700    2.6270   -1.4540 C   0  0  0  0  0  0  0  0  0  0  0  0
    9.2900    3.3130   -1.4320 C   0  0  0  0  0  0  0  0  0  0  0  0
    8.0940    2.6940   -1.0420 C   0  0  0  0  0  0  0  0  0  0  0  0
    8.0490    1.3810   -0.6670 C   0  0  0  0  0  0  0  0  0  0  0  0
    6.8910    0.6970   -0.2900 N   0  0  0  0  0  0  0  0  0  0  0  0
    5.5800    1.1860   -0.1520 C   0  0  0  0  0  0  0  0  0  0  0  0
    5.3550    2.3880   -0.3710 O   0  0  0  0  0  0  0  0  0  0  0  0
    4.4630    0.3310    0.2420 C   0  0  0  0  0  0  0  0  0  0  0  0
    3.2410    0.8300    0.4100 N   0  0  0  0  0  0  0  0  0  0  0  0
    2.1990    0.0670    0.7420 N   0  0  0  0  0  0  0  0  0  0  0  0
    2.3650   -1.2500    0.9160 C   0  0  0  0  0  0  0  0  0  0  0  0
    1.2730   -2.1460    1.2450 N   0  0  0  0  0  0  0  0  0  0  0  0
    0.4160   -2.5770    0.2810 N   0  0  0  0  0  0  0  0  0  0  0  0
   -0.7190   -2.3660   -0.1240 C   0  0  0  0  0  0  0  0  0  0  0  0
   -1.6490   -1.3820    0.4510 C   0  0  0  0  0  0  0  0  0  0  0  0
   -1.3000   -0.6640    1.5510 C   0  0  0  0  0  0  0  0  0  0  0  0
   -2.2050    0.2070    2.0740 C   0  0  0  0  0  0  0  0  0  0  0  0
   -3.5030    0.4300    1.5570 C   0  0  0  0  0  0  0  0  0  0  0  0
   -4.4890    1.1840    2.2930 C   0  0  0  0  0  0  0  0  0  0  0  0
   -5.3480    0.2890    3.2110 C   0  0  0  0  0  0  0  0  0  0  0  0
   -3.8090   -0.3070    0.4380 C   0  0  0  0  0  0  0  0  0  0  0  0
   -5.0310   -0.1800   -0.1660 C   0  0  0  0  0  0  0  0  0  0  0  0
   -5.4370   -0.9300   -1.2990 C   0  0  0  0  0  0  0  0  0  0  0  0
   -6.6860   -0.8020   -1.8720 C   0  0  0  0  0  0  0  0  0  0  0  0
   -6.9390   -1.6310   -2.9860 C   0  0  0  0  0  0  0  0  0  0  0  0
   -6.0550   -2.5190   -3.5110 C   0  0  0  0  0  0  0  0  0  0  0  0
   -4.8220   -2.6190   -2.9120 C   0  0  0  0  0  0  0  0  0  0  0  0
   -4.5130   -1.8260   -1.8080 C   0  0  0  0  0  0  0  0  0  0  0  0
   -3.2750   -1.9460   -1.2150 C   0  0  0  0  0  0  0  0  0  0  0  0
   -2.8860   -1.2210   -0.1160 C   0  0  0  0  0  0  0  0  0  0  0  0
   -7.9230   -0.0350   -1.6430 C   0  0  0  0  0  0  0  0  0  0  0  0
   -7.9710    1.0170   -0.6460 C   0  0  0  0  0  0  0  0  0  0  0  0
   -7.1550    0.8810    0.5590 N   0  0  2  0  0  0  0  0  0  0  0  0
   -7.5850    2.0140    1.3930 C   0  0  0  0  0  0  0  0  0  0  0  0
   -5.7590    1.0170    0.3680 C   0  0  0  0  0  0  0  0  0  0  0  0
    3.5760   -1.7610    0.7540 N   0  0  0  0  0  0  0  0  0  0  0  0
    4.6330   -1.0100    0.4210 N   0  0  0  0  0  0  0  0  0  0  0  0
  1  2  1  0
  2  3  1  0
  3  4  1  0
  4  5  2  0
  4  9  1  0
  5  6  1  0
  6  7  2  0
  7  8  1  0
  8  9  2  0
  9 10  1  0
 10 11  1  0
 11 12  2  0
 11 13  1  0
 13 14  2  0
 13 42  1  0
 14 15  1  0
 15 16  2  0
 16 17  1  0
 16 41  1  0
 17 18  1  0
 18 19  2  3
 19 20  1  0
 20 21  2  0
 20 35  1  0
 21 22  1  0
 22 23  2  0
 23 24  1  0
 23 26  1  0
 24 25  1  0
 26 27  2  0
 26 35  1  0
 27 28  1  0
 27 40  1  0
 28 29  2  0
 28 33  1  0
 29 30  1  0
 29 36  1  0
 30 31  2  0
 31 32  1  0
 32 33  2  0
 33 34  1  0
 34 35  2  0
 36 37  1  0
 37 38  1  0
 38 39  1  1
 38 40  1  0
 41 42  2  0
M  CHG  1  38   1
M  END
