
     RDKit          3D

 35 39  0  0  0  0  0  0  0  0999 V2000
   -6.1480    3.1240    1.8560 C   0  0  0  0  0  0  0  0  0  0  0  0
   -5.3760    1.9990    1.3640 N   0  0  0  0  0  0  0  0  0  0  0  0
   -3.9850    2.1600    0.9870 C   0  0  0  0  0  0  0  0  0  0  0  0
   -3.3720    0.7510    0.8400 C   0  0  0  0  0  0  0  0  0  0  0  0
   -4.1820    0.0340   -0.1690 C   0  0  1  0  0  0  0  0  0  0  0  0
   -3.6170   -1.1460   -0.8480 C   0  0  0  0  0  0  0  0  0  0  0  0
   -2.4190   -0.9620   -1.6530 N   0  0  0  0  0  0  0  0  0  0  0  0
   -2.5220   -1.1140   -3.0730 C   0  0  0  0  0  0  0  0  0  0  0  0
   -1.5090   -1.2780   -3.8930 C   0  0  0  0  0  0  0  0  0  0  0  0
   -0.1830   -1.2920   -3.2940 C   0  0  0  0  0  0  0  0  0  0  0  0
    0.9320   -1.6030   -4.0960 C   0  0  0  0  0  0  0  0  0  0  0  0
    2.1470   -1.7390   -3.5560 N   0  0  0  0  0  0  0  0  0  0  0  0
    2.2860   -1.5720   -2.2220 C   0  0  0  0  0  0  0  0  0  0  0  0
    1.2520   -1.2690   -1.3850 C   0  0  0  0  0  0  0  0  0  0  0  0
    1.3620   -1.0800    0.0850 C   0  0  0  0  0  0  0  0  0  0  0  0
    2.7070   -1.2450    0.5790 N   0  0  0  0  0  0  0  0  0  0  0  0
    3.4060   -0.0050    0.3410 C   0  0  0  0  0  0  0  0  0  0  0  0
    4.8450   -0.1940    0.7460 C   0  0  0  0  0  0  0  0  0  0  0  0
    5.2450   -1.2870    1.1960 O   0  0  0  0  0  0  0  0  0  0  0  0
    5.7150    0.9040    0.5990 N   0  0  0  0  0  0  0  0  0  0  0  0
    7.0990    0.9290    0.9230 C   0  0  0  0  0  0  0  0  0  0  0  0
    7.8010   -0.1180    1.4280 C   0  0  0  0  0  0  0  0  0  0  0  0
    9.1550   -0.0040    1.7170 C   0  0  0  0  0  0  0  0  0  0  0  0
    9.8120    1.1770    1.4940 C   0  0  0  0  0  0  0  0  0  0  0  0
    9.1010    2.2490    0.9790 C   0  0  0  0  0  0  0  0  0  0  0  0
    7.7790    2.1170    0.7040 C   0  0  0  0  0  0  0  0  0  0  0  0
    7.1130    3.2050    0.1940 F   0  0  0  0  0  0  0  0  0  0  0  0
   -0.0290   -1.1230   -1.9580 C   0  0  0  0  0  0  0  0  0  0  0  0
   -1.1420   -0.6620   -1.1080 C   0  0  0  0  0  0  0  0  0  0  0  0
   -5.4740   -0.2800    0.5170 C   0  0  0  0  0  0  0  0  0  0  0  0
   -6.0740   -1.5020    0.4080 C   0  0  0  0  0  0  0  0  0  0  0  0
   -7.2760   -1.7080    1.0820 C   0  0  0  0  0  0  0  0  0  0  0  0
   -7.8360   -0.6980    1.8350 C   0  0  0  0  0  0  0  0  0  0  0  0
   -7.1970    0.4820    1.9030 N   0  0  0  0  0  0  0  0  0  0  0  0
   -6.0200    0.7270    1.2610 C   0  0  0  0  0  0  0  0  0  0  0  0
  1  2  1  0
  2  3  1  0
  2 35  1  0
  3  4  1  0
  4  5  1  0
  5  6  1  1
  5 30  1  0
  6  7  1  0
  7  8  1  0
  7 29  1  0
  8  9  2  0
  9 10  1  0
 10 11  2  0
 10 28  1  0
 11 12  1  0
 12 13  2  0
 13 14  1  0
 14 15  1  0
 14 28  2  0
 15 16  1  0
 16 17  1  0
 17 18  1  0
 18 19  2  0
 18 20  1  0
 20 21  1  0
 21 22  2  0
 21 26  1  0
 22 23  1  0
 23 24  2  0
 24 25  1  0
 25 26  2  0
 26 27  1  0
 28 29  1  0
 30 31  2  0
 30 35  1  0
 31 32  1  0
 32 33  2  0
 33 34  1  0
 34 35  2  0
M  CHG  1  16   1
M  END
