
     RDKit          3D

 34 36  0  0  0  0  0  0  0  0999 V2000
    2.1990    0.5970    1.0600 O   0  0  0  0  0  0  0  0  0  0  0  0
    2.2300   -0.6740    1.1090 C   0  0  0  0  0  0  0  0  0  0  0  0
    3.5050   -1.4080    0.9120 C   0  0  0  0  0  0  0  0  0  0  0  0
    4.6320   -0.4510    0.6680 C   0  0  0  0  0  0  0  0  0  0  0  0
    4.3580    0.7540    0.6620 O   0  0  0  0  0  0  0  0  0  0  0  0
    5.9440   -0.8800    0.4550 N   0  0  0  0  0  0  0  0  0  0  0  0
    7.0780   -0.0940    0.2140 C   0  0  0  0  0  0  0  0  0  0  0  0
    7.0430    1.2460   -0.0300 C   0  0  0  0  0  0  0  0  0  0  0  0
    8.2110    2.0090   -0.2550 C   0  0  0  0  0  0  0  0  0  0  0  0
    9.4360    1.3850   -0.2300 C   0  0  0  0  0  0  0  0  0  0  0  0
    9.5060    0.0390    0.0110 C   0  0  0  0  0  0  0  0  0  0  0  0
   10.8180   -0.5900    0.0310 C   0  0  0  0  0  0  0  0  0  0  0  0
   10.9310   -1.8230    0.2490 O   0  0  0  0  0  0  0  0  0  0  0  0
   11.9830    0.1300   -0.1860 O   0  0  0  0  0  0  0  0  0  0  0  0
    8.3600   -0.6800    0.2270 C   0  0  0  0  0  0  0  0  0  0  0  0
    1.0200   -1.3540    1.3560 N   0  0  0  0  0  0  0  0  0  0  0  0
   -0.2500   -0.6940    1.5550 C   0  0  0  0  0  0  0  0  0  0  0  0
   -0.6740    0.1410    0.3760 C   0  0  0  0  0  0  0  0  0  0  0  0
   -0.8220   -0.6830   -0.8810 C   0  0  0  0  0  0  0  0  0  0  0  0
   -1.8210   -1.7030   -0.6710 N   0  0  0  0  0  0  0  0  0  0  0  0
   -2.7960   -1.7550   -1.7280 C   0  0  0  0  0  0  0  0  0  0  0  0
   -4.0100   -1.0250   -1.2820 C   0  0  0  0  0  0  0  0  0  0  0  0
   -4.1180    0.3250   -1.5370 C   0  0  0  0  0  0  0  0  0  0  0  0
   -5.2320    1.0310   -1.1360 C   0  0  0  0  0  0  0  0  0  0  0  0
   -6.2920    0.4180   -0.4610 C   0  0  0  0  0  0  0  0  0  0  0  0
   -7.4660    1.1700   -0.0470 C   0  0  0  0  0  0  0  0  0  0  0  0
   -8.7630    0.7630   -0.2540 C   0  0  0  0  0  0  0  0  0  0  0  0
   -9.8690    1.4710    0.1400 C   0  0  0  0  0  0  0  0  0  0  0  0
   -9.6630    2.6860    0.7950 C   0  0  0  0  0  0  0  0  0  0  0  0
   -8.3880    3.1370    1.0250 C   0  0  0  0  0  0  0  0  0  0  0  0
   -7.2940    2.3900    0.6100 C   0  0  0  0  0  0  0  0  0  0  0  0
   -6.1690   -0.9290   -0.2140 C   0  0  0  0  0  0  0  0  0  0  0  0
   -7.4900   -1.7170    0.6420 Cl  0  0  0  0  0  0  0  0  0  0  0  0
   -5.0480   -1.6390   -0.6170 C   0  0  0  0  0  0  0  0  0  0  0  0
  1  2  2  0
  2  3  1  0
  2 16  1  0
  3  4  1  0
  4  5  2  0
  4  6  1  0
  6  7  1  0
  7  8  2  0
  7 15  1  0
  8  9  1  0
  9 10  2  0
 10 11  1  0
 11 12  1  0
 11 15  2  0
 12 13  2  0
 12 14  1  0
 16 17  1  0
 17 18  1  0
 18 19  1  0
 19 20  1  0
 20 21  1  0
 21 22  1  0
 22 23  2  0
 22 34  1  0
 23 24  1  0
 24 25  2  0
 25 26  1  0
 25 32  1  0
 26 27  2  0
 26 31  1  0
 27 28  1  0
 28 29  2  0
 29 30  1  0
 30 31  2  0
 32 33  1  0
 32 34  2  0
M  CHG  1  20   1
M  END
