
     RDKit          3D

 19 19  0  0  0  0  0  0  0  0999 V2000
    3.2030    0.1870   -1.5320 C   0  0  0  0  0  0  0  0  0  0  0  0
    2.7630   -0.2110   -0.1430 C   0  0  0  0  0  0  0  0  0  0  0  0
    3.7210   -0.3870    0.7430 C   0  0  0  0  0  0  0  0  0  0  0  0
    3.5680   -0.7640    2.1190 C   0  0  0  0  0  0  0  0  0  0  0  0
    4.6070   -0.8880    2.8310 O   0  0  0  0  0  0  0  0  0  0  0  0
    2.3710   -1.0120    2.7690 O   0  0  0  0  0  0  0  0  0  0  0  0
    1.3380   -0.3720    0.1260 C   0  0  0  0  0  0  0  0  0  0  0  0
    0.4410   -0.1690   -0.8480 C   0  0  0  0  0  0  0  0  0  0  0  0
   -1.0170   -0.3190   -0.6290 C   0  0  1  0  0  0  0  0  0  0  0  0
   -1.5090   -0.9480   -1.8000 O   0  0  0  0  0  0  0  0  0  0  0  0
   -1.3670   -1.1750    0.4900 C   0  0  0  0  0  0  0  0  0  0  0  0
   -1.0090   -2.6110    0.4570 C   0  0  0  0  0  0  0  0  0  0  0  0
   -2.0020   -0.7390    1.5630 C   0  0  0  0  0  0  0  0  0  0  0  0
   -2.4120    0.6490    1.7230 C   0  0  0  0  0  0  0  0  0  0  0  0
   -3.2230    1.0620    2.5870 O   0  0  0  0  0  0  0  0  0  0  0  0
   -1.8050    1.6170    0.7750 C   0  0  0  0  0  0  0  0  0  0  0  0
   -1.6170    1.0520   -0.6060 C   0  0  2  0  0  0  0  0  0  0  0  0
   -2.9800    1.0420   -1.2780 C   0  0  0  0  0  0  0  0  0  0  0  0
   -0.7820    2.0610   -1.3730 C   0  0  0  0  0  0  0  0  0  0  0  0
  1  2  1  0
  2  3  2  3
  2  7  1  0
  3  4  1  0
  4  5  2  0
  4  6  1  0
  7  8  2  3
  8  9  1  0
  9 10  1  6
  9 11  1  0
  9 17  1  0
 11 12  1  0
 11 13  2  0
 13 14  1  0
 14 15  2  0
 14 16  1  0
 16 17  1  0
 17 18  1  6
 17 19  1  0
M  END
