
     RDKit          3D

 19 19  0  0  0  0  0  0  0  0999 V2000
    2.4310    3.3720    0.8910 C   0  0  0  0  0  0  0  0  0  0  0  0
    2.2590    2.0960    0.3140 O   0  0  0  0  0  0  0  0  0  0  0  0
    2.1070    0.9360    1.0550 C   0  0  0  0  0  0  0  0  0  0  0  0
    2.1160    0.9790    2.2880 O   0  0  0  0  0  0  0  0  0  0  0  0
    1.9350   -0.3310    0.2540 C   0  0  1  0  0  0  0  0  0  0  0  0
    3.1860   -0.4420   -0.5710 C   0  0  0  0  0  0  0  0  0  0  0  0
    3.2640   -1.6250   -1.4710 C   0  0  0  0  0  0  0  0  0  0  0  0
    4.5050   -1.5180   -2.1500 O   0  0  0  0  0  0  0  0  0  0  0  0
    1.8300   -1.5190    1.1620 C   0  0  0  0  0  0  0  0  0  0  0  0
    0.4710   -1.6790    1.7800 C   0  0  0  0  0  0  0  0  0  0  0  0
   -0.6720   -1.3790    0.8460 C   0  0  0  0  0  0  0  0  0  0  0  0
   -0.5500   -0.0410    0.1640 C   0  0  2  0  0  0  0  0  0  0  0  0
   -0.3750    0.9930    1.0900 O   0  0  0  0  0  0  0  0  0  0  0  0
   -1.5920    0.2350   -0.8390 C   0  0  0  0  0  0  0  0  0  0  0  0
   -3.0100    0.2740   -0.4580 C   0  0  1  0  0  0  0  0  0  0  0  0
   -3.7700    0.6010   -1.7680 C   0  0  0  0  0  0  0  0  0  0  0  0
   -3.6280   -0.9650    0.0810 C   0  0  0  0  0  0  0  0  0  0  0  0
   -3.3720    1.4070    0.4800 C   0  0  0  0  0  0  0  0  0  0  0  0
    0.7670   -0.1320   -0.6360 C   0  0  0  0  0  0  0  0  0  0  0  0
  1  2  1  0
  2  3  1  0
  3  4  2  0
  3  5  1  0
  5  6  1  6
  5  9  1  0
  5 19  1  0
  6  7  1  0
  7  8  1  0
  9 10  1  0
 10 11  1  0
 11 12  1  0
 12 13  1  1
 12 14  1  0
 12 19  1  0
 14 15  1  0
 15 16  1  6
 15 17  1  0
 15 18  1  0
M  END
