
     RDKit          3D

 19 19  0  0  0  0  0  0  0  0999 V2000
   -3.4050   -0.0380    0.1360 C   0  0  0  0  0  0  0  0  0  0  0  0
   -2.0790    0.6190    0.1460 C   0  0  0  0  0  0  0  0  0  0  0  0
   -2.0450    1.9880    0.1920 C   0  0  0  0  0  0  0  0  0  0  0  0
   -3.2980    2.7770    0.2320 C   0  0  0  0  0  0  0  0  0  0  0  0
   -3.0340    4.1560    0.2690 O   0  0  0  0  0  0  0  0  0  0  0  0
   -0.9080    2.5830    0.2000 O   0  0  0  0  0  0  0  0  0  0  0  0
    0.2010    1.9030    0.1700 C   0  0  0  0  0  0  0  0  0  0  0  0
    1.2350    2.6030    0.1830 O   0  0  0  0  0  0  0  0  0  0  0  0
    0.2680    0.4690    0.1300 C   0  0  0  0  0  0  0  0  0  0  0  0
    1.6030   -0.0090    0.2390 C   0  0  2  0  0  0  0  0  0  0  0  0
    1.9520   -1.4760    0.4180 C   0  0  0  0  0  0  0  0  0  0  0  0
    2.2270    0.5650    1.4890 C   0  0  0  0  0  0  0  0  0  0  0  0
    2.5270    0.3790   -0.9190 C   0  0  2  0  0  0  0  0  0  0  0  0
    3.9460   -0.1060   -0.7410 C   0  0  0  0  0  0  0  0  0  0  0  0
    2.5540    1.6250   -1.3760 O   0  0  0  0  0  0  0  0  0  0  0  0
   -0.9000   -0.2130    0.1070 C   0  0  0  0  0  0  0  0  0  0  0  0
   -1.1290   -1.6310   -0.0220 C   0  0  1  0  0  0  0  0  0  0  0  0
   -0.3170   -2.5450   -0.8390 C   0  0  0  0  0  0  0  0  0  0  0  0
   -1.5330   -2.3280    1.3010 C   0  0  0  0  0  0  0  0  0  0  0  0
  1  2  1  0
  2  3  2  0
  2 16  1  0
  3  4  1  0
  3  6  1  0
  4  5  1  0
  6  7  1  0
  7  8  2  0
  7  9  1  0
  9 10  1  0
  9 16  2  0
 10 11  1  1
 10 12  1  0
 10 13  1  0
 13 14  1  1
 13 15  1  0
 16 17  1  0
 17 18  1  1
 17 19  1  0
M  END
