
     RDKit          3D

 19 20  0  0  0  0  0  0  0  0999 V2000
   -3.9010    0.6590   -0.1260 C   0  0  0  0  0  0  0  0  0  0  0  0
   -3.0950   -0.5980   -0.1360 C   0  0  1  0  0  0  0  0  0  0  0  0
   -3.8030   -1.5920    0.8010 C   0  0  0  0  0  0  0  0  0  0  0  0
   -3.2140   -1.1650   -1.4110 O   0  0  0  0  0  0  0  0  0  0  0  0
   -1.6840   -0.4910    0.3160 C   0  0  0  0  0  0  0  0  0  0  0  0
   -0.7990    0.4220   -0.4640 C   0  0  1  0  0  0  0  0  0  0  0  0
   -0.7120    0.0500   -1.8090 O   0  0  0  0  0  0  0  0  0  0  0  0
   -1.1590    1.8670   -0.3910 C   0  0  0  0  0  0  0  0  0  0  0  0
    0.1170    2.5160   -0.9710 C   0  0  0  0  0  0  0  0  0  0  0  0
    1.2220    1.7090   -0.3130 C   0  0  0  0  0  0  0  0  0  0  0  0
    0.6280    0.3850    0.0830 C   0  0  1  0  0  0  0  0  0  0  0  0
    0.5550    0.3060    1.5860 C   0  0  0  0  0  0  0  0  0  0  0  0
    1.3870   -0.7210   -0.5140 C   0  0  0  0  0  0  0  0  0  0  0  0
    2.6600   -0.9880   -0.2450 C   0  0  0  0  0  0  0  0  0  0  0  0
    3.5970   -0.3010    0.6580 C   0  0  0  0  0  0  0  0  0  0  0  0
    4.9380   -0.6700    0.0550 C   0  0  0  0  0  0  0  0  0  0  0  0
    4.6500   -2.0970   -0.3300 C   0  0  0  0  0  0  0  0  0  0  0  0
    5.4160   -3.0790   -0.2170 O   0  0  0  0  0  0  0  0  0  0  0  0
    3.3660   -2.0490   -0.8230 O   0  0  0  0  0  0  0  0  0  0  0  0
  2  1  1  6
  2  3  1  0
  2  4  1  0
  2  5  1  0
  5  6  1  0
  6  7  1  6
  6  8  1  0
  6 11  1  0
  8  9  1  0
  9 10  1  0
 10 11  1  0
 11 12  1  1
 11 13  1  0
 13 14  2  3
 14 15  1  0
 14 19  1  0
 15 16  1  0
 16 17  1  0
 17 18  2  0
 17 19  1  0
M  END
