
     RDKit          3D

 19 19  0  0  0  0  0  0  0  0999 V2000
   -3.7990    0.0650    0.5900 C   0  0  0  0  0  0  0  0  0  0  0  0
   -2.7520   -0.0790   -0.4980 C   0  0  2  0  0  0  0  0  0  0  0  0
   -2.8460   -1.4300   -1.1300 C   0  0  0  0  0  0  0  0  0  0  0  0
   -1.3840    0.2430    0.0370 C   0  0  1  0  0  0  0  0  0  0  0  0
   -1.4190    1.6710    0.5350 C   0  0  0  0  0  0  0  0  0  0  0  0
   -0.2010    2.3060    0.4880 O   0  0  0  0  0  0  0  0  0  0  0  0
    0.0470    3.0050   -0.6720 C   0  0  0  0  0  0  0  0  0  0  0  0
    1.4020    2.7260   -1.2700 C   0  0  0  0  0  0  0  0  0  0  0  0
    1.9210    1.5000   -0.9360 O   0  0  0  0  0  0  0  0  0  0  0  0
    3.0560    1.5700   -0.1240 C   0  0  0  0  0  0  0  0  0  0  0  0
    3.3450    0.1320    0.3250 C   0  0  0  0  0  0  0  0  0  0  0  0
    2.6190   -0.8420   -0.5310 C   0  0  0  0  0  0  0  0  0  0  0  0
    1.6710   -1.6800   -0.1130 C   0  0  0  0  0  0  0  0  0  0  0  0
    1.0040   -2.6190   -1.0630 C   0  0  0  0  0  0  0  0  0  0  0  0
    1.5090   -2.4760   -2.3620 O   0  0  0  0  0  0  0  0  0  0  0  0
    1.2170   -1.7380    1.3020 C   0  0  0  0  0  0  0  0  0  0  0  0
    0.3290   -0.5840    1.6800 C   0  0  2  0  0  0  0  0  0  0  0  0
    0.2910   -0.5240    3.0800 O   0  0  0  0  0  0  0  0  0  0  0  0
   -1.0760   -0.7280    1.1700 C   0  0  0  0  0  0  0  0  0  0  0  0
  2  1  1  1
  2  3  1  0
  2  4  1  0
  4  5  1  1
  4 19  1  0
  5  6  1  0
  6  7  1  0
  7  8  1  0
  8  9  1  0
  9 10  1  0
 10 11  1  0
 11 12  1  0
 12 13  2  0
 13 14  1  0
 13 16  1  0
 14 15  1  0
 16 17  1  0
 17 18  1  1
 17 19  1  0
M  END
