
     RDKit          3D

 19 19  0  0  0  0  0  0  0  0999 V2000
    3.8310   -1.2650    1.6860 C   0  0  0  0  0  0  0  0  0  0  0  0
    2.7930   -0.6200    0.9450 C   0  0  0  0  0  0  0  0  0  0  0  0
    3.3560    0.1470   -0.1040 C   0  0  0  0  0  0  0  0  0  0  0  0
    3.1830    0.9180   -1.0970 C   0  0  0  0  0  0  0  0  0  0  0  0
    4.5150    1.4040   -1.8390 C   0  0  0  0  0  0  0  0  0  0  0  0
    2.0650    1.5160   -1.8160 C   0  0  0  0  0  0  0  0  0  0  0  0
    0.8170    1.2750   -1.4400 O   0  0  0  0  0  0  0  0  0  0  0  0
    1.5060   -0.9230    1.4620 C   0  0  0  0  0  0  0  0  0  0  0  0
    1.5800   -1.8310    2.6220 O   0  0  0  0  0  0  0  0  0  0  0  0
    0.2910   -0.5800    1.1420 C   0  0  0  0  0  0  0  0  0  0  0  0
   -0.8430   -1.1240    1.9510 C   0  0  0  0  0  0  0  0  0  0  0  0
   -2.1020   -0.8370    1.7100 C   0  0  0  0  0  0  0  0  0  0  0  0
   -3.1740   -1.3490    2.4710 O   0  0  0  0  0  0  0  0  0  0  0  0
   -4.3430   -1.1290    1.6620 C   0  0  0  0  0  0  0  0  0  0  0  0
   -4.0570    0.0770    1.0250 O   0  0  0  0  0  0  0  0  0  0  0  0
   -2.7160    0.0170    0.6810 C   0  0  1  0  0  0  0  0  0  0  0  0
   -2.0820    1.3930    0.6600 C   0  0  0  0  0  0  0  0  0  0  0  0
   -2.6670   -0.6170   -0.6970 C   0  0  0  0  0  0  0  0  0  0  0  0
   -3.3040    0.2820   -1.7360 C   0  0  0  0  0  0  0  0  0  0  0  0
  1  2  2  0
  2  3  1  0
  2  8  1  0
  3  4  2  3
  4  5  1  0
  4  6  1  0
  6  7  1  0
  8  9  1  0
  8 10  2  3
 10 11  1  0
 11 12  2  3
 12 13  1  0
 12 16  1  0
 13 14  1  0
 14 15  1  0
 15 16  1  0
 16 17  1  6
 16 18  1  0
 18 19  1  0
M  END
