
     RDKit          3D

 19 19  0  0  0  0  0  0  0  0999 V2000
    5.8890   -1.1420    1.0810 C   0  0  0  0  0  0  0  0  0  0  0  0
    4.6100   -0.6740    0.6990 O   0  0  0  0  0  0  0  0  0  0  0  0
    4.2180    0.6350    0.7230 C   0  0  0  0  0  0  0  0  0  0  0  0
    5.1090    1.4630    1.1270 O   0  0  0  0  0  0  0  0  0  0  0  0
    2.9430    1.1960    0.3550 C   0  0  0  0  0  0  0  0  0  0  0  0
    1.9450    0.2650   -0.2060 C   0  0  0  0  0  0  0  0  0  0  0  0
    2.0260   -0.9960   -0.4400 C   0  0  0  0  0  0  0  0  0  0  0  0
    0.7200   -1.4410   -1.0130 C   0  0  1  0  0  0  0  0  0  0  0  0
    0.1960   -2.4580   -0.2230 O   0  0  0  0  0  0  0  0  0  0  0  0
   -0.1340   -0.2330   -1.0530 C   0  0  0  0  0  0  0  0  0  0  0  0
   -1.4880   -0.2340   -1.5780 C   0  0  1  0  0  0  0  0  0  0  0  0
   -1.9240   -1.5530   -1.7500 O   0  0  0  0  0  0  0  0  0  0  0  0
   -2.5560    0.5360   -0.9620 C   0  0  0  0  0  0  0  0  0  0  0  0
   -2.9700    0.2090    0.4300 C   0  0  2  0  0  0  0  0  0  0  0  0
   -4.0840    1.1520    0.9100 C   0  0  0  0  0  0  0  0  0  0  0  0
   -1.9540    0.0910    1.4830 C   0  0  0  0  0  0  0  0  0  0  0  0
   -3.7140   -1.1680    0.4410 C   0  0  0  0  0  0  0  0  0  0  0  0
    0.5940    0.7600   -0.5860 C   0  0  0  0  0  0  0  0  0  0  0  0
    0.1380    2.1470   -0.5280 C   0  0  0  0  0  0  0  0  0  0  0  0
  1  2  1  0
  2  3  1  0
  3  4  2  0
  3  5  1  0
  5  6  1  0
  6  7  2  0
  6 18  1  0
  7  8  1  0
  8  9  1  1
  8 10  1  0
 10 11  1  0
 10 18  2  0
 11 12  1  1
 11 13  1  0
 13 14  1  0
 14 15  1  1
 14 16  1  0
 14 17  1  0
 18 19  1  0
M  END
