
     RDKit          3D

 19 19  0  0  0  0  0  0  0  0999 V2000
    1.4910    3.4120   -1.5640 C   0  0  0  0  0  0  0  0  0  0  0  0
    0.6930    2.1600   -2.0620 C   0  0  0  0  0  0  0  0  0  0  0  0
    0.6440    1.1860   -1.2180 O   0  0  0  0  0  0  0  0  0  0  0  0
    0.5910    0.1970   -0.3670 C   0  0  0  0  0  0  0  0  0  0  0  0
   -0.4220   -0.3470    0.3590 C   0  0  0  0  0  0  0  0  0  0  0  0
   -1.7560    0.2040    0.2370 C   0  0  0  0  0  0  0  0  0  0  0  0
   -1.8670    1.4050   -0.7130 C   0  0  0  0  0  0  0  0  0  0  0  0
   -2.8830   -0.1160    0.7520 C   0  0  0  0  0  0  0  0  0  0  0  0
   -3.2610   -1.1760    1.6640 C   0  0  0  0  0  0  0  0  0  0  0  0
   -4.1290    0.7700    0.4040 C   0  0  0  0  0  0  0  0  0  0  0  0
   -0.1540   -1.4680    1.3190 C   0  0  2  0  0  0  0  0  0  0  0  0
   -0.5010   -2.7720    0.6650 C   0  0  0  0  0  0  0  0  0  0  0  0
   -0.7940   -1.2420    2.5330 O   0  0  0  0  0  0  0  0  0  0  0  0
    1.3020   -1.5870    1.7740 C   0  0  0  0  0  0  0  0  0  0  0  0
    2.1320   -1.4730    0.6300 O   0  0  0  0  0  0  0  0  0  0  0  0
    1.9510   -0.4290   -0.2030 C   0  0  0  0  0  0  0  0  0  0  0  0
    2.9650    0.0410   -0.8750 C   0  0  0  0  0  0  0  0  0  0  0  0
    4.3390   -0.5790   -0.7200 C   0  0  0  0  0  0  0  0  0  0  0  0
    4.7220   -1.0390   -1.9880 O   0  0  0  0  0  0  0  0  0  0  0  0
  1  2  1  0
  2  3  1  0
  3  4  1  0
  4  5  2  0
  4 16  1  0
  5  6  1  0
  5 11  1  0
  6  7  1  0
  6  8  2  3
  8  9  1  0
  8 10  1  0
 11 12  1  6
 11 13  1  0
 11 14  1  0
 14 15  1  0
 15 16  1  0
 16 17  2  3
 17 18  1  0
 18 19  1  0
M  END
