
     RDKit          3D

 23 24  0  0  0  0  0  0  0  0999 V2000
    1.4790    0.4390    0.6450 O   0  0  0  0  0  0  0  0  0  0  0  0
    1.4520   -0.0290   -0.5440 C   0  0  0  0  0  0  0  0  0  0  0  0
    2.7310   -0.0500   -1.2980 C   0  0  0  0  0  0  0  0  0  0  0  0
    3.8430    0.5160   -0.4490 C   0  0  1  0  0  0  0  0  0  0  0  0
    3.9750   -0.3220    0.7890 C   0  0  0  0  0  0  0  0  0  0  0  0
    5.4330   -0.7590    0.7330 C   0  0  0  0  0  0  0  0  0  0  0  0
    6.0240    0.3580   -0.1230 C   0  0  0  0  0  0  0  0  0  0  0  0
    5.0480    0.4460   -1.1320 O   0  0  0  0  0  0  0  0  0  0  0  0
    0.2340   -0.5060   -1.1040 N   0  0  0  0  0  0  0  0  0  0  0  0
   -0.9550   -0.4410   -0.2930 C   0  0  1  0  0  0  0  0  0  0  0  0
   -1.2230    0.9720    0.0400 C   0  0  0  0  0  0  0  0  0  0  0  0
   -0.4480    1.8560   -0.4060 O   0  0  0  0  0  0  0  0  0  0  0  0
   -2.3340    1.3640    0.8520 N   0  0  0  0  0  0  0  0  0  0  0  0
   -2.5410    2.7290    1.1380 C   0  0  0  0  0  0  0  0  0  0  0  0
   -3.6480    3.3560    0.7860 C   0  0  0  0  0  0  0  0  0  0  0  0
   -3.8730    4.7970    1.0850 C   0  0  0  0  0  0  0  0  0  0  0  0
   -4.9820    5.0180    1.8750 O   0  0  0  0  0  0  0  0  0  0  0  0
   -2.1230   -0.9040   -1.1470 C   0  0  0  0  0  0  0  0  0  0  0  0
   -1.8620   -2.1840   -1.8660 C   0  0  0  0  0  0  0  0  0  0  0  0
   -1.1470   -3.2150   -0.9930 C   0  0  0  0  0  0  0  0  0  0  0  0
   -1.9040   -3.4420    0.2930 C   0  0  0  0  0  0  0  0  0  0  0  0
   -1.8690   -2.2500    1.2080 C   0  0  0  0  0  0  0  0  0  0  0  0
   -0.7580   -1.3000    0.9200 C   0  0  0  0  0  0  0  0  0  0  0  0
  1  2  2  0
  2  3  1  0
  2  9  1  0
  4  3  1  6
  4  5  1  0
  4  8  1  0
  5  6  1  0
  6  7  1  0
  7  8  1  0
 10  9  1  6
 10 11  1  0
 10 18  1  0
 10 23  1  0
 11 12  2  0
 11 13  1  0
 13 14  1  0
 14 15  2  3
 15 16  1  0
 16 17  1  0
 18 19  1  0
 19 20  1  0
 20 21  1  0
 21 22  1  0
 22 23  1  0
M  END
