
     RDKit          3D

 19 20  0  0  0  0  0  0  0  0999 V2000
    1.1360   -2.6270    0.0920 C   0  0  0  0  0  0  0  0  0  0  0  0
   -0.1390   -1.8690    0.0660 C   0  0  0  0  0  0  0  0  0  0  0  0
   -0.4280   -0.5750    0.0900 C   0  0  0  0  0  0  0  0  0  0  0  0
    0.5290    0.4960    0.1540 C   0  0  0  0  0  0  0  0  0  0  0  0
   -0.0810    1.6800    0.0990 O   0  0  0  0  0  0  0  0  0  0  0  0
    1.8840    0.6990    0.2580 N   0  0  0  0  0  0  0  0  0  0  0  0
    2.2760    2.1830    0.2280 C   0  0  0  0  0  0  0  0  0  0  0  0
    2.9930   -0.1240    0.3950 C   0  0  0  0  0  0  0  0  0  0  0  0
    3.6460   -0.5580   -0.8800 C   0  0  0  0  0  0  0  0  0  0  0  0
    4.7820   -1.3980   -0.8080 N   0  0  0  0  0  0  0  0  0  0  0  0
    3.2250   -0.2060   -1.9910 O   0  0  0  0  0  0  0  0  0  0  0  0
   -1.8890   -0.3580    0.0500 C   0  0  0  0  0  0  0  0  0  0  0  0
   -2.7740    0.7960    0.0610 C   0  0  0  0  0  0  0  0  0  0  0  0
   -4.1270    0.5880   -0.0090 C   0  0  0  0  0  0  0  0  0  0  0  0
   -4.8630    1.8560    0.0160 C   0  0  0  0  0  0  0  0  0  0  0  0
   -3.8360    2.8610    0.1180 C   0  0  0  0  0  0  0  0  0  0  0  0
   -2.6500    2.2080    0.1400 C   0  0  0  0  0  0  0  0  0  0  0  0
   -2.4000   -1.5910   -0.0020 N   0  0  0  0  0  0  0  0  0  0  0  0
   -1.4750   -2.5910   -0.0020 C   0  0  0  0  0  0  0  0  0  0  0  0
  1  2  1  0
  2  3  2  0
  2 19  1  0
  3  4  1  0
  3 12  1  0
  4  5  2  0
  4  6  1  0
  6  7  1  0
  6  8  1  0
  8  9  1  0
  9 10  1  0
  9 11  2  0
 12 13  1  0
 12 18  2  0
 13 14  2  0
 13 17  1  0
 14 15  1  0
 15 16  1  0
 16 17  2  0
 18 19  1  0
M  END
