
     RDKit          3D

 23 24  0  0  0  0  0  0  0  0999 V2000
    5.0410    1.6040   -1.4680 C   0  0  0  0  0  0  0  0  0  0  0  0
    4.8660    0.5100   -0.6990 C   0  0  0  0  0  0  0  0  0  0  0  0
    6.0480   -0.2850   -0.3210 C   0  0  0  0  0  0  0  0  0  0  0  0
    5.7050   -1.4460    0.5140 C   0  0  0  0  0  0  0  0  0  0  0  0
    4.4800   -1.7150    0.8640 C   0  0  0  0  0  0  0  0  0  0  0  0
    3.3340   -0.8810    0.4560 C   0  0  0  0  0  0  0  0  0  0  0  0
    3.4980    0.1670   -0.2790 C   0  0  0  0  0  0  0  0  0  0  0  0
    2.5270    1.0670   -0.7540 O   0  0  0  0  0  0  0  0  0  0  0  0
    2.0140    2.0170    0.1250 C   0  0  0  0  0  0  0  0  0  0  0  0
    1.0940    1.4840    1.1600 C   0  0  0  0  0  0  0  0  0  0  0  0
   -0.1220    0.9660    0.6300 N   0  0  0  0  0  0  0  0  0  0  0  0
   -0.4050    0.0140   -0.3190 C   0  0  0  0  0  0  0  0  0  0  0  0
    0.5300   -0.5650   -0.9200 O   0  0  0  0  0  0  0  0  0  0  0  0
   -1.7640   -0.4230   -0.7320 C   0  0  0  0  0  0  0  0  0  0  0  0
   -2.0380   -1.1210   -1.8670 N   0  0  0  0  0  0  0  0  0  0  0  0
   -3.3430   -1.3900   -1.9560 C   0  0  0  0  0  0  0  0  0  0  0  0
   -3.9930   -0.8610   -0.8450 C   0  0  0  0  0  0  0  0  0  0  0  0
   -5.4220   -0.9480   -0.6040 C   0  0  0  0  0  0  0  0  0  0  0  0
   -6.1480   -1.5920   -1.4420 O   0  0  0  0  0  0  0  0  0  0  0  0
   -6.0810   -0.4000    0.4500 O   0  0  0  0  0  0  0  0  0  0  0  0
   -7.4990   -0.5170    0.6370 C   0  0  0  0  0  0  0  0  0  0  0  0
   -2.9760   -0.2650   -0.1010 C   0  0  0  0  0  0  0  0  0  0  0  0
   -3.2300    0.3970    1.2000 C   0  0  0  0  0  0  0  0  0  0  0  0
  1  2  2  0
  2  3  1  0
  2  7  1  0
  3  4  1  0
  4  5  2  0
  5  6  1  0
  6  7  2  0
  7  8  1  0
  8  9  1  0
  9 10  1  0
 10 11  1  0
 11 12  1  0
 12 13  2  0
 12 14  1  0
 14 15  1  0
 14 22  2  0
 15 16  1  0
 16 17  2  0
 17 18  1  0
 17 22  1  0
 18 19  2  0
 18 20  1  0
 20 21  1  0
 22 23  1  0
M  END
