
     RDKit          3D

 19 19  0  0  0  0  0  0  0  0999 V2000
    4.2150    0.8470    1.5850 C   0  0  0  0  0  0  0  0  0  0  0  0
    4.9630    0.1870    0.7500 C   0  0  0  0  0  0  0  0  0  0  0  0
    4.4150   -0.3000   -0.4990 C   0  0  0  0  0  0  0  0  0  0  0  0
    5.2090   -0.9570   -1.3330 C   0  0  0  0  0  0  0  0  0  0  0  0
    6.6410   -1.2130   -1.0330 C   0  0  0  0  0  0  0  0  0  0  0  0
    3.0650   -0.0710   -0.8190 N   0  0  0  0  0  0  0  0  0  0  0  0
    1.9720   -0.6160   -0.0920 C   0  0  0  0  0  0  0  0  0  0  0  0
    2.2160   -1.3520    0.8910 O   0  0  0  0  0  0  0  0  0  0  0  0
    0.5630   -0.3460   -0.4550 C   0  0  0  0  0  0  0  0  0  0  0  0
   -0.3330   -1.0600    0.4990 C   0  0  0  0  0  0  0  0  0  0  0  0
   -1.7240   -0.8860    0.2650 N   0  0  0  0  0  0  0  0  0  0  0  0
   -2.3660    0.4020    0.2910 C   0  0  0  0  0  0  0  0  0  0  0  0
   -1.6480    1.3870    0.5310 O   0  0  0  0  0  0  0  0  0  0  0  0
   -3.8000    0.4850    0.0390 C   0  0  0  0  0  0  0  0  0  0  0  0
   -4.6090   -0.5100   -0.2180 C   0  0  0  0  0  0  0  0  0  0  0  0
   -5.9980   -0.0330   -0.4180 C   0  0  0  0  0  0  0  0  0  0  0  0
   -5.9100    1.4300   -0.2400 C   0  0  0  0  0  0  0  0  0  0  0  0
   -6.9000    2.3030   -0.3230 C   0  0  0  0  0  0  0  0  0  0  0  0
   -4.5250    1.7070    0.0430 N   0  0  0  0  0  0  0  0  0  0  0  0
  1  2  2  0
  2  3  1  0
  3  4  2  3
  3  6  1  0
  4  5  1  0
  6  7  1  0
  7  8  2  0
  7  9  1  0
  9 10  1  0
 10 11  1  0
 11 12  1  0
 12 13  2  0
 12 14  1  0
 14 15  2  0
 14 19  1  0
 15 16  1  0
 16 17  1  0
 17 18  2  0
 17 19  1  0
M  END
