
     RDKit          3D

 23 24  0  0  0  0  0  0  0  0999 V2000
    2.5510   -3.5120   -1.5080 C   0  0  0  0  0  0  0  0  0  0  0  0
    3.6470   -2.8980   -1.3080 C   0  0  0  0  0  0  0  0  0  0  0  0
    3.9810   -1.6040   -0.8440 C   0  0  0  0  0  0  0  0  0  0  0  0
    5.3150   -1.3150   -0.7660 C   0  0  0  0  0  0  0  0  0  0  0  0
    3.1290   -0.5200   -0.4330 C   0  0  0  0  0  0  0  0  0  0  0  0
    3.7510    0.5560   -0.0530 O   0  0  0  0  0  0  0  0  0  0  0  0
    1.7390   -0.4250   -0.3730 N   0  0  0  0  0  0  0  0  0  0  0  0
    1.0050    0.7160    0.0530 C   0  0  0  0  0  0  0  0  0  0  0  0
    1.5290    1.9310    0.3920 C   0  0  0  0  0  0  0  0  0  0  0  0
    0.7720    3.0400    0.7890 C   0  0  0  0  0  0  0  0  0  0  0  0
    1.4020    4.3340    1.1460 C   0  0  0  0  0  0  0  0  0  0  0  0
    2.7850    4.2890    1.0340 O   0  0  0  0  0  0  0  0  0  0  0  0
   -0.5870    2.8740    0.8340 C   0  0  0  0  0  0  0  0  0  0  0  0
   -1.3970    3.9260    1.2170 O   0  0  0  0  0  0  0  0  0  0  0  0
   -1.1390    1.6390    0.4910 C   0  0  0  0  0  0  0  0  0  0  0  0
   -0.4040    0.5530    0.1030 C   0  0  0  0  0  0  0  0  0  0  0  0
   -1.0140   -0.7410   -0.2830 C   0  0  0  0  0  0  0  0  0  0  0  0
   -2.4180   -0.7250   -0.1030 N   0  0  0  0  0  0  0  0  0  0  0  0
   -2.8600   -0.7390    1.2590 C   0  0  0  0  0  0  0  0  0  0  0  0
   -4.3040   -0.2840    1.2920 C   0  0  0  0  0  0  0  0  0  0  0  0
   -5.0740   -1.1870    0.5910 O   0  0  0  0  0  0  0  0  0  0  0  0
   -4.4020   -2.1640   -0.0880 C   0  0  0  0  0  0  0  0  0  0  0  0
   -3.1740   -1.6950   -0.8360 C   0  0  0  0  0  0  0  0  0  0  0  0
  1  2  2  0
  2  3  1  0
  3  4  2  0
  3  5  1  0
  5  6  2  0
  5  7  1  0
  7  8  1  0
  8  9  2  0
  8 16  1  0
  9 10  1  0
 10 11  1  0
 10 13  2  0
 11 12  1  0
 13 14  1  0
 13 15  1  0
 15 16  2  0
 16 17  1  0
 17 18  1  0
 18 19  1  0
 18 23  1  0
 19 20  1  0
 20 21  1  0
 21 22  1  0
 22 23  1  0
M  END
