
     RDKit          3D

 29 31  0  0  0  0  0  0  0  0999 V2000
   -2.3390   -2.9500    1.6100 C   0  0  0  0  0  0  0  0  0  0  0  0
   -2.2070   -1.5210    1.2750 C   0  0  0  0  0  0  0  0  0  0  0  0
   -1.1200   -0.7320    1.5680 C   0  0  0  0  0  0  0  0  0  0  0  0
   -1.3980    0.5220    1.0870 C   0  0  0  0  0  0  0  0  0  0  0  0
   -0.5590    1.7390    1.1450 C   0  0  0  0  0  0  0  0  0  0  0  0
    0.3680    1.8560    0.1080 O   0  0  0  0  0  0  0  0  0  0  0  0
    1.3760    1.0070   -0.2070 C   0  0  0  0  0  0  0  0  0  0  0  0
    1.1790   -0.0260   -1.0910 C   0  0  0  0  0  0  0  0  0  0  0  0
   -0.1310   -0.2650   -1.7460 C   0  0  0  0  0  0  0  0  0  0  0  0
    2.2310   -0.8940   -1.4060 C   0  0  0  0  0  0  0  0  0  0  0  0
    3.4740   -0.7020   -0.8160 C   0  0  0  0  0  0  0  0  0  0  0  0
    3.6870    0.3270    0.0720 C   0  0  0  0  0  0  0  0  0  0  0  0
    2.6200    1.1610    0.3530 C   0  0  0  0  0  0  0  0  0  0  0  0
    2.8360    2.2600    1.2970 C   0  0  0  0  0  0  0  0  0  0  0  0
    4.9960    0.5400    0.7260 C   0  0  0  0  0  0  0  0  0  0  0  0
    6.0840    0.0800   -0.2110 C   0  0  1  0  0  0  0  0  0  0  0  0
    7.4620    0.2950    0.3700 C   0  0  0  0  0  0  0  0  0  0  0  0
    5.8510   -1.2970   -0.4950 O   0  0  0  0  0  0  0  0  0  0  0  0
    4.6190   -1.5680   -1.1200 C   0  0  0  0  0  0  0  0  0  0  0  0
    4.4550   -2.5070   -1.9160 O   0  0  0  0  0  0  0  0  0  0  0  0
   -2.5800    0.4720    0.5430 O   0  0  0  0  0  0  0  0  0  0  0  0
   -3.1110   -0.6960    0.6170 C   0  0  0  0  0  0  0  0  0  0  0  0
   -4.4040   -1.1690    0.1400 C   0  0  0  0  0  0  0  0  0  0  0  0
   -4.7110   -2.4040    0.3500 O   0  0  0  0  0  0  0  0  0  0  0  0
   -5.3620   -0.3740   -0.5410 N   0  0  0  0  0  0  0  0  0  0  0  0
   -6.6430   -0.9610   -0.9560 C   0  0  0  0  0  0  0  0  0  0  0  0
   -5.1550    1.0120   -0.8900 C   0  0  0  0  0  0  0  0  0  0  0  0
   -4.5620    1.1150   -2.2860 C   0  0  0  0  0  0  0  0  0  0  0  0
   -3.3520    0.4730   -2.4040 O   0  0  0  0  0  0  0  0  0  0  0  0
  1  2  1  0
  2  3  1  0
  2 22  2  0
  3  4  2  0
  4  5  1  0
  4 21  1  0
  5  6  1  0
  6  7  1  0
  7  8  2  0
  7 13  1  0
  8  9  1  0
  8 10  1  0
 10 11  2  0
 11 12  1  0
 11 19  1  0
 12 13  2  0
 12 15  1  0
 13 14  1  0
 15 16  1  0
 16 17  1  1
 16 18  1  0
 18 19  1  0
 19 20  2  0
 21 22  1  0
 22 23  1  0
 23 24  2  0
 23 25  1  0
 25 26  1  0
 25 27  1  0
 27 28  1  0
 28 29  1  0
M  END
