
     RDKit          3D

 29 31  0  0  0  0  0  0  0  0999 V2000
   -5.6580    1.8500    2.7850 C   0  0  0  0  0  0  0  0  0  0  0  0
   -5.4840    1.0970    1.5050 C   0  0  0  0  0  0  0  0  0  0  0  0
   -6.3840    0.1000    1.1490 C   0  0  0  0  0  0  0  0  0  0  0  0
   -6.2430   -0.6120   -0.0330 C   0  0  0  0  0  0  0  0  0  0  0  0
   -7.2200   -1.6810   -0.4000 C   0  0  0  0  0  0  0  0  0  0  0  0
   -5.2080   -0.3520   -0.8870 C   0  0  0  0  0  0  0  0  0  0  0  0
   -5.0360   -1.1110   -2.1730 C   0  0  0  0  0  0  0  0  0  0  0  0
   -4.3170    0.6400   -0.5280 C   0  0  0  0  0  0  0  0  0  0  0  0
   -3.2630    0.8890   -1.4220 O   0  0  0  0  0  0  0  0  0  0  0  0
   -2.0890    0.1910   -1.2700 C   0  0  0  0  0  0  0  0  0  0  0  0
   -1.9870   -0.6530   -0.3350 O   0  0  0  0  0  0  0  0  0  0  0  0
   -0.9550    0.3970   -2.1590 C   0  0  0  0  0  0  0  0  0  0  0  0
    0.1680   -0.2590   -2.0270 C   0  0  0  0  0  0  0  0  0  0  0  0
    0.4180   -1.2800   -0.9670 C   0  0  0  0  0  0  0  0  0  0  0  0
    1.8220   -1.7470   -1.2150 C   0  0  2  0  0  0  0  0  0  0  0  0
    2.6610   -1.3910   -0.0230 C   0  0  0  0  0  0  0  0  0  0  0  0
    3.2340   -2.3010    0.6250 O   0  0  0  0  0  0  0  0  0  0  0  0
    2.8090   -0.0490    0.3720 N   0  0  0  0  0  0  0  0  0  0  0  0
    3.5960    0.3870    1.5050 C   0  0  0  0  0  0  0  0  0  0  0  0
    5.0310   -0.0250    1.3060 C   0  0  1  0  0  0  0  0  0  0  0  0
    5.5980    0.6060    0.0320 C   0  0  0  0  0  0  0  0  0  0  0  0
    7.0010    0.0970   -0.1280 C   0  0  0  0  0  0  0  0  0  0  0  0
    7.6340   -0.2060    1.0510 O   0  0  0  0  0  0  0  0  0  0  0  0
    7.3460    0.6490    2.0960 C   0  0  0  0  0  0  0  0  0  0  0  0
    5.9010    0.4890    2.4170 C   0  0  0  0  0  0  0  0  0  0  0  0
    5.4100    0.7430    3.4900 O   0  0  0  0  0  0  0  0  0  0  0  0
    2.2920   -1.0510   -2.4560 C   0  0  0  0  0  0  0  0  0  0  0  0
    1.2980   -0.1390   -2.8110 O   0  0  0  0  0  0  0  0  0  0  0  0
   -4.4430    1.3570    0.6430 C   0  0  0  0  0  0  0  0  0  0  0  0
  1  2  1  0
  2  3  2  0
  2 29  1  0
  3  4  1  0
  4  5  1  0
  4  6  2  0
  6  7  1  0
  6  8  1  0
  8  9  1  0
  8 29  2  0
  9 10  1  0
 10 11  2  0
 10 12  1  0
 12 13  2  3
 13 14  1  0
 13 28  1  0
 14 15  1  0
 15 16  1  1
 15 27  1  0
 16 17  2  0
 16 18  1  0
 18 19  1  0
 20 19  1  1
 20 21  1  0
 20 25  1  0
 21 22  1  0
 22 23  1  0
 23 24  1  0
 24 25  1  0
 25 26  2  0
 27 28  1  0
M  END
