
     RDKit          3D

 29 32  0  0  0  0  0  0  0  0999 V2000
    5.4460   -2.9520   -0.1050 C   0  0  0  0  0  0  0  0  0  0  0  0
    4.7740   -1.8780   -0.7870 N   0  0  0  0  0  0  0  0  0  0  0  0
    3.8000   -1.0540   -0.1330 C   0  0  0  0  0  0  0  0  0  0  0  0
    3.4670   -1.2690    1.1970 C   0  0  0  0  0  0  0  0  0  0  0  0
    2.5180   -0.4530    1.8070 C   0  0  0  0  0  0  0  0  0  0  0  0
    1.8960    0.5630    1.1330 C   0  0  0  0  0  0  0  0  0  0  0  0
    0.8800    1.4160    1.8290 C   0  0  1  0  0  0  0  0  0  0  0  0
    1.8800    2.8640    2.3450 Cl  0  0  0  0  0  0  0  0  0  0  0  0
   -0.2170    1.7560    1.0790 N   0  0  0  0  0  0  0  0  0  0  0  0
   -1.2020    1.2830    0.4570 C   0  0  0  0  0  0  0  0  0  0  0  0
   -2.1340    2.2020   -0.2260 C   0  0  0  0  0  0  0  0  0  0  0  0
   -3.3270    1.7940   -0.7560 C   0  0  0  0  0  0  0  0  0  0  0  0
   -4.0700    2.6810   -1.5130 C   0  0  0  0  0  0  0  0  0  0  0  0
   -3.6530    3.9710   -1.7510 C   0  0  0  0  0  0  0  0  0  0  0  0
   -2.4560    4.3760   -1.2110 C   0  0  0  0  0  0  0  0  0  0  0  0
   -1.6870    3.5100   -0.4490 C   0  0  0  0  0  0  0  0  0  0  0  0
   -0.4270    4.0080    0.1160 C   0  0  0  0  0  0  0  0  0  0  0  0
   -1.4300   -0.1700    0.4460 C   0  0  0  0  0  0  0  0  0  0  0  0
   -0.8380   -1.0950    1.2200 N   0  0  0  0  0  0  0  0  0  0  0  0
   -1.0960   -2.3480    0.7960 C   0  0  0  0  0  0  0  0  0  0  0  0
   -0.6070   -3.6290    1.4060 C   0  0  0  0  0  0  0  0  0  0  0  0
   -1.8970   -2.2800   -0.3120 C   0  0  0  0  0  0  0  0  0  0  0  0
   -2.1070   -0.9270   -0.5350 C   0  0  0  0  0  0  0  0  0  0  0  0
   -2.9050   -0.8930   -1.6590 O   0  0  0  0  0  0  0  0  0  0  0  0
   -3.5610   -2.1100   -1.9230 C   0  0  0  0  0  0  0  0  0  0  0  0
   -2.6080   -3.0760   -1.3290 C   0  0  0  0  0  0  0  0  0  0  0  0
   -2.4630   -4.2690   -1.6350 O   0  0  0  0  0  0  0  0  0  0  0  0
    2.2320    0.7670   -0.1790 C   0  0  0  0  0  0  0  0  0  0  0  0
    3.1790   -0.0410   -0.7990 C   0  0  0  0  0  0  0  0  0  0  0  0
  1  2  1  0
  2  3  1  0
  3  4  2  0
  3 29  1  0
  4  5  1  0
  5  6  2  0
  6  7  1  0
  6 28  1  0
  7  8  1  6
  7  9  1  0
  9 10  2  3
 10 11  1  0
 10 18  1  0
 11 12  2  0
 11 16  1  0
 12 13  1  0
 13 14  2  0
 14 15  1  0
 15 16  2  0
 16 17  1  0
 18 19  1  0
 18 23  2  0
 19 20  1  0
 20 21  1  0
 20 22  2  0
 22 23  1  0
 22 26  1  0
 23 24  1  0
 24 25  1  0
 25 26  1  0
 26 27  2  0
 28 29  2  0
M  END
