
     RDKit          3D

 29 31  0  0  0  0  0  0  0  0999 V2000
    5.1920   -2.0110   -1.8600 C   0  0  0  0  0  0  0  0  0  0  0  0
    4.1230   -1.4950   -1.1030 O   0  0  0  0  0  0  0  0  0  0  0  0
    2.7990   -1.5990   -1.4110 C   0  0  0  0  0  0  0  0  0  0  0  0
    2.5090   -2.2130   -2.4770 O   0  0  0  0  0  0  0  0  0  0  0  0
    1.7320   -1.0670   -0.6000 C   0  0  0  0  0  0  0  0  0  0  0  0
    0.4470   -1.2600   -0.9520 C   0  0  0  0  0  0  0  0  0  0  0  0
   -0.6790   -0.8010   -0.1960 C   0  0  0  0  0  0  0  0  0  0  0  0
   -1.9910   -0.8580   -0.7100 C   0  0  0  0  0  0  0  0  0  0  0  0
   -3.0160   -0.2530   -0.0090 C   0  0  0  0  0  0  0  0  0  0  0  0
   -4.3770   -0.3040   -0.5370 C   0  0  0  0  0  0  0  0  0  0  0  0
   -4.6500   -0.8700   -1.6040 O   0  0  0  0  0  0  0  0  0  0  0  0
   -5.4210    0.2950    0.1610 O   0  0  0  0  0  0  0  0  0  0  0  0
   -6.7370    0.2590   -0.3290 C   0  0  2  0  0  0  0  0  0  0  0  0
   -7.2120    1.6840   -0.5030 C   0  0  0  0  0  0  0  0  0  0  0  0
   -7.6870   -0.4350    0.6190 C   0  0  0  0  0  0  0  0  0  0  0  0
   -2.7920    0.4070    1.1860 C   0  0  0  0  0  0  0  0  0  0  0  0
   -1.4980    0.4750    1.7200 C   0  0  0  0  0  0  0  0  0  0  0  0
   -0.5090   -0.1410    0.9920 C   0  0  0  0  0  0  0  0  0  0  0  0
    0.8770   -0.2770    1.5770 C   0  0  0  0  0  0  0  0  0  0  0  0
    1.9020   -0.0790    0.5190 C   0  0  1  0  0  0  0  0  0  0  0  0
    3.2450    0.0080    1.0840 C   0  0  0  0  0  0  0  0  0  0  0  0
    3.6050   -0.6290    2.2580 C   0  0  0  0  0  0  0  0  0  0  0  0
    4.8980   -0.5620    2.7330 C   0  0  0  0  0  0  0  0  0  0  0  0
    5.8170    0.1280    2.0470 N   0  0  0  0  0  0  0  0  0  0  0  0
    5.5000    0.7570    0.9060 C   0  0  0  0  0  0  0  0  0  0  0  0
    6.4610    1.4830    0.1810 O   0  0  0  0  0  0  0  0  0  0  0  0
    4.2340    0.7230    0.3930 C   0  0  0  0  0  0  0  0  0  0  0  0
    3.9180    1.3980   -0.8060 O   0  0  0  0  0  0  0  0  0  0  0  0
    3.4710    2.7350   -0.7550 C   0  0  0  0  0  0  0  0  0  0  0  0
  1  2  1  0
  2  3  1  0
  3  4  2  0
  3  5  1  0
  5  6  2  0
  5 20  1  0
  6  7  1  0
  7  8  2  0
  7 18  1  0
  8  9  1  0
  9 10  1  0
  9 16  2  0
 10 11  2  0
 10 12  1  0
 12 13  1  0
 13 14  1  1
 13 15  1  0
 16 17  1  0
 17 18  2  0
 18 19  1  0
 19 20  1  0
 20 21  1  1
 21 22  2  0
 21 27  1  0
 22 23  1  0
 23 24  2  0
 24 25  1  0
 25 26  1  0
 25 27  2  0
 27 28  1  0
 28 29  1  0
M  END
