
     RDKit          3D

 29 32  0  0  0  0  0  0  0  0999 V2000
    1.5620   -3.3620    0.6890 C   0  0  0  0  0  0  0  0  0  0  0  0
    1.7240   -1.8630    0.8890 C   0  0  0  0  0  0  0  0  0  0  0  0
    1.7650   -1.0830   -0.1520 C   0  0  0  0  0  0  0  0  0  0  0  0
    1.6500   -1.7660   -1.4900 C   0  0  0  0  0  0  0  0  0  0  0  0
    1.8430    0.3560   -0.1140 C   0  0  0  0  0  0  0  0  0  0  0  0
    2.3090    0.9380   -1.3260 C   0  0  0  0  0  0  0  0  0  0  0  0
    2.4770    2.2810   -1.4370 C   0  0  0  0  0  0  0  0  0  0  0  0
    2.2000    3.0940   -0.3840 C   0  0  0  0  0  0  0  0  0  0  0  0
    2.3640    4.4650   -0.4650 O   0  0  0  0  0  0  0  0  0  0  0  0
    2.8330    5.0450   -1.6760 C   0  0  0  0  0  0  0  0  0  0  0  0
    1.7500    2.5470    0.7760 C   0  0  0  0  0  0  0  0  0  0  0  0
    1.5560    1.1660    0.9440 C   0  0  0  0  0  0  0  0  0  0  0  0
    1.0350    0.6540    2.1880 C   0  0  0  0  0  0  0  0  0  0  0  0
    1.5520    0.7920    3.4390 N   0  0  0  0  0  0  0  0  0  0  0  0
    0.7580    0.2980    4.3370 N   0  0  0  0  0  0  0  0  0  0  0  0
   -0.3070   -0.1760    3.6770 C   0  0  0  0  0  0  0  0  0  0  0  0
   -1.3320   -0.7460    4.1650 O   0  0  0  0  0  0  0  0  0  0  0  0
   -0.1670    0.0280    2.3550 N   0  0  0  0  0  0  0  0  0  0  0  0
   -1.0880   -0.2910    1.3120 C   0  0  0  0  0  0  0  0  0  0  0  0
   -1.4760    0.6540    0.3770 C   0  0  0  0  0  0  0  0  0  0  0  0
   -2.3690    0.3450   -0.6330 C   0  0  0  0  0  0  0  0  0  0  0  0
   -2.7710    1.3800   -1.6280 C   0  0  0  0  0  0  0  0  0  0  0  0
   -4.4160    1.9800   -1.2650 Cl  0  0  0  0  0  0  0  0  0  0  0  0
   -2.9140   -0.9190   -0.7540 C   0  0  0  0  0  0  0  0  0  0  0  0
   -2.5460   -1.8770    0.1610 C   0  0  0  0  0  0  0  0  0  0  0  0
   -1.6400   -1.5470    1.1780 C   0  0  0  0  0  0  0  0  0  0  0  0
   -3.1570   -3.0210   -0.1000 C   0  0  0  0  0  0  0  0  0  0  0  0
   -4.0120   -2.8240   -1.2930 C   0  0  0  0  0  0  0  0  0  0  0  0
   -3.7670   -1.4060   -1.6300 C   0  0  0  0  0  0  0  0  0  0  0  0
  1  2  1  0
  2  3  2  3
  3  4  1  0
  3  5  1  0
  5  6  2  0
  5 12  1  0
  6  7  1  0
  7  8  2  0
  8  9  1  0
  8 11  1  0
  9 10  1  0
 11 12  2  0
 12 13  1  0
 13 14  2  0
 13 18  1  0
 14 15  1  0
 15 16  1  0
 16 17  2  0
 16 18  1  0
 18 19  1  0
 19 20  1  0
 19 26  2  0
 20 21  2  0
 21 22  1  0
 21 24  1  0
 22 23  1  0
 24 25  1  0
 24 29  2  0
 25 26  1  0
 25 27  2  0
 27 28  1  0
 28 29  1  0
M  END
