
     RDKit          3D

 29 32  0  0  0  0  0  0  0  0999 V2000
   -8.4290    1.8570    0.7470 C   0  0  0  0  0  0  0  0  0  0  0  0
   -7.9180    0.6280    0.0600 C   0  0  0  0  0  0  0  0  0  0  0  0
   -6.5600    0.3400    0.0280 C   0  0  0  0  0  0  0  0  0  0  0  0
   -6.0430   -0.7720   -0.5880 C   0  0  0  0  0  0  0  0  0  0  0  0
   -4.5940   -1.0780   -0.6200 C   0  0  0  0  0  0  0  0  0  0  0  0
   -4.2990   -2.1300   -1.2230 O   0  0  0  0  0  0  0  0  0  0  0  0
   -3.6390   -0.2520   -0.0240 N   0  0  0  0  0  0  0  0  0  0  0  0
   -2.2500   -0.5410   -0.0440 C   0  0  0  0  0  0  0  0  0  0  0  0
   -1.3530    0.5040    0.2630 C   0  0  0  0  0  0  0  0  0  0  0  0
   -0.0030    0.2790    0.2800 C   0  0  0  0  0  0  0  0  0  0  0  0
    0.5500   -0.9430    0.0060 C   0  0  0  0  0  0  0  0  0  0  0  0
    1.8470   -1.2000    0.0080 O   0  0  0  0  0  0  0  0  0  0  0  0
    2.9960   -0.4770   -0.1320 C   0  0  0  0  0  0  0  0  0  0  0  0
    3.0810    0.7710   -0.6990 C   0  0  0  0  0  0  0  0  0  0  0  0
    4.2850    1.4820   -0.8200 C   0  0  0  0  0  0  0  0  0  0  0  0
    5.4580    0.9450   -0.3650 C   0  0  0  0  0  0  0  0  0  0  0  0
    5.3900   -0.3070    0.2060 C   0  0  0  0  0  0  0  0  0  0  0  0
    4.2180   -1.0120    0.3290 C   0  0  0  0  0  0  0  0  0  0  0  0
    6.5520   -1.0740    0.7650 C   0  0  0  0  0  0  0  0  0  0  0  0
    7.7790   -0.6960    0.1280 N   0  0  0  0  0  0  0  0  0  0  0  0
    8.3830    0.4890    0.6510 C   0  0  0  0  0  0  0  0  0  0  0  0
    7.8820    1.6510   -0.1500 C   0  0  0  0  0  0  0  0  0  0  0  0
    6.6270    1.7950   -0.5560 C   0  0  0  0  0  0  0  0  0  0  0  0
   -0.3480   -1.9550   -0.2920 C   0  0  0  0  0  0  0  0  0  0  0  0
   -1.7340   -1.7510   -0.3150 C   0  0  0  0  0  0  0  0  0  0  0  0
   -6.9470   -1.5920   -1.1750 N   0  0  0  0  0  0  0  0  0  0  0  0
   -8.2630   -1.3540   -1.1690 C   0  0  0  0  0  0  0  0  0  0  0  0
   -8.7920   -0.2400   -0.5530 C   0  0  0  0  0  0  0  0  0  0  0  0
  -10.5200    0.0750   -0.5450 Cl  0  0  0  0  0  0  0  0  0  0  0  0
  1  2  1  0
  2  3  2  0
  2 28  1  0
  3  4  1  0
  4  5  1  0
  4 26  2  0
  5  6  2  0
  5  7  1  0
  7  8  1  0
  8  9  2  0
  8 25  1  0
  9 10  1  0
 10 11  2  0
 11 12  1  0
 11 24  1  0
 12 13  1  0
 13 14  2  0
 13 18  1  0
 14 15  1  0
 15 16  2  0
 16 17  1  0
 16 23  1  0
 17 18  2  0
 17 19  1  0
 19 20  1  0
 20 21  1  0
 21 22  1  0
 22 23  2  0
 24 25  2  0
 26 27  1  0
 27 28  2  0
 28 29  1  0
M  END
