
     RDKit          3D

 29 32  0  0  0  0  0  0  0  0999 V2000
   -5.7170    2.6700   -1.1720 C   0  0  0  0  0  0  0  0  0  0  0  0
   -5.1570    1.3400   -1.5780 C   0  0  2  0  0  0  0  0  0  0  0  0
   -6.2440    0.2940   -1.5600 C   0  0  0  0  0  0  0  0  0  0  0  0
   -4.0610    0.9380   -0.6700 C   0  0  0  0  0  0  0  0  0  0  0  0
   -3.6520    1.7450    0.3550 C   0  0  0  0  0  0  0  0  0  0  0  0
   -2.6250    1.3380    1.1840 C   0  0  0  0  0  0  0  0  0  0  0  0
   -1.9840    0.1230    1.0140 C   0  0  0  0  0  0  0  0  0  0  0  0
   -0.9590   -0.2970    1.8310 C   0  0  0  0  0  0  0  0  0  0  0  0
   -0.3090   -1.5250    1.6630 C   0  0  0  0  0  0  0  0  0  0  0  0
    0.7820   -1.9290    2.5820 C   0  0  0  0  0  0  0  0  0  0  0  0
    2.0790   -1.3670    2.0310 C   0  0  0  0  0  0  0  0  0  0  0  0
    2.4090   -1.8500    0.6650 C   0  0  0  0  0  0  0  0  0  0  0  0
    3.6680   -1.3100    0.1020 C   0  0  0  0  0  0  0  0  0  0  0  0
    4.8610   -2.0400    0.2010 C   0  0  0  0  0  0  0  0  0  0  0  0
    6.0720   -1.6310   -0.2360 C   0  0  0  0  0  0  0  0  0  0  0  0
    6.1710   -0.4030   -0.8290 C   0  0  0  0  0  0  0  0  0  0  0  0
    5.0440    0.3780   -0.9660 C   0  0  0  0  0  0  0  0  0  0  0  0
    5.1050    1.5880   -1.5560 N   0  0  0  0  0  0  0  0  0  0  0  0
    4.0120    2.3570   -1.7090 C   0  0  0  0  0  0  0  0  0  0  0  0
    4.0570    3.4890   -2.2590 O   0  0  0  0  0  0  0  0  0  0  0  0
    2.8010    1.9230   -1.2640 N   0  0  0  0  0  0  0  0  0  0  0  0
    2.6830    0.7120   -0.6610 C   0  0  0  0  0  0  0  0  0  0  0  0
    1.5760    0.3300   -0.2650 O   0  0  0  0  0  0  0  0  0  0  0  0
    3.7930   -0.0770   -0.5010 C   0  0  0  0  0  0  0  0  0  0  0  0
   -0.7600   -2.3030    0.6140 C   0  0  0  0  0  0  0  0  0  0  0  0
   -1.7650   -1.8810   -0.1820 N   0  0  0  0  0  0  0  0  0  0  0  0
   -2.3900   -0.7020   -0.0210 C   0  0  0  0  0  0  0  0  0  0  0  0
   -3.4140   -0.2730   -0.8320 C   0  0  0  0  0  0  0  0  0  0  0  0
   -3.9070   -1.3450   -2.1380 Cl  0  0  0  0  0  0  0  0  0  0  0  0
  2  1  1  1
  2  3  1  0
  2  4  1  0
  4  5  2  0
  4 28  1  0
  5  6  1  0
  6  7  2  0
  7  8  1  0
  7 27  1  0
  8  9  2  0
  9 10  1  0
  9 25  1  0
 10 11  1  0
 11 12  1  0
 12 13  1  0
 13 14  2  0
 13 24  1  0
 14 15  1  0
 15 16  2  0
 16 17  1  0
 17 18  1  0
 17 24  2  0
 18 19  1  0
 19 20  2  0
 19 21  1  0
 21 22  1  0
 22 23  2  0
 22 24  1  0
 25 26  2  0
 26 27  1  0
 27 28  2  0
 28 29  1  0
M  END
