
     RDKit          3D

 29 30  0  0  0  0  0  0  0  0999 V2000
    4.3260    2.5100    1.2030 C   0  0  0  0  0  0  0  0  0  0  0  0
    4.7170    1.2420    1.5530 O   0  0  0  0  0  0  0  0  0  0  0  0
    5.5440    0.6390    0.6180 C   0  0  0  0  0  0  0  0  0  0  0  0
    4.9170    0.4260   -0.7150 C   0  0  0  0  0  0  0  0  0  0  0  0
    3.7950   -0.3830   -0.7640 O   0  0  0  0  0  0  0  0  0  0  0  0
    2.5890   -0.1790   -0.1070 C   0  0  0  0  0  0  0  0  0  0  0  0
    1.7350    0.7370   -0.5300 C   0  0  0  0  0  0  0  0  0  0  0  0
    0.4410    1.1400   -0.0390 C   0  0  0  0  0  0  0  0  0  0  0  0
   -0.7870    0.6770   -0.2740 C   0  0  0  0  0  0  0  0  0  0  0  0
   -1.8540    1.4340    0.4850 C   0  0  0  0  0  0  0  0  0  0  0  0
   -1.5540    2.3820    1.2460 O   0  0  0  0  0  0  0  0  0  0  0  0
   -3.2250    1.1300    0.3860 N   0  0  0  0  0  0  0  0  0  0  0  0
   -4.2780    1.8020    1.0700 C   0  0  2  0  0  0  0  0  0  0  0  0
   -4.2170    1.7760    2.5780 C   0  0  0  0  0  0  0  0  0  0  0  0
   -5.6450    1.3950    0.5710 C   0  0  0  0  0  0  0  0  0  0  0  0
   -5.7970    2.7290   -0.1420 C   0  0  0  0  0  0  0  0  0  0  0  0
   -4.5820    3.2060    0.6000 C   0  0  0  0  0  0  0  0  0  0  0  0
   -1.2360   -0.3640   -1.1430 C   0  0  0  0  0  0  0  0  0  0  0  0
   -1.1480   -1.6770   -1.2210 C   0  0  0  0  0  0  0  0  0  0  0  0
   -1.8230   -2.2850   -2.3660 O   0  0  0  0  0  0  0  0  0  0  0  0
   -1.3010   -2.0150   -3.6500 C   0  0  0  0  0  0  0  0  0  0  0  0
   -0.5060   -2.6590   -0.3740 C   0  0  0  0  0  0  0  0  0  0  0  0
    0.7110   -3.1230   -0.2990 C   0  0  0  0  0  0  0  0  0  0  0  0
    0.9990   -4.1770    0.7640 C   0  0  0  0  0  0  0  0  0  0  0  0
    1.8910   -2.8000   -1.1490 C   0  0  0  0  0  0  0  0  0  0  0  0
    3.1150   -2.8990   -0.3470 C   0  0  0  0  0  0  0  0  0  0  0  0
    4.1590   -3.5280   -0.7180 O   0  0  0  0  0  0  0  0  0  0  0  0
    3.1160   -2.2630    0.8860 O   0  0  0  0  0  0  0  0  0  0  0  0
    2.4000   -1.0840    1.0780 C   0  0  0  0  0  0  0  0  0  0  0  0
  1  2  1  0
  2  3  1  0
  3  4  1  0
  4  5  1  0
  5  6  1  0
  6  7  2  0
  6 29  1  0
  7  8  1  0
  8  9  2  0
  9 10  1  0
  9 18  1  0
 10 11  2  0
 10 12  1  0
 12 13  1  0
 13 14  1  1
 13 15  1  0
 13 17  1  0
 15 16  1  0
 16 17  1  0
 18 19  2  0
 19 20  1  0
 19 22  1  0
 20 21  1  0
 22 23  2  0
 23 24  1  0
 23 25  1  0
 25 26  1  0
 26 27  2  0
 26 28  1  0
 28 29  1  0
M  END
