
     RDKit          3D

 21 23  0  0  0  0  0  0  0  0999 V2000
   -2.8540    3.9500   -1.3730 C   0  0  0  0  0  0  0  0  0  0  0  0
   -1.8330    2.8970   -1.1850 C   0  0  0  0  0  0  0  0  0  0  0  0
   -1.4590    2.5610    0.0320 C   0  0  0  0  0  0  0  0  0  0  0  0
   -0.4850    1.5570    0.2400 N   0  0  0  0  0  0  0  0  0  0  0  0
   -0.8210    0.3150    0.3750 C   0  0  0  0  0  0  0  0  0  0  0  0
   -2.1420    0.0080    0.3110 N   0  0  0  0  0  0  0  0  0  0  0  0
   -2.5420   -1.2600    0.4450 C   0  0  0  0  0  0  0  0  0  0  0  0
   -3.7950   -1.8580    0.4240 C   0  0  0  0  0  0  0  0  0  0  0  0
   -5.1030   -1.1770    0.2320 C   0  0  0  0  0  0  0  0  0  0  0  0
   -3.6350   -3.2090    0.6120 C   0  0  0  0  0  0  0  0  0  0  0  0
   -2.3140   -3.4180    0.7430 N   0  0  0  0  0  0  0  0  0  0  0  0
   -1.6450   -2.2580    0.6450 C   0  0  0  0  0  0  0  0  0  0  0  0
   -0.3430   -1.9310    0.7050 N   0  0  0  0  0  0  0  0  0  0  0  0
    0.1060   -0.6800    0.5770 C   0  0  0  0  0  0  0  0  0  0  0  0
    1.4790   -0.3330    0.6400 N   0  0  0  0  0  0  0  0  0  0  0  0
    2.4690   -1.3730    0.8530 C   0  0  0  0  0  0  0  0  0  0  0  0
    3.3980   -1.3290   -0.3570 C   0  0  0  0  0  0  0  0  0  0  0  0
    4.0760    0.0120   -0.3890 C   0  0  2  0  0  0  0  0  0  0  0  0
    5.5290   -0.1870   -0.0700 C   0  0  0  0  0  0  0  0  0  0  0  0
    3.5010    0.9720    0.6460 C   0  0  0  0  0  0  0  0  0  0  0  0
    1.9720    1.0200    0.5030 C   0  0  0  0  0  0  0  0  0  0  0  0
  1  2  1  0
  2  3  2  3
  3  4  1  0
  4  5  2  3
  5  6  1  0
  5 14  1  0
  6  7  1  0
  7  8  1  0
  7 12  2  0
  8  9  1  0
  8 10  2  0
 10 11  1  0
 11 12  1  0
 12 13  1  0
 13 14  2  0
 14 15  1  0
 15 16  1  0
 15 21  1  0
 16 17  1  0
 17 18  1  0
 18 19  1  1
 18 20  1  0
 20 21  1  0
M  END
