
     RDKit          3D

 21 23  0  0  0  0  0  0  0  0999 V2000
   -5.8660   -0.0910    0.0060 C   0  0  0  0  0  0  0  0  0  0  0  0
   -4.6770    0.4550    0.0810 C   0  0  0  0  0  0  0  0  0  0  0  0
   -3.4660   -0.1990    0.0170 C   0  0  0  0  0  0  0  0  0  0  0  0
   -3.1690   -1.4770   -0.1280 C   0  0  0  0  0  0  0  0  0  0  0  0
   -4.0820   -2.6040   -0.2670 C   0  0  0  0  0  0  0  0  0  0  0  0
   -2.5170    0.8110    0.1440 C   0  0  0  0  0  0  0  0  0  0  0  0
   -1.0480    0.6990    0.1450 C   0  0  0  0  0  0  0  0  0  0  0  0
   -0.1840    1.7470    0.2750 N   0  0  0  0  0  0  0  0  0  0  0  0
    1.0540    1.2900    0.2350 N   0  0  0  0  0  0  0  0  0  0  0  0
    1.0440   -0.0440    0.0800 C   0  0  0  0  0  0  0  0  0  0  0  0
    2.1120   -0.9460   -0.0060 N   0  0  0  0  0  0  0  0  0  0  0  0
    3.4700   -0.5320    0.0490 C   0  0  1  0  0  0  0  0  0  0  0  0
    3.7600    0.2560    1.3070 C   0  0  0  0  0  0  0  0  0  0  0  0
    4.4130   -1.7440   -0.0270 C   0  0  0  0  0  0  0  0  0  0  0  0
    5.7520   -1.0490   -0.1680 C   0  0  0  0  0  0  0  0  0  0  0  0
    5.4780    0.1240   -1.0710 C   0  0  0  0  0  0  0  0  0  0  0  0
    3.9540    0.2420   -1.1510 C   0  0  0  0  0  0  0  0  0  0  0  0
   -0.2780   -0.3760    0.0280 N   0  0  0  0  0  0  0  0  0  0  0  0
   -3.1890    2.0060    0.2760 C   0  0  0  0  0  0  0  0  0  0  0  0
   -4.4940    1.8040    0.2390 N   0  0  0  0  0  0  0  0  0  0  0  0
   -5.5780    2.7970    0.3440 C   0  0  0  0  0  0  0  0  0  0  0  0
  1  2  2  0
  2  3  1  0
  2 20  1  0
  3  4  2  3
  3  6  1  0
  4  5  1  0
  6  7  1  0
  6 19  2  0
  7  8  2  0
  7 18  1  0
  8  9  1  0
  9 10  1  0
 10 11  1  0
 10 18  2  0
 11 12  1  0
 12 13  1  1
 12 14  1  0
 12 17  1  0
 14 15  1  0
 15 16  1  0
 16 17  1  0
 19 20  1  0
 20 21  1  0
M  END
