
     RDKit          3D

 23 25  0  0  0  0  0  0  0  0999 V2000
   -3.5060   -2.8320    0.1340 C   0  0  0  0  0  0  0  0  0  0  0  0
   -2.4650   -2.6570   -0.9230 C   0  0  0  0  0  0  0  0  0  0  0  0
   -1.3950   -1.8360   -0.5340 O   0  0  0  0  0  0  0  0  0  0  0  0
   -1.5260   -0.5110   -0.1510 C   0  0  0  0  0  0  0  0  0  0  0  0
   -2.7260    0.1610   -0.1070 C   0  0  0  0  0  0  0  0  0  0  0  0
   -2.7860    1.4990    0.2890 C   0  0  0  0  0  0  0  0  0  0  0  0
   -1.6120    2.1340    0.6360 C   0  0  0  0  0  0  0  0  0  0  0  0
   -1.6240    3.5270    1.0550 C   0  0  0  0  0  0  0  0  0  0  0  0
   -2.8820    4.2930    1.1220 C   0  0  0  0  0  0  0  0  0  0  0  0
   -0.5580    4.1110    1.3710 O   0  0  0  0  0  0  0  0  0  0  0  0
   -0.4110    1.4600    0.5910 C   0  0  0  0  0  0  0  0  0  0  0  0
   -0.3490    0.1380    0.2000 C   0  0  0  0  0  0  0  0  0  0  0  0
    0.9320   -0.5340    0.1670 C   0  0  0  0  0  0  0  0  0  0  0  0
    1.0420   -1.8030    0.6940 C   0  0  0  0  0  0  0  0  0  0  0  0
    2.2800   -2.4070    0.6420 C   0  0  0  0  0  0  0  0  0  0  0  0
    3.3820   -1.7860    0.0900 C   0  0  0  0  0  0  0  0  0  0  0  0
    3.2870   -0.4990   -0.4490 C   0  0  0  0  0  0  0  0  0  0  0  0
    4.4340    0.1600   -1.0300 C   0  0  0  0  0  0  0  0  0  0  0  0
    4.4750    1.3790   -1.5730 N   0  0  0  0  0  0  0  0  0  0  0  0
    5.7290    1.6130   -1.9950 N   0  0  0  0  0  0  0  0  0  0  0  0
    6.4680    0.5430   -1.7160 N   0  0  0  0  0  0  0  0  0  0  0  0
    5.6680   -0.3440   -1.1240 N   0  0  0  0  0  0  0  0  0  0  0  0
    2.0370    0.0800   -0.3830 C   0  0  0  0  0  0  0  0  0  0  0  0
  1  2  1  0
  2  3  1  0
  3  4  1  0
  4  5  2  0
  4 12  1  0
  5  6  1  0
  6  7  2  0
  7  8  1  0
  7 11  1  0
  8  9  1  0
  8 10  2  0
 11 12  2  0
 12 13  1  0
 13 14  2  0
 13 23  1  0
 14 15  1  0
 15 16  2  0
 16 17  1  0
 17 18  1  0
 17 23  2  0
 18 19  2  0
 18 22  1  0
 19 20  1  0
 20 21  2  0
 21 22  1  0
M  END
