
     RDKit          3D

 21 23  0  0  0  0  0  0  0  0999 V2000
   -4.7370    1.4530    2.1690 C   0  0  0  0  0  0  0  0  0  0  0  0
   -4.1580    0.9670    1.1170 C   0  0  0  0  0  0  0  0  0  0  0  0
   -2.8300    0.3170    1.2280 C   0  0  0  0  0  0  0  0  0  0  0  0
   -2.1730   -0.1990    0.2270 C   0  0  0  0  0  0  0  0  0  0  0  0
   -0.8810   -0.7980    0.5210 N   0  0  0  0  0  0  0  0  0  0  0  0
    0.3160   -0.2400   -0.0290 C   0  0  0  0  0  0  0  0  0  0  0  0
    0.2360    0.8590   -0.8330 N   0  0  0  0  0  0  0  0  0  0  0  0
    1.3560    1.3880   -1.3530 C   0  0  0  0  0  0  0  0  0  0  0  0
    2.5750    0.8120   -1.0670 C   0  0  0  0  0  0  0  0  0  0  0  0
    2.6780   -0.2960   -0.2600 C   0  0  0  0  0  0  0  0  0  0  0  0
    3.9460   -0.9360    0.0670 C   0  0  0  0  0  0  0  0  0  0  0  0
    5.1270   -0.4610   -0.4200 C   0  0  0  0  0  0  0  0  0  0  0  0
    6.3470   -1.0750   -0.1070 C   0  0  0  0  0  0  0  0  0  0  0  0
    6.3400   -2.1810    0.7120 C   0  0  0  0  0  0  0  0  0  0  0  0
    5.1710   -2.6450    1.1900 N   0  0  0  0  0  0  0  0  0  0  0  0
    3.9950   -2.0470    0.8830 C   0  0  0  0  0  0  0  0  0  0  0  0
    1.5090   -0.7870    0.2380 N   0  0  0  0  0  0  0  0  0  0  0  0
   -2.6900   -0.1890   -1.1400 C   0  0  0  0  0  0  0  0  0  0  0  0
   -3.9590    0.4250   -1.2920 N   0  0  0  0  0  0  0  0  0  0  0  0
   -4.6930    0.9900   -0.2320 C   0  0  0  0  0  0  0  0  0  0  0  0
   -5.8880    1.5590   -0.4250 C   0  0  0  0  0  0  0  0  0  0  0  0
  1  2  2  0
  2  3  1  0
  2 20  1  0
  3  4  2  0
  4  5  1  0
  4 18  1  0
  5  6  1  0
  6  7  2  0
  6 17  1  0
  7  8  1  0
  8  9  2  0
  9 10  1  0
 10 11  1  0
 10 17  2  0
 11 12  2  0
 11 16  1  0
 12 13  1  0
 13 14  2  0
 14 15  1  0
 15 16  2  0
 18 19  1  0
 19 20  1  0
 20 21  2  0
M  END
