
     RDKit          3D

 20 22  0  0  0  0  0  0  0  0999 V2000
    5.0180   -2.3410   -0.2140 C   0  0  0  0  0  0  0  0  0  0  0  0
    4.0160   -1.6890   -1.0960 C   0  0  0  0  0  0  0  0  0  0  0  0
    2.7270   -1.6530   -0.8060 C   0  0  0  0  0  0  0  0  0  0  0  0
    1.8060   -0.9770   -1.7520 C   0  0  0  0  0  0  0  0  0  0  0  0
    1.0870    0.1550   -1.1250 C   0  0  0  0  0  0  0  0  0  0  0  0
   -0.0870   -0.1130   -0.5330 N   0  0  0  0  0  0  0  0  0  0  0  0
   -0.8430    0.8030    0.0710 C   0  0  0  0  0  0  0  0  0  0  0  0
   -2.1320    0.4370    0.7070 C   0  0  1  0  0  0  0  0  0  0  0  0
   -3.0930   -0.1840   -0.3030 C   0  0  0  0  0  0  0  0  0  0  0  0
   -4.0670   -1.0260    0.5060 C   0  0  0  0  0  0  0  0  0  0  0  0
   -3.3700   -2.2690    1.0220 C   0  0  0  0  0  0  0  0  0  0  0  0
   -1.8830   -1.9830    1.2560 C   0  0  0  0  0  0  0  0  0  0  0  0
   -1.8180   -0.5710    1.8150 C   0  0  0  0  0  0  0  0  0  0  0  0
   -0.4070    2.0840    0.0920 N   0  0  0  0  0  0  0  0  0  0  0  0
   -0.9590    3.1620    0.6160 N   0  0  0  0  0  0  0  0  0  0  0  0
   -0.1760    4.2230    0.4000 C   0  0  0  0  0  0  0  0  0  0  0  0
    0.9240    3.7540   -0.3020 C   0  0  0  0  0  0  0  0  0  0  0  0
    2.0180    4.5220   -0.7480 N   0  0  0  0  0  0  0  0  0  0  0  0
    0.7670    2.3850   -0.4940 C   0  0  0  0  0  0  0  0  0  0  0  0
    1.5180    1.4250   -1.1040 N   0  0  0  0  0  0  0  0  0  0  0  0
  1  2  1  0
  2  3  2  3
  3  4  1  0
  4  5  1  0
  5  6  1  0
  5 20  2  0
  6  7  2  0
  8  7  1  6
  7 14  1  0
  8  9  1  0
  8 13  1  0
  9 10  1  0
 10 11  1  0
 11 12  1  0
 12 13  1  0
 14 15  1  0
 14 19  1  0
 15 16  2  0
 16 17  1  0
 17 18  1  0
 17 19  2  0
 19 20  1  0
M  END
