
     RDKit          3D

 21 23  0  0  0  0  0  0  0  0999 V2000
    6.9150   -0.3210   -0.1170 C   0  0  0  0  0  0  0  0  0  0  0  0
    5.5710    0.2910   -0.1250 C   0  0  0  0  0  0  0  0  0  0  0  0
    5.3790    1.5960   -0.5430 C   0  0  0  0  0  0  0  0  0  0  0  0
    4.1060    2.1090   -0.5280 C   0  0  0  0  0  0  0  0  0  0  0  0
    3.0490    1.4020   -0.1290 N   0  0  0  0  0  0  0  0  0  0  0  0
    3.2050    0.1290    0.2820 C   0  0  0  0  0  0  0  0  0  0  0  0
    2.1190   -0.6690    0.7170 N   0  0  0  0  0  0  0  0  0  0  0  0
    0.8330   -0.0700    0.7040 N   0  0  0  0  0  0  0  0  0  0  0  0
   -0.1190   -0.7710    0.1940 C   0  0  0  0  0  0  0  0  0  0  0  0
    0.0410   -2.0730   -0.3410 N   0  0  0  0  0  0  0  0  0  0  0  0
   -1.0320   -2.8270   -0.8980 C   0  0  0  0  0  0  0  0  0  0  0  0
   -2.3430   -2.1530   -0.8860 C   0  0  0  0  0  0  0  0  0  0  0  0
   -2.5840   -0.9480   -0.4110 C   0  0  0  0  0  0  0  0  0  0  0  0
   -3.9990   -0.5530   -0.5430 C   0  0  0  0  0  0  0  0  0  0  0  0
   -4.3790    0.5500    0.2820 N   0  0  0  0  0  0  0  0  0  0  0  0
   -5.7880    0.6800    0.4730 C   0  0  0  0  0  0  0  0  0  0  0  0
   -3.7200    1.7840   -0.1040 C   0  0  0  0  0  0  0  0  0  0  0  0
   -2.5930    2.0050    0.8780 C   0  0  0  0  0  0  0  0  0  0  0  0
   -1.5060    1.0140    0.6780 C   0  0  0  0  0  0  0  0  0  0  0  0
   -1.4820   -0.1960    0.1530 C   0  0  0  0  0  0  0  0  0  0  0  0
    4.4700   -0.4170    0.2810 C   0  0  0  0  0  0  0  0  0  0  0  0
  1  2  1  0
  2  3  2  0
  2 21  1  0
  3  4  1  0
  4  5  2  0
  5  6  1  0
  6  7  1  0
  6 21  2  0
  7  8  1  0
  8  9  2  3
  9 10  1  0
  9 20  1  0
 10 11  1  0
 11 12  1  0
 12 13  2  0
 13 14  1  0
 13 20  1  0
 14 15  1  0
 15 16  1  0
 15 17  1  0
 17 18  1  0
 18 19  1  0
 19 20  2  0
M  END
