
     RDKit          3D

 21 23  0  0  0  0  0  0  0  0999 V2000
    6.4970    2.8510   -0.1170 C   0  0  0  0  0  0  0  0  0  0  0  0
    5.2930    2.2110   -0.1660 C   0  0  0  0  0  0  0  0  0  0  0  0
    5.2870    0.7960   -0.0620 C   0  0  0  0  0  0  0  0  0  0  0  0
    4.3620   -0.0640   -0.0730 C   0  0  0  0  0  0  0  0  0  0  0  0
    2.9410   -0.0250   -0.1890 C   0  0  0  0  0  0  0  0  0  0  0  0
    2.1920    1.1020   -0.3310 C   0  0  0  0  0  0  0  0  0  0  0  0
    0.8300    0.9810   -0.4310 N   0  0  0  0  0  0  0  0  0  0  0  0
    0.1990   -0.1970   -0.3940 C   0  0  0  0  0  0  0  0  0  0  0  0
   -1.1310   -0.5840   -0.4720 C   0  0  0  0  0  0  0  0  0  0  0  0
   -2.2430    0.4120   -0.6340 C   0  0  2  0  0  0  0  0  0  0  0  0
   -2.0110    1.4770    0.2590 N   0  0  0  0  0  0  0  0  0  0  0  0
   -3.1110    2.1690    0.7840 C   0  0  0  0  0  0  0  0  0  0  0  0
   -4.3530    1.8640   -0.0050 C   0  0  0  0  0  0  0  0  0  0  0  0
   -4.5400    0.3550    0.1080 C   0  0  0  0  0  0  0  0  0  0  0  0
   -3.4670   -0.2740   -0.5670 N   0  0  0  0  0  0  0  0  0  0  0  0
   -1.1830   -1.9360   -0.3760 C   0  0  0  0  0  0  0  0  0  0  0  0
   -2.4140   -2.7440   -0.4150 C   0  0  0  0  0  0  0  0  0  0  0  0
    0.0860   -2.3900   -0.2420 C   0  0  0  0  0  0  0  0  0  0  0  0
    0.5120   -3.8040   -0.1040 C   0  0  0  0  0  0  0  0  0  0  0  0
    0.9350   -1.3130   -0.2540 N   0  0  0  0  0  0  0  0  0  0  0  0
    2.2330   -1.2160   -0.1580 N   0  0  0  0  0  0  0  0  0  0  0  0
  1  2  2  0
  2  3  1  0
  3  4  2  3
  4  5  1  0
  5  6  1  0
  5 21  2  0
  6  7  2  0
  7  8  1  0
  8  9  2  0
  8 20  1  0
 10  9  1  1
  9 16  1  0
 10 11  1  0
 10 15  1  0
 11 12  1  0
 12 13  1  0
 13 14  1  0
 14 15  1  0
 16 17  1  0
 16 18  2  0
 18 19  1  0
 18 20  1  0
 20 21  1  0
M  END
