
     RDKit          3D

 13 13  0  0  0  0  0  0  0  0999 V2000
   -4.2430   -0.5220    0.2060 O   0  0  0  0  0  0  0  0  0  0  0  0
   -3.0160   -0.2730    0.8080 C   0  0  0  0  0  0  0  0  0  0  0  0
   -2.1130    0.3460   -0.2280 C   0  0  2  0  0  0  0  0  0  0  0  0
   -1.9630   -0.5370   -1.2860 O   0  0  0  0  0  0  0  0  0  0  0  0
   -0.7620    0.7200    0.3690 C   0  0  1  0  0  0  0  0  0  0  0  0
   -0.1460   -0.4620    1.0810 C   0  0  0  0  0  0  0  0  0  0  0  0
    1.2020   -0.1050    1.3250 O   0  0  0  0  0  0  0  0  0  0  0  0
    1.8230   -0.2250    0.0810 C   0  0  2  0  0  0  0  0  0  0  0  0
    1.7490   -1.6010   -0.2410 O   0  0  0  0  0  0  0  0  0  0  0  0
    3.3110    0.0780    0.1810 C   0  0  0  0  0  0  0  0  0  0  0  0
    3.5380    1.3690    0.6410 O   0  0  0  0  0  0  0  0  0  0  0  0
    1.1440    0.6040   -0.9490 C   0  0  0  0  0  0  0  0  0  0  0  0
    0.0680    1.3190   -0.5310 O   0  0  0  0  0  0  0  0  0  0  0  0
  1  2  1  0
  2  3  1  0
  3  4  1  6
  3  5  1  0
  5  6  1  6
  5 13  1  0
  6  7  1  0
  7  8  1  0
  8  9  1  6
  8 10  1  0
  8 12  1  0
 10 11  1  0
 12 13  1  0
M  END
