
     RDKit          3D

 13 13  0  0  0  0  0  0  0  0999 V2000
    3.9190    0.9160    0.1070 C   0  0  0  0  0  0  0  0  0  0  0  0
    2.5600    1.1750    0.0750 O   0  0  0  0  0  0  0  0  0  0  0  0
    1.9830    0.2380   -0.7890 C   0  0  0  0  0  0  0  0  0  0  0  0
    0.5020    0.5270   -0.8190 C   0  0  1  0  0  0  0  0  0  0  0  0
   -0.1970   -0.3430   -1.6510 O   0  0  0  0  0  0  0  0  0  0  0  0
   -0.4350   -1.4070   -0.8070 C   0  0  0  0  0  0  0  0  0  0  0  0
   -0.7420   -0.7960    0.4870 C   0  0  2  0  0  0  0  0  0  0  0  0
   -0.1730   -1.5520    1.5120 O   0  0  0  0  0  0  0  0  0  0  0  0
   -2.1480   -0.4560    0.7920 C   0  0  1  0  0  0  0  0  0  0  0  0
   -2.2180    0.2850    1.9730 O   0  0  0  0  0  0  0  0  0  0  0  0
   -2.9180    0.2450   -0.2510 C   0  0  0  0  0  0  0  0  0  0  0  0
   -2.3970    1.5300   -0.4810 O   0  0  0  0  0  0  0  0  0  0  0  0
   -0.0060    0.4080    0.4480 O   0  0  0  0  0  0  0  0  0  0  0  0
  1  2  1  0
  2  3  1  0
  4  3  1  1
  4  5  1  0
  4 13  1  0
  5  6  1  0
  6  7  1  0
  7  8  1  1
  7  9  1  0
  7 13  1  0
  9 10  1  1
  9 11  1  0
 11 12  1  0
M  END
