
     RDKit          3D

 12 12  0  0  0  0  0  0  0  0999 V2000
    3.0040    0.5400    0.5620 C   0  0  0  0  0  0  0  0  0  0  0  0
    1.6710    0.3780    0.9180 O   0  0  0  0  0  0  0  0  0  0  0  0
    1.0400   -0.6620    0.2900 C   0  0  1  0  0  0  0  0  0  0  0  0
    0.6210   -1.6900    1.0960 O   0  0  0  0  0  0  0  0  0  0  0  0
    0.0100   -0.1420   -0.6660 C   0  0  1  0  0  0  0  0  0  0  0  0
    0.6870    0.6390   -1.6100 O   0  0  0  0  0  0  0  0  0  0  0  0
   -0.7430   -1.2040   -1.3900 C   0  0  0  0  0  0  0  0  0  0  0  0
   -1.7900   -0.5340   -1.9610 O   0  0  0  0  0  0  0  0  0  0  0  0
   -2.1540    0.5170   -1.1680 C   0  0  0  0  0  0  0  0  0  0  0  0
   -1.0760    0.6850   -0.0970 C   0  0  1  0  0  0  0  0  0  0  0  0
   -1.6660    0.2350    1.1940 C   0  0  0  0  0  0  0  0  0  0  0  0
   -0.8000    0.1570    2.2570 O   0  0  0  0  0  0  0  0  0  0  0  0
  1  2  1  0
  2  3  1  0
  3  4  1  1
  3  5  1  0
  5  6  1  6
  5  7  1  0
  5 10  1  0
  7  8  1  0
  8  9  1  0
  9 10  1  0
 10 11  1  1
 11 12  1  0
M  END
