
     RDKit          3D

 12 12  0  0  0  0  0  0  0  0999 V2000
    0.7110   -1.2730    1.1970 C   0  0  0  0  0  0  0  0  0  0  0  0
    0.4340   -0.4120   -0.0150 C   0  0  1  0  0  0  0  0  0  0  0  0
    1.5380   -0.1430   -0.7660 O   0  0  0  0  0  0  0  0  0  0  0  0
    2.5770    0.5060   -0.1840 C   0  0  0  0  0  0  0  0  0  0  0  0
    3.5760    0.6520   -1.1780 O   0  0  0  0  0  0  0  0  0  0  0  0
   -0.4800   -1.2740   -0.9050 C   0  0  0  0  0  0  0  0  0  0  0  0
   -1.6160   -1.6550   -0.2350 O   0  0  0  0  0  0  0  0  0  0  0  0
   -2.3650   -0.6130    0.2500 C   0  0  0  0  0  0  0  0  0  0  0  0
   -1.7970    0.7420   -0.0930 C   0  0  2  0  0  0  0  0  0  0  0  0
   -1.9220    1.0540   -1.4420 O   0  0  0  0  0  0  0  0  0  0  0  0
   -0.3730    0.7940    0.3510 C   0  0  2  0  0  0  0  0  0  0  0  0
    0.1630    1.9940   -0.1110 O   0  0  0  0  0  0  0  0  0  0  0  0
  2  1  1  1
  2  3  1  0
  2  6  1  0
  2 11  1  0
  3  4  1  0
  4  5  1  0
  6  7  1  0
  7  8  1  0
  8  9  1  0
  9 10  1  6
  9 11  1  0
 11 12  1  6
M  END
