
     RDKit          3D

 14 15  0  0  0  0  0  0  0  0999 V2000
    4.3030    0.1820    0.3500 C   0  0  0  0  0  0  0  0  0  0  0  0
    2.9670   -0.2980    0.2980 O   0  0  0  0  0  0  0  0  0  0  0  0
    1.9330    0.5960    0.0910 C   0  0  0  0  0  0  0  0  0  0  0  0
    2.2250    1.8110   -0.0430 O   0  0  0  0  0  0  0  0  0  0  0  0
    0.5340    0.1900    0.0230 C   0  0  0  0  0  0  0  0  0  0  0  0
    0.1760   -1.1400    0.1660 C   0  0  0  0  0  0  0  0  0  0  0  0
   -1.1510   -1.5200    0.1010 C   0  0  0  0  0  0  0  0  0  0  0  0
   -2.1670   -0.6100   -0.1060 C   0  0  0  0  0  0  0  0  0  0  0  0
   -3.5180   -0.7210   -0.2080 N   0  0  0  0  0  0  0  0  0  0  0  0
   -3.9600    0.5350   -0.4110 C   0  0  0  0  0  0  0  0  0  0  0  0
   -5.1880    0.8270   -0.5560 O   0  0  0  0  0  0  0  0  0  0  0  0
   -2.9490    1.3700   -0.4330 O   0  0  0  0  0  0  0  0  0  0  0  0
   -1.8150    0.7150   -0.2490 C   0  0  0  0  0  0  0  0  0  0  0  0
   -0.4880    1.0920   -0.1840 C   0  0  0  0  0  0  0  0  0  0  0  0
  1  2  1  0
  2  3  1  0
  3  4  2  0
  3  5  1  0
  5  6  2  0
  5 14  1  0
  6  7  1  0
  7  8  2  0
  8  9  1  0
  8 13  1  0
  9 10  1  0
 10 11  2  0
 10 12  1  0
 12 13  1  0
 13 14  2  0
M  END
