
     RDKit          3D

 26 28  0  0  0  0  0  0  0  0999 V2000
   -4.0530   -1.1870    1.1360 C   0  0  0  0  0  0  0  0  0  0  0  0
   -2.5220   -1.2830    1.1140 C   0  0  1  0  0  0  0  0  0  0  0  0
   -2.0810   -1.6040    2.5030 C   0  0  0  0  0  0  0  0  0  0  0  0
   -2.1590   -2.3610    0.1630 C   0  0  0  0  0  0  0  0  0  0  0  0
   -2.0040    0.1010    0.6680 C   0  0  2  0  0  0  0  0  0  0  0  0
   -2.5310    0.9400    1.6960 O   0  0  0  0  0  0  0  0  0  0  0  0
   -2.6680    0.5150   -0.5840 C   0  0  0  0  0  0  0  0  0  0  0  0
   -1.8570    0.5300   -1.8140 C   0  0  0  0  0  0  0  0  0  0  0  0
   -0.4270    0.2000   -1.7000 C   0  0  0  0  0  0  0  0  0  0  0  0
    0.2430    0.6650   -0.4150 C   0  0  1  0  0  0  0  0  0  0  0  0
    1.5740    0.0270   -0.3090 C   0  0  0  0  0  0  0  0  0  0  0  0
    2.5990    0.7280   -0.2170 O   0  0  0  0  0  0  0  0  0  0  0  0
    1.7670   -1.3730   -0.3050 N   0  0  0  0  0  0  0  0  0  0  0  0
    3.0890   -1.9150   -0.1980 C   0  0  2  0  0  0  0  0  0  0  0  0
    3.3870   -2.8830   -1.3550 C   0  0  0  0  0  0  0  0  0  0  0  0
    4.3830   -3.7320   -0.9170 O   0  0  0  0  0  0  0  0  0  0  0  0
    3.8350   -4.5140    0.1270 C   0  0  0  0  0  0  0  0  0  0  0  0
    3.1780   -3.1460    1.1710 S   0  0  0  0  0  0  0  0  0  0  0  0
    0.4200    2.1320   -0.5210 C   0  0  1  0  0  0  0  0  0  0  0  0
   -0.8210    2.7960   -0.6950 O   0  0  0  0  0  0  0  0  0  0  0  0
    1.0670    2.8450    0.6160 C   0  0  0  0  0  0  0  0  0  0  0  0
    0.9420    4.3500    0.3020 C   0  0  0  0  0  0  0  0  0  0  0  0
    1.4990    4.6810   -0.9040 O   0  0  0  0  0  0  0  0  0  0  0  0
    2.1500    3.6290   -1.5400 C   0  0  0  0  0  0  0  0  0  0  0  0
    1.1990    2.4560   -1.7730 C   0  0  0  0  0  0  0  0  0  0  0  0
   -0.5400    0.2030    0.7750 C   0  0  0  0  0  0  0  0  0  0  0  0
  2  1  1  1
  2  3  1  0
  2  4  1  0
  2  5  1  0
  5  6  1  1
  5  7  1  0
  5 26  1  0
  7  8  1  0
  8  9  1  0
  9 10  1  0
 10 11  1  1
 10 19  1  0
 10 26  1  0
 11 12  2  0
 11 13  1  0
 14 13  1  6
 14 15  1  0
 14 18  1  0
 15 16  1  0
 16 17  1  0
 17 18  1  0
 19 20  1  6
 19 21  1  0
 19 25  1  0
 21 22  1  0
 22 23  1  0
 23 24  1  0
 24 25  1  0
M  END
