
     RDKit          3D

 16 16  0  0  0  0  0  0  0  0999 V2000
   -3.5440    0.8560   -0.7940 C   0  0  0  0  0  0  0  0  0  0  0  0
   -2.0390    0.9900   -0.6500 C   0  0  0  0  0  0  0  0  0  0  0  0
   -1.5190    2.2470   -1.0310 C   0  0  0  0  0  0  0  0  0  0  0  0
    0.2340    2.0800   -0.8300 S   0  0  0  0  0  0  0  0  0  0  0  0
    0.1890    0.4030   -0.2650 C   0  0  0  0  0  0  0  0  0  0  0  0
    1.3910   -0.3120    0.0890 N   0  0  0  0  0  0  0  0  0  0  0  0
    2.6620    0.3360   -0.0330 C   0  0  0  0  0  0  0  0  0  0  0  0
    2.6770    1.5160   -0.4490 O   0  0  0  0  0  0  0  0  0  0  0  0
    3.9230   -0.3570    0.3190 C   0  0  0  0  0  0  0  0  0  0  0  0
    5.1250    0.5340    0.1030 C   0  0  0  0  0  0  0  0  0  0  0  0
    5.1550    0.8930   -1.2470 O   0  0  0  0  0  0  0  0  0  0  0  0
   -1.1270    0.0690   -0.2600 C   0  0  0  0  0  0  0  0  0  0  0  0
   -1.4680   -1.3270    0.1210 C   0  0  0  0  0  0  0  0  0  0  0  0
   -0.4620   -2.1540    0.2140 O   0  0  0  0  0  0  0  0  0  0  0  0
   -2.7620   -1.9160    0.4140 C   0  0  0  0  0  0  0  0  0  0  0  0
   -3.5230   -1.1820    1.3630 N   0  0  0  0  0  0  0  0  0  0  0  0
  1  2  1  0
  2  3  2  0
  2 12  1  0
  3  4  1  0
  4  5  1  0
  5  6  1  0
  5 12  2  0
  6  7  1  0
  7  8  2  0
  7  9  1  0
  9 10  1  0
 10 11  1  0
 12 13  1  0
 13 14  2  0
 13 15  1  0
 15 16  1  0
M  CHG  1  16   1
M  END
