
     RDKit          3D

 27 29  0  0  0  0  0  0  0  0999 V2000
    4.9240   -0.4610    2.8640 C   0  0  0  0  0  0  0  0  0  0  0  0
    4.7120   -1.1030    1.6100 O   0  0  0  0  0  0  0  0  0  0  0  0
    4.2120   -0.3720    0.5210 C   0  0  0  0  0  0  0  0  0  0  0  0
    2.9150   -0.2040    0.2360 C   0  0  0  0  0  0  0  0  0  0  0  0
    1.8740   -0.7270    0.9740 O   0  0  0  0  0  0  0  0  0  0  0  0
    2.8220    0.6080   -0.9610 C   0  0  0  0  0  0  0  0  0  0  0  0
    1.7980    1.0600   -1.6550 C   0  0  0  0  0  0  0  0  0  0  0  0
    0.3900    0.8510   -1.3890 C   0  0  0  0  0  0  0  0  0  0  0  0
   -0.4540    1.4330   -2.2690 C   0  0  0  0  0  0  0  0  0  0  0  0
   -1.9150    1.3900   -2.2490 C   0  0  0  0  0  0  0  0  0  0  0  0
   -2.4690    2.1190   -3.1400 O   0  0  0  0  0  0  0  0  0  0  0  0
   -2.7530    0.6740   -1.4030 O   0  0  0  0  0  0  0  0  0  0  0  0
   -2.4170   -0.4530   -0.6230 C   0  0  0  0  0  0  0  0  0  0  0  0
   -3.5090   -1.4070   -0.3440 C   0  0  1  0  0  0  0  0  0  0  0  0
   -3.0640   -2.4530    0.4140 O   0  0  0  0  0  0  0  0  0  0  0  0
   -4.6810   -0.7720    0.3460 C   0  0  1  0  0  0  0  0  0  0  0  0
   -4.3170   -0.1640    1.6750 C   0  0  0  0  0  0  0  0  0  0  0  0
   -5.1070    1.1420    1.6250 C   0  0  0  0  0  0  0  0  0  0  0  0
   -4.8770    1.5330    0.2900 O   0  0  0  0  0  0  0  0  0  0  0  0
   -5.2900    0.3660   -0.3920 C   0  0  0  0  0  0  0  0  0  0  0  0
   -1.2020   -0.6680   -0.1560 C   0  0  0  0  0  0  0  0  0  0  0  0
   -1.0500   -1.8520    0.6070 N   0  0  0  0  0  0  0  0  0  0  0  0
   -0.0400    0.1070   -0.3080 O   0  0  0  0  0  0  0  0  0  0  0  0
    4.2320    0.8790   -1.3170 C   0  0  0  0  0  0  0  0  0  0  0  0
    4.6380    1.6190   -2.3930 O   0  0  0  0  0  0  0  0  0  0  0  0
    5.0380    0.3040   -0.4490 C   0  0  0  0  0  0  0  0  0  0  0  0
    6.5510    0.3580   -0.4840 C   0  0  0  0  0  0  0  0  0  0  0  0
  1  2  1  0
  2  3  1  0
  3  4  2  0
  3 26  1  0
  4  5  1  0
  4  6  1  0
  6  7  2  3
  6 24  1  0
  7  8  1  0
  8  9  2  0
  8 23  1  0
  9 10  1  0
 10 11  2  0
 10 12  1  0
 12 13  1  0
 13 14  1  0
 13 21  2  0
 14 15  1  1
 14 16  1  0
 16 17  1  1
 16 20  1  0
 17 18  1  0
 18 19  1  0
 19 20  1  0
 21 22  1  0
 21 23  1  0
 24 25  1  0
 24 26  2  0
 26 27  1  0
M  END
