
     RDKit          3D

 16 16  0  0  0  0  0  0  0  0999 V2000
    5.3490    0.6030   -0.5220 N   0  0  0  0  0  0  0  0  0  0  0  0
    4.3790    0.7740    0.5180 C   0  0  0  0  0  0  0  0  0  0  0  0
    3.0110    0.3020    0.1650 C   0  0  0  0  0  0  0  0  0  0  0  0
    2.3710    1.2020   -0.9510 C   0  0  0  0  0  0  0  0  0  0  0  0
    1.0030    1.3560   -0.3970 N   0  0  0  0  0  0  0  0  0  0  0  0
    0.2880    0.1450   -0.2200 C   0  0  0  0  0  0  0  0  0  0  0  0
    0.7020   -1.0010   -0.6160 O   0  0  0  0  0  0  0  0  0  0  0  0
   -0.8750    0.1140    0.4290 O   0  0  0  0  0  0  0  0  0  0  0  0
   -1.8770   -0.4850    0.9420 C   0  0  0  0  0  0  0  0  0  0  0  0
   -2.9270   -1.2800    0.2100 C   0  0  0  0  0  0  0  0  0  0  0  0
   -2.9240   -2.5490   -0.0920 C   0  0  0  0  0  0  0  0  0  0  0  0
   -4.0340   -3.1710   -0.4180 C   0  0  0  0  0  0  0  0  0  0  0  0
   -5.2590   -1.8520   -0.3040 S   0  0  0  0  0  0  0  0  0  0  0  0
   -4.1290   -0.5910    0.1520 C   0  0  0  0  0  0  0  0  0  0  0  0
   -4.2370    0.8660    0.2360 C   0  0  0  0  0  0  0  0  0  0  0  0
   -4.9170    1.3980    1.3060 O   0  0  0  0  0  0  0  0  0  0  0  0
  1  2  1  0
  2  3  1  0
  3  4  1  0
  4  5  1  0
  5  6  1  0
  6  7  2  0
  6  8  1  0
  8  9  1  0
  9 10  1  0
 10 11  1  0
 10 14  2  0
 11 12  2  0
 12 13  1  0
 13 14  1  0
 14 15  1  0
 15 16  1  0
M  CHG  1   1   1
M  END
