
     RDKit          3D

 16 16  0  0  0  0  0  0  0  0999 V2000
   -5.8830    1.5210   -0.0440 N   0  0  0  0  0  0  0  0  0  0  0  0
   -4.5540    1.0440   -0.3860 C   0  0  0  0  0  0  0  0  0  0  0  0
   -4.2560   -0.1520    0.4940 C   0  0  0  0  0  0  0  0  0  0  0  0
   -3.0080   -0.6920    0.2530 O   0  0  0  0  0  0  0  0  0  0  0  0
   -1.9740    0.1830    0.4660 C   0  0  0  0  0  0  0  0  0  0  0  0
   -0.6980   -0.5430    0.1660 C   0  0  0  0  0  0  0  0  0  0  0  0
   -0.5030   -1.8440   -0.2500 C   0  0  0  0  0  0  0  0  0  0  0  0
    0.7530   -2.2460   -0.4480 C   0  0  0  0  0  0  0  0  0  0  0  0
    1.7740   -1.3840   -0.2400 C   0  0  0  0  0  0  0  0  0  0  0  0
    3.2350   -1.5560   -0.3790 C   0  0  0  0  0  0  0  0  0  0  0  0
    3.8610   -0.2830   -0.0190 N   0  0  0  0  0  0  0  0  0  0  0  0
    5.2730   -0.1600   -0.0630 C   0  0  0  0  0  0  0  0  0  0  0  0
    5.9620   -1.1500   -0.4110 O   0  0  0  0  0  0  0  0  0  0  0  0
    5.9620    1.1140    0.2940 C   0  0  0  0  0  0  0  0  0  0  0  0
    5.0600    2.1020    0.6540 O   0  0  0  0  0  0  0  0  0  0  0  0
    0.9220    0.0870    0.2670 S   0  0  0  0  0  0  0  0  0  0  0  0
  1  2  1  0
  2  3  1  0
  3  4  1  0
  4  5  1  0
  5  6  1  0
  6  7  2  0
  6 16  1  0
  7  8  1  0
  8  9  2  0
  9 10  1  0
  9 16  1  0
 10 11  1  0
 11 12  1  0
 12 13  2  0
 12 14  1  0
 14 15  1  0
M  CHG  1   1   1
M  END
