
     RDKit          3D

 44 48  0  0  0  0  0  0  0  0999 V2000
    9.8750    0.7430   -0.9260 C   0  0  0  0  0  0  0  0  0  0  0  0
    9.5190   -0.3390   -0.1290 O   0  0  0  0  0  0  0  0  0  0  0  0
    8.1920   -0.6940   -0.3750 C   0  0  0  0  0  0  0  0  0  0  0  0
    7.8810   -1.8600    0.5190 C   0  0  0  0  0  0  0  0  0  0  0  0
    6.4670   -2.3670    0.3690 C   0  0  0  0  0  0  0  0  0  0  0  0
    5.4810   -1.2960    0.6890 C   0  0  2  0  0  0  0  0  0  0  0  0
    5.6860   -0.8580    2.1240 C   0  0  0  0  0  0  0  0  0  0  0  0
    4.0610   -1.7190    0.4630 C   0  0  0  0  0  0  0  0  0  0  0  0
    3.8170   -3.0640    0.3350 C   0  0  0  0  0  0  0  0  0  0  0  0
    2.5300   -3.5290    0.1790 C   0  0  0  0  0  0  0  0  0  0  0  0
    1.5300   -2.5910    0.1610 C   0  0  0  0  0  0  0  0  0  0  0  0
    1.7210   -1.2180    0.2880 C   0  0  0  0  0  0  0  0  0  0  0  0
    3.0210   -0.7700    0.4380 C   0  0  0  0  0  0  0  0  0  0  0  0
    3.4080    0.6060    0.4960 N   0  0  0  0  0  0  0  0  0  0  0  0
    2.9180    1.6260   -0.4410 C   0  0  1  0  0  0  0  0  0  0  0  0
    3.8940    2.3530   -1.3100 C   0  0  0  0  0  0  0  0  0  0  0  0
    3.1840    1.1740   -1.8770 C   0  0  2  0  0  0  0  0  0  0  0  0
    1.9520    1.3660   -2.6780 C   0  0  0  0  0  0  0  0  0  0  0  0
    1.2850    0.0910   -2.9030 N   0  0  0  0  0  0  0  0  0  0  0  0
   -0.0460   -0.1200   -3.3080 C   0  0  0  0  0  0  0  0  0  0  0  0
   -0.1110   -0.9470   -4.3280 O   0  0  0  0  0  0  0  0  0  0  0  0
   -1.2920    0.4200   -2.7880 C   0  0  0  0  0  0  0  0  0  0  0  0
   -1.9550    1.4140   -3.4330 O   0  0  0  0  0  0  0  0  0  0  0  0
   -3.0300    1.7380   -2.8080 C   0  0  0  0  0  0  0  0  0  0  0  0
   -3.1530    0.9560   -1.6780 C   0  0  0  0  0  0  0  0  0  0  0  0
   -4.3110    1.0110   -0.7320 C   0  0  0  0  0  0  0  0  0  0  0  0
   -5.3900    0.0340   -1.0170 C   0  0  0  0  0  0  0  0  0  0  0  0
   -6.4900    0.1140   -0.0640 N   0  0  0  0  0  0  0  0  0  0  0  0
   -7.2280    1.3100    0.0300 C   0  0  0  0  0  0  0  0  0  0  0  0
   -6.8970    2.2820   -0.7430 O   0  0  0  0  0  0  0  0  0  0  0  0
   -8.3500    1.5820    0.9230 C   0  0  0  0  0  0  0  0  0  0  0  0
   -8.9690    2.8230    0.8980 C   0  0  0  0  0  0  0  0  0  0  0  0
  -10.0100    3.0860    1.7270 C   0  0  0  0  0  0  0  0  0  0  0  0
  -10.5160    2.1730    2.6260 C   0  0  0  0  0  0  0  0  0  0  0  0
   -9.9000    0.9490    2.6460 C   0  0  0  0  0  0  0  0  0  0  0  0
   -8.8200    0.6400    1.8030 C   0  0  0  0  0  0  0  0  0  0  0  0
   -8.2830   -0.6320    1.9170 O   0  0  0  0  0  0  0  0  0  0  0  0
   -8.7450   -1.6020    2.8030 C   0  0  0  0  0  0  0  0  0  0  0  0
   -2.0180    0.1150   -1.6860 C   0  0  0  0  0  0  0  0  0  0  0  0
   -1.7640   -0.8810   -0.6560 C   0  0  0  0  0  0  0  0  0  0  0  0
   -2.7100   -1.7670   -0.4780 O   0  0  0  0  0  0  0  0  0  0  0  0
   -0.6840   -1.0790    0.2040 N   0  0  0  0  0  0  0  0  0  0  0  0
    0.5300   -0.3130    0.3400 C   0  0  1  0  0  0  0  0  0  0  0  0
    0.5190    0.4400    1.6750 C   0  0  0  0  0  0  0  0  0  0  0  0
  1  2  1  0
  2  3  1  0
  3  4  1  0
  4  5  1  0
  5  6  1  0
  6  7  1  1
  6  8  1  0
  8  9  2  0
  8 13  1  0
  9 10  1  0
 10 11  2  0
 11 12  1  0
 12 13  2  0
 12 43  1  0
 13 14  1  0
 14 15  1  0
 15 16  1  1
 15 17  1  0
 17 16  1  6
 17 18  1  0
 18 19  1  0
 19 20  1  0
 20 21  2  0
 20 22  1  0
 22 23  1  0
 22 39  2  0
 23 24  1  0
 24 25  2  0
 25 26  1  0
 25 39  1  0
 26 27  1  0
 27 28  1  0
 28 29  1  0
 29 30  2  0
 29 31  1  0
 31 32  2  0
 31 36  1  0
 32 33  1  0
 33 34  2  0
 34 35  1  0
 35 36  2  0
 36 37  1  0
 37 38  1  0
 39 40  1  0
 40 41  2  0
 40 42  1  0
 42 43  1  0
 43 44  1  1
M  END
