
     RDKit          3D

 45 49  0  0  0  0  0  0  0  0999 V2000
   -8.5180   -2.7180   -1.4230 C   0  0  0  0  0  0  0  0  0  0  0  0
   -8.5100   -1.4860   -0.5110 C   0  0  0  0  0  0  0  0  0  0  0  0
   -7.2810   -0.7260   -0.8520 N   0  0  0  0  0  0  0  0  0  0  0  0
   -7.4330    0.2530   -1.8620 C   0  0  0  0  0  0  0  0  0  0  0  0
   -7.7570    1.6520   -1.4380 C   0  0  0  0  0  0  0  0  0  0  0  0
   -8.9770    1.8510   -0.6570 C   0  0  0  0  0  0  0  0  0  0  0  0
  -10.0770    2.3910   -1.2130 C   0  0  0  0  0  0  0  0  0  0  0  0
  -11.2320    2.5670   -0.4330 N   0  0  0  0  0  0  0  0  0  0  0  0
   -9.0190    1.5290    0.7520 C   0  0  0  0  0  0  0  0  0  0  0  0
   -8.0320    1.0410    1.3340 O   0  0  0  0  0  0  0  0  0  0  0  0
  -10.1650    1.7580    1.4840 O   0  0  0  0  0  0  0  0  0  0  0  0
  -10.1920    1.4420    2.8470 C   0  0  0  0  0  0  0  0  0  0  0  0
   -6.1250   -1.0760   -0.1330 C   0  0  0  0  0  0  0  0  0  0  0  0
   -6.2040   -1.9560    0.7860 O   0  0  0  0  0  0  0  0  0  0  0  0
   -4.8120   -0.4420   -0.4160 C   0  0  2  0  0  0  0  0  0  0  0  0
   -4.1510   -1.0440   -1.6460 C   0  0  0  0  0  0  0  0  0  0  0  0
   -2.9730   -0.1590   -1.9800 C   0  0  0  0  0  0  0  0  0  0  0  0
   -2.0440   -0.2430   -0.7980 C   0  0  0  0  0  0  0  0  0  0  0  0
   -0.6930   -0.0120   -0.9510 C   0  0  0  0  0  0  0  0  0  0  0  0
    0.1920   -0.0850    0.1060 C   0  0  0  0  0  0  0  0  0  0  0  0
    1.6370    0.1480   -0.0310 C   0  0  2  0  0  0  0  0  0  0  0  0
    2.2420    1.1050   -0.9600 C   0  0  0  0  0  0  0  0  0  0  0  0
    2.2330   -0.3180   -1.3090 C   0  0  1  0  0  0  0  0  0  0  0  0
    3.4220   -1.1950   -1.2280 C   0  0  0  0  0  0  0  0  0  0  0  0
    3.6020   -2.1420   -2.0330 O   0  0  0  0  0  0  0  0  0  0  0  0
    4.4150   -1.0020   -0.2270 N   0  0  0  0  0  0  0  0  0  0  0  0
    5.5790   -1.8140   -0.0930 C   0  0  2  0  0  0  0  0  0  0  0  0
    5.4190   -2.6270    1.2070 C   0  0  0  0  0  0  0  0  0  0  0  0
    6.4350   -3.7430    1.0920 C   0  0  0  0  0  0  0  0  0  0  0  0
    7.7890   -3.1540    0.9890 C   0  0  0  0  0  0  0  0  0  0  0  0
    7.8720   -1.6630    0.8990 C   0  0  1  0  0  0  0  0  0  0  0  0
    9.5370   -1.2710    0.2920 S   0  0  0  0  0  0  0  0  0  0  0  0
    9.8300    0.4740    0.1590 C   0  0  0  0  0  0  0  0  0  0  0  0
    9.5550    1.1970   -0.9830 C   0  0  0  0  0  0  0  0  0  0  0  0
    9.8040    2.5510   -1.0360 C   0  0  0  0  0  0  0  0  0  0  0  0
   10.3330    3.2560    0.0240 C   0  0  0  0  0  0  0  0  0  0  0  0
   10.5950    4.7180   -0.0560 C   0  0  0  0  0  0  0  0  0  0  0  0
   10.6120    2.5390    1.1710 C   0  0  0  0  0  0  0  0  0  0  0  0
   10.3610    1.1630    1.2330 C   0  0  0  0  0  0  0  0  0  0  0  0
   10.6470    0.4570    2.3950 O   0  0  0  0  0  0  0  0  0  0  0  0
    6.8860   -1.0620   -0.0700 C   0  0  0  0  0  0  0  0  0  0  0  0
   -0.3430   -0.4020    1.3370 C   0  0  0  0  0  0  0  0  0  0  0  0
   -1.6680   -0.6340    1.5170 C   0  0  0  0  0  0  0  0  0  0  0  0
   -2.5540   -0.5590    0.4430 C   0  0  0  0  0  0  0  0  0  0  0  0
   -3.9070   -0.8020    0.6520 O   0  0  0  0  0  0  0  0  0  0  0  0
  1  2  1  0
  2  3  1  0
  3  4  1  0
  3 13  1  0
  4  5  1  0
  5  6  1  0
  6  7  2  3
  6  9  1  0
  7  8  1  0
  9 10  2  0
  9 11  1  0
 11 12  1  0
 13 14  2  0
 15 13  1  1
 15 16  1  0
 15 45  1  0
 16 17  1  0
 17 18  1  0
 18 19  2  0
 18 44  1  0
 19 20  1  0
 21 20  1  6
 20 42  2  0
 21 22  1  0
 21 23  1  0
 22 23  1  0
 23 24  1  1
 24 25  2  0
 24 26  1  0
 27 26  1  1
 27 28  1  0
 27 41  1  0
 28 29  1  0
 29 30  1  0
 30 31  1  0
 31 32  1  6
 31 41  1  0
 32 33  1  0
 33 34  2  0
 33 39  1  0
 34 35  1  0
 35 36  2  0
 36 37  1  0
 36 38  1  0
 38 39  2  0
 39 40  1  0
 42 43  1  0
 43 44  2  0
 44 45  1  0
M  END
