
     RDKit          3D

 44 47  0  0  0  0  0  0  0  0999 V2000
   -7.9240    5.7200   -0.0620 C   0  0  0  0  0  0  0  0  0  0  0  0
   -7.4080    4.3150   -0.1170 C   0  0  0  0  0  0  0  0  0  0  0  0
   -6.1520    4.0250    0.3450 C   0  0  0  0  0  0  0  0  0  0  0  0
   -5.6740    2.7140    0.2920 C   0  0  0  0  0  0  0  0  0  0  0  0
   -6.3960    1.6750   -0.2020 C   0  0  0  0  0  0  0  0  0  0  0  0
   -5.9890    0.3190   -0.2730 N   0  0  0  0  0  0  0  0  0  0  0  0
   -4.8790   -0.2710    0.3610 C   0  0  0  0  0  0  0  0  0  0  0  0
   -4.1610    0.5090    1.0860 O   0  0  0  0  0  0  0  0  0  0  0  0
   -4.4980   -1.6480    0.2590 N   0  0  0  0  0  0  0  0  0  0  0  0
   -5.2290   -2.6020   -0.5290 C   0  0  1  0  0  0  0  0  0  0  0  0
   -4.3360   -3.2200   -1.6110 C   0  0  0  0  0  0  0  0  0  0  0  0
   -5.2890   -4.0580   -2.4730 C   0  0  0  0  0  0  0  0  0  0  0  0
   -6.0250   -5.0380   -1.6080 C   0  0  0  0  0  0  0  0  0  0  0  0
   -6.6050   -4.4880   -0.4900 O   0  0  0  0  0  0  0  0  0  0  0  0
   -5.7040   -3.7800    0.3050 C   0  0  0  0  0  0  0  0  0  0  0  0
   -3.2980   -2.0970    1.0070 C   0  0  2  0  0  0  0  0  0  0  0  0
   -3.5850   -1.9560    2.4490 C   0  0  0  0  0  0  0  0  0  0  0  0
   -2.5170   -1.3830    3.3060 C   0  0  0  0  0  0  0  0  0  0  0  0
   -1.1810   -1.8900    2.7820 C   0  0  0  0  0  0  0  0  0  0  0  0
   -1.0060   -1.1220    1.4620 C   0  0  1  0  0  0  0  0  0  0  0  0
    0.3080   -1.3740    0.9150 N   0  0  0  0  0  0  0  0  0  0  0  0
    1.3180   -0.3500    0.8620 C   0  0  0  0  0  0  0  0  0  0  0  0
    0.9970    0.7710    1.3140 O   0  0  0  0  0  0  0  0  0  0  0  0
    2.5900   -0.5620    0.3440 N   0  0  0  0  0  0  0  0  0  0  0  0
    3.6530    0.3650    0.2340 C   0  0  0  0  0  0  0  0  0  0  0  0
    3.4980    1.7060    0.4730 C   0  0  0  0  0  0  0  0  0  0  0  0
    4.5960    2.5650    0.3610 C   0  0  0  0  0  0  0  0  0  0  0  0
    5.8660    2.1180    0.0100 C   0  0  0  0  0  0  0  0  0  0  0  0
    6.9410    3.1040   -0.0560 C   0  0  1  0  0  0  0  0  0  0  0  0
    8.0890    2.8840    0.8860 C   0  0  0  0  0  0  0  0  0  0  0  0
    7.3870    3.3510   -1.4860 C   0  0  0  0  0  0  0  0  0  0  0  0
    6.3560    4.4760    0.3900 C   0  0  0  0  0  0  0  0  0  0  0  0
    6.0380    0.7850   -0.2330 C   0  0  0  0  0  0  0  0  0  0  0  0
    7.2990    0.1870   -0.6300 C   0  0  0  0  0  0  0  0  0  0  0  0
    8.3040    0.8300   -0.8810 O   0  0  0  0  0  0  0  0  0  0  0  0
    7.3720   -1.2930   -0.7350 C   0  0  0  0  0  0  0  0  0  0  0  0
    8.7550   -1.6860   -1.1420 C   0  0  0  0  0  0  0  0  0  0  0  0
    8.9250   -3.1680   -1.2770 C   0  0  0  0  0  0  0  0  0  0  0  0
   10.2630   -3.3950   -1.6610 O   0  0  0  0  0  0  0  0  0  0  0  0
    4.9180   -0.0480   -0.1110 C   0  0  0  0  0  0  0  0  0  0  0  0
   -2.0640   -1.4390    0.4830 C   0  0  0  0  0  0  0  0  0  0  0  0
   -7.6760    1.9940   -0.6690 C   0  0  0  0  0  0  0  0  0  0  0  0
   -8.1640    3.2830   -0.6250 C   0  0  0  0  0  0  0  0  0  0  0  0
   -9.4410    3.5960   -1.0920 O   0  0  0  0  0  0  0  0  0  0  0  0
  1  2  1  0
  2  3  2  0
  2 43  1  0
  3  4  1  0
  4  5  2  0
  5  6  1  0
  5 42  1  0
  6  7  1  0
  7  8  2  0
  7  9  1  0
 10  9  1  1
 16  9  1  6
 10 11  1  0
 10 15  1  0
 11 12  1  0
 12 13  1  0
 13 14  1  0
 14 15  1  0
 16 17  1  0
 16 41  1  0
 17 18  1  0
 18 19  1  0
 19 20  1  0
 20 21  1  6
 20 41  1  0
 21 22  1  0
 22 23  2  0
 22 24  1  0
 24 25  1  0
 25 26  2  0
 25 40  1  0
 26 27  1  0
 27 28  2  0
 28 29  1  0
 28 33  1  0
 29 30  1  1
 29 31  1  0
 29 32  1  0
 33 34  1  0
 33 40  2  0
 34 35  2  0
 34 36  1  0
 36 37  1  0
 37 38  1  0
 38 39  1  0
 42 43  2  0
 43 44  1  0
M  END
