
     RDKit          3D

 45 50  0  0  0  0  0  0  0  0999 V2000
    5.8540    2.0970    2.1990 C   0  0  0  0  0  0  0  0  0  0  0  0
    4.6790    2.0380    1.2900 C   0  0  0  0  0  0  0  0  0  0  0  0
    4.9440    1.8070   -0.1280 C   0  0  0  0  0  0  0  0  0  0  0  0
    5.4840    0.5940   -0.7110 C   0  0  1  0  0  0  0  0  0  0  0  0
    6.8820    0.1560   -0.2990 C   0  0  0  0  0  0  0  0  0  0  0  0
    7.0610   -0.1710    1.0640 N   0  0  0  0  0  0  0  0  0  0  0  0
    8.6930   -0.6620    1.4440 S   0  0  0  0  0  0  0  0  0  0  0  0
    9.6510    0.2820    0.7240 O   0  0  0  0  0  0  0  0  0  0  0  0
    4.6160   -0.6380   -0.7370 C   0  0  0  0  0  0  0  0  0  0  0  0
    3.3310   -0.6670   -1.4760 C   0  0  1  0  0  0  0  0  0  0  0  0
    2.7410   -2.0990   -1.3170 C   0  0  0  0  0  0  0  0  0  0  0  0
    1.4920   -2.1390   -2.0900 C   0  0  0  0  0  0  0  0  0  0  0  0
    1.2670   -2.9040   -3.0670 O   0  0  0  0  0  0  0  0  0  0  0  0
    0.4470   -1.1880   -1.6490 C   0  0  0  0  0  0  0  0  0  0  0  0
    0.8950   -0.0390   -1.2160 C   0  0  0  0  0  0  0  0  0  0  0  0
   -0.0610    0.9270   -0.7710 N   0  0  0  0  0  0  0  0  0  0  0  0
   -1.4590    0.6870   -0.7840 C   0  0  0  0  0  0  0  0  0  0  0  0
   -2.3390    1.6570   -0.3360 C   0  0  0  0  0  0  0  0  0  0  0  0
   -3.6850    1.3480   -0.3760 C   0  0  0  0  0  0  0  0  0  0  0  0
   -4.1040    0.1520   -0.8330 N   0  0  0  0  0  0  0  0  0  0  0  0
   -3.2530   -0.7980   -1.2710 C   0  0  0  0  0  0  0  0  0  0  0  0
   -3.7140   -1.8970   -1.6870 O   0  0  0  0  0  0  0  0  0  0  0  0
   -1.8820   -0.5440   -1.2550 C   0  0  0  0  0  0  0  0  0  0  0  0
   -0.9800   -1.5860   -1.7410 C   0  0  2  0  0  0  0  0  0  0  0  0
   -1.2740   -2.8560   -1.0540 C   0  0  0  0  0  0  0  0  0  0  0  0
   -1.8620   -3.9120   -1.7120 C   0  0  0  0  0  0  0  0  0  0  0  0
   -2.1410   -5.0970   -1.0640 C   0  0  0  0  0  0  0  0  0  0  0  0
   -1.8270   -5.2310    0.2730 C   0  0  0  0  0  0  0  0  0  0  0  0
   -2.1010   -6.4780    1.0320 C   0  0  0  0  0  0  0  0  0  0  0  0
   -3.3510   -6.4520    1.6350 O   0  0  0  0  0  0  0  0  0  0  0  0
   -4.3620   -6.3120    0.7000 C   0  0  0  0  0  0  0  0  0  0  0  0
   -1.2350   -4.1660    0.9310 C   0  0  0  0  0  0  0  0  0  0  0  0
   -0.9490   -2.9770    0.3020 C   0  0  0  0  0  0  0  0  0  0  0  0
   -4.6330    2.3660    0.0870 C   0  0  0  0  0  0  0  0  0  0  0  0
   -6.0040    2.1150    0.0790 C   0  0  0  0  0  0  0  0  0  0  0  0
   -6.8720    3.0900    0.5270 C   0  0  0  0  0  0  0  0  0  0  0  0
   -6.4450    4.3110    0.9850 C   0  0  0  0  0  0  0  0  0  0  0  0
   -7.3830    5.2540    1.4250 O   0  0  0  0  0  0  0  0  0  0  0  0
   -6.8880    6.4970    1.8880 C   0  0  0  0  0  0  0  0  0  0  0  0
   -5.0990    4.5380    0.9850 C   0  0  0  0  0  0  0  0  0  0  0  0
   -4.1910    3.5830    0.5420 C   0  0  0  0  0  0  0  0  0  0  0  0
   -2.7860    3.9430    0.5840 C   0  0  0  0  0  0  0  0  0  0  0  0
   -1.7930    2.9380    0.1550 C   0  0  0  0  0  0  0  0  0  0  0  0
    2.3440    0.3710   -1.1870 C   0  0  2  0  0  0  0  0  0  0  0  0
    2.3840    1.3270   -2.2620 O   0  0  0  0  0  0  0  0  0  0  0  0
  1  2  1  0
  2  3  1  0
  4  3  1  1
  4  5  1  0
  4  9  1  0
  5  6  1  0
  6  7  1  0
  7  8  2  0
 10  9  1  1
 10 11  1  0
 10 44  1  0
 11 12  1  0
 12 13  2  0
 12 14  1  0
 14 15  2  0
 14 24  1  0
 15 16  1  0
 15 44  1  0
 16 17  1  0
 17 18  1  0
 17 23  2  0
 18 19  2  0
 18 43  1  0
 19 20  1  0
 19 34  1  0
 20 21  1  0
 21 22  2  0
 21 23  1  0
 23 24  1  0
 24 25  1  1
 25 26  2  0
 25 33  1  0
 26 27  1  0
 27 28  2  0
 28 29  1  0
 28 32  1  0
 29 30  1  0
 30 31  1  0
 32 33  2  0
 34 35  2  0
 34 41  1  0
 35 36  1  0
 36 37  2  0
 37 38  1  0
 37 40  1  0
 38 39  1  0
 40 41  2  0
 41 42  1  0
 42 43  1  0
 44 45  1  6
M  END
