
     RDKit          3D

 43 48  0  0  0  0  0  0  0  0999 V2000
    8.2320   -0.1850   -2.7870 C   0  0  0  0  0  0  0  0  0  0  0  0
    8.5910    0.9420   -1.8480 C   0  0  0  0  0  0  0  0  0  0  0  0
    9.0820    0.4490   -0.5560 C   0  0  0  0  0  0  0  0  0  0  0  0
   10.4560    0.4810   -0.2980 C   0  0  0  0  0  0  0  0  0  0  0  0
   10.9870    0.0300    0.8910 C   0  0  0  0  0  0  0  0  0  0  0  0
   10.1140   -0.4650    1.8470 C   0  0  0  0  0  0  0  0  0  0  0  0
    8.7480   -0.4930    1.5830 C   0  0  0  0  0  0  0  0  0  0  0  0
    7.8160   -1.0320    2.6100 C   0  0  0  0  0  0  0  0  0  0  0  0
    7.3870   -2.4400    2.1920 C   0  0  0  0  0  0  0  0  0  0  0  0
    8.2170   -0.0420    0.3930 C   0  0  0  0  0  0  0  0  0  0  0  0
    6.7890   -0.0940    0.1790 N   0  0  0  0  0  0  0  0  0  0  0  0
    5.9930    1.0170    0.5220 C   0  0  0  0  0  0  0  0  0  0  0  0
    6.6460    2.0220    0.9970 O   0  0  0  0  0  0  0  0  0  0  0  0
    4.5670    1.1440    0.3970 C   0  0  0  0  0  0  0  0  0  0  0  0
    3.9510    2.3610    0.3630 N   0  0  0  0  0  0  0  0  0  0  0  0
    2.6550    2.2340    0.2780 N   0  0  0  0  0  0  0  0  0  0  0  0
    1.6740    3.3230    0.2200 C   0  0  0  0  0  0  0  0  0  0  0  0
    2.3460    0.9320    0.2520 C   0  0  0  0  0  0  0  0  0  0  0  0
    3.5350    0.2380    0.3270 C   0  0  0  0  0  0  0  0  0  0  0  0
    3.5510   -1.1490    0.3400 C   0  0  0  0  0  0  0  0  0  0  0  0
    2.3710   -1.8530    0.2770 C   0  0  0  0  0  0  0  0  0  0  0  0
    1.2020   -1.1340    0.2020 C   0  0  0  0  0  0  0  0  0  0  0  0
   -0.0240   -1.7910    0.1400 C   0  0  0  0  0  0  0  0  0  0  0  0
   -1.1650   -1.0910    0.0700 N   0  0  0  0  0  0  0  0  0  0  0  0
   -1.2140    0.2310    0.0560 C   0  0  0  0  0  0  0  0  0  0  0  0
   -2.3810    1.0060   -0.0070 N   0  0  0  0  0  0  0  0  0  0  0  0
   -3.7130    0.5630   -0.0540 C   0  0  0  0  0  0  0  0  0  0  0  0
   -4.0820   -0.7610   -0.0040 C   0  0  0  0  0  0  0  0  0  0  0  0
   -5.4230   -1.1660   -0.0410 C   0  0  0  0  0  0  0  0  0  0  0  0
   -6.4470   -0.2620   -0.1300 C   0  0  0  0  0  0  0  0  0  0  0  0
   -7.8170   -0.6710   -0.1670 N   0  0  0  0  0  0  0  0  0  0  0  0
   -8.2380   -2.0510   -0.1680 C   0  0  0  0  0  0  0  0  0  0  0  0
   -9.4250   -2.1920   -1.1300 C   0  0  0  0  0  0  0  0  0  0  0  0
  -10.5310   -1.3950   -0.6770 N   0  0  2  0  0  0  0  0  0  0  0  0
  -11.2600   -0.7990   -1.7820 C   0  0  0  0  0  0  0  0  0  0  0  0
  -10.1540   -0.3720    0.2490 C   0  0  0  0  0  0  0  0  0  0  0  0
   -8.8890    0.3360   -0.2020 C   0  0  0  0  0  0  0  0  0  0  0  0
   -6.0960    1.0700   -0.1820 C   0  0  0  0  0  0  0  0  0  0  0  0
   -4.7800    1.4650   -0.1450 C   0  0  0  0  0  0  0  0  0  0  0  0
   -4.4440    2.8280   -0.2000 O   0  0  0  0  0  0  0  0  0  0  0  0
   -5.4600    3.7790   -0.2920 C   0  0  0  0  0  0  0  0  0  0  0  0
   -0.0290    0.8780    0.1160 N   0  0  0  0  0  0  0  0  0  0  0  0
    1.1520    0.2460    0.1880 C   0  0  0  0  0  0  0  0  0  0  0  0
  1  2  1  0
  2  3  1  0
  3  4  2  0
  3 10  1  0
  4  5  1  0
  5  6  2  0
  6  7  1  0
  7  8  1  0
  7 10  2  0
  8  9  1  0
 10 11  1  0
 11 12  1  0
 12 13  2  0
 12 14  1  0
 14 15  2  0
 14 19  1  0
 15 16  1  0
 16 17  1  0
 16 18  1  0
 18 19  2  0
 18 43  1  0
 19 20  1  0
 20 21  2  0
 21 22  1  0
 22 23  2  0
 22 43  1  0
 23 24  1  0
 24 25  2  0
 25 26  1  0
 25 42  1  0
 26 27  1  0
 27 28  2  0
 27 39  1  0
 28 29  1  0
 29 30  2  0
 30 31  1  0
 30 38  1  0
 31 32  1  0
 31 37  1  0
 32 33  1  0
 33 34  1  0
 34 35  1  6
 34 36  1  0
 36 37  1  0
 38 39  2  0
 39 40  1  0
 40 41  1  0
 42 43  2  0
M  CHG  1  34   1
M  END
