
     RDKit          3D

 45 49  0  0  0  0  0  0  0  0999 V2000
   -8.5370   -1.6190    2.9350 C   0  0  0  0  0  0  0  0  0  0  0  0
   -8.6350   -1.3450    1.4370 C   0  0  1  0  0  0  0  0  0  0  0  0
   -9.5420   -0.1340    1.2120 C   0  0  0  0  0  0  0  0  0  0  0  0
   -9.4930    1.0410    2.5610 S   0  0  0  0  0  0  0  0  0  0  0  0
   -7.8380    1.4920    3.0530 C   0  0  0  0  0  0  0  0  0  0  0  0
   -6.7880    0.5380    2.7640 C   0  0  0  0  0  0  0  0  0  0  0  0
   -5.7610    0.8370    3.6040 O   0  0  0  0  0  0  0  0  0  0  0  0
   -6.3940   -0.5510    1.9800 N   0  0  0  0  0  0  0  0  0  0  0  0
   -5.1450   -1.1910    2.1660 C   0  0  0  0  0  0  0  0  0  0  0  0
   -4.0200   -0.7580    1.2410 C   0  0  1  0  0  0  0  0  0  0  0  0
   -4.4770   -1.1190   -0.0760 O   0  0  0  0  0  0  0  0  0  0  0  0
   -3.8280    0.7320    1.1680 C   0  0  0  0  0  0  0  0  0  0  0  0
   -2.9960    1.0440   -0.0080 N   0  0  0  0  0  0  0  0  0  0  0  0
   -1.6730    0.6240   -0.2450 C   0  0  0  0  0  0  0  0  0  0  0  0
   -1.0640   -0.0450    0.6170 O   0  0  0  0  0  0  0  0  0  0  0  0
   -1.0380    1.0070   -1.5770 C   0  0  1  0  0  0  0  0  0  0  0  0
   -1.1670    2.4570   -1.8230 C   0  0  0  0  0  0  0  0  0  0  0  0
    0.3530    0.5210   -1.5240 N   0  0  0  0  0  0  0  0  0  0  0  0
    1.4040    0.9960   -0.7090 C   0  0  0  0  0  0  0  0  0  0  0  0
    1.3330    1.8860    0.2000 O   0  0  0  0  0  0  0  0  0  0  0  0
    2.6900    0.3070   -1.0300 C   0  0  2  0  0  0  0  0  0  0  0  0
    3.5240    1.1390   -1.9480 C   0  0  0  0  0  0  0  0  0  0  0  0
    3.3750    0.9340   -3.3750 C   0  0  0  0  0  0  0  0  0  0  0  0
    4.0860    1.7660   -4.2040 C   0  0  0  0  0  0  0  0  0  0  0  0
    4.9020    2.7630   -3.7920 C   0  0  0  0  0  0  0  0  0  0  0  0
    5.0260    2.9360   -2.3810 C   0  0  0  0  0  0  0  0  0  0  0  0
    4.3310    2.1050   -1.5380 C   0  0  0  0  0  0  0  0  0  0  0  0
    4.6100    2.3790   -0.1590 O   0  0  0  0  0  0  0  0  0  0  0  0
    5.5960    1.4300    0.2590 C   0  0  0  0  0  0  0  0  0  0  0  0
    6.0060    0.4260   -0.5670 C   0  0  0  0  0  0  0  0  0  0  0  0
    7.0530   -0.4580   -0.0910 C   0  0  0  0  0  0  0  0  0  0  0  0
    7.5920   -0.2910    1.1030 C   0  0  0  0  0  0  0  0  0  0  0  0
    8.8430   -0.9570    1.5050 C   0  0  0  0  0  0  0  0  0  0  0  0
    9.7990   -1.4700    1.8280 C   0  0  0  0  0  0  0  0  0  0  0  0
   11.0700   -2.1740    2.2460 C   0  0  0  0  0  0  0  0  0  0  0  0
   10.9540   -2.8420    3.4220 O   0  0  0  0  0  0  0  0  0  0  0  0
    7.1370    0.7230    1.9170 C   0  0  0  0  0  0  0  0  0  0  0  0
    6.1230    1.6150    1.5260 C   0  0  0  0  0  0  0  0  0  0  0  0
    2.1940   -0.8580   -1.8650 C   0  0  0  0  0  0  0  0  0  0  0  0
    2.8900   -1.9640   -2.3430 C   0  0  0  0  0  0  0  0  0  0  0  0
    2.2640   -2.8190   -3.2010 C   0  0  0  0  0  0  0  0  0  0  0  0
    0.8960   -2.5810   -3.5970 C   0  0  0  0  0  0  0  0  0  0  0  0
    0.2790   -1.4830   -3.0870 C   0  0  0  0  0  0  0  0  0  0  0  0
    0.9190   -0.6020   -2.2070 C   0  0  0  0  0  0  0  0  0  0  0  0
   -7.2520   -1.0630    0.8860 C   0  0  0  0  0  0  0  0  0  0  0  0
  2  1  1  1
  2  3  1  0
  2 45  1  0
  3  4  1  0
  4  5  1  0
  5  6  1  0
  6  7  2  0
  6  8  1  0
  8  9  1  0
  8 45  1  0
  9 10  1  0
 10 11  1  6
 10 12  1  0
 12 13  1  0
 13 14  1  0
 14 15  2  0
 14 16  1  0
 16 17  1  1
 16 18  1  0
 18 19  1  0
 18 44  1  0
 19 20  2  0
 19 21  1  0
 21 22  1  6
 21 39  1  0
 22 23  2  0
 22 27  1  0
 23 24  1  0
 24 25  2  0
 25 26  1  0
 26 27  2  0
 27 28  1  0
 28 29  1  0
 29 30  2  0
 29 38  1  0
 30 31  1  0
 31 32  2  0
 32 33  1  0
 32 37  1  0
 33 34  3  0
 34 35  1  0
 35 36  1  0
 37 38  2  0
 39 40  2  0
 39 44  1  0
 40 41  1  0
 41 42  2  0
 42 43  1  0
 43 44  2  0
M  END
