
     RDKit          3D

 18 19  0  0  0  0  0  0  0  0999 V2000
    0.7600   -1.9410    0.3870 O   0  0  0  0  0  0  0  0  0  0  0  0
    1.4570   -0.7710    0.1560 C   0  0  0  0  0  0  0  0  0  0  0  0
    2.8540   -0.7820    0.1740 C   0  0  0  0  0  0  0  0  0  0  0  0
    3.7690   -2.4200    0.5120 Br  0  0  0  0  0  0  0  0  0  0  0  0
    3.5950    0.3560   -0.0430 C   0  0  0  0  0  0  0  0  0  0  0  0
    2.9250    1.5430   -0.2860 C   0  0  0  0  0  0  0  0  0  0  0  0
    3.9370    3.1370   -0.5860 Br  0  0  0  0  0  0  0  0  0  0  0  0
    1.5560    1.5420   -0.3020 C   0  0  0  0  0  0  0  0  0  0  0  0
    0.7840    0.4020   -0.0840 C   0  0  0  0  0  0  0  0  0  0  0  0
   -0.6800    0.5080   -0.1210 C   0  0  0  0  0  0  0  0  0  0  0  0
   -1.6190   -0.4640    0.0780 C   0  0  0  0  0  0  0  0  0  0  0  0
   -2.8820    0.1380   -0.0590 C   0  0  0  0  0  0  0  0  0  0  0  0
   -4.1690   -0.5560    0.0760 C   0  0  1  0  0  0  0  0  0  0  0  0
   -4.8140   -0.0060    1.1840 F   0  0  0  0  0  0  0  0  0  0  0  0
   -5.0150   -0.3370   -1.0110 F   0  0  0  0  0  0  0  0  0  0  0  0
   -4.0200   -1.8980    0.2830 F   0  0  0  0  0  0  0  0  0  0  0  0
   -2.6200    1.4060   -0.3260 N   0  0  0  0  0  0  0  0  0  0  0  0
   -1.3300    1.6060   -0.3570 O   0  0  0  0  0  0  0  0  0  0  0  0
  1  2  1  0
  2  3  2  0
  2  9  1  0
  3  4  1  0
  3  5  1  0
  5  6  2  0
  6  7  1  0
  6  8  1  0
  8  9  2  0
  9 10  1  0
 10 11  2  0
 10 18  1  0
 11 12  1  0
 12 13  1  0
 12 17  2  0
 13 14  1  1
 13 15  1  0
 13 16  1  0
 17 18  1  0
M  END
