
     RDKit          3D

 13 14  0  0  0  0  0  0  0  0999 V2000
   -0.1440    3.7250    0.5030 O   0  0  0  0  0  0  0  0  0  0  0  0
    0.1430    2.5090    0.3330 C   0  0  0  0  0  0  0  0  0  0  0  0
   -0.5880    1.4370    0.9080 N   0  0  0  0  0  0  0  0  0  0  0  0
   -0.0330    0.2470    0.2960 C   0  0  2  0  0  0  0  0  0  0  0  0
   -0.8240    0.0030   -0.9640 C   0  0  0  0  0  0  0  0  0  0  0  0
   -2.0400   -0.7220   -0.3790 C   0  0  0  0  0  0  0  0  0  0  0  0
   -1.5880   -1.3430    0.8320 N   0  0  0  0  0  0  0  0  0  0  0  0
   -0.2430   -0.9700    1.0470 C   0  0  0  0  0  0  0  0  0  0  0  0
    0.5540   -1.5590    1.7230 O   0  0  0  0  0  0  0  0  0  0  0  0
    1.3730    0.6620    0.0600 C   0  0  1  0  0  0  0  0  0  0  0  0
    2.1310   -0.2170   -0.8880 C   0  0  0  0  0  0  0  0  0  0  0  0
    2.2320   -1.4800   -0.3030 O   0  0  0  0  0  0  0  0  0  0  0  0
    1.2070    1.9830   -0.4320 O   0  0  0  0  0  0  0  0  0  0  0  0
  1  2  2  0
  2  3  1  0
  2 13  1  0
  3  4  1  0
  4  5  1  6
  4  8  1  0
  4 10  1  0
  5  6  1  0
  6  7  1  0
  7  8  1  0
  8  9  2  0
 10 11  1  6
 10 13  1  0
 11 12  1  0
M  CHG  1   7   1
M  END
