
     RDKit          3D

 13 13  0  0  0  0  0  0  0  0999 V2000
    2.1430   -0.4430    1.7920 N   0  0  0  0  0  0  0  0  0  0  0  0
    2.0880    0.1060    0.4650 C   0  0  1  0  0  0  0  0  0  0  0  0
    0.6780    0.4640    0.1780 C   0  0  0  0  0  0  0  0  0  0  0  0
   -0.1530   -0.5130   -0.1400 C   0  0  0  0  0  0  0  0  0  0  0  0
    0.1120   -1.8650   -0.2470 O   0  0  0  0  0  0  0  0  0  0  0  0
   -1.1030   -2.5710   -0.2120 C   0  0  0  0  0  0  0  0  0  0  0  0
   -2.0460   -1.6680   -0.7300 O   0  0  0  0  0  0  0  0  0  0  0  0
   -1.5860   -0.3870   -0.4610 C   0  0  0  0  0  0  0  0  0  0  0  0
   -2.2370    0.7440   -0.4730 C   0  0  0  0  0  0  0  0  0  0  0  0
   -3.6790    0.7510   -0.8110 C   0  0  0  0  0  0  0  0  0  0  0  0
   -3.8760    1.5450   -1.9390 O   0  0  0  0  0  0  0  0  0  0  0  0
    2.8890    1.2140    0.2870 O   0  0  0  0  0  0  0  0  0  0  0  0
    3.8110    1.0160   -0.6710 N   0  0  0  0  0  0  0  0  0  0  0  0
  2  1  1  1
  2  3  1  0
  2 12  1  0
  3  4  2  3
  4  5  1  0
  4  8  1  0
  5  6  1  0
  6  7  1  0
  7  8  1  0
  8  9  2  3
  9 10  1  0
 10 11  1  0
 12 13  1  0
M  CHG  1  13   1
M  END
