
     RDKit          3D

 13 14  0  0  0  0  0  0  0  0999 V2000
    3.7090    0.3300   -0.3600 N   0  0  0  0  0  0  0  0  0  0  0  0
    2.7350   -0.6610   -0.0790 C   0  0  0  0  0  0  0  0  0  0  0  0
    3.0440   -1.6940    0.5560 O   0  0  0  0  0  0  0  0  0  0  0  0
    1.3280   -0.4520   -0.5550 C   0  0  2  0  0  0  0  0  0  0  0  0
    0.8480    0.8330    0.0920 C   0  0  0  0  0  0  0  0  0  0  0  0
   -0.6540    0.8550    0.1000 C   0  0  1  0  0  0  0  0  0  0  0  0
   -1.1940    0.4580   -1.1410 O   0  0  0  0  0  0  0  0  0  0  0  0
   -2.5570    0.3960   -0.8050 C   0  0  0  0  0  0  0  0  0  0  0  0
   -2.6190   -0.2550    0.4920 N   0  0  0  0  0  0  0  0  0  0  0  0
   -1.2390   -0.2200    1.0000 C   0  0  1  0  0  0  0  0  0  0  0  0
   -0.5310   -1.4790    0.7000 C   0  0  0  0  0  0  0  0  0  0  0  0
   -0.8720   -2.5840    1.2430 O   0  0  0  0  0  0  0  0  0  0  0  0
    0.5300   -1.5380   -0.1770 O   0  0  0  0  0  0  0  0  0  0  0  0
  1  2  1  0
  2  3  2  0
  4  2  1  1
  4  5  1  0
  4 13  1  0
  6  5  1  6
  6  7  1  0
  6 10  1  0
  7  8  1  0
  8  9  1  0
 10  9  1  6
 10 11  1  0
 11 12  2  0
 11 13  1  0
M  CHG  1   9   1
M  END
