
     RDKit          3D

 13 13  0  0  0  0  0  0  0  0999 V2000
    3.7630    1.5260   -0.0710 N   0  0  0  0  0  0  0  0  0  0  0  0
    2.8870    0.7150    0.6500 O   0  0  0  0  0  0  0  0  0  0  0  0
    2.2020   -0.2370   -0.0970 C   0  0  0  0  0  0  0  0  0  0  0  0
    2.4360   -0.2660   -1.3300 O   0  0  0  0  0  0  0  0  0  0  0  0
    1.2400   -1.1840    0.4820 C   0  0  1  0  0  0  0  0  0  0  0  0
    0.0620   -0.4640    1.1150 C   0  0  0  0  0  0  0  0  0  0  0  0
   -0.8260    0.0130    0.0600 N   0  0  0  0  0  0  0  0  0  0  0  0
   -2.0060    0.6110    0.6510 C   0  0  0  0  0  0  0  0  0  0  0  0
   -2.7140    1.3510   -0.4970 C   0  0  0  0  0  0  0  0  0  0  0  0
   -1.8420    2.3540   -0.9890 O   0  0  0  0  0  0  0  0  0  0  0  0
   -1.3480   -1.1420   -0.6860 C   0  0  0  0  0  0  0  0  0  0  0  0
   -0.5120   -2.3440   -0.3250 C   0  0  0  0  0  0  0  0  0  0  0  0
    0.8150   -2.0350   -0.5470 O   0  0  0  0  0  0  0  0  0  0  0  0
  1  2  1  0
  2  3  1  0
  3  4  2  0
  5  3  1  6
  5  6  1  0
  5 13  1  0
  6  7  1  0
  7  8  1  0
  7 11  1  0
  8  9  1  0
  9 10  1  0
 11 12  1  0
 12 13  1  0
M  CHG  1   1   1
M  END
