
     RDKit          3D

 13 14  0  0  0  0  0  0  0  0999 V2000
   -3.6000    0.3170    0.9240 O   0  0  0  0  0  0  0  0  0  0  0  0
   -2.4570    0.2570    0.3990 C   0  0  0  0  0  0  0  0  0  0  0  0
   -1.7070    1.4050    0.0940 N   0  0  0  0  0  0  0  0  0  0  0  0
   -0.2800    1.3680    0.0210 C   0  0  0  0  0  0  0  0  0  0  0  0
    0.2850   -0.0130   -0.1880 C   0  0  1  0  0  0  0  0  0  0  0  0
   -0.7460   -0.9920   -0.6900 C   0  0  0  0  0  0  0  0  0  0  0  0
   -1.9320   -1.0290    0.1180 N   0  0  0  0  0  0  0  0  0  0  0  0
    1.3970    0.0940   -1.2000 C   0  0  0  0  0  0  0  0  0  0  0  0
    2.6640   -0.2560   -0.7150 O   0  0  0  0  0  0  0  0  0  0  0  0
    3.0390    0.1740    0.5500 C   0  0  0  0  0  0  0  0  0  0  0  0
    4.2150    0.5110    0.8370 O   0  0  0  0  0  0  0  0  0  0  0  0
    1.9910    0.2020    1.4900 O   0  0  0  0  0  0  0  0  0  0  0  0
    0.8620   -0.5870    1.0870 C   0  0  0  0  0  0  0  0  0  0  0  0
  1  2  2  0
  2  3  1  0
  2  7  1  0
  3  4  1  0
  5  4  1  1
  5  6  1  0
  5  8  1  0
  5 13  1  0
  6  7  1  0
  8  9  1  0
  9 10  1  0
 10 11  2  0
 10 12  1  0
 12 13  1  0
M  CHG  1   7   1
M  END
