
     RDKit          3D

 13 13  0  0  0  0  0  0  0  0999 V2000
   -1.0440    1.5310   -0.8220 C   0  0  0  0  0  0  0  0  0  0  0  0
   -0.7380    0.2370   -0.0860 C   0  0  2  0  0  0  0  0  0  0  0  0
    0.6800    0.0040    0.0310 N   0  0  0  0  0  0  0  0  0  0  0  0
    1.5230   -0.1210   -1.0830 C   0  0  0  0  0  0  0  0  0  0  0  0
    1.0020   -0.0230   -2.2250 O   0  0  0  0  0  0  0  0  0  0  0  0
    2.9810   -0.3600   -1.0260 C   0  0  0  0  0  0  0  0  0  0  0  0
    3.5080   -0.4610    0.2880 N   0  0  0  0  0  0  0  0  0  0  0  0
   -1.4570   -0.8720   -0.8250 C   0  0  0  0  0  0  0  0  0  0  0  0
   -2.7640   -0.4520   -1.0260 O   0  0  0  0  0  0  0  0  0  0  0  0
   -3.4890   -0.2760    0.1140 C   0  0  0  0  0  0  0  0  0  0  0  0
   -2.7310   -0.0290    1.2680 O   0  0  0  0  0  0  0  0  0  0  0  0
   -1.3960    0.3410    1.2400 C   0  0  0  0  0  0  0  0  0  0  0  0
   -0.8220    0.7300    2.2830 O   0  0  0  0  0  0  0  0  0  0  0  0
  2  1  1  6
  2  3  1  0
  2  8  1  0
  2 12  1  0
  3  4  1  0
  4  5  2  0
  4  6  1  0
  6  7  1  0
  8  9  1  0
  9 10  1  0
 10 11  1  0
 11 12  1  0
 12 13  2  0
M  CHG  1   7   1
M  END
