
     RDKit          3D

 13 14  0  0  0  0  0  0  0  0999 V2000
    1.4730    0.6110   -1.6680 N   0  0  0  0  0  0  0  0  0  0  0  0
    0.6210   -0.5080   -1.4780 C   0  0  0  0  0  0  0  0  0  0  0  0
    0.1700   -0.8110   -0.0950 C   0  0  1  0  0  0  0  0  0  0  0  0
    1.3170   -1.0900    0.8550 C   0  0  0  0  0  0  0  0  0  0  0  0
    1.7960    0.1550    1.1720 O   0  0  0  0  0  0  0  0  0  0  0  0
    0.7320    1.0450    1.1660 C   0  0  0  0  0  0  0  0  0  0  0  0
   -0.4570    0.3170    0.6720 C   0  0  1  0  0  0  0  0  0  0  0  0
   -1.4960    1.0840   -0.0210 C   0  0  0  0  0  0  0  0  0  0  0  0
   -2.0840    1.9670    0.8980 O   0  0  0  0  0  0  0  0  0  0  0  0
   -1.0700   -0.4170    1.7520 O   0  0  0  0  0  0  0  0  0  0  0  0
   -1.6420   -1.5260    1.0920 C   0  0  0  0  0  0  0  0  0  0  0  0
   -2.6960   -2.1540    1.4510 O   0  0  0  0  0  0  0  0  0  0  0  0
   -0.8470   -1.8240   -0.0360 N   0  0  0  0  0  0  0  0  0  0  0  0
  1  2  1  0
  3  2  1  6
  3  4  1  0
  3  7  1  0
  3 13  1  0
  4  5  1  0
  5  6  1  0
  6  7  1  0
  7  8  1  6
  7 10  1  0
  8  9  1  0
 10 11  1  0
 11 12  2  0
 11 13  1  0
M  CHG  1   1   1
M  END
