
     RDKit          3D

 13 14  0  0  0  0  0  0  0  0999 V2000
   -2.4940   -1.1210    0.6890 N   0  0  0  0  0  0  0  0  0  0  0  0
   -1.4520   -0.1560    0.5940 C   0  0  2  0  0  0  0  0  0  0  0  0
   -1.8050    0.9330   -0.4230 C   0  0  0  0  0  0  0  0  0  0  0  0
   -0.8330    1.9340   -0.2200 O   0  0  0  0  0  0  0  0  0  0  0  0
    0.3230    1.5030   -0.8230 C   0  0  0  0  0  0  0  0  0  0  0  0
    0.8700    0.2220   -0.2910 C   0  0  1  0  0  0  0  0  0  0  0  0
   -0.1720   -0.7880    0.0840 C   0  0  0  0  0  0  0  0  0  0  0  0
    1.6850   -0.3580   -1.2960 O   0  0  0  0  0  0  0  0  0  0  0  0
    2.9270   -0.7010   -0.8100 C   0  0  0  0  0  0  0  0  0  0  0  0
    3.8220   -1.3280   -1.4550 O   0  0  0  0  0  0  0  0  0  0  0  0
    2.9860   -0.2180    0.5260 N   0  0  0  0  0  0  0  0  0  0  0  0
    1.7710    0.4210    0.8470 C   0  0  0  0  0  0  0  0  0  0  0  0
    1.5190    1.0360    1.9020 O   0  0  0  0  0  0  0  0  0  0  0  0
  2  1  1  6
  2  3  1  0
  2  7  1  0
  3  4  1  0
  4  5  1  0
  6  5  1  6
  6  7  1  0
  6  8  1  0
  6 12  1  0
  8  9  1  0
  9 10  2  0
  9 11  1  0
 11 12  1  0
 12 13  2  0
M  CHG  1   1   1
M  END
