
     RDKit          3D

 26 29  0  0  0  0  0  0  0  0999 V2000
    0.3920   -1.5840    2.7110 O   0  0  0  0  0  0  0  0  0  0  0  0
    1.4570   -0.9940    1.9540 C   0  0  0  0  0  0  0  0  0  0  0  0
    0.8800   -0.6990    0.5950 C   0  0  2  0  0  0  0  0  0  0  0  0
    1.8440   -0.0990   -0.3690 C   0  0  0  0  0  0  0  0  0  0  0  0
    2.4890    1.1880   -0.0740 C   0  0  1  0  0  0  0  0  0  0  0  0
    3.3530    1.2280    1.1550 C   0  0  0  0  0  0  0  0  0  0  0  0
    4.5950    2.0800    0.7990 C   0  0  0  0  0  0  0  0  0  0  0  0
    5.4630    1.3930   -0.0090 O   0  0  0  0  0  0  0  0  0  0  0  0
    4.7510    0.7850   -1.0150 C   0  0  0  0  0  0  0  0  0  0  0  0
    3.4270    1.4750   -1.2640 C   0  0  1  0  0  0  0  0  0  0  0  0
    2.8880    0.8370   -2.4080 O   0  0  0  0  0  0  0  0  0  0  0  0
   -0.2120    0.3160    0.8310 C   0  0  0  0  0  0  0  0  0  0  0  0
   -1.0750    0.5500   -0.3650 C   0  0  2  0  0  0  0  0  0  0  0  0
   -2.1030    1.5750   -0.0090 C   0  0  2  0  0  0  0  0  0  0  0  0
   -2.9980    1.1860    1.1260 C   0  0  0  0  0  0  0  0  0  0  0  0
   -3.9990    2.3530    1.0940 C   0  0  0  0  0  0  0  0  0  0  0  0
   -4.1160    2.7140   -0.3730 C   0  0  0  0  0  0  0  0  0  0  0  0
   -3.0910    1.8620   -1.0960 C   0  0  0  0  0  0  0  0  0  0  0  0
   -1.6560   -0.7120   -0.8790 C   0  0  0  0  0  0  0  0  0  0  0  0
   -1.0800   -1.9650   -0.3740 C   0  0  2  0  0  0  0  0  0  0  0  0
   -1.3000   -3.0520   -1.4390 C   0  0  0  0  0  0  0  0  0  0  0  0
   -2.3790   -3.9460   -0.8990 C   0  0  0  0  0  0  0  0  0  0  0  0
   -2.9750   -3.1750    0.0720 O   0  0  0  0  0  0  0  0  0  0  0  0
   -1.9150   -2.5590    0.7620 C   0  0  0  0  0  0  0  0  0  0  0  0
    0.3690   -1.9640   -0.0430 C   0  0  1  0  0  0  0  0  0  0  0  0
    1.0870   -2.3060   -1.1910 O   0  0  0  0  0  0  0  0  0  0  0  0
  1  2  1  0
  3  2  1  1
  3  4  1  0
  3 12  1  0
  3 25  1  0
  5  4  1  6
  5  6  1  0
  5 10  1  0
  6  7  1  0
  7  8  1  0
  8  9  1  0
  9 10  1  0
 10 11  1  6
 13 12  1  1
 13 14  1  0
 13 19  1  0
 14 15  1  1
 14 18  1  0
 15 16  1  0
 16 17  1  0
 17 18  1  0
 20 19  1  6
 20 21  1  0
 20 24  1  0
 20 25  1  0
 21 22  1  0
 22 23  1  0
 23 24  1  0
 25 26  1  6
M  END
