
     RDKit          3D

 26 29  0  0  0  0  0  0  0  0999 V2000
   -3.9860    0.9070    1.9150 O   0  0  0  0  0  0  0  0  0  0  0  0
   -4.7840    0.9390    0.7740 C   0  0  0  0  0  0  0  0  0  0  0  0
   -4.0650    0.4500   -0.4670 C   0  0  2  0  0  0  0  0  0  0  0  0
   -3.5900   -0.9590   -0.3460 C   0  0  0  0  0  0  0  0  0  0  0  0
   -2.6370   -1.2000    0.8140 C   0  0  0  0  0  0  0  0  0  0  0  0
   -1.7440   -2.3440    0.6490 C   0  0  2  0  0  0  0  0  0  0  0  0
   -2.1670   -3.4040    1.4740 O   0  0  0  0  0  0  0  0  0  0  0  0
   -0.2780   -2.1850    0.8780 C   0  0  0  0  0  0  0  0  0  0  0  0
    0.4920   -1.4620   -0.1500 C   0  0  2  0  0  0  0  0  0  0  0  0
   -0.4910   -1.2250   -1.1520 O   0  0  0  0  0  0  0  0  0  0  0  0
    1.4990   -2.1980   -0.9730 C   0  0  0  0  0  0  0  0  0  0  0  0
    1.8160   -1.3060   -2.1470 C   0  0  0  0  0  0  0  0  0  0  0  0
    1.2230    0.0450   -2.1700 C   0  0  0  0  0  0  0  0  0  0  0  0
    1.0270    0.7580   -0.8890 C   0  0  2  0  0  0  0  0  0  0  0  0
   -0.0990    1.7150   -0.8020 C   0  0  0  0  0  0  0  0  0  0  0  0
   -1.0450    1.8990   -1.9090 C   0  0  0  0  0  0  0  0  0  0  0  0
   -2.2200    1.1530   -1.8580 O   0  0  0  0  0  0  0  0  0  0  0  0
   -3.1040    1.4880   -0.8860 C   0  0  0  0  0  0  0  0  0  0  0  0
    2.2480    1.4310   -0.5950 O   0  0  0  0  0  0  0  0  0  0  0  0
    2.2630    1.5320    0.7720 C   0  0  2  0  0  0  0  0  0  0  0  0
    3.3730    2.2490    1.3720 C   0  0  0  0  0  0  0  0  0  0  0  0
    4.6620    1.4960    1.1250 C   0  0  0  0  0  0  0  0  0  0  0  0
    4.4710    0.1450    1.7800 C   0  0  0  0  0  0  0  0  0  0  0  0
    3.4160   -0.5950    0.9220 C   0  0  0  0  0  0  0  0  0  0  0  0
    2.1370    0.0540    1.1430 C   0  0  2  0  0  0  0  0  0  0  0  0
    0.9620   -0.1700    0.3240 C   0  0  2  0  0  0  0  0  0  0  0  0
  1  2  1  0
  3  2  1  1
  3  4  1  0
  3 18  1  0
  4  5  1  0
  5  6  1  0
  6  7  1  1
  6  8  1  0
  8  9  1  0
  9 10  1  6
  9 11  1  0
 26  9  1  6
 11 12  1  0
 12 13  1  0
 14 13  1  6
 14 15  1  0
 14 19  1  0
 14 26  1  0
 15 16  1  0
 16 17  1  0
 17 18  1  0
 19 20  1  0
 20 21  1  6
 20 25  1  0
 21 22  1  0
 22 23  1  0
 23 24  1  0
 25 24  1  6
 25 26  1  0
M  END
