
     RDKit          3D

 25 28  0  0  0  0  0  0  0  0999 V2000
    6.1930    0.4200    0.9700 C   0  0  0  0  0  0  0  0  0  0  0  0
    5.0350    0.6100    0.0120 C   0  0  0  0  0  0  0  0  0  0  0  0
    3.8570    0.1800    0.6670 O   0  0  0  0  0  0  0  0  0  0  0  0
    2.6070    0.2230    0.0580 C   0  0  0  0  0  0  0  0  0  0  0  0
    2.5880    0.6630   -1.0980 O   0  0  0  0  0  0  0  0  0  0  0  0
    1.3680   -0.2170    0.7280 C   0  0  1  0  0  0  0  0  0  0  0  0
    1.0880    0.9470    1.6630 C   0  0  1  0  0  0  0  0  0  0  0  0
    2.1800    1.7050    1.9750 O   0  0  0  0  0  0  0  0  0  0  0  0
    0.0090    1.7730    0.9380 C   0  0  0  0  0  0  0  0  0  0  0  0
   -1.2190    0.9360    1.0850 C   0  0  1  0  0  0  0  0  0  0  0  0
   -2.4950    1.6800    1.1030 C   0  0  0  0  0  0  0  0  0  0  0  0
   -3.4000    1.5360   -0.0780 C   0  0  2  0  0  0  0  0  0  0  0  0
   -4.3400    0.3760    0.0030 C   0  0  0  0  0  0  0  0  0  0  0  0
   -4.2000   -0.6760   -1.0210 C   0  0  0  0  0  0  0  0  0  0  0  0
   -2.8610   -0.9010   -1.6310 C   0  0  0  0  0  0  0  0  0  0  0  0
   -1.7930    0.1040   -1.2250 C   0  0  1  0  0  0  0  0  0  0  0  0
   -2.5420    1.4220   -1.2780 C   0  0  2  0  0  0  0  0  0  0  0  0
   -1.7560    2.5210   -1.5510 O   0  0  0  0  0  0  0  0  0  0  0  0
   -1.1250   -0.2000    0.0790 C   0  0  2  0  0  0  0  0  0  0  0  0
   -1.8650   -1.1880    0.7900 O   0  0  0  0  0  0  0  0  0  0  0  0
    0.2760   -0.7690   -0.0440 C   0  0  1  0  0  0  0  0  0  0  0  0
    0.6350   -1.0980   -1.4960 C   0  0  0  0  0  0  0  0  0  0  0  0
    1.6580   -2.2130   -1.4560 C   0  0  0  0  0  0  0  0  0  0  0  0
    1.5350   -2.8280   -0.0870 C   0  0  0  0  0  0  0  0  0  0  0  0
    0.1940   -2.2830    0.3480 C   0  0  0  0  0  0  0  0  0  0  0  0
  1  2  1  0
  2  3  1  0
  3  4  1  0
  4  5  2  0
  6  4  1  6
  6  7  1  0
  6 21  1  0
  7  8  1  6
  7  9  1  0
 10  9  1  6
 10 11  1  0
 10 19  1  0
 12 11  1  1
 12 13  1  0
 12 17  1  0
 13 14  1  0
 14 15  1  0
 16 15  1  1
 16 17  1  0
 16 19  1  0
 17 18  1  1
 19 20  1  1
 19 21  1  0
 21 22  1  6
 21 25  1  0
 22 23  1  0
 23 24  1  0
 24 25  1  0
M  END
