
     RDKit          3D

 26 28  0  0  0  0  0  0  0  0999 V2000
   -2.5120   -3.5830   -1.3600 C   0  0  0  0  0  0  0  0  0  0  0  0
   -1.5060   -3.5180   -0.2460 C   0  0  1  0  0  0  0  0  0  0  0  0
   -0.1480   -3.0740   -0.7070 C   0  0  0  0  0  0  0  0  0  0  0  0
   -0.1240   -1.6980   -1.2780 C   0  0  0  0  0  0  0  0  0  0  0  0
    0.7080   -0.8330   -0.3150 C   0  0  1  0  0  0  0  0  0  0  0  0
    2.0810   -1.3740   -0.3060 C   0  0  0  0  0  0  0  0  0  0  0  0
    3.1250   -0.5370   -0.9570 C   0  0  2  0  0  0  0  0  0  0  0  0
    4.3640   -1.1010   -0.7790 O   0  0  0  0  0  0  0  0  0  0  0  0
    3.0110    0.8690   -0.4240 C   0  0  1  0  0  0  0  0  0  0  0  0
    3.1390    0.9740    1.0520 C   0  0  0  0  0  0  0  0  0  0  0  0
    4.6320    0.9550    1.2670 C   0  0  0  0  0  0  0  0  0  0  0  0
    5.1520    1.4030   -0.0740 C   0  0  0  0  0  0  0  0  0  0  0  0
    4.0760    1.6040   -0.9050 O   0  0  0  0  0  0  0  0  0  0  0  0
    1.7130    1.4030   -0.9180 C   0  0  0  0  0  0  0  0  0  0  0  0
    0.5220    0.6050   -0.5680 C   0  0  2  0  0  0  0  0  0  0  0  0
   -0.1780    1.3110    0.6040 C   0  0  0  0  0  0  0  0  0  0  0  0
   -1.6470    1.4400    0.3890 C   0  0  2  0  0  0  0  0  0  0  0  0
   -1.9150    2.7300   -0.3550 C   0  0  2  0  0  0  0  0  0  0  0  0
   -1.4750    3.8410    0.3420 O   0  0  0  0  0  0  0  0  0  0  0  0
   -3.3340    2.8500   -0.8230 C   0  0  0  0  0  0  0  0  0  0  0  0
   -3.3990    3.9680   -1.6670 O   0  0  0  0  0  0  0  0  0  0  0  0
   -2.3500    1.4240    1.7310 C   0  0  0  0  0  0  0  0  0  0  0  0
   -2.4780    0.0000    2.2120 C   0  0  0  0  0  0  0  0  0  0  0  0
   -3.3380   -0.8400    1.3130 C   0  0  0  0  0  0  0  0  0  0  0  0
   -2.6280   -1.5680    0.3870 O   0  0  0  0  0  0  0  0  0  0  0  0
   -2.0560   -2.7160    0.8890 C   0  0  0  0  0  0  0  0  0  0  0  0
  2  1  1  6
  2  3  1  0
  2 26  1  0
  3  4  1  0
  5  4  1  6
  5  6  1  0
  5 15  1  0
  6  7  1  0
  7  8  1  1
  7  9  1  0
  9 10  1  1
  9 13  1  0
  9 14  1  0
 10 11  1  0
 11 12  1  0
 12 13  1  0
 15 14  1  1
 15 16  1  0
 17 16  1  1
 17 18  1  0
 17 22  1  0
 18 19  1  1
 18 20  1  0
 20 21  1  0
 22 23  1  0
 23 24  1  0
 24 25  1  0
 25 26  1  0
M  END
