
     RDKit          3D

 26 28  0  0  0  0  0  0  0  0999 V2000
   -5.6010    2.2290   -0.7580 C   0  0  0  0  0  0  0  0  0  0  0  0
   -5.2300    0.8930   -0.6440 O   0  0  0  0  0  0  0  0  0  0  0  0
   -3.9660    0.7770   -0.0190 C   0  0  1  0  0  0  0  0  0  0  0  0
   -4.2370   -0.0460    1.2480 C   0  0  0  0  0  0  0  0  0  0  0  0
   -4.0280   -1.4830    0.9360 C   0  0  0  0  0  0  0  0  0  0  0  0
   -3.0480   -2.2340    1.4050 C   0  0  0  0  0  0  0  0  0  0  0  0
   -1.9730   -1.8010    2.3260 C   0  0  0  0  0  0  0  0  0  0  0  0
   -0.6470   -2.2210    1.7290 C   0  0  0  0  0  0  0  0  0  0  0  0
   -0.0770   -1.2020    0.9660 O   0  0  0  0  0  0  0  0  0  0  0  0
    0.1110   -1.6160   -0.3210 C   0  0  0  0  0  0  0  0  0  0  0  0
    0.3130   -0.5280   -1.3230 C   0  0  1  0  0  0  0  0  0  0  0  0
   -0.9110   -0.0920   -2.0420 C   0  0  0  0  0  0  0  0  0  0  0  0
   -1.8010    0.8480   -1.3180 C   0  0  2  0  0  0  0  0  0  0  0  0
   -1.2880    1.4550   -0.0820 C   0  0  0  0  0  0  0  0  0  0  0  0
    0.1840    1.5540    0.0760 C   0  0  0  0  0  0  0  0  0  0  0  0
    1.0140    0.6850   -0.7890 C   0  0  2  0  0  0  0  0  0  0  0  0
    1.4130    1.4430   -1.9150 O   0  0  0  0  0  0  0  0  0  0  0  0
    2.2990    0.2400   -0.1210 C   0  0  2  0  0  0  0  0  0  0  0  0
    3.1840    1.4090    0.2300 C   0  0  0  0  0  0  0  0  0  0  0  0
    4.5570    1.3200   -0.3460 C   0  0  0  0  0  0  0  0  0  0  0  0
    5.1510   -0.0520   -0.3230 C   0  0  1  0  0  0  0  0  0  0  0  0
    5.9070   -0.3540    0.9480 C   0  0  0  0  0  0  0  0  0  0  0  0
    6.3980   -1.6700    0.8120 O   0  0  0  0  0  0  0  0  0  0  0  0
    4.1170   -1.1350   -0.5350 C   0  0  0  0  0  0  0  0  0  0  0  0
    2.9910   -0.5250   -1.0770 O   0  0  0  0  0  0  0  0  0  0  0  0
   -3.0770    0.0600   -0.9730 C   0  0  0  0  0  0  0  0  0  0  0  0
  1  2  1  0
  3  2  1  6
  3  4  1  0
  3 26  1  0
  4  5  1  0
  5  6  2  0
  6  7  1  0
  7  8  1  0
  8  9  1  0
  9 10  1  0
 11 10  1  1
 11 12  1  0
 11 16  1  0
 12 13  1  0
 13 14  1  1
 13 26  1  0
 14 15  1  0
 15 16  1  0
 16 17  1  6
 16 18  1  0
 18 19  1  6
 18 25  1  0
 19 20  1  0
 20 21  1  0
 21 22  1  1
 21 24  1  0
 22 23  1  0
 24 25  1  0
M  END
