
     RDKit          3D

 18 20  0  0  0  0  0  0  0  0999 V2000
   -0.3120   -0.3730    1.5360 O   0  0  0  0  0  0  0  0  0  0  0  0
   -1.1970   -0.0450    0.6700 C   0  0  0  0  0  0  0  0  0  0  0  0
   -0.9660    1.0450   -0.2790 C   0  0  1  0  0  0  0  0  0  0  0  0
    0.1760    0.6480   -1.1950 C   0  0  0  0  0  0  0  0  0  0  0  0
    1.4420    0.3800   -0.5420 C   0  0  0  0  0  0  0  0  0  0  0  0
    2.3510    1.3790   -0.2860 C   0  0  0  0  0  0  0  0  0  0  0  0
    3.5590    1.1430    0.3230 C   0  0  0  0  0  0  0  0  0  0  0  0
    3.9090   -0.1260    0.7060 C   0  0  0  0  0  0  0  0  0  0  0  0
    3.0190   -1.1520    0.4630 C   0  0  0  0  0  0  0  0  0  0  0  0
    1.7910   -0.8930   -0.1590 C   0  0  0  0  0  0  0  0  0  0  0  0
   -2.1230    1.2540   -1.1580 C   0  0  0  0  0  0  0  0  0  0  0  0
   -2.0190    2.5510   -2.3630 Cl  0  0  0  0  0  0  0  0  0  0  0  0
   -3.1700    0.5330   -1.0650 N   0  0  0  0  0  0  0  0  0  0  0  0
   -3.3910   -0.5250   -0.1580 C   0  0  0  0  0  0  0  0  0  0  0  0
   -4.3920   -1.3900    0.0980 N   0  0  0  0  0  0  0  0  0  0  0  0
   -4.0460   -2.2100    1.1050 C   0  0  0  0  0  0  0  0  0  0  0  0
   -2.8090   -1.8250    1.4590 N   0  0  0  0  0  0  0  0  0  0  0  0
   -2.3980   -0.7950    0.6940 N   0  0  0  0  0  0  0  0  0  0  0  0
  1  2  2  0
  2  3  1  0
  2 18  1  0
  3  4  1  6
  3 11  1  0
  4  5  1  0
  5  6  2  0
  5 10  1  0
  6  7  1  0
  7  8  2  0
  8  9  1  0
  9 10  2  0
 11 12  1  0
 11 13  2  0
 13 14  1  0
 14 15  2  0
 14 18  1  0
 15 16  1  0
 16 17  2  0
 17 18  1  0
M  END
