
     RDKit          3D

 21 24  0  0  0  0  0  0  0  0999 V2000
   -1.3990    3.5500   -0.2780 C   0  0  0  0  0  0  0  0  0  0  0  0
   -0.9340    2.2430   -0.9640 C   0  0  0  0  0  0  0  0  0  0  0  0
   -0.8400    1.3290    0.0170 O   0  0  0  0  0  0  0  0  0  0  0  0
   -0.4500    0.0540   -0.2260 C   0  0  1  0  0  0  0  0  0  0  0  0
   -1.1360   -0.7350   -1.2580 C   0  0  1  0  0  0  0  0  0  0  0  0
   -0.3460   -1.8590   -1.8600 C   0  0  0  0  0  0  0  0  0  0  0  0
    0.5560   -2.5460   -0.8860 C   0  0  0  0  0  0  0  0  0  0  0  0
    1.3410   -1.6850    0.0130 C   0  0  0  0  0  0  0  0  0  0  0  0
    0.9630   -0.2290    0.1100 C   0  0  2  0  0  0  0  0  0  0  0  0
    1.0980    0.1470    1.6030 C   0  0  0  0  0  0  0  0  0  0  0  0
    2.3110    0.9500    1.9030 C   0  0  0  0  0  0  0  0  0  0  0  0
    3.5210    0.2090    1.3200 C   0  0  0  0  0  0  0  0  0  0  0  0
    3.3900    0.3390   -0.1640 C   0  0  0  0  0  0  0  0  0  0  0  0
    1.9590    0.6490   -0.5940 C   0  0  1  0  0  0  0  0  0  0  0  0
    1.9480    0.5480   -2.0870 C   0  0  0  0  0  0  0  0  0  0  0  0
   -2.1590   -1.2900   -0.3000 C   0  0  2  0  0  0  0  0  0  0  0  0
   -2.3690   -2.6530   -0.3720 O   0  0  0  0  0  0  0  0  0  0  0  0
   -3.4340   -0.4910   -0.1440 C   0  0  0  0  0  0  0  0  0  0  0  0
   -3.5250   -0.4790    1.3900 C   0  0  0  0  0  0  0  0  0  0  0  0
   -2.1180   -0.0100    1.7360 C   0  0  0  0  0  0  0  0  0  0  0  0
   -1.2820   -0.8090    0.8030 C   0  0  2  0  0  0  0  0  0  0  0  0
  1  2  1  0
  2  3  1  0
  4  3  1  6
  4  5  1  0
  4  9  1  0
  4 21  1  0
  5  6  1  1
  5 16  1  0
  6  7  1  0
  7  8  1  0
  9  8  1  1
  9 10  1  0
  9 14  1  0
 10 11  1  0
 11 12  1  0
 12 13  1  0
 13 14  1  0
 14 15  1  6
 16 17  1  1
 16 18  1  0
 16 21  1  0
 18 19  1  0
 19 20  1  0
 21 20  1  1
M  END
