
     RDKit          3D

 21 24  0  0  0  0  0  0  0  0999 V2000
   -0.1840    3.2900   -1.7450 C   0  0  0  0  0  0  0  0  0  0  0  0
   -0.3260    2.3000   -0.6170 C   0  0  2  0  0  0  0  0  0  0  0  0
    1.0360    1.7220   -0.3080 C   0  0  0  0  0  0  0  0  0  0  0  0
    0.9730    0.5560    0.6840 C   0  0  2  0  0  0  0  0  0  0  0  0
    1.8730   -0.4540    0.1230 C   0  0  2  0  0  0  0  0  0  0  0  0
    2.1690   -1.7100    0.8340 C   0  0  0  0  0  0  0  0  0  0  0  0
    3.4530   -2.1940    0.1050 C   0  0  0  0  0  0  0  0  0  0  0  0
    4.0990   -0.9720   -0.4550 C   0  0  0  0  0  0  0  0  0  0  0  0
    3.2980    0.1420    0.1860 C   0  0  0  0  0  0  0  0  0  0  0  0
   -0.4120    0.2840    1.1120 C   0  0  2  0  0  0  0  0  0  0  0  0
   -0.5830   -0.8320    2.1090 C   0  0  0  0  0  0  0  0  0  0  0  0
   -1.1750   -2.0980    1.5960 C   0  0  0  0  0  0  0  0  0  0  0  0
   -1.3520   -2.1470    0.1010 C   0  0  0  0  0  0  0  0  0  0  0  0
   -2.2110   -0.9560   -0.1850 C   0  0  2  0  0  0  0  0  0  0  0  0
   -2.7870   -0.8560   -1.5540 C   0  0  0  0  0  0  0  0  0  0  0  0
   -3.7980    0.1650   -1.4440 O   0  0  0  0  0  0  0  0  0  0  0  0
   -3.6710    1.2240   -0.5580 C   0  0  0  0  0  0  0  0  0  0  0  0
   -4.3750    2.2450   -0.7410 O   0  0  0  0  0  0  0  0  0  0  0  0
   -2.7290    1.2000    0.6060 C   0  0  0  0  0  0  0  0  0  0  0  0
   -1.5280    0.3610    0.1210 C   0  0  1  0  0  0  0  0  0  0  0  0
   -1.0960    1.0780   -1.1400 C   0  0  0  0  0  0  0  0  0  0  0  0
  2  1  1  6
  2  3  1  0
  2 21  1  0
  4  3  1  6
  4  5  1  0
  4 10  1  0
  5  6  1  1
  5  9  1  0
  6  7  1  0
  7  8  1  0
  8  9  1  0
 10 11  1  6
 10 20  1  0
 11 12  1  0
 12 13  1  0
 14 13  1  6
 14 15  1  0
 14 20  1  0
 15 16  1  0
 16 17  1  0
 17 18  2  0
 17 19  1  0
 20 19  1  1
 20 21  1  0
M  END
