
     RDKit          3D

 21 24  0  0  0  0  0  0  0  0999 V2000
   -4.2720   -0.6200    0.8870 C   0  0  0  0  0  0  0  0  0  0  0  0
   -2.8220   -0.2240    0.9750 C   0  0  0  0  0  0  0  0  0  0  0  0
   -2.1720   -0.1560   -0.3650 C   0  0  1  0  0  0  0  0  0  0  0  0
   -2.9530    0.9030   -1.1670 C   0  0  0  0  0  0  0  0  0  0  0  0
   -2.9540    2.2320   -0.4930 C   0  0  0  0  0  0  0  0  0  0  0  0
   -1.5630    2.5710   -0.0250 C   0  0  0  0  0  0  0  0  0  0  0  0
   -0.9300    1.5300    0.6040 O   0  0  0  0  0  0  0  0  0  0  0  0
   -0.7700    0.4220   -0.2290 C   0  0  1  0  0  0  0  0  0  0  0  0
    0.1740   -0.5580    0.4260 C   0  0  2  0  0  0  0  0  0  0  0  0
    1.5650   -0.1510    0.5410 C   0  0  1  0  0  0  0  0  0  0  0  0
    2.3010   -1.3260    1.2160 C   0  0  0  0  0  0  0  0  0  0  0  0
    3.1910   -2.0640    0.2530 C   0  0  0  0  0  0  0  0  0  0  0  0
    4.4020   -1.1340    0.0620 C   0  0  0  0  0  0  0  0  0  0  0  0
    3.8600    0.1580   -0.3390 C   0  0  0  0  0  0  0  0  0  0  0  0
    2.3710    0.2590   -0.6050 C   0  0  2  0  0  0  0  0  0  0  0  0
    2.1820    1.7840   -0.6580 C   0  0  0  0  0  0  0  0  0  0  0  0
    1.9980    2.0650    0.7950 C   0  0  0  0  0  0  0  0  0  0  0  0
    1.5910    0.9460    1.4360 O   0  0  0  0  0  0  0  0  0  0  0  0
   -0.1600   -1.9360   -0.0310 C   0  0  0  0  0  0  0  0  0  0  0  0
   -0.7810   -1.8480   -1.4220 C   0  0  0  0  0  0  0  0  0  0  0  0
   -2.2270   -1.3990   -1.1750 C   0  0  0  0  0  0  0  0  0  0  0  0
  1  2  1  0
  3  2  1  1
  3  4  1  0
  3  8  1  0
  3 21  1  0
  4  5  1  0
  5  6  1  0
  6  7  1  0
  8  7  1  1
  8  9  1  0
  9 10  1  0
  9 19  1  6
 10 11  1  1
 10 15  1  0
 10 18  1  0
 11 12  1  0
 12 13  1  0
 13 14  1  0
 15 14  1  1
 15 16  1  0
 16 17  1  0
 17 18  1  0
 19 20  1  0
 20 21  1  0
M  END
