
     RDKit          3D

 21 24  0  0  0  0  0  0  0  0999 V2000
    4.0350    1.8950   -0.0180 C   0  0  0  0  0  0  0  0  0  0  0  0
    3.1080    0.6910   -0.0690 C   0  0  1  0  0  0  0  0  0  0  0  0
    3.6860   -0.2840   -1.0380 C   0  0  0  0  0  0  0  0  0  0  0  0
    3.0270    0.1540    1.3470 C   0  0  0  0  0  0  0  0  0  0  0  0
    1.7160   -0.6080    1.2820 C   0  0  0  0  0  0  0  0  0  0  0  0
    0.7980    0.4020    0.5980 C   0  0  2  0  0  0  0  0  0  0  0  0
    0.3630    1.3140    1.7590 C   0  0  0  0  0  0  0  0  0  0  0  0
   -0.4420   -0.2360    0.0260 C   0  0  1  0  0  0  0  0  0  0  0  0
   -1.2910    0.6670   -0.7810 C   0  0  2  0  0  0  0  0  0  0  0  0
   -1.7570    1.9470   -0.1550 C   0  0  0  0  0  0  0  0  0  0  0  0
   -3.0480    2.4050   -0.8740 C   0  0  0  0  0  0  0  0  0  0  0  0
   -4.1800    1.4560   -0.5490 C   0  0  0  0  0  0  0  0  0  0  0  0
   -3.6240    0.1970   -0.3100 O   0  0  0  0  0  0  0  0  0  0  0  0
   -2.5920    0.0060   -1.2350 C   0  0  0  0  0  0  0  0  0  0  0  0
   -0.0670   -1.4200   -0.8650 C   0  0  0  0  0  0  0  0  0  0  0  0
   -0.3150   -2.6030   -0.0190 C   0  0  2  0  0  0  0  0  0  0  0  0
   -1.4960   -3.4830   -0.3930 C   0  0  0  0  0  0  0  0  0  0  0  0
   -2.2290   -2.9140    0.7910 C   0  0  0  0  0  0  0  0  0  0  0  0
   -1.0260   -2.0800    1.1760 C   0  0  2  0  0  0  0  0  0  0  0  0
   -1.1880   -0.7370    1.0610 O   0  0  0  0  0  0  0  0  0  0  0  0
    1.6840    1.0820   -0.3670 C   0  0  0  0  0  0  0  0  0  0  0  0
  2  1  1  1
  2  3  1  0
  2  4  1  0
  2 21  1  0
  4  5  1  0
  5  6  1  0
  6  7  1  1
  6  8  1  0
  6 21  1  0
  8  9  1  0
  8 15  1  6
  8 20  1  0
  9 10  1  1
  9 14  1  0
 10 11  1  0
 11 12  1  0
 12 13  1  0
 13 14  1  0
 16 15  1  6
 16 17  1  0
 16 19  1  0
 17 18  1  0
 19 18  1  6
 19 20  1  0
M  END
