
     RDKit          3D

 19 19  0  0  0  0  0  0  0  0999 V2000
    3.8270    0.8640    0.9280 C   0  0  0  0  0  0  0  0  0  0  0  0
    2.4640    0.6720    0.9240 O   0  0  0  0  0  0  0  0  0  0  0  0
    1.7580    0.8260   -0.5600 S   0  0  2  0  0  0  0  0  0  0  0  0
    2.3740    0.1120   -1.6830 O   0  0  0  0  0  0  0  0  0  0  0  0
    1.7510    2.3100   -0.9830 O   0  0  0  0  0  0  0  0  0  0  0  0
    0.0650    0.3060   -0.3980 C   0  0  0  0  0  0  0  0  0  0  0  0
   -0.8310    1.2510   -0.3120 C   0  0  0  0  0  0  0  0  0  0  0  0
   -2.2630    0.9900   -0.1750 C   0  0  2  0  0  0  0  0  0  0  0  0
   -2.8320    1.5110    1.1310 C   0  0  2  0  0  0  0  0  0  0  0  0
   -2.1510    0.8660    2.1540 F   0  0  0  0  0  0  0  0  0  0  0  0
   -4.1640    1.1740    1.1810 F   0  0  0  0  0  0  0  0  0  0  0  0
   -2.6550    2.8800    1.1930 F   0  0  0  0  0  0  0  0  0  0  0  0
   -2.5990   -0.4090   -0.2840 N   0  0  0  0  0  0  0  0  0  0  0  0
   -1.6060   -1.4050   -0.3690 C   0  0  0  0  0  0  0  0  0  0  0  0
   -2.1280   -3.1180   -0.4000 S   0  0  0  0  0  0  0  0  0  0  0  0
   -0.3110   -1.0870   -0.4260 C   0  0  0  0  0  0  0  0  0  0  0  0
    0.6810   -2.1650   -0.4790 C   0  0  0  0  0  0  0  0  0  0  0  0
    0.2190   -3.3550   -0.4880 O   0  0  0  0  0  0  0  0  0  0  0  0
    2.0390   -2.0040   -0.5160 O   0  0  0  0  0  0  0  0  0  0  0  0
  1  2  1  0
  3  2  1  1
  3  4  2  0
  3  5  2  0
  3  6  1  0
  6  7  2  0
  6 16  1  0
  7  8  1  0
  8  9  1  0
  8 13  1  1
  9 10  1  1
  9 11  1  0
  9 12  1  0
 13 14  1  0
 14 15  1  0
 14 16  2  0
 16 17  1  0
 17 18  2  0
 17 19  1  0
M  END
