
     RDKit          3D

 19 18  0  0  0  0  0  0  0  0999 V2000
    5.2490   -0.6990   -1.0480 N   0  0  0  0  0  0  0  0  0  0  0  0
    4.0190   -0.8030   -0.3670 C   0  0  0  0  0  0  0  0  0  0  0  0
    3.7860   -0.1230    0.6500 O   0  0  0  0  0  0  0  0  0  0  0  0
    2.7900   -1.9260   -0.9790 S   0  0  0  0  0  0  0  0  0  0  0  0
    1.2990   -1.9140    0.0340 C   0  0  0  0  0  0  0  0  0  0  0  0
    0.5840   -0.6280   -0.0270 C   0  0  0  0  0  0  0  0  0  0  0  0
    0.9270    0.3650   -0.6850 O   0  0  0  0  0  0  0  0  0  0  0  0
   -0.5890   -0.5170    0.7280 O   0  0  0  0  0  0  0  0  0  0  0  0
   -1.3400    0.6280    0.7510 C   0  0  0  0  0  0  0  0  0  0  0  0
   -2.4860    0.9100   -0.0470 C   0  0  0  0  0  0  0  0  0  0  0  0
   -3.0400    0.1340   -0.9210 C   0  0  0  0  0  0  0  0  0  0  0  0
   -2.5270   -1.4550   -1.3410 S   0  0  1  0  0  0  0  0  0  0  0  0
   -1.3790   -1.4560   -2.3360 O   0  0  0  0  0  0  0  0  0  0  0  0
   -2.1410   -2.3140   -0.1800 O   0  0  0  0  0  0  0  0  0  0  0  0
   -0.9160    1.5600    1.6280 C   0  0  0  0  0  0  0  0  0  0  0  0
   -1.6400    2.8240    1.7410 C   0  0  1  0  0  0  0  0  0  0  0  0
   -2.9370    2.6580    2.1960 F   0  0  0  0  0  0  0  0  0  0  0  0
   -1.0020    3.5830    2.7160 F   0  0  0  0  0  0  0  0  0  0  0  0
   -1.5990    3.6060    0.5940 F   0  0  0  0  0  0  0  0  0  0  0  0
  1  2  1  0
  2  3  2  0
  2  4  1  0
  4  5  1  0
  5  6  1  0
  6  7  2  0
  6  8  1  0
  8  9  1  0
  9 10  1  0
  9 15  2  3
 10 11  2  3
 12 11  1  1
 12 13  2  0
 12 14  2  0
 15 16  1  0
 16 17  1  1
 16 18  1  0
 16 19  1  0
M  END
