
     RDKit          3D

 13 13  0  0  0  0  0  0  0  0999 V2000
    4.8490   -0.1190    0.4260 N   0  0  0  0  0  0  0  0  0  0  0  0
    4.4290    0.7960   -0.5630 C   0  0  0  0  0  0  0  0  0  0  0  0
    3.1920    0.8040   -0.9990 C   0  0  0  0  0  0  0  0  0  0  0  0
    2.2420   -0.1500   -0.4500 C   0  0  0  0  0  0  0  0  0  0  0  0
    0.9990   -0.1340   -0.8950 C   0  0  0  0  0  0  0  0  0  0  0  0
   -0.0020   -1.0180   -0.4290 N   0  0  0  0  0  0  0  0  0  0  0  0
   -1.3230   -0.5900   -0.1680 C   0  0  0  0  0  0  0  0  0  0  0  0
   -1.7000    0.7250   -0.3600 C   0  0  0  0  0  0  0  0  0  0  0  0
   -2.9950    1.1410   -0.1040 C   0  0  0  0  0  0  0  0  0  0  0  0
   -3.9490    0.2590    0.3500 C   0  0  0  0  0  0  0  0  0  0  0  0
   -5.2620    0.6780    0.6100 O   0  0  0  0  0  0  0  0  0  0  0  0
   -3.5890   -1.0660    0.5480 C   0  0  0  0  0  0  0  0  0  0  0  0
   -2.2890   -1.4650    0.2870 C   0  0  0  0  0  0  0  0  0  0  0  0
  1  2  1  0
  2  3  2  3
  3  4  1  0
  4  5  2  3
  5  6  1  0
  6  7  1  0
  7  8  2  0
  7 13  1  0
  8  9  1  0
  9 10  2  0
 10 11  1  0
 10 12  1  0
 12 13  2  0
M  END
