
     RDKit          3D

 13 13  0  0  0  0  0  0  0  0999 V2000
   -3.4480    0.7160   -0.5850 C   0  0  0  0  0  0  0  0  0  0  0  0
   -2.3690    0.3760    0.0780 C   0  0  0  0  0  0  0  0  0  0  0  0
   -2.4790   -0.5450    1.2350 C   0  0  0  0  0  0  0  0  0  0  0  0
   -1.0660   -0.8600    1.6790 C   0  0  0  0  0  0  0  0  0  0  0  0
   -0.3000   -1.1860    0.3700 C   0  0  0  0  0  0  0  0  0  0  0  0
    0.0460    0.1240   -0.2020 C   0  0  0  0  0  0  0  0  0  0  0  0
    1.3090    0.6380   -0.6030 C   0  0  0  0  0  0  0  0  0  0  0  0
    2.5280    0.2510   -0.6400 C   0  0  0  0  0  0  0  0  0  0  0  0
    3.2720   -0.9030   -0.2980 C   0  0  0  0  0  0  0  0  0  0  0  0
    4.7160   -0.9410   -0.5100 N   0  0  0  0  0  0  0  0  0  0  0  0
    2.8160   -1.9440    0.1870 O   0  0  0  0  0  0  0  0  0  0  0  0
   -1.0810    0.9130   -0.3370 C   0  0  0  0  0  0  0  0  0  0  0  0
   -0.9460    2.1970   -0.8720 N   0  0  0  0  0  0  0  0  0  0  0  0
  1  2  2  0
  2  3  1  0
  2 12  1  0
  3  4  1  0
  4  5  1  0
  5  6  1  0
  6  7  1  0
  6 12  2  0
  7  8  2  3
  8  9  1  0
  9 10  1  0
  9 11  2  0
 12 13  1  0
M  END
