
     RDKit          3D

 13 14  0  0  0  0  0  0  0  0999 V2000
    3.7320    1.1670   -0.2930 N   0  0  0  0  0  0  0  0  0  0  0  0
    2.4790    0.5310   -0.6410 C   0  0  0  0  0  0  0  0  0  0  0  0
    1.9330   -0.1960    0.5590 C   0  0  0  0  0  0  0  0  0  0  0  0
    0.6460   -0.8730    0.2700 C   0  0  0  0  0  0  0  0  0  0  0  0
    0.4680   -2.2240    0.0680 C   0  0  0  0  0  0  0  0  0  0  0  0
   -0.8380   -2.4460   -0.1640 N   0  0  0  0  0  0  0  0  0  0  0  0
   -1.5430   -1.3010   -0.1260 C   0  0  0  0  0  0  0  0  0  0  0  0
   -2.8740   -0.9700   -0.2910 C   0  0  0  0  0  0  0  0  0  0  0  0
   -3.3050    0.3350   -0.1890 C   0  0  0  0  0  0  0  0  0  0  0  0
   -2.4060    1.3510    0.0820 C   0  0  0  0  0  0  0  0  0  0  0  0
   -2.7860    2.6810    0.1930 O   0  0  0  0  0  0  0  0  0  0  0  0
   -1.0740    0.9930    0.2430 C   0  0  0  0  0  0  0  0  0  0  0  0
   -0.6140   -0.3050    0.1470 C   0  0  0  0  0  0  0  0  0  0  0  0
  1  2  1  0
  2  3  1  0
  3  4  1  0
  4  5  2  0
  4 13  1  0
  5  6  1  0
  6  7  1  0
  7  8  2  0
  7 13  1  0
  8  9  1  0
  9 10  2  0
 10 11  1  0
 10 12  1  0
 12 13  2  0
M  END
