
     RDKit          3D

 13 14  0  0  0  0  0  0  0  0999 V2000
    3.0440    1.9260   -0.1560 N   0  0  0  0  0  0  0  0  0  0  0  0
    3.3520    0.5600   -0.0460 C   0  0  0  0  0  0  0  0  0  0  0  0
    2.4980   -0.3900    0.0620 C   0  0  0  0  0  0  0  0  0  0  0  0
    1.0540   -0.3330    0.0990 C   0  0  0  0  0  0  0  0  0  0  0  0
    0.3560    0.8510    0.0160 C   0  0  0  0  0  0  0  0  0  0  0  0
   -1.0500    0.8200    0.0590 C   0  0  0  0  0  0  0  0  0  0  0  0
   -1.7490   -0.3450    0.1810 C   0  0  0  0  0  0  0  0  0  0  0  0
   -1.0240   -1.5050    0.2620 C   0  0  0  0  0  0  0  0  0  0  0  0
    0.3440   -1.5420    0.2250 C   0  0  0  0  0  0  0  0  0  0  0  0
    1.0620   -2.7720    0.3110 N   0  0  0  0  0  0  0  0  0  0  0  0
   -3.1940   -0.0380    0.1970 C   0  0  0  0  0  0  0  0  0  0  0  0
   -3.2030    1.4600    0.4780 C   0  0  0  0  0  0  0  0  0  0  0  0
   -1.9310    1.8970   -0.0090 O   0  0  0  0  0  0  0  0  0  0  0  0
  1  2  1  0
  2  3  2  3
  3  4  1  0
  4  5  2  0
  4  9  1  0
  5  6  1  0
  6  7  2  0
  6 13  1  0
  7  8  1  0
  7 11  1  0
  8  9  2  0
  9 10  1  0
 11 12  1  0
 12 13  1  0
M  END
