
     RDKit          3D

 13 14  0  0  0  0  0  0  0  0999 V2000
    3.9110   -0.7760   -0.3220 N   0  0  0  0  0  0  0  0  0  0  0  0
    2.4960   -0.5550   -0.2640 C   0  0  0  0  0  0  0  0  0  0  0  0
    1.6280   -1.5750   -0.5490 C   0  0  0  0  0  0  0  0  0  0  0  0
    0.2730   -1.3730   -0.4960 C   0  0  0  0  0  0  0  0  0  0  0  0
   -0.2780   -0.1360   -0.1540 C   0  0  0  0  0  0  0  0  0  0  0  0
   -1.7230    0.0520   -0.1050 C   0  0  0  0  0  0  0  0  0  0  0  0
   -2.6420   -0.8160    0.4790 C   0  0  0  0  0  0  0  0  0  0  0  0
   -3.9070   -0.2810    0.3140 C   0  0  0  0  0  0  0  0  0  0  0  0
   -3.7570    0.8610   -0.3400 O   0  0  0  0  0  0  0  0  0  0  0  0
   -2.4960    1.0830   -0.5990 C   0  0  0  0  0  0  0  0  0  0  0  0
    0.6270    0.8660    0.1270 C   0  0  0  0  0  0  0  0  0  0  0  0
    0.1150    2.1440    0.4800 N   0  0  0  0  0  0  0  0  0  0  0  0
    1.9810    0.6900    0.0810 C   0  0  0  0  0  0  0  0  0  0  0  0
  1  2  1  0
  2  3  2  0
  2 13  1  0
  3  4  1  0
  4  5  2  0
  5  6  1  0
  5 11  1  0
  6  7  1  0
  6 10  2  0
  7  8  2  0
  8  9  1  0
  9 10  1  0
 11 12  1  0
 11 13  2  0
M  END
