
     RDKit          3D

 12 13  0  0  0  0  0  0  0  0999 V2000
    3.4470    0.0870    0.3500 C   0  0  0  0  0  0  0  0  0  0  0  0
    2.4450    0.5350    1.0880 C   0  0  0  0  0  0  0  0  0  0  0  0
    1.0750    0.3330    0.6660 N   0  0  0  0  0  0  0  0  0  0  0  0
    0.8150   -0.3460   -0.5430 C   0  0  0  0  0  0  0  0  0  0  0  0
   -0.3880   -0.5520   -0.9940 C   0  0  0  0  0  0  0  0  0  0  0  0
   -1.6030   -0.1100   -0.3220 C   0  0  0  0  0  0  0  0  0  0  0  0
   -1.8930    1.1210    0.2270 C   0  0  0  0  0  0  0  0  0  0  0  0
   -3.1600    1.1140    0.7890 C   0  0  0  0  0  0  0  0  0  0  0  0
   -3.6380   -0.1540    0.5680 C   0  0  0  0  0  0  0  0  0  0  0  0
   -2.7170   -0.8670   -0.0850 N   0  0  0  0  0  0  0  0  0  0  0  0
    1.9750   -0.8080   -1.2970 C   0  0  0  0  0  0  0  0  0  0  0  0
    3.2050   -0.6110   -0.8890 C   0  0  0  0  0  0  0  0  0  0  0  0
  1  2  2  0
  1 12  1  0
  2  3  1  0
  3  4  1  0
  4  5  2  3
  4 11  1  0
  5  6  1  0
  6  7  2  0
  6 10  1  0
  7  8  1  0
  8  9  2  0
  9 10  1  0
 11 12  2  0
M  END
