
     RDKit          3D

 31 31  0  0  0  0  0  0  0  0999 V2000
    6.5380   -0.7340   -1.8380 N   0  0  0  0  0  0  0  0  0  0  0  0
    5.3350   -0.8610   -1.0390 C   0  0  0  0  0  0  0  0  0  0  0  0
    5.2730   -1.7070   -0.1190 O   0  0  0  0  0  0  0  0  0  0  0  0
    4.2750   -0.0550   -1.2980 O   0  0  0  0  0  0  0  0  0  0  0  0
    3.0350    0.0750   -0.7200 C   0  0  0  0  0  0  0  0  0  0  0  0
    2.9040    0.6140    0.6550 C   0  0  1  0  0  0  0  0  0  0  0  0
    3.5430   -0.0880    1.7810 C   0  0  0  0  0  0  0  0  0  0  0  0
    3.1300   -1.3980    1.9770 O   0  0  0  0  0  0  0  0  0  0  0  0
    3.6020    2.0080    0.6000 C   0  0  0  0  0  0  0  0  0  0  0  0
    3.5530    2.6170    1.8440 O   0  0  0  0  0  0  0  0  0  0  0  0
    1.4220    0.8740    0.9400 C   0  0  2  0  0  0  0  0  0  0  0  0
    0.6560   -0.4140    0.7950 C   0  0  0  0  0  0  0  0  0  0  0  0
   -0.0450   -0.3500   -0.4180 O   0  0  0  0  0  0  0  0  0  0  0  0
   -0.9690   -1.4190   -0.5410 C   0  0  2  0  0  0  0  0  0  0  0  0
   -0.1910   -2.4860   -1.3310 C   0  0  0  0  0  0  0  0  0  0  0  0
   -0.9580   -3.6210   -1.5490 O   0  0  0  0  0  0  0  0  0  0  0  0
   -2.1260   -0.8840   -1.3360 C   0  0  1  0  0  0  0  0  0  0  0  0
   -2.2460   -1.7290   -2.4710 O   0  0  0  0  0  0  0  0  0  0  0  0
   -3.4380   -0.9400   -0.5770 C   0  0  0  0  0  0  0  0  0  0  0  0
   -3.9500   -2.3160   -0.4200 C   0  0  0  0  0  0  0  0  0  0  0  0
   -4.1780   -2.7960   -1.7330 O   0  0  0  0  0  0  0  0  0  0  0  0
   -4.0060    0.1490   -0.0960 C   0  0  0  0  0  0  0  0  0  0  0  0
   -5.3140   -0.0070    0.6380 C   0  0  2  0  0  0  0  0  0  0  0  0
   -6.1750    1.0590    0.3280 O   0  0  0  0  0  0  0  0  0  0  0  0
   -5.2110   -0.0940    1.9900 O   0  0  0  0  0  0  0  0  0  0  0  0
   -3.4410    1.4110   -0.2410 O   0  0  0  0  0  0  0  0  0  0  0  0
   -2.3200    1.9740    0.3410 C   0  0  0  0  0  0  0  0  0  0  0  0
   -1.5100    2.8130   -0.6210 C   0  0  0  0  0  0  0  0  0  0  0  0
   -0.6040    3.6380    0.0380 O   0  0  0  0  0  0  0  0  0  0  0  0
    0.3470    2.9270    0.7630 C   0  0  0  0  0  0  0  0  0  0  0  0
    0.9330    1.8820    0.0910 O   0  0  0  0  0  0  0  0  0  0  0  0
  1  2  1  0
  2  3  2  0
  2  4  1  0
  4  5  1  0
  6  5  1  6
  6  7  1  0
  6  9  1  0
  6 11  1  0
  7  8  1  0
  9 10  1  0
 11 12  1  6
 11 31  1  0
 12 13  1  0
 13 14  1  0
 14 15  1  6
 14 17  1  0
 15 16  1  0
 17 18  1  6
 17 19  1  0
 19 20  1  0
 19 22  2  0
 20 21  1  0
 22 23  1  0
 22 26  1  0
 23 24  1  1
 23 25  1  0
 26 27  1  0
 27 28  1  0
 28 29  1  0
 29 30  1  0
 30 31  1  0
M  END
