
     RDKit          3D

 36 38  0  0  0  0  0  0  0  0999 V2000
    1.7600    8.8100    0.3320 C   0  0  0  0  0  0  0  0  0  0  0  0
    0.5260    8.0060    0.0880 C   0  0  0  0  0  0  0  0  0  0  0  0
    0.8510    6.6140    0.0410 C   0  0  0  0  0  0  0  0  0  0  0  0
    1.9890    5.8460    0.1610 C   0  0  0  0  0  0  0  0  0  0  0  0
    1.9440    4.5230    0.0620 C   0  0  0  0  0  0  0  0  0  0  0  0
    0.7460    3.8710   -0.1650 C   0  0  0  0  0  0  0  0  0  0  0  0
    0.3110    2.5240   -0.3240 C   0  0  0  0  0  0  0  0  0  0  0  0
    1.1390    1.5470   -0.2640 N   0  0  0  0  0  0  0  0  0  0  0  0
    0.7550    0.2170   -0.4150 N   0  0  0  0  0  0  0  0  0  0  0  0
   -0.6280   -0.1650   -0.4270 C   0  0  0  0  0  0  0  0  0  0  0  0
   -1.2020   -0.1440   -1.8380 C   0  0  0  0  0  0  0  0  0  0  0  0
   -2.6030   -0.5420   -1.7510 N   0  0  0  0  0  0  0  0  0  0  0  0
   -3.6930    0.3600   -1.5600 C   0  0  0  0  0  0  0  0  0  0  0  0
   -3.6750    1.5290   -1.0990 O   0  0  0  0  0  0  0  0  0  0  0  0
   -4.8910   -0.3910   -2.0330 C   0  0  1  0  0  0  0  0  0  0  0  0
   -5.0640   -0.2700   -3.7980 Cl  0  0  0  0  0  0  0  0  0  0  0  0
   -4.5510   -1.7980   -1.6070 C   0  0  2  0  0  0  0  0  0  0  0  0
   -4.9250   -2.0790   -0.1980 C   0  0  0  0  0  0  0  0  0  0  0  0
   -4.0470   -2.3650    0.7210 C   0  0  0  0  0  0  0  0  0  0  0  0
   -4.4330   -2.6370    2.0940 C   0  0  0  0  0  0  0  0  0  0  0  0
   -5.7080   -2.5970    2.4300 C   0  0  0  0  0  0  0  0  0  0  0  0
   -6.6500   -2.2990    1.4810 O   0  0  0  0  0  0  0  0  0  0  0  0
   -6.3680   -2.0260    0.1480 C   0  0  0  0  0  0  0  0  0  0  0  0
   -3.1070   -1.8780   -1.8410 C   0  0  0  0  0  0  0  0  0  0  0  0
   -2.3680   -2.8690   -2.0800 O   0  0  0  0  0  0  0  0  0  0  0  0
    1.7790   -0.7570   -0.5570 C   0  0  0  0  0  0  0  0  0  0  0  0
    2.9990   -0.4440   -0.5500 O   0  0  0  0  0  0  0  0  0  0  0  0
    1.3010   -2.4770   -0.7520 S   0  0  0  0  0  0  0  0  0  0  0  0
    2.7820   -3.5030   -0.9140 C   0  0  0  0  0  0  0  0  0  0  0  0
    3.5560   -3.4890    0.3490 C   0  0  0  0  0  0  0  0  0  0  0  0
    3.1390   -2.8260    1.3130 O   0  0  0  0  0  0  0  0  0  0  0  0
    4.7690   -4.2290    0.4600 N   0  0  0  0  0  0  0  0  0  0  0  0
    5.5250   -4.2120    1.7010 C   0  0  0  0  0  0  0  0  0  0  0  0
    6.7550   -5.0880    1.5050 C   0  0  0  0  0  0  0  0  0  0  0  0
    7.4970   -5.0870    2.6850 O   0  0  0  0  0  0  0  0  0  0  0  0
   -0.3760    5.3180   -0.2350 S   0  0  0  0  0  0  0  0  0  0  0  0
  1  2  1  0
  2  3  1  0
  3  4  2  0
  3 36  1  0
  4  5  1  0
  5  6  2  0
  6  7  1  0
  6 36  1  0
  7  8  2  3
  8  9  1  0
  9 10  1  0
  9 26  1  0
 10 11  1  0
 11 12  1  0
 12 13  1  0
 12 24  1  0
 13 14  2  0
 13 15  1  0
 15 16  1  6
 15 17  1  0
 17 18  1  1
 17 24  1  0
 18 19  2  0
 18 23  1  0
 19 20  1  0
 20 21  2  0
 21 22  1  0
 22 23  1  0
 24 25  2  0
 26 27  2  0
 26 28  1  0
 28 29  1  0
 29 30  1  0
 30 31  2  0
 30 32  1  0
 32 33  1  0
 33 34  1  0
 34 35  1  0
M  END
