
     RDKit          3D

 31 31  0  0  0  0  0  0  0  0999 V2000
   -6.7320   -0.7050    3.2250 C   0  0  0  0  0  0  0  0  0  0  0  0
   -6.0790    0.0780    2.2440 O   0  0  0  0  0  0  0  0  0  0  0  0
   -5.5490   -0.4420    1.0840 C   0  0  0  0  0  0  0  0  0  0  0  0
   -5.6490   -1.6800    0.8800 O   0  0  0  0  0  0  0  0  0  0  0  0
   -4.8660    0.3750    0.0550 C   0  0  1  0  0  0  0  0  0  0  0  0
   -5.6650    0.2220   -1.2330 C   0  0  0  0  0  0  0  0  0  0  0  0
   -4.8750    1.6940    0.4890 O   0  0  0  0  0  0  0  0  0  0  0  0
   -3.4280   -0.1140   -0.1620 C   0  0  2  0  0  0  0  0  0  0  0  0
   -3.4280   -1.4100   -0.5880 O   0  0  0  0  0  0  0  0  0  0  0  0
   -2.8300   -0.0780    1.1060 O   0  0  0  0  0  0  0  0  0  0  0  0
   -2.7350    0.8780   -1.0180 C   0  0  0  0  0  0  0  0  0  0  0  0
   -1.2920    0.5670   -1.3430 C   0  0  2  0  0  0  0  0  0  0  0  0
   -0.8810    1.6620   -2.1530 O   0  0  0  0  0  0  0  0  0  0  0  0
   -1.1020   -0.6480   -2.1700 C   0  0  0  0  0  0  0  0  0  0  0  0
   -0.3350   -1.7590   -1.5280 C   0  0  0  0  0  0  0  0  0  0  0  0
    0.6980   -1.3280   -0.5430 C   0  0  2  0  0  0  0  0  0  0  0  0
    0.2760   -1.7110    0.7310 O   0  0  0  0  0  0  0  0  0  0  0  0
    0.7840    0.2020   -0.6080 C   0  0  2  0  0  0  0  0  0  0  0  0
    1.8680    0.6900    0.2390 C   0  0  0  0  0  0  0  0  0  0  0  0
    1.7690    1.4280    1.2330 O   0  0  0  0  0  0  0  0  0  0  0  0
    3.1660    0.3140   -0.0610 O   0  0  0  0  0  0  0  0  0  0  0  0
    4.2720    0.7220    0.6800 C   0  0  1  0  0  0  0  0  0  0  0  0
    4.8490   -0.4890    1.3450 C   0  0  0  0  0  0  0  0  0  0  0  0
    6.0610   -0.2280    2.1920 C   0  0  0  0  0  0  0  0  0  0  0  0
    6.4750   -1.4470    2.7600 O   0  0  0  0  0  0  0  0  0  0  0  0
    5.3100    1.4860   -0.0280 C   0  0  0  0  0  0  0  0  0  0  0  0
    5.9340    0.7500   -1.1630 C   0  0  0  0  0  0  0  0  0  0  0  0
    5.6240   -0.4070   -1.5130 O   0  0  0  0  0  0  0  0  0  0  0  0
    6.9350    1.3740   -1.9010 O   0  0  0  0  0  0  0  0  0  0  0  0
    7.5600    0.8270   -2.9230 O   0  0  0  0  0  0  0  0  0  0  0  0
   -0.4750    0.6380   -0.2190 O   0  0  0  0  0  0  0  0  0  0  0  0
  1  2  1  0
  2  3  1  0
  3  4  2  0
  3  5  1  0
  5  6  1  6
  5  7  1  0
  5  8  1  0
  8  9  1  6
  8 10  1  0
  8 11  1  0
 11 12  1  0
 12 13  1  6
 12 14  1  0
 12 31  1  0
 14 15  1  0
 15 16  1  0
 16 17  1  1
 16 18  1  0
 18 19  1  1
 18 31  1  0
 19 20  2  0
 19 21  1  0
 21 22  1  0
 22 23  1  6
 22 26  1  0
 23 24  1  0
 24 25  1  0
 26 27  1  0
 27 28  2  0
 27 29  1  0
 29 30  1  0
M  END
