
     RDKit          3D

 31 31  0  0  0  0  0  0  0  0999 V2000
    3.9390   -4.8440   -0.6980 C   0  0  0  0  0  0  0  0  0  0  0  0
    3.2970   -3.6500   -1.0280 O   0  0  0  0  0  0  0  0  0  0  0  0
    2.5560   -3.1520    0.0410 C   0  0  0  0  0  0  0  0  0  0  0  0
    1.9570   -1.9820   -0.3590 O   0  0  0  0  0  0  0  0  0  0  0  0
    1.2100   -1.4590    0.6860 C   0  0  1  0  0  0  0  0  0  0  0  0
    1.7160   -0.0700    1.0200 C   0  0  0  0  0  0  0  0  0  0  0  0
    1.0270    0.9040    0.3020 O   0  0  0  0  0  0  0  0  0  0  0  0
    1.5520    2.1640    0.4970 C   0  0  2  0  0  0  0  0  0  0  0  0
    2.8460    2.0760    0.9400 O   0  0  0  0  0  0  0  0  0  0  0  0
    3.7720    2.6870    0.1350 C   0  0  0  0  0  0  0  0  0  0  0  0
    3.8390    2.1650   -1.2440 C   0  0  0  0  0  0  0  0  0  0  0  0
    4.7740    2.7460   -2.1370 N   0  0  0  0  0  0  0  0  0  0  0  0
    3.1140    1.2340   -1.6750 O   0  0  0  0  0  0  0  0  0  0  0  0
    0.6340    2.8850    1.4790 C   0  0  2  0  0  0  0  0  0  0  0  0
    0.2820    1.9870    2.4590 O   0  0  0  0  0  0  0  0  0  0  0  0
   -0.6080    3.2740    0.6960 C   0  0  0  0  0  0  0  0  0  0  0  0
   -1.3380    2.1730    0.2760 O   0  0  0  0  0  0  0  0  0  0  0  0
   -2.6930    2.3260    0.5260 C   0  0  1  0  0  0  0  0  0  0  0  0
   -3.3780    3.0960   -0.5280 C   0  0  0  0  0  0  0  0  0  0  0  0
   -2.8050    3.5640   -1.5450 O   0  0  0  0  0  0  0  0  0  0  0  0
   -4.7390    3.3230   -0.3980 O   0  0  0  0  0  0  0  0  0  0  0  0
   -3.3150    1.1150    0.7270 O   0  0  0  0  0  0  0  0  0  0  0  0
   -3.3770    0.3240   -0.4170 C   0  0  2  0  0  0  0  0  0  0  0  0
   -4.4320    0.8340   -1.2040 O   0  0  0  0  0  0  0  0  0  0  0  0
   -3.6550   -1.0930    0.0180 C   0  0  0  0  0  0  0  0  0  0  0  0
   -2.7550   -2.0960   -0.6790 C   0  0  2  0  0  0  0  0  0  0  0  0
   -3.6790   -2.9530   -1.5600 C   0  0  0  0  0  0  0  0  0  0  0  0
   -2.1440   -2.9520    0.1920 O   0  0  0  0  0  0  0  0  0  0  0  0
   -0.7740   -2.8160    0.2790 C   0  0  0  0  0  0  0  0  0  0  0  0
   -0.2830   -1.4100    0.3260 C   0  0  1  0  0  0  0  0  0  0  0  0
   -0.8750   -0.6870    1.3880 O   0  0  0  0  0  0  0  0  0  0  0  0
  1  2  1  0
  2  3  1  0
  3  4  1  0
  5  4  1  6
  5  6  1  0
  5 30  1  0
  6  7  1  0
  7  8  1  0
  8  9  1  1
  8 14  1  0
  9 10  1  0
 10 11  1  0
 11 12  1  0
 11 13  2  0
 14 15  1  1
 14 16  1  0
 16 17  1  0
 17 18  1  0
 18 19  1  6
 18 22  1  0
 19 20  2  0
 19 21  1  0
 22 23  1  0
 23 24  1  6
 23 25  1  0
 25 26  1  0
 26 27  1  6
 26 28  1  0
 28 29  1  0
 29 30  1  0
 30 31  1  1
M  END
