
     RDKit          3D

 38 41  0  0  0  0  0  0  0  0999 V2000
    6.2860    0.4780   -2.9190 C   0  0  0  0  0  0  0  0  0  0  0  0
    6.3810    1.7010   -2.1140 N   0  0  0  0  0  0  0  0  0  0  0  0
    5.1080    1.8980   -1.4310 C   0  0  0  0  0  0  0  0  0  0  0  0
    4.8910    0.9020   -0.3300 C   0  0  0  0  0  0  0  0  0  0  0  0
    5.8140   -0.0260    0.0270 C   0  0  0  0  0  0  0  0  0  0  0  0
    5.5850   -0.9030    1.0490 C   0  0  0  0  0  0  0  0  0  0  0  0
    4.3770   -0.8940    1.7920 C   0  0  0  0  0  0  0  0  0  0  0  0
    4.2230   -1.8600    2.8720 C   0  0  0  0  0  0  0  0  0  0  0  0
    3.4030   -3.0020    2.5170 N   0  0  0  0  0  0  0  0  0  0  0  0
    3.4670    0.0610    1.3990 C   0  0  0  0  0  0  0  0  0  0  0  0
    3.6760    0.9490    0.3780 C   0  0  0  0  0  0  0  0  0  0  0  0
    2.7370    1.9720   -0.0480 C   0  0  0  0  0  0  0  0  0  0  0  0
    1.4430    2.0310    0.5510 N   0  0  0  0  0  0  0  0  0  0  0  0
    0.5230    0.9390    0.4320 C   0  0  0  0  0  0  0  0  0  0  0  0
    0.8900   -0.0850   -0.1720 O   0  0  0  0  0  0  0  0  0  0  0  0
   -0.8160    1.0180    0.9870 C   0  0  2  0  0  0  0  0  0  0  0  0
   -1.5760   -0.2060    0.7510 N   0  0  0  0  0  0  0  0  0  0  0  0
   -2.8980   -0.4350    1.1730 C   0  0  0  0  0  0  0  0  0  0  0  0
   -3.4520    0.5330    1.7850 O   0  0  0  0  0  0  0  0  0  0  0  0
   -3.6070   -1.6790    0.9370 C   0  0  0  0  0  0  0  0  0  0  0  0
   -3.1110   -2.9430    0.7270 C   0  0  0  0  0  0  0  0  0  0  0  0
   -1.6970   -3.4050    0.6720 C   0  0  0  0  0  0  0  0  0  0  0  0
   -1.7280   -4.8780    0.5280 N   0  0  0  0  0  0  0  0  0  0  0  0
   -4.1930   -3.7560    0.5400 N   0  0  0  0  0  0  0  0  0  0  0  0
   -5.3410   -3.0540    0.6240 C   0  0  0  0  0  0  0  0  0  0  0  0
   -6.6590   -3.4570    0.4910 C   0  0  0  0  0  0  0  0  0  0  0  0
   -7.6710   -2.5210    0.6090 C   0  0  0  0  0  0  0  0  0  0  0  0
   -7.3590   -1.1980    0.8590 C   0  0  0  0  0  0  0  0  0  0  0  0
   -6.0280   -0.8190    0.9890 C   0  0  0  0  0  0  0  0  0  0  0  0
   -5.0110   -1.7550    0.8710 C   0  0  0  0  0  0  0  0  0  0  0  0
   -1.5780    2.0960    0.1690 C   0  0  0  0  0  0  0  0  0  0  0  0
   -2.3460    3.0310    0.7910 C   0  0  0  0  0  0  0  0  0  0  0  0
   -2.9360    4.0120   -0.0090 C   0  0  0  0  0  0  0  0  0  0  0  0
   -2.7630    4.0560   -1.3620 C   0  0  0  0  0  0  0  0  0  0  0  0
   -3.3560    5.0440   -2.1580 O   0  0  0  0  0  0  0  0  0  0  0  0
   -3.1020    5.0480   -3.5660 C   0  0  0  0  0  0  0  0  0  0  0  0
   -1.9670    3.0830   -1.9800 C   0  0  0  0  0  0  0  0  0  0  0  0
   -1.3750    2.0970   -1.1770 C   0  0  0  0  0  0  0  0  0  0  0  0
  1  2  1  0
  2  3  1  0
  3  4  1  0
  4  5  2  0
  4 11  1  0
  5  6  1  0
  6  7  2  0
  7  8  1  0
  7 10  1  0
  8  9  1  0
 10 11  2  0
 11 12  1  0
 12 13  1  0
 13 14  1  0
 14 15  2  0
 14 16  1  0
 16 17  1  6
 16 31  1  0
 17 18  1  0
 18 19  2  0
 18 20  1  0
 20 21  2  0
 20 30  1  0
 21 22  1  0
 21 24  1  0
 22 23  1  0
 24 25  1  0
 25 26  2  0
 25 30  1  0
 26 27  1  0
 27 28  2  0
 28 29  1  0
 29 30  2  0
 31 32  2  0
 31 38  1  0
 32 33  1  0
 33 34  2  0
 34 35  1  0
 34 37  1  0
 35 36  1  0
 37 38  2  0
M  CHG  3   2   1   9   1  23   1
M  END
