
     RDKit          3D

 45 50  0  0  0  0  0  0  0  0999 V2000
   -9.1370    0.9290   -2.5720 C   0  0  0  0  0  0  0  0  0  0  0  0
   -9.3310   -0.2920   -1.7500 C   0  0  0  0  0  0  0  0  0  0  0  0
   -9.8940   -1.4210   -2.2790 N   0  0  0  0  0  0  0  0  0  0  0  0
  -10.0800   -2.5440   -1.5550 C   0  0  0  0  0  0  0  0  0  0  0  0
   -9.6860   -2.5410   -0.2400 C   0  0  0  0  0  0  0  0  0  0  0  0
   -9.1080   -1.3930    0.3200 C   0  0  0  0  0  0  0  0  0  0  0  0
   -8.9320   -0.2680   -0.4420 C   0  0  0  0  0  0  0  0  0  0  0  0
   -8.3180    0.9770    0.1510 C   0  0  0  0  0  0  0  0  0  0  0  0
   -9.2100    1.8580    0.7200 C   0  0  0  0  0  0  0  0  0  0  0  0
  -10.8930    1.8770    0.9100 Cl  0  0  0  0  0  0  0  0  0  0  0  0
   -8.0470    3.1900    1.3120 S   0  0  0  0  0  0  0  0  0  0  0  0
   -6.5640    2.4160    0.7370 C   0  0  0  0  0  0  0  0  0  0  0  0
   -5.2350    2.8100    0.8080 C   0  0  0  0  0  0  0  0  0  0  0  0
   -4.2510    2.0010    0.2680 C   0  0  0  0  0  0  0  0  0  0  0  0
   -4.6720    0.8380   -0.3140 C   0  0  0  0  0  0  0  0  0  0  0  0
   -3.6960   -0.0510   -0.8850 N   0  0  0  0  0  0  0  0  0  0  0  0
   -3.0050   -0.9150   -0.0070 C   0  0  0  0  0  0  0  0  0  0  0  0
   -3.3050   -0.8500    1.2320 O   0  0  0  0  0  0  0  0  0  0  0  0
   -2.0030   -1.8420   -0.4490 N   0  0  0  0  0  0  0  0  0  0  0  0
   -1.3940   -2.6560    0.5650 C   0  0  0  0  0  0  0  0  0  0  0  0
   -0.6520   -1.8260    1.5290 C   0  0  0  0  0  0  0  0  0  0  0  0
   -0.1070   -2.3870    2.5600 O   0  0  0  0  0  0  0  0  0  0  0  0
   -0.5170   -0.4310    1.3520 N   0  0  0  0  0  0  0  0  0  0  0  0
    0.2160    0.3370    2.3450 C   0  0  0  0  0  0  0  0  0  0  0  0
    1.6490   -0.0860    2.5110 C   0  0  0  0  0  0  0  0  0  0  0  0
    2.4820    0.0480    1.2750 C   0  0  0  0  0  0  0  0  0  0  0  0
    3.8670   -0.4110    1.5150 N   0  0  0  0  0  0  0  0  0  0  0  0
    3.8750   -1.8060    1.6720 C   0  0  0  0  0  0  0  0  0  0  0  0
    4.6900    0.2250    0.5800 C   0  0  2  0  0  0  0  0  0  0  0  0
    4.5020   -0.0590   -0.8620 C   0  0  0  0  0  0  0  0  0  0  0  0
    5.0430   -1.3480   -1.3740 C   0  0  0  0  0  0  0  0  0  0  0  0
    6.3970   -1.6320   -0.8200 C   0  0  0  0  0  0  0  0  0  0  0  0
    6.8900   -0.3300   -0.2520 N   0  0  0  0  0  0  0  0  0  0  0  0
    7.9250    0.3360   -0.9090 C   0  0  0  0  0  0  0  0  0  0  0  0
    8.4300   -0.2190   -2.0670 N   0  0  0  0  0  0  0  0  0  0  0  0
    9.4140    0.3480   -2.7610 C   0  0  0  0  0  0  0  0  0  0  0  0
    9.9780    1.5010   -2.3750 N   0  0  0  0  0  0  0  0  0  0  0  0
    9.5240    2.0910   -1.2470 C   0  0  0  0  0  0  0  0  0  0  0  0
    8.4960    1.5090   -0.5120 C   0  0  0  0  0  0  0  0  0  0  0  0
    8.2840    2.4220    0.6240 C   0  0  0  0  0  0  0  0  0  0  0  0
    9.2940    3.5040    0.3800 C   0  0  0  0  0  0  0  0  0  0  0  0
    9.9690    3.2980   -0.6610 N   0  0  0  0  0  0  0  0  0  0  0  0
    6.1610    0.0220    0.9380 C   0  0  0  0  0  0  0  0  0  0  0  0
   -5.9700    0.4680   -0.3740 C   0  0  0  0  0  0  0  0  0  0  0  0
   -7.0090    1.2660    0.1670 C   0  0  0  0  0  0  0  0  0  0  0  0
  1  2  1  0
  2  3  2  0
  2  7  1  0
  3  4  1  0
  4  5  2  0
  5  6  1  0
  6  7  2  0
  7  8  1  0
  8  9  2  0
  8 45  1  0
  9 10  1  0
  9 11  1  0
 11 12  1  0
 12 13  2  0
 12 45  1  0
 13 14  1  0
 14 15  2  0
 15 16  1  0
 15 44  1  0
 16 17  1  0
 17 18  2  0
 17 19  1  0
 19 20  1  0
 20 21  1  0
 21 22  2  0
 21 23  1  0
 23 24  1  0
 24 25  1  0
 25 26  1  0
 26 27  1  0
 27 28  1  0
 29 27  1  1
 29 30  1  0
 29 43  1  0
 30 31  1  0
 31 32  1  0
 32 33  1  0
 33 34  1  0
 33 43  1  0
 34 35  2  0
 34 39  1  0
 35 36  1  0
 36 37  2  0
 37 38  1  0
 38 39  2  0
 38 42  1  0
 39 40  1  0
 40 41  1  0
 41 42  2  0
 44 45  2  0
M  END
