
     RDKit          3D

 37 40  0  0  0  0  0  0  0  0999 V2000
   -9.0460    2.1940   -0.0970 C   0  0  0  0  0  0  0  0  0  0  0  0
   -7.9700    1.1820   -0.0000 C   0  0  0  0  0  0  0  0  0  0  0  0
   -6.6950    1.3630   -0.4990 C   0  0  0  0  0  0  0  0  0  0  0  0
   -5.7530    0.3570   -0.5000 C   0  0  0  0  0  0  0  0  0  0  0  0
   -4.4030    0.5390   -1.0420 C   0  0  0  0  0  0  0  0  0  0  0  0
   -3.7060    1.5810   -0.2230 N   0  0  0  0  0  0  0  0  0  0  0  0
   -2.4950    0.9120    0.2690 C   0  0  0  0  0  0  0  0  0  0  0  0
   -1.2450    1.5860   -0.1240 C   0  0  0  0  0  0  0  0  0  0  0  0
   -1.1410    2.6900   -0.6460 O   0  0  0  0  0  0  0  0  0  0  0  0
   -0.0580    0.7870    0.1300 N   0  0  0  0  0  0  0  0  0  0  0  0
    1.2330    1.1420   -0.2200 C   0  0  0  0  0  0  0  0  0  0  0  0
    2.2130    1.7670    0.4840 C   0  0  0  0  0  0  0  0  0  0  0  0
    3.5010    1.7890   -0.0620 C   0  0  0  0  0  0  0  0  0  0  0  0
    4.6780    1.7120    0.9510 C   0  0  0  0  0  0  0  0  0  0  0  0
    5.0560    2.5150    1.7160 O   0  0  0  0  0  0  0  0  0  0  0  0
    5.2810    0.4440    0.8510 N   0  0  0  0  0  0  0  0  0  0  0  0
    6.2210   -0.3630    1.4140 C   0  0  0  0  0  0  0  0  0  0  0  0
    6.1490   -1.1950    2.4910 C   0  0  0  0  0  0  0  0  0  0  0  0
    7.1050   -2.1730    2.6780 C   0  0  0  0  0  0  0  0  0  0  0  0
    8.1360   -2.3710    1.8500 N   0  0  0  0  0  0  0  0  0  0  0  0
    8.2570   -1.5640    0.7600 C   0  0  0  0  0  0  0  0  0  0  0  0
    9.2310   -1.7620   -0.0170 O   0  0  0  0  0  0  0  0  0  0  0  0
    7.3380   -0.6000    0.5600 C   0  0  0  0  0  0  0  0  0  0  0  0
    7.3950    0.3950   -0.5570 C   0  0  0  0  0  0  0  0  0  0  0  0
    8.6440    1.1160   -0.2780 N   0  0  0  0  0  0  0  0  0  0  0  0
    3.7980    1.2450   -1.2730 C   0  0  0  0  0  0  0  0  0  0  0  0
    2.7690    0.5830   -2.0150 C   0  0  0  0  0  0  0  0  0  0  0  0
    1.5620    0.5410   -1.4740 C   0  0  0  0  0  0  0  0  0  0  0  0
    0.4340   -0.3000   -2.0430 C   0  0  0  0  0  0  0  0  0  0  0  0
    0.8500   -1.6950   -1.6830 N   0  0  0  0  0  0  0  0  0  0  0  0
   -6.1590   -0.8530    0.0260 C   0  0  0  0  0  0  0  0  0  0  0  0
   -5.2200   -1.8500    0.0710 C   0  0  0  0  0  0  0  0  0  0  0  0
   -5.4880   -3.0800    0.6220 C   0  0  0  0  0  0  0  0  0  0  0  0
   -6.7450   -3.2940    1.1350 C   0  0  0  0  0  0  0  0  0  0  0  0
   -7.7040   -2.2890    1.0920 C   0  0  0  0  0  0  0  0  0  0  0  0
   -7.3980   -1.0700    0.5340 C   0  0  0  0  0  0  0  0  0  0  0  0
   -8.3250   -0.0380    0.5270 C   0  0  0  0  0  0  0  0  0  0  0  0
  1  2  1  0
  2  3  2  0
  2 37  1  0
  3  4  1  0
  4  5  1  0
  4 31  2  0
  5  6  1  0
  6  7  1  0
  7  8  1  0
  8  9  2  0
  8 10  1  0
 10 11  1  0
 11 12  2  0
 11 28  1  0
 12 13  1  0
 13 14  1  0
 13 26  2  0
 14 15  2  0
 14 16  1  0
 16 17  1  0
 17 18  1  0
 17 23  2  0
 18 19  2  0
 19 20  1  0
 20 21  1  0
 21 22  2  0
 21 23  1  0
 23 24  1  0
 24 25  1  0
 26 27  1  0
 27 28  2  0
 28 29  1  0
 29 30  1  0
 31 32  1  0
 31 36  1  0
 32 33  2  0
 33 34  1  0
 34 35  2  0
 35 36  1  0
 36 37  2  0
M  CHG  3   6   1  25   1  30   1
M  END
