
     RDKit          3D

 38 41  0  0  0  0  0  0  0  0999 V2000
   -5.7780   -4.5700   -1.0480 N   0  0  0  0  0  0  0  0  0  0  0  0
   -4.9340   -3.7240   -1.8710 C   0  0  0  0  0  0  0  0  0  0  0  0
   -5.3030   -2.2800   -1.6930 C   0  0  0  0  0  0  0  0  0  0  0  0
   -6.3050   -1.7410   -2.4860 C   0  0  0  0  0  0  0  0  0  0  0  0
   -6.6270   -0.4260   -2.2990 C   0  0  0  0  0  0  0  0  0  0  0  0
   -5.9790    0.3800   -1.3380 C   0  0  0  0  0  0  0  0  0  0  0  0
   -4.9920   -0.1440   -0.5550 C   0  0  0  0  0  0  0  0  0  0  0  0
   -4.3220    0.6040    0.4430 N   0  0  0  0  0  0  0  0  0  0  0  0
   -4.6890    1.8150    1.0120 C   0  0  0  0  0  0  0  0  0  0  0  0
   -5.7890    2.3350    0.6060 O   0  0  0  0  0  0  0  0  0  0  0  0
   -4.0010    2.5930    2.0220 C   0  0  0  0  0  0  0  0  0  0  0  0
   -4.8050    3.3540    2.8830 C   0  0  0  0  0  0  0  0  0  0  0  0
   -4.3150    4.0960    3.9260 C   0  0  0  0  0  0  0  0  0  0  0  0
   -2.9540    4.0970    4.1460 C   0  0  0  0  0  0  0  0  0  0  0  0
   -2.1630    3.3630    3.3180 C   0  0  0  0  0  0  0  0  0  0  0  0
   -2.6600    2.6060    2.2520 C   0  0  0  0  0  0  0  0  0  0  0  0
   -1.6930    1.8820    1.3950 C   0  0  0  0  0  0  0  0  0  0  0  0
   -1.7550    2.0550    0.1820 O   0  0  0  0  0  0  0  0  0  0  0  0
   -0.7700    1.0540    2.0140 N   0  0  0  0  0  0  0  0  0  0  0  0
    0.2450    0.2840    1.4530 C   0  0  0  0  0  0  0  0  0  0  0  0
    1.3910    0.8660    0.7130 C   0  0  2  0  0  0  0  0  0  0  0  0
    2.2250    1.8670    1.4330 C   0  0  0  0  0  0  0  0  0  0  0  0
    1.5860    3.0630    1.8830 N   0  0  0  0  0  0  0  0  0  0  0  0
    1.2990    0.9880   -0.7660 C   0  0  0  0  0  0  0  0  0  0  0  0
    2.4830    1.5600   -1.4030 C   0  0  0  0  0  0  0  0  0  0  0  0
    2.3580    2.7630   -1.8410 O   0  0  0  0  0  0  0  0  0  0  0  0
    3.7510    0.9960   -1.6100 N   0  0  0  0  0  0  0  0  0  0  0  0
    4.9320    1.6470   -2.2380 C   0  0  0  0  0  0  0  0  0  0  0  0
    5.9780    1.2550   -1.1830 C   0  0  0  0  0  0  0  0  0  0  0  0
    5.6130   -0.1960   -0.9900 C   0  0  0  0  0  0  0  0  0  0  0  0
    6.2830   -1.3400   -0.6320 C   0  0  0  0  0  0  0  0  0  0  0  0
    5.6590   -2.5670   -0.5520 C   0  0  0  0  0  0  0  0  0  0  0  0
    6.4280   -3.7870   -0.1530 C   0  0  0  0  0  0  0  0  0  0  0  0
    7.0760   -4.3230   -1.3560 N   0  0  0  0  0  0  0  0  0  0  0  0
    4.3190   -2.6720   -0.8360 C   0  0  0  0  0  0  0  0  0  0  0  0
    3.6400   -1.5290   -1.1950 C   0  0  0  0  0  0  0  0  0  0  0  0
    4.2620   -0.2960   -1.2770 C   0  0  0  0  0  0  0  0  0  0  0  0
   -4.6770   -1.4900   -0.7620 C   0  0  0  0  0  0  0  0  0  0  0  0
  1  2  1  0
  2  3  1  0
  3  4  2  0
  3 38  1  0
  4  5  1  0
  5  6  2  0
  6  7  1  0
  7  8  1  0
  7 38  2  0
  8  9  1  0
  9 10  2  0
  9 11  1  0
 11 12  2  0
 11 16  1  0
 12 13  1  0
 13 14  2  0
 14 15  1  0
 15 16  2  0
 16 17  1  0
 17 18  2  0
 17 19  1  0
 19 20  1  0
 21 20  1  1
 21 22  1  0
 21 24  1  0
 22 23  1  0
 24 25  1  0
 25 26  2  0
 25 27  1  0
 27 28  1  0
 27 37  1  0
 28 29  1  0
 29 30  1  0
 30 31  2  0
 30 37  1  0
 31 32  1  0
 32 33  1  0
 32 35  2  0
 33 34  1  0
 35 36  1  0
 36 37  2  0
M  CHG  3   1   1  23   1  34   1
M  END
