
     RDKit          3D

 38 41  0  0  0  0  0  0  0  0999 V2000
    2.7450   -3.0030   -1.2070 C   0  0  0  0  0  0  0  0  0  0  0  0
    2.5420   -2.3800    0.1610 C   0  0  2  0  0  0  0  0  0  0  0  0
    3.1090   -3.2770    1.2270 C   0  0  0  0  0  0  0  0  0  0  0  0
    1.1990   -1.9570    0.3860 N   0  0  0  0  0  0  0  0  0  0  0  0
    0.1810   -2.8980   -0.0680 C   0  0  1  0  0  0  0  0  0  0  0  0
   -0.0920   -3.9520    0.9660 C   0  0  0  0  0  0  0  0  0  0  0  0
   -1.1330   -4.9500    0.5500 C   0  0  0  0  0  0  0  0  0  0  0  0
   -0.7350   -5.6760   -0.7010 C   0  0  0  0  0  0  0  0  0  0  0  0
   -1.7740   -6.6350   -1.0490 N   0  0  0  0  0  0  0  0  0  0  0  0
   -1.1010   -2.1280   -0.2700 C   0  0  0  0  0  0  0  0  0  0  0  0
   -2.0170   -2.6720   -0.9200 O   0  0  0  0  0  0  0  0  0  0  0  0
   -1.3000   -0.8390    0.2390 N   0  0  0  0  0  0  0  0  0  0  0  0
   -2.4490   -0.0220    0.1110 C   0  0  0  0  0  0  0  0  0  0  0  0
   -2.4550    1.1720    0.8400 C   0  0  0  0  0  0  0  0  0  0  0  0
   -3.5100    2.0550    0.7950 C   0  0  0  0  0  0  0  0  0  0  0  0
   -4.6210    1.7980    0.0190 C   0  0  0  0  0  0  0  0  0  0  0  0
   -5.7440    2.7630   -0.0150 C   0  0  1  0  0  0  0  0  0  0  0  0
   -5.8360    3.4260   -1.3800 C   0  0  0  0  0  0  0  0  0  0  0  0
   -7.2710    3.8980   -1.3850 C   0  0  0  0  0  0  0  0  0  0  0  0
   -7.9520    3.1640   -0.2560 C   0  0  0  0  0  0  0  0  0  0  0  0
   -7.0280    2.1040    0.1080 N   0  0  0  0  0  0  0  0  0  0  0  0
   -4.6000    0.6230   -0.6900 C   0  0  0  0  0  0  0  0  0  0  0  0
   -3.5400   -0.2820   -0.6560 C   0  0  0  0  0  0  0  0  0  0  0  0
    3.4140   -1.1400    0.1510 C   0  0  0  0  0  0  0  0  0  0  0  0
    4.5870   -1.2800   -0.2510 O   0  0  0  0  0  0  0  0  0  0  0  0
    2.9560    0.1260    0.5680 N   0  0  0  0  0  0  0  0  0  0  0  0
    3.7130    1.3120    0.5740 C   0  0  0  0  0  0  0  0  0  0  0  0
    5.0110    1.4260    0.1580 C   0  0  0  0  0  0  0  0  0  0  0  0
    5.7090    2.6440    0.1830 C   0  0  0  0  0  0  0  0  0  0  0  0
    7.0140    2.7420   -0.2410 C   0  0  0  0  0  0  0  0  0  0  0  0
    7.7220    3.9320   -0.2280 C   0  0  0  0  0  0  0  0  0  0  0  0
    9.0510    3.9780   -0.6700 O   0  0  0  0  0  0  0  0  0  0  0  0
    7.0830    5.0630    0.2320 C   0  0  0  0  0  0  0  0  0  0  0  0
    5.7740    4.9890    0.6630 C   0  0  0  0  0  0  0  0  0  0  0  0
    5.0910    3.7850    0.6380 C   0  0  0  0  0  0  0  0  0  0  0  0
    3.7850    3.6990    1.0640 C   0  0  0  0  0  0  0  0  0  0  0  0
    3.1220    2.4800    1.0270 C   0  0  0  0  0  0  0  0  0  0  0  0
    1.7830    2.4280    1.4720 N   0  0  0  0  0  0  0  0  0  0  0  0
  2  1  1  6
  2  3  1  0
  2  4  1  0
  2 24  1  0
  4  5  1  0
  5  6  1  1
  5 10  1  0
  6  7  1  0
  7  8  1  0
  8  9  1  0
 10 11  2  0
 10 12  1  0
 12 13  1  0
 13 14  2  0
 13 23  1  0
 14 15  1  0
 15 16  2  0
 17 16  1  6
 16 22  1  0
 17 18  1  0
 17 21  1  0
 18 19  1  0
 19 20  1  0
 20 21  1  0
 22 23  2  0
 24 25  2  0
 24 26  1  0
 26 27  1  0
 27 28  2  0
 27 37  1  0
 28 29  1  0
 29 30  2  0
 29 35  1  0
 30 31  1  0
 31 32  1  0
 31 33  2  0
 33 34  1  0
 34 35  2  0
 35 36  1  0
 36 37  2  0
 37 38  1  0
M  CHG  3   4   1   9   1  21   1
M  END
