
     RDKit          3D

 38 40  0  0  0  0  0  0  0  0999 V2000
   -3.4490    3.6410   -2.3760 C   0  0  0  0  0  0  0  0  0  0  0  0
   -3.9200    2.3560   -1.8740 C   0  0  0  0  0  0  0  0  0  0  0  0
   -5.2310    1.9790   -1.9950 C   0  0  0  0  0  0  0  0  0  0  0  0
   -5.6900    0.8170   -1.4470 C   0  0  0  0  0  0  0  0  0  0  0  0
   -4.8810   -0.0150   -0.7520 C   0  0  0  0  0  0  0  0  0  0  0  0
   -5.2820   -1.2510   -0.1300 C   0  0  0  0  0  0  0  0  0  0  0  0
   -6.3400   -1.1580    0.8130 N   0  0  0  0  0  0  0  0  0  0  0  0
   -6.8040    0.0610    1.3360 C   0  0  2  0  0  0  0  0  0  0  0  0
   -7.6990    0.9830    0.6280 C   0  0  0  0  0  0  0  0  0  0  0  0
   -5.7850    0.7980    2.2200 C   0  0  0  0  0  0  0  0  0  0  0  0
   -6.3110    2.0470    2.7170 N   0  0  0  0  0  0  0  0  0  0  0  0
   -3.5330    0.3440   -0.6220 C   0  0  0  0  0  0  0  0  0  0  0  0
   -2.6670   -0.5980    0.0850 N   0  0  0  0  0  0  0  0  0  0  0  0
   -1.3580   -0.6430   -0.4210 C   0  0  0  0  0  0  0  0  0  0  0  0
   -1.0630    0.1870   -1.3990 O   0  0  0  0  0  0  0  0  0  0  0  0
   -0.2160   -1.4750   -0.0810 C   0  0  2  0  0  0  0  0  0  0  0  0
    0.5690   -1.2380    1.1290 C   0  0  0  0  0  0  0  0  0  0  0  0
    1.8530   -2.0390    0.9380 N   0  0  0  0  0  0  0  0  0  0  0  0
    2.9220   -1.2810    0.4680 C   0  0  0  0  0  0  0  0  0  0  0  0
    2.7350    0.0160    0.3930 O   0  0  0  0  0  0  0  0  0  0  0  0
    4.2430   -1.6940    0.0300 N   0  0  0  0  0  0  0  0  0  0  0  0
    5.0940   -0.5110   -0.0480 C   0  0  0  0  0  0  0  0  0  0  0  0
    6.0620   -0.2870    0.8940 C   0  0  0  0  0  0  0  0  0  0  0  0
    6.7910    0.9100    0.9610 C   0  0  0  0  0  0  0  0  0  0  0  0
    7.9540    0.9530    1.8820 C   0  0  0  0  0  0  0  0  0  0  0  0
    9.2140    1.5220    1.2370 C   0  0  0  0  0  0  0  0  0  0  0  0
    9.5270    1.0410   -0.0570 N   0  0  0  0  0  0  0  0  0  0  0  0
    6.5420    1.9050    0.0670 C   0  0  0  0  0  0  0  0  0  0  0  0
    7.0710    3.3100    0.1840 C   0  0  0  0  0  0  0  0  0  0  0  0
    5.5590    1.6760   -0.9060 C   0  0  0  0  0  0  0  0  0  0  0  0
    4.8480    0.4880   -0.9720 C   0  0  0  0  0  0  0  0  0  0  0  0
    3.8740    0.2320   -1.9410 O   0  0  0  0  0  0  0  0  0  0  0  0
    0.4370   -1.8750   -1.3700 C   0  0  0  0  0  0  0  0  0  0  0  0
   -0.6380   -2.6030   -2.1990 C   0  0  0  0  0  0  0  0  0  0  0  0
   -0.8560   -4.0140   -1.7540 C   0  0  0  0  0  0  0  0  0  0  0  0
   -0.3410   -4.0230   -0.2900 C   0  0  0  0  0  0  0  0  0  0  0  0
   -0.9420   -2.8620    0.3700 C   0  0  0  0  0  0  0  0  0  0  0  0
   -3.0560    1.4730   -1.1520 C   0  0  0  0  0  0  0  0  0  0  0  0
  1  2  1  0
  2  3  2  0
  2 38  1  0
  3  4  1  0
  4  5  2  0
  5  6  1  0
  5 12  1  0
  6  7  1  0
  7  8  1  0
  8  9  1  6
  8 10  1  0
 10 11  1  0
 12 13  1  0
 12 38  2  0
 13 14  1  0
 14 15  2  0
 14 16  1  0
 16 17  1  1
 16 33  1  0
 16 37  1  0
 17 18  1  0
 18 19  1  0
 19 20  2  0
 19 21  1  0
 21 22  1  0
 22 23  2  0
 22 31  1  0
 23 24  1  0
 24 25  1  0
 24 28  2  0
 25 26  1  0
 26 27  1  0
 28 29  1  0
 28 30  1  0
 30 31  2  0
 31 32  1  0
 33 34  1  0
 34 35  1  0
 35 36  1  0
 36 37  1  0
M  CHG  3   7   1  11   1  27   1
M  END
