
     RDKit          3D

 35 38  0  0  0  0  0  0  0  0999 V2000
   -4.2670    0.7290    1.1540 C   0  0  0  0  0  0  0  0  0  0  0  0
   -3.5210    0.5030   -0.1830 C   0  0  0  0  0  0  0  0  0  0  0  0
   -2.9430    1.5540   -0.7400 C   0  0  0  0  0  0  0  0  0  0  0  0
   -2.1630    1.9030   -1.8880 C   0  0  0  0  0  0  0  0  0  0  0  0
   -1.0600    2.6110   -2.1380 C   0  0  0  0  0  0  0  0  0  0  0  0
   -0.1170    3.3810   -1.3220 C   0  0  0  0  0  0  0  0  0  0  0  0
    1.2710    3.5230   -1.8540 C   0  0  0  0  0  0  0  0  0  0  0  0
    2.3820    3.2200   -0.8220 C   0  0  0  0  0  0  0  0  0  0  0  0
    3.2850    2.1400   -1.2950 C   0  0  0  0  0  0  0  0  0  0  0  0
    4.0570    1.2760   -0.4030 C   0  0  1  0  0  0  0  0  0  0  0  0
    5.0590    2.1120    0.3430 C   0  0  0  0  0  0  0  0  0  0  0  0
    5.8820    1.4410    1.2050 O   0  0  0  0  0  0  0  0  0  0  0  0
    3.4270    0.1620    0.3960 C   0  0  1  0  0  0  0  0  0  0  0  0
    3.0200    0.5480    1.7820 C   0  0  0  0  0  0  0  0  0  0  0  0
    2.6470   -0.4410    2.7680 C   0  0  1  0  0  0  0  0  0  0  0  0
    1.8400    0.3250    3.8500 C   0  0  0  0  0  0  0  0  0  0  0  0
    1.9150   -1.6730    2.4940 C   0  0  0  0  0  0  0  0  0  0  0  0
    0.6080   -1.6350    1.7970 C   0  0  1  0  0  0  0  0  0  0  0  0
   -0.0740   -0.4800    2.1250 O   0  0  0  0  0  0  0  0  0  0  0  0
    0.6150   -1.8760    0.3450 C   0  0  2  0  0  0  0  0  0  0  0  0
   -0.3950   -2.9210   -0.1350 C   0  0  0  0  0  0  0  0  0  0  0  0
   -1.7300   -2.3360    0.1040 C   0  0  0  0  0  0  0  0  0  0  0  0
   -2.6090   -1.7970   -0.9200 C   0  0  1  0  0  0  0  0  0  0  0  0
   -3.4380   -3.0380   -1.3560 C   0  0  0  0  0  0  0  0  0  0  0  0
   -4.6630   -3.0020   -0.4940 C   0  0  0  0  0  0  0  0  0  0  0  0
   -4.5620   -1.7110    0.3240 C   0  0  0  0  0  0  0  0  0  0  0  0
   -3.7070   -0.8880   -0.6030 C   0  0  1  0  0  0  0  0  0  0  0  0
   -4.5750   -0.8780   -1.8760 C   0  0  0  0  0  0  0  0  0  0  0  0
   -4.0600   -0.9780   -3.0150 O   0  0  0  0  0  0  0  0  0  0  0  0
   -5.9450   -0.7550   -1.8020 O   0  0  0  0  0  0  0  0  0  0  0  0
    1.9820   -1.8870   -0.2830 C   0  0  0  0  0  0  0  0  0  0  0  0
    2.3830   -0.4600   -0.4420 C   0  0  1  0  0  0  0  0  0  0  0  0
    1.1220    0.3320   -0.3760 C   0  0  0  0  0  0  0  0  0  0  0  0
    0.0840   -0.7340   -0.5180 C   0  0  1  0  0  0  0  0  0  0  0  0
    0.3010   -1.1720   -1.8670 O   0  0  0  0  0  0  0  0  0  0  0  0
  1  2  1  0
  2  3  2  0
  2 27  1  0
  3  4  1  0
  4  5  2  0
  5  6  1  0
  6  7  1  0
  7  8  1  0
  8  9  1  0
  9 10  1  0
 10 11  1  1
 10 13  1  0
 11 12  1  0
 13 14  1  1
 13 32  1  0
 14 15  1  0
 15 16  1  1
 15 17  1  0
 17 18  1  0
 18 19  1  6
 18 20  1  0
 20 21  1  1
 20 31  1  0
 20 34  1  0
 21 22  1  0
 23 22  1  1
 23 24  1  0
 23 27  1  0
 24 25  1  0
 25 26  1  0
 26 27  1  0
 27 28  1  6
 28 29  2  0
 28 30  1  0
 31 32  1  0
 32 33  1  1
 33 34  1  0
 34 35  1  6
M  END
