
     RDKit          3D

 34 37  0  0  0  0  0  0  0  0999 V2000
    4.3600    2.4320   -0.8780 C   0  0  0  0  0  0  0  0  0  0  0  0
    4.0340    0.9980   -1.3070 C   0  0  0  0  0  0  0  0  0  0  0  0
    4.8240    0.1230   -0.4990 N   0  0  0  0  0  0  0  0  0  0  0  0
    6.2580    0.0800   -0.6430 C   0  0  0  0  0  0  0  0  0  0  0  0
    6.5360   -0.2840   -1.9530 F   0  0  0  0  0  0  0  0  0  0  0  0
    4.2170   -0.7350    0.4730 C   0  0  0  0  0  0  0  0  0  0  0  0
    4.2950   -2.0080    0.3290 N   0  0  0  0  0  0  0  0  0  0  0  0
    3.5260   -0.1990    1.6030 N   0  0  0  0  0  0  0  0  0  0  0  0
    2.8640   -1.0380    2.5780 C   0  0  0  0  0  0  0  0  0  0  0  0
    1.7690   -1.8270    1.9470 C   0  0  0  0  0  0  0  0  0  0  0  0
    1.3040   -3.0000    2.5390 C   0  0  0  0  0  0  0  0  0  0  0  0
    0.2890   -3.7190    1.9500 C   0  0  0  0  0  0  0  0  0  0  0  0
   -0.2620   -3.2780    0.7800 C   0  0  0  0  0  0  0  0  0  0  0  0
    0.1820   -2.1340    0.1890 C   0  0  0  0  0  0  0  0  0  0  0  0
   -0.5190   -1.5690   -1.3250 S   0  0  1  0  0  0  0  0  0  0  0  0
    0.5220   -0.7230   -2.0380 O   0  0  0  0  0  0  0  0  0  0  0  0
   -0.7360   -2.7800   -2.2220 O   0  0  0  0  0  0  0  0  0  0  0  0
   -1.9220   -0.6520   -1.1410 N   0  0  0  0  0  0  0  0  0  0  0  0
   -2.2440    0.2040   -0.2730 C   0  0  0  0  0  0  0  0  0  0  0  0
   -1.3820    0.6180    0.8640 C   0  0  0  0  0  0  0  0  0  0  0  0
   -2.0420    1.7540    1.6330 C   0  0  0  0  0  0  0  0  0  0  0  0
   -3.4960    1.3820    1.9510 C   0  0  0  0  0  0  0  0  0  0  0  0
   -4.2280    1.3930    0.6340 C   0  0  0  0  0  0  0  0  0  0  0  0
   -5.4160    1.8560    0.2140 N   0  0  0  0  0  0  0  0  0  0  0  0
   -5.5380    1.5800   -1.1030 C   0  0  0  0  0  0  0  0  0  0  0  0
   -6.5570    1.8380   -2.0140 C   0  0  0  0  0  0  0  0  0  0  0  0
   -6.4670    1.4600   -3.3370 C   0  0  0  0  0  0  0  0  0  0  0  0
   -7.4750    1.7190   -4.2210 F   0  0  0  0  0  0  0  0  0  0  0  0
   -5.3110    0.8010   -3.7520 C   0  0  0  0  0  0  0  0  0  0  0  0
   -5.2450    0.3410   -5.4450 Cl  0  0  0  0  0  0  0  0  0  0  0  0
   -4.2940    0.5380   -2.8620 C   0  0  0  0  0  0  0  0  0  0  0  0
   -4.3990    0.9220   -1.5470 C   0  0  0  0  0  0  0  0  0  0  0  0
   -3.5770    0.8110   -0.4270 C   0  0  0  0  0  0  0  0  0  0  0  0
    1.1930   -1.4110    0.7690 C   0  0  0  0  0  0  0  0  0  0  0  0
  1  2  1  0
  2  3  1  0
  3  4  1  0
  3  6  1  0
  4  5  1  0
  6  7  2  0
  6  8  1  0
  8  9  1  0
  9 10  1  0
 10 11  2  0
 10 34  1  0
 11 12  1  0
 12 13  2  0
 13 14  1  0
 14 15  1  0
 14 34  2  0
 15 16  2  0
 15 17  2  0
 15 18  1  1
 18 19  2  3
 19 20  1  0
 19 33  1  0
 20 21  1  0
 21 22  1  0
 22 23  1  0
 23 24  1  0
 23 33  2  0
 24 25  1  0
 25 26  2  0
 25 32  1  0
 26 27  1  0
 27 28  1  0
 27 29  2  0
 29 30  1  0
 29 31  1  0
 31 32  2  0
 32 33  1  0
M  CHG  1   7   1
M  END
