
     RDKit          3D

 34 37  0  0  0  0  0  0  0  0999 V2000
    5.6560    0.2100   -3.3590 C   0  0  0  0  0  0  0  0  0  0  0  0
    4.5220    0.1260   -2.3570 C   0  0  2  0  0  0  0  0  0  0  0  0
    3.2830    0.6720   -3.0110 C   0  0  0  0  0  0  0  0  0  0  0  0
    4.8690    1.0360   -1.2070 C   0  0  0  0  0  0  0  0  0  0  0  0
    3.8210    1.0370   -0.1530 C   0  0  0  0  0  0  0  0  0  0  0  0
    3.8380    0.1580    0.9060 C   0  0  0  0  0  0  0  0  0  0  0  0
    2.8400    0.1940    1.8620 C   0  0  0  0  0  0  0  0  0  0  0  0
    1.7860    1.1010    1.8080 C   0  0  0  0  0  0  0  0  0  0  0  0
    0.5420    1.1160    3.0410 S   0  0  1  0  0  0  0  0  0  0  0  0
    1.1720    0.7000    4.3620 O   0  0  0  0  0  0  0  0  0  0  0  0
    0.0410    2.5170    3.2620 O   0  0  0  0  0  0  0  0  0  0  0  0
   -0.7000    0.0130    2.6750 N   0  0  0  0  0  0  0  0  0  0  0  0
   -1.4710    0.1700    1.4970 C   0  0  0  0  0  0  0  0  0  0  0  0
   -1.6850    1.3930    0.8890 C   0  0  0  0  0  0  0  0  0  0  0  0
   -2.4480    1.5250   -0.2490 C   0  0  0  0  0  0  0  0  0  0  0  0
   -3.0210    0.4060   -0.8070 C   0  0  0  0  0  0  0  0  0  0  0  0
   -2.8390   -0.8550   -0.2360 C   0  0  0  0  0  0  0  0  0  0  0  0
   -2.0540   -0.9340    0.9200 C   0  0  0  0  0  0  0  0  0  0  0  0
   -1.8640   -2.1970    1.4970 N   0  0  0  0  0  0  0  0  0  0  0  0
   -0.5510   -2.7640    1.6440 C   0  0  0  0  0  0  0  0  0  0  0  0
   -0.5380   -4.0710    0.8840 C   0  0  0  0  0  0  0  0  0  0  0  0
   -1.7000   -4.7700    0.9910 O   0  0  0  0  0  0  0  0  0  0  0  0
   -2.5640   -4.4390    1.9920 C   0  0  0  0  0  0  0  0  0  0  0  0
   -2.9840   -2.9790    1.9600 C   0  0  0  0  0  0  0  0  0  0  0  0
   -3.7780    0.5010   -1.9250 N   0  0  0  0  0  0  0  0  0  0  0  0
   -4.3530   -0.7010   -2.4670 C   0  0  0  0  0  0  0  0  0  0  0  0
   -3.9560    1.7150   -2.4760 C   0  0  0  0  0  0  0  0  0  0  0  0
   -4.6650    1.7970   -3.5230 O   0  0  0  0  0  0  0  0  0  0  0  0
   -3.3720    2.8220   -1.9000 C   0  0  0  0  0  0  0  0  0  0  0  0
   -3.5500    3.9500   -2.4300 O   0  0  0  0  0  0  0  0  0  0  0  0
   -2.6080    2.7490   -0.7750 N   0  0  0  0  0  0  0  0  0  0  0  0
   -2.0190    3.9370   -0.2120 C   0  0  0  0  0  0  0  0  0  0  0  0
    1.7650    1.9790    0.7540 C   0  0  0  0  0  0  0  0  0  0  0  0
    2.7800    1.9380   -0.2140 C   0  0  0  0  0  0  0  0  0  0  0  0
  2  1  1  6
  2  3  1  0
  2  4  1  0
  4  5  1  0
  5  6  2  0
  5 34  1  0
  6  7  1  0
  7  8  2  0
  8  9  1  0
  8 33  1  0
  9 10  2  0
  9 11  2  0
  9 12  1  6
 12 13  1  0
 13 14  2  0
 13 18  1  0
 14 15  1  0
 15 16  2  0
 15 31  1  0
 16 17  1  0
 16 25  1  0
 17 18  2  0
 18 19  1  0
 19 20  1  0
 19 24  1  0
 20 21  1  0
 21 22  1  0
 22 23  1  0
 23 24  1  0
 25 26  1  0
 25 27  1  0
 27 28  2  0
 27 29  1  0
 29 30  2  0
 29 31  1  0
 31 32  1  0
 33 34  2  0
M  END
