
     RDKit          3D

 35 37  0  0  0  0  0  0  0  0999 V2000
    0.6960   -2.0050   -2.2770 C   0  0  0  0  0  0  0  0  0  0  0  0
   -0.4910   -1.3670   -1.5490 C   0  0  1  0  0  0  0  0  0  0  0  0
   -1.4450   -2.2590   -1.2850 O   0  0  0  0  0  0  0  0  0  0  0  0
   -2.1200   -2.2790   -0.1180 C   0  0  2  0  0  0  0  0  0  0  0  0
   -1.1270   -2.0490    1.0350 C   0  0  0  0  0  0  0  0  0  0  0  0
   -0.7270   -0.6080    0.7320 C   0  0  0  0  0  0  0  0  0  0  0  0
    0.0250   -0.5830   -0.3290 C   0  0  0  0  0  0  0  0  0  0  0  0
    1.3270    0.0690   -0.5940 C   0  0  2  0  0  0  0  0  0  0  0  0
    2.2960    0.0730    0.5620 C   0  0  0  0  0  0  0  0  0  0  0  0
    3.5290    0.7450    0.1540 C   0  0  0  0  0  0  0  0  0  0  0  0
    4.6870    0.0720    0.1690 C   0  0  0  0  0  0  0  0  0  0  0  0
    4.6100   -1.3330    0.6100 C   0  0  0  0  0  0  0  0  0  0  0  0
    5.9420   -2.0350    0.6470 C   0  0  0  0  0  0  0  0  0  0  0  0
    6.9500   -1.1180    1.3020 C   0  0  0  0  0  0  0  0  0  0  0  0
    7.7950   -0.4470    0.2300 C   0  0  0  0  0  0  0  0  0  0  0  0
    6.9070    0.1190   -0.8660 C   0  0  2  0  0  0  0  0  0  0  0  0
    7.7260    1.0030   -1.6060 O   0  0  0  0  0  0  0  0  0  0  0  0
    5.8100    0.9390   -0.2760 C   0  0  0  0  0  0  0  0  0  0  0  0
    1.0460    1.4600   -1.1380 C   0  0  0  0  0  0  0  0  0  0  0  0
    0.3300    2.3540   -0.1800 C   0  0  0  0  0  0  0  0  0  0  0  0
   -0.9760    2.8710   -0.7710 C   0  0  2  0  0  0  0  0  0  0  0  0
   -0.7670    4.0760   -1.4140 O   0  0  0  0  0  0  0  0  0  0  0  0
   -2.0560    3.0440    0.2670 C   0  0  1  0  0  0  0  0  0  0  0  0
   -1.8250    4.3640    1.0120 C   0  0  0  0  0  0  0  0  0  0  0  0
   -2.7880    4.5800    1.9820 O   0  0  0  0  0  0  0  0  0  0  0  0
   -3.4140    3.0880   -0.4310 C   0  0  0  0  0  0  0  0  0  0  0  0
   -4.5310    2.7570    0.5050 C   0  0  0  0  0  0  0  0  0  0  0  0
   -5.2110    1.6360    0.5000 C   0  0  0  0  0  0  0  0  0  0  0  0
   -4.9970    0.4940   -0.4320 C   0  0  0  0  0  0  0  0  0  0  0  0
   -5.2330   -0.7910    0.3460 C   0  0  0  0  0  0  0  0  0  0  0  0
   -4.9830   -2.0340   -0.4360 C   0  0  2  0  0  0  0  0  0  0  0  0
   -6.2430   -2.4390   -0.9460 O   0  0  0  0  0  0  0  0  0  0  0  0
   -4.4290   -3.1610    0.3970 C   0  0  2  0  0  0  0  0  0  0  0  0
   -4.6740   -2.9350    1.8790 C   0  0  0  0  0  0  0  0  0  0  0  0
   -2.9790   -3.4770    0.1030 C   0  0  0  0  0  0  0  0  0  0  0  0
  2  1  1  1
  2  3  1  0
  2  7  1  0
  3  4  1  0
  4  5  1  1
  4 35  1  0
  5  6  1  0
  6  7  2  0
  7  8  1  0
  8  9  1  1
  8 19  1  0
  9 10  1  0
 10 11  2  3
 11 12  1  0
 11 18  1  0
 12 13  1  0
 13 14  1  0
 14 15  1  0
 15 16  1  0
 16 17  1  6
 16 18  1  0
 19 20  1  0
 20 21  1  0
 21 22  1  1
 21 23  1  0
 23 24  1  6
 23 26  1  0
 24 25  1  0
 26 27  1  0
 27 28  2  0
 28 29  1  0
 29 30  1  0
 30 31  1  0
 31 32  1  1
 31 33  1  0
 33 34  1  1
 33 35  1  0
M  END
