
     RDKit          3D

 34 37  0  0  0  0  0  0  0  0999 V2000
    6.1060   -1.5530    0.7250 C   0  0  0  0  0  0  0  0  0  0  0  0
    4.6120   -1.3030    0.7010 C   0  0  1  0  0  0  0  0  0  0  0  0
    4.3650   -0.0660   -0.1160 C   0  0  0  0  0  0  0  0  0  0  0  0
    2.9730    0.0920   -0.5940 C   0  0  2  0  0  0  0  0  0  0  0  0
    2.4050    1.4740   -0.4910 C   0  0  0  0  0  0  0  0  0  0  0  0
    2.5830    2.1560    0.7990 C   0  0  1  0  0  0  0  0  0  0  0  0
    3.4820    3.3900    0.6780 C   0  0  0  0  0  0  0  0  0  0  0  0
    2.7440    4.6070    0.2520 C   0  0  0  0  0  0  0  0  0  0  0  0
    1.3690    4.3520   -0.2910 C   0  0  0  0  0  0  0  0  0  0  0  0
    0.4990    3.5650    0.6600 C   0  0  1  0  0  0  0  0  0  0  0  0
   -0.6150    2.9030   -0.0960 C   0  0  0  0  0  0  0  0  0  0  0  0
   -1.9610    3.6010    0.1350 C   0  0  0  0  0  0  0  0  0  0  0  0
   -2.9100    2.7040    0.9100 C   0  0  0  0  0  0  0  0  0  0  0  0
   -4.1920    2.4460    0.1670 C   0  0  0  0  0  0  0  0  0  0  0  0
   -4.2040    1.1010   -0.5300 C   0  0  0  0  0  0  0  0  0  0  0  0
   -4.6530    0.0600    0.4370 C   0  0  2  0  0  0  0  0  0  0  0  0
   -6.1290    0.3550    0.7480 C   0  0  0  0  0  0  0  0  0  0  0  0
   -3.9920    0.1280    1.6630 O   0  0  0  0  0  0  0  0  0  0  0  0
   -4.5830   -1.3390   -0.0600 C   0  0  2  0  0  0  0  0  0  0  0  0
   -4.8500   -2.1880    1.0380 O   0  0  0  0  0  0  0  0  0  0  0  0
   -3.2780   -1.7480   -0.6400 C   0  0  0  0  0  0  0  0  0  0  0  0
   -2.6820   -2.9800    0.0250 C   0  0  1  0  0  0  0  0  0  0  0  0
   -3.0350   -4.1490   -0.6210 O   0  0  0  0  0  0  0  0  0  0  0  0
   -1.1880   -2.8040    0.0770 C   0  0  1  0  0  0  0  0  0  0  0  0
   -0.4910   -3.8650    0.8720 C   0  0  0  0  0  0  0  0  0  0  0  0
    0.9430   -3.3640    1.0930 C   0  0  0  0  0  0  0  0  0  0  0  0
    1.6330   -3.4100   -0.2400 C   0  0  1  0  0  0  0  0  0  0  0  0
    0.7110   -3.5200   -1.4060 C   0  0  0  0  0  0  0  0  0  0  0  0
   -0.5600   -2.7600   -1.2930 C   0  0  0  0  0  0  0  0  0  0  0  0
    2.6050   -2.2800   -0.4500 C   0  0  2  0  0  0  0  0  0  0  0  0
    3.9600   -2.5360    0.1400 C   0  0  0  0  0  0  0  0  0  0  0  0
    2.1110   -0.9600    0.0710 C   0  0  0  0  0  0  0  0  0  0  0  0
    1.3310    2.6350    1.4780 C   0  0  1  0  0  0  0  0  0  0  0  0
    0.6020    1.6140    2.0760 O   0  0  0  0  0  0  0  0  0  0  0  0
  2  1  1  6
  2  3  1  0
  2 31  1  0
  4  3  1  1
  4  5  1  0
  4 32  1  0
  6  5  1  6
  6  7  1  0
  6 33  1  0
  7  8  1  0
  8  9  1  0
 10  9  1  6
 10 11  1  0
 10 33  1  0
 11 12  1  0
 12 13  1  0
 13 14  1  0
 14 15  1  0
 15 16  1  0
 16 17  1  1
 16 18  1  0
 16 19  1  0
 19 20  1  1
 19 21  1  0
 21 22  1  0
 22 23  1  6
 22 24  1  0
 24 25  1  0
 24 29  1  6
 25 26  1  0
 26 27  1  0
 27 28  1  6
 27 30  1  0
 28 29  1  0
 30 31  1  1
 30 32  1  0
 33 34  1  6
M  END
