
     RDKit          3D

 34 37  0  0  0  0  0  0  0  0999 V2000
   -4.5180   -0.9860    2.2480 C   0  0  0  0  0  0  0  0  0  0  0  0
   -4.2460    0.4050    2.7170 C   0  0  2  0  0  0  0  0  0  0  0  0
   -4.2980    1.6420    1.3860 S   0  0  0  0  0  0  0  0  0  0  0  0
   -2.5170    1.4320    1.0330 C   0  0  2  0  0  0  0  0  0  0  0  0
   -2.2550    0.3370    0.0630 C   0  0  0  0  0  0  0  0  0  0  0  0
   -2.8320    0.4640   -1.2920 C   0  0  0  0  0  0  0  0  0  0  0  0
   -4.3070    0.5680   -1.4190 C   0  0  0  0  0  0  0  0  0  0  0  0
   -4.5850    0.6560   -2.8750 N   0  0  0  0  0  0  0  0  0  0  0  0
   -2.0060    1.0930    2.3750 C   0  0  0  0  0  0  0  0  0  0  0  0
   -2.8600    0.5860    3.2060 C   0  0  0  0  0  0  0  0  0  0  0  0
   -2.2290    0.3040    4.4610 N   0  0  0  0  0  0  0  0  0  0  0  0
   -0.8710    0.6730    4.3900 C   0  0  0  0  0  0  0  0  0  0  0  0
    0.0240    0.5890    5.2760 O   0  0  0  0  0  0  0  0  0  0  0  0
   -0.6870    1.2010    3.0210 C   0  0  0  0  0  0  0  0  0  0  0  0
    0.4370    1.6290    2.6480 N   0  0  0  0  0  0  0  0  0  0  0  0
    0.7110    2.1640    1.3840 C   0  0  0  0  0  0  0  0  0  0  0  0
    0.4110    3.4950    1.0660 C   0  0  0  0  0  0  0  0  0  0  0  0
    0.6880    4.0310   -0.1690 C   0  0  0  0  0  0  0  0  0  0  0  0
    1.2810    3.2580   -1.1440 C   0  0  0  0  0  0  0  0  0  0  0  0
    1.5770    1.9470   -0.8300 C   0  0  0  0  0  0  0  0  0  0  0  0
    2.2120    1.0930   -1.8430 C   0  0  0  0  0  0  0  0  0  0  0  0
    2.4550    1.6300   -2.9800 O   0  0  0  0  0  0  0  0  0  0  0  0
    2.5690   -0.2480   -1.6600 N   0  0  0  0  0  0  0  0  0  0  0  0
    3.2130   -0.9850   -2.7570 C   0  0  0  0  0  0  0  0  0  0  0  0
    4.3150   -1.8310   -2.1630 C   0  0  0  0  0  0  0  0  0  0  0  0
    4.0560   -2.5170   -1.0490 C   0  0  0  0  0  0  0  0  0  0  0  0
    5.0150   -3.3780   -0.3530 C   0  0  0  0  0  0  0  0  0  0  0  0
    6.3680   -3.4430   -1.0040 C   0  0  2  0  0  0  0  0  0  0  0  0
    7.1420   -4.3010   -0.2090 F   0  0  0  0  0  0  0  0  0  0  0  0
    6.9820   -2.2230   -0.9730 F   0  0  0  0  0  0  0  0  0  0  0  0
    6.3100   -4.1690   -2.6100 Cl  0  0  0  0  0  0  0  0  0  0  0  0
    2.6820   -2.3810   -0.5310 C   0  0  0  0  0  0  0  0  0  0  0  0
    2.3280   -0.9210   -0.4280 C   0  0  0  0  0  0  0  0  0  0  0  0
    1.2860    1.4760    0.3850 N   0  0  0  0  0  0  0  0  0  0  0  0
  2  1  1  6
  2  3  1  0
  2 10  1  0
  3  4  1  0
  4  5  1  6
  4  9  1  0
  5  6  1  0
  6  7  1  0
  7  8  1  0
  9 10  2  0
  9 14  1  0
 10 11  1  0
 11 12  1  0
 12 13  2  0
 12 14  1  0
 14 15  2  3
 15 16  1  0
 16 17  2  0
 16 34  1  0
 17 18  1  0
 18 19  2  0
 19 20  1  0
 20 21  1  0
 20 34  2  0
 21 22  2  0
 21 23  1  0
 23 24  1  0
 23 33  1  0
 24 25  1  0
 25 26  2  0
 26 27  1  0
 26 32  1  0
 27 28  1  0
 28 29  1  1
 28 30  1  0
 28 31  1  0
 32 33  1  0
M  CHG  1   8   1
M  END
