
     RDKit          3D

 35 39  0  0  0  0  0  0  0  0999 V2000
    3.4900    1.5820    2.3630 C   0  0  0  0  0  0  0  0  0  0  0  0
    2.9860    1.6390    0.9090 C   0  0  1  0  0  0  0  0  0  0  0  0
    1.9800    2.7200    0.8540 C   0  0  0  0  0  0  0  0  0  0  0  0
    4.2300    2.0480    0.1050 C   0  0  0  0  0  0  0  0  0  0  0  0
    5.3160    0.9970    0.2260 C   0  0  1  0  0  0  0  0  0  0  0  0
    6.4350    1.3690   -0.7220 C   0  0  0  0  0  0  0  0  0  0  0  0
    5.8450    0.9560    1.4980 O   0  0  0  0  0  0  0  0  0  0  0  0
    4.8210   -0.3690   -0.1900 C   0  0  0  0  0  0  0  0  0  0  0  0
    3.4050   -0.1900   -0.6940 C   0  0  2  0  0  0  0  0  0  0  0  0
    2.5950    0.2940    0.5150 C   0  0  2  0  0  0  0  0  0  0  0  0
    1.1850    0.0650    0.0480 C   0  0  2  0  0  0  0  0  0  0  0  0
    0.3240   -0.0290    1.2390 C   0  0  0  0  0  0  0  0  0  0  0  0
   -1.1290   -0.2390    1.1010 C   0  0  1  0  0  0  0  0  0  0  0  0
   -1.8010    0.8600    0.3030 C   0  0  0  0  0  0  0  0  0  0  0  0
   -3.2110    0.5560   -0.1050 C   0  0  1  0  0  0  0  0  0  0  0  0
   -3.9210    1.7830    0.0930 O   0  0  0  0  0  0  0  0  0  0  0  0
   -3.2730    0.3130   -1.5470 C   0  0  2  0  0  0  0  0  0  0  0  0
   -2.8400    1.6270   -2.2350 C   0  0  0  0  0  0  0  0  0  0  0  0
   -4.1230    2.3240   -2.6280 C   0  0  0  0  0  0  0  0  0  0  0  0
   -5.1320    1.3480   -2.4510 O   0  0  0  0  0  0  0  0  0  0  0  0
   -4.5530    0.1110   -2.2010 C   0  0  0  0  0  0  0  0  0  0  0  0
   -5.0820   -0.9750   -2.5070 O   0  0  0  0  0  0  0  0  0  0  0  0
   -3.8440   -0.3780    0.8610 C   0  0  1  0  0  0  0  0  0  0  0  0
   -3.9810    0.4510    2.1580 C   0  0  0  0  0  0  0  0  0  0  0  0
   -5.2680   -0.7400    0.4930 C   0  0  0  0  0  0  0  0  0  0  0  0
   -3.1180   -1.6660    1.1150 C   0  0  2  0  0  0  0  0  0  0  0  0
   -3.6450   -2.8430    0.3020 C   0  0  0  0  0  0  0  0  0  0  0  0
   -3.2370   -2.1090    2.5680 C   0  0  0  0  0  0  0  0  0  0  0  0
   -1.6230   -1.5980    0.7900 C   0  0  2  0  0  0  0  0  0  0  0  0
   -1.0070   -2.4970    1.6950 O   0  0  0  0  0  0  0  0  0  0  0  0
    1.3050   -1.2620   -0.6610 C   0  0  1  0  0  0  0  0  0  0  0  0
    0.8000   -1.1870   -2.0860 C   0  0  0  0  0  0  0  0  0  0  0  0
    1.5710   -2.2250   -2.8690 C   0  0  0  0  0  0  0  0  0  0  0  0
    2.9390   -2.0900   -2.2720 C   0  0  0  0  0  0  0  0  0  0  0  0
    2.7780   -1.5200   -0.9050 C   0  0  1  0  0  0  0  0  0  0  0  0
  2  1  1  1
  2  3  1  0
  2  4  1  0
 10  2  1  6
  4  5  1  0
  5  6  1  6
  5  7  1  0
  5  8  1  0
  9  8  1  1
  9 10  1  0
  9 35  1  0
 10 11  1  0
 11 12  1  1
 11 31  1  0
 13 12  1  6
 13 14  1  0
 13 29  1  0
 14 15  1  0
 15 16  1  6
 15 17  1  0
 15 23  1  0
 17 18  1  6
 17 21  1  0
 18 19  1  0
 19 20  1  0
 20 21  1  0
 21 22  2  0
 23 24  1  1
 23 25  1  0
 23 26  1  0
 26 27  1  6
 26 28  1  0
 26 29  1  0
 29 30  1  1
 31 32  1  6
 31 35  1  0
 32 33  1  0
 33 34  1  0
 35 34  1  6
M  END
