
     RDKit          3D

 34 37  0  0  0  0  0  0  0  0999 V2000
   -2.8290   -4.4860    1.2050 C   0  0  0  0  0  0  0  0  0  0  0  0
   -1.2140   -3.7610    0.9520 S   0  0  0  0  0  0  0  0  0  0  0  0
   -0.5140   -4.3610   -0.2440 O   0  0  0  0  0  0  0  0  0  0  0  0
   -1.2690   -2.0240    0.8920 N   0  0  0  0  0  0  0  0  0  0  0  0
   -1.7590   -1.3240   -0.2210 C   0  0  0  0  0  0  0  0  0  0  0  0
   -2.6120   -1.9290   -1.0330 C   0  0  0  0  0  0  0  0  0  0  0  0
   -3.1530   -1.1830   -2.2380 C   0  0  2  0  0  0  0  0  0  0  0  0
   -4.2480   -1.8110   -2.7550 F   0  0  0  0  0  0  0  0  0  0  0  0
   -2.1820   -1.0770   -3.1870 F   0  0  0  0  0  0  0  0  0  0  0  0
   -3.5500    0.1670   -1.6790 C   0  0  0  0  0  0  0  0  0  0  0  0
   -4.7070    0.7550   -1.9400 N   0  0  0  0  0  0  0  0  0  0  0  0
   -5.0680    1.9370   -1.3760 C   0  0  0  0  0  0  0  0  0  0  0  0
   -4.2240    2.5630   -0.5050 C   0  0  0  0  0  0  0  0  0  0  0  0
   -3.0020    1.9690   -0.2140 C   0  0  0  0  0  0  0  0  0  0  0  0
   -2.6650    0.7890   -0.7920 C   0  0  0  0  0  0  0  0  0  0  0  0
   -1.3550    0.0700   -0.5880 C   0  0  1  0  0  0  0  0  0  0  0  0
   -0.5430    0.7580    0.2710 N   0  0  0  0  0  0  0  0  0  0  0  0
    0.5880    0.7850    0.7940 C   0  0  0  0  0  0  0  0  0  0  0  0
    0.7850    1.9140    1.7010 N   0  0  0  0  0  0  0  0  0  0  0  0
    0.4120    3.2080    1.3130 C   0  0  0  0  0  0  0  0  0  0  0  0
    0.3170    4.2610    2.2300 C   0  0  0  0  0  0  0  0  0  0  0  0
   -0.0160    5.5220    1.8370 C   0  0  0  0  0  0  0  0  0  0  0  0
   -0.2730    5.8180    0.5220 C   0  0  0  0  0  0  0  0  0  0  0  0
   -0.7050    7.4620    0.0210 Cl  0  0  0  0  0  0  0  0  0  0  0  0
   -0.1880    4.8020   -0.4050 C   0  0  0  0  0  0  0  0  0  0  0  0
    0.1500    3.5340    0.0160 C   0  0  0  0  0  0  0  0  0  0  0  0
    1.7140   -0.1170    0.6180 C   0  0  0  0  0  0  0  0  0  0  0  0
    2.7810    0.0910    1.2800 O   0  0  0  0  0  0  0  0  0  0  0  0
    1.6760   -1.2060   -0.2550 N   0  0  0  0  0  0  0  0  0  0  0  0
    2.8430   -2.0660   -0.3740 C   0  0  0  0  0  0  0  0  0  0  0  0
    4.0710   -1.3660   -0.8590 C   0  0  0  0  0  0  0  0  0  0  0  0
    5.1770   -2.4230   -0.9230 C   0  0  2  0  0  0  0  0  0  0  0  0
    5.4670   -3.0670    0.4240 C   0  0  0  0  0  0  0  0  0  0  0  0
    6.4710   -2.1980   -0.2760 C   0  0  0  0  0  0  0  0  0  0  0  0
  2  1  1  6
  2  3  2  0
  2  4  1  0
  4  5  1  0
  5  6  2  0
  5 16  1  0
  6  7  1  0
  7  8  1  6
  7  9  1  0
  7 10  1  0
 10 11  2  0
 10 15  1  0
 11 12  1  0
 12 13  2  0
 13 14  1  0
 14 15  2  0
 15 16  1  0
 16 17  1  1
 17 18  2  3
 18 19  1  0
 18 27  1  0
 19 20  1  0
 20 21  2  0
 20 26  1  0
 21 22  1  0
 22 23  2  0
 23 24  1  0
 23 25  1  0
 25 26  2  0
 27 28  2  0
 27 29  1  0
 29 30  1  0
 30 31  1  0
 32 31  1  1
 32 33  1  0
 32 34  1  0
 33 34  1  0
M  CHG  1  11   1
M  END
