
     RDKit          3D

 29 32  0  0  0  0  0  0  0  0999 V2000
   -3.7350   -3.5570   -1.8010 C   0  0  0  0  0  0  0  0  0  0  0  0
   -2.5760   -2.8500   -1.3510 N   0  0  0  0  0  0  0  0  0  0  0  0
   -2.5770   -1.4770   -1.0100 C   0  0  0  0  0  0  0  0  0  0  0  0
   -3.6220   -0.8300   -1.0960 O   0  0  0  0  0  0  0  0  0  0  0  0
   -1.3280   -0.7800   -0.5410 C   0  0  0  0  0  0  0  0  0  0  0  0
   -1.6290    0.5980   -0.1360 C   0  0  1  0  0  0  0  0  0  0  0  0
   -2.5720    0.6050    1.0430 C   0  0  0  0  0  0  0  0  0  0  0  0
   -3.1760    1.9100    1.0150 O   0  0  0  0  0  0  0  0  0  0  0  0
   -2.2800    2.9810    1.1360 C   0  0  0  0  0  0  0  0  0  0  0  0
   -2.7080    4.1440    1.7580 C   0  0  0  0  0  0  0  0  0  0  0  0
   -1.8190    5.1820    1.8730 C   0  0  0  0  0  0  0  0  0  0  0  0
   -2.2130    6.3250    2.4750 F   0  0  0  0  0  0  0  0  0  0  0  0
   -0.5540    5.0660    1.3880 C   0  0  0  0  0  0  0  0  0  0  0  0
   -0.1610    3.8800    0.7670 C   0  0  0  0  0  0  0  0  0  0  0  0
   -1.0030    2.8050    0.6180 C   0  0  0  0  0  0  0  0  0  0  0  0
   -0.5990    1.5760   -0.0240 N   0  0  0  0  0  0  0  0  0  0  0  0
    0.6730    1.5110   -0.6190 C   0  0  0  0  0  0  0  0  0  0  0  0
    1.0490    2.5610   -1.3180 O   0  0  0  0  0  0  0  0  0  0  0  0
    1.6600    0.4760   -0.5970 C   0  0  0  0  0  0  0  0  0  0  0  0
    2.6950    0.4810   -1.4950 C   0  0  0  0  0  0  0  0  0  0  0  0
    3.6930   -0.4480   -1.4470 C   0  0  0  0  0  0  0  0  0  0  0  0
    3.6690   -1.4250   -0.4710 C   0  0  0  0  0  0  0  0  0  0  0  0
    2.6630   -1.4830    0.4560 C   0  0  0  0  0  0  0  0  0  0  0  0
    1.6630   -0.5010    0.3600 C   0  0  0  0  0  0  0  0  0  0  0  0
    2.6160   -2.4730    1.4740 N   0  0  0  0  0  0  0  0  0  0  0  0
    3.6720   -3.4270    1.5030 C   0  0  0  0  0  0  0  0  0  0  0  0
    3.6040   -4.5020    2.1450 O   0  0  0  0  0  0  0  0  0  0  0  0
    4.9420   -3.1630    0.7400 C   0  0  0  0  0  0  0  0  0  0  0  0
    4.6820   -2.3870   -0.4060 O   0  0  0  0  0  0  0  0  0  0  0  0
  1  2  1  0
  2  3  1  0
  3  4  2  0
  3  5  1  0
  6  5  1  1
  6  7  1  0
  6 16  1  0
  7  8  1  0
  8  9  1  0
  9 10  2  0
  9 15  1  0
 10 11  1  0
 11 12  1  0
 11 13  2  0
 13 14  1  0
 14 15  2  0
 15 16  1  0
 16 17  1  0
 17 18  2  0
 17 19  1  0
 19 20  2  0
 19 24  1  0
 20 21  1  0
 21 22  2  0
 22 23  1  0
 22 29  1  0
 23 24  2  0
 23 25  1  0
 25 26  1  0
 26 27  2  0
 26 28  1  0
 28 29  1  0
M  END
