
     RDKit          3D

 29 32  0  0  0  0  0  0  0  0999 V2000
    3.8480   -0.1650    2.5810 C   0  0  0  0  0  0  0  0  0  0  0  0
    3.8790   -0.0740    1.0860 C   0  0  0  0  0  0  0  0  0  0  0  0
    4.9510   -0.4900    0.4740 C   0  0  0  0  0  0  0  0  0  0  0  0
    5.0860   -0.4440   -0.9920 C   0  0  0  0  0  0  0  0  0  0  0  0
    6.3120   -0.9230   -1.6750 C   0  0  0  0  0  0  0  0  0  0  0  0
    4.1010    0.0260   -1.6480 N   0  0  0  0  0  0  0  0  0  0  0  0
    2.9130    0.4950   -1.0580 C   0  0  0  0  0  0  0  0  0  0  0  0
    1.9790    0.9570   -1.8260 O   0  0  0  0  0  0  0  0  0  0  0  0
    2.7220    0.4670    0.4060 C   0  0  1  0  0  0  0  0  0  0  0  0
    1.2160   -0.5170    0.7260 S   0  0  0  0  0  0  0  0  0  0  0  0
   -0.1780    0.4130    0.1070 C   0  0  0  0  0  0  0  0  0  0  0  0
   -0.0710    1.6270   -0.4520 N   0  0  0  0  0  0  0  0  0  0  0  0
   -1.0800    2.3620   -0.9320 C   0  0  0  0  0  0  0  0  0  0  0  0
   -0.8480    3.6020   -1.4860 C   0  0  0  0  0  0  0  0  0  0  0  0
   -1.8840    4.3500   -1.9740 C   0  0  0  0  0  0  0  0  0  0  0  0
   -1.5690    5.9220   -2.6730 Cl  0  0  0  0  0  0  0  0  0  0  0  0
   -3.1620    3.8180   -1.8920 C   0  0  0  0  0  0  0  0  0  0  0  0
   -3.3940    2.5640   -1.3320 C   0  0  0  0  0  0  0  0  0  0  0  0
   -2.3470    1.8240   -0.8460 C   0  0  0  0  0  0  0  0  0  0  0  0
   -2.4870    0.6130   -0.2910 N   0  0  0  0  0  0  0  0  0  0  0  0
   -1.4760   -0.1160    0.1870 C   0  0  0  0  0  0  0  0  0  0  0  0
   -1.6230   -1.3680    0.7950 N   0  0  0  0  0  0  0  0  0  0  0  0
   -2.8820   -2.0010    0.8960 C   0  0  0  0  0  0  0  0  0  0  0  0
   -3.0280   -2.9560    1.8890 C   0  0  0  0  0  0  0  0  0  0  0  0
   -4.1890   -3.6350    2.0460 C   0  0  0  0  0  0  0  0  0  0  0  0
   -5.2870   -3.4210    1.2380 C   0  0  0  0  0  0  0  0  0  0  0  0
   -5.1360   -2.4640    0.2440 C   0  0  0  0  0  0  0  0  0  0  0  0
   -6.4990   -2.1400   -0.8250 Cl  0  0  0  0  0  0  0  0  0  0  0  0
   -3.9530   -1.7660    0.0770 C   0  0  0  0  0  0  0  0  0  0  0  0
  1  2  1  0
  2  3  2  0
  2  9  1  0
  3  4  1  0
  4  5  1  0
  4  6  2  0
  6  7  1  0
  7  8  2  0
  7  9  1  0
  9 10  1  6
 10 11  1  0
 11 12  2  0
 11 21  1  0
 12 13  1  0
 13 14  2  0
 13 19  1  0
 14 15  1  0
 15 16  1  0
 15 17  2  0
 17 18  1  0
 18 19  2  0
 19 20  1  0
 20 21  2  0
 21 22  1  0
 22 23  1  0
 23 24  2  0
 23 29  1  0
 24 25  1  0
 25 26  2  0
 26 27  1  0
 27 28  1  0
 27 29  2  0
M  END
