
     RDKit          3D

 29 33  0  0  0  0  0  0  0  0999 V2000
    6.3130    2.2110   -1.0390 N   0  0  0  0  0  0  0  0  0  0  0  0
    5.8890    0.8770   -0.8210 C   0  0  0  0  0  0  0  0  0  0  0  0
    6.7790   -0.1250   -0.6880 N   0  0  0  0  0  0  0  0  0  0  0  0
    6.3530   -1.3770   -0.4830 N   0  0  0  0  0  0  0  0  0  0  0  0
    5.0520   -1.6960   -0.3990 C   0  0  0  0  0  0  0  0  0  0  0  0
    4.7030   -2.8880   -0.2050 O   0  0  0  0  0  0  0  0  0  0  0  0
    4.0650   -0.7080   -0.5270 C   0  0  0  0  0  0  0  0  0  0  0  0
    2.7670   -1.0110   -0.4470 N   0  0  0  0  0  0  0  0  0  0  0  0
    1.8360   -0.0670   -0.5700 C   0  0  0  0  0  0  0  0  0  0  0  0
    0.4270   -0.2640   -0.5100 N   0  0  0  0  0  0  0  0  0  0  0  0
   -0.3860    0.8020   -0.0060 C   0  0  0  0  0  0  0  0  0  0  0  0
   -1.7800    0.4850    0.3020 C   0  0  0  0  0  0  0  0  0  0  0  0
   -2.3460   -0.6350   -0.0470 C   0  0  0  0  0  0  0  0  0  0  0  0
   -3.7930   -0.9370    0.2770 C   0  0  0  0  0  0  0  0  0  0  0  0
   -4.1220   -0.1350    1.5370 C   0  0  0  0  0  0  0  0  0  0  0  0
   -3.8980    1.2310    1.2410 N   0  0  0  0  0  0  0  0  0  0  0  0
   -4.5510    2.1140    2.1550 C   0  0  0  0  0  0  0  0  0  0  0  0
   -6.0350    2.0930    2.0000 C   0  0  0  0  0  0  0  0  0  0  0  0
   -6.6240    2.9810    2.9000 F   0  0  0  0  0  0  0  0  0  0  0  0
   -2.5260    1.5640    1.0400 C   0  0  0  0  0  0  0  0  0  0  0  0
   -1.5590   -1.6910   -0.7010 C   0  0  0  0  0  0  0  0  0  0  0  0
   -2.1620   -2.8720   -1.1190 C   0  0  0  0  0  0  0  0  0  0  0  0
   -1.4120   -3.8500   -1.7600 C   0  0  0  0  0  0  0  0  0  0  0  0
   -0.0780   -3.6260   -1.9700 C   0  0  0  0  0  0  0  0  0  0  0  0
    0.5110   -2.4480   -1.5510 C   0  0  0  0  0  0  0  0  0  0  0  0
   -0.2140   -1.4580   -0.9090 C   0  0  0  0  0  0  0  0  0  0  0  0
    2.2930    1.2370   -0.7840 C   0  0  0  0  0  0  0  0  0  0  0  0
    3.6310    1.5630   -0.8690 C   0  0  0  0  0  0  0  0  0  0  0  0
    4.5580    0.5640   -0.7370 C   0  0  0  0  0  0  0  0  0  0  0  0
  1  2  1  0
  2  3  2  0
  2 29  1  0
  3  4  1  0
  4  5  1  0
  5  6  2  0
  5  7  1  0
  7  8  2  0
  7 29  1  0
  8  9  1  0
  9 10  1  0
  9 27  2  0
 10 11  1  0
 10 26  1  0
 11 12  1  0
 12 13  2  0
 12 20  1  0
 13 14  1  0
 13 21  1  0
 14 15  1  0
 15 16  1  0
 16 17  1  0
 16 20  1  0
 17 18  1  0
 18 19  1  0
 21 22  2  0
 21 26  1  0
 22 23  1  0
 23 24  2  0
 24 25  1  0
 25 26  2  0
 27 28  1  0
 28 29  2  0
M  CHG  1   1   1
M  END
