
     RDKit          3D

 29 33  0  0  0  0  0  0  0  0999 V2000
   -5.1630    2.0010   -1.0930 C   0  0  0  0  0  0  0  0  0  0  0  0
   -3.9820    1.1740   -0.6400 C   0  0  2  0  0  0  0  0  0  0  0  0
   -2.9170    2.0970   -0.1240 C   0  0  0  0  0  0  0  0  0  0  0  0
   -2.0170    1.2700    0.7530 C   0  0  0  0  0  0  0  0  0  0  0  0
   -1.7900    1.5880    2.0180 N   0  0  0  0  0  0  0  0  0  0  0  0
   -0.9680    0.7180    2.5530 N   0  0  0  0  0  0  0  0  0  0  0  0
   -0.6130   -0.2170    1.6540 C   0  0  0  0  0  0  0  0  0  0  0  0
    0.2630   -1.2290    1.6960 N   0  0  0  0  0  0  0  0  0  0  0  0
    1.1560   -2.2600    1.7380 C   0  0  0  0  0  0  0  0  0  0  0  0
    1.4140   -3.0110    2.8150 N   0  0  0  0  0  0  0  0  0  0  0  0
    2.1420   -4.1390    2.8440 C   0  0  0  0  0  0  0  0  0  0  0  0
    2.6830   -4.5850    1.6720 C   0  0  0  0  0  0  0  0  0  0  0  0
    2.4620   -3.8610    0.5220 C   0  0  0  0  0  0  0  0  0  0  0  0
    1.7160   -2.7140    0.5370 C   0  0  0  0  0  0  0  0  0  0  0  0
    1.5640   -2.0500   -0.6780 O   0  0  0  0  0  0  0  0  0  0  0  0
    2.0540   -0.7710   -0.8760 C   0  0  0  0  0  0  0  0  0  0  0  0
    2.7270   -0.1080    0.1150 C   0  0  0  0  0  0  0  0  0  0  0  0
    3.2340    1.1850   -0.0490 C   0  0  0  0  0  0  0  0  0  0  0  0
    3.9090    2.0190    0.7510 N   0  0  0  0  0  0  0  0  0  0  0  0
    4.1760    3.1700    0.1280 C   0  0  0  0  0  0  0  0  0  0  0  0
    3.6350    3.0500   -1.1410 C   0  0  0  0  0  0  0  0  0  0  0  0
    3.0420    1.8180   -1.2740 C   0  0  0  0  0  0  0  0  0  0  0  0
    2.3700    1.1640   -2.2760 C   0  0  0  0  0  0  0  0  0  0  0  0
    1.8770   -0.1300   -2.0740 C   0  0  0  0  0  0  0  0  0  0  0  0
    1.2240   -0.7050   -3.1110 F   0  0  0  0  0  0  0  0  0  0  0  0
   -1.3200    0.1640    0.4720 C   0  0  0  0  0  0  0  0  0  0  0  0
   -1.3390   -0.5840   -0.7980 C   0  0  0  0  0  0  0  0  0  0  0  0
   -2.7990   -0.8060   -1.2590 C   0  0  0  0  0  0  0  0  0  0  0  0
   -3.4190    0.3970   -1.7260 N   0  0  0  0  0  0  0  0  0  0  0  0
  2  1  1  6
  2  3  1  0
  2 29  1  0
  3  4  1  0
  4  5  2  0
  4 26  1  0
  5  6  1  0
  6  7  1  0
  7  8  1  0
  7 26  2  0
  8  9  1  0
  9 10  2  0
  9 14  1  0
 10 11  1  0
 11 12  2  0
 12 13  1  0
 13 14  2  0
 14 15  1  0
 15 16  1  0
 16 17  2  0
 16 24  1  0
 17 18  1  0
 18 19  1  0
 18 22  2  0
 19 20  1  0
 20 21  2  0
 21 22  1  0
 22 23  1  0
 23 24  2  0
 24 25  1  0
 26 27  1  0
 27 28  1  0
 28 29  1  0
M  CHG  1  29   1
M  END
