
     RDKit          3D

 29 33  0  0  0  0  0  0  0  0999 V2000
   -5.1600   -2.1830    0.1750 C   0  0  0  0  0  0  0  0  0  0  0  0
   -4.9980   -1.0190   -0.4020 C   0  0  0  0  0  0  0  0  0  0  0  0
   -6.0680   -0.5510   -1.3460 C   0  0  0  0  0  0  0  0  0  0  0  0
   -5.4610    0.2360   -2.4550 C   0  0  0  0  0  0  0  0  0  0  0  0
   -4.3420    0.8840   -2.3130 C   0  0  0  0  0  0  0  0  0  0  0  0
   -3.8190    1.6210   -3.3510 F   0  0  0  0  0  0  0  0  0  0  0  0
   -3.4380    0.7210   -1.1750 C   0  0  0  0  0  0  0  0  0  0  0  0
   -2.3370    1.4880   -1.0560 N   0  0  0  0  0  0  0  0  0  0  0  0
   -1.5380    1.3610    0.0220 C   0  0  0  0  0  0  0  0  0  0  0  0
   -0.3510    2.2110    0.1160 C   0  0  0  0  0  0  0  0  0  0  0  0
    0.0200    3.1340   -0.8080 N   0  0  0  0  0  0  0  0  0  0  0  0
    1.1330    3.7390   -0.4420 N   0  0  0  0  0  0  0  0  0  0  0  0
    1.4980    3.2270    0.7090 N   0  0  0  0  0  0  0  0  0  0  0  0
    0.5950    2.2740    1.0820 C   0  0  0  0  0  0  0  0  0  0  0  0
    0.6750    1.5160    2.2700 N   0  0  0  0  0  0  0  0  0  0  0  0
    1.5420    0.5750    2.3720 C   0  0  0  0  0  0  0  0  0  0  0  0
    2.4350    0.2900    1.2740 C   0  0  0  0  0  0  0  0  0  0  0  0
    3.4020   -0.7200    1.3250 C   0  0  0  0  0  0  0  0  0  0  0  0
    4.0720   -0.7200    0.1210 C   0  0  0  0  0  0  0  0  0  0  0  0
    3.4840    0.2930   -0.6170 C   0  0  0  0  0  0  0  0  0  0  0  0
    2.5390    0.8470    0.1020 O   0  0  0  0  0  0  0  0  0  0  0  0
    4.1450    0.3720   -1.9440 C   0  0  0  0  0  0  0  0  0  0  0  0
    5.5110   -0.2400   -1.6410 C   0  0  0  0  0  0  0  0  0  0  0  0
    5.1540   -1.3540   -0.7020 C   0  0  1  0  0  0  0  0  0  0  0  0
    6.2500   -1.7340    0.1590 N   0  0  0  0  0  0  0  0  0  0  0  0
   -1.8770    0.4460    0.9760 C   0  0  0  0  0  0  0  0  0  0  0  0
   -3.0150   -0.3660    0.8780 C   0  0  0  0  0  0  0  0  0  0  0  0
   -3.3750   -1.2590    2.0030 C   0  0  0  0  0  0  0  0  0  0  0  0
   -3.8040   -0.2350   -0.2110 C   0  0  0  0  0  0  0  0  0  0  0  0
  1  2  2  0
  2  3  1  0
  2 29  1  0
  3  4  1  0
  4  5  2  0
  5  6  1  0
  5  7  1  0
  7  8  2  0
  7 29  1  0
  8  9  1  0
  9 10  1  0
  9 26  2  0
 10 11  1  0
 10 14  2  0
 11 12  1  0
 12 13  2  0
 13 14  1  0
 14 15  1  0
 15 16  2  3
 16 17  1  0
 17 18  2  0
 17 21  1  0
 18 19  1  0
 19 20  2  0
 19 24  1  0
 20 21  1  0
 20 22  1  0
 22 23  1  0
 23 24  1  0
 24 25  1  1
 26 27  1  0
 27 28  1  0
 27 29  2  0
M  CHG  1  25   1
M  END
