
     RDKit          3D

 29 32  0  0  0  0  0  0  0  0999 V2000
    5.6570    2.9860    0.9770 C   0  0  0  0  0  0  0  0  0  0  0  0
    4.8680    2.0080    0.1170 C   0  0  1  0  0  0  0  0  0  0  0  0
    5.6960    1.5390   -1.0610 C   0  0  0  0  0  0  0  0  0  0  0  0
    4.5630    0.8050    0.9740 C   0  0  0  0  0  0  0  0  0  0  0  0
    3.7880   -0.1750    0.1570 C   0  0  0  0  0  0  0  0  0  0  0  0
    2.4450   -0.1640    0.0980 N   0  0  0  0  0  0  0  0  0  0  0  0
    1.7100   -1.0310   -0.6280 C   0  0  0  0  0  0  0  0  0  0  0  0
    0.2870   -0.9830   -0.6620 N   0  0  0  0  0  0  0  0  0  0  0  0
   -0.3910    0.0170    0.0970 C   0  0  0  0  0  0  0  0  0  0  0  0
   -1.8570    0.0260    0.0300 C   0  0  0  0  0  0  0  0  0  0  0  0
   -2.5620   -0.8590   -0.7090 C   0  0  0  0  0  0  0  0  0  0  0  0
   -3.9550   -0.7790   -0.7160 C   0  0  0  0  0  0  0  0  0  0  0  0
   -4.8030   -1.9680   -1.7030 Cl  0  0  0  0  0  0  0  0  0  0  0  0
   -4.6810    0.1480   -0.0180 C   0  0  0  0  0  0  0  0  0  0  0  0
   -3.9190    1.0390    0.7300 C   0  0  0  0  0  0  0  0  0  0  0  0
   -2.5520    0.9780    0.7500 C   0  0  0  0  0  0  0  0  0  0  0  0
   -1.6350    2.1390    1.7170 Cl  0  0  0  0  0  0  0  0  0  0  0  0
   -4.8010    1.9930    1.4910 C   0  0  0  0  0  0  0  0  0  0  0  0
   -6.0110    1.0630    1.7000 C   0  0  0  0  0  0  0  0  0  0  0  0
   -6.3130    0.5030    0.1970 S   0  0  0  0  0  0  0  0  0  0  0  0
   -7.4430   -0.5630    0.6380 C   0  0  0  0  0  0  0  0  0  0  0  0
   -6.5910    0.4660   -1.2510 O   0  0  0  0  0  0  0  0  0  0  0  0
    2.4240   -1.9770   -1.3430 C   0  0  0  0  0  0  0  0  0  0  0  0
    1.7190   -2.8590   -2.0780 N   0  0  0  0  0  0  0  0  0  0  0  0
    2.3380   -3.8090   -2.8010 C   0  0  0  0  0  0  0  0  0  0  0  0
    3.7280   -3.8740   -2.7820 C   0  0  0  0  0  0  0  0  0  0  0  0
    4.4640   -2.9810   -2.0350 C   0  0  0  0  0  0  0  0  0  0  0  0
    3.8020   -2.0220   -1.3080 C   0  0  0  0  0  0  0  0  0  0  0  0
    4.4540   -1.1250   -0.5620 N   0  0  0  0  0  0  0  0  0  0  0  0
  2  1  1  1
  2  3  1  0
  2  4  1  0
  4  5  1  0
  5  6  2  0
  5 29  1  0
  6  7  1  0
  7  8  1  0
  7 23  2  0
  8  9  1  0
  9 10  1  0
 10 11  2  0
 10 16  1  0
 11 12  1  0
 12 13  1  0
 12 14  2  0
 14 15  1  0
 14 20  1  0
 15 16  2  0
 15 18  1  0
 16 17  1  0
 18 19  1  0
 19 20  1  0
 20 21  1  0
 20 22  2  0
 23 24  1  0
 23 28  1  0
 24 25  2  0
 25 26  1  0
 26 27  2  0
 27 28  1  0
 28 29  2  0
M  END
