
     RDKit          3D

 29 32  0  0  0  0  0  0  0  0999 V2000
   -7.1900   -1.0070    0.0390 C   0  0  0  0  0  0  0  0  0  0  0  0
   -6.4400    0.1070    0.7400 C   0  0  1  0  0  0  0  0  0  0  0  0
   -5.3170   -0.4270    1.5970 C   0  0  0  0  0  0  0  0  0  0  0  0
   -4.2780   -1.1500    0.7640 C   0  0  0  0  0  0  0  0  0  0  0  0
   -3.8540   -0.2710   -0.2790 N   0  0  0  0  0  0  0  0  0  0  0  0
   -2.4130   -0.1680   -0.5030 C   0  0  0  0  0  0  0  0  0  0  0  0
   -1.7760    0.5390    0.4200 C   0  0  0  0  0  0  0  0  0  0  0  0
   -0.3640    0.5820    0.1160 C   0  0  0  0  0  0  0  0  0  0  0  0
    0.6190    1.2810    0.9390 N   0  0  0  0  0  0  0  0  0  0  0  0
    1.9930    0.9580    0.8120 C   0  0  0  0  0  0  0  0  0  0  0  0
    2.6160    1.3570   -0.5060 C   0  0  0  0  0  0  0  0  0  0  0  0
    4.0490    0.9320   -0.4540 C   0  0  0  0  0  0  0  0  0  0  0  0
    4.9070    1.1600   -1.5100 C   0  0  0  0  0  0  0  0  0  0  0  0
    6.2340    0.7670   -1.4700 C   0  0  0  0  0  0  0  0  0  0  0  0
    7.3460    1.0400   -2.7870 Cl  0  0  0  0  0  0  0  0  0  0  0  0
    6.7100    0.1280   -0.3410 C   0  0  0  0  0  0  0  0  0  0  0  0
    8.0250   -0.2940   -0.2310 C   0  0  0  0  0  0  0  0  0  0  0  0
    8.4890   -0.9330    0.9030 C   0  0  0  0  0  0  0  0  0  0  0  0
   10.1640   -1.4720    1.0450 Cl  0  0  0  0  0  0  0  0  0  0  0  0
    7.5960   -1.1450    1.9450 C   0  0  0  0  0  0  0  0  0  0  0  0
    6.2740   -0.7240    1.8440 C   0  0  0  0  0  0  0  0  0  0  0  0
    5.8550   -0.0910    0.6940 C   0  0  0  0  0  0  0  0  0  0  0  0
    4.5740    0.3060    0.6170 N   0  0  0  0  0  0  0  0  0  0  0  0
   -0.1490   -0.0550   -0.9220 N   0  0  0  0  0  0  0  0  0  0  0  0
   -1.5280   -0.7590   -1.6460 S   0  0  0  0  0  0  0  0  0  0  0  0
   -0.6640   -1.0320   -2.9660 C   0  0  0  0  0  0  0  0  0  0  0  0
   -2.3740    0.4260   -2.6310 O   0  0  0  0  0  0  0  0  0  0  0  0
   -4.7960    0.4660   -1.0600 C   0  0  0  0  0  0  0  0  0  0  0  0
   -5.8610    1.1100   -0.2150 C   0  0  0  0  0  0  0  0  0  0  0  0
  2  1  1  6
  2  3  1  0
  2 29  1  0
  3  4  1  0
  4  5  1  0
  5  6  1  0
  5 28  1  0
  6  7  2  0
  6 25  1  0
  7  8  1  0
  8  9  1  0
  8 24  2  0
  9 10  1  0
 10 11  1  0
 11 12  1  0
 12 13  2  0
 12 23  1  0
 13 14  1  0
 14 15  1  0
 14 16  2  0
 16 17  1  0
 16 22  1  0
 17 18  2  0
 18 19  1  0
 18 20  1  0
 20 21  2  0
 21 22  1  0
 22 23  2  0
 24 25  1  0
 25 26  1  0
 25 27  2  0
 28 29  1  0
M  END
