
     RDKit          3D

 29 33  0  0  0  0  0  0  0  0999 V2000
   -5.2010    1.0500    0.7800 C   0  0  0  0  0  0  0  0  0  0  0  0
   -4.0160    0.0990    0.9780 C   0  0  0  0  0  0  0  0  0  0  0  0
   -3.3920   -0.0830   -0.3850 C   0  0  0  0  0  0  0  0  0  0  0  0
   -2.2510   -0.9590   -0.3780 N   0  0  0  0  0  0  0  0  0  0  0  0
   -2.3560   -2.2840   -0.5440 C   0  0  0  0  0  0  0  0  0  0  0  0
   -3.5110   -2.8430   -0.6860 N   0  0  0  0  0  0  0  0  0  0  0  0
   -1.2700   -3.0640   -0.5490 N   0  0  0  0  0  0  0  0  0  0  0  0
   -0.0070   -2.5620   -0.3810 C   0  0  0  0  0  0  0  0  0  0  0  0
    0.8500   -3.4250   -0.4590 O   0  0  0  0  0  0  0  0  0  0  0  0
    0.1060   -1.2120   -0.1940 C   0  0  0  0  0  0  0  0  0  0  0  0
    1.3250   -0.6010   -0.1900 C   0  0  0  0  0  0  0  0  0  0  0  0
    1.3940    0.8360   -0.2500 C   0  0  0  0  0  0  0  0  0  0  0  0
    0.2490    1.5580   -0.2830 C   0  0  0  0  0  0  0  0  0  0  0  0
    0.2570    3.0080   -0.3200 C   0  0  0  0  0  0  0  0  0  0  0  0
    0.8120    3.9280   -1.1440 C   0  0  0  0  0  0  0  0  0  0  0  0
    0.5110    5.1680   -0.6660 N   0  0  0  0  0  0  0  0  0  0  0  0
   -0.2040    5.0730    0.4140 N   0  0  0  0  0  0  0  0  0  0  0  0
   -0.3890    3.7720    0.6700 C   0  0  0  0  0  0  0  0  0  0  0  0
   -0.9330    0.9450   -0.2540 N   0  0  0  0  0  0  0  0  0  0  0  0
   -1.0450   -0.4140   -0.2080 C   0  0  0  0  0  0  0  0  0  0  0  0
    2.7140    1.4850   -0.2220 C   0  0  0  0  0  0  0  0  0  0  0  0
    3.7360    0.6080   -0.9180 C   0  0  0  0  0  0  0  0  0  0  0  0
    3.7710   -0.7310   -0.2050 C   0  0  0  0  0  0  0  0  0  0  0  0
    4.9360   -1.2270    0.2680 C   0  0  0  0  0  0  0  0  0  0  0  0
    4.8970   -2.4800    0.8970 C   0  0  0  0  0  0  0  0  0  0  0  0
    3.7060   -3.1320    1.0080 C   0  0  0  0  0  0  0  0  0  0  0  0
    3.6970   -4.3440    1.6190 F   0  0  0  0  0  0  0  0  0  0  0  0
    2.5150   -2.6030    0.5190 C   0  0  0  0  0  0  0  0  0  0  0  0
    2.5540   -1.3470   -0.1230 C   0  0  0  0  0  0  0  0  0  0  0  0
  1  2  1  0
  2  3  1  0
  3  4  1  0
  4  5  1  0
  4 20  1  0
  5  6  2  0
  5  7  1  0
  7  8  1  0
  8  9  2  0
  8 10  1  0
 10 11  2  0
 10 20  1  0
 11 12  1  0
 11 29  1  0
 12 13  2  0
 12 21  1  0
 13 14  1  0
 13 19  1  0
 14 15  1  0
 14 18  2  0
 15 16  2  0
 16 17  1  0
 17 18  1  0
 19 20  2  0
 21 22  1  0
 22 23  1  0
 23 24  2  0
 23 29  1  0
 24 25  1  0
 25 26  2  0
 26 27  1  0
 26 28  1  0
 28 29  2  0
M  CHG  1   6   1
M  END
