
     RDKit          3D

 29 33  0  0  0  0  0  0  0  0999 V2000
    7.4530    2.3190    1.5400 N   0  0  0  0  0  0  0  0  0  0  0  0
    7.1390    1.7140    0.2830 C   0  0  0  0  0  0  0  0  0  0  0  0
    5.7500    1.1400    0.2440 C   0  0  0  0  0  0  0  0  0  0  0  0
    5.1790    0.4910   -0.8220 C   0  0  0  0  0  0  0  0  0  0  0  0
    3.8780    0.1070   -0.4690 C   0  0  0  0  0  0  0  0  0  0  0  0
    3.6870    0.5270    0.7900 N   0  0  0  0  0  0  0  0  0  0  0  0
    4.8080    1.1570    1.2430 C   0  0  0  0  0  0  0  0  0  0  0  0
    2.4550    0.2960    1.4560 C   0  0  0  0  0  0  0  0  0  0  0  0
    2.2000    0.6550    2.6260 O   0  0  0  0  0  0  0  0  0  0  0  0
    1.4100   -0.4140    0.7170 C   0  0  0  0  0  0  0  0  0  0  0  0
    0.1810   -0.6730    1.3080 C   0  0  0  0  0  0  0  0  0  0  0  0
   -0.7940   -1.3360    0.6150 C   0  0  0  0  0  0  0  0  0  0  0  0
   -0.6020   -1.7650   -0.6670 C   0  0  0  0  0  0  0  0  0  0  0  0
   -1.6660   -2.4790   -1.4140 C   0  0  0  0  0  0  0  0  0  0  0  0
   -2.9200   -2.0970   -1.2630 C   0  0  0  0  0  0  0  0  0  0  0  0
   -3.4700   -1.0660   -0.4710 N   0  0  0  0  0  0  0  0  0  0  0  0
   -4.7390   -0.9720   -0.5670 C   0  0  0  0  0  0  0  0  0  0  0  0
   -5.5920    0.0020    0.1360 C   0  0  0  0  0  0  0  0  0  0  0  0
   -5.2880    0.4870    1.3530 N   0  0  0  0  0  0  0  0  0  0  0  0
   -6.0520    1.3720    2.0050 C   0  0  0  0  0  0  0  0  0  0  0  0
   -7.2240    1.8530    1.4570 C   0  0  0  0  0  0  0  0  0  0  0  0
   -7.5620    1.3720    0.2070 C   0  0  0  0  0  0  0  0  0  0  0  0
   -6.7560    0.4540   -0.4510 C   0  0  0  0  0  0  0  0  0  0  0  0
   -7.0700   -0.0280   -1.6740 F   0  0  0  0  0  0  0  0  0  0  0  0
   -5.1520   -1.9820   -1.4750 N   0  0  0  0  0  0  0  0  0  0  0  0
   -4.0410   -2.6930   -1.9210 N   0  0  0  0  0  0  0  0  0  0  0  0
    0.5970   -1.5260   -1.2780 C   0  0  0  0  0  0  0  0  0  0  0  0
    1.6010   -0.8480   -0.5750 C   0  0  0  0  0  0  0  0  0  0  0  0
    2.8670   -0.6170   -1.2750 C   0  0  0  0  0  0  0  0  0  0  0  0
  1  2  1  0
  2  3  1  0
  3  4  1  0
  3  7  2  0
  4  5  2  0
  5  6  1  0
  5 29  1  0
  6  7  1  0
  6  8  1  0
  8  9  2  0
  8 10  1  0
 10 11  2  0
 10 28  1  0
 11 12  1  0
 12 13  2  0
 13 14  1  0
 13 27  1  0
 14 15  2  3
 15 16  1  0
 15 26  1  0
 16 17  2  0
 17 18  1  0
 17 25  1  0
 18 19  2  0
 18 23  1  0
 19 20  1  0
 20 21  2  0
 21 22  1  0
 22 23  2  0
 23 24  1  0
 25 26  1  0
 27 28  2  0
 28 29  1  0
M  CHG  1   1   1
M  END
