
     RDKit          3D

 29 33  0  0  0  0  0  0  0  0999 V2000
    7.6240   -0.1450    0.5550 C   0  0  0  0  0  0  0  0  0  0  0  0
    7.1280    0.8920   -0.4110 C   0  0  0  0  0  0  0  0  0  0  0  0
    5.7990    1.4370   -0.0310 C   0  0  0  0  0  0  0  0  0  0  0  0
    5.6960    2.6580    0.5240 N   0  0  0  0  0  0  0  0  0  0  0  0
    4.5020    3.1850    0.8820 C   0  0  0  0  0  0  0  0  0  0  0  0
    3.3580    2.4880    0.6910 N   0  0  0  0  0  0  0  0  0  0  0  0
    3.3900    1.2550    0.1380 C   0  0  0  0  0  0  0  0  0  0  0  0
    4.6230    0.7420   -0.2190 C   0  0  0  0  0  0  0  0  0  0  0  0
    4.3640   -0.4800   -0.7360 N   0  0  0  0  0  0  0  0  0  0  0  0
    3.0420   -0.7320   -0.7120 C   0  0  0  0  0  0  0  0  0  0  0  0
    2.2680   -1.8090   -1.1110 C   0  0  0  0  0  0  0  0  0  0  0  0
    0.8890   -1.8060   -0.9670 C   0  0  0  0  0  0  0  0  0  0  0  0
    0.2420   -0.7210   -0.4160 C   0  0  0  0  0  0  0  0  0  0  0  0
   -1.2010   -0.7380   -0.2740 C   0  0  0  0  0  0  0  0  0  0  0  0
   -1.7900    0.3410    0.2710 N   0  0  0  0  0  0  0  0  0  0  0  0
   -3.1130    0.3740    0.4230 C   0  0  0  0  0  0  0  0  0  0  0  0
   -3.9040   -0.6800    0.0320 C   0  0  0  0  0  0  0  0  0  0  0  0
   -5.3480   -0.6410    0.1920 C   0  0  0  0  0  0  0  0  0  0  0  0
   -6.0330   -1.6980    0.8060 C   0  0  0  0  0  0  0  0  0  0  0  0
   -7.4040   -1.6450    0.9630 C   0  0  0  0  0  0  0  0  0  0  0  0
   -8.1160   -0.5540    0.5190 C   0  0  0  0  0  0  0  0  0  0  0  0
   -9.8550   -0.4690    0.7090 Cl  0  0  0  0  0  0  0  0  0  0  0  0
   -7.4480    0.4450   -0.0650 N   0  0  0  0  0  0  0  0  0  0  0  0
   -6.0890    0.4260   -0.2370 C   0  0  0  0  0  0  0  0  0  0  0  0
   -5.4350    1.5760   -0.9090 C   0  0  0  0  0  0  0  0  0  0  0  0
   -3.2620   -1.7750   -0.5260 C   0  0  0  0  0  0  0  0  0  0  0  0
   -1.9310   -1.7970   -0.6730 N   0  0  0  0  0  0  0  0  0  0  0  0
    1.0020    0.3550   -0.0160 C   0  0  0  0  0  0  0  0  0  0  0  0
    2.3840    0.3530   -0.1600 C   0  0  0  0  0  0  0  0  0  0  0  0
  1  2  1  0
  2  3  1  0
  3  4  2  0
  3  8  1  0
  4  5  1  0
  5  6  2  0
  6  7  1  0
  7  8  2  0
  7 29  1  0
  8  9  1  0
  9 10  1  0
 10 11  2  0
 10 29  1  0
 11 12  1  0
 12 13  2  0
 13 14  1  0
 13 28  1  0
 14 15  2  0
 14 27  1  0
 15 16  1  0
 16 17  2  0
 17 18  1  0
 17 26  1  0
 18 19  2  0
 18 24  1  0
 19 20  1  0
 20 21  2  0
 21 22  1  0
 21 23  1  0
 23 24  2  0
 24 25  1  0
 26 27  2  0
 28 29  2  0
M  END
