
     RDKit          3D

 29 33  0  0  0  0  0  0  0  0999 V2000
   -7.7280   -0.8970   -0.9670 C   0  0  0  0  0  0  0  0  0  0  0  0
   -6.8110    0.0980   -0.3160 C   0  0  0  0  0  0  0  0  0  0  0  0
   -7.3320    1.2150    0.3040 C   0  0  0  0  0  0  0  0  0  0  0  0
   -6.5150    2.1370    0.9030 C   0  0  0  0  0  0  0  0  0  0  0  0
   -5.1620    1.9510    0.8870 C   0  0  0  0  0  0  0  0  0  0  0  0
   -4.0570    2.6230    1.3580 C   0  0  0  0  0  0  0  0  0  0  0  0
   -2.9700    1.9160    1.0150 N   0  0  0  0  0  0  0  0  0  0  0  0
   -3.3200    0.8090    0.3400 N   0  0  0  0  0  0  0  0  0  0  0  0
   -2.3900   -0.1420   -0.1560 C   0  0  0  0  0  0  0  0  0  0  0  0
   -2.7710   -1.2350   -0.8980 C   0  0  0  0  0  0  0  0  0  0  0  0
   -1.8510   -2.1700   -1.3870 C   0  0  0  0  0  0  0  0  0  0  0  0
   -0.5110   -2.0020   -1.1250 C   0  0  0  0  0  0  0  0  0  0  0  0
    0.7100   -3.1340   -1.7030 Cl  0  0  0  0  0  0  0  0  0  0  0  0
   -0.1530   -0.8980   -0.3780 C   0  0  0  0  0  0  0  0  0  0  0  0
    1.2810   -0.7320   -0.1100 C   0  0  0  0  0  0  0  0  0  0  0  0
    2.1750   -0.7250   -1.1510 C   0  0  0  0  0  0  0  0  0  0  0  0
    3.5180   -0.5640   -0.9090 C   0  0  0  0  0  0  0  0  0  0  0  0
    3.9520   -0.4110    0.3790 C   0  0  0  0  0  0  0  0  0  0  0  0
    5.1510   -0.2530    0.7110 N   0  0  0  0  0  0  0  0  0  0  0  0
    6.3660   -0.1770    0.0230 C   0  0  2  0  0  0  0  0  0  0  0  0
    7.3100    0.9500    0.4950 C   0  0  0  0  0  0  0  0  0  0  0  0
    7.8060    1.0070   -0.9330 C   0  0  0  0  0  0  0  0  0  0  0  0
    6.4450    0.4190   -1.3440 C   0  0  0  0  0  0  0  0  0  0  0  0
    3.0480   -0.4220    1.3800 N   0  0  0  0  0  0  0  0  0  0  0  0
    1.7270   -0.5770    1.1880 C   0  0  0  0  0  0  0  0  0  0  0  0
    0.7920   -0.5800    2.3510 C   0  0  0  0  0  0  0  0  0  0  0  0
   -1.0640   -0.0180    0.0770 N   0  0  0  0  0  0  0  0  0  0  0  0
   -4.6550    0.8130    0.2520 C   0  0  0  0  0  0  0  0  0  0  0  0
   -5.4830   -0.0650   -0.3210 N   0  0  0  0  0  0  0  0  0  0  0  0
  1  2  1  0
  2  3  2  0
  2 29  1  0
  3  4  1  0
  4  5  2  0
  5  6  1  0
  5 28  1  0
  6  7  2  0
  7  8  1  0
  8  9  1  0
  8 28  1  0
  9 10  2  0
  9 27  1  0
 10 11  1  0
 11 12  2  0
 12 13  1  0
 12 14  1  0
 14 15  1  0
 14 27  2  0
 15 16  1  0
 15 25  2  0
 16 17  2  0
 17 18  1  0
 18 19  2  3
 18 24  1  0
 20 19  1  1
 20 21  1  0
 20 23  1  0
 21 22  1  0
 22 23  1  0
 24 25  1  0
 25 26  1  0
 28 29  2  0
M  END
