
     RDKit          3D

 29 33  0  0  0  0  0  0  0  0999 V2000
    4.3880    3.0980   -1.7570 Cl  0  0  0  0  0  0  0  0  0  0  0  0
    5.0450    1.7190   -0.8250 C   0  0  0  0  0  0  0  0  0  0  0  0
    4.2200    1.5830    0.4210 C   0  0  0  0  0  0  0  0  0  0  0  0
    4.6890    0.4380    1.2940 C   0  0  2  0  0  0  0  0  0  0  0  0
    6.0960    0.6300    1.7180 C   0  0  0  0  0  0  0  0  0  0  0  0
    6.8040   -0.4540    1.4550 C   0  0  0  0  0  0  0  0  0  0  0  0
    5.9250   -1.4630    0.8290 C   0  0  0  0  0  0  0  0  0  0  0  0
    4.6370   -0.8330    0.6510 N   0  0  0  0  0  0  0  0  0  0  0  0
    3.5460   -1.4000   -0.0380 C   0  0  0  0  0  0  0  0  0  0  0  0
    3.5950   -2.6090   -0.6100 N   0  0  0  0  0  0  0  0  0  0  0  0
    2.5170   -3.1240   -1.2700 C   0  0  0  0  0  0  0  0  0  0  0  0
    1.3470   -2.4030   -1.3610 C   0  0  0  0  0  0  0  0  0  0  0  0
    0.2280   -2.8500   -2.0030 C   0  0  0  0  0  0  0  0  0  0  0  0
   -0.9280   -2.0600   -2.0550 C   0  0  0  0  0  0  0  0  0  0  0  0
   -0.9480   -0.8220   -1.4580 C   0  0  0  0  0  0  0  0  0  0  0  0
   -2.1180    0.0070   -1.4930 N   0  0  0  0  0  0  0  0  0  0  0  0
   -3.3600   -0.3840   -2.0800 C   0  0  0  0  0  0  0  0  0  0  0  0
   -4.4550    0.3580   -1.2900 C   0  0  0  0  0  0  0  0  0  0  0  0
   -3.9880    0.3190    0.1630 C   0  0  2  0  0  0  0  0  0  0  0  0
   -5.1610    0.6420    1.0200 C   0  0  0  0  0  0  0  0  0  0  0  0
   -5.2920    1.6410    1.8750 C   0  0  0  0  0  0  0  0  0  0  0  0
   -6.6360    1.5480    2.4910 C   0  0  0  0  0  0  0  0  0  0  0  0
   -7.2210    0.3560    1.8490 C   0  0  0  0  0  0  0  0  0  0  0  0
   -6.3650   -0.1330    1.0250 N   0  0  0  0  0  0  0  0  0  0  0  0
   -2.8790    1.3050    0.3660 C   0  0  0  0  0  0  0  0  0  0  0  0
   -2.0290    1.3420   -0.8940 C   0  0  0  0  0  0  0  0  0  0  0  0
    0.1720   -0.4170   -0.8360 N   0  0  0  0  0  0  0  0  0  0  0  0
    1.3020   -1.1610   -0.7720 C   0  0  0  0  0  0  0  0  0  0  0  0
    2.4040   -0.7090   -0.1330 N   0  0  0  0  0  0  0  0  0  0  0  0
  1  2  1  0
  2  3  1  0
  4  3  1  6
  4  5  1  0
  4  8  1  0
  5  6  2  0
  6  7  1  0
  7  8  1  0
  8  9  1  0
  9 10  2  0
  9 29  1  0
 10 11  1  0
 11 12  2  0
 12 13  1  0
 12 28  1  0
 13 14  2  0
 14 15  1  0
 15 16  1  0
 15 27  2  0
 16 17  1  0
 16 26  1  0
 17 18  1  0
 18 19  1  0
 19 20  1  1
 19 25  1  0
 20 21  2  0
 20 24  1  0
 21 22  1  0
 22 23  1  0
 23 24  2  0
 25 26  1  0
 27 28  1  0
 28 29  2  0
M  END
