
     RDKit          3D

 30 35  0  0  0  0  0  0  0  0999 V2000
    0.9700    4.8420   -1.7930 C   0  0  0  0  0  0  0  0  0  0  0  0
    1.3610    3.9260   -0.7660 O   0  0  0  0  0  0  0  0  0  0  0  0
    0.8970    2.6190   -0.7420 C   0  0  0  0  0  0  0  0  0  0  0  0
    0.1260    2.2690   -1.6480 O   0  0  0  0  0  0  0  0  0  0  0  0
    1.3060    1.6830    0.3160 C   0  0  2  0  0  0  0  0  0  0  0  0
    2.7570    1.4320    0.1530 C   0  0  0  0  0  0  0  0  0  0  0  0
    3.1530    0.0370   -0.1140 C   0  0  0  0  0  0  0  0  0  0  0  0
    4.4760   -0.2150   -0.2200 C   0  0  0  0  0  0  0  0  0  0  0  0
    4.9110   -1.5740   -0.4820 C   0  0  0  0  0  0  0  0  0  0  0  0
    6.0820   -1.9160   -0.1790 O   0  0  0  0  0  0  0  0  0  0  0  0
    4.0250   -2.5860   -1.0980 C   0  0  0  0  0  0  0  0  0  0  0  0
    2.6680   -2.0190   -1.4140 C   0  0  0  0  0  0  0  0  0  0  0  0
    2.2340   -1.1030   -0.2650 C   0  0  1  0  0  0  0  0  0  0  0  0
    2.2780   -1.8630    1.0450 C   0  0  0  0  0  0  0  0  0  0  0  0
    0.8520   -0.5670   -0.5640 C   0  0  1  0  0  0  0  0  0  0  0  0
    0.6230   -0.2530   -1.9030 O   0  0  0  0  0  0  0  0  0  0  0  0
   -0.0760   -1.2630   -1.2890 C   0  0  2  0  0  0  0  0  0  0  0  0
   -1.5760   -1.0680   -1.0460 C   0  0  0  0  0  0  0  0  0  0  0  0
   -1.7200   -0.6510    0.3840 C   0  0  1  0  0  0  0  0  0  0  0  0
   -1.2710   -1.7360    1.2940 C   0  0  0  0  0  0  0  0  0  0  0  0
   -0.9760    0.6570    0.5230 C   0  0  1  0  0  0  0  0  0  0  0  0
   -1.4860    1.1660    1.8440 C   0  0  0  0  0  0  0  0  0  0  0  0
   -2.9810    0.8470    1.7380 C   0  0  0  0  0  0  0  0  0  0  0  0
   -3.1330   -0.2710    0.7530 C   0  0  1  0  0  0  0  0  0  0  0  0
   -3.9900    0.0540   -0.4230 C   0  0  0  0  0  0  0  0  0  0  0  0
   -5.4110   -0.1250    0.1000 C   0  0  0  0  0  0  0  0  0  0  0  0
   -5.2090   -1.1590    1.1490 C   0  0  0  0  0  0  0  0  0  0  0  0
   -6.1530   -1.7540    1.7370 O   0  0  0  0  0  0  0  0  0  0  0  0
   -3.8300   -1.3450    1.3570 O   0  0  0  0  0  0  0  0  0  0  0  0
    0.4780    0.4410    0.4530 C   0  0  2  0  0  0  0  0  0  0  0  0
  1  2  1  0
  2  3  1  0
  3  4  2  0
  5  3  1  6
  5  6  1  0
 30  5  1  6
  6  7  1  0
  7  8  2  0
  7 13  1  0
  8  9  1  0
  9 10  2  0
  9 11  1  0
 11 12  1  0
 12 13  1  0
 13 14  1  1
 13 15  1  0
 15 16  1  6
 15 17  1  0
 15 30  1  0
 16 17  1  0
 17 18  1  1
 18 19  1  0
 19 20  1  1
 19 21  1  0
 19 24  1  0
 21 22  1  1
 21 30  1  0
 22 23  1  0
 24 23  1  1
 24 25  1  0
 24 29  1  0
 25 26  1  0
 26 27  1  0
 27 28  2  0
 27 29  1  0
M  END
