
     RDKit          3D

 29 32  0  0  0  0  0  0  0  0999 V2000
   -2.2720   -3.9200   -1.8000 C   0  0  0  0  0  0  0  0  0  0  0  0
   -1.9830   -2.7710   -1.2340 C   0  0  0  0  0  0  0  0  0  0  0  0
   -1.0850   -2.6930   -0.1040 C   0  0  0  0  0  0  0  0  0  0  0  0
   -0.8240   -1.5220    0.4270 C   0  0  0  0  0  0  0  0  0  0  0  0
    0.2780   -1.5140    1.7970 Cl  0  0  0  0  0  0  0  0  0  0  0  0
   -1.4090   -0.2600   -0.0760 C   0  0  0  0  0  0  0  0  0  0  0  0
   -0.9930    0.9530    0.6650 C   0  0  2  0  0  0  0  0  0  0  0  0
    0.4820    0.8630    0.6880 N   0  0  0  0  0  0  0  0  0  0  0  0
    1.0410    0.9060   -0.6440 C   0  0  0  0  0  0  0  0  0  0  0  0
    2.5180    0.8130   -0.4660 C   0  0  0  0  0  0  0  0  0  0  0  0
    3.2340    1.9850   -0.3580 C   0  0  0  0  0  0  0  0  0  0  0  0
    4.5970    1.8750   -0.1900 C   0  0  0  0  0  0  0  0  0  0  0  0
    5.1670    0.6570   -0.1380 N   0  0  0  0  0  0  0  0  0  0  0  0
    4.4680   -0.4940   -0.2430 C   0  0  0  0  0  0  0  0  0  0  0  0
    5.0870   -1.7820   -0.1850 N   0  0  0  0  0  0  0  0  0  0  0  0
    5.9650   -2.1940    0.7650 C   0  0  0  0  0  0  0  0  0  0  0  0
    6.3660   -3.4890    0.5240 C   0  0  0  0  0  0  0  0  0  0  0  0
    5.7050   -3.8550   -0.6050 N   0  0  0  0  0  0  0  0  0  0  0  0
    4.9480   -2.8270   -1.0120 C   0  0  0  0  0  0  0  0  0  0  0  0
    3.1410   -0.3960   -0.4070 N   0  0  0  0  0  0  0  0  0  0  0  0
   -1.4800    0.8150    2.0690 C   0  0  0  0  0  0  0  0  0  0  0  0
   -2.2420    2.0590    2.4030 C   0  0  0  0  0  0  0  0  0  0  0  0
   -2.5810    2.5890    1.0580 C   0  0  0  0  0  0  0  0  0  0  0  0
   -3.6610    3.2370    0.7260 C   0  0  0  0  0  0  0  0  0  0  0  0
   -4.7070    3.5120    1.7370 C   0  0  0  0  0  0  0  0  0  0  0  0
   -1.4490    2.2450    0.1470 C   0  0  0  0  0  0  0  0  0  0  0  0
   -2.2120   -0.3410   -1.0880 C   0  0  0  0  0  0  0  0  0  0  0  0
   -2.5530   -1.5880   -1.7330 N   0  0  0  0  0  0  0  0  0  0  0  0
   -3.4580   -1.5970   -2.8570 C   0  0  0  0  0  0  0  0  0  0  0  0
  1  2  2  0
  2  3  1  0
  2 28  1  0
  3  4  2  0
  4  5  1  0
  4  6  1  0
  6  7  1  0
  6 27  2  0
  7  8  1  1
  7 21  1  0
  7 26  1  0
  8  9  1  0
  9 10  1  0
 10 11  2  0
 10 20  1  0
 11 12  1  0
 12 13  2  0
 13 14  1  0
 14 15  1  0
 14 20  2  0
 15 16  1  0
 15 19  1  0
 16 17  2  0
 17 18  1  0
 18 19  2  0
 21 22  1  0
 22 23  1  0
 23 24  2  3
 23 26  1  0
 24 25  1  0
 27 28  1  0
 28 29  1  0
M  END
