
     RDKit          3D

 29 32  0  0  0  0  0  0  0  0999 V2000
   -2.7670    2.0030    0.9870 C   0  0  0  0  0  0  0  0  0  0  0  0
   -1.8870    1.1730    0.5010 C   0  0  0  0  0  0  0  0  0  0  0  0
   -1.6700    1.0280   -0.9110 C   0  0  0  0  0  0  0  0  0  0  0  0
   -1.9220    1.9610   -1.8350 C   0  0  0  0  0  0  0  0  0  0  0  0
   -2.4600    3.3110   -1.6460 C   0  0  0  0  0  0  0  0  0  0  0  0
   -1.5030    1.5800   -3.5270 Cl  0  0  0  0  0  0  0  0  0  0  0  0
   -0.9750   -0.1700   -1.3850 C   0  0  2  0  0  0  0  0  0  0  0  0
   -1.7490   -1.1650   -2.1530 C   0  0  0  0  0  0  0  0  0  0  0  0
   -3.0760   -0.8470   -2.7410 C   0  0  0  0  0  0  0  0  0  0  0  0
   -1.2340   -2.3930   -2.2560 C   0  0  0  0  0  0  0  0  0  0  0  0
   -0.0290   -2.8550   -1.6680 N   0  0  0  0  0  0  0  0  0  0  0  0
    0.6650   -2.0300   -0.8930 C   0  0  0  0  0  0  0  0  0  0  0  0
    1.9070   -2.2950   -0.2460 C   0  0  0  0  0  0  0  0  0  0  0  0
    2.4580   -3.5180   -0.1000 N   0  0  0  0  0  0  0  0  0  0  0  0
    3.6430   -3.4670    0.4450 N   0  0  0  0  0  0  0  0  0  0  0  0
    3.8890   -2.1700    0.6670 C   0  0  0  0  0  0  0  0  0  0  0  0
    2.8150   -1.4400    0.2380 N   0  0  0  0  0  0  0  0  0  0  0  0
    2.8210   -0.0350    0.2990 C   0  0  0  0  0  0  0  0  0  0  0  0
    2.4340    0.7130   -0.7940 C   0  0  0  0  0  0  0  0  0  0  0  0
    2.4570    2.0900   -0.7120 C   0  0  0  0  0  0  0  0  0  0  0  0
    2.8520    2.7760    0.4170 C   0  0  0  0  0  0  0  0  0  0  0  0
    3.2400    2.0260    1.5110 C   0  0  0  0  0  0  0  0  0  0  0  0
    3.2160    0.6440    1.4280 C   0  0  0  0  0  0  0  0  0  0  0  0
   -0.2060   -0.9200   -0.3870 C   0  0  0  0  0  0  0  0  0  0  0  0
   -0.3630   -0.7270    0.9220 C   0  0  0  0  0  0  0  0  0  0  0  0
    0.3940   -1.4940    1.8360 N   0  0  0  0  0  0  0  0  0  0  0  0
    0.1290   -2.9020    2.0930 C   0  0  0  0  0  0  0  0  0  0  0  0
   -1.2130    0.3000    1.4300 N   0  0  0  0  0  0  0  0  0  0  0  0
   -1.3740    0.4390    2.8630 C   0  0  0  0  0  0  0  0  0  0  0  0
  1  2  2  0
  2  3  1  0
  2 28  1  0
  3  4  2  3
  7  3  1  1
  4  5  1  0
  4  6  1  0
  7  8  1  0
  7 24  1  0
  8  9  1  0
  8 10  2  0
 10 11  1  0
 11 12  2  0
 12 13  1  0
 12 24  1  0
 13 14  2  0
 13 17  1  0
 14 15  1  0
 15 16  2  0
 16 17  1  0
 17 18  1  0
 18 19  2  0
 18 23  1  0
 19 20  1  0
 20 21  2  0
 21 22  1  0
 22 23  2  0
 24 25  2  0
 25 26  1  0
 25 28  1  0
 26 27  1  0
 28 29  1  0
M  END
