
     RDKit          3D

 29 33  0  0  0  0  0  0  0  0999 V2000
   -4.0090   -2.5060    1.6980 C   0  0  0  0  0  0  0  0  0  0  0  0
   -2.7780   -1.7780    2.1620 C   0  0  1  0  0  0  0  0  0  0  0  0
   -1.8360   -2.8020    2.5750 N   0  0  0  0  0  0  0  0  0  0  0  0
   -0.5770   -2.4010    2.0950 C   0  0  0  0  0  0  0  0  0  0  0  0
   -0.6520   -1.4000    1.2500 C   0  0  0  0  0  0  0  0  0  0  0  0
    0.4890   -0.7430    0.5660 C   0  0  0  0  0  0  0  0  0  0  0  0
    1.7360   -1.1670    0.7870 N   0  0  0  0  0  0  0  0  0  0  0  0
    2.8360   -0.6160    0.2060 C   0  0  0  0  0  0  0  0  0  0  0  0
    2.6850    0.4290   -0.6560 C   0  0  0  0  0  0  0  0  0  0  0  0
    3.7550    1.0200   -1.2710 C   0  0  0  0  0  0  0  0  0  0  0  0
    5.1080    0.5810   -1.0310 C   0  0  0  0  0  0  0  0  0  0  0  0
    5.6750    0.5660    0.2380 C   0  0  0  0  0  0  0  0  0  0  0  0
    6.9690    0.1850    0.4910 C   0  0  0  0  0  0  0  0  0  0  0  0
    7.7280   -0.2010   -0.6000 C   0  0  0  0  0  0  0  0  0  0  0  0
    7.1860   -0.1930   -1.8600 C   0  0  0  0  0  0  0  0  0  0  0  0
    5.8900    0.1890   -2.1120 C   0  0  0  0  0  0  0  0  0  0  0  0
    5.2280    0.1800   -3.7540 Cl  0  0  0  0  0  0  0  0  0  0  0  0
    3.5170    2.0450   -2.1140 N   0  0  0  0  0  0  0  0  0  0  0  0
    2.2610    2.4840   -2.3490 C   0  0  0  0  0  0  0  0  0  0  0  0
    1.2110    1.9070   -1.7460 N   0  0  0  0  0  0  0  0  0  0  0  0
    1.3830    0.8700   -0.8860 C   0  0  0  0  0  0  0  0  0  0  0  0
    0.3400    0.2810   -0.2790 N   0  0  0  0  0  0  0  0  0  0  0  0
   -2.0640   -1.0380    1.0970 C   0  0  0  0  0  0  0  0  0  0  0  0
   -2.5280   -0.2420    0.2220 N   0  0  0  0  0  0  0  0  0  0  0  0
   -3.8830    0.1300    0.0640 C   0  0  1  0  0  0  0  0  0  0  0  0
   -4.4140    1.0370    1.1650 C   0  0  0  0  0  0  0  0  0  0  0  0
   -5.2800    2.0840    0.4860 C   0  0  0  0  0  0  0  0  0  0  0  0
   -5.4360    1.6580   -0.9570 C   0  0  0  0  0  0  0  0  0  0  0  0
   -4.1040    0.9540   -1.2230 C   0  0  0  0  0  0  0  0  0  0  0  0
  2  1  1  6
  2  3  1  0
  2 23  1  0
  3  4  1  0
  4  5  2  0
  5  6  1  0
  5 23  1  0
  6  7  2  0
  6 22  1  0
  7  8  1  0
  8  9  2  0
  9 10  1  0
  9 21  1  0
 10 11  1  0
 10 18  2  0
 11 12  2  0
 11 16  1  0
 12 13  1  0
 13 14  2  0
 14 15  1  0
 15 16  2  0
 16 17  1  0
 18 19  1  0
 19 20  2  0
 20 21  1  0
 21 22  2  0
 23 24  2  3
 25 24  1  1
 25 26  1  0
 25 29  1  0
 26 27  1  0
 27 28  1  0
 28 29  1  0
M  END
