
     RDKit          3D

 29 33  0  0  0  0  0  0  0  0999 V2000
    7.5960   -0.6120   -0.2830 C   0  0  0  0  0  0  0  0  0  0  0  0
    6.1190   -0.3880   -0.3070 C   0  0  0  0  0  0  0  0  0  0  0  0
    5.2470   -1.4400   -0.4680 C   0  0  0  0  0  0  0  0  0  0  0  0
    3.8870   -1.3000   -0.4610 C   0  0  0  0  0  0  0  0  0  0  0  0
    3.0200   -2.3950   -0.5840 C   0  0  0  0  0  0  0  0  0  0  0  0
    1.7170   -2.2150   -0.5170 N   0  0  0  0  0  0  0  0  0  0  0  0
    1.0860   -1.0100   -0.3300 C   0  0  0  0  0  0  0  0  0  0  0  0
   -0.2810   -0.9400   -0.1200 N   0  0  0  0  0  0  0  0  0  0  0  0
   -0.8880   -1.5340    1.1140 C   0  0  0  0  0  0  0  0  0  0  0  0
   -1.1470   -0.3570    2.0130 C   0  0  0  0  0  0  0  0  0  0  0  0
   -1.6830    0.8760    1.3650 C   0  0  0  0  0  0  0  0  0  0  0  0
   -2.0440    0.6860   -0.0940 C   0  0  2  0  0  0  0  0  0  0  0  0
   -3.5070    0.7360   -0.1600 C   0  0  0  0  0  0  0  0  0  0  0  0
   -4.1320    1.9690   -0.0160 N   0  0  0  0  0  0  0  0  0  0  0  0
   -5.4450    2.1320   -0.1500 C   0  0  0  0  0  0  0  0  0  0  0  0
   -6.2810    1.0760   -0.4400 C   0  0  0  0  0  0  0  0  0  0  0  0
   -7.7560    1.2980   -0.5270 C   0  0  0  0  0  0  0  0  0  0  0  0
   -5.7020   -0.1140   -0.5830 N   0  0  0  0  0  0  0  0  0  0  0  0
   -6.2380   -1.3170   -0.8010 N   0  0  0  0  0  0  0  0  0  0  0  0
   -5.3020   -2.2670   -0.8130 C   0  0  0  0  0  0  0  0  0  0  0  0
   -4.1300   -1.6320   -0.5960 N   0  0  0  0  0  0  0  0  0  0  0  0
   -4.3740   -0.2980   -0.4560 C   0  0  0  0  0  0  0  0  0  0  0  0
   -1.3520   -0.3030   -0.8910 C   0  0  0  0  0  0  0  0  0  0  0  0
    1.9400    0.0640   -0.2210 C   0  0  0  0  0  0  0  0  0  0  0  0
    1.3470    1.6970   -0.0660 Cl  0  0  0  0  0  0  0  0  0  0  0  0
    3.3390   -0.0690   -0.2850 C   0  0  0  0  0  0  0  0  0  0  0  0
    4.1810    1.0160   -0.1180 C   0  0  0  0  0  0  0  0  0  0  0  0
    5.5630    0.8820   -0.1270 C   0  0  0  0  0  0  0  0  0  0  0  0
    6.3920    2.0750    0.0860 C   0  0  0  0  0  0  0  0  0  0  0  0
  1  2  1  0
  2  3  2  0
  2 28  1  0
  3  4  1  0
  4  5  2  0
  4 26  1  0
  5  6  1  0
  6  7  2  0
  7  8  1  0
  7 24  1  0
  8  9  1  0
  8 23  1  0
  9 10  1  0
 10 11  1  0
 11 12  1  0
 12 13  1  1
 12 23  1  0
 13 14  2  0
 13 22  1  0
 14 15  1  0
 15 16  2  0
 16 17  1  0
 16 18  1  0
 18 19  1  0
 18 22  1  0
 19 20  2  0
 20 21  1  0
 21 22  2  0
 24 25  1  0
 24 26  2  0
 26 27  1  0
 27 28  2  0
 28 29  1  0
M  END
