
     RDKit          3D

 29 33  0  0  0  0  0  0  0  0999 V2000
    2.1040    0.2300   -1.7010 C   0  0  0  0  0  0  0  0  0  0  0  0
    2.3160   -0.8200   -0.6440 C   0  0  2  0  0  0  0  0  0  0  0  0
    1.0200   -1.5090   -0.2660 C   0  0  0  0  0  0  0  0  0  0  0  0
    0.1170   -0.5410    0.3560 N   0  0  0  0  0  0  0  0  0  0  0  0
   -1.2400   -0.4780   -0.0300 C   0  0  0  0  0  0  0  0  0  0  0  0
   -2.0660    0.4130    0.5290 N   0  0  0  0  0  0  0  0  0  0  0  0
   -3.3870    0.5250    0.1990 C   0  0  0  0  0  0  0  0  0  0  0  0
   -4.2120    1.5170    0.8520 C   0  0  0  0  0  0  0  0  0  0  0  0
   -3.7020    2.3860    1.8330 C   0  0  0  0  0  0  0  0  0  0  0  0
   -4.6770    3.2010    2.2730 N   0  0  0  0  0  0  0  0  0  0  0  0
   -5.7880    2.8700    1.5970 C   0  0  0  0  0  0  0  0  0  0  0  0
   -5.4860    1.8660    0.7590 N   0  0  0  0  0  0  0  0  0  0  0  0
   -3.8860   -0.3300   -0.7620 C   0  0  0  0  0  0  0  0  0  0  0  0
   -5.1990   -0.2990   -1.1640 C   0  0  0  0  0  0  0  0  0  0  0  0
   -5.6970   -1.1610   -2.1300 C   0  0  0  0  0  0  0  0  0  0  0  0
   -4.8260   -2.0580   -2.6800 C   0  0  0  0  0  0  0  0  0  0  0  0
   -3.5110   -2.1110   -2.2970 C   0  0  0  0  0  0  0  0  0  0  0  0
   -3.0430   -1.2460   -1.3380 C   0  0  0  0  0  0  0  0  0  0  0  0
   -1.7490   -1.2860   -0.9500 N   0  0  0  0  0  0  0  0  0  0  0  0
    0.6590    0.3310    1.3570 C   0  0  0  0  0  0  0  0  0  0  0  0
    2.0960    0.0330    1.6790 C   0  0  0  0  0  0  0  0  0  0  0  0
    2.9070   -0.2260    0.5140 N   0  0  0  0  0  0  0  0  0  0  0  0
    4.3080    0.0910    0.4710 C   0  0  0  0  0  0  0  0  0  0  0  0
    4.9920    0.5590    1.5660 C   0  0  0  0  0  0  0  0  0  0  0  0
    6.3460    0.8560    1.4670 C   0  0  0  0  0  0  0  0  0  0  0  0
    7.0540    0.7000    0.2950 C   0  0  0  0  0  0  0  0  0  0  0  0
    8.7670    1.0800    0.1820 Cl  0  0  0  0  0  0  0  0  0  0  0  0
    6.3550    0.2320   -0.7870 C   0  0  0  0  0  0  0  0  0  0  0  0
    5.0250   -0.0600   -0.6940 C   0  0  0  0  0  0  0  0  0  0  0  0
  2  1  1  6
  2  3  1  0
  2 22  1  0
  3  4  1  0
  4  5  1  0
  4 20  1  0
  5  6  2  0
  5 19  1  0
  6  7  1  0
  7  8  1  0
  7 13  2  0
  8  9  2  0
  8 12  1  0
  9 10  1  0
 10 11  1  0
 11 12  2  0
 13 14  1  0
 13 18  1  0
 14 15  2  0
 15 16  1  0
 16 17  2  0
 17 18  1  0
 18 19  2  0
 20 21  1  0
 21 22  1  0
 22 23  1  0
 23 24  2  0
 23 29  1  0
 24 25  1  0
 25 26  2  0
 26 27  1  0
 26 28  1  0
 28 29  2  0
M  END
