
     RDKit          3D

 12 12  0  0  0  0  0  0  0  0999 V2000
   -2.0730   -0.1090   -1.4250 C   0  0  0  0  0  0  0  0  0  0  0  0
   -1.5330   -0.2150   -0.0330 C   0  0  2  0  0  0  0  0  0  0  0  0
   -2.3440   -1.0800    0.7050 O   0  0  0  0  0  0  0  0  0  0  0  0
   -1.5840    1.1270    0.6560 C   0  0  0  0  0  0  0  0  0  0  0  0
   -0.8240    2.0930    0.0360 O   0  0  0  0  0  0  0  0  0  0  0  0
   -0.1360   -0.7850   -0.0630 C   0  0  1  0  0  0  0  0  0  0  0  0
    0.8190    0.0110   -0.8800 C   0  0  0  0  0  0  0  0  0  0  0  0
    1.5330    0.9270   -0.1120 O   0  0  0  0  0  0  0  0  0  0  0  0
    2.3770    0.2030    0.7280 C   0  0  2  0  0  0  0  0  0  0  0  0
    3.6540    0.0730    0.1900 O   0  0  0  0  0  0  0  0  0  0  0  0
    1.7750   -1.1420    1.0820 C   0  0  0  0  0  0  0  0  0  0  0  0
    0.3880   -0.9160    1.2250 O   0  0  0  0  0  0  0  0  0  0  0  0
  2  1  1  6
  2  3  1  0
  2  4  1  0
  2  6  1  0
  4  5  1  0
  6  7  1  6
  6 12  1  0
  7  8  1  0
  8  9  1  0
  9 10  1  6
  9 11  1  0
 11 12  1  0
M  END
