
     RDKit          3D

 12 13  0  0  0  0  0  0  0  0999 V2000
    3.3010   -0.2920    0.4690 O   0  0  0  0  0  0  0  0  0  0  0  0
    2.2880   -0.4480   -0.4860 C   0  0  0  0  0  0  0  0  0  0  0  0
    0.9860   -0.1160    0.2040 C   0  0  1  0  0  0  0  0  0  0  0  0
    0.7610   -0.9530    1.2690 O   0  0  0  0  0  0  0  0  0  0  0  0
    0.9370    1.2120    0.6150 O   0  0  0  0  0  0  0  0  0  0  0  0
   -0.4160    1.4860    0.8080 C   0  0  0  0  0  0  0  0  0  0  0  0
   -1.1880    0.6750   -0.1820 C   0  0  2  0  0  0  0  0  0  0  0  0
   -1.8960    1.4390   -1.0810 O   0  0  0  0  0  0  0  0  0  0  0  0
   -2.0590   -0.3800    0.4450 C   0  0  0  0  0  0  0  0  0  0  0  0
   -1.2880   -1.5580    0.4830 O   0  0  0  0  0  0  0  0  0  0  0  0
   -0.7120   -1.5350   -0.8080 C   0  0  0  0  0  0  0  0  0  0  0  0
   -0.1060   -0.1630   -0.8320 C   0  0  2  0  0  0  0  0  0  0  0  0
  1  2  1  0
  2  3  1  0
  3  4  1  1
  3  5  1  0
  3 12  1  0
  5  6  1  0
  6  7  1  0
  7  8  1  6
  7  9  1  0
  7 12  1  0
  9 10  1  0
 10 11  1  0
 12 11  1  1
M  END
