
     RDKit          3D

 12 12  0  0  0  0  0  0  0  0999 V2000
   -0.1210   -1.0990   -1.6460 C   0  0  0  0  0  0  0  0  0  0  0  0
   -0.3340   -0.2170   -0.4220 C   0  0  1  0  0  0  0  0  0  0  0  0
   -1.8050   -0.2290   -0.0860 C   0  0  1  0  0  0  0  0  0  0  0  0
   -2.2240   -1.5250    0.2080 O   0  0  0  0  0  0  0  0  0  0  0  0
   -2.1470    0.6500    1.0810 C   0  0  0  0  0  0  0  0  0  0  0  0
   -1.7830    1.9590    0.9160 O   0  0  0  0  0  0  0  0  0  0  0  0
    0.4650   -0.8140    0.6990 C   0  0  0  0  0  0  0  0  0  0  0  0
    1.5270    0.0180    1.0800 O   0  0  0  0  0  0  0  0  0  0  0  0
    2.3240    0.2680   -0.0300 C   0  0  2  0  0  0  0  0  0  0  0  0
    3.3790    1.0710    0.3980 O   0  0  0  0  0  0  0  0  0  0  0  0
    1.4790    0.9240   -1.0780 C   0  0  0  0  0  0  0  0  0  0  0  0
    0.1440    1.0290   -0.7200 O   0  0  0  0  0  0  0  0  0  0  0  0
  2  1  1  6
  2  3  1  0
  2  7  1  0
  2 12  1  0
  3  4  1  1
  3  5  1  0
  5  6  1  0
  7  8  1  0
  8  9  1  0
  9 10  1  1
  9 11  1  0
 11 12  1  0
M  END
