
     RDKit          3D

 26 28  0  0  0  0  0  0  0  0999 V2000
    2.7650   -2.6000    1.0850 C   0  0  0  0  0  0  0  0  0  0  0  0
    2.1390   -1.5200    0.3080 C   0  0  0  0  0  0  0  0  0  0  0  0
    1.6160   -1.8110   -0.8200 O   0  0  0  0  0  0  0  0  0  0  0  0
    2.0820   -0.1420    0.7600 C   0  0  0  0  0  0  0  0  0  0  0  0
    2.9840    0.8520    0.5040 C   0  0  0  0  0  0  0  0  0  0  0  0
    4.2350    0.8270   -0.2520 C   0  0  0  0  0  0  0  0  0  0  0  0
    4.8840    1.9250   -0.4080 O   0  0  0  0  0  0  0  0  0  0  0  0
    4.8400   -0.3560   -0.8670 C   0  0  2  0  0  0  0  0  0  0  0  0
    5.6240   -1.0560    0.2390 C   0  0  0  0  0  0  0  0  0  0  0  0
    6.8570   -0.2140    0.4180 C   0  0  0  0  0  0  0  0  0  0  0  0
    7.0270    0.4650   -0.9000 C   0  0  0  0  0  0  0  0  0  0  0  0
    5.9560    0.0320   -1.7430 N   0  0  0  0  0  0  0  0  0  0  0  0
    2.4700    1.9900    1.1500 C   0  0  0  0  0  0  0  0  0  0  0  0
    1.3220    1.6510    1.7480 N   0  0  0  0  0  0  0  0  0  0  0  0
    1.0310    0.3670    1.5480 C   0  0  0  0  0  0  0  0  0  0  0  0
   -0.0880   -0.3720    2.0100 N   0  0  0  0  0  0  0  0  0  0  0  0
   -1.1900   -0.2980    1.3620 C   0  0  0  0  0  0  0  0  0  0  0  0
   -1.2730    0.5470    0.1600 C   0  0  0  0  0  0  0  0  0  0  0  0
   -2.6010    1.0570    0.0210 N   0  0  0  0  0  0  0  0  0  0  0  0
   -3.3310    0.1650   -0.8710 C   0  0  1  0  0  0  0  0  0  0  0  0
   -4.0860   -0.8020    0.0020 C   0  0  0  0  0  0  0  0  0  0  0  0
   -5.3880   -1.1400   -0.6920 C   0  0  0  0  0  0  0  0  0  0  0  0
   -6.2520    0.1050   -0.6500 C   0  0  1  0  0  0  0  0  0  0  0  0
   -6.9130    0.2580    0.7060 C   0  0  0  0  0  0  0  0  0  0  0  0
   -5.4660    1.3480   -0.9350 C   0  0  0  0  0  0  0  0  0  0  0  0
   -4.2320    1.0060   -1.7400 C   0  0  0  0  0  0  0  0  0  0  0  0
  1  2  1  0
  2  3  2  0
  2  4  1  0
  4  5  1  0
  4 15  2  0
  5  6  1  0
  5 13  2  0
  6  7  2  0
  8  6  1  1
  8  9  1  0
  8 12  1  0
  9 10  1  0
 10 11  1  0
 11 12  1  0
 13 14  1  0
 14 15  1  0
 15 16  1  0
 16 17  2  3
 17 18  1  0
 18 19  1  0
 20 19  1  1
 20 21  1  0
 20 26  1  0
 21 22  1  0
 22 23  1  0
 23 24  1  1
 23 25  1  0
 25 26  1  0
M  CHG  1  19   1
M  END
