
     RDKit          3D

 16 16  0  0  0  0  0  0  0  0999 V2000
    2.7440   -1.6690   -1.1560 C   0  0  0  0  0  0  0  0  0  0  0  0
    1.8580   -0.9100   -0.2960 N   0  0  0  0  0  0  0  0  0  0  0  0
    0.9420   -0.3140   -1.1090 O   0  0  0  0  0  0  0  0  0  0  0  0
   -0.0320    0.3680   -0.4320 C   0  0  1  0  0  0  0  0  0  0  0  0
   -0.6700    1.2120   -1.3720 O   0  0  0  0  0  0  0  0  0  0  0  0
    0.2220    2.0350   -1.8750 O   0  0  0  0  0  0  0  0  0  0  0  0
   -0.2340    3.2680   -1.9570 F   0  0  0  0  0  0  0  0  0  0  0  0
   -1.0150   -0.5660   -0.0610 O   0  0  0  0  0  0  0  0  0  0  0  0
   -2.0520    0.0030    0.6290 C   0  0  2  0  0  0  0  0  0  0  0  0
   -2.7030    0.9950   -0.2030 N   0  0  0  0  0  0  0  0  0  0  0  0
   -1.6400    0.6150    1.8050 O   0  0  0  0  0  0  0  0  0  0  0  0
   -3.2510   -1.3400    1.0780 P   0  0  0  0  0  0  0  0  0  0  0  0
    0.3590    1.0360    0.6840 O   0  0  0  0  0  0  0  0  0  0  0  0
    1.4740    1.7170    0.5680 O   0  0  0  0  0  0  0  0  0  0  0  0
    2.7440    0.5090    0.4180 P   0  0  0  0  0  0  0  0  0  0  0  0
    3.4630    0.1360    1.9120 O   0  0  0  0  0  0  0  0  0  0  0  0
  1  2  1  0
  2  3  1  0
  2 15  1  0
  3  4  1  0
  4  5  1  6
  4  8  1  0
  4 13  1  0
  5  6  1  0
  6  7  1  0
  8  9  1  0
  9 10  1  6
  9 11  1  0
  9 12  1  0
 13 14  1  0
 14 15  1  0
 15 16  1  0
M  END
