
     RDKit          3D

 16 16  0  0  0  0  0  0  0  0999 V2000
    2.9710    1.6450   -0.3850 N   0  0  0  0  0  0  0  0  0  0  0  0
    2.2920    0.4980    0.1810 C   0  0  0  0  0  0  0  0  0  0  0  0
    0.9870    0.3870   -0.2660 O   0  0  0  0  0  0  0  0  0  0  0  0
    0.4360   -0.7490    0.3440 C   0  0  2  0  0  0  0  0  0  0  0  0
    0.4840   -0.5630    1.7080 O   0  0  0  0  0  0  0  0  0  0  0  0
    1.2400   -1.8180    0.0120 O   0  0  0  0  0  0  0  0  0  0  0  0
   -0.9730   -0.9950   -0.1020 C   0  0  2  0  0  0  0  0  0  0  0  0
   -1.8170    0.0490    0.2480 O   0  0  0  0  0  0  0  0  0  0  0  0
   -1.4630    1.1930   -0.2740 O   0  0  0  0  0  0  0  0  0  0  0  0
   -2.5560    1.7870   -0.7160 O   0  0  0  0  0  0  0  0  0  0  0  0
   -2.5490    3.0770   -0.5020 O   0  0  0  0  0  0  0  0  0  0  0  0
   -3.1130    3.4160    0.6450 F   0  0  0  0  0  0  0  0  0  0  0  0
   -1.4450   -2.1790    0.5790 N   0  0  0  0  0  0  0  0  0  0  0  0
   -2.9890   -2.6770   -0.2560 P   0  0  0  0  0  0  0  0  0  0  0  0
   -2.4740   -1.8220   -2.0220 P   0  0  0  0  0  0  0  0  0  0  0  0
   -0.9450   -1.2450   -1.4520 O   0  0  0  0  0  0  0  0  0  0  0  0
  1  2  1  0
  2  3  1  0
  3  4  1  0
  4  5  1  1
  4  6  1  0
  4  7  1  0
  7  8  1  6
  7 13  1  0
  7 16  1  0
  8  9  1  0
  9 10  1  0
 10 11  1  0
 11 12  1  0
 13 14  1  0
 14 15  2  0
 15 16  1  0
M  END
