
     RDKit          3D

 16 17  0  0  0  0  0  0  0  0999 V2000
    4.1070   -0.5980    0.6960 O   0  0  0  0  0  0  0  0  0  0  0  0
    3.1510    0.3910    0.4720 C   0  0  0  0  0  0  0  0  0  0  0  0
    2.0980   -0.1800   -0.2380 O   0  0  0  0  0  0  0  0  0  0  0  0
    0.8510    0.9570   -0.5740 P   0  0  0  0  0  0  0  0  0  0  0  0
    0.5810    1.0700   -2.2830 O   0  0  0  0  0  0  0  0  0  0  0  0
   -0.6710    0.4650    0.3380 C   0  0  2  0  0  0  0  0  0  0  0  0
   -0.9060    1.2150    1.4650 O   0  0  0  0  0  0  0  0  0  0  0  0
    0.1230    1.0870    2.3120 F   0  0  0  0  0  0  0  0  0  0  0  0
   -0.8030   -1.0520    0.5480 C   0  0  2  0  0  0  0  0  0  0  0  0
   -0.2510   -1.7130   -0.4970 O   0  0  0  0  0  0  0  0  0  0  0  0
   -0.8970   -2.8390   -0.7200 O   0  0  0  0  0  0  0  0  0  0  0  0
   -2.5220   -2.1730   -0.8750 P   0  0  0  0  0  0  0  0  0  0  0  0
   -2.2000   -0.7810    0.2570 N   0  0  0  0  0  0  0  0  0  0  0  0
   -1.8680    0.3630   -0.4790 N   0  0  0  0  0  0  0  0  0  0  0  0
   -2.7900    1.3270   -0.2450 O   0  0  0  0  0  0  0  0  0  0  0  0
   -2.3450    2.5240   -0.5480 O   0  0  0  0  0  0  0  0  0  0  0  0
  1  2  1  0
  2  3  1  0
  3  4  1  0
  4  5  1  0
  4  6  1  0
  6  7  1  1
  6  9  1  0
  6 14  1  0
  7  8  1  0
  9 10  1  6
  9 13  1  0
 10 11  1  0
 11 12  1  0
 12 13  1  0
 13 14  1  0
 14 15  1  0
 15 16  1  0
M  END
