
     RDKit          3D

 16 16  0  0  0  0  0  0  0  0999 V2000
   -0.0110    1.9960    0.3500 N   0  0  0  0  0  0  0  0  0  0  0  0
    0.6620    0.5520    1.1730 P   0  0  0  0  0  0  0  0  0  0  0  0
    2.4090    0.5950    1.0040 O   0  0  0  0  0  0  0  0  0  0  0  0
    2.9640    0.0700   -0.1520 C   0  0  0  0  0  0  0  0  0  0  0  0
    4.2400    0.2520   -0.3310 N   0  0  0  0  0  0  0  0  0  0  0  0
    4.9760    0.9160    0.5650 F   0  0  0  0  0  0  0  0  0  0  0  0
    2.2280   -0.6230   -1.1020 O   0  0  0  0  0  0  0  0  0  0  0  0
    0.8950   -0.8950   -1.0610 C   0  0  0  0  0  0  0  0  0  0  0  0
    0.2720   -1.0760   -2.1140 O   0  0  0  0  0  0  0  0  0  0  0  0
    0.1270   -0.9880    0.2300 C   0  0  1  0  0  0  0  0  0  0  0  0
    0.4990   -2.1040    0.9600 O   0  0  0  0  0  0  0  0  0  0  0  0
   -1.6760   -0.9130   -0.0340 P   0  0  0  0  0  0  0  0  0  0  0  0
   -2.1320   -0.7090   -1.6840 O   0  0  0  0  0  0  0  0  0  0  0  0
   -2.3860    0.2830    0.9980 O   0  0  0  0  0  0  0  0  0  0  0  0
   -3.6210    0.5500    0.7010 O   0  0  0  0  0  0  0  0  0  0  0  0
   -3.7890    0.4860   -0.5900 O   0  0  0  0  0  0  0  0  0  0  0  0
  1  2  1  0
  2  3  1  0
  2 10  1  0
  3  4  1  0
  4  5  2  3
  4  7  1  0
  5  6  1  0
  7  8  1  0
  8  9  2  0
  8 10  1  0
 10 11  1  1
 10 12  1  0
 12 13  1  0
 12 14  1  0
 14 15  1  0
 15 16  1  0
M  END
