
     RDKit          3D

 15 14  0  0  0  0  0  0  0  0999 V2000
   -1.5040    1.3830   -0.7630 C   0  0  0  0  0  0  0  0  0  0  0  0
   -1.9570    0.3520    0.2330 C   0  0  1  0  0  0  0  0  0  0  0  0
   -2.6320   -0.6790   -0.3840 O   0  0  0  0  0  0  0  0  0  0  0  0
   -0.7980   -0.1600    0.8460 O   0  0  0  0  0  0  0  0  0  0  0  0
   -0.0280   -0.7070   -0.1110 N   0  0  0  0  0  0  0  0  0  0  0  0
    1.6160   -0.0040    0.0200 P   0  0  0  0  0  0  0  0  0  0  0  0
    2.9460   -0.9900    0.1190 C   0  0  0  0  0  0  0  0  0  0  0  0
    2.7740   -2.3480    0.1000 O   0  0  0  0  0  0  0  0  0  0  0  0
    4.5840   -0.1830    0.2510 P   0  0  0  0  0  0  0  0  0  0  0  0
    4.7820    1.0630   -0.9410 O   0  0  0  0  0  0  0  0  0  0  0  0
    5.8730   -1.3420    0.1670 O   0  0  0  0  0  0  0  0  0  0  0  0
   -2.7420    0.9550    1.3080 N   0  0  0  0  0  0  0  0  0  0  0  0
   -3.1310    0.0140    2.1790 O   0  0  0  0  0  0  0  0  0  0  0  0
   -3.8040    1.6350    0.8400 O   0  0  0  0  0  0  0  0  0  0  0  0
   -4.7240    0.8210    0.4120 O   0  0  0  0  0  0  0  0  0  0  0  0
  2  1  1  6
  2  3  1  0
  2  4  1  0
  2 12  1  0
  4  5  1  0
  5  6  1  0
  6  7  2  3
  7  8  1  0
  7  9  1  0
  9 10  1  0
  9 11  1  0
 12 13  1  0
 12 14  1  0
 14 15  1  0
M  END
