
     RDKit          3D

 15 15  0  0  0  0  0  0  0  0999 V2000
   -2.0300    0.3500   -1.1810 N   0  0  0  0  0  0  0  0  0  0  0  0
   -1.0750    0.3110   -0.1070 C   0  0  2  0  0  0  0  0  0  0  0  0
   -1.4890    0.9760    1.0320 O   0  0  0  0  0  0  0  0  0  0  0  0
   -2.5800    0.5120    1.5460 O   0  0  0  0  0  0  0  0  0  0  0  0
    0.1040    0.9450   -0.5610 O   0  0  0  0  0  0  0  0  0  0  0  0
    0.9660    1.1230    0.3820 O   0  0  0  0  0  0  0  0  0  0  0  0
    1.9150    0.1080    0.4900 C   0  0  1  0  0  0  0  0  0  0  0  0
    3.0620    0.3580   -0.2020 F   0  0  0  0  0  0  0  0  0  0  0  0
    2.2290   -0.1340    2.3150 P   0  0  0  0  0  0  0  0  0  0  0  0
    2.1910    1.1320    3.2290 O   0  0  0  0  0  0  0  0  0  0  0  0
    1.0670   -1.4580   -0.1060 P   0  0  0  0  0  0  0  0  0  0  0  0
    1.3230   -1.5140   -1.8270 O   0  0  0  0  0  0  0  0  0  0  0  0
    2.3220   -0.7570   -2.1850 O   0  0  0  0  0  0  0  0  0  0  0  0
   -0.7110   -1.1000    0.1370 C   0  0  0  0  0  0  0  0  0  0  0  0
   -1.4740   -1.9500    0.4620 O   0  0  0  0  0  0  0  0  0  0  0  0
  2  1  1  6
  2  3  1  0
  2  5  1  0
  2 14  1  0
  3  4  1  0
  5  6  1  0
  6  7  1  0
  7  8  1  6
  7  9  1  0
  7 11  1  0
  9 10  2  0
 11 12  1  0
 11 14  1  0
 12 13  1  0
 14 15  2  0
M  END
