
     RDKit          3D

 28 29  0  0  0  0  0  0  0  0999 V2000
   -7.1490   -2.6740   -1.4100 O   0  0  0  0  0  0  0  0  0  0  0  0
   -6.2420   -1.8560   -1.1120 C   0  0  0  0  0  0  0  0  0  0  0  0
   -6.3470   -0.5510   -1.5140 C   0  0  0  0  0  0  0  0  0  0  0  0
   -5.3420    0.3350   -1.1800 C   0  0  0  0  0  0  0  0  0  0  0  0
   -4.2510   -0.0520   -0.4620 N   0  0  0  0  0  0  0  0  0  0  0  0
   -3.2540    0.9140   -0.1530 C   0  0  1  0  0  0  0  0  0  0  0  0
   -2.9780    1.0950    1.3050 C   0  0  0  0  0  0  0  0  0  0  0  0
   -1.4920    1.4720    1.3020 C   0  0  2  0  0  0  0  0  0  0  0  0
   -1.2600    2.6190    2.0230 O   0  0  0  0  0  0  0  0  0  0  0  0
   -1.2350    1.6450   -0.1800 C   0  0  1  0  0  0  0  0  0  0  0  0
    0.2280    1.5090   -0.5170 C   0  0  0  0  0  0  0  0  0  0  0  0
    0.7640    0.3230   -0.0180 O   0  0  0  0  0  0  0  0  0  0  0  0
    2.3980    0.1710   -0.3950 P   0  0  1  0  0  0  0  0  0  0  0  0
    2.6460   -1.0590   -1.2630 O   0  0  0  0  0  0  0  0  0  0  0  0
    2.8430    1.5160   -1.3180 O   0  0  0  0  0  0  0  0  0  0  0  0
    3.3250    0.0570    1.0700 N   0  0  0  0  0  0  0  0  0  0  0  0
    4.6770   -1.0490    0.8150 P   0  0  1  0  0  0  0  0  0  0  0  0
    5.7850   -0.6930    1.7530 O   0  0  0  0  0  0  0  0  0  0  0  0
    4.1600   -2.6450    1.0550 O   0  0  0  0  0  0  0  0  0  0  0  0
    5.2380   -0.9070   -0.7640 O   0  0  0  0  0  0  0  0  0  0  0  0
    6.9210   -0.9960   -0.7980 P   0  0  2  0  0  0  0  0  0  0  0  0
    7.4400   -0.6390   -2.1700 O   0  0  0  0  0  0  0  0  0  0  0  0
    7.3910   -2.5680   -0.4150 O   0  0  0  0  0  0  0  0  0  0  0  0
    7.5010    0.1010    0.3670 O   0  0  0  0  0  0  0  0  0  0  0  0
   -1.9950    0.5970   -0.7120 O   0  0  0  0  0  0  0  0  0  0  0  0
   -4.1840   -1.3400   -0.0860 C   0  0  0  0  0  0  0  0  0  0  0  0
   -3.1650   -1.6860    0.5800 O   0  0  0  0  0  0  0  0  0  0  0  0
   -5.1480   -2.1980   -0.4050 N   0  0  0  0  0  0  0  0  0  0  0  0
  1  2  2  0
  2  3  1  0
  2 28  1  0
  3  4  2  0
  4  5  1  0
  6  5  1  1
  5 26  1  0
  6  7  1  0
  6 25  1  0
  7  8  1  0
  8  9  1  1
  8 10  1  0
 10 11  1  1
 10 25  1  0
 11 12  1  0
 12 13  1  0
 13 14  2  0
 13 15  1  6
 13 16  1  0
 16 17  1  0
 17 18  2  0
 17 19  1  1
 17 20  1  0
 20 21  1  0
 21 22  2  0
 21 23  1  1
 21 24  1  0
 26 27  2  0
 26 28  1  0
M  END
