
     RDKit          3D

 15 16  0  0  0  0  0  0  0  0999 V2000
   -3.9790   -0.2390    0.3300 O   0  0  0  0  0  0  0  0  0  0  0  0
   -2.5810    0.8120    0.4370 P   0  0  0  0  0  0  0  0  0  0  0  0
   -2.8490    2.2110   -0.5610 O   0  0  0  0  0  0  0  0  0  0  0  0
   -1.1360   -0.0960   -0.2000 C   0  0  2  0  0  0  0  0  0  0  0  0
    0.0830    0.4670   -0.0300 O   0  0  0  0  0  0  0  0  0  0  0  0
    0.3860    0.6600    1.2330 O   0  0  0  0  0  0  0  0  0  0  0  0
    1.6760    0.9830    1.3190 N   0  0  0  0  0  0  0  0  0  0  0  0
    2.5450   -0.0500    0.7780 C   0  0  0  0  0  0  0  0  0  0  0  0
    3.4070    0.7200   -0.1030 N   0  0  0  0  0  0  0  0  0  0  0  0
    2.6080    1.7480   -0.4460 O   0  0  0  0  0  0  0  0  0  0  0  0
    1.9860    2.1190    0.6540 O   0  0  0  0  0  0  0  0  0  0  0  0
   -1.3380   -0.7290   -1.4300 O   0  0  0  0  0  0  0  0  0  0  0  0
   -0.5590   -1.7510   -1.4930 O   0  0  0  0  0  0  0  0  0  0  0  0
   -0.6990   -2.7730   -0.5830 C   0  0  0  0  0  0  0  0  0  0  0  0
   -1.2270   -1.7990    0.8450 P   0  0  0  0  0  0  0  0  0  0  0  0
  1  2  1  0
  2  3  1  0
  2  4  1  0
  4  5  1  6
  4 12  1  0
  4 15  1  0
  5  6  1  0
  6  7  1  0
  7  8  1  0
  7 11  1  0
  8  9  1  0
  9 10  1  0
 10 11  1  0
 12 13  1  0
 13 14  1  0
 14 15  2  0
M  END
