
     RDKit          3D

 10 10  0  0  0  0  0  0  0  0999 V2000
   -3.2520   -0.9780    0.1010 C   0  0  0  0  0  0  0  0  0  0  0  0
   -1.8880   -0.3840   -0.0710 C   0  0  0  0  0  0  0  0  0  0  0  0
   -0.9150   -1.2680    0.0940 C   0  0  0  0  0  0  0  0  0  0  0  0
    0.5210   -0.9530   -0.0190 C   0  0  0  0  0  0  0  0  0  0  0  0
    1.1420    0.1520   -0.3430 C   0  0  0  0  0  0  0  0  0  0  0  0
    2.6100    0.0960   -0.3510 C   0  0  0  0  0  0  0  0  0  0  0  0
    3.1560   -1.1810    0.0030 N   0  0  0  0  0  0  0  0  0  0  0  0
    0.5510    1.4510   -0.7020 C   0  0  0  0  0  0  0  0  0  0  0  0
   -0.6830    1.7810    0.0990 C   0  0  0  0  0  0  0  0  0  0  0  0
   -1.9090    1.0490   -0.3850 C   0  0  0  0  0  0  0  0  0  0  0  0
  1  2  1  0
  2  3  2  0
  2 10  1  0
  3  4  1  0
  4  5  2  0
  5  6  1  0
  5  8  1  0
  6  7  1  0
  8  9  1  0
  9 10  1  0
M  CHG  1   7   1
M  END
