
     RDKit          3D

 11 11  0  0  0  0  0  0  0  0999 V2000
    0.2810    2.2840    1.0720 C   0  0  0  0  0  0  0  0  0  0  0  0
    0.8640    1.4460    0.0100 C   0  0  0  0  0  0  0  0  0  0  0  0
    0.3960    0.3420   -0.4920 C   0  0  0  0  0  0  0  0  0  0  0  0
    1.1640   -0.2560   -1.5020 O   0  0  0  0  0  0  0  0  0  0  0  0
    2.5580   -0.1260   -1.5750 C   0  0  0  0  0  0  0  0  0  0  0  0
    3.2680   -0.6640   -0.3510 C   0  0  0  0  0  0  0  0  0  0  0  0
   -0.8500   -0.2750   -0.0640 C   0  0  0  0  0  0  0  0  0  0  0  0
   -1.2850   -1.4190   -0.5990 C   0  0  0  0  0  0  0  0  0  0  0  0
   -2.5620   -1.8180    0.0160 C   0  0  0  0  0  0  0  0  0  0  0  0
   -3.1270   -0.5190    0.5100 C   0  0  0  0  0  0  0  0  0  0  0  0
   -1.8460    0.1970    0.9420 C   0  0  0  0  0  0  0  0  0  0  0  0
  1  2  1  0
  2  3  2  3
  3  4  1  0
  3  7  1  0
  4  5  1  0
  5  6  1  0
  7  8  2  0
  7 11  1  0
  8  9  1  0
  9 10  1  0
 10 11  1  0
M  END
