
     RDKit          3D

 11 11  0  0  0  0  0  0  0  0999 V2000
    3.1550    0.8900   -0.7800 C   0  0  0  0  0  0  0  0  0  0  0  0
    2.9480   -0.4490   -0.1780 C   0  0  0  0  0  0  0  0  0  0  0  0
    1.5310   -0.7720    0.1790 C   0  0  1  0  0  0  0  0  0  0  0  0
    0.9090    0.1490    1.1650 C   0  0  0  0  0  0  0  0  0  0  0  0
   -0.4710   -0.4310    1.4870 C   0  0  0  0  0  0  0  0  0  0  0  0
   -1.3710   -0.3250    0.2720 C   0  0  1  0  0  0  0  0  0  0  0  0
   -1.9710   -1.5750   -0.0050 O   0  0  0  0  0  0  0  0  0  0  0  0
   -2.4330    0.6880    0.6110 C   0  0  0  0  0  0  0  0  0  0  0  0
   -3.4170    0.9190   -0.4900 C   0  0  0  0  0  0  0  0  0  0  0  0
   -0.5630    0.0430   -0.9300 C   0  0  0  0  0  0  0  0  0  0  0  0
    0.6330   -0.8810   -1.0250 C   0  0  0  0  0  0  0  0  0  0  0  0
  1  2  1  0
  3  2  1  6
  3  4  1  0
  3 11  1  0
  4  5  1  0
  5  6  1  0
  6  7  1  6
  6  8  1  0
  6 10  1  0
  8  9  1  0
 10 11  1  0
M  END
