
     RDKit          3D

 10 10  0  0  0  0  0  0  0  0999 V2000
    3.6160    0.1470    0.2790 C   0  0  0  0  0  0  0  0  0  0  0  0
    2.4000    0.3230    0.8130 C   0  0  0  0  0  0  0  0  0  0  0  0
    1.3970   -0.7740    0.8060 C   0  0  0  0  0  0  0  0  0  0  0  0
    0.1860   -0.2560    0.0220 C   0  0  1  0  0  0  0  0  0  0  0  0
    0.6670    0.0520   -1.2880 N   0  0  0  0  0  0  0  0  0  0  0  0
   -0.8970   -1.2840    0.0620 C   0  0  0  0  0  0  0  0  0  0  0  0
   -2.0240   -0.8500   -0.8690 C   0  0  0  0  0  0  0  0  0  0  0  0
   -2.3970    0.5690   -0.6410 C   0  0  0  0  0  0  0  0  0  0  0  0
   -1.8600    1.0420    0.6890 C   0  0  0  0  0  0  0  0  0  0  0  0
   -0.3710    0.9800    0.7340 C   0  0  0  0  0  0  0  0  0  0  0  0
  1  2  2  0
  2  3  1  0
  3  4  1  0
  4  5  1  6
  4  6  1  0
  4 10  1  0
  6  7  1  0
  7  8  1  0
  8  9  1  0
  9 10  1  0
M  CHG  1   5   1
M  END
