
     RDKit          3D

 10 10  0  0  0  0  0  0  0  0999 V2000
    3.2130    0.0150   -0.0020 N   0  0  0  0  0  0  0  0  0  0  0  0
    2.1620   -0.5650   -0.8540 C   0  0  0  0  0  0  0  0  0  0  0  0
    0.8650   -0.1560   -0.1830 C   0  0  0  0  0  0  0  0  0  0  0  0
    0.2070   -1.2980    0.1490 C   0  0  0  0  0  0  0  0  0  0  0  0
   -1.0780   -1.4910    0.8110 C   0  0  0  0  0  0  0  0  0  0  0  0
   -2.3840   -1.1740    0.2090 C   0  0  0  0  0  0  0  0  0  0  0  0
   -2.6930    0.3630    0.1250 C   0  0  0  0  0  0  0  0  0  0  0  0
   -1.3940    0.8730   -0.0280 C   0  0  0  0  0  0  0  0  0  0  0  0
   -0.5360    1.9910   -0.1700 C   0  0  0  0  0  0  0  0  0  0  0  0
    0.8660    1.3100   -0.1690 C   0  0  0  0  0  0  0  0  0  0  0  0
  1  2  1  0
  2  3  1  0
  3  4  2  0
  3 10  1  0
  4  5  1  0
  5  6  1  0
  6  7  1  0
  7  8  1  0
  8  9  1  0
  9 10  1  0
M  CHG  1   1   1
M  END
