
     RDKit          3D

 10 10  0  0  0  0  0  0  0  0999 V2000
    2.4310    0.6650   -0.1270 C   0  0  0  0  0  0  0  0  0  0  0  0
    0.9700    0.4060   -0.0340 C   0  0  0  0  0  0  0  0  0  0  0  0
    0.2900    1.5420   -0.0710 C   0  0  0  0  0  0  0  0  0  0  0  0
   -1.1390    1.9160   -0.0210 C   0  0  0  0  0  0  0  0  0  0  0  0
   -2.2950    1.2690   -0.0130 C   0  0  0  0  0  0  0  0  0  0  0  0
   -2.6500   -0.1460   -0.0530 C   0  0  0  0  0  0  0  0  0  0  0  0
   -1.9650   -1.2810   -0.0170 C   0  0  0  0  0  0  0  0  0  0  0  0
   -0.5430   -1.6510    0.0800 C   0  0  0  0  0  0  0  0  0  0  0  0
    0.6160   -1.0050    0.0750 C   0  0  0  0  0  0  0  0  0  0  0  0
    1.7490   -1.8550    0.2020 N   0  0  0  0  0  0  0  0  0  0  0  0
  1  2  1  0
  2  3  2  0
  2  9  1  0
  3  4  1  0
  4  5  2  0
  5  6  1  0
  6  7  2  0
  7  8  1  0
  8  9  2  0
  9 10  1  0
M  END
