
     RDKit          3D

 30 33  0  0  0  0  0  0  0  0999 V2000
    7.2940    0.3600    1.5120 N   0  0  0  0  0  0  0  0  0  0  0  0
    6.7360   -0.2070   -0.0170 S   0  0  2  0  0  0  0  0  0  0  0  0
    7.1990   -1.6390   -0.1700 O   0  0  0  0  0  0  0  0  0  0  0  0
    7.4630    0.5900   -1.0820 O   0  0  0  0  0  0  0  0  0  0  0  0
    5.0140   -0.0580   -0.1790 C   0  0  0  0  0  0  0  0  0  0  0  0
    4.1780   -1.0680    0.2010 C   0  0  0  0  0  0  0  0  0  0  0  0
    2.7840   -0.9630    0.0760 C   0  0  0  0  0  0  0  0  0  0  0  0
    2.1870    0.1620   -0.4370 C   0  0  0  0  0  0  0  0  0  0  0  0
    0.8140    0.4070   -0.6770 C   0  0  0  0  0  0  0  0  0  0  0  0
    0.4910    1.6340   -0.9700 O   0  0  0  0  0  0  0  0  0  0  0  0
   -0.3000   -0.4560   -0.6600 N   0  0  0  0  0  0  0  0  0  0  0  0
   -0.1410   -1.8630   -0.4370 C   0  0  0  0  0  0  0  0  0  0  0  0
   -1.3530   -2.6590   -1.0010 C   0  0  0  0  0  0  0  0  0  0  0  0
   -2.5700   -2.1300   -0.2800 C   0  0  0  0  0  0  0  0  0  0  0  0
   -3.4840   -2.9620    0.2740 C   0  0  0  0  0  0  0  0  0  0  0  0
   -4.5540   -2.4120    0.9400 C   0  0  0  0  0  0  0  0  0  0  0  0
   -5.5070   -3.2270    1.5180 O   0  0  0  0  0  0  0  0  0  0  0  0
   -4.6640   -1.0200    1.0250 C   0  0  0  0  0  0  0  0  0  0  0  0
   -5.7630   -0.4670    1.7100 O   0  0  0  0  0  0  0  0  0  0  0  0
   -3.7350   -0.1840    0.4610 C   0  0  0  0  0  0  0  0  0  0  0  0
   -2.6560   -0.7700   -0.2110 C   0  0  0  0  0  0  0  0  0  0  0  0
   -1.6370    0.0670   -0.8640 C   0  0  1  0  0  0  0  0  0  0  0  0
   -1.7730    1.4830   -0.4220 C   0  0  0  0  0  0  0  0  0  0  0  0
   -1.4250    1.9320    0.8290 C   0  0  0  0  0  0  0  0  0  0  0  0
   -1.6010    3.2640    1.1140 C   0  0  0  0  0  0  0  0  0  0  0  0
   -2.1060    4.1850    0.2200 C   0  0  0  0  0  0  0  0  0  0  0  0
   -2.4530    3.7300   -1.0350 C   0  0  0  0  0  0  0  0  0  0  0  0
   -2.2780    2.3920   -1.3240 C   0  0  0  0  0  0  0  0  0  0  0  0
    3.1000    1.1700   -0.8110 C   0  0  0  0  0  0  0  0  0  0  0  0
    4.4510    1.0740   -0.6910 C   0  0  0  0  0  0  0  0  0  0  0  0
  2  1  1  1
  2  3  2  0
  2  4  2  0
  2  5  1  0
  5  6  2  0
  5 30  1  0
  6  7  1  0
  7  8  2  0
  8  9  1  0
  8 29  1  0
  9 10  2  0
  9 11  1  0
 11 12  1  0
 11 22  1  0
 12 13  1  0
 13 14  1  0
 14 15  2  0
 14 21  1  0
 15 16  1  0
 16 17  1  0
 16 18  2  0
 18 19  1  0
 18 20  1  0
 20 21  2  0
 21 22  1  0
 22 23  1  1
 23 24  2  0
 23 28  1  0
 24 25  1  0
 25 26  2  0
 26 27  1  0
 27 28  2  0
 29 30  2  0
M  END
