
     RDKit          3D

 31 35  0  0  0  0  0  0  0  0999 V2000
   -2.0520    6.1510    1.1230 C   0  0  0  0  0  0  0  0  0  0  0  0
   -2.2440    4.8250    1.5400 O   0  0  0  0  0  0  0  0  0  0  0  0
   -1.3580    3.8130    1.1920 C   0  0  0  0  0  0  0  0  0  0  0  0
   -0.2570    4.1620    0.4050 C   0  0  0  0  0  0  0  0  0  0  0  0
    0.6350    3.1430    0.0560 C   0  0  0  0  0  0  0  0  0  0  0  0
    0.4080    1.8640    0.4840 C   0  0  0  0  0  0  0  0  0  0  0  0
   -0.6890    1.5060    1.2700 C   0  0  0  0  0  0  0  0  0  0  0  0
   -1.5660    2.5180    1.6120 C   0  0  0  0  0  0  0  0  0  0  0  0
   -0.5650    0.0800    1.5240 C   0  0  1  0  0  0  0  0  0  0  0  0
   -1.8700   -0.6800    1.6540 C   0  0  2  0  0  0  0  0  0  0  0  0
   -1.4770   -2.0650    2.0020 C   0  0  0  0  0  0  0  0  0  0  0  0
   -0.8340   -2.4000    3.0150 O   0  0  0  0  0  0  0  0  0  0  0  0
   -1.9520   -2.9160    1.0010 N   0  0  0  0  0  0  0  0  0  0  0  0
   -2.6510   -2.1220    0.0520 C   0  0  0  0  0  0  0  0  0  0  0  0
   -3.3300   -2.4700   -1.1270 C   0  0  0  0  0  0  0  0  0  0  0  0
   -3.9700   -1.5550   -1.9240 C   0  0  0  0  0  0  0  0  0  0  0  0
   -4.6870   -1.9260   -3.1700 C   0  0  0  0  0  0  0  0  0  0  0  0
   -3.9480   -0.2350   -1.5520 C   0  0  0  0  0  0  0  0  0  0  0  0
   -3.2730    0.1280   -0.3750 C   0  0  0  0  0  0  0  0  0  0  0  0
   -2.6340   -0.7960    0.4160 C   0  0  0  0  0  0  0  0  0  0  0  0
    0.1690   -0.3730    0.3390 N   0  0  0  0  0  0  0  0  0  0  0  0
    1.1930    0.5810    0.2760 C   0  0  0  0  0  0  0  0  0  0  0  0
    2.4610    0.6040    0.0420 C   0  0  0  0  0  0  0  0  0  0  0  0
    3.4220   -0.4350   -0.1750 C   0  0  0  0  0  0  0  0  0  0  0  0
    4.6980   -0.0560   -0.4700 C   0  0  0  0  0  0  0  0  0  0  0  0
    5.8890   -0.8630   -0.7440 C   0  0  0  0  0  0  0  0  0  0  0  0
    5.8600   -2.1690   -0.9450 C   0  0  0  0  0  0  0  0  0  0  0  0
    4.8940   -3.2430   -0.9920 C   0  0  0  0  0  0  0  0  0  0  0  0
    3.4560   -2.9590   -0.8720 C   0  0  0  0  0  0  0  0  0  0  0  0
    3.1090   -1.8390    0.0050 C   0  0  0  0  0  0  0  0  0  0  0  0
    2.4550   -2.0630    1.0810 O   0  0  0  0  0  0  0  0  0  0  0  0
  1  2  1  0
  2  3  1  0
  3  4  2  0
  3  8  1  0
  4  5  1  0
  5  6  2  0
  6  7  1  0
  6 22  1  0
  7  8  2  0
  7  9  1  0
  9 10  1  0
  9 21  1  6
 10 11  1  6
 10 20  1  0
 11 12  2  0
 11 13  1  0
 13 14  1  0
 14 15  2  0
 14 20  1  0
 15 16  1  0
 16 17  1  0
 16 18  2  0
 18 19  1  0
 19 20  2  0
 21 22  1  0
 22 23  2  3
 23 24  1  0
 24 25  2  0
 24 30  1  0
 25 26  1  0
 26 27  2  0
 27 28  1  0
 28 29  1  0
 29 30  1  0
 30 31  2  0
M  CHG  1  21   1
M  END
