
     RDKit          3D

 29 32  0  0  0  0  0  0  0  0999 V2000
    7.8910    1.4200   -0.2810 C   0  0  0  0  0  0  0  0  0  0  0  0
    6.3830    1.5720   -0.2410 C   0  0  0  0  0  0  0  0  0  0  0  0
    5.8430    0.4610    0.5200 N   0  0  0  0  0  0  0  0  0  0  0  0
    6.1080    0.4230    1.9410 C   0  0  0  0  0  0  0  0  0  0  0  0
    5.0770   -0.5460   -0.1260 C   0  0  0  0  0  0  0  0  0  0  0  0
    5.6890   -1.6160   -0.7750 C   0  0  0  0  0  0  0  0  0  0  0  0
    4.9230   -2.5670   -1.4050 C   0  0  0  0  0  0  0  0  0  0  0  0
    3.5250   -2.4970   -1.4160 C   0  0  0  0  0  0  0  0  0  0  0  0
    2.9100   -1.4600   -0.7880 C   0  0  0  0  0  0  0  0  0  0  0  0
    1.5120   -1.2200   -0.7420 N   0  0  0  0  0  0  0  0  0  0  0  0
    0.5570   -1.7160   -1.6580 C   0  0  0  0  0  0  0  0  0  0  0  0
    0.9680   -2.4260   -2.6080 O   0  0  0  0  0  0  0  0  0  0  0  0
   -0.8910   -1.4450   -1.5650 C   0  0  0  0  0  0  0  0  0  0  0  0
   -1.4800   -0.7750   -0.5330 C   0  0  0  0  0  0  0  0  0  0  0  0
   -2.8390   -0.5650   -0.5520 C   0  0  0  0  0  0  0  0  0  0  0  0
   -3.6250   -1.0220   -1.6020 C   0  0  0  0  0  0  0  0  0  0  0  0
   -4.9740   -0.8650   -1.7190 O   0  0  0  0  0  0  0  0  0  0  0  0
   -5.8070   -0.2340   -0.8100 C   0  0  0  0  0  0  0  0  0  0  0  0
   -6.4590   -0.9610    0.1670 C   0  0  0  0  0  0  0  0  0  0  0  0
   -7.2940   -0.3790    1.0900 C   0  0  0  0  0  0  0  0  0  0  0  0
   -7.4900    0.9950    1.0340 C   0  0  0  0  0  0  0  0  0  0  0  0
   -8.2570    1.8540    1.8040 C   0  0  0  0  0  0  0  0  0  0  0  0
   -8.0590    3.1140    1.2740 C   0  0  0  0  0  0  0  0  0  0  0  0
   -7.2100    3.0360    0.2270 N   0  0  0  0  0  0  0  0  0  0  0  0
   -6.8370    1.7340    0.0510 C   0  0  0  0  0  0  0  0  0  0  0  0
   -6.0060    1.1210   -0.8580 C   0  0  0  0  0  0  0  0  0  0  0  0
   -2.9740   -1.6790   -2.5910 N   0  0  0  0  0  0  0  0  0  0  0  0
   -1.6780   -1.8840   -2.5820 N   0  0  0  0  0  0  0  0  0  0  0  0
    3.7050   -0.4960   -0.1490 C   0  0  0  0  0  0  0  0  0  0  0  0
  1  2  1  0
  2  3  1  0
  3  4  1  0
  3  5  1  0
  5  6  2  0
  5 29  1  0
  6  7  1  0
  7  8  2  0
  8  9  1  0
  9 10  1  0
  9 29  2  0
 10 11  1  0
 11 12  2  0
 11 13  1  0
 13 14  2  0
 13 28  1  0
 14 15  1  0
 15 16  2  0
 16 17  1  0
 16 27  1  0
 17 18  1  0
 18 19  2  0
 18 26  1  0
 19 20  1  0
 20 21  2  0
 21 22  1  0
 21 25  1  0
 22 23  2  0
 23 24  1  0
 24 25  1  0
 25 26  2  0
 27 28  2  0
M  END
