
     RDKit          3D

 29 32  0  0  0  0  0  0  0  0999 V2000
    8.0430   -1.4540    1.0160 C   0  0  0  0  0  0  0  0  0  0  0  0
    6.7190   -1.9900    1.2730 N   0  0  0  0  0  0  0  0  0  0  0  0
    5.7670   -1.5700    0.2650 C   0  0  0  0  0  0  0  0  0  0  0  0
    5.4690   -0.1030    0.3170 C   0  0  0  0  0  0  0  0  0  0  0  0
    4.5090    0.1790   -0.7400 N   0  0  0  0  0  0  0  0  0  0  0  0
    3.1680    0.1650   -0.6480 C   0  0  0  0  0  0  0  0  0  0  0  0
    2.5990    0.4750   -1.8650 C   0  0  0  0  0  0  0  0  0  0  0  0
    1.2000    0.5890   -2.2550 C   0  0  0  0  0  0  0  0  0  0  0  0
    0.2310   -0.1640   -1.7950 C   0  0  0  0  0  0  0  0  0  0  0  0
    0.5210   -1.2050   -0.8220 C   0  0  0  0  0  0  0  0  0  0  0  0
   -0.4330   -1.3820    0.1080 C   0  0  0  0  0  0  0  0  0  0  0  0
   -1.6160   -0.5570    0.0620 N   0  0  0  0  0  0  0  0  0  0  0  0
   -2.2330   -0.0930    1.2410 C   0  0  0  0  0  0  0  0  0  0  0  0
   -1.7630   -0.3950    2.3500 O   0  0  0  0  0  0  0  0  0  0  0  0
   -3.4120    0.7350    1.1530 C   0  0  0  0  0  0  0  0  0  0  0  0
   -3.3290    2.1140    1.0730 C   0  0  0  0  0  0  0  0  0  0  0  0
   -4.4530    2.8860    0.9840 C   0  0  0  0  0  0  0  0  0  0  0  0
   -5.6920    2.3070    0.9720 C   0  0  0  0  0  0  0  0  0  0  0  0
   -5.8150    0.9310    1.0510 C   0  0  0  0  0  0  0  0  0  0  0  0
   -7.0380    0.2990    1.0440 C   0  0  0  0  0  0  0  0  0  0  0  0
   -7.1200   -1.0890    1.1260 C   0  0  0  0  0  0  0  0  0  0  0  0
   -6.0050   -1.8310    1.2130 N   0  0  0  0  0  0  0  0  0  0  0  0
   -4.8170   -1.1940    1.2180 C   0  0  0  0  0  0  0  0  0  0  0  0
   -3.7550   -1.9040    1.3010 O   0  0  0  0  0  0  0  0  0  0  0  0
   -4.6740    0.1780    1.1390 C   0  0  0  0  0  0  0  0  0  0  0  0
   -2.1810   -0.2000   -1.2280 C   0  0  0  0  0  0  0  0  0  0  0  0
   -1.1530    0.0850   -2.2880 C   0  0  0  0  0  0  0  0  0  0  0  0
    3.6900    0.6800   -2.7130 C   0  0  0  0  0  0  0  0  0  0  0  0
    4.7980    0.4900   -1.9890 N   0  0  0  0  0  0  0  0  0  0  0  0
  1  2  1  0
  2  3  1  0
  3  4  1  0
  4  5  1  0
  5  6  1  0
  5 29  1  0
  6  7  2  0
  7  8  1  0
  7 28  1  0
  8  9  2  3
  9 10  1  0
  9 27  1  0
 10 11  2  0
 11 12  1  0
 12 13  1  0
 12 26  1  0
 13 14  2  0
 13 15  1  0
 15 16  2  0
 15 25  1  0
 16 17  1  0
 17 18  2  0
 18 19  1  0
 19 20  1  0
 19 25  2  0
 20 21  2  0
 21 22  1  0
 22 23  1  0
 23 24  2  0
 23 25  1  0
 26 27  1  0
 28 29  2  0
M  END
