
     RDKit          3D

 31 33  0  0  0  0  0  0  0  0999 V2000
    8.1240   -2.2710   -1.7630 C   0  0  0  0  0  0  0  0  0  0  0  0
    6.6400   -2.2430   -1.3750 C   0  0  0  0  0  0  0  0  0  0  0  0
    6.3800   -1.0450   -0.5450 C   0  0  0  0  0  0  0  0  0  0  0  0
    7.0420   -0.8620    0.6610 O   0  0  0  0  0  0  0  0  0  0  0  0
    5.5170   -0.1420   -0.9430 C   0  0  0  0  0  0  0  0  0  0  0  0
    5.2220    1.0770   -0.1440 C   0  0  0  0  0  0  0  0  0  0  0  0
    3.7900    1.0770    0.1970 C   0  0  0  0  0  0  0  0  0  0  0  0
    3.3530    0.4870    1.3570 C   0  0  0  0  0  0  0  0  0  0  0  0
    2.0340    0.4640    1.7140 C   0  0  0  0  0  0  0  0  0  0  0  0
    1.0650    1.0480    0.9000 C   0  0  0  0  0  0  0  0  0  0  0  0
   -0.3170    0.9370    1.3400 C   0  0  0  0  0  0  0  0  0  0  0  0
   -0.4410    0.0720    2.3450 O   0  0  0  0  0  0  0  0  0  0  0  0
   -1.4920    1.5450    0.9240 N   0  0  0  0  0  0  0  0  0  0  0  0
   -1.5840    2.5250   -0.0900 C   0  0  0  0  0  0  0  0  0  0  0  0
   -1.9160    1.8670   -1.3880 C   0  0  0  0  0  0  0  0  0  0  0  0
   -1.5170    2.3900   -2.4380 O   0  0  0  0  0  0  0  0  0  0  0  0
   -2.6710    0.6520   -1.5730 N   0  0  0  0  0  0  0  0  0  0  0  0
   -2.5640    0.0330   -2.8890 C   0  0  0  0  0  0  0  0  0  0  0  0
   -3.4890    0.0250   -0.6000 C   0  0  0  0  0  0  0  0  0  0  0  0
   -4.3650   -0.8380   -1.2230 C   0  0  0  0  0  0  0  0  0  0  0  0
   -5.2570   -1.5580   -0.4650 C   0  0  0  0  0  0  0  0  0  0  0  0
   -5.2930   -1.4310    0.9110 C   0  0  0  0  0  0  0  0  0  0  0  0
   -6.4290   -2.3470    1.8770 S   0  0  2  0  0  0  0  0  0  0  0  0
   -7.9090   -1.3730    2.0310 C   0  0  0  0  0  0  0  0  0  0  0  0
   -5.8400   -2.5050    3.2490 O   0  0  0  0  0  0  0  0  0  0  0  0
   -6.7010   -3.6680    1.2320 O   0  0  0  0  0  0  0  0  0  0  0  0
   -4.3980   -0.5540    1.4960 C   0  0  0  0  0  0  0  0  0  0  0  0
   -3.4940    0.1800    0.7790 C   0  0  0  0  0  0  0  0  0  0  0  0
   -2.6770    1.0230    1.6650 C   0  0  0  0  0  0  0  0  0  0  0  0
    1.4900    1.6370   -0.2590 C   0  0  0  0  0  0  0  0  0  0  0  0
    2.8370    1.6500   -0.6030 C   0  0  0  0  0  0  0  0  0  0  0  0
  1  2  1  0
  2  3  1  0
  3  4  1  0
  3  5  2  3
  5  6  1  0
  6  7  1  0
  7  8  2  0
  7 31  1  0
  8  9  1  0
  9 10  2  0
 10 11  1  0
 10 30  1  0
 11 12  2  0
 11 13  1  0
 13 14  1  0
 13 29  1  0
 14 15  1  0
 15 16  2  0
 15 17  1  0
 17 18  1  0
 17 19  1  0
 19 20  2  0
 19 28  1  0
 20 21  1  0
 21 22  2  0
 22 23  1  0
 22 27  1  0
 23 24  1  1
 23 25  2  0
 23 26  2  0
 27 28  2  0
 28 29  1  0
 30 31  2  0
M  END
