
     RDKit          3D

 30 34  0  0  0  0  0  0  0  0999 V2000
   -5.1600    0.6140   -3.3120 C   0  0  0  0  0  0  0  0  0  0  0  0
   -5.2850   -0.1030   -2.0310 C   0  0  0  0  0  0  0  0  0  0  0  0
   -6.4010   -0.7700   -1.6990 C   0  0  0  0  0  0  0  0  0  0  0  0
   -6.4990   -1.4890   -0.3780 C   0  0  0  0  0  0  0  0  0  0  0  0
   -5.9420   -0.5060    0.6510 C   0  0  0  0  0  0  0  0  0  0  0  0
   -4.5020   -0.2880    0.4100 C   0  0  1  0  0  0  0  0  0  0  0  0
   -4.2090   -0.0800   -1.0600 C   0  0  0  0  0  0  0  0  0  0  0  0
   -2.9590   -0.0740   -1.4400 C   0  0  0  0  0  0  0  0  0  0  0  0
   -2.6900   -0.1310   -2.8870 C   0  0  0  0  0  0  0  0  0  0  0  0
   -1.8960    0.1920   -0.4210 C   0  0  0  0  0  0  0  0  0  0  0  0
   -0.5320    0.2610   -0.8850 C   0  0  0  0  0  0  0  0  0  0  0  0
   -0.2980   -0.0130   -2.1180 O   0  0  0  0  0  0  0  0  0  0  0  0
    0.6270    0.5970   -0.1730 N   0  0  0  0  0  0  0  0  0  0  0  0
    1.9450    0.6110   -0.8030 C   0  0  1  0  0  0  0  0  0  0  0  0
    2.5540    1.9720   -0.6340 C   0  0  0  0  0  0  0  0  0  0  0  0
    4.0380    1.7560   -0.3120 C   0  0  0  0  0  0  0  0  0  0  0  0
    4.2540    0.3000   -0.5480 C   0  0  1  0  0  0  0  0  0  0  0  0
    5.4240   -0.2670    0.2130 C   0  0  2  0  0  0  0  0  0  0  0  0
    6.5590    0.4300   -0.1930 O   0  0  0  0  0  0  0  0  0  0  0  0
    5.6650   -1.7210   -0.1280 C   0  0  0  0  0  0  0  0  0  0  0  0
    6.6400   -2.2500    0.9210 C   0  0  0  0  0  0  0  0  0  0  0  0
    7.4350   -1.2080    1.4340 O   0  0  0  0  0  0  0  0  0  0  0  0
    6.6900   -0.3850    2.2850 C   0  0  0  0  0  0  0  0  0  0  0  0
    5.2930   -0.1550    1.6920 C   0  0  0  0  0  0  0  0  0  0  0  0
    2.9260   -0.2850   -0.0790 C   0  0  0  0  0  0  0  0  0  0  0  0
   -2.2720    0.4290    0.8280 C   0  0  0  0  0  0  0  0  0  0  0  0
   -1.5240    0.7030    2.0650 C   0  0  0  0  0  0  0  0  0  0  0  0
   -2.4790    0.4750    3.2350 C   0  0  0  0  0  0  0  0  0  0  0  0
   -3.8290    0.5990    2.6500 C   0  0  0  0  0  0  0  0  0  0  0  0
   -3.7390    0.6700    1.1770 C   0  0  2  0  0  0  0  0  0  0  0  0
  1  2  1  0
  2  3  2  0
  2  7  1  0
  3  4  1  0
  4  5  1  0
  6  5  1  6
  6  7  1  0
  6 30  1  0
  7  8  2  0
  8  9  1  0
  8 10  1  0
 10 11  1  0
 10 26  2  0
 11 12  2  0
 11 13  1  0
 14 13  1  1
 14 15  1  0
 14 25  1  0
 15 16  1  0
 17 16  1  1
 17 18  1  0
 17 25  1  0
 18 19  1  6
 18 20  1  0
 18 24  1  0
 20 21  1  0
 21 22  1  0
 22 23  1  0
 23 24  1  0
 26 27  1  0
 26 30  1  0
 27 28  1  0
 28 29  1  0
 30 29  1  1
M  END
