
     RDKit          3D

 31 33  0  0  0  0  0  0  0  0999 V2000
   -5.5920    3.5500    0.3890 C   0  0  0  0  0  0  0  0  0  0  0  0
   -6.3600    2.6480   -0.1180 C   0  0  0  0  0  0  0  0  0  0  0  0
   -5.9940    1.3520   -0.6800 C   0  0  0  0  0  0  0  0  0  0  0  0
   -7.0070    0.6140   -1.1280 C   0  0  0  0  0  0  0  0  0  0  0  0
   -8.4130    1.0870   -1.0500 C   0  0  0  0  0  0  0  0  0  0  0  0
   -4.6130    0.9170   -0.6600 C   0  0  0  0  0  0  0  0  0  0  0  0
   -3.2060    1.9860   -0.5000 S   0  0  0  0  0  0  0  0  0  0  0  0
   -1.9390    0.7120   -0.5310 C   0  0  0  0  0  0  0  0  0  0  0  0
   -0.5660    1.0400   -0.4670 N   0  0  0  0  0  0  0  0  0  0  0  0
    0.5220    0.2240   -0.1460 C   0  0  0  0  0  0  0  0  0  0  0  0
    0.3260   -0.9700    0.1690 O   0  0  0  0  0  0  0  0  0  0  0  0
    1.9140    0.7580   -0.1730 C   0  0  0  0  0  0  0  0  0  0  0  0
    2.2360    2.0510   -0.5110 C   0  0  0  0  0  0  0  0  0  0  0  0
    3.6030    2.1620   -0.4190 C   0  0  0  0  0  0  0  0  0  0  0  0
    4.0580    0.9270   -0.0280 C   0  0  0  0  0  0  0  0  0  0  0  0
    5.4580    0.5740    0.1980 C   0  0  0  0  0  0  0  0  0  0  0  0
    6.3180    1.4800    0.0200 O   0  0  0  0  0  0  0  0  0  0  0  0
    5.8590   -0.7650    0.6130 C   0  0  0  0  0  0  0  0  0  0  0  0
    4.9040   -1.5930    0.7640 O   0  0  0  0  0  0  0  0  0  0  0  0
    7.1610   -1.2020    0.8520 N   0  0  0  0  0  0  0  0  0  0  0  0
    7.3870   -2.5910    1.2780 C   0  0  0  0  0  0  0  0  0  0  0  0
    8.2960   -0.3450    0.6920 C   0  0  0  0  0  0  0  0  0  0  0  0
    8.6160    0.4020    1.9770 C   0  0  0  0  0  0  0  0  0  0  0  0
    3.0080    0.1230    0.1060 O   0  0  0  0  0  0  0  0  0  0  0  0
   -2.6770   -0.3970   -0.6620 C   0  0  0  0  0  0  0  0  0  0  0  0
   -4.0320   -0.3450   -0.7250 C   0  0  0  0  0  0  0  0  0  0  0  0
   -4.8050   -1.6620   -0.7660 C   0  0  0  0  0  0  0  0  0  0  0  0
   -4.1170   -2.8000   -0.1110 C   0  0  0  0  0  0  0  0  0  0  0  0
   -2.6460   -2.8780   -0.1250 C   0  0  0  0  0  0  0  0  0  0  0  0
   -2.1220   -1.7770   -0.9410 C   0  0  0  0  0  0  0  0  0  0  0  0
   -1.2550   -1.8800   -1.8550 O   0  0  0  0  0  0  0  0  0  0  0  0
  1  2  2  0
  2  3  1  0
  3  4  2  3
  3  6  1  0
  4  5  1  0
  6  7  1  0
  6 26  2  0
  7  8  1  0
  8  9  1  0
  8 25  2  0
  9 10  1  0
 10 11  2  0
 10 12  1  0
 12 13  2  0
 12 24  1  0
 13 14  1  0
 14 15  2  0
 15 16  1  0
 15 24  1  0
 16 17  2  0
 16 18  1  0
 18 19  2  0
 18 20  1  0
 20 21  1  0
 20 22  1  0
 22 23  1  0
 25 26  1  0
 25 30  1  0
 26 27  1  0
 27 28  1  0
 28 29  1  0
 29 30  1  0
 30 31  2  0
M  END
