
     RDKit          3D

 30 33  0  0  0  0  0  0  0  0999 V2000
    7.1900   -2.0470    1.3240 N   0  0  0  0  0  0  0  0  0  0  0  0
    6.7870   -1.0810   -0.0500 S   0  0  1  0  0  0  0  0  0  0  0  0
    7.4200    0.2780    0.1590 O   0  0  0  0  0  0  0  0  0  0  0  0
    7.3940   -1.6820   -1.2850 O   0  0  0  0  0  0  0  0  0  0  0  0
    5.0530   -0.9340   -0.2280 C   0  0  0  0  0  0  0  0  0  0  0  0
    4.3080   -1.8240   -0.9700 C   0  0  0  0  0  0  0  0  0  0  0  0
    2.9570   -1.6470   -1.0660 C   0  0  0  0  0  0  0  0  0  0  0  0
    2.2610   -0.5900   -0.4410 C   0  0  0  0  0  0  0  0  0  0  0  0
    0.8330   -0.4830   -0.6190 C   0  0  0  0  0  0  0  0  0  0  0  0
    0.3450   -1.3790   -1.4440 O   0  0  0  0  0  0  0  0  0  0  0  0
   -0.1430    0.3670   -0.1040 N   0  0  0  0  0  0  0  0  0  0  0  0
    0.1260    1.4100    0.8280 C   0  0  0  0  0  0  0  0  0  0  0  0
   -1.1150    2.1000    1.3850 C   0  0  0  0  0  0  0  0  0  0  0  0
   -2.1780    2.2730    0.3730 C   0  0  0  0  0  0  0  0  0  0  0  0
   -2.9970    3.3750    0.3570 C   0  0  0  0  0  0  0  0  0  0  0  0
   -3.9850    3.5290   -0.5880 C   0  0  0  0  0  0  0  0  0  0  0  0
   -4.7990    4.6630   -0.5760 O   0  0  0  0  0  0  0  0  0  0  0  0
   -4.1790    2.5670   -1.5540 C   0  0  0  0  0  0  0  0  0  0  0  0
   -5.1950    2.7480   -2.5070 O   0  0  0  0  0  0  0  0  0  0  0  0
   -3.3630    1.4620   -1.5430 C   0  0  0  0  0  0  0  0  0  0  0  0
   -2.3710    1.2920   -0.6050 C   0  0  0  0  0  0  0  0  0  0  0  0
   -1.5130    0.1230   -0.6000 C   0  0  2  0  0  0  0  0  0  0  0  0
   -2.1110   -1.0770    0.0220 C   0  0  0  0  0  0  0  0  0  0  0  0
   -1.9750   -1.3590    1.3630 C   0  0  0  0  0  0  0  0  0  0  0  0
   -2.5530   -2.4970    1.9310 C   0  0  0  0  0  0  0  0  0  0  0  0
   -3.2790   -3.3800    1.1770 C   0  0  0  0  0  0  0  0  0  0  0  0
   -3.4220   -3.1080   -0.1710 C   0  0  0  0  0  0  0  0  0  0  0  0
   -2.8560   -1.9900   -0.7320 C   0  0  0  0  0  0  0  0  0  0  0  0
    3.0450    0.2680    0.2840 C   0  0  0  0  0  0  0  0  0  0  0  0
    4.4200    0.1090    0.3960 C   0  0  0  0  0  0  0  0  0  0  0  0
  2  1  1  1
  2  3  2  0
  2  4  2  0
  2  5  1  0
  5  6  2  0
  5 30  1  0
  6  7  1  0
  7  8  2  0
  8  9  1  0
  8 29  1  0
  9 10  2  0
  9 11  1  0
 11 12  1  0
 11 22  1  0
 12 13  1  0
 13 14  1  0
 14 15  2  0
 14 21  1  0
 15 16  1  0
 16 17  1  0
 16 18  2  0
 18 19  1  0
 18 20  1  0
 20 21  2  0
 21 22  1  0
 22 23  1  1
 23 24  2  0
 23 28  1  0
 24 25  1  0
 25 26  2  0
 26 27  1  0
 27 28  2  0
 29 30  2  0
M  END
