
     RDKit          3D

 31 33  0  0  0  0  0  0  0  0999 V2000
   -5.0680    2.6860    1.3390 C   0  0  0  0  0  0  0  0  0  0  0  0
   -4.9800    1.3090    1.8720 C   0  0  0  0  0  0  0  0  0  0  0  0
   -4.7480    0.2650    0.7770 C   0  0  0  0  0  0  0  0  0  0  0  0
   -3.4780    0.1890    0.2530 C   0  0  0  0  0  0  0  0  0  0  0  0
   -2.2900    0.9360    0.5450 C   0  0  0  0  0  0  0  0  0  0  0  0
   -2.3270    1.8420    1.4090 O   0  0  0  0  0  0  0  0  0  0  0  0
   -1.0710    0.7000   -0.0980 N   0  0  0  0  0  0  0  0  0  0  0  0
   -0.8890   -0.3110   -1.1020 C   0  0  0  0  0  0  0  0  0  0  0  0
    0.5780   -0.3450   -1.5520 C   0  0  0  0  0  0  0  0  0  0  0  0
    1.4950   -0.4770   -0.3580 C   0  0  2  0  0  0  0  0  0  0  0  0
    2.8800   -0.2750   -0.8520 C   0  0  0  0  0  0  0  0  0  0  0  0
    3.7230   -1.1870   -0.6700 O   0  0  0  0  0  0  0  0  0  0  0  0
    3.3030    0.9120   -1.5260 N   0  0  0  0  0  0  0  0  0  0  0  0
    4.6700    1.0720   -1.9930 C   0  0  0  0  0  0  0  0  0  0  0  0
    5.6400    1.0030   -0.8840 C   0  0  0  0  0  0  0  0  0  0  0  0
    7.0020    1.0990   -0.9980 C   0  0  0  0  0  0  0  0  0  0  0  0
    7.5230    0.9810    0.2930 C   0  0  0  0  0  0  0  0  0  0  0  0
    6.4340    0.8200    1.1120 C   0  0  0  0  0  0  0  0  0  0  0  0
    6.4720    0.6520    2.5840 C   0  0  0  0  0  0  0  0  0  0  0  0
    5.3480    0.8390    0.3750 O   0  0  0  0  0  0  0  0  0  0  0  0
    1.4200   -1.8580    0.2160 C   0  0  0  0  0  0  0  0  0  0  0  0
    0.6950   -2.7410   -0.2650 O   0  0  0  0  0  0  0  0  0  0  0  0
    2.1950   -2.1340    1.3190 O   0  0  0  0  0  0  0  0  0  0  0  0
    2.1870   -3.4160    1.9290 C   0  0  0  0  0  0  0  0  0  0  0  0
    1.1770    0.5410    0.6990 C   0  0  0  0  0  0  0  0  0  0  0  0
    0.1120    1.4930    0.2220 C   0  0  0  0  0  0  0  0  0  0  0  0
   -3.5590   -1.1330   -0.9990 S   0  0  0  0  0  0  0  0  0  0  0  0
   -5.3370   -1.4570   -0.6850 C   0  0  0  0  0  0  0  0  0  0  0  0
   -6.1320   -2.4970   -1.4120 C   0  0  0  0  0  0  0  0  0  0  0  0
   -5.6860   -0.5740    0.2960 C   0  0  0  0  0  0  0  0  0  0  0  0
   -7.1350   -0.5830    0.8010 C   0  0  0  0  0  0  0  0  0  0  0  0
  1  2  1  0
  2  3  1  0
  3  4  2  0
  3 30  1  0
  4  5  1  0
  4 27  1  0
  5  6  2  0
  5  7  1  0
  7  8  1  0
  7 26  1  0
  8  9  1  0
  9 10  1  0
 10 11  1  6
 10 21  1  0
 10 25  1  0
 11 12  2  0
 11 13  1  0
 13 14  1  0
 14 15  1  0
 15 16  2  0
 15 20  1  0
 16 17  1  0
 17 18  2  0
 18 19  1  0
 18 20  1  0
 21 22  2  0
 21 23  1  0
 23 24  1  0
 25 26  1  0
 27 28  1  0
 28 29  1  0
 28 30  2  0
 30 31  1  0
M  END
