
     RDKit          3D

 31 33  0  0  0  0  0  0  0  0999 V2000
    1.1120    0.5330   -4.4300 C   0  0  0  0  0  0  0  0  0  0  0  0
    0.1050    0.6220   -3.4420 O   0  0  0  0  0  0  0  0  0  0  0  0
    0.3890    0.1460   -2.1360 C   0  0  0  0  0  0  0  0  0  0  0  0
    1.5040   -0.2970   -2.0190 O   0  0  0  0  0  0  0  0  0  0  0  0
   -0.6680    0.2560   -1.1500 C   0  0  0  0  0  0  0  0  0  0  0  0
   -1.9260    0.7280   -1.6030 C   0  0  0  0  0  0  0  0  0  0  0  0
   -3.0100    0.8030   -0.7780 C   0  0  0  0  0  0  0  0  0  0  0  0
   -2.9090    0.4160    0.5370 C   0  0  0  0  0  0  0  0  0  0  0  0
   -4.0730    0.4710    1.4430 C   0  0  0  0  0  0  0  0  0  0  0  0
   -5.2680    0.0470    1.1410 C   0  0  0  0  0  0  0  0  0  0  0  0
   -6.3900    0.1530    2.1380 C   0  0  0  0  0  0  0  0  0  0  0  0
   -7.5710   -0.5850    1.5570 C   0  0  0  0  0  0  0  0  0  0  0  0
   -7.9620   -0.0350    0.2030 C   0  0  0  0  0  0  0  0  0  0  0  0
   -6.8700   -0.2950   -0.8230 C   0  0  0  0  0  0  0  0  0  0  0  0
   -5.5800   -0.5660   -0.1360 C   0  0  0  0  0  0  0  0  0  0  0  0
   -4.7660   -1.3370   -0.6830 O   0  0  0  0  0  0  0  0  0  0  0  0
   -1.7330   -0.0180    0.9440 N   0  0  0  0  0  0  0  0  0  0  0  0
   -0.5850   -0.1180    0.1510 C   0  0  0  0  0  0  0  0  0  0  0  0
    0.5370   -0.5930    0.8130 N   0  0  0  0  0  0  0  0  0  0  0  0
    2.1690   -0.9210    0.5930 S   0  0  2  0  0  0  0  0  0  0  0  0
    2.4710   -2.1360   -0.2100 O   0  0  0  0  0  0  0  0  0  0  0  0
    2.6930   -1.3350    2.0270 O   0  0  0  0  0  0  0  0  0  0  0  0
    3.1620    0.4240    0.1950 C   0  0  0  0  0  0  0  0  0  0  0  0
    4.4100    0.6390    0.0790 C   0  0  0  0  0  0  0  0  0  0  0  0
    5.6110   -0.1220    0.2180 C   0  0  0  0  0  0  0  0  0  0  0  0
    5.6910   -1.4510    0.5600 C   0  0  0  0  0  0  0  0  0  0  0  0
    6.9000   -2.1470    0.6800 C   0  0  0  0  0  0  0  0  0  0  0  0
    8.0820   -1.4900    0.4510 C   0  0  0  0  0  0  0  0  0  0  0  0
    8.0480   -0.1700    0.1100 C   0  0  0  0  0  0  0  0  0  0  0  0
    6.8520    0.5010   -0.0050 C   0  0  0  0  0  0  0  0  0  0  0  0
    6.8950    1.9410   -0.3810 C   0  0  0  0  0  0  0  0  0  0  0  0
  1  2  1  0
  2  3  1  0
  3  4  2  0
  3  5  1  0
  5  6  2  0
  5 18  1  0
  6  7  1  0
  7  8  2  0
  8  9  1  0
  8 17  1  0
  9 10  2  3
 10 11  1  0
 10 15  1  0
 11 12  1  0
 12 13  1  0
 13 14  1  0
 14 15  1  0
 15 16  2  0
 17 18  2  0
 18 19  1  0
 20 19  1  1
 20 21  2  0
 20 22  2  0
 20 23  1  0
 23 24  2  3
 24 25  1  0
 25 26  2  0
 25 30  1  0
 26 27  1  0
 27 28  2  0
 28 29  1  0
 29 30  2  0
 30 31  1  0
M  END
