
     RDKit          3D

 31 32  0  0  0  0  0  0  0  0999 V2000
   -0.3670   -2.0270   -3.5460 C   0  0  0  0  0  0  0  0  0  0  0  0
   -1.0230   -0.9750   -3.8770 C   0  0  0  0  0  0  0  0  0  0  0  0
   -1.7860    0.0730   -3.3040 C   0  0  0  0  0  0  0  0  0  0  0  0
   -2.2670    0.9600   -4.2440 C   0  0  0  0  0  0  0  0  0  0  0  0
   -2.1000    0.3420   -1.9270 C   0  0  0  0  0  0  0  0  0  0  0  0
   -1.7080   -0.4580   -0.9280 C   0  0  0  0  0  0  0  0  0  0  0  0
   -1.8540   -0.4920    0.4890 C   0  0  0  0  0  0  0  0  0  0  0  0
   -2.0630   -1.4360    1.3990 C   0  0  0  0  0  0  0  0  0  0  0  0
   -2.2140   -2.8660    1.3310 C   0  0  0  0  0  0  0  0  0  0  0  0
   -3.2460   -3.7230    1.6020 C   0  0  0  0  0  0  0  0  0  0  0  0
   -2.8390   -4.9310    1.3530 O   0  0  0  0  0  0  0  0  0  0  0  0
   -1.5890   -4.9600    0.9260 C   0  0  0  0  0  0  0  0  0  0  0  0
   -0.9000   -6.2270    0.5740 C   0  0  0  0  0  0  0  0  0  0  0  0
   -1.1230   -3.6720    0.8880 C   0  0  0  0  0  0  0  0  0  0  0  0
    0.1810   -3.1440    0.5290 C   0  0  0  0  0  0  0  0  0  0  0  0
    0.7840   -3.7320   -0.4170 O   0  0  0  0  0  0  0  0  0  0  0  0
    0.9000   -2.0100    1.1260 C   0  0  0  0  0  0  0  0  0  0  0  0
    1.4740   -0.9710    0.2010 C   0  0  0  0  0  0  0  0  0  0  0  0
    1.3160    0.3950    0.7810 C   0  0  0  0  0  0  0  0  0  0  0  0
    1.4500    0.3420    2.0710 O   0  0  0  0  0  0  0  0  0  0  0  0
    1.0640    1.6550    0.2020 N   0  0  0  0  0  0  0  0  0  0  0  0
    2.1270    2.6690    0.4540 C   0  0  0  0  0  0  0  0  0  0  0  0
    1.8850    3.4370    1.7000 C   0  0  0  0  0  0  0  0  0  0  0  0
    0.8740    3.1770    2.3830 O   0  0  0  0  0  0  0  0  0  0  0  0
    2.7980    4.4380    2.0840 N   0  0  0  0  0  0  0  0  0  0  0  0
    3.9680    4.7340    1.2790 C   0  0  0  0  0  0  0  0  0  0  0  0
    2.6170    5.2200    3.2990 C   0  0  0  0  0  0  0  0  0  0  0  0
    0.0050    2.1480   -0.5830 C   0  0  0  0  0  0  0  0  0  0  0  0
    0.2260    2.4970   -1.8140 O   0  0  0  0  0  0  0  0  0  0  0  0
   -1.7360    2.4350   -0.2490 S   0  0  0  0  0  0  0  0  0  0  0  0
   -2.7840    1.6760   -1.6180 C   0  0  0  0  0  0  0  0  0  0  0  0
  1  2  2  0
  2  3  1  0
  3  4  2  0
  3  5  1  0
  5  6  2  0
  5 31  1  0
  6  7  1  0
  7  8  2  0
  8  9  1  0
  9 10  2  0
  9 14  1  0
 10 11  1  0
 11 12  1  0
 12 13  1  0
 12 14  2  0
 14 15  1  0
 15 16  2  0
 15 17  1  0
 17 18  1  0
 18 19  1  0
 19 20  2  0
 19 21  1  0
 21 22  1  0
 21 28  1  0
 22 23  1  0
 23 24  2  0
 23 25  1  0
 25 26  1  0
 25 27  1  0
 28 29  2  0
 28 30  1  0
 30 31  1  0
M  END
