
     RDKit          3D

 30 32  0  0  0  0  0  0  0  0999 V2000
   -3.6160   -2.6960   -2.7460 C   0  0  0  0  0  0  0  0  0  0  0  0
   -2.8390   -1.7850   -1.9730 O   0  0  0  0  0  0  0  0  0  0  0  0
   -1.4820   -1.7040   -2.1130 C   0  0  0  0  0  0  0  0  0  0  0  0
   -0.9470   -2.4860   -2.9780 O   0  0  0  0  0  0  0  0  0  0  0  0
   -0.6040   -0.8250   -1.3750 C   0  0  0  0  0  0  0  0  0  0  0  0
    0.7690   -0.8820   -1.5230 C   0  0  0  0  0  0  0  0  0  0  0  0
    1.6420   -0.0950   -0.7820 C   0  0  0  0  0  0  0  0  0  0  0  0
    3.0610   -0.2800   -0.9690 C   0  0  0  0  0  0  0  0  0  0  0  0
    3.8020    0.5470   -1.5300 O   0  0  0  0  0  0  0  0  0  0  0  0
    3.6560   -1.5050   -0.4850 N   0  0  0  0  0  0  0  0  0  0  0  0
    5.0280   -1.8600   -0.6080 C   0  0  0  0  0  0  0  0  0  0  0  0
    5.9830   -0.9760    0.1190 C   0  0  0  0  0  0  0  0  0  0  0  0
    7.1350   -0.6340    0.0590 N   0  0  0  0  0  0  0  0  0  0  0  0
    7.7770    0.1670    0.8480 C   0  0  0  0  0  0  0  0  0  0  0  0
    9.2330    0.5390    0.6860 C   0  0  0  0  0  0  0  0  0  0  0  0
    7.0450    0.6960    1.8940 C   0  0  0  0  0  0  0  0  0  0  0  0
    5.4300   -0.0380    1.6360 S   0  0  0  0  0  0  0  0  0  0  0  0
    1.1410    0.7780    0.1330 C   0  0  0  0  0  0  0  0  0  0  0  0
    1.9510    1.6880    0.9460 C   0  0  0  0  0  0  0  0  0  0  0  0
   -0.2510    0.8260    0.2710 C   0  0  0  0  0  0  0  0  0  0  0  0
   -1.1240    0.0690   -0.4400 C   0  0  0  0  0  0  0  0  0  0  0  0
   -2.4970    0.1280   -0.3000 O   0  0  0  0  0  0  0  0  0  0  0  0
   -3.1080    0.9900    0.6310 C   0  0  0  0  0  0  0  0  0  0  0  0
   -4.5920    0.9000    0.5140 C   0  0  0  0  0  0  0  0  0  0  0  0
   -5.3400    0.1840   -0.3920 C   0  0  0  0  0  0  0  0  0  0  0  0
   -6.7000    0.4520   -0.1350 C   0  0  0  0  0  0  0  0  0  0  0  0
   -7.8210   -0.1540   -0.9280 C   0  0  0  0  0  0  0  0  0  0  0  0
   -6.7500    1.2790    0.8640 O   0  0  0  0  0  0  0  0  0  0  0  0
   -5.5260    1.5770    1.2880 C   0  0  0  0  0  0  0  0  0  0  0  0
   -5.2180    2.4910    2.4150 C   0  0  0  0  0  0  0  0  0  0  0  0
  1  2  1  0
  2  3  1  0
  3  4  2  0
  3  5  1  0
  5  6  2  0
  5 21  1  0
  6  7  1  0
  7  8  1  0
  7 18  2  0
  8  9  2  0
  8 10  1  0
 10 11  1  0
 11 12  1  0
 12 13  2  0
 12 17  1  0
 13 14  1  0
 14 15  1  0
 14 16  2  0
 16 17  1  0
 18 19  1  0
 18 20  1  0
 20 21  2  0
 21 22  1  0
 22 23  1  0
 23 24  1  0
 24 25  1  0
 24 29  2  0
 25 26  2  0
 26 27  1  0
 26 28  1  0
 28 29  1  0
 29 30  1  0
M  END
