
     RDKit          3D

 18 20  0  0  0  0  0  0  0  0999 V2000
    4.1610    0.5630    0.0990 O   0  0  0  0  0  0  0  0  0  0  0  0
    3.4490    1.2530    0.8320 C   0  0  0  0  0  0  0  0  0  0  0  0
    4.1150    2.0920    1.7310 O   0  0  0  0  0  0  0  0  0  0  0  0
    1.9960    1.2790    0.8460 C   0  0  0  0  0  0  0  0  0  0  0  0
    1.1880    2.0300    1.6300 N   0  0  0  0  0  0  0  0  0  0  0  0
   -0.0540    1.7260    1.2940 N   0  0  0  0  0  0  0  0  0  0  0  0
   -0.0860    0.8060    0.3230 C   0  0  0  0  0  0  0  0  0  0  0  0
   -1.2670    0.1850   -0.3190 C   0  0  2  0  0  0  0  0  0  0  0  0
   -2.4890    1.0350   -0.0180 C   0  0  0  0  0  0  0  0  0  0  0  0
   -3.5820    0.0260   -0.4070 C   0  0  0  0  0  0  0  0  0  0  0  0
   -3.1560   -1.0960    0.5570 C   0  0  0  0  0  0  0  0  0  0  0  0
   -1.6540   -1.1110    0.4070 C   0  0  0  0  0  0  0  0  0  0  0  0
    1.2330    0.4870    0.0030 C   0  0  0  0  0  0  0  0  0  0  0  0
    1.6350   -0.4460   -0.9930 N   0  0  0  0  0  0  0  0  0  0  0  0
    1.6250   -1.7860   -0.9630 C   0  0  0  0  0  0  0  0  0  0  0  0
    2.1060   -2.2300   -2.1710 C   0  0  0  0  0  0  0  0  0  0  0  0
    2.4050   -1.1470   -2.9280 N   0  0  0  0  0  0  0  0  0  0  0  0
    2.1120   -0.1000   -2.1960 N   0  0  0  0  0  0  0  0  0  0  0  0
  1  2  2  0
  2  3  1  0
  2  4  1  0
  4  5  1  0
  4 13  2  0
  5  6  1  0
  6  7  2  0
  8  7  1  1
  7 13  1  0
  8  9  1  0
  8 12  1  0
  9 10  1  0
 10 11  1  0
 11 12  1  0
 13 14  1  0
 14 15  1  0
 14 18  1  0
 15 16  2  0
 16 17  1  0
 17 18  2  0
M  END
