
     RDKit          3D

 17 19  0  0  0  0  0  0  0  0999 V2000
    5.7830    0.0910   -0.2710 C   0  0  0  0  0  0  0  0  0  0  0  0
    4.3100    0.0110   -0.0560 C   0  0  0  0  0  0  0  0  0  0  0  0
    3.7920   -0.2920    1.1440 N   0  0  0  0  0  0  0  0  0  0  0  0
    2.4750   -0.3590    1.3190 C   0  0  0  0  0  0  0  0  0  0  0  0
    1.6510   -0.1190    0.2750 N   0  0  0  0  0  0  0  0  0  0  0  0
    0.3000   -0.1330    0.2290 C   0  0  0  0  0  0  0  0  0  0  0  0
   -0.6050   -0.4320    1.3640 C   0  0  0  0  0  0  0  0  0  0  0  0
   -1.9420   -0.1490    1.0620 N   0  0  0  0  0  0  0  0  0  0  0  0
   -2.2910    1.1630    0.7440 C   0  0  0  0  0  0  0  0  0  0  0  0
   -3.4060    1.3540   -0.2410 C   0  0  0  0  0  0  0  0  0  0  0  0
   -4.3690    0.3590   -0.1960 O   0  0  0  0  0  0  0  0  0  0  0  0
   -3.8570   -0.9100   -0.2750 C   0  0  0  0  0  0  0  0  0  0  0  0
   -2.8050   -1.2060    0.7600 C   0  0  0  0  0  0  0  0  0  0  0  0
   -0.0370    0.1760   -1.0630 C   0  0  0  0  0  0  0  0  0  0  0  0
    1.1140    0.3700   -1.7680 N   0  0  0  0  0  0  0  0  0  0  0  0
    2.1660    0.1840   -0.9260 C   0  0  0  0  0  0  0  0  0  0  0  0
    3.5010    0.2490   -1.0900 N   0  0  0  0  0  0  0  0  0  0  0  0
  1  2  1  0
  2  3  1  0
  2 17  2  0
  3  4  2  0
  4  5  1  0
  5  6  1  0
  5 16  1  0
  6  7  1  0
  6 14  2  0
  7  8  1  0
  8  9  1  0
  8 13  1  0
  9 10  1  0
 10 11  1  0
 11 12  1  0
 12 13  1  0
 14 15  1  0
 15 16  2  0
 16 17  1  0
M  END
