
     RDKit          3D

 18 20  0  0  0  0  0  0  0  0999 V2000
   -3.2740    2.5170    0.3120 C   0  0  0  0  0  0  0  0  0  0  0  0
   -2.4170    1.4060    0.2270 O   0  0  0  0  0  0  0  0  0  0  0  0
   -2.8500    0.1730   -0.1900 C   0  0  0  0  0  0  0  0  0  0  0  0
   -4.0970   -0.1710   -0.5680 N   0  0  0  0  0  0  0  0  0  0  0  0
   -4.1210   -1.4510   -0.9020 N   0  0  0  0  0  0  0  0  0  0  0  0
   -2.9070   -1.9030   -0.7360 N   0  0  0  0  0  0  0  0  0  0  0  0
   -2.0930   -0.9320   -0.2980 N   0  0  0  0  0  0  0  0  0  0  0  0
   -0.7090   -1.0770   -0.0130 C   0  0  0  0  0  0  0  0  0  0  0  0
   -0.1870   -2.2660    0.4370 C   0  0  0  0  0  0  0  0  0  0  0  0
    1.1850   -2.3620    0.7040 C   0  0  0  0  0  0  0  0  0  0  0  0
    2.0180   -1.2870    0.5240 C   0  0  0  0  0  0  0  0  0  0  0  0
    3.3870   -1.3580    0.7830 C   0  0  0  0  0  0  0  0  0  0  0  0
    4.1380   -0.3010    0.5930 O   0  0  0  0  0  0  0  0  0  0  0  0
    3.6560    0.8450    0.1630 C   0  0  0  0  0  0  0  0  0  0  0  0
    4.4620    1.8240    0.0070 N   0  0  0  0  0  0  0  0  0  0  0  0
    2.3160    0.9920   -0.1140 C   0  0  0  0  0  0  0  0  0  0  0  0
    1.5000   -0.0870    0.0710 C   0  0  0  0  0  0  0  0  0  0  0  0
    0.1290   -0.0050   -0.1920 C   0  0  0  0  0  0  0  0  0  0  0  0
  1  2  1  0
  2  3  1  0
  3  4  2  0
  3  7  1  0
  4  5  1  0
  5  6  2  0
  6  7  1  0
  7  8  1  0
  8  9  1  0
  8 18  2  0
  9 10  2  0
 10 11  1  0
 11 12  2  0
 11 17  1  0
 12 13  1  0
 13 14  1  0
 14 15  2  0
 14 16  1  0
 16 17  2  0
 17 18  1  0
M  END
