
     RDKit          3D

 18 20  0  0  0  0  0  0  0  0999 V2000
    1.9560   -0.6330   -2.5280 O   0  0  0  0  0  0  0  0  0  0  0  0
    1.1980   -0.3880   -1.5560 C   0  0  0  0  0  0  0  0  0  0  0  0
   -0.1730   -0.5080   -1.5320 C   0  0  0  0  0  0  0  0  0  0  0  0
   -0.6300   -0.1380   -0.2650 C   0  0  0  0  0  0  0  0  0  0  0  0
   -1.9840   -0.1180    0.1450 N   0  0  0  0  0  0  0  0  0  0  0  0
   -2.7090   -1.3590    0.1980 C   0  0  0  0  0  0  0  0  0  0  0  0
   -3.8950   -1.3810    1.0960 C   0  0  0  0  0  0  0  0  0  0  0  0
   -4.4390   -0.1750    1.4360 O   0  0  0  0  0  0  0  0  0  0  0  0
   -4.1570    0.7640    0.4540 C   0  0  0  0  0  0  0  0  0  0  0  0
   -2.6570    1.1020    0.5150 C   0  0  0  0  0  0  0  0  0  0  0  0
    0.4870    0.1930    0.4280 N   0  0  0  0  0  0  0  0  0  0  0  0
    1.5670    0.0500   -0.3180 N   0  0  0  0  0  0  0  0  0  0  0  0
    2.9390    0.2860   -0.0010 C   0  0  0  0  0  0  0  0  0  0  0  0
    3.6060   -0.4980    0.8720 N   0  0  0  0  0  0  0  0  0  0  0  0
    4.8930   -0.3050    1.1950 C   0  0  0  0  0  0  0  0  0  0  0  0
    5.6060    0.7330    0.6320 C   0  0  0  0  0  0  0  0  0  0  0  0
    4.9270    1.5420   -0.2660 C   0  0  0  0  0  0  0  0  0  0  0  0
    3.6330    1.3010   -0.5530 N   0  0  0  0  0  0  0  0  0  0  0  0
  1  2  2  0
  2  3  1  0
  2 12  1  0
  3  4  2  0
  4  5  1  0
  4 11  1  0
  5  6  1  0
  5 10  1  0
  6  7  1  0
  7  8  1  0
  8  9  1  0
  9 10  1  0
 11 12  1  0
 12 13  1  0
 13 14  2  0
 13 18  1  0
 14 15  1  0
 15 16  2  0
 16 17  1  0
 17 18  2  0
M  END
