
     RDKit          3D

 11 11  0  0  0  0  0  0  0  0999 V2000
    3.4890   -0.7940    0.2240 N   0  0  0  0  0  0  0  0  0  0  0  0
    2.1620   -0.2690    0.2900 C   0  0  0  0  0  0  0  0  0  0  0  0
    1.7810    0.3810    1.2830 O   0  0  0  0  0  0  0  0  0  0  0  0
    1.2660   -0.4720   -0.7510 O   0  0  0  0  0  0  0  0  0  0  0  0
   -0.0130    0.0560   -0.6440 C   0  0  0  0  0  0  0  0  0  0  0  0
   -0.9610   -0.6830   -0.0920 C   0  0  0  0  0  0  0  0  0  0  0  0
   -0.7040   -1.9770    0.3830 O   0  0  0  0  0  0  0  0  0  0  0  0
   -2.3510   -0.1800    0.0530 C   0  0  0  0  0  0  0  0  0  0  0  0
   -2.5250    1.1260   -0.4480 O   0  0  0  0  0  0  0  0  0  0  0  0
   -1.5460    1.9040   -1.0240 C   0  0  0  0  0  0  0  0  0  0  0  0
   -0.3330    1.3950   -1.1220 C   0  0  0  0  0  0  0  0  0  0  0  0
  1  2  1  0
  2  3  2  0
  2  4  1  0
  4  5  1  0
  5  6  2  0
  5 11  1  0
  6  7  1  0
  6  8  1  0
  8  9  1  0
  9 10  1  0
 10 11  2  0
M  END
