
     RDKit          3D

 18 20  0  0  0  0  0  0  0  0999 V2000
    4.7210    0.5870    0.0590 C   0  0  0  0  0  0  0  0  0  0  0  0
    3.6720   -0.3500    0.2940 N   0  0  0  0  0  0  0  0  0  0  0  0
    2.8100   -0.0550    1.3720 C   0  0  0  0  0  0  0  0  0  0  0  0
    1.5040    0.5770    0.9960 C   0  0  0  0  0  0  0  0  0  0  0  0
    1.0640    0.2480   -0.3300 N   0  0  0  0  0  0  0  0  0  0  0  0
   -0.3140    0.1030   -0.6130 C   0  0  0  0  0  0  0  0  0  0  0  0
   -0.8270   -0.2000   -1.8080 N   0  0  0  0  0  0  0  0  0  0  0  0
   -2.1540   -0.2500   -1.6920 N   0  0  0  0  0  0  0  0  0  0  0  0
   -2.5100    0.0200   -0.4240 C   0  0  0  0  0  0  0  0  0  0  0  0
   -3.8710    0.0600    0.0930 C   0  0  0  0  0  0  0  0  0  0  0  0
   -5.0570   -0.1610   -0.5740 C   0  0  0  0  0  0  0  0  0  0  0  0
   -6.0740   -0.0130    0.3300 C   0  0  0  0  0  0  0  0  0  0  0  0
   -5.5420    0.2840    1.4890 O   0  0  0  0  0  0  0  0  0  0  0  0
   -4.2340    0.3390    1.3980 C   0  0  0  0  0  0  0  0  0  0  0  0
   -3.3460    0.6290    2.4420 O   0  0  0  0  0  0  0  0  0  0  0  0
   -1.3660    0.2360    0.2310 N   0  0  0  0  0  0  0  0  0  0  0  0
    2.0230    0.0610   -1.3860 C   0  0  0  0  0  0  0  0  0  0  0  0
    3.0700   -0.9060   -0.8660 C   0  0  0  0  0  0  0  0  0  0  0  0
  1  2  1  0
  2  3  1  0
  2 18  1  0
  3  4  1  0
  4  5  1  0
  5  6  1  0
  5 17  1  0
  6  7  2  0
  6 16  1  0
  7  8  1  0
  8  9  1  0
  9 10  1  0
  9 16  2  0
 10 11  1  0
 10 14  2  0
 11 12  2  0
 12 13  1  0
 13 14  1  0
 14 15  1  0
 17 18  1  0
M  END
