
     RDKit          3D

 21 22  0  0  0  0  0  0  0  0999 V2000
    3.9290    3.1810    0.4690 O   0  0  0  0  0  0  0  0  0  0  0  0
    3.9080    2.3230    1.5710 C   0  0  0  0  0  0  0  0  0  0  0  0
    3.3060    0.9700    1.2050 C   0  0  1  0  0  0  0  0  0  0  0  0
    2.0280    1.2150    0.7620 O   0  0  0  0  0  0  0  0  0  0  0  0
    1.3750    0.1390    0.2100 C   0  0  2  0  0  0  0  0  0  0  0  0
    0.4330   -0.8080    1.4500 S   0  0  0  0  0  0  0  0  0  0  0  0
   -0.9980   -1.6290    0.7280 C   0  0  0  0  0  0  0  0  0  0  0  0
   -1.9030   -0.7060   -0.0330 C   0  0  1  0  0  0  0  0  0  0  0  0
   -2.7580   -1.5630   -0.9560 C   0  0  0  0  0  0  0  0  0  0  0  0
   -4.1240   -1.6570   -0.5020 N   0  0  0  0  0  0  0  0  0  0  0  0
   -4.7630   -0.3810   -0.7020 C   0  0  0  0  0  0  0  0  0  0  0  0
   -3.9480    0.6710   -0.0050 C   0  0  1  0  0  0  0  0  0  0  0  0
   -4.8170    1.3830    0.8330 O   0  0  0  0  0  0  0  0  0  0  0  0
   -2.8340    0.0850    0.8400 C   0  0  2  0  0  0  0  0  0  0  0  0
   -2.2050    1.1670    1.4620 O   0  0  0  0  0  0  0  0  0  0  0  0
    2.2430   -0.7480   -0.6370 C   0  0  1  0  0  0  0  0  0  0  0  0
    1.5750   -1.3320   -1.6970 O   0  0  0  0  0  0  0  0  0  0  0  0
    3.4480    0.0530   -1.0820 C   0  0  1  0  0  0  0  0  0  0  0  0
    3.1320    1.1540   -1.8400 O   0  0  0  0  0  0  0  0  0  0  0  0
    4.2200    0.3690    0.1730 C   0  0  2  0  0  0  0  0  0  0  0  0
    4.6470   -0.8680    0.6850 O   0  0  0  0  0  0  0  0  0  0  0  0
  1  2  1  0
  3  2  1  6
  3  4  1  0
  3 20  1  0
  4  5  1  0
  5  6  1  1
  5 16  1  0
  6  7  1  0
  8  7  1  1
  8  9  1  0
  8 14  1  0
  9 10  1  0
 10 11  1  0
 11 12  1  0
 12 13  1  1
 12 14  1  0
 14 15  1  6
 16 17  1  6
 16 18  1  0
 18 19  1  1
 18 20  1  0
 20 21  1  1
M  CHG  1  10   1
M  END
