
     RDKit          3D

 25 28  0  0  0  0  0  0  0  0999 V2000
   -3.1760   -0.2460   -1.9560 C   0  0  0  0  0  0  0  0  0  0  0  0
   -3.8330    0.1440   -0.6920 C   0  0  0  0  0  0  0  0  0  0  0  0
   -4.5890    1.2260   -0.6680 C   0  0  0  0  0  0  0  0  0  0  0  0
   -5.2690    1.6570    0.5810 C   0  0  0  0  0  0  0  0  0  0  0  0
   -5.6330    0.5460    1.5040 C   0  0  0  0  0  0  0  0  0  0  0  0
   -4.9140   -0.7390    1.3080 C   0  0  0  0  0  0  0  0  0  0  0  0
   -3.6560   -0.6490    0.5180 C   0  0  1  0  0  0  0  0  0  0  0  0
   -3.1190   -2.3590    0.0970 S   0  0  0  0  0  0  0  0  0  0  0  0
   -1.3800   -2.1280    0.4480 C   0  0  0  0  0  0  0  0  0  0  0  0
   -0.5020   -3.0040    0.3060 O   0  0  0  0  0  0  0  0  0  0  0  0
   -1.2770   -0.7890    0.8930 N   0  0  0  0  0  0  0  0  0  0  0  0
   -0.0010   -0.0660    0.8840 C   0  0  0  0  0  0  0  0  0  0  0  0
    0.2170    0.6530   -0.4020 C   0  0  0  0  0  0  0  0  0  0  0  0
    1.3930    1.3590   -0.4980 O   0  0  0  0  0  0  0  0  0  0  0  0
    2.7000    1.0310   -0.4870 C   0  0  0  0  0  0  0  0  0  0  0  0
    3.6570    2.0640   -0.5870 C   0  0  0  0  0  0  0  0  0  0  0  0
    4.9880    1.8250   -0.5870 C   0  0  0  0  0  0  0  0  0  0  0  0
    5.4820    0.5490   -0.4870 C   0  0  0  0  0  0  0  0  0  0  0  0
    4.5940   -0.4820   -0.3880 C   0  0  0  0  0  0  0  0  0  0  0  0
    3.2330   -0.2270   -0.3900 C   0  0  0  0  0  0  0  0  0  0  0  0
    5.3640   -1.7250   -0.2950 C   0  0  0  0  0  0  0  0  0  0  0  0
    6.7720   -1.3530   -0.6680 C   0  0  0  0  0  0  0  0  0  0  0  0
    6.8150    0.0770   -0.4660 N   0  0  0  0  0  0  0  0  0  0  0  0
   -2.4840   -0.2340    1.3350 C   0  0  0  0  0  0  0  0  0  0  0  0
   -2.6330    0.5550    2.3320 O   0  0  0  0  0  0  0  0  0  0  0  0
  1  2  1  0
  2  3  2  0
  2  7  1  0
  3  4  1  0
  4  5  1  0
  5  6  1  0
  7  6  1  1
  7  8  1  0
  7 24  1  0
  8  9  1  0
  9 10  2  0
  9 11  1  0
 11 12  1  0
 11 24  1  0
 12 13  1  0
 13 14  1  0
 14 15  1  0
 15 16  2  0
 15 20  1  0
 16 17  1  0
 17 18  2  0
 18 19  1  0
 18 23  1  0
 19 20  2  0
 19 21  1  0
 21 22  1  0
 22 23  1  0
 24 25  2  0
M  END
