
     RDKit          3D

 25 28  0  0  0  0  0  0  0  0999 V2000
   -5.2280   -0.6790    2.2760 C   0  0  0  0  0  0  0  0  0  0  0  0
   -4.1120   -0.4030    1.3130 C   0  0  0  0  0  0  0  0  0  0  0  0
   -2.8040   -0.3630    1.7340 C   0  0  0  0  0  0  0  0  0  0  0  0
   -1.7540   -0.1100    0.8630 C   0  0  0  0  0  0  0  0  0  0  0  0
   -0.4540   -0.0910    1.3550 N   0  0  0  0  0  0  0  0  0  0  0  0
    0.7380    0.2590    0.7000 C   0  0  0  0  0  0  0  0  0  0  0  0
    0.6960    0.6160   -0.4940 O   0  0  0  0  0  0  0  0  0  0  0  0
    2.0210    0.2110    1.3990 C   0  0  0  0  0  0  0  0  0  0  0  0
    3.1410    0.6100    0.5660 N   0  0  0  0  0  0  0  0  0  0  0  0
    3.3430    1.9360    0.1010 C   0  0  0  0  0  0  0  0  0  0  0  0
    4.6900    2.1690   -0.5000 C   0  0  0  0  0  0  0  0  0  0  0  0
    5.6770    1.2590   -0.0710 O   0  0  0  0  0  0  0  0  0  0  0  0
    5.3820   -0.0930   -0.1060 C   0  0  0  0  0  0  0  0  0  0  0  0
    6.3290   -1.0130   -0.4420 C   0  0  0  0  0  0  0  0  0  0  0  0
    5.9670   -2.3590   -0.4570 C   0  0  0  0  0  0  0  0  0  0  0  0
    4.6930   -2.7250   -0.1410 C   0  0  0  0  0  0  0  0  0  0  0  0
    3.7610   -1.7570    0.1950 C   0  0  0  0  0  0  0  0  0  0  0  0
    4.0580   -0.4160    0.2280 C   0  0  0  0  0  0  0  0  0  0  0  0
   -2.1080    0.0990   -0.4550 C   0  0  0  0  0  0  0  0  0  0  0  0
   -3.3890    0.0670   -0.9000 C   0  0  0  0  0  0  0  0  0  0  0  0
   -4.4190   -0.1830   -0.0380 C   0  0  0  0  0  0  0  0  0  0  0  0
   -5.7090   -0.2170   -0.4770 O   0  0  0  0  0  0  0  0  0  0  0  0
   -6.2860    0.2890   -1.6160 C   0  0  0  0  0  0  0  0  0  0  0  0
   -5.4530    1.0710   -2.5580 C   0  0  0  0  0  0  0  0  0  0  0  0
   -3.7860    0.3460   -2.5990 S   0  0  0  0  0  0  0  0  0  0  0  0
  1  2  1  0
  2  3  2  0
  2 21  1  0
  3  4  1  0
  4  5  1  0
  4 19  2  0
  5  6  1  0
  6  7  2  0
  6  8  1  0
  8  9  1  0
  9 10  1  0
  9 18  1  0
 10 11  1  0
 11 12  1  0
 12 13  1  0
 13 14  2  0
 13 18  1  0
 14 15  1  0
 15 16  2  0
 16 17  1  0
 17 18  2  0
 19 20  1  0
 20 21  2  0
 20 25  1  0
 21 22  1  0
 22 23  1  0
 23 24  1  0
 24 25  1  0
M  END
