
     RDKit          3D

 20 19  0  0  0  0  0  0  0  0999 V2000
   -2.2310   -1.3680    0.7950 C   0  0  0  0  0  0  0  0  0  0  0  0
   -2.6990   -0.2740   -0.1460 C   0  0  1  0  0  0  0  0  0  0  0  0
   -3.2990   -0.8520   -1.4060 C   0  0  0  0  0  0  0  0  0  0  0  0
   -3.8510    0.1660   -2.1610 O   0  0  0  0  0  0  0  0  0  0  0  0
   -3.8260    0.4410    0.5930 C   0  0  0  0  0  0  0  0  0  0  0  0
   -5.1760   -0.7150    0.9690 S   0  0  0  0  0  0  0  0  0  0  0  0
   -1.7060    0.6460   -0.3750 O   0  0  0  0  0  0  0  0  0  0  0  0
   -0.5540    0.1100   -0.9510 C   0  0  2  0  0  0  0  0  0  0  0  0
    0.6370    0.2670   -0.0010 C   0  0  0  0  0  0  0  0  0  0  0  0
    1.7970   -0.3110   -0.6480 N   0  0  0  0  0  0  0  0  0  0  0  0
    2.6630   -0.9320    0.3300 C   0  0  0  0  0  0  0  0  0  0  0  0
    3.6520    0.0550    0.8320 C   0  0  0  0  0  0  0  0  0  0  0  0
    3.6130    1.2250    0.3740 O   0  0  0  0  0  0  0  0  0  0  0  0
    4.6310   -0.2850    1.8080 N   0  0  0  0  0  0  0  0  0  0  0  0
    5.5380    0.7160    2.2330 C   0  0  0  0  0  0  0  0  0  0  0  0
    5.4550    1.8710    1.7420 O   0  0  0  0  0  0  0  0  0  0  0  0
    6.5130    0.4360    3.1830 O   0  0  0  0  0  0  0  0  0  0  0  0
   -0.1990    0.8300   -2.1960 C   0  0  0  0  0  0  0  0  0  0  0  0
   -1.0380    1.9280   -2.5940 N   0  0  0  0  0  0  0  0  0  0  0  0
    0.7770    0.5320   -2.8990 O   0  0  0  0  0  0  0  0  0  0  0  0
  2  1  1  1
  2  3  1  0
  2  5  1  0
  2  7  1  0
  3  4  1  0
  5  6  1  0
  7  8  1  0
  8  9  1  1
  8 18  1  0
  9 10  1  0
 10 11  1  0
 11 12  1  0
 12 13  2  0
 12 14  1  0
 14 15  1  0
 15 16  2  0
 15 17  1  0
 18 19  1  0
 18 20  2  0
M  CHG  1  10   1
M  END
