
     RDKit          3D

 25 28  0  0  0  0  0  0  0  0999 V2000
   -3.0970   -2.2810   -2.3630 C   0  0  0  0  0  0  0  0  0  0  0  0
   -3.0190   -1.3120   -1.2620 N   0  0  0  0  0  0  0  0  0  0  0  0
   -4.2310   -0.7350   -0.8140 C   0  0  0  0  0  0  0  0  0  0  0  0
   -5.2800   -1.1190   -1.4400 O   0  0  0  0  0  0  0  0  0  0  0  0
   -4.5530    0.2220    0.2270 C   0  0  0  0  0  0  0  0  0  0  0  0
   -5.7540    0.8740    0.0130 C   0  0  0  0  0  0  0  0  0  0  0  0
   -6.1850    1.8180    0.9320 C   0  0  0  0  0  0  0  0  0  0  0  0
   -5.4640    2.1410    2.0630 C   0  0  0  0  0  0  0  0  0  0  0  0
   -4.2690    1.4840    2.2660 C   0  0  0  0  0  0  0  0  0  0  0  0
   -3.8300    0.5330    1.3440 C   0  0  0  0  0  0  0  0  0  0  0  0
   -2.2730   -0.1370    1.8680 S   0  0  0  0  0  0  0  0  0  0  0  0
   -1.2800   -0.5860    0.4610 C   0  0  0  0  0  0  0  0  0  0  0  0
    0.0870   -0.4180    0.7040 C   0  0  0  0  0  0  0  0  0  0  0  0
    1.0380   -0.6960   -0.2220 C   0  0  0  0  0  0  0  0  0  0  0  0
    2.4360   -0.5590   -0.0720 N   0  0  0  0  0  0  0  0  0  0  0  0
    3.1410   -0.1120    1.0500 C   0  0  0  0  0  0  0  0  0  0  0  0
    2.5210    0.2230    2.0770 O   0  0  0  0  0  0  0  0  0  0  0  0
    4.6240   -0.0020    1.1120 C   0  0  2  0  0  0  0  0  0  0  0  0
    5.0700    1.4560    1.1940 C   0  0  0  0  0  0  0  0  0  0  0  0
    6.5470    1.3070    0.8130 C   0  0  0  0  0  0  0  0  0  0  0  0
    6.5650   -0.0400    0.1490 C   0  0  0  0  0  0  0  0  0  0  0  0
    5.2290   -0.3960   -0.0780 O   0  0  0  0  0  0  0  0  0  0  0  0
    0.5830   -1.1670   -1.4550 C   0  0  0  0  0  0  0  0  0  0  0  0
   -0.7370   -1.3350   -1.7040 C   0  0  0  0  0  0  0  0  0  0  0  0
   -1.7200   -1.0510   -0.7550 C   0  0  0  0  0  0  0  0  0  0  0  0
  1  2  1  0
  2  3  1  0
  2 25  1  0
  3  4  2  0
  3  5  1  0
  5  6  2  0
  5 10  1  0
  6  7  1  0
  7  8  2  0
  8  9  1  0
  9 10  2  0
 10 11  1  0
 11 12  1  0
 12 13  2  0
 12 25  1  0
 13 14  1  0
 14 15  1  0
 14 23  2  0
 15 16  1  0
 16 17  2  0
 18 16  1  6
 18 19  1  0
 18 22  1  0
 19 20  1  0
 20 21  1  0
 21 22  1  0
 23 24  1  0
 24 25  2  0
M  END
