
     RDKit          3D

 25 28  0  0  0  0  0  0  0  0999 V2000
    0.3430   -0.6160    3.2680 O   0  0  0  0  0  0  0  0  0  0  0  0
   -0.3130    0.3220    2.7530 C   0  0  0  0  0  0  0  0  0  0  0  0
   -1.2570    0.1660    1.6940 N   0  0  0  0  0  0  0  0  0  0  0  0
   -1.9160    1.3400    1.2370 C   0  0  0  0  0  0  0  0  0  0  0  0
   -2.8050    1.1670    0.0590 C   0  0  0  0  0  0  0  0  0  0  0  0
   -4.0120    0.5770    0.0360 C   0  0  0  0  0  0  0  0  0  0  0  0
   -4.7190    0.4790   -1.1030 C   0  0  0  0  0  0  0  0  0  0  0  0
   -3.6170    1.2810   -2.2910 S   0  0  0  0  0  0  0  0  0  0  0  0
   -2.3020    1.6770   -1.1370 C   0  0  0  0  0  0  0  0  0  0  0  0
   -1.0730    2.3580   -1.4110 C   0  0  0  0  0  0  0  0  0  0  0  0
    0.1260    1.5170   -1.7580 C   0  0  0  0  0  0  0  0  0  0  0  0
    1.0730    1.5290   -0.6230 C   0  0  0  0  0  0  0  0  0  0  0  0
    1.1830    2.7310   -0.1370 O   0  0  0  0  0  0  0  0  0  0  0  0
    1.8080    0.4830   -0.0570 N   0  0  0  0  0  0  0  0  0  0  0  0
    2.8700    0.6940    0.9910 C   0  0  0  0  0  0  0  0  0  0  0  0
    3.9320   -0.2110    0.3620 C   0  0  0  0  0  0  0  0  0  0  0  0
    3.0970   -1.3750   -0.0260 C   0  0  0  0  0  0  0  0  0  0  0  0
    1.8620   -0.8900   -0.2530 C   0  0  0  0  0  0  0  0  0  0  0  0
    1.0220   -1.9550   -0.6200 C   0  0  0  0  0  0  0  0  0  0  0  0
    1.7720   -3.0900   -0.6170 C   0  0  0  0  0  0  0  0  0  0  0  0
    3.1600   -2.8220   -0.2390 C   0  0  0  0  0  0  0  0  0  0  0  0
   -0.4250   -1.9260   -0.9390 C   0  0  0  0  0  0  0  0  0  0  0  0
   -1.4720   -1.5770   -0.2270 C   0  0  0  0  0  0  0  0  0  0  0  0
   -1.5490   -1.0930    1.1320 C   0  0  0  0  0  0  0  0  0  0  0  0
   -1.9630   -1.9700    2.0210 O   0  0  0  0  0  0  0  0  0  0  0  0
  1  2  2  0
  2  3  1  0
  3  4  1  0
  3 24  1  0
  4  5  1  0
  5  6  1  0
  5  9  2  0
  6  7  2  0
  7  8  1  0
  8  9  1  0
  9 10  1  0
 10 11  1  0
 11 12  1  0
 12 13  2  0
 12 14  1  0
 14 15  1  0
 14 18  1  0
 15 16  1  0
 16 17  1  0
 17 18  2  0
 17 21  1  0
 18 19  1  0
 19 20  2  0
 19 22  1  0
 20 21  1  0
 22 23  2  0
 23 24  1  0
 24 25  2  0
M  END
