
     RDKit          3D

 24 27  0  0  0  0  0  0  0  0999 V2000
    8.2810   -1.1260   -0.9460 O   0  0  0  0  0  0  0  0  0  0  0  0
    7.0490   -0.7440   -0.9770 C   0  0  0  0  0  0  0  0  0  0  0  0
    6.0590   -1.8030   -0.9090 C   0  0  0  0  0  0  0  0  0  0  0  0
    4.7360   -1.1970   -0.5480 C   0  0  0  0  0  0  0  0  0  0  0  0
    3.2900   -1.9860   -0.0270 S   0  0  0  0  0  0  0  0  0  0  0  0
    2.2890   -0.5080    0.1040 C   0  0  0  0  0  0  0  0  0  0  0  0
    0.9170   -0.5070    0.6210 C   0  0  2  0  0  0  0  0  0  0  0  0
   -0.0930    0.4230   -0.0740 C   0  0  0  0  0  0  0  0  0  0  0  0
   -1.3330    0.2500    0.5340 N   0  0  0  0  0  0  0  0  0  0  0  0
   -2.4050    1.1460    0.4750 C   0  0  0  0  0  0  0  0  0  0  0  0
   -3.6090    0.6200   -0.2180 C   0  0  0  0  0  0  0  0  0  0  0  0
   -3.7610    0.4670   -1.5570 C   0  0  0  0  0  0  0  0  0  0  0  0
   -4.9800    0.1080   -2.1480 C   0  0  0  0  0  0  0  0  0  0  0  0
   -6.0850   -0.1020   -1.3100 C   0  0  0  0  0  0  0  0  0  0  0  0
   -5.9620    0.0500    0.0370 C   0  0  0  0  0  0  0  0  0  0  0  0
   -4.7690    0.4000    0.5820 C   0  0  0  0  0  0  0  0  0  0  0  0
   -4.6160    0.5590    1.9370 O   0  0  0  0  0  0  0  0  0  0  0  0
   -1.2790   -0.3340    1.8860 C   0  0  0  0  0  0  0  0  0  0  0  0
   -0.0510   -0.0350    2.6570 C   0  0  0  0  0  0  0  0  0  0  0  0
    1.0580    0.1460    1.8980 O   0  0  0  0  0  0  0  0  0  0  0  0
    3.1530    0.4700   -0.2650 C   0  0  0  0  0  0  0  0  0  0  0  0
    4.4120    0.1050   -0.5960 C   0  0  0  0  0  0  0  0  0  0  0  0
    5.5370    1.0360   -0.9100 C   0  0  0  0  0  0  0  0  0  0  0  0
    6.7150    0.6110   -1.0810 N   0  0  0  0  0  0  0  0  0  0  0  0
  1  2  2  0
  2  3  1  0
  2 24  1  0
  3  4  1  0
  4  5  1  0
  4 22  2  0
  5  6  1  0
  7  6  1  6
  6 21  2  0
  7  8  1  0
  7 20  1  0
  8  9  1  0
  9 10  1  0
  9 18  1  0
 10 11  1  0
 11 12  2  0
 11 16  1  0
 12 13  1  0
 13 14  2  0
 14 15  1  0
 15 16  2  0
 16 17  1  0
 18 19  1  0
 19 20  1  0
 21 22  1  0
 22 23  1  0
 23 24  2  0
M  END
