
     RDKit          3D

 25 28  0  0  0  0  0  0  0  0999 V2000
    6.4430    1.8330    0.5180 C   0  0  0  0  0  0  0  0  0  0  0  0
    5.5540    0.9510   -0.1760 N   0  0  0  0  0  0  0  0  0  0  0  0
    4.2680    1.3470   -0.6640 C   0  0  0  0  0  0  0  0  0  0  0  0
    3.2100    0.4100   -0.2170 C   0  0  0  0  0  0  0  0  0  0  0  0
    3.5390   -1.0430   -0.3290 C   0  0  0  0  0  0  0  0  0  0  0  0
    4.7910   -1.4200   -0.5110 C   0  0  0  0  0  0  0  0  0  0  0  0
    5.0220   -2.8030   -0.7030 C   0  0  0  0  0  0  0  0  0  0  0  0
    3.4290   -3.5530   -0.6170 S   0  0  0  0  0  0  0  0  0  0  0  0
    2.5400   -2.0190   -0.3310 C   0  0  0  0  0  0  0  0  0  0  0  0
    1.0950   -1.9940   -0.1590 C   0  0  0  0  0  0  0  0  0  0  0  0
    0.5120   -3.1170   -0.3420 O   0  0  0  0  0  0  0  0  0  0  0  0
    0.2730   -0.9240    0.1810 N   0  0  0  0  0  0  0  0  0  0  0  0
   -1.1250   -0.9260    0.3360 C   0  0  0  0  0  0  0  0  0  0  0  0
   -1.8740   -2.0500    0.4940 C   0  0  0  0  0  0  0  0  0  0  0  0
   -3.2640   -1.9500    0.6190 C   0  0  0  0  0  0  0  0  0  0  0  0
   -3.9410   -0.7540    0.5910 C   0  0  0  0  0  0  0  0  0  0  0  0
   -3.1880    0.3870    0.4310 C   0  0  0  0  0  0  0  0  0  0  0  0
   -1.8240    0.2990    0.3080 C   0  0  0  0  0  0  0  0  0  0  0  0
   -4.1380    1.5290    0.4330 C   0  0  0  0  0  0  0  0  0  0  0  0
   -5.4180    0.8280    0.0120 C   0  0  1  0  0  0  0  0  0  0  0  0
   -6.6480    1.5820    0.4180 C   0  0  0  0  0  0  0  0  0  0  0  0
   -5.4290    0.6080   -1.4780 C   0  0  0  0  0  0  0  0  0  0  0  0
   -5.2930   -0.4050    0.6930 O   0  0  0  0  0  0  0  0  0  0  0  0
    5.8860   -0.4200   -0.4420 C   0  0  0  0  0  0  0  0  0  0  0  0
    7.0600   -0.7310   -0.6050 O   0  0  0  0  0  0  0  0  0  0  0  0
  1  2  1  0
  2  3  1  0
  2 24  1  0
  3  4  1  0
  4  5  1  0
  5  6  1  0
  5  9  2  0
  6  7  2  0
  6 24  1  0
  7  8  1  0
  8  9  1  0
  9 10  1  0
 10 11  2  0
 10 12  1  0
 12 13  1  0
 13 14  2  0
 13 18  1  0
 14 15  1  0
 15 16  2  0
 16 17  1  0
 16 23  1  0
 17 18  2  0
 17 19  1  0
 19 20  1  0
 20 21  1  1
 20 22  1  0
 20 23  1  0
 24 25  2  0
M  END
