
     RDKit          3D

 25 28  0  0  0  0  0  0  0  0999 V2000
   -5.3000    0.8730    0.0230 C   0  0  0  0  0  0  0  0  0  0  0  0
   -4.1260    0.5970   -0.9350 C   0  0  2  0  0  0  0  0  0  0  0  0
   -3.6920    1.9400   -1.4250 C   0  0  0  0  0  0  0  0  0  0  0  0
   -4.7330   -0.2310   -2.0790 C   0  0  0  0  0  0  0  0  0  0  0  0
   -5.7590   -1.4830   -1.2030 S   0  0  0  0  0  0  0  0  0  0  0  0
   -4.9280   -1.8170    0.3980 C   0  0  0  0  0  0  0  0  0  0  0  0
   -3.5050   -1.3380    0.3280 C   0  0  0  0  0  0  0  0  0  0  0  0
   -2.3820   -1.8870    0.8260 N   0  0  0  0  0  0  0  0  0  0  0  0
   -1.3230   -1.1430    0.5200 C   0  0  0  0  0  0  0  0  0  0  0  0
    0.0360   -1.2720    0.7900 C   0  0  0  0  0  0  0  0  0  0  0  0
    0.9520   -0.3470    0.3490 C   0  0  0  0  0  0  0  0  0  0  0  0
    2.3640   -0.5030    0.6430 C   0  0  0  0  0  0  0  0  0  0  0  0
    2.8230   -1.4680    1.3020 O   0  0  0  0  0  0  0  0  0  0  0  0
    3.3130    0.4290    0.2020 O   0  0  0  0  0  0  0  0  0  0  0  0
    4.6650    0.3020    0.4700 C   0  0  0  0  0  0  0  0  0  0  0  0
    5.1690    0.8700    1.6190 C   0  0  0  0  0  0  0  0  0  0  0  0
    6.5250    0.7710    1.9360 C   0  0  0  0  0  0  0  0  0  0  0  0
    7.3770    0.0920    1.0820 C   0  0  0  0  0  0  0  0  0  0  0  0
    8.7370   -0.0150    1.3880 O   0  0  0  0  0  0  0  0  0  0  0  0
    6.8910   -0.4800   -0.0660 C   0  0  0  0  0  0  0  0  0  0  0  0
    5.5520   -0.3620   -0.3450 C   0  0  0  0  0  0  0  0  0  0  0  0
    0.4770    0.7230   -0.3770 C   0  0  0  0  0  0  0  0  0  0  0  0
   -0.8580    0.8870   -0.6650 C   0  0  0  0  0  0  0  0  0  0  0  0
   -1.7690   -0.0450   -0.2180 C   0  0  0  0  0  0  0  0  0  0  0  0
   -3.1230   -0.2120   -0.3080 N   0  0  0  0  0  0  0  0  0  0  0  0
  2  1  1  1
  2  3  1  0
  2  4  1  0
  2 25  1  0
  4  5  1  0
  5  6  1  0
  6  7  1  0
  7  8  2  0
  7 25  1  0
  8  9  1  0
  9 10  2  0
  9 24  1  0
 10 11  1  0
 11 12  1  0
 11 22  2  0
 12 13  2  0
 12 14  1  0
 14 15  1  0
 15 16  2  0
 15 21  1  0
 16 17  1  0
 17 18  2  0
 18 19  1  0
 18 20  1  0
 20 21  2  0
 22 23  1  0
 23 24  2  0
 24 25  1  0
M  END
