
     RDKit          3D

  7  7  0  0  0  0  0  0  0  0999 V2000
    2.0480    0.0730    0.0020 N   0  0  0  0  0  0  0  0  0  0  0  0
    0.6350    0.2480   -0.1580 C   0  0  0  0  0  0  0  0  0  0  0  0
    0.1290    1.3110   -0.6730 N   0  0  0  0  0  0  0  0  0  0  0  0
   -1.2240    1.1400   -0.6720 O   0  0  0  0  0  0  0  0  0  0  0  0
   -1.6560    0.0270    0.0510 C   0  0  0  0  0  0  0  0  0  0  0  0
   -0.3820   -0.7140    0.2280 C   0  0  0  0  0  0  0  0  0  0  0  0
   -0.2340   -1.8920    0.6200 O   0  0  0  0  0  0  0  0  0  0  0  0
  1  2  1  0
  2  3  2  0
  2  6  1  0
  3  4  1  0
  4  5  1  0
  5  6  1  0
  6  7  2  0
M  END
