
     RDKit          3D

 25 28  0  0  0  0  0  0  0  0999 V2000
    5.9710    1.6470    0.2560 C   0  0  0  0  0  0  0  0  0  0  0  0
    4.5070    1.4640    0.1050 C   0  0  0  0  0  0  0  0  0  0  0  0
    3.8840    1.3270   -1.1060 C   0  0  0  0  0  0  0  0  0  0  0  0
    2.5190    1.1590   -1.2000 C   0  0  0  0  0  0  0  0  0  0  0  0
    1.7000    1.1200   -0.0630 C   0  0  0  0  0  0  0  0  0  0  0  0
    0.3020    0.9700   -0.1720 N   0  0  0  0  0  0  0  0  0  0  0  0
   -0.4480   -0.2040   -0.1070 C   0  0  0  0  0  0  0  0  0  0  0  0
   -1.8260   -0.2810   -0.1790 C   0  0  0  0  0  0  0  0  0  0  0  0
   -2.8210    0.7630   -0.3200 C   0  0  0  0  0  0  0  0  0  0  0  0
   -3.8410    0.6820   -1.2450 C   0  0  0  0  0  0  0  0  0  0  0  0
   -4.7960    1.6820   -1.3640 C   0  0  0  0  0  0  0  0  0  0  0  0
   -4.7560    2.7880   -0.5630 C   0  0  0  0  0  0  0  0  0  0  0  0
   -5.7350    3.7850   -0.7040 O   0  0  0  0  0  0  0  0  0  0  0  0
   -3.7470    2.8860    0.3650 C   0  0  0  0  0  0  0  0  0  0  0  0
   -2.7920    1.8790    0.4800 C   0  0  0  0  0  0  0  0  0  0  0  0
   -2.1320   -1.6020   -0.0980 N   0  0  0  0  0  0  0  0  0  0  0  0
   -1.0310   -2.3280    0.0190 C   0  0  0  0  0  0  0  0  0  0  0  0
   -0.8360   -3.6820    0.1290 C   0  0  0  0  0  0  0  0  0  0  0  0
   -2.0490   -4.5750    0.1270 C   0  0  0  0  0  0  0  0  0  0  0  0
    0.4210   -4.2360    0.2390 C   0  0  0  0  0  0  0  0  0  0  0  0
    1.4810   -3.3600    0.2340 C   0  0  0  0  0  0  0  0  0  0  0  0
    1.2530   -2.0050    0.1220 C   0  0  0  0  0  0  0  0  0  0  0  0
    0.0040   -1.4600    0.0130 N   0  0  0  0  0  0  0  0  0  0  0  0
    2.3570    1.2620    1.1470 C   0  0  0  0  0  0  0  0  0  0  0  0
    3.7190    1.4300    1.2480 C   0  0  0  0  0  0  0  0  0  0  0  0
  1  2  1  0
  2  3  2  0
  2 25  1  0
  3  4  1  0
  4  5  2  0
  5  6  1  0
  5 24  1  0
  6  7  1  0
  7  8  2  0
  7 23  1  0
  8  9  1  0
  8 16  1  0
  9 10  2  0
  9 15  1  0
 10 11  1  0
 11 12  2  0
 12 13  1  0
 12 14  1  0
 14 15  2  0
 16 17  2  0
 17 18  1  0
 17 23  1  0
 18 19  1  0
 18 20  2  0
 20 21  1  0
 21 22  2  0
 22 23  1  0
 24 25  2  0
M  END
