
     RDKit          3D

 20 22  0  0  0  0  0  0  0  0999 V2000
    4.7440    1.2570   -1.3430 C   0  0  0  0  0  0  0  0  0  0  0  0
    5.0050   -0.0290   -0.6110 C   0  0  0  0  0  0  0  0  0  0  0  0
    4.0140   -0.9670   -0.7370 O   0  0  0  0  0  0  0  0  0  0  0  0
    2.7730   -0.5610   -0.2680 C   0  0  1  0  0  0  0  0  0  0  0  0
    1.8070   -0.7770   -1.3840 C   0  0  0  0  0  0  0  0  0  0  0  0
    0.5350   -0.0400   -1.3050 C   0  0  0  0  0  0  0  0  0  0  0  0
    0.0830    0.2810    0.1070 C   0  0  1  0  0  0  0  0  0  0  0  0
   -1.2140    0.9890    0.1000 C   0  0  0  0  0  0  0  0  0  0  0  0
   -2.4370    0.1660    0.1630 C   0  0  1  0  0  0  0  0  0  0  0  0
   -3.4080    0.7230    1.2040 C   0  0  0  0  0  0  0  0  0  0  0  0
   -4.3330    1.7570    0.6010 C   0  0  0  0  0  0  0  0  0  0  0  0
   -5.1740    1.0210   -0.4090 C   0  0  0  0  0  0  0  0  0  0  0  0
   -6.3690    1.3180   -0.5980 O   0  0  0  0  0  0  0  0  0  0  0  0
   -4.5120    0.0010   -1.0970 O   0  0  0  0  0  0  0  0  0  0  0  0
   -3.1090    0.1230   -1.2030 C   0  0  0  0  0  0  0  0  0  0  0  0
   -2.1830   -1.2760    0.5970 C   0  0  0  0  0  0  0  0  0  0  0  0
   -1.0680   -1.1720    1.6400 C   0  0  0  0  0  0  0  0  0  0  0  0
    0.1390   -0.9220    0.8750 N   0  0  2  0  0  0  0  0  0  0  0  0
    1.3230   -0.9040    1.7090 C   0  0  0  0  0  0  0  0  0  0  0  0
    2.4660   -1.4670    0.9320 C   0  0  0  0  0  0  0  0  0  0  0  0
  1  2  1  0
  2  3  1  0
  4  3  1  6
  4  5  1  0
  4 20  1  0
  5  6  1  0
  7  6  1  6
  7  8  1  0
  7 18  1  0
  9  8  1  6
  9 10  1  0
  9 15  1  0
  9 16  1  0
 10 11  1  0
 11 12  1  0
 12 13  2  0
 12 14  1  0
 14 15  1  0
 16 17  1  0
 18 17  1  1
 18 19  1  0
 19 20  1  0
M  CHG  1  18   1
M  END
