
     RDKit          3D

 20 22  0  0  0  0  0  0  0  0999 V2000
    1.6840   -0.0770    1.8160 O   0  0  0  0  0  0  0  0  0  0  0  0
    1.6210   -0.6800    0.7580 C   0  0  0  0  0  0  0  0  0  0  0  0
    1.1670   -2.0860    0.8020 C   0  0  0  0  0  0  0  0  0  0  0  0
   -0.0130   -2.3610    1.4290 O   0  0  0  0  0  0  0  0  0  0  0  0
   -1.1860   -1.7780    1.6910 C   0  0  0  0  0  0  0  0  0  0  0  0
   -1.4690   -1.4130    2.8860 O   0  0  0  0  0  0  0  0  0  0  0  0
   -2.2990   -1.4620    0.7470 C   0  0  1  0  0  0  0  0  0  0  0  0
   -3.2400   -0.4110    1.2740 C   0  0  0  0  0  0  0  0  0  0  0  0
   -2.8950    0.9790    0.8390 C   0  0  0  0  0  0  0  0  0  0  0  0
   -2.7790    1.1180   -0.6610 C   0  0  1  0  0  0  0  0  0  0  0  0
   -1.9280    2.3770   -0.8870 C   0  0  0  0  0  0  0  0  0  0  0  0
   -0.4630    2.0390   -0.9900 C   0  0  0  0  0  0  0  0  0  0  0  0
    0.4380    1.7700   -0.1180 C   0  0  0  0  0  0  0  0  0  0  0  0
    1.9100    1.4330   -0.2050 C   0  0  0  0  0  0  0  0  0  0  0  0
    1.9850   -0.0060   -0.4610 N   0  0  1  0  0  0  0  0  0  0  0  0
    3.3150   -0.3680   -0.8930 C   0  0  2  0  0  0  0  0  0  0  0  0
    4.2500   -1.1230   -0.0650 C   0  0  0  0  0  0  0  0  0  0  0  0
    4.4490    0.3670   -0.2660 C   0  0  0  0  0  0  0  0  0  0  0  0
   -2.3060   -0.0690   -1.3800 C   0  0  0  0  0  0  0  0  0  0  0  0
   -1.8850   -1.2800   -0.6640 C   0  0  0  0  0  0  0  0  0  0  0  0
  1  2  2  0
  2  3  1  0
  2 15  1  0
  3  4  1  0
  4  5  1  0
  5  6  2  0
  5  7  1  0
  7  8  1  0
  7 20  1  6
  8  9  1  0
  9 10  1  0
 10 11  1  1
 10 19  1  0
 11 12  1  0
 12 13  2  0
 13 14  1  0
 15 14  1  1
 15 16  1  0
 16 17  1  1
 16 18  1  0
 17 18  1  0
 19 20  1  0
M  CHG  1  15   1
M  END
