
     RDKit          3D

  7  7  0  0  0  0  0  0  0  0999 V2000
    2.2030    0.2550    0.0290 N   0  0  0  0  0  0  0  0  0  0  0  0
    0.7960    0.3270   -0.0490 C   0  0  0  0  0  0  0  0  0  0  0  0
    0.2170    1.4760   -0.1530 N   0  0  0  0  0  0  0  0  0  0  0  0
   -1.1630    1.5080   -0.2280 O   0  0  0  0  0  0  0  0  0  0  0  0
   -1.8380    0.2820   -0.0590 C   0  0  0  0  0  0  0  0  0  0  0  0
   -1.1310   -0.6910   -0.7730 O   0  0  0  0  0  0  0  0  0  0  0  0
    0.0320   -0.9440   -0.0080 C   0  0  0  0  0  0  0  0  0  0  0  0
  1  2  1  0
  2  3  2  0
  2  7  1  0
  3  4  1  0
  4  5  1  0
  5  6  1  0
  6  7  1  0
M  END
