
     RDKit          3D

  7  7  0  0  0  0  0  0  0  0999 V2000
    1.9510   -0.3110    0.2380 N   0  0  0  0  0  0  0  0  0  0  0  0
    0.5530   -0.0990    0.0680 C   0  0  0  0  0  0  0  0  0  0  0  0
   -0.3030   -1.0330    0.0100 N   0  0  0  0  0  0  0  0  0  0  0  0
   -1.6110   -0.5080   -0.1640 C   0  0  0  0  0  0  0  0  0  0  0  0
   -1.4610    0.8760   -0.2080 O   0  0  0  0  0  0  0  0  0  0  0  0
   -0.1260    1.1730   -0.0670 C   0  0  0  0  0  0  0  0  0  0  0  0
    0.3500    2.3360   -0.0630 O   0  0  0  0  0  0  0  0  0  0  0  0
  1  2  1  0
  2  3  2  0
  2  6  1  0
  3  4  1  0
  4  5  1  0
  5  6  1  0
  6  7  2  0
M  END
