
     RDKit          3D

  7  7  0  0  0  0  0  0  0  0999 V2000
    2.7370   -0.8450   -0.1160 O   0  0  0  0  0  0  0  0  0  0  0  0
    1.5430   -0.5080   -0.0040 C   0  0  0  0  0  0  0  0  0  0  0  0
    1.1760    0.8610    0.1770 N   0  0  0  0  0  0  0  0  0  0  0  0
   -0.0900    1.0810    0.7620 N   0  0  0  0  0  0  0  0  0  0  0  0
   -1.1280    0.4090    0.0430 C   0  0  0  0  0  0  0  0  0  0  0  0
   -0.7570   -0.9290   -0.4940 C   0  0  0  0  0  0  0  0  0  0  0  0
    0.4760   -1.4180   -0.0450 O   0  0  0  0  0  0  0  0  0  0  0  0
  1  2  2  0
  2  3  1  0
  2  7  1  0
  3  4  1  0
  4  5  1  0
  5  6  1  0
  6  7  1  0
M  END
