
     RDKit          3D

  6  6  0  0  0  0  0  0  0  0999 V2000
   -1.8640   -0.6880   -0.3590 O   0  0  0  0  0  0  0  0  0  0  0  0
   -0.6090   -0.1180   -0.1630 C   0  0  0  0  0  0  0  0  0  0  0  0
   -0.3600    1.2120    0.0390 C   0  0  0  0  0  0  0  0  0  0  0  0
    0.9660    1.3030    0.1770 N   0  0  0  0  0  0  0  0  0  0  0  0
    1.5180    0.0930    0.0670 N   0  0  0  0  0  0  0  0  0  0  0  0
    0.5690   -0.8230   -0.1460 C   0  0  0  0  0  0  0  0  0  0  0  0
  1  2  1  0
  2  3  1  0
  2  6  2  0
  3  4  2  0
  4  5  1  0
  5  6  1  0
M  END
