
     RDKit          3D

 20 22  0  0  0  0  0  0  0  0999 V2000
    1.5590   -0.2640    1.8770 C   0  0  0  0  0  0  0  0  0  0  0  0
    2.0820    0.1080    0.5040 C   0  0  1  0  0  0  0  0  0  0  0  0
    1.1600   -0.4470   -0.5310 C   0  0  2  0  0  0  0  0  0  0  0  0
    1.7680   -0.2890   -1.8960 C   0  0  0  0  0  0  0  0  0  0  0  0
    0.5610   -0.4590   -2.7910 C   0  0  0  0  0  0  0  0  0  0  0  0
   -0.4540    0.3640   -1.9830 C   0  0  0  0  0  0  0  0  0  0  0  0
   -0.1280    0.1000   -0.6050 N   0  0  1  0  0  0  0  0  0  0  0  0
   -1.0920   -0.7770    0.0200 C   0  0  0  0  0  0  0  0  0  0  0  0
   -2.4330   -0.2240    0.2070 C   0  0  0  0  0  0  0  0  0  0  0  0
   -2.7470    1.0030   -0.1740 C   0  0  0  0  0  0  0  0  0  0  0  0
   -4.1310    1.4340    0.0730 C   0  0  0  0  0  0  0  0  0  0  0  0
   -5.0450    0.6900    0.6350 C   0  0  0  0  0  0  0  0  0  0  0  0
   -4.6990   -0.5930    1.0280 O   0  0  0  0  0  0  0  0  0  0  0  0
   -3.4250   -1.1010    0.8430 C   0  0  0  0  0  0  0  0  0  0  0  0
   -3.1410   -2.3290    1.2330 C   0  0  0  0  0  0  0  0  0  0  0  0
   -4.0870   -3.1300    1.8270 O   0  0  0  0  0  0  0  0  0  0  0  0
    2.3170    1.5580    0.4620 C   0  0  0  0  0  0  0  0  0  0  0  0
    3.8140    1.6520    0.8040 C   0  0  0  0  0  0  0  0  0  0  0  0
    4.2920    0.3420    0.2250 C   0  0  0  0  0  0  0  0  0  0  0  0
    3.2950   -0.5740    0.3860 O   0  0  0  0  0  0  0  0  0  0  0  0
  2  1  1  1
  2  3  1  0
  2 17  1  0
  2 20  1  0
  3  4  1  6
  3  7  1  0
  4  5  1  0
  5  6  1  0
  6  7  1  0
  7  8  1  6
  8  9  1  0
  9 10  2  0
  9 14  1  0
 10 11  1  0
 11 12  2  0
 12 13  1  0
 13 14  1  0
 14 15  2  3
 15 16  1  0
 17 18  1  0
 18 19  1  0
 19 20  1  0
M  CHG  1   7   1
M  END
