
     RDKit          3D

 14 15  0  0  0  0  0  0  0  0999 V2000
    2.7890    0.8150    1.3610 O   0  0  0  0  0  0  0  0  0  0  0  0
    2.1710    0.2370    0.3760 C   0  0  0  0  0  0  0  0  0  0  0  0
    2.8530   -0.7730   -0.3170 N   0  0  0  0  0  0  0  0  0  0  0  0
    4.1220   -1.0830    0.1040 O   0  0  0  0  0  0  0  0  0  0  0  0
    0.8280    0.7080    0.0800 C   0  0  0  0  0  0  0  0  0  0  0  0
    0.6740    2.0350   -0.2880 C   0  0  0  0  0  0  0  0  0  0  0  0
   -0.5290    2.5830   -0.6320 C   0  0  0  0  0  0  0  0  0  0  0  0
   -1.6600    1.8050   -0.6210 C   0  0  0  0  0  0  0  0  0  0  0  0
   -1.5430    0.4730   -0.2530 C   0  0  0  0  0  0  0  0  0  0  0  0
   -2.6580   -0.3520   -0.2030 C   0  0  0  0  0  0  0  0  0  0  0  0
   -2.5360   -1.6620    0.1720 C   0  0  0  0  0  0  0  0  0  0  0  0
   -1.3020   -2.2270    0.5170 C   0  0  0  0  0  0  0  0  0  0  0  0
   -0.2040   -1.3930    0.4650 C   0  0  0  0  0  0  0  0  0  0  0  0
   -0.2960   -0.0630    0.0920 C   0  0  0  0  0  0  0  0  0  0  0  0
  1  2  2  0
  2  3  1  0
  2  5  1  0
  3  4  1  0
  5  6  2  0
  5 14  1  0
  6  7  1  0
  7  8  2  0
  8  9  1  0
  9 10  2  0
  9 14  1  0
 10 11  1  0
 11 12  2  0
 12 13  1  0
 13 14  2  0
M  END
