
     RDKit          3D

 14 15  0  0  0  0  0  0  0  0999 V2000
    3.5680   -1.5940    0.6910 O   0  0  0  0  0  0  0  0  0  0  0  0
    4.0700   -0.5870    0.1530 C   0  0  0  0  0  0  0  0  0  0  0  0
    3.2230    0.4450   -0.3100 N   0  0  0  0  0  0  0  0  0  0  0  0
    1.8210    0.5030   -0.2540 C   0  0  0  0  0  0  0  0  0  0  0  0
    1.1910    1.7200   -0.5070 C   0  0  0  0  0  0  0  0  0  0  0  0
   -0.1810    1.7920   -0.4720 C   0  0  0  0  0  0  0  0  0  0  0  0
   -0.9710    0.7000   -0.1940 C   0  0  0  0  0  0  0  0  0  0  0  0
   -2.3480    0.7490   -0.1530 C   0  0  0  0  0  0  0  0  0  0  0  0
   -3.1310   -0.3560    0.1270 C   0  0  0  0  0  0  0  0  0  0  0  0
   -4.5260   -0.2780    0.1620 O   0  0  0  0  0  0  0  0  0  0  0  0
   -2.4710   -1.5420    0.3720 C   0  0  0  0  0  0  0  0  0  0  0  0
   -1.0770   -1.6350    0.3400 C   0  0  0  0  0  0  0  0  0  0  0  0
   -0.3460   -0.5020    0.0560 C   0  0  0  0  0  0  0  0  0  0  0  0
    1.0570   -0.5860    0.0220 C   0  0  0  0  0  0  0  0  0  0  0  0
  1  2  2  0
  2  3  1  0
  3  4  1  0
  4  5  2  0
  4 14  1  0
  5  6  1  0
  6  7  2  0
  7  8  1  0
  7 13  1  0
  8  9  2  0
  9 10  1  0
  9 11  1  0
 11 12  2  0
 12 13  1  0
 13 14  2  0
M  END
