
     RDKit          3D

 14 15  0  0  0  0  0  0  0  0999 V2000
    3.6520    1.5580    0.1730 C   0  0  0  0  0  0  0  0  0  0  0  0
    3.1920    0.2650    0.0700 O   0  0  0  0  0  0  0  0  0  0  0  0
    1.9260   -0.2090    0.0320 C   0  0  0  0  0  0  0  0  0  0  0  0
    0.8550    0.6560    0.1000 C   0  0  0  0  0  0  0  0  0  0  0  0
   -0.4620    0.1810    0.0620 C   0  0  0  0  0  0  0  0  0  0  0  0
   -1.5280    1.0580    0.1310 C   0  0  0  0  0  0  0  0  0  0  0  0
   -2.8240    0.5630    0.0910 C   0  0  0  0  0  0  0  0  0  0  0  0
   -3.9350    1.4480    0.1600 N   0  0  0  0  0  0  0  0  0  0  0  0
   -3.0560   -0.7950   -0.0170 C   0  0  0  0  0  0  0  0  0  0  0  0
   -1.9910   -1.6590   -0.0850 C   0  0  0  0  0  0  0  0  0  0  0  0
   -0.6870   -1.1740   -0.0460 C   0  0  0  0  0  0  0  0  0  0  0  0
    0.3860   -2.0700   -0.1160 C   0  0  0  0  0  0  0  0  0  0  0  0
    1.6810   -1.5520   -0.0740 C   0  0  0  0  0  0  0  0  0  0  0  0
    2.7430   -2.4140   -0.1420 O   0  0  0  0  0  0  0  0  0  0  0  0
  1  2  1  0
  2  3  1  0
  3  4  2  0
  3 13  1  0
  4  5  1  0
  5  6  2  0
  5 11  1  0
  6  7  1  0
  7  8  1  0
  7  9  2  0
  9 10  1  0
 10 11  2  0
 11 12  1  0
 12 13  2  0
 13 14  1  0
M  END
