
     RDKit          3D

 19 21  0  0  0  0  0  0  0  0999 V2000
    6.0410    0.7010   -0.3410 N   0  0  0  0  0  0  0  0  0  0  0  0
    5.0650   -0.3090   -0.1760 C   0  0  0  0  0  0  0  0  0  0  0  0
    5.4020   -1.5020   -0.0390 O   0  0  0  0  0  0  0  0  0  0  0  0
    3.6660    0.0340   -0.1600 C   0  0  0  0  0  0  0  0  0  0  0  0
    3.2880    1.2400   -0.3000 O   0  0  0  0  0  0  0  0  0  0  0  0
    2.6300   -0.9360    0.0110 N   0  0  0  0  0  0  0  0  0  0  0  0
    1.2930   -0.5200    0.0130 N   0  0  0  0  0  0  0  0  0  0  0  0
    0.2390   -1.1410   -0.7480 C   0  0  0  0  0  0  0  0  0  0  0  0
    0.2720   -2.3290   -1.1040 O   0  0  0  0  0  0  0  0  0  0  0  0
   -0.7520   -0.0570   -0.9420 C   0  0  2  0  0  0  0  0  0  0  0  0
   -0.6950    0.6120    0.4440 C   0  0  1  0  0  0  0  0  0  0  0  0
   -1.4510   -0.3510    1.2210 N   0  0  0  0  0  0  0  0  0  0  0  0
   -2.4380   -0.9080    0.3330 C   0  0  1  0  0  0  0  0  0  0  0  0
   -3.8410   -0.3970    0.6300 C   0  0  0  0  0  0  0  0  0  0  0  0
   -3.8990    0.8580   -0.1790 C   0  0  0  0  0  0  0  0  0  0  0  0
   -2.9160    0.6880   -1.3030 C   0  0  0  0  0  0  0  0  0  0  0  0
   -2.1110   -0.4830   -1.0070 N   0  0  0  0  0  0  0  0  0  0  0  0
    0.7390    0.5720    0.7370 C   0  0  0  0  0  0  0  0  0  0  0  0
    1.3470    1.3670    1.4920 O   0  0  0  0  0  0  0  0  0  0  0  0
  1  2  1  0
  2  3  2  0
  2  4  1  0
  4  5  2  0
  4  6  1  0
  6  7  1  0
  7  8  1  0
  7 18  1  0
  8  9  2  0
  8 10  1  0
 10 11  1  0
 10 17  1  1
 11 12  1  1
 11 18  1  0
 12 13  1  0
 13 14  1  1
 13 17  1  0
 14 15  1  0
 15 16  1  0
 16 17  1  0
 18 19  2  0
M  END
