
     RDKit          3D

 14 15  0  0  0  0  0  0  0  0999 V2000
    3.7780    0.8060   -1.2210 C   0  0  0  0  0  0  0  0  0  0  0  0
    2.7490    0.4050   -0.2140 C   0  0  0  0  0  0  0  0  0  0  0  0
    1.4420    0.1960   -0.5280 C   0  0  0  0  0  0  0  0  0  0  0  0
    0.5170   -0.1800    0.4580 C   0  0  0  0  0  0  0  0  0  0  0  0
   -0.8800   -0.3960    0.0790 C   0  0  0  0  0  0  0  0  0  0  0  0
   -1.8080   -0.7510    0.9400 C   0  0  0  0  0  0  0  0  0  0  0  0
   -3.2060   -0.9390    0.4090 C   0  0  0  0  0  0  0  0  0  0  0  0
   -3.5350    0.2330   -0.4840 C   0  0  0  0  0  0  0  0  0  0  0  0
   -2.5580    0.2090   -1.6380 C   0  0  0  0  0  0  0  0  0  0  0  0
   -1.2780   -0.2280   -1.2390 O   0  0  0  0  0  0  0  0  0  0  0  0
    1.0010   -0.3120    1.6980 N   0  0  0  0  0  0  0  0  0  0  0  0
    2.2800   -0.1130    2.0400 C   0  0  0  0  0  0  0  0  0  0  0  0
    2.6610   -0.2620    3.2530 O   0  0  0  0  0  0  0  0  0  0  0  0
    3.1890    0.2530    1.0830 C   0  0  0  0  0  0  0  0  0  0  0  0
  1  2  1  0
  2  3  1  0
  2 14  2  0
  3  4  2  0
  4  5  1  0
  4 11  1  0
  5  6  2  0
  5 10  1  0
  6  7  1  0
  7  8  1  0
  8  9  1  0
  9 10  1  0
 11 12  1  0
 12 13  2  0
 12 14  1  0
M  END
