
     RDKit          3D

 14 15  0  0  0  0  0  0  0  0999 V2000
    3.3210   -2.2200    0.7270 O   0  0  0  0  0  0  0  0  0  0  0  0
    2.6360   -1.0340    0.3830 C   0  0  0  0  0  0  0  0  0  0  0  0
    3.3810    0.0800    0.0930 C   0  0  0  0  0  0  0  0  0  0  0  0
    2.7420    1.2360   -0.2410 C   0  0  0  0  0  0  0  0  0  0  0  0
    1.3470    1.2430   -0.2760 C   0  0  0  0  0  0  0  0  0  0  0  0
    0.5980    0.1050    0.0210 C   0  0  0  0  0  0  0  0  0  0  0  0
   -0.8740    0.1390   -0.0230 C   0  0  0  0  0  0  0  0  0  0  0  0
   -1.5180    1.3100   -0.3630 C   0  0  0  0  0  0  0  0  0  0  0  0
   -2.9150    1.4080   -0.4220 C   0  0  0  0  0  0  0  0  0  0  0  0
   -3.7060    0.3240   -0.1400 C   0  0  0  0  0  0  0  0  0  0  0  0
   -3.0850   -0.8380    0.1970 C   0  0  0  0  0  0  0  0  0  0  0  0
   -1.6750   -0.9410    0.2580 C   0  0  0  0  0  0  0  0  0  0  0  0
   -1.1390   -2.1520    0.6060 O   0  0  0  0  0  0  0  0  0  0  0  0
    1.3060   -0.9840    0.3380 N   0  0  0  0  0  0  0  0  0  0  0  0
  1  2  1  0
  2  3  2  0
  2 14  1  0
  3  4  1  0
  4  5  2  0
  5  6  1  0
  6  7  1  0
  6 14  2  0
  7  8  2  0
  7 12  1  0
  8  9  1  0
  9 10  2  0
 10 11  1  0
 11 12  2  0
 12 13  1  0
M  END
