
     RDKit          3D

 19 20  0  0  0  0  0  0  0  0999 V2000
   -3.2160    2.1700    0.5060 C   0  0  0  0  0  0  0  0  0  0  0  0
   -2.4460    1.2570   -0.4400 C   0  0  2  0  0  0  0  0  0  0  0  0
   -3.2910    0.1110   -0.7760 C   0  0  0  0  0  0  0  0  0  0  0  0
   -2.9460   -1.1100   -0.4650 C   0  0  0  0  0  0  0  0  0  0  0  0
   -3.7790   -2.1940   -0.8020 O   0  0  0  0  0  0  0  0  0  0  0  0
   -3.2070   -3.3050   -1.3080 F   0  0  0  0  0  0  0  0  0  0  0  0
   -1.7080   -1.4100    0.2320 C   0  0  0  0  0  0  0  0  0  0  0  0
   -0.8480   -0.4360    0.5950 C   0  0  0  0  0  0  0  0  0  0  0  0
    0.3890   -0.7770    1.2950 C   0  0  0  0  0  0  0  0  0  0  0  0
    1.6110   -0.4110    0.6510 N   0  0  0  0  0  0  0  0  0  0  0  0
    2.2640    0.7360    0.8830 C   0  0  0  0  0  0  0  0  0  0  0  0
    1.8640    1.5930    1.7100 O   0  0  0  0  0  0  0  0  0  0  0  0
    3.4170    1.0440    0.2280 N   0  0  0  0  0  0  0  0  0  0  0  0
    3.9300    0.2000   -0.6720 C   0  0  0  0  0  0  0  0  0  0  0  0
    5.1350    0.4800   -1.3830 N   0  0  0  0  0  0  0  0  0  0  0  0
    3.2890   -0.9570   -0.9180 N   0  0  0  0  0  0  0  0  0  0  0  0
    2.1480   -1.2570   -0.2660 C   0  0  0  0  0  0  0  0  0  0  0  0
    1.5730   -2.3480   -0.5190 O   0  0  0  0  0  0  0  0  0  0  0  0
   -1.2320    0.8800    0.2590 N   0  0  0  0  0  0  0  0  0  0  0  0
  2  1  1  1
  2  3  1  0
  2 19  1  0
  3  4  2  0
  4  5  1  0
  4  7  1  0
  5  6  1  0
  7  8  2  0
  8  9  1  0
  8 19  1  0
  9 10  1  0
 10 11  1  0
 10 17  1  0
 11 12  2  0
 11 13  1  0
 13 14  2  0
 14 15  1  0
 14 16  1  0
 16 17  1  0
 17 18  2  0
M  END
