
     RDKit          3D

 20 22  0  0  0  0  0  0  0  0999 V2000
   -1.7980   -0.9300    1.3050 N   0  0  0  0  0  0  0  0  0  0  0  0
   -1.0690   -0.1100    0.4250 C   0  0  0  0  0  0  0  0  0  0  0  0
   -1.6850    0.7120   -0.3750 C   0  0  0  0  0  0  0  0  0  0  0  0
   -3.1360    0.7920   -0.3740 C   0  0  0  0  0  0  0  0  0  0  0  0
   -3.7320    2.0120   -0.3080 N   0  0  0  0  0  0  0  0  0  0  0  0
   -5.0690    2.0860   -0.3320 C   0  0  0  0  0  0  0  0  0  0  0  0
   -5.8690    1.0200   -0.4190 N   0  0  0  0  0  0  0  0  0  0  0  0
   -5.3360   -0.1850   -0.4870 N   0  0  0  0  0  0  0  0  0  0  0  0
   -3.9800   -0.2890   -0.4640 C   0  0  0  0  0  0  0  0  0  0  0  0
   -3.4830   -1.6210   -0.5720 N   0  0  0  0  0  0  0  0  0  0  0  0
    0.3850   -0.1460    0.3750 C   0  0  0  0  0  0  0  0  0  0  0  0
    1.2940    0.3250   -0.1610 N   0  0  0  0  0  0  0  0  0  0  0  0
    2.5680    0.1220   -0.0310 C   0  0  0  0  0  0  0  0  0  0  0  0
    3.6340    0.7310   -0.7160 C   0  0  0  0  0  0  0  0  0  0  0  0
    4.9250    0.3680   -0.4230 C   0  0  0  0  0  0  0  0  0  0  0  0
    6.0080    0.9640   -1.0970 O   0  0  0  0  0  0  0  0  0  0  0  0
    5.2740   -0.5810    0.5250 C   0  0  0  0  0  0  0  0  0  0  0  0
    4.2100   -1.1910    1.2120 C   0  0  0  0  0  0  0  0  0  0  0  0
    2.9610   -0.8170    0.9040 C   0  0  0  0  0  0  0  0  0  0  0  0
    1.3070   -1.3320    1.5300 S   0  0  0  0  0  0  0  0  0  0  0  0
  1  2  1  0
  2  3  2  3
  2 11  1  0
  3  4  1  0
  4  5  2  0
  4  9  1  0
  5  6  1  0
  6  7  2  0
  7  8  1  0
  8  9  2  0
  9 10  1  0
 11 12  2  0
 11 20  1  0
 12 13  1  0
 13 14  2  0
 13 19  1  0
 14 15  1  0
 15 16  1  0
 15 17  2  0
 17 18  1  0
 18 19  2  0
 19 20  1  0
M  END
