
     RDKit          3D

 22 24  0  0  0  0  0  0  0  0999 V2000
    6.4010   -1.1150   -1.7220 N   0  0  0  0  0  0  0  0  0  0  0  0
    6.0720   -0.5030   -0.1290 S   0  0  1  0  0  0  0  0  0  0  0  0
    6.5990   -1.4430    0.9120 O   0  0  0  0  0  0  0  0  0  0  0  0
    6.7750    0.8340   -0.0280 O   0  0  0  0  0  0  0  0  0  0  0  0
    4.3460   -0.2930    0.0510 C   0  0  0  0  0  0  0  0  0  0  0  0
    3.5230   -1.2960    0.5610 C   0  0  0  0  0  0  0  0  0  0  0  0
    2.1650   -1.1240    0.7000 C   0  0  0  0  0  0  0  0  0  0  0  0
    1.6060    0.0680    0.3260 C   0  0  0  0  0  0  0  0  0  0  0  0
    0.1880    0.3780    0.4270 C   0  0  0  0  0  0  0  0  0  0  0  0
   -0.5720   -0.1710    1.4500 C   0  0  0  0  0  0  0  0  0  0  0  0
   -1.9220    0.1020    1.5710 C   0  0  0  0  0  0  0  0  0  0  0  0
   -2.5860    0.9320    0.6840 C   0  0  0  0  0  0  0  0  0  0  0  0
   -4.0380    1.2210    0.8240 C   0  0  0  0  0  0  0  0  0  0  0  0
   -4.7820    0.2030    0.1230 N   0  0  0  0  0  0  0  0  0  0  0  0
   -5.1630    0.2180   -1.1650 C   0  0  0  0  0  0  0  0  0  0  0  0
   -5.8620   -0.9640   -1.4020 C   0  0  0  0  0  0  0  0  0  0  0  0
   -5.8800   -1.6680   -0.2260 C   0  0  0  0  0  0  0  0  0  0  0  0
   -5.2040   -0.9160    0.6870 N   0  0  0  0  0  0  0  0  0  0  0  0
   -1.8260    1.4760   -0.3330 C   0  0  0  0  0  0  0  0  0  0  0  0
   -0.4800    1.2030   -0.4510 C   0  0  0  0  0  0  0  0  0  0  0  0
    2.4300    1.0730   -0.1850 C   0  0  0  0  0  0  0  0  0  0  0  0
    3.7700    0.8960   -0.3190 C   0  0  0  0  0  0  0  0  0  0  0  0
  2  1  1  6
  2  3  2  0
  2  4  2  0
  2  5  1  0
  5  6  2  0
  5 22  1  0
  6  7  1  0
  7  8  2  0
  8  9  1  0
  8 21  1  0
  9 10  2  0
  9 20  1  0
 10 11  1  0
 11 12  2  0
 12 13  1  0
 12 19  1  0
 13 14  1  0
 14 15  1  0
 14 18  1  0
 15 16  2  0
 16 17  1  0
 17 18  2  0
 19 20  2  0
 21 22  2  0
M  END
