
     RDKit          3D

 20 22  0  0  0  0  0  0  0  0999 V2000
   -0.6100   -0.7230   -0.6040 N   0  0  0  0  0  0  0  0  0  0  0  0
    0.0530    0.3140    0.0660 C   0  0  0  0  0  0  0  0  0  0  0  0
   -0.5680    1.4390    0.1500 N   0  0  0  0  0  0  0  0  0  0  0  0
   -1.8460    1.6260   -0.3990 C   0  0  0  0  0  0  0  0  0  0  0  0
   -2.9690    1.6800    0.3960 C   0  0  0  0  0  0  0  0  0  0  0  0
   -2.8730    1.5460    1.8230 N   0  0  0  0  0  0  0  0  0  0  0  0
   -4.1520    1.8590   -0.1840 N   0  0  0  0  0  0  0  0  0  0  0  0
   -4.3450    1.9920   -1.4940 C   0  0  0  0  0  0  0  0  0  0  0  0
   -3.2560    1.9410   -2.2820 N   0  0  0  0  0  0  0  0  0  0  0  0
   -2.0110    1.7610   -1.7620 C   0  0  0  0  0  0  0  0  0  0  0  0
   -0.9390    1.7230   -2.6760 N   0  0  0  0  0  0  0  0  0  0  0  0
    1.3840    0.0890    0.6270 C   0  0  0  0  0  0  0  0  0  0  0  0
    1.9630    1.1510    1.2650 C   0  0  0  0  0  0  0  0  0  0  0  0
    3.5150    0.5770    1.8140 S   0  0  0  0  0  0  0  0  0  0  0  0
    3.3250   -1.0310    1.1770 C   0  0  0  0  0  0  0  0  0  0  0  0
    2.1090   -1.0520    0.5870 C   0  0  0  0  0  0  0  0  0  0  0  0
    1.8080   -2.2280    0.0440 C   0  0  0  0  0  0  0  0  0  0  0  0
    2.6680   -3.4160    0.0520 C   0  0  0  0  0  0  0  0  0  0  0  0
    3.9080   -3.2940    0.6880 O   0  0  0  0  0  0  0  0  0  0  0  0
    4.1840   -2.0580    1.2400 C   0  0  0  0  0  0  0  0  0  0  0  0
  1  2  1  0
  2  3  2  3
  2 12  1  0
  3  4  1  0
  4  5  2  0
  4 10  1  0
  5  6  1  0
  5  7  1  0
  7  8  2  0
  8  9  1  0
  9 10  2  0
 10 11  1  0
 12 13  2  0
 12 16  1  0
 13 14  1  0
 14 15  1  0
 15 16  1  0
 15 20  2  0
 16 17  2  0
 17 18  1  0
 18 19  1  0
 19 20  1  0
M  END
