
     RDKit          3D

 11 10  0  0  0  0  0  0  0  0999 V2000
   -3.7010    1.6200    1.0890 C   0  0  0  0  0  0  0  0  0  0  0  0
   -2.1520    0.7310    1.0410 S   0  0  0  0  0  0  0  0  0  0  0  0
   -2.1080   -0.5720   -0.1520 C   0  0  0  0  0  0  0  0  0  0  0  0
   -0.9710   -1.1000   -0.5100 C   0  0  0  0  0  0  0  0  0  0  0  0
   -0.9150   -2.1460   -1.4650 N   0  0  0  0  0  0  0  0  0  0  0  0
    0.2630   -0.5750    0.1130 C   0  0  0  0  0  0  0  0  0  0  0  0
    0.2080    0.3520    0.9590 O   0  0  0  0  0  0  0  0  0  0  0  0
    1.5050   -1.0810   -0.2130 O   0  0  0  0  0  0  0  0  0  0  0  0
    2.7020   -0.6050    0.3580 C   0  0  0  0  0  0  0  0  0  0  0  0
    2.9190    0.8700    0.0570 C   0  0  0  0  0  0  0  0  0  0  0  0
    2.9760    1.0030   -1.3180 O   0  0  0  0  0  0  0  0  0  0  0  0
  1  2  1  0
  2  3  1  0
  3  4  2  3
  4  5  1  0
  4  6  1  0
  6  7  2  0
  6  8  1  0
  8  9  1  0
  9 10  1  0
 10 11  1  0
M  END
