
     RDKit          3D

 11 10  0  0  0  0  0  0  0  0999 V2000
    3.6940    0.5740    0.7510 C   0  0  0  0  0  0  0  0  0  0  0  0
    2.7180   -0.0840   -0.2260 C   0  0  0  0  0  0  0  0  0  0  0  0
    1.3900    0.0870    0.2540 O   0  0  0  0  0  0  0  0  0  0  0  0
    0.3450   -0.4360   -0.4910 C   0  0  0  0  0  0  0  0  0  0  0  0
    0.5750   -1.0570   -1.5840 O   0  0  0  0  0  0  0  0  0  0  0  0
   -1.0700   -0.3220   -0.0940 C   0  0  1  0  0  0  0  0  0  0  0  0
   -1.6820   -1.6780    0.0360 C   0  0  0  0  0  0  0  0  0  0  0  0
   -1.1140    0.3870    1.1730 N   0  0  0  0  0  0  0  0  0  0  0  0
   -1.8180    0.4790   -1.1450 C   0  0  0  0  0  0  0  0  0  0  0  0
   -3.5700    0.6480   -0.7060 S   0  0  0  0  0  0  0  0  0  0  0  0
   -3.7080    1.6100    0.7110 O   0  0  0  0  0  0  0  0  0  0  0  0
  1  2  1  0
  2  3  1  0
  3  4  1  0
  4  5  2  0
  4  6  1  0
  6  7  1  1
  6  8  1  0
  6  9  1  0
  9 10  1  0
 10 11  1  0
M  END
