
     RDKit          3D

 10  9  0  0  0  0  0  0  0  0999 V2000
   -2.5410   -0.4580    0.7990 C   0  0  0  0  0  0  0  0  0  0  0  0
   -1.2730   -0.0900   -0.0100 C   0  0  2  0  0  0  0  0  0  0  0  0
   -1.4050    1.3940   -0.2380 C   0  0  0  0  0  0  0  0  0  0  0  0
   -1.3960   -0.8550   -1.3050 C   0  0  0  0  0  0  0  0  0  0  0  0
   -0.1910   -0.4480    0.8010 N   0  0  0  0  0  0  0  0  0  0  0  0
    1.1100   -0.5350    0.3180 C   0  0  0  0  0  0  0  0  0  0  0  0
    1.8260    0.7350   -0.0550 C   0  0  0  0  0  0  0  0  0  0  0  0
    3.4480    0.2220   -0.6400 S   0  0  2  0  0  0  0  0  0  0  0  0
    3.4860   -1.2700   -0.9040 O   0  0  0  0  0  0  0  0  0  0  0  0
    4.5210    0.5550    0.3320 O   0  0  0  0  0  0  0  0  0  0  0  0
  2  1  1  1
  2  3  1  0
  2  4  1  0
  2  5  1  0
  5  6  1  0
  6  7  1  0
  8  7  1  1
  8  9  2  0
  8 10  2  0
M  END
