
     RDKit          3D

 11 10  0  0  0  0  0  0  0  0999 V2000
   -2.9830    1.1510   -0.5670 C   0  0  0  0  0  0  0  0  0  0  0  0
   -2.8590   -0.2750   -0.1100 C   0  0  0  0  0  0  0  0  0  0  0  0
   -2.2180   -0.4630    1.0680 O   0  0  0  0  0  0  0  0  0  0  0  0
   -0.9310   -0.0400    1.1590 C   0  0  0  0  0  0  0  0  0  0  0  0
   -0.0530   -0.7370    0.1410 C   0  0  0  0  0  0  0  0  0  0  0  0
    1.2960   -0.2620    0.2700 O   0  0  0  0  0  0  0  0  0  0  0  0
    2.2950   -0.7480   -0.5510 C   0  0  0  0  0  0  0  0  0  0  0  0
    1.9720   -1.6110   -1.4010 O   0  0  0  0  0  0  0  0  0  0  0  0
    3.6700   -0.2630   -0.4180 C   0  0  0  0  0  0  0  0  0  0  0  0
    4.0140    0.7140    0.5510 N   0  0  0  0  0  0  0  0  0  0  0  0
    4.7980   -0.8820   -1.4230 S   0  0  0  0  0  0  0  0  0  0  0  0
  1  2  1  0
  2  3  1  0
  3  4  1  0
  4  5  1  0
  5  6  1  0
  6  7  1  0
  7  8  2  0
  7  9  1  0
  9 10  1  0
  9 11  2  0
M  END
