
     RDKit          3D

 11 10  0  0  0  0  0  0  0  0999 V2000
    3.3420    0.5220    0.3680 C   0  0  0  0  0  0  0  0  0  0  0  0
    2.7210    0.1390   -0.9370 C   0  0  0  0  0  0  0  0  0  0  0  0
    1.3140    0.2960   -0.9470 O   0  0  0  0  0  0  0  0  0  0  0  0
    0.4720   -0.3780   -0.0740 C   0  0  0  0  0  0  0  0  0  0  0  0
    1.0150   -1.1500    0.7460 O   0  0  0  0  0  0  0  0  0  0  0  0
   -1.0010   -0.2120   -0.0860 C   0  0  1  0  0  0  0  0  0  0  0  0
   -1.5570   -1.0090    0.8950 O   0  0  0  0  0  0  0  0  0  0  0  0
   -2.5070   -1.8850    0.4240 C   0  0  0  0  0  0  0  0  0  0  0  0
   -1.3590    1.2070    0.2420 C   0  0  0  0  0  0  0  0  0  0  0  0
   -2.7180    1.6220    0.2940 N   0  0  0  0  0  0  0  0  0  0  0  0
   -0.2200    2.3330    0.5540 S   0  0  0  0  0  0  0  0  0  0  0  0
  1  2  1  0
  2  3  1  0
  3  4  1  0
  4  5  2  0
  4  6  1  0
  6  7  1  1
  6  9  1  0
  7  8  1  0
  9 10  1  0
  9 11  2  0
M  END
