
     RDKit          3D

 11 10  0  0  0  0  0  0  0  0999 V2000
    3.1120   -1.2270    0.4000 C   0  0  0  0  0  0  0  0  0  0  0  0
    2.2730   -0.0220    0.0850 C   0  0  1  0  0  0  0  0  0  0  0  0
    2.9880    0.9780   -0.7380 C   0  0  0  0  0  0  0  0  0  0  0  0
    4.2650    0.7770   -1.3230 S   0  0  0  0  0  0  0  0  0  0  0  0
    1.1210   -0.4460   -0.6580 O   0  0  0  0  0  0  0  0  0  0  0  0
   -0.1460   -0.2250   -0.1400 C   0  0  0  0  0  0  0  0  0  0  0  0
   -0.2270    0.3460    0.9760 O   0  0  0  0  0  0  0  0  0  0  0  0
   -1.2950   -0.6360   -0.8580 N   0  0  0  0  0  0  0  0  0  0  0  0
   -2.6240   -0.4150   -0.3350 C   0  0  0  0  0  0  0  0  0  0  0  0
   -2.9210    1.0630   -0.1190 C   0  0  0  0  0  0  0  0  0  0  0  0
   -4.2190    1.1840    0.3850 O   0  0  0  0  0  0  0  0  0  0  0  0
  2  1  1  6
  2  3  1  0
  2  5  1  0
  3  4  2  0
  5  6  1  0
  6  7  2  0
  6  8  1  0
  8  9  1  0
  9 10  1  0
 10 11  1  0
M  END
