
     RDKit          3D

 37 38  0  0  0  0  0  0  0  0999 V2000
   -9.7800   -2.2730   -3.0260 C   0  0  0  0  0  0  0  0  0  0  0  0
   -8.8460   -2.1140   -1.8110 C   0  0  0  0  0  0  0  0  0  0  0  0
   -7.7080   -1.2150   -2.2750 C   0  0  0  0  0  0  0  0  0  0  0  0
   -6.7250   -0.9450   -1.2970 N   0  0  2  0  0  0  0  0  0  0  0  0
   -7.1200   -1.2990    0.0450 C   0  0  0  0  0  0  0  0  0  0  0  0
   -7.7190   -0.1970    0.8520 C   0  0  0  0  0  0  0  0  0  0  0  0
   -6.2070    0.4030   -1.4070 C   0  0  0  0  0  0  0  0  0  0  0  0
   -4.7120    0.4090   -1.4810 C   0  0  0  0  0  0  0  0  0  0  0  0
   -4.0910    0.7080   -2.6930 C   0  0  0  0  0  0  0  0  0  0  0  0
   -2.7180    0.6520   -2.6950 C   0  0  0  0  0  0  0  0  0  0  0  0
   -1.9380    0.3340   -1.6380 C   0  0  0  0  0  0  0  0  0  0  0  0
   -0.6490    0.2050   -1.3680 O   0  0  0  0  0  0  0  0  0  0  0  0
   -0.3890   -0.1390   -0.1470 C   0  0  0  0  0  0  0  0  0  0  0  0
    0.8560   -0.3700    0.4920 N   0  0  0  0  0  0  0  0  0  0  0  0
    2.1270   -0.2160   -0.1170 C   0  0  0  0  0  0  0  0  0  0  0  0
    2.2260    0.1730   -1.2710 O   0  0  0  0  0  0  0  0  0  0  0  0
    3.3640   -0.5440    0.7200 C   0  0  1  0  0  0  0  0  0  0  0  0
    3.5750   -2.0100    0.7330 C   0  0  0  0  0  0  0  0  0  0  0  0
    4.7300   -2.5540    1.4790 C   0  0  2  0  0  0  0  0  0  0  0  0
    4.6600   -4.0900    1.3180 C   0  0  0  0  0  0  0  0  0  0  0  0
    4.7210   -2.2670    2.9430 C   0  0  0  0  0  0  0  0  0  0  0  0
    6.0870   -2.0910    0.9270 C   0  0  0  0  0  0  0  0  0  0  0  0
    4.4940    0.2750    0.3720 N   0  0  0  0  0  0  0  0  0  0  0  0
    4.7280    1.5040    1.0800 C   0  0  0  0  0  0  0  0  0  0  0  0
    3.8630    1.7970    1.9610 O   0  0  0  0  0  0  0  0  0  0  0  0
    5.8550    2.4010    0.8700 C   0  0  0  0  0  0  0  0  0  0  0  0
    6.8630    1.9960   -0.1240 C   0  0  0  0  0  0  0  0  0  0  0  0
    5.9290    3.5060    1.5870 C   0  0  0  0  0  0  0  0  0  0  0  0
    6.9880    4.4580    1.4700 C   0  0  0  0  0  0  0  0  0  0  0  0
    7.1730    5.5840    2.1060 C   0  0  0  0  0  0  0  0  0  0  0  0
    8.3260    6.3010    1.7610 F   0  0  0  0  0  0  0  0  0  0  0  0
    6.3470    6.2250    3.1400 C   0  0  2  0  0  0  0  0  0  0  0  0
    5.2710    5.4690    3.4640 F   0  0  0  0  0  0  0  0  0  0  0  0
    5.9820    7.5090    2.7450 F   0  0  0  0  0  0  0  0  0  0  0  0
   -1.6070   -0.2460    0.4550 N   0  0  0  0  0  0  0  0  0  0  0  0
   -2.5620    0.0300   -0.4040 C   0  0  0  0  0  0  0  0  0  0  0  0
   -3.9450    0.0890   -0.4040 C   0  0  0  0  0  0  0  0  0  0  0  0
  1  2  1  0
  2  3  1  0
  4  3  1  6
  4  5  1  0
  4  7  1  0
  5  6  1  0
  7  8  1  0
  8  9  2  0
  8 37  1  0
  9 10  1  0
 10 11  2  0
 11 12  1  0
 11 36  1  0
 12 13  1  0
 13 14  1  0
 13 35  2  0
 14 15  1  0
 15 16  2  0
 15 17  1  0
 17 18  1  6
 17 23  1  0
 18 19  1  0
 19 20  1  1
 19 21  1  0
 19 22  1  0
 23 24  1  0
 24 25  2  0
 24 26  1  0
 26 27  1  0
 26 28  2  3
 28 29  1  0
 29 30  2  3
 30 31  1  0
 30 32  1  0
 32 33  1  6
 32 34  1  0
 35 36  1  0
 36 37  2  0
M  CHG  1   4   1
M  END
