
     RDKit          3D

 36 39  0  0  0  0  0  0  0  0999 V2000
   -5.0960    3.0170    2.4550 C   0  0  0  0  0  0  0  0  0  0  0  0
   -5.6180    2.0880    1.4530 C   0  0  1  0  0  0  0  0  0  0  0  0
   -6.4150    2.8540    0.4140 N   0  0  0  0  0  0  0  0  0  0  0  0
   -4.6960    1.3250    0.5920 C   0  0  0  0  0  0  0  0  0  0  0  0
   -3.7560    1.8270   -0.0020 O   0  0  0  0  0  0  0  0  0  0  0  0
   -5.0340   -0.0760    0.4860 N   0  0  0  0  0  0  0  0  0  0  0  0
   -5.7030   -0.9810    1.3380 C   0  0  0  0  0  0  0  0  0  0  0  0
   -6.7350   -1.5550    0.3880 C   0  0  0  0  0  0  0  0  0  0  0  0
   -7.9600   -2.1580    0.6500 C   0  0  0  0  0  0  0  0  0  0  0  0
   -8.6310   -2.8140   -0.3690 C   0  0  0  0  0  0  0  0  0  0  0  0
   -8.0760   -2.8580   -1.6410 C   0  0  0  0  0  0  0  0  0  0  0  0
   -6.8720   -2.2540   -1.8870 C   0  0  0  0  0  0  0  0  0  0  0  0
   -6.1910   -1.5870   -0.8610 C   0  0  0  0  0  0  0  0  0  0  0  0
   -5.0730   -0.6670   -0.8370 N   0  0  0  0  0  0  0  0  0  0  0  0
   -4.1740   -0.3360   -1.8750 C   0  0  0  0  0  0  0  0  0  0  0  0
   -2.8220   -0.8800   -1.4670 C   0  0  0  0  0  0  0  0  0  0  0  0
   -2.5460   -2.1890   -1.1890 C   0  0  0  0  0  0  0  0  0  0  0  0
   -1.2610   -2.3170   -0.8360 N   0  0  0  0  0  0  0  0  0  0  0  0
   -0.6690   -1.1230   -0.8670 C   0  0  0  0  0  0  0  0  0  0  0  0
    0.7280   -0.8230   -0.4960 C   0  0  0  0  0  0  0  0  0  0  0  0
    1.5920   -1.7060   -0.5830 O   0  0  0  0  0  0  0  0  0  0  0  0
    0.9840    0.4910   -0.0440 N   0  0  0  0  0  0  0  0  0  0  0  0
    2.2390    0.9190    0.4280 C   0  0  0  0  0  0  0  0  0  0  0  0
    2.1950    1.8800    1.4560 C   0  0  0  0  0  0  0  0  0  0  0  0
    3.3250    2.2560    2.1050 C   0  0  0  0  0  0  0  0  0  0  0  0
    4.5010    1.7090    1.7380 C   0  0  0  0  0  0  0  0  0  0  0  0
    5.7050    2.0630    2.3720 O   0  0  0  0  0  0  0  0  0  0  0  0
    4.6230    0.7530    0.6940 C   0  0  0  0  0  0  0  0  0  0  0  0
    5.9410    0.1260    0.5680 C   0  0  0  0  0  0  0  0  0  0  0  0
    6.5640    0.1340   -0.7040 N   0  0  0  0  0  0  0  0  0  0  0  0
    7.9960   -0.1770   -0.5430 C   0  0  2  0  0  0  0  0  0  0  0  0
    8.3440   -1.4730   -1.1950 C   0  0  0  0  0  0  0  0  0  0  0  0
    8.3570   -0.2750    0.9380 C   0  0  0  0  0  0  0  0  0  0  0  0
    8.8270    0.9240   -1.0860 C   0  0  0  0  0  0  0  0  0  0  0  0
    3.4440    0.3940    0.0720 C   0  0  0  0  0  0  0  0  0  0  0  0
   -1.6390   -0.1810   -1.2610 C   0  0  0  0  0  0  0  0  0  0  0  0
  2  1  1  1
  2  3  1  0
  2  4  1  0
  4  5  2  0
  4  6  1  0
  6  7  1  0
  6 14  1  0
  7  8  1  0
  8  9  2  0
  8 13  1  0
  9 10  1  0
 10 11  2  0
 11 12  1  0
 12 13  2  0
 13 14  1  0
 14 15  1  0
 15 16  1  0
 16 17  2  0
 16 36  1  0
 17 18  1  0
 18 19  1  0
 19 20  1  0
 19 36  2  0
 20 21  2  0
 20 22  1  0
 22 23  1  0
 23 24  2  0
 23 35  1  0
 24 25  1  0
 25 26  2  0
 26 27  1  0
 26 28  1  0
 28 29  1  0
 28 35  2  0
 29 30  1  0
 30 31  1  0
 31 32  1  6
 31 33  1  0
 31 34  1  0
M  CHG  1  30   1
M  END
