
     RDKit          3D

 37 38  0  0  0  0  0  0  0  0999 V2000
   -4.5150   -1.0860   -1.7690 C   0  0  0  0  0  0  0  0  0  0  0  0
   -3.3470   -0.9740   -0.8210 C   0  0  0  0  0  0  0  0  0  0  0  0
   -3.1070    0.4640   -0.4290 C   0  0  2  0  0  0  0  0  0  0  0  0
   -2.0080    0.6620    0.4850 N   0  0  0  0  0  0  0  0  0  0  0  0
   -1.0340   -0.3320    0.5040 C   0  0  2  0  0  0  0  0  0  0  0  0
   -1.0650   -1.1440    1.8250 C   0  0  0  0  0  0  0  0  0  0  0  0
    0.3830   -0.0010    0.2370 C   0  0  0  0  0  0  0  0  0  0  0  0
    1.0340    1.1850    0.4880 C   0  0  0  0  0  0  0  0  0  0  0  0
    0.5020    2.3920    1.1590 C   0  0  0  0  0  0  0  0  0  0  0  0
    2.3400    1.0700    0.0340 C   0  0  0  0  0  0  0  0  0  0  0  0
    3.4360    2.0230    0.1760 C   0  0  0  0  0  0  0  0  0  0  0  0
    3.3250    3.1620    0.6570 O   0  0  0  0  0  0  0  0  0  0  0  0
    4.6940    1.5850   -0.2360 O   0  0  0  0  0  0  0  0  0  0  0  0
    5.8420    2.3580   -0.0050 C   0  0  0  0  0  0  0  0  0  0  0  0
    7.1020    1.7330   -0.4120 C   0  0  0  0  0  0  0  0  0  0  0  0
    7.5600    0.6250    0.2760 C   0  0  0  0  0  0  0  0  0  0  0  0
    6.6240   -0.0690    1.1990 C   0  0  0  0  0  0  0  0  0  0  0  0
    8.8210    0.1780    0.0400 C   0  0  0  0  0  0  0  0  0  0  0  0
    9.6680    0.7780   -0.8500 C   0  0  0  0  0  0  0  0  0  0  0  0
   10.8970    0.2490   -1.0340 F   0  0  0  0  0  0  0  0  0  0  0  0
    9.2430    1.8820   -1.5510 C   0  0  0  0  0  0  0  0  0  0  0  0
    7.9470    2.3330   -1.3030 C   0  0  0  0  0  0  0  0  0  0  0  0
    7.5830    3.4570   -2.0300 F   0  0  0  0  0  0  0  0  0  0  0  0
    2.4050   -0.1700   -0.4710 N   0  0  0  0  0  0  0  0  0  0  0  0
    1.2850   -0.8370   -0.3740 N   0  0  0  0  0  0  0  0  0  0  0  0
    1.1120   -2.1420   -0.9310 C   0  0  1  0  0  0  0  0  0  0  0  0
    0.0750   -2.1510   -2.0570 C   0  0  0  0  0  0  0  0  0  0  0  0
    2.4260   -2.4970   -1.6720 C   0  0  0  0  0  0  0  0  0  0  0  0
    0.9270   -3.2370    0.0570 C   0  0  0  0  0  0  0  0  0  0  0  0
   -4.3960    0.9550    0.0860 C   0  0  0  0  0  0  0  0  0  0  0  0
   -5.2560    1.4780   -0.6990 O   0  0  0  0  0  0  0  0  0  0  0  0
   -4.7380    0.8520    1.4620 N   0  0  0  0  0  0  0  0  0  0  0  0
   -6.1280    1.3370    1.7540 C   0  0  0  0  0  0  0  0  0  0  0  0
   -6.9720    0.3060    1.0280 C   0  0  0  0  0  0  0  0  0  0  0  0
   -8.4480    0.5740    0.9670 C   0  0  0  0  0  0  0  0  0  0  0  0
   -9.0130   -0.6290    0.1660 C   0  0  0  0  0  0  0  0  0  0  0  0
   -8.3600   -0.6180   -1.0670 F   0  0  0  0  0  0  0  0  0  0  0  0
  1  2  1  0
  3  2  1  1
  3  4  1  0
  3 30  1  0
  4  5  1  0
  5  6  1  1
  5  7  1  0
  7  8  2  0
  7 25  1  0
  8  9  1  0
  8 10  1  0
 10 11  1  0
 10 24  2  0
 11 12  2  0
 11 13  1  0
 13 14  1  0
 14 15  1  0
 15 16  2  0
 15 22  1  0
 16 17  1  0
 16 18  1  0
 18 19  2  0
 19 20  1  0
 19 21  1  0
 21 22  2  0
 22 23  1  0
 24 25  1  0
 25 26  1  0
 26 27  1  6
 26 28  1  0
 26 29  1  0
 30 31  2  0
 30 32  1  0
 32 33  1  0
 33 34  1  0
 34 35  1  0
 35 36  1  0
 36 37  1  0
M  CHG  1   4   1
M  END
