
     RDKit          3D

 37 39  0  0  0  0  0  0  0  0999 V2000
   -5.9770   -1.9280    2.8260 C   0  0  0  0  0  0  0  0  0  0  0  0
   -6.4530   -2.9420    1.8980 N   0  0  0  0  0  0  0  0  0  0  0  0
   -7.6000   -2.5110    1.1440 C   0  0  0  0  0  0  0  0  0  0  0  0
   -7.2690   -2.5020   -0.3190 C   0  0  1  0  0  0  0  0  0  0  0  0
   -8.4370   -2.0570   -1.1540 C   0  0  0  0  0  0  0  0  0  0  0  0
   -6.1410   -1.5380   -0.5510 C   0  0  0  0  0  0  0  0  0  0  0  0
   -4.9880   -1.9550   -1.0400 C   0  0  0  0  0  0  0  0  0  0  0  0
   -3.8690   -1.0110   -1.2720 C   0  0  1  0  0  0  0  0  0  0  0  0
   -3.5550   -0.9690   -2.7740 C   0  0  0  0  0  0  0  0  0  0  0  0
   -4.2480    0.3880   -0.8860 C   0  0  0  0  0  0  0  0  0  0  0  0
   -3.1610    1.3010   -1.1160 N   0  0  0  0  0  0  0  0  0  0  0  0
   -1.8950    1.1720   -0.4440 C   0  0  0  0  0  0  0  0  0  0  0  0
   -1.7550    0.2390    0.3600 O   0  0  0  0  0  0  0  0  0  0  0  0
   -0.8360    2.0680   -0.6820 N   0  0  0  0  0  0  0  0  0  0  0  0
    0.4510    2.0600   -0.0970 C   0  0  0  0  0  0  0  0  0  0  0  0
    0.8580    1.1290    0.8380 C   0  0  0  0  0  0  0  0  0  0  0  0
    2.1290    1.1620    1.3830 C   0  0  0  0  0  0  0  0  0  0  0  0
    2.9880    2.1560    0.9650 C   0  0  0  0  0  0  0  0  0  0  0  0
    2.5840    3.0840    0.0340 C   0  0  0  0  0  0  0  0  0  0  0  0
    1.3270    3.0710   -0.5210 C   0  0  0  0  0  0  0  0  0  0  0  0
    0.9260    4.0190   -1.4670 O   0  0  0  0  0  0  0  0  0  0  0  0
    1.8160    5.0320   -1.8860 C   0  0  0  0  0  0  0  0  0  0  0  0
    4.3380    2.1290    1.5920 C   0  0  0  0  0  0  0  0  0  0  0  0
    4.8310    0.7880    1.3980 N   0  0  0  0  0  0  0  0  0  0  0  0
    6.0670    0.4620    0.7830 C   0  0  0  0  0  0  0  0  0  0  0  0
    6.9230    1.4220    0.2550 C   0  0  0  0  0  0  0  0  0  0  0  0
    8.1240    1.1120   -0.3480 C   0  0  0  0  0  0  0  0  0  0  0  0
    8.8760    2.1460   -0.8280 F   0  0  0  0  0  0  0  0  0  0  0  0
    8.5260   -0.1930   -0.4500 C   0  0  0  0  0  0  0  0  0  0  0  0
    9.7110   -0.5320   -1.0410 O   0  0  0  0  0  0  0  0  0  0  0  0
   10.1660   -1.8670   -1.1690 C   0  0  0  0  0  0  0  0  0  0  0  0
    9.2400   -2.5600   -1.9050 F   0  0  0  0  0  0  0  0  0  0  0  0
    7.6980   -1.1630    0.0640 C   0  0  0  0  0  0  0  0  0  0  0  0
    6.4890   -0.8390    0.6700 C   0  0  0  0  0  0  0  0  0  0  0  0
    5.7490   -1.8570    1.1460 F   0  0  0  0  0  0  0  0  0  0  0  0
    3.9910   -0.2950    1.8660 C   0  0  0  0  0  0  0  0  0  0  0  0
    2.6400    0.1990    2.3890 C   0  0  0  0  0  0  0  0  0  0  0  0
  1  2  1  0
  2  3  1  0
  3  4  1  0
  4  5  1  6
  4  6  1  0
  6  7  2  3
  7  8  1  0
  8  9  1  6
  8 10  1  0
 10 11  1  0
 11 12  1  0
 12 13  2  0
 12 14  1  0
 14 15  1  0
 15 16  2  0
 15 20  1  0
 16 17  1  0
 17 18  2  0
 17 37  1  0
 18 19  1  0
 18 23  1  0
 19 20  2  0
 20 21  1  0
 21 22  1  0
 23 24  1  0
 24 25  1  0
 24 36  1  0
 25 26  2  0
 25 34  1  0
 26 27  1  0
 27 28  1  0
 27 29  2  0
 29 30  1  0
 29 33  1  0
 30 31  1  0
 31 32  1  0
 33 34  2  0
 34 35  1  0
 36 37  1  0
M  CHG  1   2   1
M  END
