
     RDKit          3D

 37 40  0  0  0  0  0  0  0  0999 V2000
   -5.3160    0.0810   -3.2640 C   0  0  0  0  0  0  0  0  0  0  0  0
   -5.6980   -0.3840   -1.8530 C   0  0  0  0  0  0  0  0  0  0  0  0
   -4.4600   -0.9880   -1.3010 C   0  0  0  0  0  0  0  0  0  0  0  0
   -4.2090   -2.3020   -1.4870 N   0  0  0  0  0  0  0  0  0  0  0  0
   -3.1050   -2.9180   -1.0270 C   0  0  0  0  0  0  0  0  0  0  0  0
   -2.8170   -4.3680   -1.1900 C   0  0  2  0  0  0  0  0  0  0  0  0
   -3.0000   -4.7200   -2.6430 C   0  0  0  0  0  0  0  0  0  0  0  0
   -3.7450   -5.2000   -0.3150 C   0  0  0  0  0  0  0  0  0  0  0  0
   -2.2360   -2.1380   -0.3520 N   0  0  0  0  0  0  0  0  0  0  0  0
   -2.4200   -0.8460   -0.1330 C   0  0  0  0  0  0  0  0  0  0  0  0
   -1.3810   -0.0510    0.6290 C   0  0  1  0  0  0  0  0  0  0  0  0
   -0.1050   -0.1340   -0.0130 N   0  0  0  0  0  0  0  0  0  0  0  0
    0.9750   -0.9660    0.4710 C   0  0  0  0  0  0  0  0  0  0  0  0
    0.7620   -1.6520    1.5100 O   0  0  0  0  0  0  0  0  0  0  0  0
    2.2310   -1.0160   -0.1880 N   0  0  0  0  0  0  0  0  0  0  0  0
    3.3210   -1.8620    0.2850 C   0  0  1  0  0  0  0  0  0  0  0  0
    3.9120   -2.6780   -0.8300 C   0  0  0  0  0  0  0  0  0  0  0  0
    4.3910   -0.9420    0.7910 C   0  0  0  0  0  0  0  0  0  0  0  0
    4.0850    0.1170    1.6280 C   0  0  0  0  0  0  0  0  0  0  0  0
    5.0770    0.9520    2.0920 C   0  0  0  0  0  0  0  0  0  0  0  0
    6.4020    0.7680    1.7420 C   0  0  0  0  0  0  0  0  0  0  0  0
    6.7090   -0.2740    0.9160 C   0  0  0  0  0  0  0  0  0  0  0  0
    5.7090   -1.1230    0.4430 C   0  0  0  0  0  0  0  0  0  0  0  0
    8.0350   -0.4690    0.5580 O   0  0  0  0  0  0  0  0  0  0  0  0
    9.0820    0.3480    1.0720 C   0  0  0  0  0  0  0  0  0  0  0  0
    8.7180    1.0660    2.3370 C   0  0  0  0  0  0  0  0  0  0  0  0
    7.4040    1.6180    2.2140 O   0  0  0  0  0  0  0  0  0  0  0  0
   -1.8780    1.2780    0.9510 C   0  0  0  0  0  0  0  0  0  0  0  0
   -2.3260    1.5060    2.2550 C   0  0  0  0  0  0  0  0  0  0  0  0
   -2.8220    2.7140    2.6350 C   0  0  0  0  0  0  0  0  0  0  0  0
   -2.9150    3.7840    1.7580 C   0  0  0  0  0  0  0  0  0  0  0  0
   -3.4550    5.0710    2.2300 C   0  0  0  0  0  0  0  0  0  0  0  0
   -2.4700    3.5420    0.4800 C   0  0  0  0  0  0  0  0  0  0  0  0
   -2.5530    4.6500   -0.5060 C   0  0  0  0  0  0  0  0  0  0  0  0
   -2.0640    4.2780   -1.8090 N   0  0  0  0  0  0  0  0  0  0  0  0
   -1.9620    2.3260    0.0700 C   0  0  0  0  0  0  0  0  0  0  0  0
   -3.5340   -0.2590   -0.6050 N   0  0  0  0  0  0  0  0  0  0  0  0
  1  2  1  0
  2  3  1  0
  3  4  2  0
  3 37  1  0
  4  5  1  0
  5  6  1  0
  5  9  2  0
  6  7  1  6
  6  8  1  0
  9 10  1  0
 10 11  1  0
 10 37  2  0
 11 12  1  6
 11 28  1  0
 12 13  1  0
 13 14  2  0
 13 15  1  0
 15 16  1  0
 16 17  1  6
 16 18  1  0
 18 19  2  0
 18 23  1  0
 19 20  1  0
 20 21  2  0
 21 22  1  0
 21 27  1  0
 22 23  2  0
 22 24  1  0
 24 25  1  0
 25 26  1  0
 26 27  1  0
 28 29  2  0
 28 36  1  0
 29 30  1  0
 30 31  2  0
 31 32  1  0
 31 33  1  0
 33 34  1  0
 33 36  2  0
 34 35  1  0
M  CHG  1  35   1
M  END
