
     RDKit          3D

 37 40  0  0  0  0  0  0  0  0999 V2000
   -1.4980   -3.1340   -3.4210 C   0  0  0  0  0  0  0  0  0  0  0  0
   -1.3630   -2.5010   -2.0240 C   0  0  0  0  0  0  0  0  0  0  0  0
   -2.4840   -3.0720   -1.1970 C   0  0  1  0  0  0  0  0  0  0  0  0
   -2.3580   -4.5690   -1.0910 C   0  0  0  0  0  0  0  0  0  0  0  0
   -2.6870   -2.4190    0.0800 N   0  0  0  0  0  0  0  0  0  0  0  0
   -1.6620   -1.5860    0.5060 C   0  0  0  0  0  0  0  0  0  0  0  0
   -1.6340   -0.1510    0.6040 C   0  0  0  0  0  0  0  0  0  0  0  0
   -0.4260    0.3780    1.1450 C   0  0  0  0  0  0  0  0  0  0  0  0
    0.6230   -0.5110    1.5170 N   0  0  0  0  0  0  0  0  0  0  0  0
    1.8880   -0.1500    1.9900 C   0  0  0  0  0  0  0  0  0  0  0  0
    2.2380    1.0330    2.1210 O   0  0  0  0  0  0  0  0  0  0  0  0
    2.8800   -1.1300    2.3640 N   0  0  0  0  0  0  0  0  0  0  0  0
    2.5290   -2.5160    2.2360 C   0  0  0  0  0  0  0  0  0  0  0  0
    4.1740   -0.7520    2.8440 C   0  0  2  0  0  0  0  0  0  0  0  0
    4.1660    0.1370    4.0420 C   0  0  0  0  0  0  0  0  0  0  0  0
    4.9710   -0.1270    1.7290 C   0  0  0  0  0  0  0  0  0  0  0  0
    6.0340    0.4850    1.9540 O   0  0  0  0  0  0  0  0  0  0  0  0
    4.4880   -0.2520    0.4070 N   0  0  0  0  0  0  0  0  0  0  0  0
    5.1890    0.3170   -0.7310 C   0  0  1  0  0  0  0  0  0  0  0  0
    5.9520   -0.8110   -1.4210 C   0  0  0  0  0  0  0  0  0  0  0  0
    5.8770   -0.4790   -2.8750 C   0  0  0  0  0  0  0  0  0  0  0  0
    4.8170    0.5060   -3.0210 N   0  0  0  0  0  0  0  0  0  0  0  0
    4.3520    0.9270   -1.7440 C   0  0  0  0  0  0  0  0  0  0  0  0
    3.3800    1.6960   -1.5650 O   0  0  0  0  0  0  0  0  0  0  0  0
   -0.3210    1.7140    1.3340 C   0  0  0  0  0  0  0  0  0  0  0  0
   -1.3330    2.6050    1.0330 C   0  0  0  0  0  0  0  0  0  0  0  0
   -1.1640    3.9480    1.2850 C   0  0  0  0  0  0  0  0  0  0  0  0
   -2.2020    4.7950    1.0140 C   0  0  0  0  0  0  0  0  0  0  0  0
   -3.3940    4.3580    0.5080 C   0  0  0  0  0  0  0  0  0  0  0  0
   -4.5570    4.9700    0.2240 N   0  0  0  0  0  0  0  0  0  0  0  0
   -5.4420    4.0770   -0.1880 C   0  0  0  0  0  0  0  0  0  0  0  0
   -6.8460    4.3320   -0.5940 C   0  0  0  0  0  0  0  0  0  0  0  0
   -4.8530    2.8140   -0.1830 C   0  0  0  0  0  0  0  0  0  0  0  0
   -3.5610    2.9870    0.2490 C   0  0  0  0  0  0  0  0  0  0  0  0
   -2.5130    2.0870    0.5070 C   0  0  0  0  0  0  0  0  0  0  0  0
   -2.6430    0.7240    0.2930 C   0  0  0  0  0  0  0  0  0  0  0  0
   -3.8070    0.2640   -0.5210 C   0  0  0  0  0  0  0  0  0  0  0  0
  1  2  1  0
  2  3  1  0
  3  4  1  1
  3  5  1  0
  5  6  1  0
  6  7  1  0
  7  8  2  0
  7 36  1  0
  8  9  1  0
  8 25  1  0
  9 10  1  0
 10 11  2  0
 10 12  1  0
 12 13  1  0
 12 14  1  0
 14 15  1  1
 14 16  1  0
 16 17  2  0
 16 18  1  0
 19 18  1  1
 19 20  1  0
 19 23  1  0
 20 21  1  0
 21 22  1  0
 22 23  1  0
 23 24  2  0
 25 26  2  0
 26 27  1  0
 26 35  1  0
 27 28  2  0
 28 29  1  0
 29 30  1  0
 29 34  2  0
 30 31  1  0
 31 32  1  0
 31 33  2  0
 33 34  1  0
 34 35  1  0
 35 36  2  0
 36 37  1  0
M  CHG  1   5   1
M  END
