
     RDKit          3D

 36 38  0  0  0  0  0  0  0  0999 V2000
    7.7470    3.6370    2.9330 C   0  0  0  0  0  0  0  0  0  0  0  0
    8.1270    3.1290    1.6020 C   0  0  0  0  0  0  0  0  0  0  0  0
    9.3250    3.5590    0.9730 C   0  0  0  0  0  0  0  0  0  0  0  0
   10.3110    3.9310    0.4630 N   0  0  0  0  0  0  0  0  0  0  0  0
    7.3040    2.2550    0.9930 C   0  0  0  0  0  0  0  0  0  0  0  0
    6.0880    1.8060    1.5790 C   0  0  0  0  0  0  0  0  0  0  0  0
    5.1380    1.0090    1.2600 C   0  0  0  0  0  0  0  0  0  0  0  0
    4.8220    0.1660    0.1480 C   0  0  0  0  0  0  0  0  0  0  0  0
    3.5990   -0.5500    0.1390 C   0  0  0  0  0  0  0  0  0  0  0  0
    3.3080   -1.3590   -0.9140 C   0  0  0  0  0  0  0  0  0  0  0  0
    2.1100   -2.0830   -0.9540 C   0  0  0  0  0  0  0  0  0  0  0  0
    1.1720   -1.9590    0.0940 N   0  0  0  0  0  0  0  0  0  0  0  0
   -0.0190   -2.7040    0.2760 C   0  0  0  0  0  0  0  0  0  0  0  0
   -0.3270   -3.5810   -0.5370 O   0  0  0  0  0  0  0  0  0  0  0  0
   -0.8880   -2.4630    1.3990 N   0  0  0  0  0  0  0  0  0  0  0  0
   -2.0810   -3.2340    1.5640 C   0  0  0  0  0  0  0  0  0  0  0  0
   -3.0700   -3.0360    0.4880 C   0  0  0  0  0  0  0  0  0  0  0  0
   -3.7130   -1.7960    0.3390 N   0  0  0  0  0  0  0  0  0  0  0  0
   -3.1870   -0.5350    0.0810 C   0  0  0  0  0  0  0  0  0  0  0  0
   -1.9600   -0.3630   -0.0580 O   0  0  0  0  0  0  0  0  0  0  0  0
   -4.0220    0.7200   -0.0540 C   0  0  2  0  0  0  0  0  0  0  0  0
   -3.6300    1.5970    1.1440 C   0  0  0  0  0  0  0  0  0  0  0  0
   -5.4240    0.3800    0.0160 N   0  0  0  0  0  0  0  0  0  0  0  0
   -6.2780    1.4590   -0.4860 C   0  0  1  0  0  0  0  0  0  0  0  0
   -7.6330    0.8220   -0.7640 C   0  0  0  0  0  0  0  0  0  0  0  0
   -8.5130    1.3390    0.3720 C   0  0  0  0  0  0  0  0  0  0  0  0
   -8.0130    2.7700    0.5130 C   0  0  0  0  0  0  0  0  0  0  0  0
   -6.5110    2.5460    0.5100 C   0  0  0  0  0  0  0  0  0  0  0  0
    1.9120   -2.8740   -2.0600 C   0  0  0  0  0  0  0  0  0  0  0  0
    2.8010   -2.9940   -3.1050 C   0  0  0  0  0  0  0  0  0  0  0  0
    3.9840   -2.2830   -3.0720 C   0  0  0  0  0  0  0  0  0  0  0  0
    4.9760   -2.3740   -4.1660 C   0  0  0  0  0  0  0  0  0  0  0  0
    4.2120   -1.4810   -1.9770 C   0  0  0  0  0  0  0  0  0  0  0  0
    5.3950   -0.7790   -1.9540 C   0  0  0  0  0  0  0  0  0  0  0  0
    6.2390   -0.8630   -2.9000 O   0  0  0  0  0  0  0  0  0  0  0  0
    5.6510    0.0180   -0.8870 N   0  0  0  0  0  0  0  0  0  0  0  0
  1  2  1  0
  2  3  1  0
  2  5  2  3
  3  4  3  0
  5  6  1  0
  6  7  2  3
  7  8  1  0
  8  9  2  0
  8 36  1  0
  9 10  1  0
 10 11  2  0
 10 33  1  0
 11 12  1  0
 11 29  1  0
 12 13  1  0
 13 14  2  0
 13 15  1  0
 15 16  1  0
 16 17  1  0
 17 18  1  0
 18 19  1  0
 19 20  2  0
 19 21  1  0
 21 22  1  1
 21 23  1  0
 24 23  1  1
 24 25  1  0
 24 28  1  0
 25 26  1  0
 26 27  1  0
 27 28  1  0
 29 30  2  0
 30 31  1  0
 31 32  1  0
 31 33  2  0
 33 34  1  0
 34 35  2  0
 34 36  1  0
M  CHG  1  23   1
M  END
