
     RDKit          3D

 37 39  0  0  0  0  0  0  0  0999 V2000
   -5.4300    3.2940   -0.7510 C   0  0  0  0  0  0  0  0  0  0  0  0
   -4.6820    2.0760   -0.7430 N   0  0  0  0  0  0  0  0  0  0  0  0
   -4.0720    1.7740    0.5610 C   0  0  1  0  0  0  0  0  0  0  0  0
   -4.4490    2.8130    1.5910 C   0  0  0  0  0  0  0  0  0  0  0  0
   -4.4580    0.3820    0.9820 C   0  0  0  0  0  0  0  0  0  0  0  0
   -4.0880   -0.7890    0.3700 C   0  0  0  0  0  0  0  0  0  0  0  0
   -3.2250   -1.0320   -0.7990 C   0  0  0  0  0  0  0  0  0  0  0  0
   -1.7840   -0.9850   -0.6100 C   0  0  0  0  0  0  0  0  0  0  0  0
   -1.2090    0.1490   -0.3970 O   0  0  0  0  0  0  0  0  0  0  0  0
   -0.8820   -2.0900   -0.6340 N   0  0  0  0  0  0  0  0  0  0  0  0
   -1.4430   -3.4120   -0.8010 C   0  0  0  0  0  0  0  0  0  0  0  0
   -1.7860   -3.9600    0.6150 C   0  0  0  0  0  0  0  0  0  0  0  0
   -2.3310   -5.2110    0.5190 O   0  0  0  0  0  0  0  0  0  0  0  0
    0.5040   -1.9100   -0.3630 C   0  0  0  0  0  0  0  0  0  0  0  0
    1.4320   -1.4640   -1.3770 C   0  0  0  0  0  0  0  0  0  0  0  0
    2.3050   -0.4170   -1.0040 C   0  0  0  0  0  0  0  0  0  0  0  0
    3.2800    0.1070   -1.7930 C   0  0  0  0  0  0  0  0  0  0  0  0
    4.1480    1.1640   -1.3760 N   0  0  0  0  0  0  0  0  0  0  0  0
    4.0400    1.7150   -0.0800 C   0  0  0  0  0  0  0  0  0  0  0  0
    5.0680    2.0260    0.6760 C   0  0  0  0  0  0  0  0  0  0  0  0
    6.4210    1.7910    0.1620 C   0  0  0  0  0  0  0  0  0  0  0  0
    7.4880    2.0810    0.8630 C   0  0  0  0  0  0  0  0  0  0  0  0
    8.8110    1.7990    0.2420 C   0  0  0  0  0  0  0  0  0  0  0  0
    7.4240    2.6550    2.2000 C   0  0  0  0  0  0  0  0  0  0  0  0
    6.2330    2.9010    2.7470 C   0  0  0  0  0  0  0  0  0  0  0  0
    4.9910    2.5980    2.0100 C   0  0  0  0  0  0  0  0  0  0  0  0
    3.8720    2.8290    2.5200 O   0  0  0  0  0  0  0  0  0  0  0  0
    3.4390   -0.4200   -3.0630 C   0  0  0  0  0  0  0  0  0  0  0  0
    4.4880    0.1160   -3.9540 C   0  0  0  0  0  0  0  0  0  0  0  0
    2.5960   -1.4360   -3.4350 C   0  0  0  0  0  0  0  0  0  0  0  0
    1.5970   -1.9680   -2.6210 C   0  0  0  0  0  0  0  0  0  0  0  0
    0.7260   -3.0510   -3.1780 C   0  0  0  0  0  0  0  0  0  0  0  0
   -4.7090   -1.7840    1.0920 N   0  0  0  0  0  0  0  0  0  0  0  0
   -5.4050   -1.2900    2.0690 N   0  0  0  0  0  0  0  0  0  0  0  0
   -6.2200   -2.0000    3.0680 C   0  0  0  0  0  0  0  0  0  0  0  0
   -5.2920    0.0770    2.0600 C   0  0  0  0  0  0  0  0  0  0  0  0
   -5.9200    0.9520    2.9740 N   0  0  0  0  0  0  0  0  0  0  0  0
  1  2  1  0
  2  3  1  0
  3  4  1  1
  3  5  1  0
  5  6  1  0
  5 36  2  0
  6  7  1  0
  6 33  2  0
  7  8  1  0
  8  9  2  0
  8 10  1  0
 10 11  1  0
 10 14  1  0
 11 12  1  0
 12 13  1  0
 14 15  1  0
 15 16  2  0
 15 31  1  0
 16 17  1  0
 17 18  1  0
 17 28  2  0
 18 19  1  0
 19 20  2  3
 20 21  1  0
 20 26  1  0
 21 22  2  0
 22 23  1  0
 22 24  1  0
 24 25  2  0
 25 26  1  0
 26 27  2  0
 28 29  1  0
 28 30  1  0
 30 31  2  0
 31 32  1  0
 33 34  1  0
 34 35  1  0
 34 36  1  0
 36 37  1  0
M  CHG  1   2   1
M  END
