
     RDKit          3D

 25 26  0  0  0  0  0  0  0  0999 V2000
    7.0310    0.5550    1.7140 C   0  0  0  0  0  0  0  0  0  0  0  0
    5.9660    1.1710    1.2570 C   0  0  0  0  0  0  0  0  0  0  0  0
    5.7050    2.5940    1.5960 C   0  0  0  0  0  0  0  0  0  0  0  0
    5.0700    0.4400    0.4300 N   0  0  0  0  0  0  0  0  0  0  0  0
    3.9650    0.1040    0.9440 N   0  0  0  0  0  0  0  0  0  0  0  0
    2.9600   -0.6050    0.3170 N   0  0  0  0  0  0  0  0  0  0  0  0
    1.7700    0.0530   -0.1410 C   0  0  0  0  0  0  0  0  0  0  0  0
    1.1830   -0.8810   -1.2050 C   0  0  0  0  0  0  0  0  0  0  0  0
    0.7310   -2.0540   -0.5350 N   0  0  0  0  0  0  0  0  0  0  0  0
   -0.2470   -2.8350   -1.2000 C   0  0  0  0  0  0  0  0  0  0  0  0
   -1.5900   -2.2050   -1.2690 C   0  0  0  0  0  0  0  0  0  0  0  0
   -2.4960   -2.8170   -1.8760 O   0  0  0  0  0  0  0  0  0  0  0  0
   -1.8600   -0.9730   -0.6830 N   0  0  0  0  0  0  0  0  0  0  0  0
   -3.0900   -0.2560   -0.6770 C   0  0  0  0  0  0  0  0  0  0  0  0
   -4.2530   -0.6590   -1.2720 C   0  0  0  0  0  0  0  0  0  0  0  0
   -5.4120    0.0870   -1.2280 C   0  0  0  0  0  0  0  0  0  0  0  0
   -5.4900    1.3180   -0.5720 C   0  0  0  0  0  0  0  0  0  0  0  0
   -6.7080    2.0320   -0.5740 N   0  0  0  0  0  0  0  0  0  0  0  0
   -7.0120    3.2020    0.1370 C   0  0  0  0  0  0  0  0  0  0  0  0
   -6.1620    3.7280    0.8780 O   0  0  0  0  0  0  0  0  0  0  0  0
   -4.3230    1.7200    0.0220 C   0  0  0  0  0  0  0  0  0  0  0  0
   -3.1600    0.9730   -0.0200 C   0  0  0  0  0  0  0  0  0  0  0  0
   -2.0340    1.4570    0.6070 O   0  0  0  0  0  0  0  0  0  0  0  0
    1.7960   -2.7700    0.0790 C   0  0  0  0  0  0  0  0  0  0  0  0
    3.1060   -2.0190    0.1170 C   0  0  0  0  0  0  0  0  0  0  0  0
  1  2  2  0
  2  3  1  0
  2  4  1  0
  4  5  2  3
  5  6  1  0
  6  7  1  0
  6 25  1  0
  7  8  1  0
  8  9  1  0
  9 10  1  0
  9 24  1  0
 10 11  1  0
 11 12  2  0
 11 13  1  0
 13 14  1  0
 14 15  2  0
 14 22  1  0
 15 16  1  0
 16 17  2  0
 17 18  1  0
 17 21  1  0
 18 19  1  0
 19 20  2  0
 21 22  2  0
 22 23  1  0
 24 25  1  0
M  END
