
     RDKit          3D

 24 25  0  0  0  0  0  0  0  0999 V2000
   -4.9700   -0.2390   -1.7290 C   0  0  0  0  0  0  0  0  0  0  0  0
   -3.9750    0.7080   -1.0870 C   0  0  2  0  0  0  0  0  0  0  0  0
   -2.7650    0.8960   -1.9300 C   0  0  0  0  0  0  0  0  0  0  0  0
   -3.7680    0.3390    0.3250 C   0  0  0  0  0  0  0  0  0  0  0  0
   -3.2510   -0.9950    0.6810 C   0  0  0  0  0  0  0  0  0  0  0  0
   -1.9440   -1.2820    0.1630 N   0  0  0  0  0  0  0  0  0  0  0  0
   -0.8940   -0.7950    0.9090 C   0  0  0  0  0  0  0  0  0  0  0  0
    0.4060   -0.9800    0.5170 C   0  0  0  0  0  0  0  0  0  0  0  0
    1.5570   -0.5330    1.1900 N   0  0  0  0  0  0  0  0  0  0  0  0
    1.6350    0.1920    2.3940 C   0  0  0  0  0  0  0  0  0  0  0  0
    0.5620    0.4930    2.9770 O   0  0  0  0  0  0  0  0  0  0  0  0
    2.9520    0.6100    2.9990 C   0  0  0  0  0  0  0  0  0  0  0  0
    4.0610    0.2130    2.1750 N   0  0  0  0  0  0  0  0  0  0  0  0
    4.3390    0.7720    0.9060 C   0  0  0  0  0  0  0  0  0  0  0  0
    5.4140    0.3170    0.1850 C   0  0  0  0  0  0  0  0  0  0  0  0
    5.7210    0.8540   -1.0700 C   0  0  0  0  0  0  0  0  0  0  0  0
    4.9200    1.8300   -1.5380 N   0  0  0  0  0  0  0  0  0  0  0  0
    3.8720    2.2770   -0.8420 C   0  0  0  0  0  0  0  0  0  0  0  0
    3.5850    1.7470    0.3760 N   0  0  0  0  0  0  0  0  0  0  0  0
    0.5620   -1.6880   -0.6780 C   0  0  0  0  0  0  0  0  0  0  0  0
    1.7480   -1.8870   -1.0870 O   0  0  0  0  0  0  0  0  0  0  0  0
   -0.4590   -2.1550   -1.3910 N   0  0  0  0  0  0  0  0  0  0  0  0
   -1.7360   -1.9540   -0.9720 C   0  0  0  0  0  0  0  0  0  0  0  0
   -2.6750   -2.4110   -1.6700 O   0  0  0  0  0  0  0  0  0  0  0  0
  2  1  1  6
  2  3  1  0
  2  4  1  0
  4  5  1  0
  5  6  1  0
  6  7  1  0
  6 23  1  0
  7  8  2  0
  8  9  1  0
  8 20  1  0
  9 10  1  0
 10 11  2  0
 10 12  1  0
 12 13  1  0
 13 14  1  0
 14 15  2  0
 14 19  1  0
 15 16  1  0
 16 17  2  0
 17 18  1  0
 18 19  2  0
 20 21  2  0
 20 22  1  0
 22 23  1  0
 23 24  2  0
M  END
