
     RDKit          3D

 18 19  0  0  0  0  0  0  0  0999 V2000
   -6.9060   -0.1200    0.7340 N   0  0  0  0  0  0  0  0  0  0  0  0
   -5.7870   -0.2340    0.5210 C   0  0  0  0  0  0  0  0  0  0  0  0
   -4.2900   -0.3930    0.2630 C   0  0  0  0  0  0  0  0  0  0  0  0
   -3.5480   -1.3270    0.8730 C   0  0  0  0  0  0  0  0  0  0  0  0
   -2.1980   -1.4440    0.7150 C   0  0  0  0  0  0  0  0  0  0  0  0
   -1.5500   -0.5330   -0.0920 C   0  0  0  0  0  0  0  0  0  0  0  0
   -0.0810   -0.3130   -0.0560 C   0  0  0  0  0  0  0  0  0  0  0  0
    0.8400   -1.2680    0.0950 C   0  0  0  0  0  0  0  0  0  0  0  0
    2.2020   -0.9260    0.2610 C   0  0  0  0  0  0  0  0  0  0  0  0
    2.5760    0.4010    0.2840 C   0  0  0  0  0  0  0  0  0  0  0  0
    4.2490    0.9360    0.6630 S   0  0  2  0  0  0  0  0  0  0  0  0
    5.3450    0.0640   -0.3530 N   0  0  0  0  0  0  0  0  0  0  0  0
    4.4940    0.8170    2.1020 O   0  0  0  0  0  0  0  0  0  0  0  0
    4.3210    2.4330    0.3230 O   0  0  0  0  0  0  0  0  0  0  0  0
    1.6740    1.3600    0.1410 C   0  0  0  0  0  0  0  0  0  0  0  0
    0.3760    1.0410   -0.0330 C   0  0  0  0  0  0  0  0  0  0  0  0
   -2.3250    0.4240   -0.7680 C   0  0  0  0  0  0  0  0  0  0  0  0
   -3.7150    0.4740   -0.5740 C   0  0  0  0  0  0  0  0  0  0  0  0
  1  2  3  0
  2  3  1  0
  3  4  2  0
  3 18  1  0
  4  5  1  0
  5  6  2  0
  6  7  1  0
  6 17  1  0
  7  8  2  0
  7 16  1  0
  8  9  1  0
  9 10  2  0
 10 11  1  0
 10 15  1  0
 11 12  1  6
 11 13  2  0
 11 14  2  0
 15 16  2  0
 17 18  2  0
M  END
