
     RDKit          3D

 25 26  0  0  0  0  0  0  0  0999 V2000
   -5.0360   -1.9070   -0.3380 C   0  0  0  0  0  0  0  0  0  0  0  0
   -4.4550   -0.8900    0.6010 C   0  0  0  0  0  0  0  0  0  0  0  0
   -2.9560   -1.0240    0.5820 C   0  0  0  0  0  0  0  0  0  0  0  0
   -2.4020   -2.2920    0.9980 C   0  0  0  0  0  0  0  0  0  0  0  0
   -0.9940   -2.5220    1.0490 N   0  0  0  0  0  0  0  0  0  0  0  0
   -3.1800   -3.2250    1.3290 O   0  0  0  0  0  0  0  0  0  0  0  0
   -2.2060   -0.0110    0.2140 C   0  0  0  0  0  0  0  0  0  0  0  0
   -0.7950   -0.1050    0.1830 N   0  0  0  0  0  0  0  0  0  0  0  0
   -0.1170    0.9840    0.2820 C   0  0  0  0  0  0  0  0  0  0  0  0
    1.3120    1.1650    0.2750 C   0  0  0  0  0  0  0  0  0  0  0  0
    2.2200    0.2500    0.1560 C   0  0  0  0  0  0  0  0  0  0  0  0
    3.6190    0.6970    0.1790 N   0  0  0  0  0  0  0  0  0  0  0  0
    2.0930   -1.1330   -0.0030 N   0  0  0  0  0  0  0  0  0  0  0  0
    1.6070   -1.8220   -1.1610 C   0  0  0  0  0  0  0  0  0  0  0  0
    2.3820   -3.1480   -1.1470 C   0  0  0  0  0  0  0  0  0  0  0  0
    2.5460   -3.4240    0.3190 C   0  0  0  0  0  0  0  0  0  0  0  0
    2.4930   -2.0950    0.9840 C   0  0  0  0  0  0  0  0  0  0  0  0
    1.8300    2.5750    0.4170 C   0  0  0  0  0  0  0  0  0  0  0  0
    1.2840    3.6810   -0.1010 N   0  0  0  0  0  0  0  0  0  0  0  0
    2.0510    4.7420    0.2550 C   0  0  0  0  0  0  0  0  0  0  0  0
    1.8200    6.1600   -0.1000 C   0  0  0  0  0  0  0  0  0  0  0  0
    3.0480    4.2390    0.9850 N   0  0  0  0  0  0  0  0  0  0  0  0
    2.8970    2.9490    1.0690 O   0  0  0  0  0  0  0  0  0  0  0  0
   -2.7800    1.2160   -0.1660 O   0  0  0  0  0  0  0  0  0  0  0  0
   -2.8950    1.5710   -1.5330 C   0  0  0  0  0  0  0  0  0  0  0  0
  1  2  1  0
  2  3  1  0
  3  4  1  0
  3  7  2  3
  4  5  1  0
  4  6  2  0
  7  8  1  0
  7 24  1  0
  8  9  2  3
  9 10  1  0
 10 11  2  3
 10 18  1  0
 11 12  1  0
 11 13  1  0
 13 14  1  0
 13 17  1  0
 14 15  1  0
 15 16  1  0
 16 17  1  0
 18 19  2  0
 18 23  1  0
 19 20  1  0
 20 21  1  0
 20 22  2  0
 22 23  1  0
 24 25  1  0
M  END
