
     RDKit          3D

 25 26  0  0  0  0  0  0  0  0999 V2000
   -2.3830   -3.0010   -0.5220 C   0  0  0  0  0  0  0  0  0  0  0  0
   -2.7350   -1.9670   -1.5080 N   0  0  0  0  0  0  0  0  0  0  0  0
   -3.5750   -0.8890   -1.1600 C   0  0  0  0  0  0  0  0  0  0  0  0
   -3.0430    0.3530   -0.7930 C   0  0  0  0  0  0  0  0  0  0  0  0
   -1.6280    0.4070   -0.8080 C   0  0  0  0  0  0  0  0  0  0  0  0
   -1.0380   -0.7210   -1.1650 O   0  0  0  0  0  0  0  0  0  0  0  0
   -0.7000    1.4480   -0.5110 C   0  0  0  0  0  0  0  0  0  0  0  0
    0.7070    0.9830   -0.6850 N   0  0  0  0  0  0  0  0  0  0  0  0
    1.3730    1.0740   -1.8150 N   0  0  0  0  0  0  0  0  0  0  0  0
    2.6040    0.5670   -1.6270 N   0  0  0  0  0  0  0  0  0  0  0  0
    2.7010    0.1530   -0.3510 C   0  0  0  0  0  0  0  0  0  0  0  0
    3.8570   -0.4660    0.3050 C   0  0  0  0  0  0  0  0  0  0  0  0
    3.7940   -0.8360    1.6290 C   0  0  0  0  0  0  0  0  0  0  0  0
    4.8330   -1.4210    2.3170 C   0  0  0  0  0  0  0  0  0  0  0  0
    6.0110   -1.6390    1.5930 C   0  0  0  0  0  0  0  0  0  0  0  0
    7.0760   -2.2390    2.3010 N   0  0  0  0  0  0  0  0  0  0  0  0
    6.1100   -1.2780    0.2580 C   0  0  0  0  0  0  0  0  0  0  0  0
    5.0240   -0.6950   -0.3650 C   0  0  0  0  0  0  0  0  0  0  0  0
    1.4950    0.4320    0.1980 N   0  0  0  0  0  0  0  0  0  0  0  0
   -4.0390    1.3360   -0.4740 C   0  0  0  0  0  0  0  0  0  0  0  0
   -5.5250    0.7480   -0.6360 C   0  0  0  0  0  0  0  0  0  0  0  0
   -4.0940    2.5480   -0.1020 C   0  0  0  0  0  0  0  0  0  0  0  0
   -3.3900    3.7220    0.2460 C   0  0  0  0  0  0  0  0  0  0  0  0
   -2.1810    3.9130    0.2830 O   0  0  0  0  0  0  0  0  0  0  0  0
   -4.1150    4.9150    0.6250 O   0  0  0  0  0  0  0  0  0  0  0  0
  1  2  1  0
  2  3  1  0
  3  4  2  3
  4  5  1  0
  4 20  1  0
  5  6  2  0
  5  7  1  0
  7  8  1  0
  8  9  1  0
  8 19  1  0
  9 10  2  0
 10 11  1  0
 11 12  1  0
 11 19  2  0
 12 13  2  0
 12 18  1  0
 13 14  1  0
 14 15  2  0
 15 16  1  0
 15 17  1  0
 17 18  2  0
 20 21  1  0
 20 22  2  3
 22 23  1  0
 23 24  2  0
 23 25  1  0
M  END
