
     RDKit          3D

 25 26  0  0  0  0  0  0  0  0999 V2000
    5.8470   -0.0150    2.0870 C   0  0  0  0  0  0  0  0  0  0  0  0
    5.1880    0.5270    1.0820 C   0  0  0  0  0  0  0  0  0  0  0  0
    5.3970    1.7720    0.5060 O   0  0  0  0  0  0  0  0  0  0  0  0
    4.5060    1.9960   -0.5310 C   0  0  0  0  0  0  0  0  0  0  0  0
    4.4610    3.2430   -1.3620 C   0  0  0  0  0  0  0  0  0  0  0  0
    3.7110    0.9450   -0.6660 C   0  0  0  0  0  0  0  0  0  0  0  0
    4.0660   -0.0570    0.3230 C   0  0  0  0  0  0  0  0  0  0  0  0
    3.5900   -1.2110    0.5730 N   0  0  0  0  0  0  0  0  0  0  0  0
    2.5480   -1.8080   -0.0980 N   0  0  0  0  0  0  0  0  0  0  0  0
    1.2330   -1.3180    0.1000 C   0  0  0  0  0  0  0  0  0  0  0  0
    1.0690   -0.3490    0.8870 O   0  0  0  0  0  0  0  0  0  0  0  0
    0.0490   -1.9090   -0.5900 C   0  0  0  0  0  0  0  0  0  0  0  0
   -1.1630   -1.1640   -0.1620 N   0  0  0  0  0  0  0  0  0  0  0  0
   -1.8880   -1.5860    0.9940 C   0  0  0  0  0  0  0  0  0  0  0  0
   -3.0000   -2.5440    0.6380 C   0  0  0  0  0  0  0  0  0  0  0  0
   -3.7390   -2.9590    1.8930 C   0  0  0  0  0  0  0  0  0  0  0  0
   -1.5360   -0.0490   -0.9170 C   0  0  0  0  0  0  0  0  0  0  0  0
   -0.8050    0.2650   -1.9170 O   0  0  0  0  0  0  0  0  0  0  0  0
   -2.6920    0.7780   -0.6520 C   0  0  0  0  0  0  0  0  0  0  0  0
   -3.5700    0.5750    0.3460 N   0  0  0  0  0  0  0  0  0  0  0  0
   -4.6420    1.3100    0.6100 C   0  0  0  0  0  0  0  0  0  0  0  0
   -4.8620    2.3970   -0.2450 C   0  0  0  0  0  0  0  0  0  0  0  0
   -4.0200    2.6530   -1.2600 N   0  0  0  0  0  0  0  0  0  0  0  0
   -2.9590    1.8840   -1.4820 C   0  0  0  0  0  0  0  0  0  0  0  0
   -2.0610    2.1460   -2.5550 N   0  0  0  0  0  0  0  0  0  0  0  0
  1  2  2  0
  2  3  1  0
  2  7  1  0
  3  4  1  0
  4  5  1  0
  4  6  2  0
  6  7  1  0
  7  8  2  3
  8  9  1  0
  9 10  1  0
 10 11  2  0
 10 12  1  0
 12 13  1  0
 13 14  1  0
 13 17  1  0
 14 15  1  0
 15 16  1  0
 17 18  2  0
 17 19  1  0
 19 20  2  0
 19 24  1  0
 20 21  1  0
 21 22  2  0
 22 23  1  0
 23 24  2  0
 24 25  1  0
M  END
