
     RDKit          3D

 24 24  0  0  0  0  0  0  0  0999 V2000
   -2.1670   -0.7620    1.8530 O   0  0  0  0  0  0  0  0  0  0  0  0
   -3.0650   -1.1660    1.0930 C   0  0  0  0  0  0  0  0  0  0  0  0
   -3.0690   -0.7510   -0.2090 O   0  0  0  0  0  0  0  0  0  0  0  0
   -2.1320    0.1170   -0.8040 C   0  0  1  0  0  0  0  0  0  0  0  0
   -2.5550    0.2670   -2.2540 C   0  0  0  0  0  0  0  0  0  0  0  0
   -2.5570   -0.9620   -2.9100 O   0  0  0  0  0  0  0  0  0  0  0  0
   -2.1330    1.4160   -0.0740 C   0  0  0  0  0  0  0  0  0  0  0  0
   -0.7820    1.9920    0.2120 C   0  0  2  0  0  0  0  0  0  0  0  0
   -0.3930    1.7590    1.5310 O   0  0  0  0  0  0  0  0  0  0  0  0
   -0.9170    3.5110    0.0740 C   0  0  0  0  0  0  0  0  0  0  0  0
   -1.8870    3.9120    0.9920 O   0  0  0  0  0  0  0  0  0  0  0  0
    0.2190    1.5940   -0.6200 O   0  0  0  0  0  0  0  0  0  0  0  0
    0.1540    0.3280   -1.1210 C   0  0  1  0  0  0  0  0  0  0  0  0
    1.4360   -0.4790   -0.8360 C   0  0  0  0  0  0  0  0  0  0  0  0
    2.5330    0.1140   -1.3910 O   0  0  0  0  0  0  0  0  0  0  0  0
    3.6640   -0.6340   -1.1400 C   0  0  0  0  0  0  0  0  0  0  0  0
    3.9960   -0.8160    0.3050 C   0  0  2  0  0  0  0  0  0  0  0  0
    4.1830    0.4500    0.8810 O   0  0  0  0  0  0  0  0  0  0  0  0
    5.3220   -1.5730    0.4720 C   0  0  0  0  0  0  0  0  0  0  0  0
    5.6230   -1.6830    1.8200 O   0  0  0  0  0  0  0  0  0  0  0  0
   -0.8840   -0.4440   -0.6750 O   0  0  0  0  0  0  0  0  0  0  0  0
   -4.1250   -2.0970    1.6090 C   0  0  1  0  0  0  0  0  0  0  0  0
   -3.9370   -2.3880    2.9390 O   0  0  0  0  0  0  0  0  0  0  0  0
   -5.3940   -1.6270    1.3470 O   0  0  0  0  0  0  0  0  0  0  0  0
  1  2  2  0
  2  3  1  0
  2 22  1  0
  3  4  1  0
  4  5  1  6
  4  7  1  0
  4 21  1  0
  5  6  1  0
  7  8  1  0
  8  9  1  1
  8 10  1  0
  8 12  1  0
 10 11  1  0
 12 13  1  0
 13 14  1  1
 13 21  1  0
 14 15  1  0
 15 16  1  0
 16 17  1  0
 17 18  1  6
 17 19  1  0
 19 20  1  0
 22 23  1  1
 22 24  1  0
M  END
