
     RDKit          3D

 23 23  0  0  0  0  0  0  0  0999 V2000
    0.2600    3.1430    2.1060 O   0  0  0  0  0  0  0  0  0  0  0  0
    0.0690    2.6200    0.9530 C   0  0  0  0  0  0  0  0  0  0  0  0
    0.7270    1.4310    0.7330 O   0  0  0  0  0  0  0  0  0  0  0  0
    1.2820    1.0070   -0.4800 C   0  0  1  0  0  0  0  0  0  0  0  0
    2.1690    2.0420   -1.1190 C   0  0  0  0  0  0  0  0  0  0  0  0
    3.2440    2.3930   -0.3100 O   0  0  0  0  0  0  0  0  0  0  0  0
    2.0730   -0.2730   -0.1780 C   0  0  0  0  0  0  0  0  0  0  0  0
    1.3340   -1.0020    0.7390 O   0  0  0  0  0  0  0  0  0  0  0  0
    1.0400   -2.2790    0.3280 C   0  0  1  0  0  0  0  0  0  0  0  0
    1.7620   -2.6620   -0.7840 O   0  0  0  0  0  0  0  0  0  0  0  0
    1.3270   -3.2200    1.5060 C   0  0  0  0  0  0  0  0  0  0  0  0
    0.5370   -2.8770    2.6000 O   0  0  0  0  0  0  0  0  0  0  0  0
   -0.4680   -2.4160    0.0740 C   0  0  0  0  0  0  0  0  0  0  0  0
   -0.7450   -1.7230   -1.1000 O   0  0  0  0  0  0  0  0  0  0  0  0
   -1.9140   -1.1350   -1.4660 C   0  0  0  0  0  0  0  0  0  0  0  0
   -2.1660   -0.9470   -2.6830 O   0  0  0  0  0  0  0  0  0  0  0  0
   -2.9320   -0.6930   -0.4810 C   0  0  1  0  0  0  0  0  0  0  0  0
   -3.2120   -1.6880    0.4650 O   0  0  0  0  0  0  0  0  0  0  0  0
   -2.4930    0.6040    0.2150 C   0  0  0  0  0  0  0  0  0  0  0  0
   -2.0650    1.4700   -0.7820 O   0  0  0  0  0  0  0  0  0  0  0  0
   -1.7240    2.7880   -0.7230 C   0  0  0  0  0  0  0  0  0  0  0  0
   -0.7930    3.3170    0.0290 C   0  0  0  0  0  0  0  0  0  0  0  0
   -0.6080    4.7130   -0.0680 O   0  0  0  0  0  0  0  0  0  0  0  0
  1  2  2  0
  2  3  1  0
  2 22  1  0
  3  4  1  0
  4  5  1  1
  4  7  1  0
  5  6  1  0
  7  8  1  0
  8  9  1  0
  9 10  1  6
  9 11  1  0
  9 13  1  0
 11 12  1  0
 13 14  1  0
 14 15  1  0
 15 16  2  0
 15 17  1  0
 17 18  1  1
 17 19  1  0
 19 20  1  0
 20 21  1  0
 21 22  2  0
 22 23  1  0
M  END
