
     RDKit          3D

 23 23  0  0  0  0  0  0  0  0999 V2000
   -2.9700   -0.4020   -1.6550 C   0  0  0  0  0  0  0  0  0  0  0  0
   -1.6140   -0.6400   -0.9140 C   0  0  1  0  0  0  0  0  0  0  0  0
   -1.9440   -1.4670    0.1240 O   0  0  0  0  0  0  0  0  0  0  0  0
   -0.7460   -1.3720   -1.9030 C   0  0  0  0  0  0  0  0  0  0  0  0
   -1.3810   -2.4960   -2.4290 O   0  0  0  0  0  0  0  0  0  0  0  0
   -1.1270    0.7100   -0.5630 C   0  0  1  0  0  0  0  0  0  0  0  0
   -2.1320    1.4840    0.1250 O   0  0  0  0  0  0  0  0  0  0  0  0
   -2.7090    2.6020   -0.4120 C   0  0  0  0  0  0  0  0  0  0  0  0
   -2.3350    2.9570   -1.5580 O   0  0  0  0  0  0  0  0  0  0  0  0
   -3.7530    3.4070    0.3010 C   0  0  0  0  0  0  0  0  0  0  0  0
   -4.0450    2.8840    1.5360 O   0  0  0  0  0  0  0  0  0  0  0  0
    0.1850    0.8400    0.1280 C   0  0  2  0  0  0  0  0  0  0  0  0
    0.4510    2.2540    0.0010 O   0  0  0  0  0  0  0  0  0  0  0  0
    1.1990    0.1040   -0.3440 O   0  0  0  0  0  0  0  0  0  0  0  0
    1.9770   -0.5760    0.5200 C   0  0  1  0  0  0  0  0  0  0  0  0
    1.4040   -1.5940    1.4150 C   0  0  0  0  0  0  0  0  0  0  0  0
    0.7950   -2.6840    0.8080 O   0  0  0  0  0  0  0  0  0  0  0  0
    3.0240   -1.3030   -0.3540 C   0  0  0  0  0  0  0  0  0  0  0  0
    3.9620   -1.9570    0.4430 O   0  0  0  0  0  0  0  0  0  0  0  0
    4.7070   -0.9900    1.0860 C   0  0  0  0  0  0  0  0  0  0  0  0
    3.8720   -0.3610    2.0010 O   0  0  0  0  0  0  0  0  0  0  0  0
    2.8550    0.3590    1.3800 C   0  0  2  0  0  0  0  0  0  0  0  0
    2.0780    0.8560    2.4540 O   0  0  0  0  0  0  0  0  0  0  0  0
  2  1  1  6
  2  3  1  0
  2  4  1  0
  2  6  1  0
  4  5  1  0
  6  7  1  1
  6 12  1  0
  7  8  1  0
  8  9  2  0
  8 10  1  0
 10 11  1  0
 12 13  1  6
 12 14  1  0
 14 15  1  0
 15 16  1  1
 15 18  1  0
 15 22  1  0
 16 17  1  0
 18 19  1  0
 19 20  1  0
 20 21  1  0
 21 22  1  0
 22 23  1  1
M  END
