
     RDKit          3D

 16 17  0  0  0  0  0  0  0  0999 V2000
    4.7310    0.4970   -0.3990 N   0  0  0  0  0  0  0  0  0  0  0  0
    3.8530    0.3050    1.0790 S   0  0  2  0  0  0  0  0  0  0  0  0
    4.0010    1.5190    1.9290 O   0  0  0  0  0  0  0  0  0  0  0  0
    4.4040   -0.9140    1.7610 O   0  0  0  0  0  0  0  0  0  0  0  0
    2.1610    0.0800    0.6580 C   0  0  0  0  0  0  0  0  0  0  0  0
    1.3920    1.2120    0.5610 C   0  0  0  0  0  0  0  0  0  0  0  0
    0.0470    1.1640    0.2360 C   0  0  0  0  0  0  0  0  0  0  0  0
   -0.5080   -0.0750    0.0090 C   0  0  0  0  0  0  0  0  0  0  0  0
   -1.9180   -0.1680   -0.3340 C   0  0  0  0  0  0  0  0  0  0  0  0
   -2.8550    0.7280    0.1480 C   0  0  0  0  0  0  0  0  0  0  0  0
   -4.1910    0.6490   -0.1710 C   0  0  0  0  0  0  0  0  0  0  0  0
   -4.5610   -0.3920   -1.0150 C   0  0  0  0  0  0  0  0  0  0  0  0
   -3.6520   -1.2720   -1.4920 N   0  0  0  0  0  0  0  0  0  0  0  0
   -2.3440   -1.1730   -1.1630 C   0  0  0  0  0  0  0  0  0  0  0  0
    0.2600   -1.2130    0.1050 C   0  0  0  0  0  0  0  0  0  0  0  0
    1.6070   -1.1560    0.4310 C   0  0  0  0  0  0  0  0  0  0  0  0
  2  1  1  6
  2  3  2  0
  2  4  2  0
  2  5  1  0
  5  6  2  0
  5 16  1  0
  6  7  1  0
  7  8  2  0
  8  9  1  0
  8 15  1  0
  9 10  2  0
  9 14  1  0
 10 11  1  0
 11 12  2  0
 12 13  1  0
 13 14  2  0
 15 16  2  0
M  END
