
     RDKit          3D

 24 24  0  0  0  0  0  0  0  0999 V2000
    5.3370    0.5130   -1.6990 O   0  0  0  0  0  0  0  0  0  0  0  0
    4.8750    1.6510   -1.4780 C   0  0  0  0  0  0  0  0  0  0  0  0
    3.8580    1.8680   -0.5820 O   0  0  0  0  0  0  0  0  0  0  0  0
    3.2730    0.8310    0.1410 C   0  0  1  0  0  0  0  0  0  0  0  0
    3.3730    1.0560    1.6480 C   0  0  0  0  0  0  0  0  0  0  0  0
    2.7740   -0.0080    2.3190 O   0  0  0  0  0  0  0  0  0  0  0  0
    1.8290    0.7290   -0.1710 C   0  0  0  0  0  0  0  0  0  0  0  0
    1.2160    1.4690   -0.9720 O   0  0  0  0  0  0  0  0  0  0  0  0
    1.1050   -0.2570    0.4700 O   0  0  0  0  0  0  0  0  0  0  0  0
   -0.2770   -0.4910    0.2870 C   0  0  1  0  0  0  0  0  0  0  0  0
   -1.0910    0.7170    0.6560 C   0  0  0  0  0  0  0  0  0  0  0  0
   -0.4540    1.7180    1.0580 O   0  0  0  0  0  0  0  0  0  0  0  0
   -2.4470    0.7520    0.5690 O   0  0  0  0  0  0  0  0  0  0  0  0
   -3.2800    1.8160    0.8800 C   0  0  0  0  0  0  0  0  0  0  0  0
   -3.1270    3.0620    0.0850 C   0  0  0  0  0  0  0  0  0  0  0  0
   -1.8790    3.6440    0.1600 O   0  0  0  0  0  0  0  0  0  0  0  0
   -0.4920   -0.9020   -1.1410 C   0  0  0  0  0  0  0  0  0  0  0  0
   -0.3700   -2.4320   -1.1790 C   0  0  1  0  0  0  0  0  0  0  0  0
    0.8010   -2.7350   -0.4820 O   0  0  0  0  0  0  0  0  0  0  0  0
   -1.5960   -2.9620   -0.4650 C   0  0  2  0  0  0  0  0  0  0  0  0
   -2.6960   -2.6220   -1.2610 O   0  0  0  0  0  0  0  0  0  0  0  0
   -1.7370   -2.2040    0.8350 C   0  0  1  0  0  0  0  0  0  0  0  0
   -1.9360   -3.1760    1.8350 O   0  0  0  0  0  0  0  0  0  0  0  0
   -0.6220   -1.4940    1.1890 O   0  0  0  0  0  0  0  0  0  0  0  0
  1  2  2  0
  2  3  1  0
  3  4  1  0
  4  5  1  1
  4  7  1  0
  5  6  1  0
  7  8  2  0
  7  9  1  0
 10  9  1  6
 10 11  1  0
 10 17  1  0
 10 24  1  0
 11 12  2  0
 11 13  1  0
 13 14  1  0
 14 15  1  0
 15 16  1  0
 17 18  1  0
 18 19  1  1
 18 20  1  0
 20 21  1  6
 20 22  1  0
 22 23  1  1
 22 24  1  0
M  END
