
     RDKit          3D

 23 23  0  0  0  0  0  0  0  0999 V2000
    2.1430   -1.7020    0.8920 C   0  0  0  0  0  0  0  0  0  0  0  0
    2.1250   -0.2280    0.7210 C   0  0  1  0  0  0  0  0  0  0  0  0
    2.1710    0.3730    1.9840 O   0  0  0  0  0  0  0  0  0  0  0  0
    3.2420    0.3170   -0.1250 C   0  0  0  0  0  0  0  0  0  0  0  0
    4.6040    0.0200    0.4170 C   0  0  2  0  0  0  0  0  0  0  0  0
    4.7900    0.5580    1.6870 O   0  0  0  0  0  0  0  0  0  0  0  0
    5.5550    0.5020   -0.5070 O   0  0  0  0  0  0  0  0  0  0  0  0
    6.4080   -0.3600   -1.1630 C   0  0  0  0  0  0  0  0  0  0  0  0
    6.2990   -1.5890   -0.9000 O   0  0  0  0  0  0  0  0  0  0  0  0
    7.3610    0.0640   -2.0820 O   0  0  0  0  0  0  0  0  0  0  0  0
    0.8310    0.1770    0.0860 C   0  0  0  0  0  0  0  0  0  0  0  0
    0.5090   -0.2150   -1.0650 O   0  0  0  0  0  0  0  0  0  0  0  0
   -0.0770    1.0020    0.7320 O   0  0  0  0  0  0  0  0  0  0  0  0
   -1.2950    1.3980    0.1650 C   0  0  0  0  0  0  0  0  0  0  0  0
   -2.2120    0.2800   -0.1760 C   0  0  2  0  0  0  0  0  0  0  0  0
   -3.5020    0.8700   -0.7250 C   0  0  0  0  0  0  0  0  0  0  0  0
   -4.5660    0.0580   -0.0250 C   0  0  2  0  0  0  0  0  0  0  0  0
   -5.5840   -0.2860   -0.9130 O   0  0  0  0  0  0  0  0  0  0  0  0
   -5.1140    0.7990    1.1790 C   0  0  0  0  0  0  0  0  0  0  0  0
   -4.0930    1.1280    2.0500 O   0  0  0  0  0  0  0  0  0  0  0  0
   -3.7740   -1.1440    0.4340 C   0  0  1  0  0  0  0  0  0  0  0  0
   -3.4930   -1.9310   -0.6850 O   0  0  0  0  0  0  0  0  0  0  0  0
   -2.5940   -0.5170    0.9000 O   0  0  0  0  0  0  0  0  0  0  0  0
  2  1  1  1
  2  3  1  0
  2  4  1  0
  2 11  1  0
  4  5  1  0
  5  6  1  1
  5  7  1  0
  7  8  1  0
  8  9  2  0
  8 10  1  0
 11 12  2  0
 11 13  1  0
 13 14  1  0
 15 14  1  1
 15 16  1  0
 15 23  1  0
 16 17  1  0
 17 18  1  6
 17 19  1  0
 17 21  1  0
 19 20  1  0
 21 22  1  6
 21 23  1  0
M  END
