
     RDKit          3D

 33 35  0  0  0  0  0  0  0  0999 V2000
    1.3150    2.5920   -0.9310 C   0  0  0  0  0  0  0  0  0  0  0  0
    2.2170    1.5310   -0.7060 O   0  0  0  0  0  0  0  0  0  0  0  0
    1.7380    0.2800   -0.3620 C   0  0  0  0  0  0  0  0  0  0  0  0
    0.3940    0.0890   -0.2450 C   0  0  0  0  0  0  0  0  0  0  0  0
   -0.0750   -1.1590    0.0970 C   0  0  0  0  0  0  0  0  0  0  0  0
   -1.4550   -1.4080    0.2300 O   0  0  0  0  0  0  0  0  0  0  0  0
   -2.3360   -0.2990   -0.0100 C   0  0  0  0  0  0  0  0  0  0  0  0
   -3.7450   -0.7080    0.1610 C   0  0  0  0  0  0  0  0  0  0  0  0
   -4.0930   -2.0140    0.5000 C   0  0  0  0  0  0  0  0  0  0  0  0
   -5.4110   -2.3800    0.6520 C   0  0  0  0  0  0  0  0  0  0  0  0
   -6.3950   -1.4360    0.4650 C   0  0  0  0  0  0  0  0  0  0  0  0
   -6.1000   -0.1110    0.1230 C   0  0  0  0  0  0  0  0  0  0  0  0
   -7.1840    0.8560   -0.0530 C   0  0  0  0  0  0  0  0  0  0  0  0
   -7.1460    2.0890    0.5540 C   0  0  0  0  0  0  0  0  0  0  0  0
   -8.1670    3.0280    0.3950 C   0  0  0  0  0  0  0  0  0  0  0  0
   -9.2340    2.6970   -0.3920 C   0  0  0  0  0  0  0  0  0  0  0  0
   -9.3100    1.4780   -1.0150 C   0  0  0  0  0  0  0  0  0  0  0  0
   -8.2870    0.5770   -0.8370 C   0  0  0  0  0  0  0  0  0  0  0  0
   -4.7630    0.1970   -0.0160 C   0  0  0  0  0  0  0  0  0  0  0  0
   -4.3840    1.6010   -0.3890 C   0  0  0  0  0  0  0  0  0  0  0  0
    0.8240   -2.1920    0.3170 C   0  0  0  0  0  0  0  0  0  0  0  0
    2.1810   -1.9580    0.1880 C   0  0  0  0  0  0  0  0  0  0  0  0
    3.0370   -3.0190    0.4190 O   0  0  0  0  0  0  0  0  0  0  0  0
    2.5940   -4.2920    0.7670 C   0  0  0  0  0  0  0  0  0  0  0  0
    2.6850   -0.7220   -0.1540 C   0  0  0  0  0  0  0  0  0  0  0  0
    4.1040   -0.3860   -0.3080 C   0  0  0  0  0  0  0  0  0  0  0  0
    5.0320   -1.4470   -0.1010 N   0  0  0  0  0  0  0  0  0  0  0  0
    6.3890   -0.9640   -0.2620 C   0  0  0  0  0  0  0  0  0  0  0  0
    6.8220   -0.0220    0.7980 C   0  0  0  0  0  0  0  0  0  0  0  0
    8.1930    0.4340    0.5870 N   0  0  0  0  0  0  0  0  0  0  0  0
    8.5940    1.1340   -0.5730 C   0  0  0  0  0  0  0  0  0  0  0  0
   10.0180    1.5880   -0.7570 C   0  0  0  0  0  0  0  0  0  0  0  0
    7.7540    1.3930   -1.4850 O   0  0  0  0  0  0  0  0  0  0  0  0
  1  2  1  0
  2  3  1  0
  3  4  2  0
  3 25  1  0
  4  5  1  0
  5  6  1  0
  5 21  2  0
  6  7  1  0
  7  8  1  0
  8  9  2  0
  8 19  1  0
  9 10  1  0
 10 11  2  0
 11 12  1  0
 12 13  1  0
 12 19  2  0
 13 14  2  0
 13 18  1  0
 14 15  1  0
 15 16  2  0
 16 17  1  0
 17 18  2  0
 19 20  1  0
 21 22  1  0
 22 23  1  0
 22 25  2  0
 23 24  1  0
 25 26  1  0
 26 27  1  0
 27 28  1  0
 28 29  1  0
 29 30  1  0
 30 31  1  0
 31 32  1  0
 31 33  2  0
M  END
