
     RDKit          3D

 33 35  0  0  0  0  0  0  0  0999 V2000
   -0.1480    5.1780   -0.0750 C   0  0  0  0  0  0  0  0  0  0  0  0
   -1.0650    4.0110   -0.4030 C   0  0  0  0  0  0  0  0  0  0  0  0
   -0.4160    3.3030   -1.6110 C   0  0  2  0  0  0  0  0  0  0  0  0
   -0.3810    4.2830   -2.6020 O   0  0  0  0  0  0  0  0  0  0  0  0
   -1.2770    2.1410   -2.0490 C   0  0  0  0  0  0  0  0  0  0  0  0
   -1.3500    1.0760   -1.0760 N   0  0  0  0  0  0  0  0  0  0  0  0
   -0.2560    0.2290   -0.8240 C   0  0  0  0  0  0  0  0  0  0  0  0
    0.9060    0.3420   -1.5580 C   0  0  0  0  0  0  0  0  0  0  0  0
    2.0220   -0.4630   -1.3320 C   0  0  0  0  0  0  0  0  0  0  0  0
    1.9150   -1.3960   -0.3230 C   0  0  0  0  0  0  0  0  0  0  0  0
    3.0550   -2.2630   -0.0470 C   0  0  0  0  0  0  0  0  0  0  0  0
    3.0940   -3.3550   -0.6880 O   0  0  0  0  0  0  0  0  0  0  0  0
    4.0650   -1.9320    0.8710 N   0  0  0  0  0  0  0  0  0  0  0  0
    5.1690   -2.8110    1.1150 C   0  0  0  0  0  0  0  0  0  0  0  0
    6.4340   -2.0380    1.2970 C   0  0  0  0  0  0  0  0  0  0  0  0
    6.3320   -0.6100    0.9690 C   0  0  0  0  0  0  0  0  0  0  0  0
    7.4840    0.5050    0.3970 S   0  0  0  0  0  0  0  0  0  0  0  0
    6.3790    1.9690    0.3180 C   0  0  0  0  0  0  0  0  0  0  0  0
    5.2030    1.4190    0.7570 C   0  0  0  0  0  0  0  0  0  0  0  0
    5.1730    0.1270    1.0850 C   0  0  0  0  0  0  0  0  0  0  0  0
    4.0030   -0.6900    1.5880 C   0  0  0  0  0  0  0  0  0  0  0  0
    0.7490   -1.4730    0.3750 C   0  0  0  0  0  0  0  0  0  0  0  0
    0.6540   -2.3300    1.2970 O   0  0  0  0  0  0  0  0  0  0  0  0
   -0.3340   -0.7020    0.1660 N   0  0  0  0  0  0  0  0  0  0  0  0
   -1.5370   -0.8220    0.9270 C   0  0  1  0  0  0  0  0  0  0  0  0
   -1.8750    0.3490    1.7870 C   0  0  0  0  0  0  0  0  0  0  0  0
   -2.6810   -1.3470    0.1270 C   0  0  0  0  0  0  0  0  0  0  0  0
   -2.4520   -1.6700   -1.0630 O   0  0  0  0  0  0  0  0  0  0  0  0
   -3.9910   -1.5010    0.6220 N   0  0  0  0  0  0  0  0  0  0  0  0
   -5.1050   -2.0000   -0.1170 C   0  0  2  0  0  0  0  0  0  0  0  0
   -6.3400   -2.0160    0.7550 C   0  0  0  0  0  0  0  0  0  0  0  0
   -4.8820   -3.4420   -0.5750 C   0  0  0  0  0  0  0  0  0  0  0  0
   -5.4250   -1.2020   -1.3560 C   0  0  0  0  0  0  0  0  0  0  0  0
  1  2  1  0
  2  3  1  0
  3  4  1  6
  3  5  1  0
  5  6  1  0
  6  7  1  0
  7  8  2  0
  7 24  1  0
  8  9  1  0
  9 10  2  0
 10 11  1  0
 10 22  1  0
 11 12  2  0
 11 13  1  0
 13 14  1  0
 13 21  1  0
 14 15  1  0
 15 16  1  0
 16 17  1  0
 16 20  2  0
 17 18  1  0
 18 19  2  0
 19 20  1  0
 20 21  1  0
 22 23  2  0
 22 24  1  0
 24 25  1  0
 25 26  1  6
 25 27  1  0
 27 28  2  0
 27 29  1  0
 29 30  1  0
 30 31  1  1
 30 32  1  0
 30 33  1  0
M  END
