
     RDKit          3D

 33 36  0  0  0  0  0  0  0  0999 V2000
    4.5770    2.5750   -2.8560 C   0  0  0  0  0  0  0  0  0  0  0  0
    4.4740    2.7960   -1.4570 O   0  0  0  0  0  0  0  0  0  0  0  0
    3.7840    1.8160   -0.7450 C   0  0  0  0  0  0  0  0  0  0  0  0
    2.4440    1.8550   -0.5250 C   0  0  0  0  0  0  0  0  0  0  0  0
    1.7670    2.9540   -1.0610 O   0  0  0  0  0  0  0  0  0  0  0  0
    1.7250    0.8780    0.1910 C   0  0  0  0  0  0  0  0  0  0  0  0
    0.2900    1.1200    0.3430 C   0  0  0  0  0  0  0  0  0  0  0  0
   -0.5530    0.1920    0.9240 N   0  0  0  0  0  0  0  0  0  0  0  0
   -0.8470   -0.9130    0.0430 C   0  0  0  0  0  0  0  0  0  0  0  0
   -1.9150   -0.4860   -0.8870 C   0  0  0  0  0  0  0  0  0  0  0  0
   -3.1880   -0.2410   -0.2310 N   0  0  0  0  0  0  0  0  0  0  0  0
   -3.8530   -1.4590    0.1140 C   0  0  0  0  0  0  0  0  0  0  0  0
   -5.2860   -1.4510    0.3250 C   0  0  0  0  0  0  0  0  0  0  0  0
   -6.0080   -2.5920    0.7270 C   0  0  0  0  0  0  0  0  0  0  0  0
   -5.5310   -3.8330    1.0760 O   0  0  0  0  0  0  0  0  0  0  0  0
   -7.3010   -2.2670    0.7170 N   0  0  0  0  0  0  0  0  0  0  0  0
   -7.4680   -1.0250    0.3480 N   0  0  0  0  0  0  0  0  0  0  0  0
   -6.2270   -0.4960    0.0990 C   0  0  0  0  0  0  0  0  0  0  0  0
   -6.1250    0.9410   -0.2930 C   0  0  1  0  0  0  0  0  0  0  0  0
   -7.4190    1.3910   -0.9770 C   0  0  0  0  0  0  0  0  0  0  0  0
   -6.1420    1.8910    1.2990 S   0  0  0  0  0  0  0  0  0  0  0  0
   -3.0070    0.6190    0.9210 C   0  0  0  0  0  0  0  0  0  0  0  0
   -1.7110    0.5890    1.6130 C   0  0  0  0  0  0  0  0  0  0  0  0
    2.4430   -0.1680    0.6920 C   0  0  0  0  0  0  0  0  0  0  0  0
    1.9300   -1.2030    1.4240 O   0  0  0  0  0  0  0  0  0  0  0  0
    3.8440   -0.2420    0.4800 C   0  0  0  0  0  0  0  0  0  0  0  0
    4.5660   -1.2990    0.9820 C   0  0  0  0  0  0  0  0  0  0  0  0
    5.9350   -1.3710    0.7730 C   0  0  0  0  0  0  0  0  0  0  0  0
    6.7640   -2.4880    1.2900 C   0  0  0  0  0  0  0  0  0  0  0  0
    6.5800   -0.3800    0.0600 C   0  0  0  0  0  0  0  0  0  0  0  0
    8.0410   -0.4470   -0.1680 C   0  0  0  0  0  0  0  0  0  0  0  0
    5.8580    0.6920   -0.4500 C   0  0  0  0  0  0  0  0  0  0  0  0
    4.4790    0.7430   -0.2270 C   0  0  0  0  0  0  0  0  0  0  0  0
  1  2  1  0
  2  3  1  0
  3  4  2  0
  3 33  1  0
  4  5  1  0
  4  6  1  0
  6  7  1  0
  6 24  2  0
  7  8  1  0
  8  9  1  0
  8 23  1  0
  9 10  1  0
 10 11  1  0
 11 12  1  0
 11 22  1  0
 12 13  1  0
 13 14  1  0
 13 18  2  0
 14 15  1  0
 14 16  2  0
 16 17  1  0
 17 18  1  0
 18 19  1  0
 19 20  1  6
 19 21  1  0
 22 23  1  0
 24 25  1  0
 24 26  1  0
 26 27  2  0
 26 33  1  0
 27 28  1  0
 28 29  1  0
 28 30  2  0
 30 31  1  0
 30 32  1  0
 32 33  2  0
M  END
