
     RDKit          3D

 29 32  0  0  0  0  0  0  0  0999 V2000
   -5.1850   -2.3040    1.6960 C   0  0  0  0  0  0  0  0  0  0  0  0
   -4.2020   -1.7980    0.6970 C   0  0  0  0  0  0  0  0  0  0  0  0
   -3.9280   -0.3180    0.7830 C   0  0  2  0  0  0  0  0  0  0  0  0
   -5.1280    0.5360    0.5790 C   0  0  0  0  0  0  0  0  0  0  0  0
   -5.4030    0.9240   -0.8420 C   0  0  2  0  0  0  0  0  0  0  0  0
   -5.3520    2.4300   -1.0360 C   0  0  0  0  0  0  0  0  0  0  0  0
   -6.7860    0.4740   -1.2650 C   0  0  0  0  0  0  0  0  0  0  0  0
   -4.4890    0.3750   -1.7640 O   0  0  0  0  0  0  0  0  0  0  0  0
   -3.1580    0.3210   -1.4540 C   0  0  0  0  0  0  0  0  0  0  0  0
   -2.1240    0.5920   -2.3420 C   0  0  0  0  0  0  0  0  0  0  0  0
   -0.8160    0.5040   -1.9120 C   0  0  0  0  0  0  0  0  0  0  0  0
   -0.4760    0.1560   -0.6260 C   0  0  0  0  0  0  0  0  0  0  0  0
    0.9120    0.0850   -0.2450 C   0  0  0  0  0  0  0  0  0  0  0  0
    1.8800    0.9090   -0.8060 C   0  0  0  0  0  0  0  0  0  0  0  0
    3.1970    0.8690   -0.4680 C   0  0  0  0  0  0  0  0  0  0  0  0
    4.1540    1.8020   -1.1330 C   0  0  0  0  0  0  0  0  0  0  0  0
    4.9380    1.0160   -2.1450 C   0  0  0  0  0  0  0  0  0  0  0  0
    5.8650    1.7500   -2.8450 O   0  0  0  0  0  0  0  0  0  0  0  0
    6.8380    2.3400   -2.0720 C   0  0  0  0  0  0  0  0  0  0  0  0
    3.6330   -0.0320    0.4880 C   0  0  0  0  0  0  0  0  0  0  0  0
    4.8410   -0.2720    0.9920 N   0  0  0  0  0  0  0  0  0  0  0  0
    4.7420   -1.2480    1.8950 C   0  0  0  0  0  0  0  0  0  0  0  0
    5.8740   -1.8090    2.6850 C   0  0  0  0  0  0  0  0  0  0  0  0
    3.4270   -1.6440    1.9710 C   0  0  0  0  0  0  0  0  0  0  0  0
    2.8730   -2.7050    2.8540 C   0  0  0  0  0  0  0  0  0  0  0  0
    2.6990   -0.8720    1.0710 C   0  0  0  0  0  0  0  0  0  0  0  0
    1.3680   -0.8130    0.7120 C   0  0  0  0  0  0  0  0  0  0  0  0
   -1.5140   -0.1160    0.2630 C   0  0  0  0  0  0  0  0  0  0  0  0
   -2.8260   -0.0280   -0.1670 C   0  0  0  0  0  0  0  0  0  0  0  0
  1  2  1  0
  3  2  1  6
  3  4  1  0
  3 29  1  0
  4  5  1  0
  5  6  1  1
  5  7  1  0
  5  8  1  0
  8  9  1  0
  9 10  2  0
  9 29  1  0
 10 11  1  0
 11 12  2  0
 12 13  1  0
 12 28  1  0
 13 14  2  0
 13 27  1  0
 14 15  1  0
 15 16  1  0
 15 20  2  0
 16 17  1  0
 17 18  1  0
 18 19  1  0
 20 21  1  0
 20 26  1  0
 21 22  1  0
 22 23  1  0
 22 24  2  0
 24 25  1  0
 24 26  1  0
 26 27  2  0
 28 29  2  0
M  END
