
     RDKit          3D

 33 36  0  0  0  0  0  0  0  0999 V2000
   -5.8140   -3.4700    1.0130 C   0  0  0  0  0  0  0  0  0  0  0  0
   -5.6710   -2.1230    1.4020 O   0  0  0  0  0  0  0  0  0  0  0  0
   -4.9330   -1.2370    0.6340 C   0  0  0  0  0  0  0  0  0  0  0  0
   -4.3130   -1.6260   -0.5290 C   0  0  0  0  0  0  0  0  0  0  0  0
   -3.5730   -0.7220   -1.2910 C   0  0  0  0  0  0  0  0  0  0  0  0
   -2.9460   -1.2450   -2.5050 C   0  0  0  0  0  0  0  0  0  0  0  0
   -3.4250    0.6100   -0.9160 C   0  0  0  0  0  0  0  0  0  0  0  0
   -2.6650    1.5660   -1.7480 C   0  0  2  0  0  0  0  0  0  0  0  0
   -2.3370    2.8020   -0.9300 C   0  0  0  0  0  0  0  0  0  0  0  0
   -1.5290    2.4670    0.2130 N   0  0  0  0  0  0  0  0  0  0  0  0
   -0.2290    1.8640    0.1040 C   0  0  0  0  0  0  0  0  0  0  0  0
    0.1900    1.6420   -1.0380 O   0  0  0  0  0  0  0  0  0  0  0  0
    0.5420    1.5380    1.2350 N   0  0  0  0  0  0  0  0  0  0  0  0
    1.8350    0.9540    1.2100 C   0  0  0  0  0  0  0  0  0  0  0  0
    2.3190    0.4470    2.4340 C   0  0  0  0  0  0  0  0  0  0  0  0
    3.5630   -0.1150    2.4880 C   0  0  0  0  0  0  0  0  0  0  0  0
    4.1310   -0.6720    3.7630 C   0  0  0  0  0  0  0  0  0  0  0  0
    4.3870   -0.2140    1.3850 C   0  0  0  0  0  0  0  0  0  0  0  0
    3.9150    0.2800    0.1960 C   0  0  0  0  0  0  0  0  0  0  0  0
    2.6460    0.8610    0.1110 C   0  0  0  0  0  0  0  0  0  0  0  0
    4.7050    0.2300   -1.0440 C   0  0  0  0  0  0  0  0  0  0  0  0
    5.9100   -0.5240   -0.9570 N   0  0  0  0  0  0  0  0  0  0  0  0
    5.6270   -1.8990   -1.2220 C   0  0  0  0  0  0  0  0  0  0  0  0
    6.9850   -2.6160   -1.2950 C   0  0  0  0  0  0  0  0  0  0  0  0
    7.7750   -1.8000    0.1550 S   0  0  0  0  0  0  0  0  0  0  0  0
    6.5690   -0.4400    0.3320 C   0  0  2  0  0  0  0  0  0  0  0  0
    5.6820   -0.7930    1.4160 N   0  0  0  0  0  0  0  0  0  0  0  0
   -3.4420    1.9360   -2.8550 O   0  0  0  0  0  0  0  0  0  0  0  0
   -2.8430    1.7710   -4.0690 C   0  0  0  0  0  0  0  0  0  0  0  0
   -4.0530    0.9910    0.2550 C   0  0  0  0  0  0  0  0  0  0  0  0
   -4.7900    0.0750    1.0080 C   0  0  0  0  0  0  0  0  0  0  0  0
   -5.4210    0.4740    2.1950 O   0  0  0  0  0  0  0  0  0  0  0  0
   -5.2920    1.8270    2.6080 C   0  0  0  0  0  0  0  0  0  0  0  0
  1  2  1  0
  2  3  1  0
  3  4  2  0
  3 31  1  0
  4  5  1  0
  5  6  1  0
  5  7  2  0
  7  8  1  0
  7 30  1  0
  8  9  1  1
  8 28  1  0
  9 10  1  0
 10 11  1  0
 11 12  2  0
 11 13  1  0
 13 14  1  0
 14 15  2  0
 14 20  1  0
 15 16  1  0
 16 17  1  0
 16 18  2  0
 18 19  1  0
 18 27  1  0
 19 20  2  0
 19 21  1  0
 21 22  1  0
 22 23  1  0
 22 26  1  0
 23 24  1  0
 24 25  1  0
 25 26  1  0
 26 27  1  1
 28 29  1  0
 30 31  2  0
 31 32  1  0
 32 33  1  0
M  END
