
     RDKit          3D

 29 33  0  0  0  0  0  0  0  0999 V2000
   -4.2550    0.5960    2.1370 C   0  0  0  0  0  0  0  0  0  0  0  0
   -3.9380    1.9900    1.6600 C   0  0  0  0  0  0  0  0  0  0  0  0
   -4.1260    2.0570    0.1820 C   0  0  0  0  0  0  0  0  0  0  0  0
   -5.1500    2.6200   -0.5270 C   0  0  0  0  0  0  0  0  0  0  0  0
   -4.8840    2.4360   -1.8560 N   0  0  0  0  0  0  0  0  0  0  0  0
   -3.7480    1.7900   -2.0070 C   0  0  0  0  0  0  0  0  0  0  0  0
   -3.2520    1.5410   -0.7250 C   0  0  0  0  0  0  0  0  0  0  0  0
   -1.9350    0.7930   -0.6570 C   0  0  0  0  0  0  0  0  0  0  0  0
   -1.9980   -0.4180   -1.5400 C   0  0  2  0  0  0  0  0  0  0  0  0
   -0.7280   -1.1740   -1.7030 C   0  0  0  0  0  0  0  0  0  0  0  0
   -0.1360   -1.7250   -0.4670 C   0  0  0  0  0  0  0  0  0  0  0  0
   -0.3880   -3.0700   -0.1320 C   0  0  0  0  0  0  0  0  0  0  0  0
    0.1170   -3.6270    1.0210 C   0  0  0  0  0  0  0  0  0  0  0  0
    0.8880   -2.8600    1.8730 C   0  0  0  0  0  0  0  0  0  0  0  0
    1.1340   -1.5550    1.5500 C   0  0  0  0  0  0  0  0  0  0  0  0
    0.6350   -0.9730    0.3910 C   0  0  0  0  0  0  0  0  0  0  0  0
    0.9160    0.3550    0.1060 O   0  0  0  0  0  0  0  0  0  0  0  0
    1.6760    1.2370    0.8480 C   0  0  0  0  0  0  0  0  0  0  0  0
    3.0740    0.7500    0.9440 C   0  0  0  0  0  0  0  0  0  0  0  0
    3.5970   -0.2510    0.1300 C   0  0  0  0  0  0  0  0  0  0  0  0
    4.9110   -0.4290    0.5080 C   0  0  0  0  0  0  0  0  0  0  0  0
    5.8970   -1.2770    0.0510 C   0  0  0  0  0  0  0  0  0  0  0  0
    7.1640   -1.2580    0.6130 C   0  0  0  0  0  0  0  0  0  0  0  0
    7.3910   -0.3580    1.6450 C   0  0  0  0  0  0  0  0  0  0  0  0
    6.4010    0.4880    2.0990 C   0  0  0  0  0  0  0  0  0  0  0  0
    5.1280    0.4620    1.5260 C   0  0  0  0  0  0  0  0  0  0  0  0
    4.0260    1.1460    1.7630 O   0  0  0  0  0  0  0  0  0  0  0  0
   -2.6460   -0.1740   -2.8810 C   0  0  0  0  0  0  0  0  0  0  0  0
   -2.9260    1.2970   -3.1130 C   0  0  0  0  0  0  0  0  0  0  0  0
  1  2  1  0
  2  3  1  0
  3  4  2  0
  3  7  1  0
  4  5  1  0
  5  6  1  0
  6  7  2  0
  6 29  1  0
  7  8  1  0
  8  9  1  0
  9 10  1  6
  9 28  1  0
 10 11  1  0
 11 12  2  0
 11 16  1  0
 12 13  1  0
 13 14  2  0
 14 15  1  0
 15 16  2  0
 16 17  1  0
 17 18  1  0
 18 19  1  0
 19 20  2  0
 19 27  1  0
 20 21  1  0
 21 22  2  0
 21 26  1  0
 22 23  1  0
 23 24  2  0
 24 25  1  0
 25 26  2  0
 26 27  1  0
 28 29  1  0
M  END
