
     RDKit          3D

 29 33  0  0  0  0  0  0  0  0999 V2000
   -1.2750   -0.6970   -1.2640 C   0  0  0  0  0  0  0  0  0  0  0  0
   -0.5920    0.5200   -0.7560 C   0  0  0  0  0  0  0  0  0  0  0  0
    0.7940    0.4050   -0.5520 C   0  0  0  0  0  0  0  0  0  0  0  0
    1.5860    1.4430   -0.1420 C   0  0  0  0  0  0  0  0  0  0  0  0
    3.0010    1.2820    0.0700 C   0  0  0  0  0  0  0  0  0  0  0  0
    3.6630    0.1600   -0.0930 C   0  0  0  0  0  0  0  0  0  0  0  0
    5.1010    0.0220    0.1290 C   0  0  0  0  0  0  0  0  0  0  0  0
    5.9870    0.9850    0.5300 C   0  0  0  0  0  0  0  0  0  0  0  0
    7.2230    0.3630    0.5950 C   0  0  0  0  0  0  0  0  0  0  0  0
    7.0220   -0.9470    0.2300 C   0  0  0  0  0  0  0  0  0  0  0  0
    8.0340   -2.0290    0.1410 C   0  0  1  0  0  0  0  0  0  0  0  0
    9.4430   -1.6680   -0.1880 C   0  0  0  0  0  0  0  0  0  0  0  0
    9.0770   -2.0930    1.2410 C   0  0  0  0  0  0  0  0  0  0  0  0
    5.7550   -1.1060   -0.0370 O   0  0  0  0  0  0  0  0  0  0  0  0
    0.9670    2.6590    0.0770 C   0  0  0  0  0  0  0  0  0  0  0  0
   -0.4050    2.7910   -0.1180 C   0  0  0  0  0  0  0  0  0  0  0  0
   -1.1790    1.7290   -0.5300 C   0  0  0  0  0  0  0  0  0  0  0  0
   -2.6420    1.9220   -0.6180 C   0  0  0  0  0  0  0  0  0  0  0  0
   -3.1130    3.0060   -1.0210 O   0  0  0  0  0  0  0  0  0  0  0  0
   -3.5270    0.8870   -0.2400 N   0  0  0  0  0  0  0  0  0  0  0  0
   -4.9330    0.9410   -0.2870 C   0  0  0  0  0  0  0  0  0  0  0  0
   -5.6900    1.9980   -0.6520 C   0  0  0  0  0  0  0  0  0  0  0  0
   -7.0970    1.9970   -0.6700 C   0  0  0  0  0  0  0  0  0  0  0  0
   -7.7360    0.8480   -0.2940 C   0  0  0  0  0  0  0  0  0  0  0  0
   -7.0130   -0.2650    0.0900 C   0  0  0  0  0  0  0  0  0  0  0  0
   -5.6350   -0.2180    0.0920 C   0  0  0  0  0  0  0  0  0  0  0  0
   -5.1090   -1.5450    0.5410 C   0  0  0  0  0  0  0  0  0  0  0  0
   -6.2520   -2.4880    0.3160 C   0  0  0  0  0  0  0  0  0  0  0  0
   -7.4650   -1.5990    0.5300 C   0  0  0  0  0  0  0  0  0  0  0  0
  1  2  1  0
  2  3  2  0
  2 17  1  0
  3  4  1  0
  4  5  1  0
  4 15  2  0
  5  6  2  3
  6  7  1  0
  7  8  2  0
  7 14  1  0
  8  9  1  0
  9 10  2  0
 11 10  1  1
 10 14  1  0
 11 12  1  0
 11 13  1  0
 12 13  1  0
 15 16  1  0
 16 17  2  0
 17 18  1  0
 18 19  2  0
 18 20  1  0
 20 21  1  0
 21 22  2  0
 21 26  1  0
 22 23  1  0
 23 24  2  0
 24 25  1  0
 25 26  2  0
 25 29  1  0
 26 27  1  0
 27 28  1  0
 28 29  1  0
M  END
