
     RDKit          3D

 24 24  0  0  0  0  0  0  0  0999 V2000
    5.2030   -0.5200   -2.7020 C   0  0  0  0  0  0  0  0  0  0  0  0
    4.1830   -0.2200   -1.6210 C   0  0  0  0  0  0  0  0  0  0  0  0
    3.9610   -1.3640   -0.8840 O   0  0  0  0  0  0  0  0  0  0  0  0
    2.8370   -1.2070    0.3800 P   0  0  0  0  0  0  0  0  0  0  0  0
    1.3510   -0.1810   -0.0890 C   0  0  0  0  0  0  0  0  0  0  0  0
    0.1210   -0.9560    0.1020 C   0  0  0  0  0  0  0  0  0  0  0  0
    0.1890   -2.0820    0.5380 O   0  0  0  0  0  0  0  0  0  0  0  0
   -1.2330   -0.3910   -0.2270 C   0  0  1  0  0  0  0  0  0  0  0  0
   -1.5320    0.9490    0.8370 S   0  0  2  0  0  0  0  0  0  0  0  0
   -0.4980    2.0540    0.5910 O   0  0  0  0  0  0  0  0  0  0  0  0
   -1.3060    0.5820    2.3000 O   0  0  0  0  0  0  0  0  0  0  0  0
   -3.0890    1.7330    0.6180 C   0  0  0  0  0  0  0  0  0  0  0  0
   -3.1660    2.9180    1.6120 C   0  0  0  0  0  0  0  0  0  0  0  0
   -4.7940    3.7920    1.4300 P   0  0  0  0  0  0  0  0  0  0  0  0
   -4.9610    5.1740    0.7890 O   0  0  0  0  0  0  0  0  0  0  0  0
   -1.2180    0.0770   -1.6890 C   0  0  0  0  0  0  0  0  0  0  0  0
   -1.4180   -1.1750   -2.4910 C   0  0  0  0  0  0  0  0  0  0  0  0
   -1.7890   -2.2720   -1.5300 C   0  0  0  0  0  0  0  0  0  0  0  0
   -2.2510   -1.4670   -0.3000 C   0  0  1  0  0  0  0  0  0  0  0  0
   -2.2680   -2.3600    0.9230 C   0  0  0  0  0  0  0  0  0  0  0  0
   -3.6200   -1.0050   -0.6070 C   0  0  0  0  0  0  0  0  0  0  0  0
    3.6120   -0.6620    1.8040 O   0  0  0  0  0  0  0  0  0  0  0  0
    3.1970    0.6120    2.1200 C   0  0  0  0  0  0  0  0  0  0  0  0
    3.9030    1.0720    3.3880 C   0  0  0  0  0  0  0  0  0  0  0  0
  1  2  1  0
  2  3  1  0
  3  4  1  0
  4  5  1  0
  4 22  1  0
  5  6  1  0
  6  7  2  0
  8  6  1  1
  8  9  1  0
  8 16  1  0
  8 19  1  0
  9 10  2  0
  9 11  2  0
  9 12  1  1
 12 13  1  0
 13 14  1  0
 14 15  2  0
 16 17  1  0
 17 18  1  0
 18 19  1  0
 19 20  1  1
 19 21  1  0
 22 23  1  0
 23 24  1  0
M  END
