
     RDKit          3D

 24 24  0  0  0  0  0  0  0  0999 V2000
    5.8760   -2.2340    1.2460 C   0  0  0  0  0  0  0  0  0  0  0  0
    4.4150   -1.8520    1.0400 C   0  0  0  0  0  0  0  0  0  0  0  0
    4.3010   -0.5250    1.4130 O   0  0  0  0  0  0  0  0  0  0  0  0
    2.8940    0.2470    0.7910 P   0  0  0  0  0  0  0  0  0  0  0  0
    2.7360    0.0220   -1.0570 C   0  0  0  0  0  0  0  0  0  0  0  0
    0.9430    0.0840   -1.5770 P   0  0  0  0  0  0  0  0  0  0  0  0
    0.4640   -1.3430   -2.4100 O   0  0  0  0  0  0  0  0  0  0  0  0
    1.1180   -2.4820   -1.9820 C   0  0  0  0  0  0  0  0  0  0  0  0
    1.9710   -3.0670   -3.0800 C   0  0  0  0  0  0  0  0  0  0  0  0
    0.0010    0.4020   -0.1720 O   0  0  0  0  0  0  0  0  0  0  0  0
   -1.2320   -0.2700   -0.1880 C   0  0  0  0  0  0  0  0  0  0  0  0
   -2.2660    0.7510    0.1740 C   0  0  1  0  0  0  0  0  0  0  0  0
   -2.3000    1.8420   -0.8850 C   0  0  0  0  0  0  0  0  0  0  0  0
   -3.6470    2.2230   -0.9780 O   0  0  0  0  0  0  0  0  0  0  0  0
   -4.1530    2.4040    0.3270 C   0  0  0  0  0  0  0  0  0  0  0  0
   -4.6330    1.1450    1.1980 S   0  0  0  0  0  0  0  0  0  0  0  0
   -5.8990    0.1780    1.1330 C   0  0  0  0  0  0  0  0  0  0  0  0
   -3.4610    0.7400    2.5630 O   0  0  0  0  0  0  0  0  0  0  0  0
   -3.6500    0.1430    0.3840 C   0  0  1  0  0  0  0  0  0  0  0  0
   -4.2050   -0.1050   -1.0210 C   0  0  0  0  0  0  0  0  0  0  0  0
   -3.4050   -1.2670    0.9200 C   0  0  0  0  0  0  0  0  0  0  0  0
    3.0340    1.9520    1.1370 O   0  0  0  0  0  0  0  0  0  0  0  0
    4.3990    2.2640    1.2020 C   0  0  0  0  0  0  0  0  0  0  0  0
    4.6660    3.7190    0.9200 C   0  0  0  0  0  0  0  0  0  0  0  0
  1  2  1  0
  2  3  1  0
  3  4  1  0
  4  5  1  0
  4 22  1  0
  5  6  1  0
  6  7  1  0
  6 10  1  0
  7  8  1  0
  8  9  1  0
 10 11  1  0
 12 11  1  6
 12 13  1  0
 12 19  1  0
 13 14  1  0
 14 15  1  0
 15 16  1  0
 16 17  1  0
 16 18  2  0
 16 19  1  0
 19 20  1  6
 19 21  1  0
 22 23  1  0
 23 24  1  0
M  END
