
     RDKit          3D

 24 24  0  0  0  0  0  0  0  0999 V2000
   -6.8340    3.4530    0.8620 C   0  0  0  0  0  0  0  0  0  0  0  0
   -5.8640    2.3850    1.1610 C   0  0  0  0  0  0  0  0  0  0  0  0
   -5.1800    1.8710    0.0510 O   0  0  0  0  0  0  0  0  0  0  0  0
   -4.3210    0.4230    0.7970 P   0  0  0  0  0  0  0  0  0  0  0  0
   -2.6610    0.2300    0.1490 C   0  0  0  0  0  0  0  0  0  0  0  0
   -2.1390   -1.1610    0.1210 C   0  0  0  0  0  0  0  0  0  0  0  0
   -0.6700   -1.2340   -0.2820 C   0  0  0  0  0  0  0  0  0  0  0  0
    0.1480   -0.4060    0.6730 C   0  0  0  0  0  0  0  0  0  0  0  0
    1.6090   -0.7690    0.4480 C   0  0  0  0  0  0  0  0  0  0  0  0
    2.1780   -1.4050    1.3570 O   0  0  0  0  0  0  0  0  0  0  0  0
    2.2910   -0.4500   -0.6730 O   0  0  0  0  0  0  0  0  0  0  0  0
    3.4830   -0.6180   -1.2790 C   0  0  0  0  0  0  0  0  0  0  0  0
    4.7440   -0.1700   -0.5250 C   0  0  2  0  0  0  0  0  0  0  0  0
    5.1000   -0.8220    0.7500 C   0  0  0  0  0  0  0  0  0  0  0  0
    5.3270   -2.2770    0.5870 C   0  0  0  0  0  0  0  0  0  0  0  0
    4.4260    1.3160   -0.2740 C   0  0  0  0  0  0  0  0  0  0  0  0
    5.5470    1.8690    0.5250 C   0  0  0  0  0  0  0  0  0  0  0  0
    7.0220    1.6250   -0.5760 P   0  0  0  0  0  0  0  0  0  0  0  0
    6.1610   -0.0740   -1.5990 S   0  0  1  0  0  0  0  0  0  0  0  0
    7.0680   -1.2710   -1.4940 O   0  0  0  0  0  0  0  0  0  0  0  0
    5.8360    0.2560   -3.0230 O   0  0  0  0  0  0  0  0  0  0  0  0
   -5.4980   -0.7890    0.7890 O   0  0  0  0  0  0  0  0  0  0  0  0
   -5.5700   -1.6040   -0.2790 C   0  0  0  0  0  0  0  0  0  0  0  0
   -6.9970   -1.4740   -0.9210 C   0  0  0  0  0  0  0  0  0  0  0  0
  1  2  1  0
  2  3  1  0
  3  4  1  0
  4  5  1  0
  4 22  1  0
  5  6  1  0
  6  7  1  0
  7  8  1  0
  8  9  1  0
  9 10  2  0
  9 11  1  0
 11 12  1  0
 13 12  1  6
 13 14  1  0
 13 16  1  0
 13 19  1  0
 14 15  1  0
 16 17  1  0
 17 18  1  0
 19 18  1  1
 19 20  2  0
 19 21  2  0
 22 23  1  0
 23 24  1  0
M  END
