
     RDKit          3D

 24 23  0  0  0  0  0  0  0  0999 V2000
    5.4540   -0.7670   -2.5120 C   0  0  0  0  0  0  0  0  0  0  0  0
    4.3550   -0.8650   -1.4620 C   0  0  0  0  0  0  0  0  0  0  0  0
    4.4110    0.2950   -0.7080 O   0  0  0  0  0  0  0  0  0  0  0  0
    3.2270    0.3410    0.5290 P   0  0  0  0  0  0  0  0  0  0  0  0
    3.9480   -0.0260    2.0640 O   0  0  0  0  0  0  0  0  0  0  0  0
    4.8110   -1.1150    1.9190 C   0  0  0  0  0  0  0  0  0  0  0  0
    5.4670   -1.4780    3.2280 C   0  0  0  0  0  0  0  0  0  0  0  0
    2.2640    2.2810    0.6530 P   0  0  0  0  0  0  0  0  0  0  0  0
    0.4490    2.2340    0.4710 C   0  0  0  0  0  0  0  0  0  0  0  0
   -0.0600    1.8110   -0.8590 C   0  0  0  0  0  0  0  0  0  0  0  0
    0.3100    0.4360   -1.3000 C   0  0  0  0  0  0  0  0  0  0  0  0
   -0.1920   -0.6490   -0.4030 C   0  0  0  0  0  0  0  0  0  0  0  0
   -1.5950   -0.6800   -0.2830 O   0  0  0  0  0  0  0  0  0  0  0  0
   -2.4250   -0.8920   -1.3640 C   0  0  0  0  0  0  0  0  0  0  0  0
   -1.9600   -1.0700   -2.5110 O   0  0  0  0  0  0  0  0  0  0  0  0
   -4.1950   -0.9230   -1.1830 S   0  0  0  0  0  0  0  0  0  0  0  0
   -4.5960   -0.6490    0.5240 C   0  0  0  0  0  0  0  0  0  0  0  0
   -3.7120   -0.4810    1.3400 O   0  0  0  0  0  0  0  0  0  0  0  0
   -6.0130   -0.6190    0.9890 C   0  0  2  0  0  0  0  0  0  0  0  0
   -6.6220   -1.9800    0.6540 C   0  0  0  0  0  0  0  0  0  0  0  0
   -6.7850    0.4450    0.2390 C   0  0  0  0  0  0  0  0  0  0  0  0
   -6.0800   -0.4400    2.4810 C   0  0  0  0  0  0  0  0  0  0  0  0
    3.0280    3.4950   -0.2980 O   0  0  0  0  0  0  0  0  0  0  0  0
    3.2850    3.0890   -1.5930 C   0  0  0  0  0  0  0  0  0  0  0  0
  1  2  1  0
  2  3  1  0
  3  4  1  0
  4  5  1  0
  4  8  1  0
  5  6  1  0
  6  7  1  0
  8  9  1  0
  8 23  1  0
  9 10  1  0
 10 11  1  0
 11 12  1  0
 12 13  1  0
 13 14  1  0
 14 15  2  0
 14 16  1  0
 16 17  1  0
 17 18  2  0
 17 19  1  0
 19 20  1  1
 19 21  1  0
 19 22  1  0
 23 24  1  0
M  END
