
     RDKit          3D

 23 23  0  0  0  0  0  0  0  0999 V2000
   -7.5400    0.2290    0.1600 C   0  0  0  0  0  0  0  0  0  0  0  0
   -6.1910    0.5530    0.7750 C   0  0  0  0  0  0  0  0  0  0  0  0
   -5.4170   -0.7440    0.8740 C   0  0  0  0  0  0  0  0  0  0  0  0
   -5.2480   -1.3260   -0.5130 C   0  0  0  0  0  0  0  0  0  0  0  0
   -4.3420   -0.1160   -1.5100 S   0  0  0  0  0  0  0  0  0  0  0  0
   -2.6930    0.0260   -0.8420 C   0  0  0  0  0  0  0  0  0  0  0  0
   -2.4000    0.9430    0.1450 C   0  0  0  0  0  0  0  0  0  0  0  0
   -1.1160    1.0290    0.6390 C   0  0  0  0  0  0  0  0  0  0  0  0
   -0.0970    0.2010    0.1570 C   0  0  0  0  0  0  0  0  0  0  0  0
    1.1970    0.2810    0.6470 O   0  0  0  0  0  0  0  0  0  0  0  0
    1.4600    1.2330    1.6590 C   0  0  0  0  0  0  0  0  0  0  0  0
   -0.3950   -0.7140   -0.8300 C   0  0  0  0  0  0  0  0  0  0  0  0
    0.5950   -1.5440   -1.3240 O   0  0  0  0  0  0  0  0  0  0  0  0
    2.2500   -1.5780   -0.8330 P   0  0  0  0  0  0  0  0  0  0  0  0
    2.3480   -2.0730    0.8250 O   0  0  0  0  0  0  0  0  0  0  0  0
    3.0680   -0.1060   -1.1530 O   0  0  0  0  0  0  0  0  0  0  0  0
    4.7800   -0.4350   -1.1920 P   0  0  0  0  0  0  0  0  0  0  0  0
    5.1420   -1.3480    0.2600 O   0  0  0  0  0  0  0  0  0  0  0  0
    5.4520   -2.6580   -0.1430 C   0  0  0  0  0  0  0  0  0  0  0  0
    5.7190    1.0040   -1.1930 O   0  0  0  0  0  0  0  0  0  0  0  0
    5.9160    1.5180    0.0760 C   0  0  0  0  0  0  0  0  0  0  0  0
    6.7500    2.7750   -0.0450 C   0  0  0  0  0  0  0  0  0  0  0  0
   -1.6970   -0.7950   -1.3250 C   0  0  0  0  0  0  0  0  0  0  0  0
  1  2  1  0
  2  3  1  0
  3  4  1  0
  4  5  1  0
  5  6  1  0
  6  7  2  0
  6 23  1  0
  7  8  1  0
  8  9  2  0
  9 10  1  0
  9 12  1  0
 10 11  1  0
 12 13  1  0
 12 23  2  0
 13 14  1  0
 14 15  1  0
 14 16  1  0
 16 17  1  0
 17 18  1  0
 17 20  1  0
 18 19  1  0
 20 21  1  0
 21 22  1  0
M  END
