
     RDKit          3D

 24 23  0  0  0  0  0  0  0  0999 V2000
    5.1520   -2.2240   -2.4150 C   0  0  0  0  0  0  0  0  0  0  0  0
    4.1360   -1.7870   -1.3840 C   0  0  0  0  0  0  0  0  0  0  0  0
    4.7010   -1.6840   -0.1140 O   0  0  0  0  0  0  0  0  0  0  0  0
    3.4560   -1.1820    0.9770 P   0  0  0  0  0  0  0  0  0  0  0  0
    2.0820   -0.3790    0.0110 C   0  0  0  0  0  0  0  0  0  0  0  0
    0.8000   -0.4870    0.8060 C   0  0  0  0  0  0  0  0  0  0  0  0
   -0.3610    0.1440    0.0650 C   0  0  2  0  0  0  0  0  0  0  0  0
   -0.1090    1.5850   -0.1910 C   0  0  0  0  0  0  0  0  0  0  0  0
    0.0960    2.3530    0.9330 O   0  0  0  0  0  0  0  0  0  0  0  0
   -1.8620   -0.2440    0.8890 S   0  0  1  0  0  0  0  0  0  0  0  0
   -1.9080   -1.7790    0.9810 O   0  0  0  0  0  0  0  0  0  0  0  0
   -1.8430    0.2090    2.3150 O   0  0  0  0  0  0  0  0  0  0  0  0
   -3.2950    0.2070    0.0130 C   0  0  0  0  0  0  0  0  0  0  0  0
   -3.8480    1.3750    0.1930 C   0  0  0  0  0  0  0  0  0  0  0  0
   -3.4190    2.4640    1.0920 C   0  0  0  0  0  0  0  0  0  0  0  0
   -4.7830    2.8460    2.3270 P   0  0  0  0  0  0  0  0  0  0  0  0
   -5.0050    1.8900    3.5280 O   0  0  0  0  0  0  0  0  0  0  0  0
   -3.8990   -0.7490   -0.9460 C   0  0  2  0  0  0  0  0  0  0  0  0
   -2.9430   -1.1140   -2.0610 C   0  0  0  0  0  0  0  0  0  0  0  0
   -5.1360   -0.1710   -1.5550 C   0  0  0  0  0  0  0  0  0  0  0  0
   -4.3020   -2.0450   -0.2670 C   0  0  0  0  0  0  0  0  0  0  0  0
    4.0330   -0.0150    2.1190 O   0  0  0  0  0  0  0  0  0  0  0  0
    4.9290    0.8800    1.5360 C   0  0  0  0  0  0  0  0  0  0  0  0
    5.3860    1.8570    2.5780 C   0  0  0  0  0  0  0  0  0  0  0  0
  1  2  1  0
  2  3  1  0
  3  4  1  0
  4  5  1  0
  4 22  1  0
  5  6  1  0
  7  6  1  1
  7  8  1  0
  7 10  1  0
  8  9  1  0
 10 11  2  0
 10 12  2  0
 10 13  1  6
 13 14  2  3
 13 18  1  0
 14 15  1  0
 15 16  1  0
 16 17  2  0
 18 19  1  6
 18 20  1  0
 18 21  1  0
 22 23  1  0
 23 24  1  0
M  END
