
     RDKit          3D

 31 31  0  0  0  0  0  0  0  0999 V2000
   -5.2010   -4.1860   -2.5510 C   0  0  0  0  0  0  0  0  0  0  0  0
   -4.3050   -3.3980   -1.6340 C   0  0  0  0  0  0  0  0  0  0  0  0
   -3.2750   -2.7080   -2.4930 C   0  0  0  0  0  0  0  0  0  0  0  0
   -2.3210   -1.9180   -1.7640 N   0  0  0  0  0  0  0  0  0  0  0  0
   -1.0380   -2.4250   -1.4110 C   0  0  0  0  0  0  0  0  0  0  0  0
   -0.8170   -2.1780    0.0930 C   0  0  0  0  0  0  0  0  0  0  0  0
   -0.9440   -0.7820    0.4780 C   0  0  1  0  0  0  0  0  0  0  0  0
   -1.3630   -0.8800    2.0020 C   0  0  0  0  0  0  0  0  0  0  0  0
    0.2420    0.0110    0.4750 O   0  0  0  0  0  0  0  0  0  0  0  0
    1.3720   -0.1620    1.2740 C   0  0  0  0  0  0  0  0  0  0  0  0
    1.2930   -1.1990    2.0670 O   0  0  0  0  0  0  0  0  0  0  0  0
    2.5160    0.6130    1.3470 N   0  0  0  0  0  0  0  0  0  0  0  0
    3.3160    0.4290    2.5900 C   0  0  0  0  0  0  0  0  0  0  0  0
    3.2220    1.3770    0.2940 C   0  0  0  0  0  0  0  0  0  0  0  0
    4.5520    0.2740   -0.2180 P   0  0  0  0  0  0  0  0  0  0  0  0
    5.5640    0.5390   -1.5270 O   0  0  0  0  0  0  0  0  0  0  0  0
    5.4700   -0.6770   -2.3040 C   0  0  0  0  0  0  0  0  0  0  0  0
    6.8170   -1.3500   -2.1800 C   0  0  0  0  0  0  0  0  0  0  0  0
    5.6560    0.1100    1.2100 O   0  0  0  0  0  0  0  0  0  0  0  0
    6.3300    1.3630    1.2950 C   0  0  0  0  0  0  0  0  0  0  0  0
    7.3040    1.2700    2.4390 C   0  0  0  0  0  0  0  0  0  0  0  0
   -2.0550    0.0050   -0.1570 C   0  0  1  0  0  0  0  0  0  0  0  0
   -3.2820   -0.0500    0.7980 C   0  0  0  0  0  0  0  0  0  0  0  0
   -1.6980    1.4290   -0.2960 C   0  0  0  0  0  0  0  0  0  0  0  0
   -2.6940    2.3960   -0.8510 C   0  0  0  0  0  0  0  0  0  0  0  0
   -3.9840    2.5200   -0.1660 C   0  0  0  0  0  0  0  0  0  0  0  0
   -4.2400    3.4680    0.6840 C   0  0  0  0  0  0  0  0  0  0  0  0
   -5.5480    3.5830    1.3490 C   0  0  0  0  0  0  0  0  0  0  0  0
   -3.2630    4.4230    1.0590 N   0  0  0  0  0  0  0  0  0  0  0  0
   -2.5990   -0.5660   -1.4240 C   0  0  0  0  0  0  0  0  0  0  0  0
   -3.2880    0.1510   -2.1500 O   0  0  0  0  0  0  0  0  0  0  0  0
  1  2  1  0
  2  3  1  0
  3  4  1  0
  4  5  1  0
  4 30  1  0
  5  6  1  0
  6  7  1  0
  7  8  1  1
  7  9  1  0
  7 22  1  0
  9 10  1  0
 10 11  2  0
 10 12  1  0
 12 13  1  0
 12 14  1  0
 14 15  1  0
 15 16  1  0
 15 19  1  0
 16 17  1  0
 17 18  1  0
 19 20  1  0
 20 21  1  0
 22 23  1  1
 22 24  1  0
 22 30  1  0
 24 25  1  0
 25 26  1  0
 26 27  2  3
 27 28  1  0
 27 29  1  0
 30 31  2  0
M  END
