
     RDKit          3D

 29 31  0  0  0  0  0  0  0  0999 V2000
    7.6620    0.6360    3.1300 O   0  0  0  0  0  0  0  0  0  0  0  0
    6.8810    0.9390    2.3080 C   0  0  0  0  0  0  0  0  0  0  0  0
    6.4990    0.0920    1.1470 C   0  0  0  0  0  0  0  0  0  0  0  0
    5.5800    0.8110    0.3430 O   0  0  0  0  0  0  0  0  0  0  0  0
    4.1210    1.0900    1.0850 P   0  0  0  0  0  0  0  0  0  0  0  0
    2.6260    0.8490    0.8210 N   0  0  0  0  0  0  0  0  0  0  0  0
    2.0040    0.2160   -0.2990 C   0  0  0  0  0  0  0  0  0  0  0  0
    0.6830    0.3180   -0.6110 C   0  0  0  0  0  0  0  0  0  0  0  0
   -0.0380    1.0900    0.2410 O   0  0  0  0  0  0  0  0  0  0  0  0
   -0.7720    1.1320    1.3180 N   0  0  0  0  0  0  0  0  0  0  0  0
   -0.6590    0.1420    2.3590 C   0  0  0  0  0  0  0  0  0  0  0  0
   -2.0410   -0.5740    2.4570 C   0  0  0  0  0  0  0  0  0  0  0  0
   -2.8520    0.0860    1.3250 C   0  0  1  0  0  0  0  0  0  0  0  0
   -3.9840   -0.6150    0.7590 C   0  0  0  0  0  0  0  0  0  0  0  0
   -4.3090   -0.0410   -0.6300 C   0  0  0  0  0  0  0  0  0  0  0  0
   -3.0300    0.4400   -1.1880 C   0  0  0  0  0  0  0  0  0  0  0  0
   -2.9290    0.9570   -2.5050 O   0  0  0  0  0  0  0  0  0  0  0  0
   -1.6030    0.8360   -3.0210 C   0  0  0  0  0  0  0  0  0  0  0  0
   -1.2900    1.8430   -3.7900 O   0  0  0  0  0  0  0  0  0  0  0  0
   -0.6520   -0.2140   -2.7810 C   0  0  0  0  0  0  0  0  0  0  0  0
   -0.6040   -1.2080   -3.9180 N   0  0  0  0  0  0  0  0  0  0  0  0
   -1.2040   -2.3500   -3.9650 F   0  0  0  0  0  0  0  0  0  0  0  0
    0.2540   -0.4270   -1.8200 C   0  0  0  0  0  0  0  0  0  0  0  0
    0.9780   -1.7510   -1.9860 C   0  0  0  0  0  0  0  0  0  0  0  0
    2.4440   -1.3880   -2.1290 C   0  0  0  0  0  0  0  0  0  0  0  0
    3.1540   -1.7130   -3.0790 O   0  0  0  0  0  0  0  0  0  0  0  0
    2.9090   -0.6080   -1.0160 N   0  0  0  0  0  0  0  0  0  0  0  0
   -3.0160    1.5120    1.7730 C   0  0  0  0  0  0  0  0  0  0  0  0
   -1.6360    2.1980    1.6370 C   0  0  0  0  0  0  0  0  0  0  0  0
  1  2  2  0
  2  3  1  0
  3  4  1  0
  4  5  1  0
  5  6  2  3
  6  7  1  0
  7  8  2  0
  7 27  1  0
  8  9  1  0
  8 23  1  0
  9 10  1  0
 10 11  1  0
 10 29  1  0
 11 12  1  0
 12 13  1  0
 13 14  1  1
 13 28  1  0
 14 15  1  0
 15 16  1  0
 16 17  1  0
 17 18  1  0
 18 19  2  0
 18 20  1  0
 20 21  1  0
 20 23  2  0
 21 22  1  0
 23 24  1  0
 24 25  1  0
 25 26  2  0
 25 27  1  0
 28 29  1  0
M  END
