
     RDKit          3D

 29 29  0  0  0  0  0  0  0  0999 V2000
   -0.8380    1.5280   -1.7190 C   0  0  0  0  0  0  0  0  0  0  0  0
   -1.6500    1.7600   -0.4680 C   0  0  2  0  0  0  0  0  0  0  0  0
   -1.4810    3.2480   -0.1320 C   0  0  0  0  0  0  0  0  0  0  0  0
   -1.2280    0.9130    0.6800 C   0  0  0  0  0  0  0  0  0  0  0  0
   -1.3080   -0.5550    0.4900 C   0  0  2  0  0  0  0  0  0  0  0  0
   -0.5430   -1.1420   -0.5270 N   0  0  0  0  0  0  0  0  0  0  0  0
    1.1170   -1.1220   -0.5200 P   0  0  0  0  0  0  0  0  0  0  0  0
    1.2890   -2.6650   -0.6840 O   0  0  0  0  0  0  0  0  0  0  0  0
    1.9570   -1.4220    0.9580 O   0  0  0  0  0  0  0  0  0  0  0  0
    2.0800   -0.6750   -1.8930 C   0  0  0  0  0  0  0  0  0  0  0  0
    3.4830   -0.7160   -1.5300 N   0  0  0  0  0  0  0  0  0  0  0  0
    4.0060    0.1020   -0.5070 C   0  0  0  0  0  0  0  0  0  0  0  0
    3.3060    0.8960    0.1350 O   0  0  0  0  0  0  0  0  0  0  0  0
    5.3540    0.0310   -0.1910 O   0  0  0  0  0  0  0  0  0  0  0  0
    5.9560    0.8190    0.8240 C   0  0  0  0  0  0  0  0  0  0  0  0
    7.3830    0.4720    0.8690 C   0  0  0  0  0  0  0  0  0  0  0  0
    8.2790    1.1580    0.0970 C   0  0  0  0  0  0  0  0  0  0  0  0
    9.6270    0.8300    0.1390 C   0  0  0  0  0  0  0  0  0  0  0  0
   10.0720   -0.1760    0.9480 C   0  0  0  0  0  0  0  0  0  0  0  0
    9.1790   -0.8770    1.7320 C   0  0  0  0  0  0  0  0  0  0  0  0
    7.8190   -0.5380    1.6820 C   0  0  0  0  0  0  0  0  0  0  0  0
   -2.7300   -0.9610    0.3250 C   0  0  0  0  0  0  0  0  0  0  0  0
   -3.0630   -1.7160   -0.6490 O   0  0  0  0  0  0  0  0  0  0  0  0
   -3.7390   -0.5460    1.2060 N   0  0  0  0  0  0  0  0  0  0  0  0
   -5.1350   -0.9260    1.0660 C   0  0  0  0  0  0  0  0  0  0  0  0
   -5.7240   -0.4750   -0.2260 C   0  0  0  0  0  0  0  0  0  0  0  0
   -7.1590   -0.9130   -0.3240 C   0  0  0  0  0  0  0  0  0  0  0  0
   -7.9730   -0.3220    0.8000 C   0  0  0  0  0  0  0  0  0  0  0  0
   -9.3690   -0.7380    0.6810 N   0  0  0  0  0  0  0  0  0  0  0  0
  2  1  1  6
  2  3  1  0
  2  4  1  0
  5  4  1  6
  5  6  1  0
  5 22  1  0
  6  7  1  0
  7  8  1  0
  7  9  1  0
  7 10  1  0
 10 11  1  0
 11 12  1  0
 12 13  2  0
 12 14  1  0
 14 15  1  0
 15 16  1  0
 16 17  2  0
 16 21  1  0
 17 18  1  0
 18 19  2  0
 19 20  1  0
 20 21  2  0
 22 23  2  0
 22 24  1  0
 24 25  1  0
 25 26  1  0
 26 27  1  0
 27 28  1  0
 28 29  1  0
M  CHG  1  29   1
M  END
