
     RDKit          3D

 31 31  0  0  0  0  0  0  0  0999 V2000
   -0.1460    1.2110   -3.5040 C   0  0  0  0  0  0  0  0  0  0  0  0
   -1.1300    0.5590   -2.5940 C   0  0  0  0  0  0  0  0  0  0  0  0
   -0.4630    0.4560   -1.1930 C   0  0  2  0  0  0  0  0  0  0  0  0
    0.7480   -0.3820   -1.4500 C   0  0  0  0  0  0  0  0  0  0  0  0
    1.6500   -0.7320   -0.4550 N   0  0  0  0  0  0  0  0  0  0  0  0
    1.3170   -1.6730    0.5380 C   0  0  0  0  0  0  0  0  0  0  0  0
    2.5780   -2.0200    1.3890 C   0  0  0  0  0  0  0  0  0  0  0  0
    3.6210   -2.5930    0.4730 C   0  0  0  0  0  0  0  0  0  0  0  0
    5.1930   -3.0570    1.2960 P   0  0  0  0  0  0  0  0  0  0  0  0
    6.3700   -3.6330    0.1530 O   0  0  0  0  0  0  0  0  0  0  0  0
    5.8480   -1.7790    2.2670 O   0  0  0  0  0  0  0  0  0  0  0  0
    6.7940   -1.0310    1.5730 C   0  0  0  0  0  0  0  0  0  0  0  0
   -1.4170   -0.1740   -0.2470 C   0  0  0  0  0  0  0  0  0  0  0  0
   -1.7610   -1.5210   -0.6340 N   0  0  0  0  0  0  0  0  0  0  0  0
   -2.6810   -2.2900    0.1790 C   0  0  0  0  0  0  0  0  0  0  0  0
   -3.1240   -1.6700    1.2060 O   0  0  0  0  0  0  0  0  0  0  0  0
   -3.0470   -3.5820   -0.1310 O   0  0  0  0  0  0  0  0  0  0  0  0
   -3.9710   -4.1840    0.7920 C   0  0  2  0  0  0  0  0  0  0  0  0
   -4.3070   -5.5870    0.4170 C   0  0  0  0  0  0  0  0  0  0  0  0
   -5.2370   -3.3510    0.6870 C   0  0  0  0  0  0  0  0  0  0  0  0
   -3.3510   -4.1200    2.1520 C   0  0  0  0  0  0  0  0  0  0  0  0
   -0.0070    1.7590   -0.7440 N   0  0  0  0  0  0  0  0  0  0  0  0
   -0.8970    2.8620   -0.5950 C   0  0  0  0  0  0  0  0  0  0  0  0
   -2.1250    2.6310   -0.8920 O   0  0  0  0  0  0  0  0  0  0  0  0
   -0.4880    4.1810   -0.1400 C   0  0  0  0  0  0  0  0  0  0  0  0
   -0.0020    4.4390    1.1140 C   0  0  0  0  0  0  0  0  0  0  0  0
    0.3590    5.7380    1.4700 C   0  0  0  0  0  0  0  0  0  0  0  0
    0.2440    6.7950    0.5900 C   0  0  0  0  0  0  0  0  0  0  0  0
    0.6290    8.1980    0.9700 C   0  0  0  0  0  0  0  0  0  0  0  0
   -0.2510    6.5080   -0.6780 C   0  0  0  0  0  0  0  0  0  0  0  0
   -0.6120    5.2290   -1.0460 C   0  0  0  0  0  0  0  0  0  0  0  0
  1  2  1  0
  3  2  1  6
  3  4  1  0
  3 13  1  0
  3 22  1  0
  4  5  1  0
  5  6  1  0
  6  7  1  0
  7  8  1  0
  8  9  1  0
  9 10  1  0
  9 11  1  0
 11 12  1  0
 13 14  1  0
 14 15  1  0
 15 16  2  0
 15 17  1  0
 17 18  1  0
 18 19  1  6
 18 20  1  0
 18 21  1  0
 22 23  1  0
 23 24  2  0
 23 25  1  0
 25 26  2  0
 25 31  1  0
 26 27  1  0
 27 28  2  0
 28 29  1  0
 28 30  1  0
 30 31  2  0
M  END
