
     RDKit          3D

 29 30  0  0  0  0  0  0  0  0999 V2000
   -2.6400    3.1700    1.6190 C   0  0  0  0  0  0  0  0  0  0  0  0
   -3.0800    3.0970    0.3910 C   0  0  0  0  0  0  0  0  0  0  0  0
   -4.5290    3.3180    0.1070 C   0  0  0  0  0  0  0  0  0  0  0  0
   -2.1970    2.8160   -0.6330 O   0  0  0  0  0  0  0  0  0  0  0  0
   -1.6320    1.5580   -0.7570 C   0  0  0  0  0  0  0  0  0  0  0  0
   -2.1500    0.4960   -0.1650 C   0  0  0  0  0  0  0  0  0  0  0  0
   -3.2930    0.6790    0.5980 O   0  0  0  0  0  0  0  0  0  0  0  0
   -3.9240   -0.3540    1.2630 C   0  0  0  0  0  0  0  0  0  0  0  0
   -4.9610   -0.1990    1.9570 O   0  0  0  0  0  0  0  0  0  0  0  0
   -3.3750   -1.6460    1.1570 N   0  0  0  0  0  0  0  0  0  0  0  0
   -4.0000   -2.7650    1.8380 C   0  0  0  0  0  0  0  0  0  0  0  0
   -2.1830   -1.8800    0.3720 C   0  0  0  0  0  0  0  0  0  0  0  0
   -1.7280   -3.0990    0.3160 C   0  0  0  0  0  0  0  0  0  0  0  0
   -1.5560   -0.8040   -0.3000 N   0  0  0  0  0  0  0  0  0  0  0  0
   -0.4360   -0.9620   -1.0510 N   0  0  0  0  0  0  0  0  0  0  0  0
   -0.6280   -1.4890   -2.3490 C   0  0  0  0  0  0  0  0  0  0  0  0
    0.6630   -1.6820   -3.1150 C   0  0  0  0  0  0  0  0  0  0  0  0
    1.5290   -2.7380   -2.5580 C   0  0  0  0  0  0  0  0  0  0  0  0
    2.1060   -3.7260   -3.3510 O   0  0  0  0  0  0  0  0  0  0  0  0
    1.7990   -2.7950   -1.2650 C   0  0  0  0  0  0  0  0  0  0  0  0
    1.0370   -1.4910   -0.2080 P   0  0  0  0  0  0  0  0  0  0  0  0
    2.2100   -0.0620   -0.1610 C   0  0  0  0  0  0  0  0  0  0  0  0
    2.3820    0.6830   -1.1940 N   0  0  0  0  0  0  0  0  0  0  0  0
    2.9300    0.2430    0.9790 O   0  0  0  0  0  0  0  0  0  0  0  0
    4.2000    0.8760    0.9260 C   0  0  0  0  0  0  0  0  0  0  0  0
    4.7730    1.0950    2.2940 C   0  0  0  0  0  0  0  0  0  0  0  0
    5.9980    1.7000    2.3250 O   0  0  0  0  0  0  0  0  0  0  0  0
    6.0710    2.9530    1.7730 C   0  0  0  0  0  0  0  0  0  0  0  0
    7.3680    3.4800    1.8660 F   0  0  0  0  0  0  0  0  0  0  0  0
  1  2  2  0
  2  3  1  0
  2  4  1  0
  4  5  1  0
  5  6  2  3
  6  7  1  0
  6 14  1  0
  7  8  1  0
  8  9  2  0
  8 10  1  0
 10 11  1  0
 10 12  1  0
 12 13  2  0
 12 14  1  0
 14 15  1  0
 15 16  1  0
 15 21  1  0
 16 17  1  0
 17 18  1  0
 18 19  1  0
 18 20  2  0
 20 21  1  0
 21 22  1  0
 22 23  2  0
 22 24  1  0
 24 25  1  0
 25 26  1  0
 26 27  1  0
 27 28  1  0
 28 29  1  0
M  END
