
     RDKit          3D

 36 38  0  0  0  0  0  0  0  0999 V2000
    4.3880    3.9670   -0.4730 C   0  0  0  0  0  0  0  0  0  0  0  0
    3.0390    4.1000    0.2070 C   0  0  0  0  0  0  0  0  0  0  0  0
    2.9300    2.9820    1.0950 O   0  0  0  0  0  0  0  0  0  0  0  0
    2.9730    1.6850    0.6650 C   0  0  0  0  0  0  0  0  0  0  0  0
    3.1160    1.4780   -0.5730 O   0  0  0  0  0  0  0  0  0  0  0  0
    2.8710    0.5700    1.4860 O   0  0  0  0  0  0  0  0  0  0  0  0
    2.9260   -0.7050    0.9550 C   0  0  0  0  0  0  0  0  0  0  0  0
    1.7540   -1.3030    0.5640 C   0  0  0  0  0  0  0  0  0  0  0  0
    0.5430   -0.5800    0.7240 N   0  0  0  0  0  0  0  0  0  0  0  0
   -0.6930   -1.1770    0.3250 C   0  0  0  0  0  0  0  0  0  0  0  0
   -0.6460   -2.3360   -0.1580 O   0  0  0  0  0  0  0  0  0  0  0  0
   -2.0020   -0.4720    0.4660 C   0  0  1  0  0  0  0  0  0  0  0  0
   -1.8390    0.7890    1.0170 O   0  0  0  0  0  0  0  0  0  0  0  0
   -2.7270   -0.4310   -0.8250 C   0  0  0  0  0  0  0  0  0  0  0  0
   -2.9430   -1.4940   -1.4310 O   0  0  0  0  0  0  0  0  0  0  0  0
   -3.1930    0.7840   -1.4130 N   0  0  0  0  0  0  0  0  0  0  0  0
   -3.8970    0.8240   -2.6680 C   0  0  0  0  0  0  0  0  0  0  0  0
   -4.2390    2.2600   -2.9860 C   0  0  0  0  0  0  0  0  0  0  0  0
   -3.0680    3.0130   -3.0780 O   0  0  0  0  0  0  0  0  0  0  0  0
   -3.3000    4.2620   -3.3510 O   0  0  0  0  0  0  0  0  0  0  0  0
   -4.1820    4.7610   -2.5110 O   0  0  0  0  0  0  0  0  0  0  0  0
   -2.8140   -1.2860    1.4130 C   0  0  0  0  0  0  0  0  0  0  0  0
   -3.5320   -0.8070    2.4180 N   0  0  0  0  0  0  0  0  0  0  0  0
   -4.1050   -1.7980    3.0280 O   0  0  0  0  0  0  0  0  0  0  0  0
   -3.7840   -2.9260    2.4500 C   0  0  0  0  0  0  0  0  0  0  0  0
   -4.2430   -4.2970    2.8570 C   0  0  0  0  0  0  0  0  0  0  0  0
   -3.7130   -5.2650    2.0280 O   0  0  0  0  0  0  0  0  0  0  0  0
   -2.9740   -2.6220    1.4340 N   0  0  0  0  0  0  0  0  0  0  0  0
    1.7320   -2.5570    0.0330 N   0  0  0  0  0  0  0  0  0  0  0  0
    2.8830   -3.2590   -0.1260 C   0  0  0  0  0  0  0  0  0  0  0  0
    4.0810   -2.6860    0.2580 C   0  0  0  0  0  0  0  0  0  0  0  0
    4.0970   -1.4130    0.7960 C   0  0  0  0  0  0  0  0  0  0  0  0
    5.3000   -0.8780    1.1650 O   0  0  0  0  0  0  0  0  0  0  0  0
    6.5230   -1.5380    0.8960 C   0  0  0  0  0  0  0  0  0  0  0  0
    6.4100   -2.8970    0.7590 O   0  0  0  0  0  0  0  0  0  0  0  0
    5.3040   -3.3140    0.1390 O   0  0  0  0  0  0  0  0  0  0  0  0
  1  2  1  0
  2  3  1  0
  3  4  1  0
  4  5  2  0
  4  6  1  0
  6  7  1  0
  7  8  2  0
  7 32  1  0
  8  9  1  0
  8 29  1  0
  9 10  1  0
 10 11  2  0
 10 12  1  0
 12 13  1  1
 12 14  1  0
 12 22  1  0
 14 15  2  0
 14 16  1  0
 16 17  1  0
 17 18  1  0
 18 19  1  0
 19 20  1  0
 20 21  1  0
 22 23  2  0
 22 28  1  0
 23 24  1  0
 24 25  1  0
 25 26  1  0
 25 28  2  0
 26 27  1  0
 29 30  2  0
 30 31  1  0
 31 32  2  0
 31 36  1  0
 32 33  1  0
 33 34  1  0
 34 35  1  0
 35 36  1  0
M  END
