
     RDKit          3D

 36 38  0  0  0  0  0  0  0  0999 V2000
   -1.1250   -0.9640    2.6170 C   0  0  0  0  0  0  0  0  0  0  0  0
   -0.7810   -0.3940    1.2600 C   0  0  1  0  0  0  0  0  0  0  0  0
   -1.8970    0.1820    0.6200 O   0  0  0  0  0  0  0  0  0  0  0  0
   -3.0440   -0.4790    0.2910 C   0  0  0  0  0  0  0  0  0  0  0  0
   -3.1270   -1.6980    0.5740 O   0  0  0  0  0  0  0  0  0  0  0  0
   -4.1630    0.1520   -0.3650 N   0  0  0  0  0  0  0  0  0  0  0  0
   -4.2280    1.3960   -0.7210 O   0  0  0  0  0  0  0  0  0  0  0  0
   -5.3750    1.6410   -1.2860 C   0  0  0  0  0  0  0  0  0  0  0  0
   -5.7980    2.7350   -1.7590 O   0  0  0  0  0  0  0  0  0  0  0  0
   -6.0960    0.5080   -1.3030 N   0  0  0  0  0  0  0  0  0  0  0  0
   -7.4390    0.2990   -1.8330 C   0  0  0  0  0  0  0  0  0  0  0  0
   -8.4660    0.5430   -0.8050 C   0  0  0  0  0  0  0  0  0  0  0  0
   -8.2210    0.8980    0.4100 N   0  0  0  0  0  0  0  0  0  0  0  0
   -9.3920    1.0430    1.1110 O   0  0  0  0  0  0  0  0  0  0  0  0
  -10.4080    1.1010    0.1880 N   0  0  0  0  0  0  0  0  0  0  0  0
   -9.8370    0.4550   -0.8950 O   0  0  0  0  0  0  0  0  0  0  0  0
   -5.3190   -0.4130   -0.7210 C   0  0  0  0  0  0  0  0  0  0  0  0
   -5.6240   -1.6200   -0.5360 O   0  0  0  0  0  0  0  0  0  0  0  0
    0.2550    0.7060    1.4080 C   0  0  0  0  0  0  0  0  0  0  0  0
    0.7000    1.0480    0.1550 O   0  0  0  0  0  0  0  0  0  0  0  0
    1.4770    2.1720    0.1040 C   0  0  0  0  0  0  0  0  0  0  0  0
    2.8950    1.9660    0.5830 C   0  0  0  0  0  0  0  0  0  0  0  0
    3.8430    1.5970   -0.5190 C   0  0  0  0  0  0  0  0  0  0  0  0
    3.5320    0.2890   -1.1850 C   0  0  0  0  0  0  0  0  0  0  0  0
    4.0930   -0.9200   -0.5140 C   0  0  1  0  0  0  0  0  0  0  0  0
    5.3410   -0.6410    0.1270 N   0  0  0  0  0  0  0  0  0  0  0  0
    6.5870   -1.1990   -0.2500 C   0  0  0  0  0  0  0  0  0  0  0  0
    6.6010   -1.9940   -1.2130 O   0  0  0  0  0  0  0  0  0  0  0  0
    7.7900   -0.9210    0.3780 O   0  0  0  0  0  0  0  0  0  0  0  0
    8.9530   -1.4820   -0.0220 O   0  0  0  0  0  0  0  0  0  0  0  0
    9.8930   -0.9600    0.7380 O   0  0  0  0  0  0  0  0  0  0  0  0
    9.5430    0.2080    1.2140 O   0  0  0  0  0  0  0  0  0  0  0  0
    3.1120   -1.6320    0.3840 C   0  0  0  0  0  0  0  0  0  0  0  0
    1.8890   -2.0090   -0.4260 C   0  0  0  0  0  0  0  0  0  0  0  0
    0.9180   -1.0820   -0.1810 O   0  0  0  0  0  0  0  0  0  0  0  0
   -0.2090   -1.5350    0.4410 C   0  0  0  0  0  0  0  0  0  0  0  0
  2  1  1  1
  2  3  1  0
  2 19  1  0
  2 36  1  0
  3  4  1  0
  4  5  2  0
  4  6  1  0
  6  7  1  0
  6 17  1  0
  7  8  1  0
  8  9  2  0
  8 10  1  0
 10 11  1  0
 10 17  1  0
 11 12  1  0
 12 13  2  0
 12 16  1  0
 13 14  1  0
 14 15  1  0
 15 16  1  0
 17 18  2  0
 19 20  1  0
 20 21  1  0
 21 22  1  0
 22 23  1  0
 23 24  1  0
 24 25  1  0
 25 26  1  1
 25 33  1  0
 26 27  1  0
 27 28  2  0
 27 29  1  0
 29 30  1  0
 30 31  1  0
 31 32  1  0
 33 34  1  0
 34 35  1  0
 35 36  1  0
M  END
