
     RDKit          3D

 32 32  0  0  0  0  0  0  0  0999 V2000
   -6.2390    3.7480   -1.2770 C   0  0  0  0  0  0  0  0  0  0  0  0
   -5.7780    3.5560    0.1590 C   0  0  0  0  0  0  0  0  0  0  0  0
   -4.2840    3.5160    0.2020 C   0  0  0  0  0  0  0  0  0  0  0  0
   -3.6140    2.4750   -0.5710 C   0  0  0  0  0  0  0  0  0  0  0  0
   -3.8120    1.0590   -0.1660 C   0  0  2  0  0  0  0  0  0  0  0  0
   -3.0090    0.2190   -1.1070 N   0  0  0  0  0  0  0  0  0  0  0  0
   -1.8890   -0.4500   -0.6390 C   0  0  0  0  0  0  0  0  0  0  0  0
   -1.5550   -0.3440    0.5750 O   0  0  0  0  0  0  0  0  0  0  0  0
   -1.0590   -1.2920   -1.5190 C   0  0  2  0  0  0  0  0  0  0  0  0
   -1.7940   -2.2860   -2.3360 C   0  0  0  0  0  0  0  0  0  0  0  0
   -2.5850   -3.3120   -1.6170 C   0  0  2  0  0  0  0  0  0  0  0  0
   -3.2290   -4.2010   -2.6910 C   0  0  0  0  0  0  0  0  0  0  0  0
   -3.6930   -2.8240   -0.7560 C   0  0  0  0  0  0  0  0  0  0  0  0
    0.0910   -1.8640   -0.8470 N   0  0  0  0  0  0  0  0  0  0  0  0
    1.3460   -1.0760   -0.3510 P   0  0  0  0  0  0  0  0  0  0  0  0
    2.0840   -1.4670   -1.7950 O   0  0  0  0  0  0  0  0  0  0  0  0
    1.5880   -2.1060    0.9170 O   0  0  0  0  0  0  0  0  0  0  0  0
    2.6760   -0.1890    0.0460 C   0  0  0  0  0  0  0  0  0  0  0  0
    3.9120   -0.9830    0.1480 N   0  0  0  0  0  0  0  0  0  0  0  0
    5.1570   -0.3580    0.4130 C   0  0  0  0  0  0  0  0  0  0  0  0
    5.0950    0.8900    0.5400 O   0  0  0  0  0  0  0  0  0  0  0  0
    6.3490   -1.0250    0.5280 O   0  0  0  0  0  0  0  0  0  0  0  0
    7.5770   -0.3960    0.7760 C   0  0  0  0  0  0  0  0  0  0  0  0
    7.5120    0.3410    2.0540 C   0  0  0  0  0  0  0  0  0  0  0  0
    7.5670   -0.3280    3.2530 C   0  0  0  0  0  0  0  0  0  0  0  0
    7.5200    0.3830    4.4530 C   0  0  0  0  0  0  0  0  0  0  0  0
    7.4190    1.7620    4.4760 C   0  0  0  0  0  0  0  0  0  0  0  0
    7.3650    2.4280    3.2870 C   0  0  0  0  0  0  0  0  0  0  0  0
    7.4120    1.7060    2.0960 C   0  0  0  0  0  0  0  0  0  0  0  0
   -5.1570    0.4970   -0.2700 C   0  0  0  0  0  0  0  0  0  0  0  0
   -5.6330    0.1970   -1.3990 O   0  0  0  0  0  0  0  0  0  0  0  0
   -5.9480    0.2650    0.8510 O   0  0  0  0  0  0  0  0  0  0  0  0
  1  2  1  0
  2  3  1  0
  3  4  1  0
  5  4  1  6
  5  6  1  0
  5 30  1  0
  6  7  1  0
  7  8  2  0
  7  9  1  0
  9 10  1  1
  9 14  1  0
 10 11  1  0
 11 12  1  6
 11 13  1  0
 14 15  1  0
 15 16  1  0
 15 17  1  0
 15 18  1  0
 18 19  1  0
 19 20  1  0
 20 21  2  0
 20 22  1  0
 22 23  1  0
 23 24  1  0
 24 25  2  0
 24 29  1  0
 25 26  1  0
 26 27  2  0
 27 28  1  0
 28 29  2  0
 30 31  2  0
 30 32  1  0
M  END
