
     RDKit          3D

 36 39  0  0  0  0  0  0  0  0999 V2000
   -2.4770   -2.7380    2.7290 O   0  0  0  0  0  0  0  0  0  0  0  0
   -2.1840   -3.5680    1.7900 C   0  0  0  0  0  0  0  0  0  0  0  0
   -0.7540   -3.7450    1.4410 C   0  0  0  0  0  0  0  0  0  0  0  0
   -0.5040   -3.5680    0.0900 O   0  0  0  0  0  0  0  0  0  0  0  0
    0.0910   -2.3990   -0.3640 C   0  0  0  0  0  0  0  0  0  0  0  0
    0.6770   -2.5160   -1.4750 O   0  0  0  0  0  0  0  0  0  0  0  0
    0.0280   -1.1590    0.3970 C   0  0  1  0  0  0  0  0  0  0  0  0
    1.1780   -0.5510    0.7640 O   0  0  0  0  0  0  0  0  0  0  0  0
    1.9890   -0.3700   -0.3210 C   0  0  2  0  0  0  0  0  0  0  0  0
    3.3030    0.2560   -0.0860 C   0  0  0  0  0  0  0  0  0  0  0  0
    3.7700    1.3860   -0.5850 N   0  0  0  0  0  0  0  0  0  0  0  0
    5.0670    1.5770   -0.2260 C   0  0  0  0  0  0  0  0  0  0  0  0
    5.3780    0.5160    0.5140 N   0  0  0  0  0  0  0  0  0  0  0  0
    4.3490   -0.2940    0.6220 N   0  0  0  0  0  0  0  0  0  0  0  0
    6.7380    0.3990    1.0310 C   0  0  0  0  0  0  0  0  0  0  0  0
    7.4930    1.6750    0.9320 C   0  0  0  0  0  0  0  0  0  0  0  0
    7.3280    2.2570   -0.3500 O   0  0  0  0  0  0  0  0  0  0  0  0
    5.9960    2.5840   -0.4690 O   0  0  0  0  0  0  0  0  0  0  0  0
    1.3090    0.1500   -1.4280 O   0  0  0  0  0  0  0  0  0  0  0  0
    0.0920    0.7300   -1.1260 C   0  0  0  0  0  0  0  0  0  0  0  0
   -0.8380   -0.1720   -0.3950 C   0  0  2  0  0  0  0  0  0  0  0  0
   -1.6050    0.6700    0.6600 C   0  0  0  0  0  0  0  0  0  0  0  0
   -2.4800    1.4450    0.1410 O   0  0  0  0  0  0  0  0  0  0  0  0
   -2.7530    2.4360   -0.5510 C   0  0  0  0  0  0  0  0  0  0  0  0
   -2.3760    3.7540    0.1640 C   0  0  0  0  0  0  0  0  0  0  0  0
   -2.9090    4.7310   -0.7920 O   0  0  0  0  0  0  0  0  0  0  0  0
   -3.6780    5.4220    0.0510 O   0  0  0  0  0  0  0  0  0  0  0  0
   -3.9490    6.5880    0.0200 O   0  0  0  0  0  0  0  0  0  0  0  0
   -1.8810   -0.8130   -1.2050 C   0  0  0  0  0  0  0  0  0  0  0  0
   -3.0240   -1.0070   -0.4440 O   0  0  0  0  0  0  0  0  0  0  0  0
   -4.1310   -1.7900   -0.6950 C   0  0  0  0  0  0  0  0  0  0  0  0
   -5.2870   -1.2130   -0.6530 O   0  0  0  0  0  0  0  0  0  0  0  0
   -4.1140   -3.1990   -0.9920 N   0  0  0  0  0  0  0  0  0  0  0  0
   -3.6910   -4.2330   -0.1650 C   0  0  0  0  0  0  0  0  0  0  0  0
   -3.6370   -5.4080   -0.7040 O   0  0  0  0  0  0  0  0  0  0  0  0
   -3.2990   -4.2100    1.2050 N   0  0  0  0  0  0  0  0  0  0  0  0
  1  2  2  0
  2  3  1  0
  2 36  1  0
  3  4  1  0
  4  5  1  0
  5  6  2  0
  5  7  1  0
  7  8  1  6
  7 21  1  0
  8  9  1  0
  9 10  1  1
  9 19  1  0
 10 11  1  0
 10 14  2  0
 11 12  2  0
 12 13  1  0
 12 18  1  0
 13 14  1  0
 13 15  1  0
 15 16  1  0
 16 17  1  0
 17 18  1  0
 19 20  1  0
 20 21  1  0
 21 22  1  1
 21 29  1  0
 22 23  1  0
 23 24  1  0
 24 25  1  0
 25 26  1  0
 26 27  1  0
 27 28  1  0
 29 30  1  0
 30 31  1  0
 31 32  2  0
 31 33  1  0
 33 34  1  0
 34 35  2  0
 34 36  1  0
M  END
