
     RDKit          3D

 36 39  0  0  0  0  0  0  0  0999 V2000
    4.2450    0.2260   -0.1860 O   0  0  0  0  0  0  0  0  0  0  0  0
    3.6370    0.5580   -1.2190 C   0  0  0  0  0  0  0  0  0  0  0  0
    4.3180    1.2040   -2.3920 C   0  0  0  0  0  0  0  0  0  0  0  0
    5.6520    1.3770   -2.1930 O   0  0  0  0  0  0  0  0  0  0  0  0
    6.0230    2.1510   -1.1410 C   0  0  2  0  0  0  0  0  0  0  0  0
    7.0730    3.1940   -1.3780 C   0  0  0  0  0  0  0  0  0  0  0  0
    7.6430    2.8590   -0.1510 O   0  0  0  0  0  0  0  0  0  0  0  0
    7.0420    1.6010   -0.1880 C   0  0  0  0  0  0  0  0  0  0  0  0
    2.2380    0.3150   -1.2870 N   0  0  0  0  0  0  0  0  0  0  0  0
    1.5000   -0.3110   -0.1850 C   0  0  1  0  0  0  0  0  0  0  0  0
    0.4060    0.5910    0.2900 C   0  0  0  0  0  0  0  0  0  0  0  0
   -0.8680    0.0840   -0.0190 O   0  0  0  0  0  0  0  0  0  0  0  0
   -1.0360   -1.1480    0.4880 N   0  0  0  0  0  0  0  0  0  0  0  0
   -2.1460   -1.5120    1.2980 C   0  0  0  0  0  0  0  0  0  0  0  0
   -2.2840   -2.6710    1.7680 O   0  0  0  0  0  0  0  0  0  0  0  0
   -3.1900   -0.5130    1.6130 C   0  0  2  0  0  0  0  0  0  0  0  0
   -4.1890   -1.0580    2.4500 O   0  0  0  0  0  0  0  0  0  0  0  0
   -5.2770   -0.3970    2.9820 C   0  0  0  0  0  0  0  0  0  0  0  0
   -5.8000   -0.8360    4.0340 O   0  0  0  0  0  0  0  0  0  0  0  0
   -5.9040    0.7690    2.4620 N   0  0  0  0  0  0  0  0  0  0  0  0
   -5.7510    1.3360    1.1380 C   0  0  0  0  0  0  0  0  0  0  0  0
   -6.4590    2.3000    0.8150 O   0  0  0  0  0  0  0  0  0  0  0  0
   -4.8370    0.8840    0.1300 N   0  0  0  0  0  0  0  0  0  0  0  0
   -4.9930    1.4230   -1.1740 C   0  0  0  0  0  0  0  0  0  0  0  0
   -4.2070    1.0460   -2.0780 O   0  0  0  0  0  0  0  0  0  0  0  0
   -5.9670    2.3430   -1.5050 O   0  0  0  0  0  0  0  0  0  0  0  0
   -6.0810    2.8320   -2.7620 O   0  0  0  0  0  0  0  0  0  0  0  0
   -6.9860    2.1190   -3.3700 O   0  0  0  0  0  0  0  0  0  0  0  0
   -3.7860   -0.0560    0.3150 C   0  0  0  0  0  0  0  0  0  0  0  0
   -3.3130   -0.5490   -0.7180 O   0  0  0  0  0  0  0  0  0  0  0  0
   -0.0260   -2.1390    0.1860 C   0  0  1  0  0  0  0  0  0  0  0  0
    0.6770   -2.6330    1.4190 C   0  0  0  0  0  0  0  0  0  0  0  0
    0.4910   -4.1270    1.3700 C   0  0  0  0  0  0  0  0  0  0  0  0
    0.1430   -4.4430    0.0640 O   0  0  0  0  0  0  0  0  0  0  0  0
   -0.5720   -3.3800   -0.4390 C   0  0  0  0  0  0  0  0  0  0  0  0
    0.9130   -1.5180   -0.7310 N   0  0  0  0  0  0  0  0  0  0  0  0
  1  2  2  0
  2  3  1  0
  2  9  1  0
  3  4  1  0
  5  4  1  6
  5  6  1  0
  5  8  1  0
  6  7  1  0
  7  8  1  0
 10  9  1  6
 10 11  1  0
 10 36  1  0
 11 12  1  0
 12 13  1  0
 13 14  1  0
 13 31  1  0
 14 15  2  0
 16 14  1  6
 16 17  1  0
 16 29  1  0
 17 18  1  0
 18 19  2  0
 18 20  1  0
 20 21  1  0
 21 22  2  0
 21 23  1  0
 23 24  1  0
 23 29  1  0
 24 25  2  0
 24 26  1  0
 26 27  1  0
 27 28  1  0
 29 30  2  0
 31 32  1  1
 31 35  1  0
 31 36  1  0
 32 33  1  0
 33 34  1  0
 34 35  1  0
M  END
