
     RDKit          3D

 36 38  0  0  0  0  0  0  0  0999 V2000
   -6.3850    4.0360    1.4710 O   0  0  0  0  0  0  0  0  0  0  0  0
   -6.0560    3.7210    0.3000 C   0  0  0  0  0  0  0  0  0  0  0  0
   -4.9340    2.8350    0.0140 C   0  0  0  0  0  0  0  0  0  0  0  0
   -4.2530    2.3520    0.9620 N   0  0  0  0  0  0  0  0  0  0  0  0
   -3.1570    1.4940    0.9320 C   0  0  0  0  0  0  0  0  0  0  0  0
   -2.3340    1.1110    1.9920 C   0  0  0  0  0  0  0  0  0  0  0  0
   -1.4500    0.2820    1.5330 O   0  0  0  0  0  0  0  0  0  0  0  0
   -1.5970    0.0620    0.2360 C   0  0  0  0  0  0  0  0  0  0  0  0
   -0.7470   -0.8260   -0.5310 C   0  0  2  0  0  0  0  0  0  0  0  0
   -1.2620   -2.2670   -0.6620 C   0  0  0  0  0  0  0  0  0  0  0  0
   -1.1980   -3.0040    0.5880 N   0  0  0  0  0  0  0  0  0  0  0  0
   -1.3370   -4.4220    0.2180 C   0  0  0  0  0  0  0  0  0  0  0  0
   -2.6490   -4.6710   -0.4780 C   0  0  0  0  0  0  0  0  0  0  0  0
   -3.7200   -4.2260    0.3060 O   0  0  0  0  0  0  0  0  0  0  0  0
   -3.2750   -3.8400    1.5730 C   0  0  0  0  0  0  0  0  0  0  0  0
   -2.3560   -2.6390    1.4270 C   0  0  0  0  0  0  0  0  0  0  0  0
    0.6130   -0.8960   -0.1210 O   0  0  0  0  0  0  0  0  0  0  0  0
    1.6920   -0.7830   -0.9980 C   0  0  0  0  0  0  0  0  0  0  0  0
    1.3520   -0.5910   -2.2170 O   0  0  0  0  0  0  0  0  0  0  0  0
    3.0840   -0.8860   -0.5740 C   0  0  1  0  0  0  0  0  0  0  0  0
    3.9870   -1.1420   -1.6100 O   0  0  0  0  0  0  0  0  0  0  0  0
    3.6090    0.2490    0.2110 C   0  0  0  0  0  0  0  0  0  0  0  0
    2.9470    0.9160    1.0500 O   0  0  0  0  0  0  0  0  0  0  0  0
    4.9120    0.6090    0.0260 O   0  0  0  0  0  0  0  0  0  0  0  0
    5.6370    1.6330    0.6330 C   0  0  1  0  0  0  0  0  0  0  0  0
    6.8290    0.9810    1.4040 C   0  0  0  0  0  0  0  0  0  0  0  0
    7.5070    0.4200    0.3110 O   0  0  0  0  0  0  0  0  0  0  0  0
    7.5280    1.4020   -0.6360 N   0  0  0  0  0  0  0  0  0  0  0  0
    8.4500    1.5020   -1.6070 O   0  0  0  0  0  0  0  0  0  0  0  0
    9.3610    2.3630   -1.1580 O   0  0  0  0  0  0  0  0  0  0  0  0
    6.4230    2.2970   -0.4290 C   0  0  0  0  0  0  0  0  0  0  0  0
    6.2170    3.3570   -1.0170 O   0  0  0  0  0  0  0  0  0  0  0  0
   -2.6650    0.8260   -0.1230 N   0  0  0  0  0  0  0  0  0  0  0  0
   -6.8500    4.2810   -0.7480 N   0  0  0  0  0  0  0  0  0  0  0  0
   -7.8920    5.1000   -0.4840 O   0  0  0  0  0  0  0  0  0  0  0  0
   -7.4520    6.1350    0.1820 O   0  0  0  0  0  0  0  0  0  0  0  0
  1  2  2  0
  2  3  1  0
  2 34  1  0
  3  4  2  3
  4  5  1  0
  5  6  2  0
  5 33  1  0
  6  7  1  0
  7  8  1  0
  8  9  1  0
  8 33  2  0
  9 10  1  1
  9 17  1  0
 10 11  1  0
 11 12  1  0
 11 16  1  0
 12 13  1  0
 13 14  1  0
 14 15  1  0
 15 16  1  0
 17 18  1  0
 18 19  2  0
 18 20  1  0
 20 21  1  6
 20 22  1  0
 22 23  2  0
 22 24  1  0
 25 24  1  6
 25 26  1  0
 25 31  1  0
 26 27  1  0
 27 28  1  0
 28 29  1  0
 28 31  1  0
 29 30  1  0
 31 32  2  0
 34 35  1  0
 35 36  1  0
M  END
