
     RDKit          3D

 35 36  0  0  0  0  0  0  0  0999 V2000
   -5.4470    4.1450    0.5470 O   0  0  0  0  0  0  0  0  0  0  0  0
   -6.0210    3.2020    1.1560 C   0  0  0  0  0  0  0  0  0  0  0  0
   -6.3090    1.9480    0.5430 N   0  0  0  0  0  0  0  0  0  0  0  0
   -5.8460    1.5890   -0.7840 C   0  0  0  0  0  0  0  0  0  0  0  0
   -4.2900    1.4750   -0.4750 C   0  0  0  0  0  0  0  0  0  0  0  0
   -3.5850    0.5430   -1.3990 C   0  0  0  0  0  0  0  0  0  0  0  0
   -2.6410   -0.3580   -0.4920 C   0  0  1  0  0  0  0  0  0  0  0  0
   -1.8140    0.5650    0.2360 N   0  0  0  0  0  0  0  0  0  0  0  0
   -0.7330    0.2480    1.0260 C   0  0  0  0  0  0  0  0  0  0  0  0
   -0.6690    0.6650    2.2370 O   0  0  0  0  0  0  0  0  0  0  0  0
    0.3470   -0.4790    0.5800 O   0  0  0  0  0  0  0  0  0  0  0  0
    0.9870   -0.2580   -0.7360 C   0  0  1  0  0  0  0  0  0  0  0  0
    2.2130    0.4430   -0.2110 C   0  0  0  0  0  0  0  0  0  0  0  0
    2.2050    1.3480    0.5270 O   0  0  0  0  0  0  0  0  0  0  0  0
    3.4040   -0.1200   -0.6920 O   0  0  0  0  0  0  0  0  0  0  0  0
    4.6620    0.3180   -0.1780 C   0  0  1  0  0  0  0  0  0  0  0  0
    5.3960    1.4430   -0.3340 C   0  0  0  0  0  0  0  0  0  0  0  0
    6.2780    1.6290    0.7920 O   0  0  0  0  0  0  0  0  0  0  0  0
    6.1050    2.8820    1.2140 O   0  0  0  0  0  0  0  0  0  0  0  0
    5.7430    3.7480    0.3580 O   0  0  0  0  0  0  0  0  0  0  0  0
    6.8830    4.0760   -0.3060 O   0  0  0  0  0  0  0  0  0  0  0  0
    4.4350    0.1370    1.4460 C   0  0  0  0  0  0  0  0  0  0  0  0
    5.4510   -0.7680    1.5130 O   0  0  0  0  0  0  0  0  0  0  0  0
    5.3290   -1.0730    0.1910 C   0  0  0  0  0  0  0  0  0  0  0  0
    1.3200   -1.5950   -1.3360 C   0  0  0  0  0  0  0  0  0  0  0  0
    1.6990   -2.5840   -0.5020 O   0  0  0  0  0  0  0  0  0  0  0  0
    0.7220   -3.6030   -0.4530 C   0  0  0  0  0  0  0  0  0  0  0  0
   -0.4660   -2.9780    0.0030 O   0  0  0  0  0  0  0  0  0  0  0  0
   -1.4860   -3.1260    0.7100 C   0  0  0  0  0  0  0  0  0  0  0  0
   -1.7160   -2.8960    1.9820 O   0  0  0  0  0  0  0  0  0  0  0  0
   -2.7140   -3.7110    0.0340 C   0  0  1  0  0  0  0  0  0  0  0  0
   -3.3870   -4.4800    0.9380 F   0  0  0  0  0  0  0  0  0  0  0  0
   -3.5840   -2.4920   -0.2520 O   0  0  0  0  0  0  0  0  0  0  0  0
   -3.4790   -1.2960    0.1890 C   0  0  0  0  0  0  0  0  0  0  0  0
   -4.1690   -0.7670    1.1630 O   0  0  0  0  0  0  0  0  0  0  0  0
  1  2  2  0
  2  3  1  0
  3  4  1  0
  4  5  1  0
  5  6  1  0
  7  6  1  1
  7  8  1  0
  7 34  1  0
  8  9  1  0
  9 10  2  0
  9 11  1  0
 11 12  1  0
 12 13  1  1
 12 25  1  0
 13 14  2  0
 13 15  1  0
 15 16  1  0
 16 17  1  1
 16 22  1  0
 16 24  1  0
 17 18  1  0
 18 19  1  0
 19 20  1  0
 20 21  1  0
 22 23  1  0
 23 24  1  0
 25 26  1  0
 26 27  1  0
 27 28  1  0
 28 29  1  0
 29 30  2  0
 29 31  1  0
 31 32  1  1
 31 33  1  0
 33 34  1  0
 34 35  2  0
M  END
