
     RDKit          3D

 28 30  0  0  0  0  0  0  0  0999 V2000
   -4.7560   -0.2260    3.4620 C   0  0  0  0  0  0  0  0  0  0  0  0
   -5.0800   -0.8840    2.3780 C   0  0  0  0  0  0  0  0  0  0  0  0
   -4.2140   -1.0370    1.2300 C   0  0  0  0  0  0  0  0  0  0  0  0
   -4.7120   -1.7480    0.1980 C   0  0  0  0  0  0  0  0  0  0  0  0
   -2.8700   -0.4980    1.0940 C   0  0  0  0  0  0  0  0  0  0  0  0
   -2.3380    0.1750    2.0130 O   0  0  0  0  0  0  0  0  0  0  0  0
   -1.9790   -0.8370   -0.4710 P   0  0  0  0  0  0  0  0  0  0  0  0
   -1.5470    0.7180   -1.3340 C   0  0  0  0  0  0  0  0  0  0  0  0
   -0.7670    0.6710   -2.3950 C   0  0  0  0  0  0  0  0  0  0  0  0
   -0.1840   -0.5600   -2.9790 C   0  0  1  0  0  0  0  0  0  0  0  0
    0.3820   -0.3600   -4.1960 F   0  0  0  0  0  0  0  0  0  0  0  0
    1.1400   -1.3030   -1.8660 P   0  0  0  0  0  0  0  0  0  0  0  0
   -0.0230   -1.8240   -0.0280 P   0  0  0  0  0  0  0  0  0  0  0  0
    0.7210   -0.9410    1.2960 O   0  0  0  0  0  0  0  0  0  0  0  0
    2.0300   -0.9570    1.6920 C   0  0  0  0  0  0  0  0  0  0  0  0
    2.3790   -1.0520    3.1410 C   0  0  0  0  0  0  0  0  0  0  0  0
    3.3890   -0.8790    0.7450 P   0  0  0  0  0  0  0  0  0  0  0  0
    3.5510   -0.7600   -0.9700 O   0  0  0  0  0  0  0  0  0  0  0  0
    2.4550   -0.0790   -1.5050 C   0  0  2  0  0  0  0  0  0  0  0  0
    2.0230    0.9440   -0.6860 O   0  0  0  0  0  0  0  0  0  0  0  0
    3.0350    2.3420   -0.7420 P   0  0  0  0  0  0  0  0  0  0  0  0
    4.6820    1.9380   -0.0450 C   0  0  0  0  0  0  0  0  0  0  0  0
    4.9070    2.2790    1.0970 O   0  0  0  0  0  0  0  0  0  0  0  0
    5.5920    1.2870   -0.7910 F   0  0  0  0  0  0  0  0  0  0  0  0
    3.1380    3.0460   -2.3300 O   0  0  0  0  0  0  0  0  0  0  0  0
    3.3390    2.2030   -3.4160 C   0  0  0  0  0  0  0  0  0  0  0  0
    3.8800    2.8130   -4.9620 Cl  0  0  0  0  0  0  0  0  0  0  0  0
    3.0240    0.6010   -3.1120 P   0  0  0  0  0  0  0  0  0  0  0  0
  1  2  2  0
  2  3  1  0
  3  4  2  0
  3  5  1  0
  5  6  2  0
  5  7  1  0
  7  8  1  0
  7 13  1  0
  8  9  2  0
  9 10  1  0
 10 11  1  6
 10 12  1  0
 12 13  1  0
 12 19  1  0
 13 14  1  0
 14 15  1  0
 15 16  1  0
 15 17  2  0
 17 18  1  0
 19 18  1  1
 19 20  1  0
 19 28  1  0
 20 21  1  0
 21 22  1  0
 21 25  1  0
 22 23  2  0
 22 24  1  0
 25 26  1  0
 26 27  1  0
 26 28  2  0
M  END
