
     RDKit          3D

 27 28  0  0  0  0  0  0  0  0999 V2000
   -0.2610   -3.4470   -1.0490 O   0  0  0  0  0  0  0  0  0  0  0  0
    0.1220   -2.2940   -1.2320 C   0  0  0  0  0  0  0  0  0  0  0  0
   -0.3870   -1.1670   -0.4560 C   0  0  0  0  0  0  0  0  0  0  0  0
   -1.2660   -1.3110    0.4610 C   0  0  0  0  0  0  0  0  0  0  0  0
   -1.9230   -2.5030    0.9130 C   0  0  0  0  0  0  0  0  0  0  0  0
   -2.8290   -2.4980    1.8910 C   0  0  0  0  0  0  0  0  0  0  0  0
   -3.1420   -1.3360    2.4790 F   0  0  0  0  0  0  0  0  0  0  0  0
   -3.4450   -3.7310    2.2900 C   0  0  0  0  0  0  0  0  0  0  0  0
   -4.3040   -3.7760    3.2070 O   0  0  0  0  0  0  0  0  0  0  0  0
   -3.1160   -4.8950    1.6850 F   0  0  0  0  0  0  0  0  0  0  0  0
    0.1170    0.1110   -0.8930 N   0  0  0  0  0  0  0  0  0  0  0  0
   -0.4670    1.2940   -0.7780 C   0  0  0  0  0  0  0  0  0  0  0  0
   -1.9010    1.3250   -0.5030 C   0  0  0  0  0  0  0  0  0  0  0  0
   -2.4920    2.4580   -0.1910 C   0  0  0  0  0  0  0  0  0  0  0  0
   -3.9380    2.4690    0.0810 C   0  0  0  0  0  0  0  0  0  0  0  0
   -4.5230    3.6010    0.3920 C   0  0  0  0  0  0  0  0  0  0  0  0
   -3.5190    5.2380    0.4960 Br  0  0  0  0  0  0  0  0  0  0  0  0
    0.2200    2.4690   -1.0750 C   0  0  0  0  0  0  0  0  0  0  0  0
    1.4270    2.5890   -1.4790 O   0  0  0  0  0  0  0  0  0  0  0  0
    2.3040    1.6990   -1.7150 O   0  0  0  0  0  0  0  0  0  0  0  0
    1.7530    0.1540   -1.4380 P   0  0  0  0  0  0  0  0  0  0  0  0
    2.7710   -1.2060   -1.0740 O   0  0  0  0  0  0  0  0  0  0  0  0
    4.3960   -0.6810   -1.3140 P   0  0  0  0  0  0  0  0  0  0  0  0
    5.5670   -2.3330   -1.9700 Cl  0  0  0  0  0  0  0  0  0  0  0  0
    5.1110   -0.0320    0.2930 C   0  0  2  0  0  0  0  0  0  0  0  0
    6.5300    0.3270    0.2810 C   0  0  0  0  0  0  0  0  0  0  0  0
    6.0600   -0.8420    0.9040 O   0  0  0  0  0  0  0  0  0  0  0  0
  1  2  2  0
  2  3  1  0
  3  4  2  3
  3 11  1  0
  4  5  1  0
  5  6  2  3
  6  7  1  0
  6  8  1  0
  8  9  2  0
  8 10  1  0
 11 12  1  0
 11 21  1  0
 12 13  1  0
 12 18  2  0
 13 14  2  3
 14 15  1  0
 15 16  2  3
 16 17  1  0
 18 19  1  0
 19 20  1  0
 20 21  1  0
 21 22  1  0
 22 23  1  0
 23 24  1  0
 25 23  1  6
 25 26  1  0
 25 27  1  0
 26 27  1  0
M  END
