
     RDKit          3D

 28 29  0  0  0  0  0  0  0  0999 V2000
    0.0730    3.1680   -3.4730 C   0  0  0  0  0  0  0  0  0  0  0  0
   -0.5200    2.7720   -2.2770 O   0  0  0  0  0  0  0  0  0  0  0  0
    0.4480    2.2480   -1.4700 C   0  0  2  0  0  0  0  0  0  0  0  0
    1.3760    3.2320   -1.2580 F   0  0  0  0  0  0  0  0  0  0  0  0
    1.2040    0.9010   -2.3960 Cl  0  0  0  0  0  0  0  0  0  0  0  0
   -0.0780    1.6670   -0.1620 C   0  0  0  0  0  0  0  0  0  0  0  0
   -1.4270    1.6480    0.0990 C   0  0  0  0  0  0  0  0  0  0  0  0
   -2.2910    0.6160    0.3520 C   0  0  0  0  0  0  0  0  0  0  0  0
   -3.3750    0.8870    1.8540 P   0  0  0  0  0  0  0  0  0  0  0  0
   -5.0050    0.6010    1.5540 O   0  0  0  0  0  0  0  0  0  0  0  0
   -2.5030   -0.5710   -0.3700 C   0  0  0  0  0  0  0  0  0  0  0  0
   -1.2650   -1.5900   -1.0740 P   0  0  0  0  0  0  0  0  0  0  0  0
    0.1680   -2.2470   -0.2760 C   0  0  0  0  0  0  0  0  0  0  0  0
    1.2660   -1.6160    0.8840 P   0  0  0  0  0  0  0  0  0  0  0  0
    2.6850   -0.7310    0.6650 O   0  0  0  0  0  0  0  0  0  0  0  0
    3.1410    0.2980    1.8900 P   0  0  0  0  0  0  0  0  0  0  0  0
    4.9860    0.5020    2.1990 C   0  0  0  0  0  0  0  0  0  0  0  0
    5.6820   -0.8030    2.5010 C   0  0  0  0  0  0  0  0  0  0  0  0
    7.1420   -0.4640    2.7220 C   0  0  0  0  0  0  0  0  0  0  0  0
    7.8370   -1.6130    3.0020 F   0  0  0  0  0  0  0  0  0  0  0  0
    2.0310    1.3890    2.4970 O   0  0  0  0  0  0  0  0  0  0  0  0
    0.8360    1.3530    1.9610 O   0  0  0  0  0  0  0  0  0  0  0  0
    0.8100    1.1970    0.6850 O   0  0  0  0  0  0  0  0  0  0  0  0
   -2.0700   -2.7780   -2.1600 O   0  0  0  0  0  0  0  0  0  0  0  0
   -3.4400   -2.7420   -2.2630 C   0  0  0  0  0  0  0  0  0  0  0  0
   -4.2310   -1.9330   -1.6270 C   0  0  0  0  0  0  0  0  0  0  0  0
   -5.7340   -2.0970   -1.9400 C   0  0  0  0  0  0  0  0  0  0  0  0
   -3.9410   -0.9720   -0.5940 C   0  0  0  0  0  0  0  0  0  0  0  0
  1  2  1  0
  2  3  1  0
  3  4  1  1
  3  5  1  0
  3  6  1  0
  6  7  2  0
  6 23  1  0
  7  8  1  0
  8  9  1  0
  8 11  2  0
  9 10  1  0
 11 12  1  0
 11 28  1  0
 12 13  1  0
 12 24  1  0
 13 14  2  0
 14 15  1  0
 15 16  1  0
 16 17  1  0
 16 21  1  0
 17 18  1  0
 18 19  1  0
 19 20  1  0
 21 22  1  0
 22 23  1  0
 24 25  1  0
 25 26  2  0
 26 27  1  0
 26 28  1  0
M  END
