
     RDKit          3D

 27 29  0  0  0  0  0  0  0  0999 V2000
   -1.4650    1.4630   -1.9290 C   0  0  0  0  0  0  0  0  0  0  0  0
   -1.4930    1.0710   -0.6700 C   0  0  0  0  0  0  0  0  0  0  0  0
   -2.4740   -0.0280   -0.3220 C   0  0  0  0  0  0  0  0  0  0  0  0
   -3.8960    0.3040   -0.4830 C   0  0  0  0  0  0  0  0  0  0  0  0
   -4.8380   -1.1200    0.1350 P   0  0  0  0  0  0  0  0  0  0  0  0
   -3.2740   -2.0740    0.5660 C   0  0  0  0  0  0  0  0  0  0  0  0
   -3.3250   -3.3060    1.1100 O   0  0  0  0  0  0  0  0  0  0  0  0
   -2.1820   -1.2090    0.1910 C   0  0  0  0  0  0  0  0  0  0  0  0
   -0.8130   -1.7770    0.3120 N   0  0  0  0  0  0  0  0  0  0  0  0
   -0.4920   -2.3910    1.6190 C   0  0  0  0  0  0  0  0  0  0  0  0
   -0.5810   -1.5420    2.6810 O   0  0  0  0  0  0  0  0  0  0  0  0
    0.1930   -1.8760   -0.6840 C   0  0  0  0  0  0  0  0  0  0  0  0
    0.5910   -3.1440   -1.0440 C   0  0  0  0  0  0  0  0  0  0  0  0
    0.0740   -4.2580   -0.4940 F   0  0  0  0  0  0  0  0  0  0  0  0
    0.9120   -0.7650   -1.3640 C   0  0  0  0  0  0  0  0  0  0  0  0
    1.8500    0.0300   -0.8850 C   0  0  0  0  0  0  0  0  0  0  0  0
    2.5280    0.1710    0.3530 C   0  0  0  0  0  0  0  0  0  0  0  0
    3.1910   -0.4750    1.2900 C   0  0  0  0  0  0  0  0  0  0  0  0
    2.4110    2.0300    0.6800 P   0  0  0  0  0  0  0  0  0  0  0  0
    1.3530    2.4040    1.9300 O   0  0  0  0  0  0  0  0  0  0  0  0
    0.7780    1.3910    2.5440 O   0  0  0  0  0  0  0  0  0  0  0  0
   -0.4950    1.4080    2.1150 O   0  0  0  0  0  0  0  0  0  0  0  0
   -0.4350    1.9700    0.5150 P   0  0  0  0  0  0  0  0  0  0  0  0
   -0.6580    3.8060    0.3760 C   0  0  0  0  0  0  0  0  0  0  0  0
    2.1650    2.7590   -0.8300 O   0  0  0  0  0  0  0  0  0  0  0  0
    2.5420    1.4660   -1.9290 P   0  0  0  0  0  0  0  0  0  0  0  0
    4.3310    1.2420   -2.2170 C   0  0  0  0  0  0  0  0  0  0  0  0
  1  2  2  0
  2  3  1  0
  2 23  1  0
  3  4  2  0
  3  8  1  0
  4  5  1  0
  5  6  1  0
  6  7  1  0
  6  8  2  0
  8  9  1  0
  9 10  1  0
  9 12  1  0
 10 11  1  0
 12 13  2  3
 12 15  1  0
 13 14  1  0
 15 16  2  0
 16 17  1  0
 16 26  1  0
 17 18  2  0
 17 19  1  0
 19 20  1  0
 19 25  1  0
 20 21  1  0
 21 22  1  0
 22 23  1  0
 23 24  1  0
 25 26  1  0
 26 27  1  0
M  END
