
     RDKit          3D

 28 30  0  0  0  0  0  0  0  0999 V2000
   -3.1970    0.8070   -2.4710 C   0  0  0  0  0  0  0  0  0  0  0  0
   -2.6970    1.2370   -1.3490 C   0  0  0  0  0  0  0  0  0  0  0  0
   -1.3310    1.2540   -1.1550 O   0  0  0  0  0  0  0  0  0  0  0  0
   -0.7750    0.8600    0.0840 C   0  0  1  0  0  0  0  0  0  0  0  0
   -1.2890    1.7140    1.0720 O   0  0  0  0  0  0  0  0  0  0  0  0
   -0.6900    1.3410    2.6330 P   0  0  0  0  0  0  0  0  0  0  0  0
   -1.3620   -0.0870    3.3020 O   0  0  0  0  0  0  0  0  0  0  0  0
   -1.1310   -0.4180    0.4320 O   0  0  0  0  0  0  0  0  0  0  0  0
   -0.3450   -1.4240   -0.0550 C   0  0  2  0  0  0  0  0  0  0  0  0
    1.1080   -1.2470    0.2170 C   0  0  0  0  0  0  0  0  0  0  0  0
    1.6320   -0.0300    0.2820 C   0  0  0  0  0  0  0  0  0  0  0  0
    2.9730    0.1350    0.5330 O   0  0  0  0  0  0  0  0  0  0  0  0
    3.6990    1.2680    0.3670 C   0  0  0  0  0  0  0  0  0  0  0  0
    4.1890    1.5910   -0.8100 C   0  0  0  0  0  0  0  0  0  0  0  0
    4.9980    2.8460   -1.0070 C   0  0  0  0  0  0  0  0  0  0  0  0
    4.0060    2.3640    1.7900 P   0  0  0  0  0  0  0  0  0  0  0  0
    4.9670    1.8220    2.9090 O   0  0  0  0  0  0  0  0  0  0  0  0
    0.6930    1.0750    0.0710 C   0  0  0  0  0  0  0  0  0  0  0  0
    1.3160    2.5790   -0.1840 P   0  0  0  0  0  0  0  0  0  0  0  0
   -0.6920   -1.9870   -1.4740 C   0  0  0  0  0  0  0  0  0  0  0  0
   -0.8020   -2.7700   -0.3040 C   0  0  1  0  0  0  0  0  0  0  0  0
   -0.3560   -4.0120    0.1150 C   0  0  0  0  0  0  0  0  0  0  0  0
    0.4870   -5.0000    0.3210 C   0  0  0  0  0  0  0  0  0  0  0  0
   -1.7900   -3.5500    0.2860 C   0  0  0  0  0  0  0  0  0  0  0  0
   -2.9960   -3.8740    0.7370 C   0  0  0  0  0  0  0  0  0  0  0  0
   -3.5990    1.7170   -0.2590 C   0  0  1  0  0  0  0  0  0  0  0  0
   -3.2850    3.0500   -0.0050 O   0  0  0  0  0  0  0  0  0  0  0  0
   -4.9180    1.6720   -0.6410 F   0  0  0  0  0  0  0  0  0  0  0  0
  1  2  2  0
  2  3  1  0
  2 26  1  0
  4  3  1  6
  4  5  1  0
  4  8  1  0
  4 18  1  0
  5  6  1  0
  6  7  1  0
  8  9  1  0
  9 10  1  0
  9 20  1  6
  9 21  1  0
 10 11  2  0
 11 12  1  0
 11 18  1  0
 12 13  1  0
 13 14  2  3
 13 16  1  0
 14 15  1  0
 16 17  2  0
 18 19  2  0
 21 20  1  6
 21 22  1  0
 21 24  1  0
 22 23  2  0
 22 24  1  0
 24 25  2  0
 26 27  1  6
 26 28  1  0
M  END
