
     RDKit          3D

 28 29  0  0  0  0  0  0  0  0999 V2000
   -7.2320    1.2060    1.3130 C   0  0  0  0  0  0  0  0  0  0  0  0
   -6.0250    2.4770    0.6570 P   0  0  0  0  0  0  0  0  0  0  0  0
   -6.7480    3.3160   -0.8370 C   0  0  0  0  0  0  0  0  0  0  0  0
   -4.4620    1.6400    0.1920 C   0  0  0  0  0  0  0  0  0  0  0  0
   -3.9240    1.7100   -1.0750 C   0  0  0  0  0  0  0  0  0  0  0  0
   -2.7430    1.0610   -1.3770 C   0  0  0  0  0  0  0  0  0  0  0  0
   -2.0470    0.3210   -0.4440 C   0  0  0  0  0  0  0  0  0  0  0  0
   -0.7930   -0.3610   -0.7830 C   0  0  0  0  0  0  0  0  0  0  0  0
   -0.3670   -0.2510   -1.9610 O   0  0  0  0  0  0  0  0  0  0  0  0
   -0.0690   -1.1040    0.1020 O   0  0  0  0  0  0  0  0  0  0  0  0
    1.1110   -1.7580   -0.1810 C   0  0  0  0  0  0  0  0  0  0  0  0
    1.2010   -3.0410   -0.6360 C   0  0  0  0  0  0  0  0  0  0  0  0
    2.4070   -3.6730   -0.9120 C   0  0  0  0  0  0  0  0  0  0  0  0
    2.4740   -5.0670   -1.4040 C   0  0  0  0  0  0  0  0  0  0  0  0
    2.5770   -6.2880   -0.0350 P   0  0  0  0  0  0  0  0  0  0  0  0
    1.3630   -6.7650    0.7850 O   0  0  0  0  0  0  0  0  0  0  0  0
    3.5730   -2.9420   -0.7070 C   0  0  0  0  0  0  0  0  0  0  0  0
    3.5300   -1.6430   -0.2490 C   0  0  0  0  0  0  0  0  0  0  0  0
    4.7480   -0.9960   -0.0750 O   0  0  0  0  0  0  0  0  0  0  0  0
    4.7110    0.3620    0.4030 C   0  0  0  0  0  0  0  0  0  0  0  0
    6.0820    0.9280    0.5410 C   0  0  0  0  0  0  0  0  0  0  0  0
    6.0440    2.2410    1.0060 O   0  0  0  0  0  0  0  0  0  0  0  0
    5.4350    3.2610    0.3130 C   0  0  0  0  0  0  0  0  0  0  0  0
    4.8760    3.0930   -0.7770 O   0  0  0  0  0  0  0  0  0  0  0  0
    5.4770    4.5320    0.9150 O   0  0  0  0  0  0  0  0  0  0  0  0
    2.3140   -1.0660    0.0090 C   0  0  0  0  0  0  0  0  0  0  0  0
   -2.5940    0.2590    0.8200 C   0  0  0  0  0  0  0  0  0  0  0  0
   -3.7730    0.9030    1.1320 C   0  0  0  0  0  0  0  0  0  0  0  0
  1  2  1  0
  2  3  1  0
  2  4  1  0
  4  5  2  0
  4 28  1  0
  5  6  1  0
  6  7  2  0
  7  8  1  0
  7 27  1  0
  8  9  2  0
  8 10  1  0
 10 11  1  0
 11 12  2  0
 11 26  1  0
 12 13  1  0
 13 14  1  0
 13 17  2  0
 14 15  1  0
 15 16  2  0
 17 18  1  0
 18 19  1  0
 18 26  2  0
 19 20  1  0
 20 21  1  0
 21 22  1  0
 22 23  1  0
 23 24  2  0
 23 25  1  0
 27 28  2  0
M  END
