
     RDKit          3D

 27 29  0  0  0  0  0  0  0  0999 V2000
   -8.3010    0.4950    0.4860 C   0  0  0  0  0  0  0  0  0  0  0  0
   -7.0360   -0.2890    0.2860 C   0  0  0  0  0  0  0  0  0  0  0  0
   -7.0430   -0.9780   -0.9240 O   0  0  0  0  0  0  0  0  0  0  0  0
   -5.6070   -1.8840   -1.1790 P   0  0  0  0  0  0  0  0  0  0  0  0
   -5.3750   -3.3770    0.4180 P   0  0  0  0  0  0  0  0  0  0  0  0
   -5.3990   -4.9030    0.1080 O   0  0  0  0  0  0  0  0  0  0  0  0
   -4.1710   -0.7210   -1.1750 C   0  0  0  0  0  0  0  0  0  0  0  0
   -2.9020   -1.1540   -0.8570 C   0  0  0  0  0  0  0  0  0  0  0  0
   -1.7990   -0.3270   -0.8400 C   0  0  0  0  0  0  0  0  0  0  0  0
   -1.9520    1.0030   -1.1530 C   0  0  0  0  0  0  0  0  0  0  0  0
   -0.8290    1.9420   -1.1560 C   0  0  0  0  0  0  0  0  0  0  0  0
   -1.0300    3.1470   -1.4500 O   0  0  0  0  0  0  0  0  0  0  0  0
    0.4530    1.5570   -0.8460 O   0  0  0  0  0  0  0  0  0  0  0  0
    1.5770    2.3840   -0.8250 C   0  0  0  0  0  0  0  0  0  0  0  0
    2.7670    1.5870   -0.4430 C   0  0  0  0  0  0  0  0  0  0  0  0
    2.7910    0.2400   -0.1500 C   0  0  0  0  0  0  0  0  0  0  0  0
    4.0830   -0.1190    0.1560 C   0  0  0  0  0  0  0  0  0  0  0  0
    4.6680   -1.3040    0.5140 C   0  0  0  0  0  0  0  0  0  0  0  0
    6.0200   -1.3550    0.7640 C   0  0  0  0  0  0  0  0  0  0  0  0
    6.7670   -0.1790    0.6430 C   0  0  0  0  0  0  0  0  0  0  0  0
    8.1200   -0.2410    0.8960 O   0  0  0  0  0  0  0  0  0  0  0  0
    8.7810   -1.4160    1.2660 C   0  0  0  0  0  0  0  0  0  0  0  0
    6.1690    1.0030    0.2840 C   0  0  0  0  0  0  0  0  0  0  0  0
    4.8130    1.0680    0.0300 C   0  0  0  0  0  0  0  0  0  0  0  0
    3.9880    2.0090   -0.3180 O   0  0  0  0  0  0  0  0  0  0  0  0
   -3.2180    1.4490   -1.4730 C   0  0  0  0  0  0  0  0  0  0  0  0
   -4.3250    0.6150   -1.4890 C   0  0  0  0  0  0  0  0  0  0  0  0
  1  2  1  0
  2  3  1  0
  3  4  1  0
  4  5  1  0
  4  7  1  0
  5  6  2  0
  7  8  2  0
  7 27  1  0
  8  9  1  0
  9 10  2  0
 10 11  1  0
 10 26  1  0
 11 12  2  0
 11 13  1  0
 13 14  1  0
 14 15  1  0
 15 16  2  0
 15 25  1  0
 16 17  1  0
 17 18  2  0
 17 24  1  0
 18 19  1  0
 19 20  2  0
 20 21  1  0
 20 23  1  0
 21 22  1  0
 23 24  2  0
 24 25  1  0
 26 27  2  0
M  END
