
     RDKit          3D

 27 29  0  0  0  0  0  0  0  0999 V2000
    4.2280   -2.5840    1.8970 C   0  0  0  0  0  0  0  0  0  0  0  0
    3.1720   -2.0150    1.1700 O   0  0  0  0  0  0  0  0  0  0  0  0
    3.4120   -0.8080    0.5070 C   0  0  0  0  0  0  0  0  0  0  0  0
    4.5630   -0.2840    0.5880 O   0  0  0  0  0  0  0  0  0  0  0  0
    2.3640   -0.1260   -0.2840 C   0  0  1  0  0  0  0  0  0  0  0  0
    1.1400    0.2610    0.4760 C   0  0  0  0  0  0  0  0  0  0  0  0
    0.1080    0.9610   -0.2820 C   0  0  0  0  0  0  0  0  0  0  0  0
    0.1350    2.3170   -0.5600 C   0  0  0  0  0  0  0  0  0  0  0  0
    1.3990    3.5210   -0.0100 P   0  0  0  0  0  0  0  0  0  0  0  0
    1.9590    3.1550    1.5890 O   0  0  0  0  0  0  0  0  0  0  0  0
    0.4040    5.5040    0.1030 P   0  0  0  0  0  0  0  0  0  0  0  0
    1.0590    6.6460   -0.7370 O   0  0  0  0  0  0  0  0  0  0  0  0
   -0.9960    2.5620   -1.3120 C   0  0  0  0  0  0  0  0  0  0  0  0
   -1.6350    1.4290   -1.4600 O   0  0  0  0  0  0  0  0  0  0  0  0
   -1.0400    0.4400   -0.8770 C   0  0  0  0  0  0  0  0  0  0  0  0
   -1.4100   -0.9110   -0.8110 O   0  0  0  0  0  0  0  0  0  0  0  0
   -2.3100   -1.3600    0.1510 C   0  0  0  0  0  0  0  0  0  0  0  0
   -1.9590   -2.3150    1.0830 C   0  0  0  0  0  0  0  0  0  0  0  0
   -2.9220   -2.7000    2.0020 C   0  0  0  0  0  0  0  0  0  0  0  0
   -4.1960   -2.1890    2.0370 C   0  0  0  0  0  0  0  0  0  0  0  0
   -4.5250   -1.2310    1.0890 C   0  0  0  0  0  0  0  0  0  0  0  0
   -3.5850   -0.8140    0.1440 C   0  0  0  0  0  0  0  0  0  0  0  0
   -3.8830    0.1410   -0.8160 O   0  0  0  0  0  0  0  0  0  0  0  0
   -5.2000    0.6910   -0.8080 C   0  0  0  0  0  0  0  0  0  0  0  0
    2.8810    0.8060   -1.3430 C   0  0  0  0  0  0  0  0  0  0  0  0
    3.3040   -0.4770   -2.0980 C   0  0  0  0  0  0  0  0  0  0  0  0
    2.0380   -1.0850   -1.4690 C   0  0  0  0  0  0  0  0  0  0  0  0
  1  2  1  0
  2  3  1  0
  3  4  2  0
  3  5  1  0
  5  6  1  1
  5 25  1  0
  5 27  1  0
  6  7  1  0
  7  8  1  0
  7 15  2  0
  8  9  1  0
  8 13  2  0
  9 10  1  0
  9 11  1  0
 11 12  2  0
 13 14  1  0
 14 15  1  0
 15 16  1  0
 16 17  1  0
 17 18  2  0
 17 22  1  0
 18 19  1  0
 19 20  2  0
 20 21  1  0
 21 22  2  0
 22 23  1  0
 23 24  1  0
 25 26  1  0
 26 27  1  0
M  END
