
     RDKit          3D

 28 29  0  0  0  0  0  0  0  0999 V2000
   -1.3450   -3.5010   -1.1490 C   0  0  0  0  0  0  0  0  0  0  0  0
   -1.1400   -2.2660   -0.3330 C   0  0  0  0  0  0  0  0  0  0  0  0
   -0.3890   -2.5620    0.7960 O   0  0  0  0  0  0  0  0  0  0  0  0
   -0.1140   -1.1740    1.7900 P   0  0  0  0  0  0  0  0  0  0  0  0
   -1.0410   -1.2230    3.2450 O   0  0  0  0  0  0  0  0  0  0  0  0
   -1.9840   -2.2510    3.2200 C   0  0  0  0  0  0  0  0  0  0  0  0
   -2.7180   -2.1800    4.5410 C   0  0  0  0  0  0  0  0  0  0  0  0
   -0.4620    0.3810    0.8600 C   0  0  0  0  0  0  0  0  0  0  0  0
   -1.6180    1.0680    1.2090 C   0  0  0  0  0  0  0  0  0  0  0  0
   -1.9720    2.2290    0.5840 C   0  0  0  0  0  0  0  0  0  0  0  0
   -1.1770    2.7540   -0.4220 C   0  0  0  0  0  0  0  0  0  0  0  0
   -1.6070    4.0240   -1.0730 C   0  0  2  0  0  0  0  0  0  0  0  0
   -1.6770    5.1510   -0.0510 C   0  0  0  0  0  0  0  0  0  0  0  0
   -2.9450    3.8890   -1.6880 C   0  0  0  0  0  0  0  0  0  0  0  0
   -3.0630    4.0700   -2.9220 O   0  0  0  0  0  0  0  0  0  0  0  0
   -4.0870    3.5690   -0.9730 O   0  0  0  0  0  0  0  0  0  0  0  0
   -0.0630    2.0720   -0.7430 C   0  0  0  0  0  0  0  0  0  0  0  0
    0.3590    0.8480   -0.1210 C   0  0  0  0  0  0  0  0  0  0  0  0
    1.4410    0.3230   -0.5380 O   0  0  0  0  0  0  0  0  0  0  0  0
    2.5310   -0.2060   -0.9580 C   0  0  0  0  0  0  0  0  0  0  0  0
    3.1960    0.4910   -2.0100 C   0  0  0  0  0  0  0  0  0  0  0  0
    4.3480    0.0870   -2.5740 C   0  0  0  0  0  0  0  0  0  0  0  0
    4.9290    0.8480   -3.6120 O   0  0  0  0  0  0  0  0  0  0  0  0
    4.9320   -1.0640   -2.1210 C   0  0  0  0  0  0  0  0  0  0  0  0
    4.3570   -1.7920   -1.1140 C   0  0  0  0  0  0  0  0  0  0  0  0
    3.1510   -1.3450   -0.5420 C   0  0  0  0  0  0  0  0  0  0  0  0
    2.6570   -2.1360    0.4530 O   0  0  0  0  0  0  0  0  0  0  0  0
    3.4000   -3.6030    1.0300 P   0  0  0  0  0  0  0  0  0  0  0  0
  1  2  1  0
  2  3  1  0
  3  4  1  0
  4  5  1  0
  4  8  1  0
  5  6  1  0
  6  7  1  0
  8  9  2  0
  8 18  1  0
  9 10  1  0
 10 11  2  0
 11 12  1  0
 11 17  1  0
 12 13  1  1
 12 14  1  0
 14 15  2  0
 14 16  1  0
 17 18  2  0
 18 19  1  0
 19 20  1  0
 20 21  2  0
 20 26  1  0
 21 22  1  0
 22 23  1  0
 22 24  2  0
 24 25  1  0
 25 26  2  0
 26 27  1  0
 27 28  1  0
M  END
