
     RDKit          3D

 28 30  0  0  0  0  0  0  0  0999 V2000
   -7.2690   -1.3050    0.5610 C   0  0  0  0  0  0  0  0  0  0  0  0
   -6.1970   -0.9870    1.5970 C   0  0  0  0  0  0  0  0  0  0  0  0
   -5.0090   -0.4470    0.8370 C   0  0  2  0  0  0  0  0  0  0  0  0
   -3.9470   -0.1130    1.6730 O   0  0  0  0  0  0  0  0  0  0  0  0
   -2.8080    0.0880    0.9290 C   0  0  0  0  0  0  0  0  0  0  0  0
   -3.0120    1.0470   -0.1920 C   0  0  0  0  0  0  0  0  0  0  0  0
   -1.8950    1.6010   -0.8050 C   0  0  0  0  0  0  0  0  0  0  0  0
   -0.6070    1.2810   -0.3940 O   0  0  0  0  0  0  0  0  0  0  0  0
    0.0370    0.2070   -0.9870 C   0  0  0  0  0  0  0  0  0  0  0  0
   -0.5590   -0.4500   -1.8790 O   0  0  0  0  0  0  0  0  0  0  0  0
    1.3980   -0.1850   -0.5990 C   0  0  0  0  0  0  0  0  0  0  0  0
    2.0330   -1.2510   -1.1890 C   0  0  0  0  0  0  0  0  0  0  0  0
    3.3200   -1.6280   -0.8280 C   0  0  0  0  0  0  0  0  0  0  0  0
    3.9990   -0.9260    0.1480 C   0  0  0  0  0  0  0  0  0  0  0  0
    5.6750   -1.4040    0.6300 P   0  0  0  0  0  0  0  0  0  0  0  0
    6.8800   -0.2450    0.1190 O   0  0  0  0  0  0  0  0  0  0  0  0
    8.0830   -0.0430    0.7690 C   0  0  0  0  0  0  0  0  0  0  0  0
    9.0840    0.9690    0.2850 C   0  0  0  0  0  0  0  0  0  0  0  0
    8.3200   -0.7380    1.7890 O   0  0  0  0  0  0  0  0  0  0  0  0
    6.1820   -3.4450    0.0630 P   0  0  0  0  0  0  0  0  0  0  0  0
    6.0300   -4.6620    0.9970 O   0  0  0  0  0  0  0  0  0  0  0  0
    3.3590    0.1420    0.7370 C   0  0  0  0  0  0  0  0  0  0  0  0
    2.0650    0.5250    0.3780 C   0  0  0  0  0  0  0  0  0  0  0  0
   -2.1290    2.4970   -1.8530 C   0  0  0  0  0  0  0  0  0  0  0  0
   -3.4030    2.8120   -2.2560 C   0  0  0  0  0  0  0  0  0  0  0  0
   -4.4710    2.2320   -1.6130 C   0  0  0  0  0  0  0  0  0  0  0  0
   -4.3020    1.3430   -0.5730 C   0  0  0  0  0  0  0  0  0  0  0  0
   -5.3370    0.7270    0.1130 O   0  0  0  0  0  0  0  0  0  0  0  0
  1  2  1  0
  3  2  1  1
  3  4  1  0
  3 28  1  0
  4  5  1  0
  5  6  1  0
  6  7  2  0
  6 27  1  0
  7  8  1  0
  7 24  1  0
  8  9  1  0
  9 10  2  0
  9 11  1  0
 11 12  2  0
 11 23  1  0
 12 13  1  0
 13 14  2  0
 14 15  1  0
 14 22  1  0
 15 16  1  0
 15 20  1  0
 16 17  1  0
 17 18  1  0
 17 19  2  0
 20 21  2  0
 22 23  2  0
 24 25  2  0
 25 26  1  0
 26 27  2  0
 27 28  1  0
M  END
