
     RDKit          3D

 28 30  0  0  0  0  0  0  0  0999 V2000
    6.2010    1.3170   -2.2030 C   0  0  0  0  0  0  0  0  0  0  0  0
    5.5790    0.8420   -0.9240 C   0  0  0  0  0  0  0  0  0  0  0  0
    4.4090    1.5740   -0.7020 O   0  0  0  0  0  0  0  0  0  0  0  0
    3.6540    1.0440    0.7880 P   0  0  0  0  0  0  0  0  0  0  0  0
    2.5140   -0.3670    0.4020 C   0  0  0  0  0  0  0  0  0  0  0  0
    1.2380    0.1120    0.0960 O   0  0  0  0  0  0  0  0  0  0  0  0
    0.1720   -0.7240   -0.2350 C   0  0  0  0  0  0  0  0  0  0  0  0
    0.3970   -2.0850   -0.2590 C   0  0  0  0  0  0  0  0  0  0  0  0
   -0.6380   -2.9570   -0.5850 C   0  0  0  0  0  0  0  0  0  0  0  0
   -1.8790   -2.4630   -0.8800 C   0  0  0  0  0  0  0  0  0  0  0  0
   -2.0740   -1.0860   -0.8450 C   0  0  0  0  0  0  0  0  0  0  0  0
   -1.0840   -0.2000   -0.5320 C   0  0  0  0  0  0  0  0  0  0  0  0
   -3.3340   -0.4170   -1.1070 C   0  0  0  0  0  0  0  0  0  0  0  0
   -3.4330    0.7760   -0.4490 C   0  0  0  0  0  0  0  0  0  0  0  0
   -4.5710    1.5390   -0.6220 C   0  0  0  0  0  0  0  0  0  0  0  0
   -4.7450    2.7680    0.0130 O   0  0  0  0  0  0  0  0  0  0  0  0
   -5.3360    2.8960    1.2590 C   0  0  0  0  0  0  0  0  0  0  0  0
   -5.7330    1.8540    1.8400 O   0  0  0  0  0  0  0  0  0  0  0  0
   -5.5680    4.4930    2.0970 P   0  0  0  0  0  0  0  0  0  0  0  0
   -5.5660    1.0640   -1.4540 C   0  0  0  0  0  0  0  0  0  0  0  0
   -5.4550   -0.1610   -2.1210 C   0  0  0  0  0  0  0  0  0  0  0  0
   -4.3350   -0.9020   -1.9450 C   0  0  0  0  0  0  0  0  0  0  0  0
   -4.2800   -2.1250   -2.6330 O   0  0  0  0  0  0  0  0  0  0  0  0
   -3.8640   -3.3920   -2.1830 C   0  0  0  0  0  0  0  0  0  0  0  0
   -2.8570   -3.4020   -1.2020 O   0  0  0  0  0  0  0  0  0  0  0  0
    4.9480    0.5270    1.8370 O   0  0  0  0  0  0  0  0  0  0  0  0
    4.4680    0.4570    3.1430 C   0  0  0  0  0  0  0  0  0  0  0  0
    5.6440    0.0010    4.0070 C   0  0  0  0  0  0  0  0  0  0  0  0
  1  2  1  0
  2  3  1  0
  3  4  1  0
  4  5  1  0
  4 26  1  0
  5  6  1  0
  6  7  1  0
  7  8  2  0
  7 12  1  0
  8  9  1  0
  9 10  2  0
 10 11  1  0
 10 25  1  0
 11 12  2  0
 11 13  1  0
 13 14  2  0
 13 22  1  0
 14 15  1  0
 15 16  1  0
 15 20  2  0
 16 17  1  0
 17 18  2  0
 17 19  1  0
 20 21  1  0
 21 22  2  0
 22 23  1  0
 23 24  1  0
 24 25  1  0
 26 27  1  0
 27 28  1  0
M  END
