
     RDKit          3D

 27 28  0  0  0  0  0  0  0  0999 V2000
   -7.8650   -0.9920    0.0930 C   0  0  0  0  0  0  0  0  0  0  0  0
   -6.7570   -0.2520    0.7690 C   0  0  0  0  0  0  0  0  0  0  0  0
   -6.9270    0.8840    1.2980 O   0  0  0  0  0  0  0  0  0  0  0  0
   -5.5160   -0.8200    0.8210 O   0  0  0  0  0  0  0  0  0  0  0  0
   -4.3810   -0.2010    1.4440 C   0  0  1  0  0  0  0  0  0  0  0  0
   -3.9660   -1.0380    2.5760 C   0  0  0  0  0  0  0  0  0  0  0  0
   -3.4100    0.0850    0.4100 C   0  0  0  0  0  0  0  0  0  0  0  0
   -3.8790    0.6590   -0.7710 C   0  0  0  0  0  0  0  0  0  0  0  0
   -3.0530    0.9710   -1.8080 C   0  0  0  0  0  0  0  0  0  0  0  0
   -3.5230    1.5810   -3.0750 C   0  0  0  0  0  0  0  0  0  0  0  0
   -1.6850    0.7050   -1.6850 C   0  0  0  0  0  0  0  0  0  0  0  0
   -1.1860    0.1390   -0.5330 C   0  0  0  0  0  0  0  0  0  0  0  0
    0.1610   -0.1310   -0.3890 O   0  0  0  0  0  0  0  0  0  0  0  0
    1.0230    0.1900   -1.4630 C   0  0  0  0  0  0  0  0  0  0  0  0
    2.3610   -0.1270   -1.2060 O   0  0  0  0  0  0  0  0  0  0  0  0
    3.0000    0.4680   -0.1280 C   0  0  0  0  0  0  0  0  0  0  0  0
    2.3510    1.2900    0.6000 O   0  0  0  0  0  0  0  0  0  0  0  0
    4.3770    0.1450    0.1400 C   0  0  0  0  0  0  0  0  0  0  0  0
    4.9970    0.7520    1.2220 C   0  0  0  0  0  0  0  0  0  0  0  0
    6.3100    0.4630    1.5020 C   0  0  0  0  0  0  0  0  0  0  0  0
    7.0250   -0.4310    0.7140 C   0  0  0  0  0  0  0  0  0  0  0  0
    8.7780   -0.8340    1.0680 P   0  0  0  0  0  0  0  0  0  0  0  0
    9.6350    0.6070    1.5300 O   0  0  0  0  0  0  0  0  0  0  0  0
    9.4790   -1.4970   -0.3650 O   0  0  0  0  0  0  0  0  0  0  0  0
    6.3810   -1.0230   -0.3600 C   0  0  0  0  0  0  0  0  0  0  0  0
    5.0640   -0.7430   -0.6550 C   0  0  0  0  0  0  0  0  0  0  0  0
   -2.0490   -0.1540    0.4770 C   0  0  0  0  0  0  0  0  0  0  0  0
  1  2  1  0
  2  3  2  0
  2  4  1  0
  4  5  1  0
  5  6  1  1
  5  7  1  0
  7  8  2  0
  7 27  1  0
  8  9  1  0
  9 10  1  0
  9 11  2  0
 11 12  1  0
 12 13  1  0
 12 27  2  0
 13 14  1  0
 14 15  1  0
 15 16  1  0
 16 17  2  0
 16 18  1  0
 18 19  2  0
 18 26  1  0
 19 20  1  0
 20 21  2  0
 21 22  1  0
 21 25  1  0
 22 23  1  0
 22 24  1  0
 25 26  2  0
M  END
