
     RDKit          3D

 29 29  0  0  0  0  0  0  0  0999 V2000
   -7.7760    0.6290   -1.0900 C   0  0  0  0  0  0  0  0  0  0  0  0
   -6.4490    0.3350   -1.4620 O   0  0  0  0  0  0  0  0  0  0  0  0
   -5.4530    0.4270   -0.5180 C   0  0  0  0  0  0  0  0  0  0  0  0
   -5.7570    0.7700    0.6470 O   0  0  0  0  0  0  0  0  0  0  0  0
   -4.0520    0.1330   -0.8420 C   0  0  1  0  0  0  0  0  0  0  0  0
   -3.9210   -1.2960   -1.3230 C   0  0  0  0  0  0  0  0  0  0  0  0
   -3.5790    1.0130   -1.9930 C   0  0  0  0  0  0  0  0  0  0  0  0
   -3.2040    0.3820    0.3330 C   0  0  0  0  0  0  0  0  0  0  0  0
   -2.4320   -0.4560    1.0360 C   0  0  0  0  0  0  0  0  0  0  0  0
   -2.2820   -1.8340    0.7540 N   0  0  0  0  0  0  0  0  0  0  0  0
   -1.2260   -2.4240    0.3570 C   0  0  0  0  0  0  0  0  0  0  0  0
    0.0260   -1.8370    0.1100 N   0  0  0  0  0  0  0  0  0  0  0  0
    0.4910   -1.6210   -1.2250 C   0  0  0  0  0  0  0  0  0  0  0  0
    0.8700   -1.4410    1.2310 C   0  0  0  0  0  0  0  0  0  0  0  0
    2.1060   -2.3190    1.3080 C   0  0  0  0  0  0  0  0  0  0  0  0
    2.8770   -1.9360    2.3680 O   0  0  0  0  0  0  0  0  0  0  0  0
    3.3250   -0.6700    2.3080 C   0  0  0  0  0  0  0  0  0  0  0  0
    4.2080   -0.4420    1.1570 C   0  0  0  0  0  0  0  0  0  0  0  0
    4.5570   -1.3550    0.3860 O   0  0  0  0  0  0  0  0  0  0  0  0
    4.7180    0.8380    0.8540 O   0  0  0  0  0  0  0  0  0  0  0  0
    5.5480    0.9900   -0.2440 C   0  0  2  0  0  0  0  0  0  0  0  0
    4.9240    0.6010   -1.5640 C   0  0  0  0  0  0  0  0  0  0  0  0
    6.7590    0.1590   -0.1220 N   0  0  0  0  0  0  0  0  0  0  0  0
    5.9770    2.4080   -0.3430 C   0  0  0  0  0  0  0  0  0  0  0  0
    6.7200    2.8210   -1.2180 O   0  0  0  0  0  0  0  0  0  0  0  0
    5.3780    3.6150    0.8930 P   0  0  0  0  0  0  0  0  0  0  0  0
   -1.8200    0.3660    2.1050 C   0  0  0  0  0  0  0  0  0  0  0  0
   -2.7810    1.3500    2.3190 O   0  0  0  0  0  0  0  0  0  0  0  0
   -3.0690    1.7240    0.9860 C   0  0  0  0  0  0  0  0  0  0  0  0
  1  2  1  0
  2  3  1  0
  3  4  2  0
  3  5  1  0
  5  6  1  6
  5  7  1  0
  5  8  1  0
  8  9  2  0
  8 29  1  0
  9 10  1  0
  9 27  1  0
 10 11  2  3
 11 12  1  0
 12 13  1  0
 12 14  1  0
 14 15  1  0
 15 16  1  0
 16 17  1  0
 17 18  1  0
 18 19  2  0
 18 20  1  0
 20 21  1  0
 21 22  1  6
 21 23  1  0
 21 24  1  0
 24 25  2  0
 24 26  1  0
 27 28  1  0
 28 29  1  0
M  END
