
     RDKit          3D

 30 30  0  0  0  0  0  0  0  0999 V2000
   -4.3980    4.9780   -0.6620 C   0  0  0  0  0  0  0  0  0  0  0  0
   -3.5430    4.9420    0.2960 N   0  0  0  0  0  0  0  0  0  0  0  0
   -3.1090    3.7160    0.8060 N   0  0  0  0  0  0  0  0  0  0  0  0
   -2.7630    2.6060   -0.0210 C   0  0  0  0  0  0  0  0  0  0  0  0
   -2.8650    2.7720   -1.2720 O   0  0  0  0  0  0  0  0  0  0  0  0
   -2.3090    1.3290    0.5790 C   0  0  0  0  0  0  0  0  0  0  0  0
   -2.0250    0.3690   -0.5600 C   0  0  0  0  0  0  0  0  0  0  0  0
   -1.5650   -0.9080   -0.1500 N   0  0  0  0  0  0  0  0  0  0  0  0
   -2.7000   -1.8570    0.0660 C   0  0  0  0  0  0  0  0  0  0  0  0
   -3.0270   -2.6950   -1.0920 C   0  0  2  0  0  0  0  0  0  0  0  0
   -3.4200   -1.9900   -2.3490 C   0  0  0  0  0  0  0  0  0  0  0  0
   -4.1130   -3.5220   -0.7050 O   0  0  0  0  0  0  0  0  0  0  0  0
   -3.7300   -5.1880   -0.6940 P   0  0  0  0  0  0  0  0  0  0  0  0
   -4.2820   -6.0640    0.4800 O   0  0  0  0  0  0  0  0  0  0  0  0
   -0.2670   -1.3780    0.0970 C   0  0  0  0  0  0  0  0  0  0  0  0
   -0.2150   -2.6510    0.4090 O   0  0  0  0  0  0  0  0  0  0  0  0
    1.0050   -0.7280    0.0700 C   0  0  0  0  0  0  0  0  0  0  0  0
    1.1750    0.5640   -0.1870 C   0  0  0  0  0  0  0  0  0  0  0  0
    2.4660    1.2040   -0.2130 C   0  0  0  0  0  0  0  0  0  0  0  0
    3.6290    0.5840    0.0140 C   0  0  0  0  0  0  0  0  0  0  0  0
    4.8540    1.3280   -0.0390 C   0  0  0  0  0  0  0  0  0  0  0  0
    6.0320    0.8170    0.1660 C   0  0  0  0  0  0  0  0  0  0  0  0
    7.2150    1.6960    0.0810 C   0  0  0  0  0  0  0  0  0  0  0  0
    8.3840    1.2780    0.2660 O   0  0  0  0  0  0  0  0  0  0  0  0
    7.0490    3.0400   -0.2130 O   0  0  0  0  0  0  0  0  0  0  0  0
    3.5200   -0.8220    0.2980 C   0  0  0  0  0  0  0  0  0  0  0  0
    4.5410   -1.5190    0.5290 O   0  0  0  0  0  0  0  0  0  0  0  0
    2.2200   -1.5360    0.3390 C   0  0  0  0  0  0  0  0  0  0  0  0
    2.2290   -2.8230    0.5990 C   0  0  0  0  0  0  0  0  0  0  0  0
    3.4890   -3.4430    0.8350 O   0  0  0  0  0  0  0  0  0  0  0  0
  1  2  2  0
  2  3  1  0
  3  4  1  0
  4  5  2  0
  4  6  1  0
  6  7  1  0
  7  8  1  0
  8  9  1  0
  8 15  1  0
  9 10  1  0
 10 11  1  6
 10 12  1  0
 12 13  1  0
 13 14  2  0
 15 16  2  0
 15 17  1  0
 17 18  2  0
 17 28  1  0
 18 19  1  0
 19 20  2  0
 20 21  1  0
 20 26  1  0
 21 22  2  3
 22 23  1  0
 23 24  2  0
 23 25  1  0
 26 27  2  0
 26 28  1  0
 28 29  2  3
 29 30  1  0
M  END
