
     RDKit          3D

 29 30  0  0  0  0  0  0  0  0999 V2000
    2.8040    4.3890   -2.1020 C   0  0  0  0  0  0  0  0  0  0  0  0
    2.1140    5.0540   -1.1290 O   0  0  0  0  0  0  0  0  0  0  0  0
    1.7020    4.3540   -0.0930 O   0  0  0  0  0  0  0  0  0  0  0  0
    1.3800    2.9900   -0.1340 C   0  0  0  0  0  0  0  0  0  0  0  0
    1.5160    2.4500   -1.2570 O   0  0  0  0  0  0  0  0  0  0  0  0
    0.9350    2.3150    1.0290 N   0  0  0  0  0  0  0  0  0  0  0  0
    0.6220    0.8790    0.8970 C   0  0  1  0  0  0  0  0  0  0  0  0
    1.8920    0.1990    0.5810 C   0  0  0  0  0  0  0  0  0  0  0  0
    1.8210   -1.2320    0.3710 N   0  0  0  0  0  0  0  0  0  0  0  0
    3.1810   -1.7540    0.2340 C   0  0  2  0  0  0  0  0  0  0  0  0
    3.8910   -1.5270    1.5660 C   0  0  0  0  0  0  0  0  0  0  0  0
    3.8390   -0.9850   -0.7080 O   0  0  0  0  0  0  0  0  0  0  0  0
    3.2380   -3.0650   -0.1580 O   0  0  0  0  0  0  0  0  0  0  0  0
    2.6730   -3.3540   -1.3800 C   0  0  0  0  0  0  0  0  0  0  0  0
   -0.0060    0.4070    2.1690 C   0  0  0  0  0  0  0  0  0  0  0  0
   -1.0260   -0.3570    1.8400 C   0  0  0  0  0  0  0  0  0  0  0  0
   -1.1510   -0.4510    0.3250 C   0  0  1  0  0  0  0  0  0  0  0  0
   -2.5820   -0.3960   -0.0830 C   0  0  0  0  0  0  0  0  0  0  0  0
   -3.2060   -0.9660   -1.0330 C   0  0  0  0  0  0  0  0  0  0  0  0
   -2.8040   -1.8770   -2.0880 C   0  0  1  0  0  0  0  0  0  0  0  0
   -1.3630   -2.0770   -2.3380 C   0  0  0  0  0  0  0  0  0  0  0  0
   -3.5170   -3.2410   -1.9580 C   0  0  0  0  0  0  0  0  0  0  0  0
   -3.2820    0.4920    0.8290 O   0  0  0  0  0  0  0  0  0  0  0  0
   -2.3920    1.5120    1.2460 C   0  0  0  0  0  0  0  0  0  0  0  0
   -2.5050    2.0290    2.4060 N   0  0  0  0  0  0  0  0  0  0  0  0
   -3.4850    1.6730    3.3790 C   0  0  0  0  0  0  0  0  0  0  0  0
   -4.7290    2.2530    3.0510 O   0  0  0  0  0  0  0  0  0  0  0  0
   -1.3690    1.8890    0.2380 C   0  0  0  0  0  0  0  0  0  0  0  0
   -0.4520    0.7690   -0.0270 N   0  0  0  0  0  0  0  0  0  0  0  0
  1  2  1  0
  2  3  1  0
  3  4  1  0
  4  5  2  0
  4  6  1  0
  6  7  1  0
  7  8  1  6
  7 15  1  0
  7 29  1  0
  8  9  1  0
  9 10  1  0
 10 11  1  1
 10 12  1  0
 10 13  1  0
 13 14  1  0
 15 16  2  0
 17 16  1  1
 17 18  1  0
 17 29  1  0
 18 19  2  3
 18 23  1  0
 19 20  1  0
 20 21  1  1
 20 22  1  0
 23 24  1  0
 24 25  2  3
 24 28  1  0
 25 26  1  0
 26 27  1  0
 28 29  1  0
M  END
