
     RDKit          3D

 29 30  0  0  0  0  0  0  0  0999 V2000
    5.2080   -4.2520    1.5980 C   0  0  0  0  0  0  0  0  0  0  0  0
    3.7940   -3.0410    1.3590 P   0  0  0  0  0  0  0  0  0  0  0  0
    2.3280   -3.9690    1.4790 O   0  0  0  0  0  0  0  0  0  0  0  0
    3.9770   -2.3350   -0.3490 C   0  0  1  0  0  0  0  0  0  0  0  0
    4.0240   -3.4420   -1.2280 O   0  0  0  0  0  0  0  0  0  0  0  0
    2.8540   -1.5000   -0.7060 N   0  0  0  0  0  0  0  0  0  0  0  0
    3.1050   -0.1530   -1.0690 C   0  0  0  0  0  0  0  0  0  0  0  0
    4.2960    0.2370   -1.0590 O   0  0  0  0  0  0  0  0  0  0  0  0
    2.1010    0.7800   -1.4430 N   0  0  0  0  0  0  0  0  0  0  0  0
    0.7590    0.3080   -1.4620 C   0  0  0  0  0  0  0  0  0  0  0  0
   -0.0410    0.3520   -0.2230 C   0  0  0  0  0  0  0  0  0  0  0  0
   -1.3330   -0.2010   -0.5680 O   0  0  0  0  0  0  0  0  0  0  0  0
   -2.3230   -0.3030    0.3710 N   0  0  0  0  0  0  0  0  0  0  0  0
   -3.5260   -0.6030    0.0760 C   0  0  0  0  0  0  0  0  0  0  0  0
   -3.9880   -0.8710   -1.2920 C   0  0  0  0  0  0  0  0  0  0  0  0
   -3.2270   -1.0280   -2.2880 O   0  0  0  0  0  0  0  0  0  0  0  0
   -5.4750   -0.9140   -1.2450 C   0  0  0  0  0  0  0  0  0  0  0  0
   -5.8020   -0.4520    0.0680 N   0  0  0  0  0  0  0  0  0  0  0  0
   -5.9040    0.9780    0.1760 C   0  0  0  0  0  0  0  0  0  0  0  0
   -5.3240    1.3750    1.3470 O   0  0  0  0  0  0  0  0  0  0  0  0
   -4.8180    0.2850    2.0060 C   0  0  0  0  0  0  0  0  0  0  0  0
   -4.6970   -0.7550    0.9410 C   0  0  2  0  0  0  0  0  0  0  0  0
   -4.8570   -2.1660    1.4640 C   0  0  0  0  0  0  0  0  0  0  0  0
   -6.0240   -2.3370    2.1720 O   0  0  0  0  0  0  0  0  0  0  0  0
    2.4710    2.0920   -1.8460 C   0  0  0  0  0  0  0  0  0  0  0  0
    2.6250    3.1460   -0.8220 C   0  0  2  0  0  0  0  0  0  0  0  0
    3.0440    4.4210   -1.6020 C   0  0  0  0  0  0  0  0  0  0  0  0
    3.7980    2.9060    0.1270 C   0  0  0  0  0  0  0  0  0  0  0  0
    1.4260    3.5410   -0.0460 C   0  0  0  0  0  0  0  0  0  0  0  0
  1  2  1  0
  2  3  1  0
  2  4  1  0
  4  5  1  6
  4  6  1  0
  6  7  1  0
  7  8  2  0
  7  9  1  0
  9 10  1  0
  9 25  1  0
 10 11  1  0
 11 12  1  0
 12 13  1  0
 13 14  2  3
 14 15  1  0
 14 22  1  0
 15 16  2  0
 15 17  1  0
 17 18  1  0
 18 19  1  0
 18 22  1  0
 19 20  1  0
 20 21  1  0
 21 22  1  0
 22 23  1  1
 23 24  1  0
 25 26  1  0
 26 27  1  6
 26 28  1  0
 26 29  1  0
M  END
