
     RDKit          3D

 29 30  0  0  0  0  0  0  0  0999 V2000
   -6.9050   -4.3810   -0.9600 C   0  0  0  0  0  0  0  0  0  0  0  0
   -6.0980   -3.2080   -1.1100 N   0  0  0  0  0  0  0  0  0  0  0  0
   -4.7450   -3.1120   -0.6960 C   0  0  0  0  0  0  0  0  0  0  0  0
   -4.2200   -4.1170   -0.1640 O   0  0  0  0  0  0  0  0  0  0  0  0
   -3.9790   -1.9800   -0.8440 O   0  0  0  0  0  0  0  0  0  0  0  0
   -2.7020   -1.8780   -0.4580 O   0  0  0  0  0  0  0  0  0  0  0  0
   -2.6450   -1.4080    0.8270 C   0  0  1  0  0  0  0  0  0  0  0  0
   -1.9520   -2.2480    1.7980 C   0  0  0  0  0  0  0  0  0  0  0  0
   -2.5990   -3.3630    2.4500 N   0  0  0  0  0  0  0  0  0  0  0  0
   -0.7310   -1.8450    1.9630 C   0  0  0  0  0  0  0  0  0  0  0  0
   -0.4210   -0.6910    1.1390 C   0  0  2  0  0  0  0  0  0  0  0  0
    0.2410   -1.0340   -0.1620 C   0  0  0  0  0  0  0  0  0  0  0  0
    1.5130   -1.7910   -0.1100 C   0  0  0  0  0  0  0  0  0  0  0  0
    2.6850   -1.1990    0.5660 C   0  0  0  0  0  0  0  0  0  0  0  0
    3.1820    0.0720    0.0060 C   0  0  0  0  0  0  0  0  0  0  0  0
    2.6580    0.6000   -0.9930 O   0  0  0  0  0  0  0  0  0  0  0  0
    4.2580    0.6940    0.6070 O   0  0  0  0  0  0  0  0  0  0  0  0
    4.8930    2.2110   -0.0170 P   0  0  0  0  0  0  0  0  0  0  0  0
    6.7370    2.2190   -0.0750 C   0  0  0  0  0  0  0  0  0  0  0  0
    0.1220    0.5120    1.8270 C   0  0  0  0  0  0  0  0  0  0  0  0
   -0.4410    1.5390    0.9150 N   0  0  0  0  0  0  0  0  0  0  0  0
    0.2670    2.6450    0.4500 C   0  0  0  0  0  0  0  0  0  0  0  0
    0.4260    2.9570   -0.8300 C   0  0  0  0  0  0  0  0  0  0  0  0
    1.1820    4.1330   -1.2240 C   0  0  0  0  0  0  0  0  0  0  0  0
    1.3250    4.4160   -2.4260 O   0  0  0  0  0  0  0  0  0  0  0  0
    1.7530    4.9560   -0.2610 O   0  0  0  0  0  0  0  0  0  0  0  0
    2.5000    6.1160   -0.6090 C   0  0  0  0  0  0  0  0  0  0  0  0
   -1.7420    1.0820    0.7090 N   0  0  0  0  0  0  0  0  0  0  0  0
   -1.8290   -0.1780    0.8420 C   0  0  0  0  0  0  0  0  0  0  0  0
  1  2  1  0
  2  3  1  0
  3  4  2  0
  3  5  1  0
  5  6  1  0
  7  6  1  6
  7  8  1  0
  7 29  1  0
  8  9  1  0
  8 10  2  0
 10 11  1  0
 11 12  1  6
 11 20  1  0
 11 29  1  0
 12 13  1  0
 13 14  1  0
 14 15  1  0
 15 16  2  0
 15 17  1  0
 17 18  1  0
 18 19  1  0
 20 21  1  0
 21 22  1  0
 21 28  1  0
 22 23  2  3
 23 24  1  0
 24 25  2  0
 24 26  1  0
 26 27  1  0
 28 29  2  0
M  END
