
     RDKit          3D

 30 31  0  0  0  0  0  0  0  0999 V2000
    5.3200    1.8630   -0.2530 C   0  0  0  0  0  0  0  0  0  0  0  0
    4.2240    2.4770   -0.5760 C   0  0  0  0  0  0  0  0  0  0  0  0
    2.8770    1.9550   -0.4810 C   0  0  0  0  0  0  0  0  0  0  0  0
    2.5490    0.7620   -0.0490 C   0  0  0  0  0  0  0  0  0  0  0  0
    3.4550   -0.1470    0.3710 N   0  0  0  0  0  0  0  0  0  0  0  0
    2.8440   -1.2800    0.7580 C   0  0  0  0  0  0  0  0  0  0  0  0
    3.4940   -2.4790    1.2700 C   0  0  0  0  0  0  0  0  0  0  0  0
    2.7800   -3.4540    1.5880 O   0  0  0  0  0  0  0  0  0  0  0  0
    5.3090   -2.4780    1.4130 P   0  0  0  0  0  0  0  0  0  0  0  0
    6.0830   -2.6990   -0.1220 O   0  0  0  0  0  0  0  0  0  0  0  0
    1.5600   -1.0710    0.5770 O   0  0  0  0  0  0  0  0  0  0  0  0
    1.3360    0.1220    0.1010 C   0  0  0  0  0  0  0  0  0  0  0  0
    0.1370    0.6380   -0.1920 C   0  0  0  0  0  0  0  0  0  0  0  0
    0.0290    1.9260   -0.6950 O   0  0  0  0  0  0  0  0  0  0  0  0
   -1.1490    2.5510   -1.0290 C   0  0  0  0  0  0  0  0  0  0  0  0
   -2.3510    1.7120   -0.8010 C   0  0  0  0  0  0  0  0  0  0  0  0
   -3.6030    2.2940   -1.1220 O   0  0  0  0  0  0  0  0  0  0  0  0
   -4.7120    1.6920   -0.5610 C   0  0  0  0  0  0  0  0  0  0  0  0
   -4.7040    1.3690    0.6650 N   0  0  0  0  0  0  0  0  0  0  0  0
   -3.6400    1.5940    1.4710 O   0  0  0  0  0  0  0  0  0  0  0  0
   -3.3310    2.8470    2.0500 C   0  0  0  0  0  0  0  0  0  0  0  0
   -2.3190    0.5250   -0.3420 N   0  0  0  0  0  0  0  0  0  0  0  0
   -1.0760   -0.1230    0.0050 C   0  0  0  0  0  0  0  0  0  0  0  0
   -1.0910   -1.3490    0.4740 C   0  0  0  0  0  0  0  0  0  0  0  0
   -2.4190   -2.0670    0.6450 C   0  0  0  0  0  0  0  0  0  0  0  0
   -2.4320   -3.2710   -0.1650 N   0  0  0  0  0  0  0  0  0  0  0  0
   -3.6900   -3.9320    0.0100 C   0  0  0  0  0  0  0  0  0  0  0  0
   -2.1400   -3.0100   -1.5480 C   0  0  0  0  0  0  0  0  0  0  0  0
    4.3260    3.8010   -1.0760 O   0  0  0  0  0  0  0  0  0  0  0  0
    3.6200    4.1100   -2.1780 O   0  0  0  0  0  0  0  0  0  0  0  0
  1  2  2  0
  2  3  1  0
  2 29  1  0
  3  4  2  3
  4  5  1  0
  4 12  1  0
  5  6  2  0
  6  7  1  0
  6 11  1  0
  7  8  2  0
  7  9  1  0
  9 10  1  0
 11 12  1  0
 12 13  2  3
 13 14  1  0
 13 23  1  0
 14 15  1  0
 15 16  1  0
 16 17  1  0
 16 22  2  0
 17 18  1  0
 18 19  2  3
 19 20  1  0
 20 21  1  0
 22 23  1  0
 23 24  2  3
 24 25  1  0
 25 26  1  0
 26 27  1  0
 26 28  1  0
 29 30  1  0
M  END
