
     RDKit          3D

 30 30  0  0  0  0  0  0  0  0999 V2000
   -0.8180    5.9450   -1.1580 C   0  0  0  0  0  0  0  0  0  0  0  0
   -1.6460    4.9060   -0.5740 N   0  0  0  0  0  0  0  0  0  0  0  0
   -2.9870    5.1390   -0.2260 N   0  0  0  0  0  0  0  0  0  0  0  0
   -1.1100    3.6190   -0.3400 C   0  0  0  0  0  0  0  0  0  0  0  0
    0.0880    3.4020   -0.6480 O   0  0  0  0  0  0  0  0  0  0  0  0
   -1.9420    2.5470    0.2560 C   0  0  0  0  0  0  0  0  0  0  0  0
   -1.0650    1.2650    0.3810 C   0  0  1  0  0  0  0  0  0  0  0  0
   -1.9280    0.2050    0.9830 C   0  0  0  0  0  0  0  0  0  0  0  0
   -1.3630   -1.0830    1.1850 N   0  0  0  0  0  0  0  0  0  0  0  0
   -0.6020   -1.2850    2.4060 C   0  0  0  0  0  0  0  0  0  0  0  0
   -0.4630   -0.3580    3.2450 O   0  0  0  0  0  0  0  0  0  0  0  0
   -1.5220   -2.2640    0.3760 C   0  0  2  0  0  0  0  0  0  0  0  0
   -2.3200   -3.2210    1.3480 C   0  0  0  0  0  0  0  0  0  0  0  0
   -0.2260   -2.9630    0.2160 C   0  0  0  0  0  0  0  0  0  0  0  0
   -0.0910   -3.9160   -0.5570 O   0  0  0  0  0  0  0  0  0  0  0  0
   -2.3190   -2.1460   -0.8670 C   0  0  0  0  0  0  0  0  0  0  0  0
   -3.6400   -1.7720   -0.6410 O   0  0  0  0  0  0  0  0  0  0  0  0
   -0.5740    0.8820   -0.9460 C   0  0  0  0  0  0  0  0  0  0  0  0
   -1.2300    1.2590   -1.9370 O   0  0  0  0  0  0  0  0  0  0  0  0
    0.6300    0.0840   -1.2030 C   0  0  0  0  0  0  0  0  0  0  0  0
    1.4100   -0.1860   -0.0580 O   0  0  0  0  0  0  0  0  0  0  0  0
    2.5960   -0.9160   -0.2510 C   0  0  0  0  0  0  0  0  0  0  0  0
    3.4200   -1.2250    0.8120 C   0  0  0  0  0  0  0  0  0  0  0  0
    4.5860   -1.9440    0.6140 C   0  0  0  0  0  0  0  0  0  0  0  0
    4.9120   -2.3470   -0.6600 C   0  0  0  0  0  0  0  0  0  0  0  0
    6.0540   -3.0700   -0.9700 O   0  0  0  0  0  0  0  0  0  0  0  0
    7.2420   -3.5770    0.1930 P   0  0  0  0  0  0  0  0  0  0  0  0
    7.6800   -2.6380    1.3290 O   0  0  0  0  0  0  0  0  0  0  0  0
    4.0750   -2.0300   -1.7210 C   0  0  0  0  0  0  0  0  0  0  0  0
    2.9730   -1.3390   -1.4670 N   0  0  0  0  0  0  0  0  0  0  0  0
  1  2  1  0
  2  3  1  0
  2  4  1  0
  4  5  2  0
  4  6  1  0
  7  6  1  6
  7  8  1  0
  7 18  1  0
  8  9  1  0
  9 10  1  0
  9 12  1  0
 10 11  2  0
 12 13  1  1
 12 14  1  0
 12 16  1  0
 14 15  2  0
 16 17  1  0
 18 19  2  0
 18 20  1  0
 20 21  1  0
 21 22  1  0
 22 23  2  0
 22 30  1  0
 23 24  1  0
 24 25  2  0
 25 26  1  0
 25 29  1  0
 26 27  1  0
 27 28  2  0
 29 30  2  0
M  END
