
     RDKit          3D

 30 31  0  0  0  0  0  0  0  0999 V2000
   -3.4890    6.0750    1.8800 C   0  0  0  0  0  0  0  0  0  0  0  0
   -3.3910    4.8110    1.3550 O   0  0  0  0  0  0  0  0  0  0  0  0
   -2.0820    4.4050    1.1690 C   0  0  0  0  0  0  0  0  0  0  0  0
   -2.0450    3.0290    0.5930 C   0  0  0  0  0  0  0  0  0  0  0  0
   -3.1040    2.4640    0.3710 O   0  0  0  0  0  0  0  0  0  0  0  0
   -0.7440    2.3460    0.2890 C   0  0  0  0  0  0  0  0  0  0  0  0
   -1.0120    1.0750   -0.2510 N   0  0  0  0  0  0  0  0  0  0  0  0
   -1.5810    0.0880    0.5970 C   0  0  0  0  0  0  0  0  0  0  0  0
   -1.2980   -1.2260   -0.1480 C   0  0  2  0  0  0  0  0  0  0  0  0
   -1.1680   -2.3770    0.7920 C   0  0  0  0  0  0  0  0  0  0  0  0
   -2.3330   -2.7380    1.4590 O   0  0  0  0  0  0  0  0  0  0  0  0
   -3.4470   -3.1370    0.7540 C   0  0  0  0  0  0  0  0  0  0  0  0
   -3.4040   -3.1740   -0.4830 O   0  0  0  0  0  0  0  0  0  0  0  0
   -4.6410   -3.5060    1.3800 O   0  0  0  0  0  0  0  0  0  0  0  0
   -6.0740   -4.0130    0.5420 P   0  0  0  0  0  0  0  0  0  0  0  0
   -6.9150   -5.1330    1.5900 O   0  0  0  0  0  0  0  0  0  0  0  0
   -7.1600   -2.6810    0.2520 O   0  0  0  0  0  0  0  0  0  0  0  0
   -0.0320   -0.9350   -0.7740 N   0  0  0  0  0  0  0  0  0  0  0  0
    1.2570   -1.3410   -1.2080 C   0  0  0  0  0  0  0  0  0  0  0  0
    2.0370   -0.2640   -1.4140 C   0  0  0  0  0  0  0  0  0  0  0  0
    3.3960   -0.3080   -1.8550 N   0  0  0  0  0  0  0  0  0  0  0  0
    4.4110   -0.2810   -0.8360 C   0  0  0  0  0  0  0  0  0  0  0  0
    4.7890    1.0020   -0.2040 C   0  0  0  0  0  0  0  0  0  0  0  0
    5.0020   -1.3890   -0.4660 C   0  0  0  0  0  0  0  0  0  0  0  0
    4.6100   -2.6920   -1.1160 C   0  0  0  0  0  0  0  0  0  0  0  0
    6.0410   -1.3480    0.5820 C   0  0  0  0  0  0  0  0  0  0  0  0
    7.2230   -1.8350    0.0180 O   0  0  0  0  0  0  0  0  0  0  0  0
    1.2520    0.8770   -1.1130 N   0  0  0  0  0  0  0  0  0  0  0  0
   -0.1070    0.4860   -1.1480 C   0  0  2  0  0  0  0  0  0  0  0  0
   -0.6920    0.6080   -2.5540 C   0  0  0  0  0  0  0  0  0  0  0  0
  1  2  1  0
  2  3  1  0
  3  4  1  0
  4  5  2  0
  4  6  1  0
  6  7  1  0
  7  8  1  0
  7 29  1  0
  8  9  1  0
  9 10  1  1
  9 18  1  0
 10 11  1  0
 11 12  1  0
 12 13  2  0
 12 14  1  0
 14 15  1  0
 15 16  1  0
 15 17  1  0
 18 19  1  0
 18 29  1  0
 19 20  2  0
 20 21  1  0
 20 28  1  0
 21 22  1  0
 22 23  1  0
 22 24  2  3
 24 25  1  0
 24 26  1  0
 26 27  1  0
 28 29  1  0
 29 30  1  6
M  END
