
     RDKit          3D

 28 32  0  0  0  0  0  0  0  0999 V2000
   -1.3990    2.7480   -0.2080 C   0  0  0  0  0  0  0  0  0  0  0  0
   -1.7290    1.4100    0.1670 N   0  0  0  0  0  0  0  0  0  0  0  0
   -0.7720    0.6970    0.9250 C   0  0  0  0  0  0  0  0  0  0  0  0
    0.0310    1.2950    1.6970 O   0  0  0  0  0  0  0  0  0  0  0  0
   -0.5630   -0.7530    0.9590 C   0  0  0  0  0  0  0  0  0  0  0  0
    0.6840   -1.0920    0.8620 C   0  0  0  0  0  0  0  0  0  0  0  0
    1.7610   -0.1920    0.7020 N   0  0  0  0  0  0  0  0  0  0  0  0
    1.9310    1.0920    0.1460 C   0  0  0  0  0  0  0  0  0  0  0  0
    3.3420    1.1410   -0.4340 C   0  0  0  0  0  0  0  0  0  0  0  0
    3.8640    2.0530   -1.3070 C   0  0  0  0  0  0  0  0  0  0  0  0
    5.2390    1.9840   -1.5570 C   0  0  0  0  0  0  0  0  0  0  0  0
    6.0050    1.0340   -0.9400 C   0  0  0  0  0  0  0  0  0  0  0  0
    5.4200    0.1320   -0.0640 C   0  0  0  0  0  0  0  0  0  0  0  0
    4.0710    0.1740    0.1980 C   0  0  0  0  0  0  0  0  0  0  0  0
    3.1340   -0.6660    0.9230 C   0  0  0  0  0  0  0  0  0  0  0  0
    3.4110   -1.6600    1.6440 O   0  0  0  0  0  0  0  0  0  0  0  0
    1.0050   -2.5900    0.9560 C   0  0  0  0  0  0  0  0  0  0  0  0
   -0.1100   -3.4740    0.5460 C   0  0  0  0  0  0  0  0  0  0  0  0
   -1.4010   -3.0960    1.2800 C   0  0  0  0  0  0  0  0  0  0  0  0
   -1.6660   -1.7070    1.0020 N   0  0  0  0  0  0  0  0  0  0  0  0
   -3.0550   -1.4600    0.7560 C   0  0  0  0  0  0  0  0  0  0  0  0
   -3.8520   -2.2900    1.2190 O   0  0  0  0  0  0  0  0  0  0  0  0
   -3.5960   -0.3260    0.0140 C   0  0  0  0  0  0  0  0  0  0  0  0
   -4.8510   -0.6270   -0.4570 C   0  0  0  0  0  0  0  0  0  0  0  0
   -5.5520    0.2870   -1.1880 C   0  0  0  0  0  0  0  0  0  0  0  0
   -4.9750    1.5000   -1.4360 C   0  0  0  0  0  0  0  0  0  0  0  0
   -3.7030    1.8160   -0.9630 C   0  0  0  0  0  0  0  0  0  0  0  0
   -3.0060    0.9090   -0.2360 C   0  0  0  0  0  0  0  0  0  0  0  0
  1  2  1  0
  2  3  1  0
  2 28  1  0
  3  4  2  0
  3  5  1  0
  5  6  2  0
  5 20  1  0
  6  7  1  0
  6 17  1  0
  7  8  1  0
  7 15  1  0
  8  9  1  0
  9 10  2  0
  9 14  1  0
 10 11  1  0
 11 12  2  0
 12 13  1  0
 13 14  2  0
 14 15  1  0
 15 16  2  0
 17 18  1  0
 18 19  1  0
 19 20  1  0
 20 21  1  0
 21 22  2  0
 21 23  1  0
 23 24  2  0
 23 28  1  0
 24 25  1  0
 25 26  2  0
 26 27  1  0
 27 28  2  0
M  END
