
     RDKit          3D

 26 28  0  0  0  0  0  0  0  0999 V2000
    2.0950    0.5130    1.6510 C   0  0  0  0  0  0  0  0  0  0  0  0
    2.3130    0.3570    0.2780 C   0  0  0  0  0  0  0  0  0  0  0  0
    3.3460    1.2700   -0.1100 C   0  0  0  0  0  0  0  0  0  0  0  0
    4.0240    1.7340   -1.0780 C   0  0  0  0  0  0  0  0  0  0  0  0
    5.0270    2.7380   -0.7960 O   0  0  0  0  0  0  0  0  0  0  0  0
    1.3440   -0.3770   -0.4010 C   0  0  0  0  0  0  0  0  0  0  0  0
    1.3710   -0.9310   -1.6240 C   0  0  0  0  0  0  0  0  0  0  0  0
    2.6100   -0.7190   -2.2320 N   0  0  0  0  0  0  0  0  0  0  0  0
    2.9910   -1.0710   -3.5440 C   0  0  0  0  0  0  0  0  0  0  0  0
    2.2280   -1.6220   -4.3500 O   0  0  0  0  0  0  0  0  0  0  0  0
    4.3050   -0.7950   -3.9950 O   0  0  0  0  0  0  0  0  0  0  0  0
    0.4320   -1.8010   -2.3590 C   0  0  0  0  0  0  0  0  0  0  0  0
   -0.4180   -2.7650   -1.6590 C   0  0  0  0  0  0  0  0  0  0  0  0
   -0.8720   -2.5200   -0.3480 O   0  0  0  0  0  0  0  0  0  0  0  0
   -1.0000   -1.2950    0.3070 C   0  0  0  0  0  0  0  0  0  0  0  0
   -0.0170   -0.3350    0.2640 C   0  0  0  0  0  0  0  0  0  0  0  0
   -0.2270    0.8600    0.9160 C   0  0  0  0  0  0  0  0  0  0  0  0
   -1.4290    1.0760    1.6180 C   0  0  0  0  0  0  0  0  0  0  0  0
   -2.3760    0.0800    1.6350 C   0  0  0  0  0  0  0  0  0  0  0  0
   -2.1780   -1.1270    0.9770 C   0  0  0  0  0  0  0  0  0  0  0  0
   -3.0980   -2.1420    0.9700 O   0  0  0  0  0  0  0  0  0  0  0  0
   -4.0920   -2.1730   -0.0620 C   0  0  0  0  0  0  0  0  0  0  0  0
   -3.5660    0.2580    2.3170 O   0  0  0  0  0  0  0  0  0  0  0  0
   -3.9880    1.5540    2.6800 C   0  0  0  0  0  0  0  0  0  0  0  0
   -2.7810    2.2510    3.2810 C   0  0  0  0  0  0  0  0  0  0  0  0
   -1.6460    2.3640    2.3200 C   0  0  0  0  0  0  0  0  0  0  0  0
  1  2  2  0
  2  3  1  0
  2  6  1  0
  3  4  2  3
  4  5  1  0
  6  7  2  0
  6 16  1  0
  7  8  1  0
  7 12  1  0
  8  9  1  0
  9 10  2  0
  9 11  1  0
 12 13  1  0
 13 14  1  0
 14 15  1  0
 15 16  2  0
 15 20  1  0
 16 17  1  0
 17 18  2  0
 18 19  1  0
 18 26  1  0
 19 20  2  0
 19 23  1  0
 20 21  1  0
 21 22  1  0
 23 24  1  0
 24 25  1  0
 25 26  1  0
M  END
