
     RDKit          3D

 28 31  0  0  0  0  0  0  0  0999 V2000
    5.0810    3.3560   -1.9170 C   0  0  0  0  0  0  0  0  0  0  0  0
    5.6540    2.0890   -2.4410 C   0  0  0  0  0  0  0  0  0  0  0  0
    5.0900    0.9480   -2.0670 C   0  0  0  0  0  0  0  0  0  0  0  0
    3.9630    0.9290   -1.1840 C   0  0  0  0  0  0  0  0  0  0  0  0
    3.3760   -0.1910   -0.7890 C   0  0  0  0  0  0  0  0  0  0  0  0
    3.8620   -1.5140   -1.2450 C   0  0  0  0  0  0  0  0  0  0  0  0
    3.6300   -2.4720   -0.2390 O   0  0  0  0  0  0  0  0  0  0  0  0
    2.5340   -2.4090    0.6130 C   0  0  0  0  0  0  0  0  0  0  0  0
    2.0990   -3.5060    1.3240 C   0  0  0  0  0  0  0  0  0  0  0  0
    1.0130   -3.4210    2.1630 C   0  0  0  0  0  0  0  0  0  0  0  0
    0.2990   -2.2240    2.3360 C   0  0  0  0  0  0  0  0  0  0  0  0
   -0.8340   -2.2440    3.2950 C   0  0  0  0  0  0  0  0  0  0  0  0
    0.7100   -1.1410    1.6470 C   0  0  0  0  0  0  0  0  0  0  0  0
    0.0870    0.1670    1.6840 C   0  0  0  0  0  0  0  0  0  0  0  0
   -1.0990    0.4030    0.9390 N   0  0  0  0  0  0  0  0  0  0  0  0
   -1.0580    0.5630   -0.4170 C   0  0  0  0  0  0  0  0  0  0  0  0
   -2.1810    0.7280   -1.1100 N   0  0  0  0  0  0  0  0  0  0  0  0
   -3.3970    0.7520   -0.5700 C   0  0  0  0  0  0  0  0  0  0  0  0
   -3.4950    0.5960    0.7950 C   0  0  0  0  0  0  0  0  0  0  0  0
   -2.3060    0.4250    1.5100 C   0  0  0  0  0  0  0  0  0  0  0  0
   -2.4910    0.3000    2.7520 O   0  0  0  0  0  0  0  0  0  0  0  0
   -4.8020    0.6130    1.4440 C   0  0  0  0  0  0  0  0  0  0  0  0
   -5.8920    0.7740    0.7530 C   0  0  0  0  0  0  0  0  0  0  0  0
   -5.8880    0.9470   -0.7020 C   0  0  0  0  0  0  0  0  0  0  0  0
   -4.5870    0.9270   -1.3130 N   0  0  0  0  0  0  0  0  0  0  0  0
   -4.5210    1.0970   -2.7750 C   0  0  0  0  0  0  0  0  0  0  0  0
    1.8300   -1.2440    0.7890 C   0  0  0  0  0  0  0  0  0  0  0  0
    2.2840   -0.1510    0.0670 O   0  0  0  0  0  0  0  0  0  0  0  0
  1  2  1  0
  2  3  2  3
  3  4  1  0
  4  5  2  3
  5  6  1  0
  5 28  1  0
  6  7  1  0
  7  8  1  0
  8  9  2  0
  8 27  1  0
  9 10  1  0
 10 11  2  0
 11 12  1  0
 11 13  1  0
 13 14  1  0
 13 27  2  0
 14 15  1  0
 15 16  1  0
 15 20  1  0
 16 17  2  0
 17 18  1  0
 18 19  2  0
 18 25  1  0
 19 20  1  0
 19 22  1  0
 20 21  2  0
 22 23  2  0
 23 24  1  0
 24 25  1  0
 25 26  1  0
 27 28  1  0
M  END
