
     RDKit          3D

 28 32  0  0  0  0  0  0  0  0999 V2000
   -2.2890    1.0760   -1.4330 O   0  0  0  0  0  0  0  0  0  0  0  0
   -2.0260    0.5390   -0.3030 C   0  0  0  0  0  0  0  0  0  0  0  0
   -2.8900    0.9330    0.8210 C   0  0  0  0  0  0  0  0  0  0  0  0
   -4.3070    0.5340    0.4910 C   0  0  0  0  0  0  0  0  0  0  0  0
   -4.7830   -0.7110    0.8490 C   0  0  0  0  0  0  0  0  0  0  0  0
   -6.0740   -1.1120    0.5740 C   0  0  0  0  0  0  0  0  0  0  0  0
   -6.9370   -0.2490   -0.0840 C   0  0  0  0  0  0  0  0  0  0  0  0
   -6.4310    0.9850   -0.4270 C   0  0  0  0  0  0  0  0  0  0  0  0
   -5.1610    1.3550   -0.1460 N   0  0  0  0  0  0  0  0  0  0  0  0
   -7.4920    1.6420   -1.0670 O   0  0  0  0  0  0  0  0  0  0  0  0
   -8.7140    0.9880   -0.6870 C   0  0  0  0  0  0  0  0  0  0  0  0
   -8.2810   -0.3530   -0.5010 O   0  0  0  0  0  0  0  0  0  0  0  0
   -0.9640   -0.3680   -0.1740 N   0  0  0  0  0  0  0  0  0  0  0  0
   -0.1770   -0.6230   -1.3720 C   0  0  0  0  0  0  0  0  0  0  0  0
    1.1060   -1.2830   -1.0120 C   0  0  0  0  0  0  0  0  0  0  0  0
    1.6740   -0.7620    0.1760 N   0  0  0  0  0  0  0  0  0  0  0  0
    2.9930   -0.2840    0.2790 C   0  0  0  0  0  0  0  0  0  0  0  0
    3.4090    0.4350    1.4010 C   0  0  0  0  0  0  0  0  0  0  0  0
    4.6910    0.8980    1.5370 C   0  0  0  0  0  0  0  0  0  0  0  0
    5.6120    0.6550    0.5430 C   0  0  0  0  0  0  0  0  0  0  0  0
    6.9140    1.1020    0.6480 C   0  0  0  0  0  0  0  0  0  0  0  0
    7.8480    0.8590   -0.3420 C   0  0  0  0  0  0  0  0  0  0  0  0
    7.4980    0.1550   -1.4730 C   0  0  0  0  0  0  0  0  0  0  0  0
    6.1900   -0.2870   -1.5650 C   0  0  0  0  0  0  0  0  0  0  0  0
    5.2510   -0.0510   -0.5850 C   0  0  0  0  0  0  0  0  0  0  0  0
    3.9310   -0.5150   -0.7010 C   0  0  0  0  0  0  0  0  0  0  0  0
    0.8520   -0.7410    1.3890 C   0  0  0  0  0  0  0  0  0  0  0  0
   -0.5870   -1.0760    1.0170 C   0  0  0  0  0  0  0  0  0  0  0  0
  1  2  2  0
  2  3  1  0
  2 13  1  0
  3  4  1  0
  4  5  2  0
  4  9  1  0
  5  6  1  0
  6  7  2  0
  7  8  1  0
  7 12  1  0
  8  9  2  0
  8 10  1  0
 10 11  1  0
 11 12  1  0
 13 14  1  0
 13 28  1  0
 14 15  1  0
 15 16  1  0
 16 17  1  0
 16 27  1  0
 17 18  2  0
 17 26  1  0
 18 19  1  0
 19 20  2  0
 20 21  1  0
 20 25  1  0
 21 22  2  0
 22 23  1  0
 23 24  2  0
 24 25  1  0
 25 26  2  0
 27 28  1  0
M  END
