
     RDKit          3D

 28 32  0  0  0  0  0  0  0  0999 V2000
    1.4690   -3.0660   -0.6740 C   0  0  0  0  0  0  0  0  0  0  0  0
    2.2980   -1.9410   -0.3090 N   0  0  0  0  0  0  0  0  0  0  0  0
    1.9920   -0.6930    0.0130 C   0  0  0  0  0  0  0  0  0  0  0  0
    0.6900   -0.0640    0.0950 C   0  0  0  0  0  0  0  0  0  0  0  0
   -0.5080   -0.7660    0.0900 C   0  0  0  0  0  0  0  0  0  0  0  0
   -1.7530   -0.1610    0.1500 C   0  0  0  0  0  0  0  0  0  0  0  0
   -2.8560   -0.9740    0.1380 O   0  0  0  0  0  0  0  0  0  0  0  0
   -4.1820   -0.5760    0.1900 C   0  0  1  0  0  0  0  0  0  0  0  0
   -4.9210   -1.1530   -1.0200 C   0  0  0  0  0  0  0  0  0  0  0  0
   -5.3070   -2.5070   -0.5240 C   0  0  0  0  0  0  0  0  0  0  0  0
   -5.3280   -2.5010    0.8390 O   0  0  0  0  0  0  0  0  0  0  0  0
   -4.8720   -1.3040    1.3110 C   0  0  0  0  0  0  0  0  0  0  0  0
   -1.8000    1.1760    0.2170 N   0  0  0  0  0  0  0  0  0  0  0  0
   -0.6940    1.9410    0.2270 C   0  0  0  0  0  0  0  0  0  0  0  0
    0.5660    1.3340    0.1650 C   0  0  0  0  0  0  0  0  0  0  0  0
    1.5760    2.3820    0.1690 C   0  0  0  0  0  0  0  0  0  0  0  0
    2.6930    2.3540   -0.3630 O   0  0  0  0  0  0  0  0  0  0  0  0
    0.9130    3.4820    0.9690 C   0  0  0  0  0  0  0  0  0  0  0  0
   -0.4670    3.4120    0.2970 C   0  0  1  0  0  0  0  0  0  0  0  0
   -0.3110    4.0370   -1.0620 C   0  0  0  0  0  0  0  0  0  0  0  0
   -1.5080    4.0990    1.1320 C   0  0  0  0  0  0  0  0  0  0  0  0
    3.1390   -0.0420    0.2480 N   0  0  0  0  0  0  0  0  0  0  0  0
    4.2090   -0.8270    0.0910 C   0  0  0  0  0  0  0  0  0  0  0  0
    5.5630   -0.6030    0.2220 C   0  0  0  0  0  0  0  0  0  0  0  0
    6.4350   -1.6420   -0.0130 C   0  0  0  0  0  0  0  0  0  0  0  0
    5.9180   -2.8670   -0.3710 C   0  0  0  0  0  0  0  0  0  0  0  0
    4.5560   -3.0760   -0.4980 C   0  0  0  0  0  0  0  0  0  0  0  0
    3.6620   -2.0380   -0.2640 C   0  0  0  0  0  0  0  0  0  0  0  0
  1  2  1  0
  2  3  1  0
  2 28  1  0
  3  4  1  0
  3 22  2  0
  4  5  2  0
  4 15  1  0
  5  6  1  0
  6  7  1  0
  6 13  2  0
  8  7  1  6
  8  9  1  0
  8 12  1  0
  9 10  1  0
 10 11  1  0
 11 12  1  0
 13 14  1  0
 14 15  2  0
 14 19  1  0
 15 16  1  0
 16 17  2  0
 16 18  1  0
 18 19  1  0
 19 20  1  6
 19 21  1  0
 22 23  1  0
 23 24  2  0
 23 28  1  0
 24 25  1  0
 25 26  2  0
 26 27  1  0
 27 28  2  0
M  END
