
     RDKit          3D

 28 31  0  0  0  0  0  0  0  0999 V2000
   -1.3650   -2.5170    0.6850 C   0  0  0  0  0  0  0  0  0  0  0  0
   -0.9190   -1.7490   -0.5610 C   0  0  0  0  0  0  0  0  0  0  0  0
    0.1290   -0.8120   -0.1730 C   0  0  0  0  0  0  0  0  0  0  0  0
   -0.1310    0.4410   -0.4050 C   0  0  0  0  0  0  0  0  0  0  0  0
   -1.3950    0.7520   -0.9970 C   0  0  0  0  0  0  0  0  0  0  0  0
   -1.4940    1.2700   -2.2590 N   0  0  0  0  0  0  0  0  0  0  0  0
   -2.7220    1.5190   -2.5490 O   0  0  0  0  0  0  0  0  0  0  0  0
   -3.5240    1.2130   -1.5680 C   0  0  0  0  0  0  0  0  0  0  0  0
   -4.8920    1.3030   -1.4150 C   0  0  0  0  0  0  0  0  0  0  0  0
   -5.7660    1.8330   -2.5060 C   0  0  0  0  0  0  0  0  0  0  0  0
   -5.4110    0.8800   -0.2110 C   0  0  0  0  0  0  0  0  0  0  0  0
   -4.6070    0.3880    0.8050 C   0  0  0  0  0  0  0  0  0  0  0  0
   -5.1970   -0.0600    2.0890 C   0  0  0  0  0  0  0  0  0  0  0  0
   -3.2310    0.3070    0.6280 C   0  0  0  0  0  0  0  0  0  0  0  0
   -2.6970    0.7180   -0.5570 C   0  0  0  0  0  0  0  0  0  0  0  0
    0.7190    1.6370   -0.1400 C   0  0  0  0  0  0  0  0  0  0  0  0
    0.0340    2.6680   -0.3670 O   0  0  0  0  0  0  0  0  0  0  0  0
    2.1130    1.8740    0.3060 C   0  0  0  0  0  0  0  0  0  0  0  0
    3.1090    1.2020   -0.6140 C   0  0  0  0  0  0  0  0  0  0  0  0
    3.4000   -0.1420   -0.0690 C   0  0  0  0  0  0  0  0  0  0  0  0
    4.7300   -0.4620    0.1080 C   0  0  0  0  0  0  0  0  0  0  0  0
    5.9390    0.3680   -0.1800 C   0  0  0  0  0  0  0  0  0  0  0  0
    6.1670    1.4300    0.8460 C   0  0  0  0  0  0  0  0  0  0  0  0
    4.7240   -1.7320    0.6120 N   0  0  0  0  0  0  0  0  0  0  0  0
    3.4800   -2.1480    0.7300 N   0  0  0  0  0  0  0  0  0  0  0  0
    3.0840   -3.4410    1.2300 C   0  0  0  0  0  0  0  0  0  0  0  0
    2.6090   -1.2010    0.3210 C   0  0  0  0  0  0  0  0  0  0  0  0
    1.2350   -1.5080    0.3900 O   0  0  0  0  0  0  0  0  0  0  0  0
  1  2  1  0
  2  3  1  0
  3  4  2  0
  3 28  1  0
  4  5  1  0
  4 16  1  0
  5  6  2  0
  5 15  1  0
  6  7  1  0
  7  8  1  0
  8  9  2  0
  8 15  1  0
  9 10  1  0
  9 11  1  0
 11 12  2  0
 12 13  1  0
 12 14  1  0
 14 15  2  0
 16 17  2  0
 16 18  1  0
 18 19  1  0
 19 20  1  0
 20 21  1  0
 20 27  2  0
 21 22  1  0
 21 24  2  0
 22 23  1  0
 24 25  1  0
 25 26  1  0
 25 27  1  0
 27 28  1  0
M  END
