
     RDKit          3D

 28 31  0  0  0  0  0  0  0  0999 V2000
   -3.2590   -1.2050    2.6380 C   0  0  0  0  0  0  0  0  0  0  0  0
   -2.8660   -1.7670    1.3810 O   0  0  0  0  0  0  0  0  0  0  0  0
   -2.7800   -0.6420    0.3710 C   0  0  0  0  0  0  0  0  0  0  0  0
   -1.5490    0.0590    0.4410 C   0  0  0  0  0  0  0  0  0  0  0  0
   -0.7430   -0.4490    1.3600 O   0  0  0  0  0  0  0  0  0  0  0  0
   -1.0270    1.1560   -0.2510 N   0  0  0  0  0  0  0  0  0  0  0  0
   -1.6910    2.0430   -1.1610 C   0  0  0  0  0  0  0  0  0  0  0  0
   -0.8820    3.2420   -1.5370 C   0  0  0  0  0  0  0  0  0  0  0  0
   -0.1110    3.7520   -0.3240 C   0  0  0  0  0  0  0  0  0  0  0  0
    0.8720    2.6530   -0.0700 C   0  0  0  0  0  0  0  0  0  0  0  0
    0.4010    1.4170   -0.0510 C   0  0  0  0  0  0  0  0  0  0  0  0
    1.3340    0.2910    0.0710 C   0  0  0  0  0  0  0  0  0  0  0  0
    0.9950   -0.8540   -0.4760 C   0  0  0  0  0  0  0  0  0  0  0  0
    1.8110   -2.0560   -0.4280 C   0  0  0  0  0  0  0  0  0  0  0  0
    1.2450   -3.3340   -0.2960 C   0  0  0  0  0  0  0  0  0  0  0  0
    2.2810   -4.2340   -0.2840 C   0  0  0  0  0  0  0  0  0  0  0  0
    3.4240   -3.4870   -0.4080 C   0  0  0  0  0  0  0  0  0  0  0  0
    4.8210   -4.0420   -0.4430 C   0  0  0  0  0  0  0  0  0  0  0  0
    3.0750   -2.2290   -0.4870 O   0  0  0  0  0  0  0  0  0  0  0  0
    2.6540    0.5340    0.7510 C   0  0  0  0  0  0  0  0  0  0  0  0
    3.0840    1.9150    0.6020 N   0  0  0  0  0  0  0  0  0  0  0  0
    4.3010    2.4030    0.8160 C   0  0  0  0  0  0  0  0  0  0  0  0
    4.2640    3.7630    0.6090 C   0  0  0  0  0  0  0  0  0  0  0  0
    3.0050    4.0420    0.2720 N   0  0  0  0  0  0  0  0  0  0  0  0
    2.2400    2.9090    0.2570 C   0  0  0  0  0  0  0  0  0  0  0  0
   -3.8760   -0.6370   -0.2870 C   0  0  0  0  0  0  0  0  0  0  0  0
   -4.3250    0.2290   -1.3730 C   0  0  0  0  0  0  0  0  0  0  0  0
   -4.9440   -1.6920    0.0800 C   0  0  0  0  0  0  0  0  0  0  0  0
  1  2  1  0
  2  3  1  0
  3  4  1  0
  3 26  2  3
  4  5  2  0
  4  6  1  0
  6  7  1  0
  6 11  1  0
  7  8  1  0
  8  9  1  0
  9 10  1  0
 10 11  2  0
 10 25  1  0
 11 12  1  0
 12 13  2  3
 12 20  1  0
 13 14  1  0
 14 15  2  0
 14 19  1  0
 15 16  1  0
 16 17  2  0
 17 18  1  0
 17 19  1  0
 20 21  1  0
 21 22  1  0
 21 25  1  0
 22 23  2  0
 23 24  1  0
 24 25  2  0
 26 27  1  0
 26 28  1  0
M  END
