
     RDKit          3D

 29 30  0  0  0  0  0  0  0  0999 V2000
   -0.6250   -0.9540   -0.7890 O   0  0  0  0  0  0  0  0  0  0  0  0
   -0.5290   -0.0730    0.0910 C   0  0  0  0  0  0  0  0  0  0  0  0
   -1.6830    0.4820    0.6970 N   0  0  0  0  0  0  0  0  0  0  0  0
   -3.0110    0.0360    0.3050 C   0  0  0  0  0  0  0  0  0  0  0  0
   -3.8510    0.8890   -0.1850 C   0  0  0  0  0  0  0  0  0  0  0  0
   -5.1970    0.7270   -0.6520 C   0  0  0  0  0  0  0  0  0  0  0  0
   -5.9220    1.7410   -1.0860 N   0  0  0  0  0  0  0  0  0  0  0  0
   -7.1670    1.3080   -1.4680 O   0  0  0  0  0  0  0  0  0  0  0  0
   -7.4040    0.0710   -0.7890 C   0  0  1  0  0  0  0  0  0  0  0  0
   -7.8660    0.2300    0.4780 F   0  0  0  0  0  0  0  0  0  0  0  0
   -8.1370   -0.8070   -1.5320 F   0  0  0  0  0  0  0  0  0  0  0  0
   -6.0030   -0.4190   -0.8200 N   0  0  0  0  0  0  0  0  0  0  0  0
   -3.3340   -1.3880    0.5160 C   0  0  1  0  0  0  0  0  0  0  0  0
   -2.9170   -2.2060   -0.5030 F   0  0  0  0  0  0  0  0  0  0  0  0
   -2.6290   -1.8240    1.6720 F   0  0  0  0  0  0  0  0  0  0  0  0
    0.8390    0.3510    0.4590 C   0  0  0  0  0  0  0  0  0  0  0  0
    0.8960    1.2280    1.3380 O   0  0  0  0  0  0  0  0  0  0  0  0
    1.9730   -0.1920   -0.1340 N   0  0  0  0  0  0  0  0  0  0  0  0
    3.2810    0.1510    0.1560 C   0  0  0  0  0  0  0  0  0  0  0  0
    3.6810    1.0510    1.0890 C   0  0  0  0  0  0  0  0  0  0  0  0
    5.0200    1.3740    1.3530 C   0  0  0  0  0  0  0  0  0  0  0  0
    5.3340    2.2870    2.3050 F   0  0  0  0  0  0  0  0  0  0  0  0
    5.9820    0.7380    0.6190 C   0  0  0  0  0  0  0  0  0  0  0  0
    5.6240   -0.1780   -0.3330 C   0  0  0  0  0  0  0  0  0  0  0  0
    6.8630   -0.9910   -1.2720 S   0  0  1  0  0  0  0  0  0  0  0  0
    6.2800   -1.2730   -2.6270 O   0  0  0  0  0  0  0  0  0  0  0  0
    8.0430   -0.0500   -1.4340 O   0  0  0  0  0  0  0  0  0  0  0  0
    7.3530   -2.3960   -0.5380 O   0  0  0  0  0  0  0  0  0  0  0  0
    4.3050   -0.4690   -0.5640 C   0  0  0  0  0  0  0  0  0  0  0  0
  1  2  2  0
  2  3  1  0
  2 16  1  0
  3  4  1  0
  4  5  2  3
  4 13  1  0
  5  6  1  0
  6  7  2  0
  6 12  1  0
  7  8  1  0
  8  9  1  0
  9 10  1  1
  9 11  1  0
  9 12  1  0
 13 14  1  6
 13 15  1  0
 16 17  2  0
 16 18  1  0
 18 19  1  0
 19 20  2  0
 19 29  1  0
 20 21  1  0
 21 22  1  0
 21 23  2  0
 23 24  1  0
 24 25  1  0
 24 29  2  0
 25 26  2  0
 25 27  2  0
 25 28  1  1
M  CHG  1  28  -1
M  END
