
     RDKit          3D

 29 32  0  0  0  0  0  0  0  0999 V2000
    1.1120   -1.4320   -1.4370 O   0  0  0  0  0  0  0  0  0  0  0  0
    1.3630   -0.6230   -0.5270 C   0  0  0  0  0  0  0  0  0  0  0  0
    0.2580   -0.1300    0.2230 N   0  0  0  0  0  0  0  0  0  0  0  0
   -1.1240   -0.5710   -0.0730 C   0  0  2  0  0  0  0  0  0  0  0  0
   -1.9210    0.6130   -0.4830 C   0  0  0  0  0  0  0  0  0  0  0  0
   -3.3290    0.4150   -0.7960 C   0  0  0  0  0  0  0  0  0  0  0  0
   -3.8530    0.1580   -2.0680 C   0  0  0  0  0  0  0  0  0  0  0  0
   -5.1790   -0.0010   -1.9510 N   0  0  0  0  0  0  0  0  0  0  0  0
   -5.5480    0.1410   -0.6550 C   0  0  0  0  0  0  0  0  0  0  0  0
   -6.7780    0.0870   -0.0170 C   0  0  0  0  0  0  0  0  0  0  0  0
   -6.8410    0.2950    1.3370 C   0  0  0  0  0  0  0  0  0  0  0  0
   -5.7170    0.5580    2.0940 C   0  0  0  0  0  0  0  0  0  0  0  0
   -4.5060    0.6080    1.4530 C   0  0  0  0  0  0  0  0  0  0  0  0
   -4.4070    0.4040    0.0950 C   0  0  0  0  0  0  0  0  0  0  0  0
   -1.6150   -1.3090    1.0900 C   0  0  0  0  0  0  0  0  0  0  0  0
   -0.9200   -1.3720    2.1560 O   0  0  0  0  0  0  0  0  0  0  0  0
   -2.8270   -1.9900    1.1470 O   0  0  0  0  0  0  0  0  0  0  0  0
    2.7190   -0.1910   -0.2290 C   0  0  0  0  0  0  0  0  0  0  0  0
    2.8990    0.6950    0.8020 N   0  0  0  0  0  0  0  0  0  0  0  0
    4.1170    1.1360    1.1460 C   0  0  0  0  0  0  0  0  0  0  0  0
    4.3170    2.2720    2.4730 Cl  0  0  0  0  0  0  0  0  0  0  0  0
    5.2620    0.7340    0.4960 C   0  0  0  0  0  0  0  0  0  0  0  0
    6.5260    1.1820    0.8450 C   0  0  0  0  0  0  0  0  0  0  0  0
    7.6420    0.7410    0.1530 C   0  0  0  0  0  0  0  0  0  0  0  0
    7.5180   -0.1500   -0.8930 C   0  0  0  0  0  0  0  0  0  0  0  0
    6.2470   -0.5740   -1.2110 C   0  0  0  0  0  0  0  0  0  0  0  0
    5.1280   -0.1460   -0.5350 C   0  0  0  0  0  0  0  0  0  0  0  0
    3.8470   -0.6080   -0.8950 C   0  0  0  0  0  0  0  0  0  0  0  0
    3.7670   -1.4820   -1.9290 O   0  0  0  0  0  0  0  0  0  0  0  0
  1  2  2  0
  2  3  1  0
  2 18  1  0
  3  4  1  0
  4  5  1  1
  4 15  1  0
  5  6  1  0
  6  7  2  0
  6 14  1  0
  7  8  1  0
  8  9  1  0
  9 10  2  0
  9 14  1  0
 10 11  1  0
 11 12  2  0
 12 13  1  0
 13 14  2  0
 15 16  2  0
 15 17  1  0
 18 19  2  0
 18 28  1  0
 19 20  1  0
 20 21  1  0
 20 22  2  0
 22 23  1  0
 22 27  1  0
 23 24  2  0
 24 25  1  0
 25 26  2  0
 26 27  1  0
 27 28  2  0
 28 29  1  0
M  END
