
     RDKit          3D

 29 29  0  0  0  0  0  0  0  0999 V2000
   -0.9670    0.6840    0.6990 O   0  0  0  0  0  0  0  0  0  0  0  0
   -1.0770   -0.4900    0.2830 C   0  0  0  0  0  0  0  0  0  0  0  0
   -2.0240   -1.4120    0.8040 N   0  0  0  0  0  0  0  0  0  0  0  0
   -2.9240   -1.0170    1.8670 C   0  0  0  0  0  0  0  0  0  0  0  0
   -3.7260    0.1540    1.3100 C   0  0  0  0  0  0  0  0  0  0  0  0
   -4.4820   -0.1540    0.1200 C   0  0  0  0  0  0  0  0  0  0  0  0
   -4.3830   -1.8640   -0.5170 S   0  0  0  0  0  0  0  0  0  0  0  0
   -5.2930   -2.0100   -2.0380 C   0  0  2  0  0  0  0  0  0  0  0  0
   -5.2310   -3.3490   -2.4810 F   0  0  0  0  0  0  0  0  0  0  0  0
   -4.7560   -1.2830   -3.0910 F   0  0  0  0  0  0  0  0  0  0  0  0
   -5.2280    0.6710   -0.5240 C   0  0  0  0  0  0  0  0  0  0  0  0
   -5.9070    0.2830   -1.6430 F   0  0  0  0  0  0  0  0  0  0  0  0
   -5.4150    1.9510   -0.1880 F   0  0  0  0  0  0  0  0  0  0  0  0
   -3.6520    1.2480    1.9280 N   0  0  0  0  0  0  0  0  0  0  0  0
   -2.8270    1.3010    3.0930 O   0  0  0  0  0  0  0  0  0  0  0  0
   -4.2400    2.4260    1.6710 O   0  0  0  0  0  0  0  0  0  0  0  0
   -0.1840   -0.8730   -0.7670 N   0  0  0  0  0  0  0  0  0  0  0  0
    0.7460    0.0330   -1.2810 N   0  0  0  0  0  0  0  0  0  0  0  0
    2.1130   -0.0130   -0.9820 C   0  0  0  0  0  0  0  0  0  0  0  0
    2.5380   -0.9140   -0.2120 O   0  0  0  0  0  0  0  0  0  0  0  0
    3.0570    0.8860   -1.4870 O   0  0  0  0  0  0  0  0  0  0  0  0
    4.4150    0.7640   -1.1320 C   0  0  0  0  0  0  0  0  0  0  0  0
    4.8810    1.4320   -0.0080 C   0  0  0  0  0  0  0  0  0  0  0  0
    6.2140    1.3010    0.3230 C   0  0  0  0  0  0  0  0  0  0  0  0
    6.7240    1.9620    1.4550 O   0  0  0  0  0  0  0  0  0  0  0  0
    7.1000    0.5280   -0.4250 C   0  0  0  0  0  0  0  0  0  0  0  0
    6.6100   -0.1210   -1.5320 C   0  0  0  0  0  0  0  0  0  0  0  0
    7.4830   -0.8780   -2.2630 F   0  0  0  0  0  0  0  0  0  0  0  0
    5.2810   -0.0050   -1.8830 C   0  0  0  0  0  0  0  0  0  0  0  0
  1  2  2  0
  2  3  1  0
  2 17  1  0
  3  4  1  0
  4  5  1  0
  5  6  1  0
  5 14  2  3
  6  7  1  0
  6 11  2  3
  7  8  1  0
  8  9  1  6
  8 10  1  0
 11 12  1  0
 11 13  1  0
 14 15  1  0
 14 16  1  0
 17 18  1  0
 18 19  1  0
 19 20  2  0
 19 21  1  0
 21 22  1  0
 22 23  2  0
 22 29  1  0
 23 24  1  0
 24 25  1  0
 24 26  2  0
 26 27  1  0
 27 28  1  0
 27 29  2  0
M  CHG  2  14   1  15  -1
M  END
