
     RDKit          3D

 28 28  0  0  0  0  0  0  0  0999 V2000
   -4.4110    2.4250   -2.4850 C   0  0  0  0  0  0  0  0  0  0  0  0
   -3.2960    1.9440   -1.7170 C   0  0  0  0  0  0  0  0  0  0  0  0
   -1.7450    2.8500   -1.4460 S   0  0  0  0  0  0  0  0  0  0  0  0
   -0.8900    1.5620   -0.4760 C   0  0  0  0  0  0  0  0  0  0  0  0
    0.3970    1.7380    0.1470 C   0  0  0  0  0  0  0  0  0  0  0  0
    1.0760    2.6010    0.4810 O   0  0  0  0  0  0  0  0  0  0  0  0
    1.1190    0.1410    0.4250 N   0  0  0  0  0  0  0  0  0  0  0  0
    2.2410    0.6600    1.1890 C   0  0  0  0  0  0  0  0  0  0  0  0
    2.3210    1.5580    1.8960 O   0  0  0  0  0  0  0  0  0  0  0  0
    3.2530   -0.3240    0.7050 N   0  0  0  0  0  0  0  0  0  0  0  0
    4.5910    0.4320    1.4550 C   0  0  0  0  0  0  0  0  0  0  0  0
    4.3850    1.4270    2.0060 O   0  0  0  0  0  0  0  0  0  0  0  0
    5.7870   -0.3420    1.2600 C   0  0  0  0  0  0  0  0  0  0  0  0
    6.8810    0.2010    1.7980 C   0  0  0  0  0  0  0  0  0  0  0  0
    8.0340   -0.4780    1.6530 F   0  0  0  0  0  0  0  0  0  0  0  0
    6.8480    1.3640    2.4270 F   0  0  0  0  0  0  0  0  0  0  0  0
    5.8930   -1.6300    0.5390 C   0  0  2  0  0  0  0  0  0  0  0  0
    5.0960   -2.6200    1.0990 F   0  0  0  0  0  0  0  0  0  0  0  0
    7.2260   -2.0500    0.6210 F   0  0  0  0  0  0  0  0  0  0  0  0
    5.5590   -1.4120   -0.7850 F   0  0  0  0  0  0  0  0  0  0  0  0
   -1.8490    0.5920   -0.4440 C   0  0  0  0  0  0  0  0  0  0  0  0
   -3.0160    0.7420   -1.0250 C   0  0  0  0  0  0  0  0  0  0  0  0
   -4.0850   -0.2360   -0.9760 N   0  0  0  0  0  0  0  0  0  0  0  0
   -4.1610   -1.3060   -0.0900 C   0  0  0  0  0  0  0  0  0  0  0  0
   -3.2580   -1.4940    0.7570 O   0  0  0  0  0  0  0  0  0  0  0  0
   -5.3010   -2.2640   -0.0950 C   0  0  0  0  0  0  0  0  0  0  0  0
   -5.3760   -3.2310    0.9550 N   0  0  0  0  0  0  0  0  0  0  0  0
   -6.1200   -2.1480   -1.0120 O   0  0  0  0  0  0  0  0  0  0  0  0
  1  2  1  0
  2  3  1  0
  2 22  2  0
  3  4  1  0
  4  5  1  0
  4 21  2  0
  5  6  2  0
  5  7  1  0
  7  8  1  0
  8  9  2  0
  8 10  1  0
 10 11  1  0
 11 12  2  0
 11 13  1  0
 13 14  2  3
 13 17  1  0
 14 15  1  0
 14 16  1  0
 17 18  1  1
 17 19  1  0
 17 20  1  0
 21 22  1  0
 22 23  1  0
 23 24  1  0
 24 25  2  0
 24 26  1  0
 26 27  1  0
 26 28  2  0
M  END
