
     RDKit          3D

 27 29  0  0  0  0  0  0  0  0999 V2000
    5.0570    2.6310    1.7490 N   0  0  0  0  0  0  0  0  0  0  0  0
    4.7100    1.8270    0.6400 C   0  0  0  0  0  0  0  0  0  0  0  0
    5.5700    1.7210   -0.4150 N   0  0  0  0  0  0  0  0  0  0  0  0
    5.2220    0.9520   -1.4590 C   0  0  0  0  0  0  0  0  0  0  0  0
    4.0440    0.2730   -1.5070 N   0  0  0  0  0  0  0  0  0  0  0  0
    3.1610    0.3440   -0.4940 C   0  0  0  0  0  0  0  0  0  0  0  0
    3.5190    1.1350    0.5810 C   0  0  0  0  0  0  0  0  0  0  0  0
    2.5170    1.0560    1.4440 N   0  0  0  0  0  0  0  0  0  0  0  0
    1.5720    0.2490    0.9280 C   0  0  0  0  0  0  0  0  0  0  0  0
    1.9500   -0.2080   -0.2800 N   0  0  0  0  0  0  0  0  0  0  0  0
    1.2360   -1.0970   -1.1740 C   0  0  2  0  0  0  0  0  0  0  0  0
   -0.0830   -0.7790   -1.3230 O   0  0  0  0  0  0  0  0  0  0  0  0
   -0.8840   -1.7860   -0.8750 C   0  0  2  0  0  0  0  0  0  0  0  0
   -1.9750   -1.2100   -0.0020 C   0  0  0  0  0  0  0  0  0  0  0  0
   -2.6950   -0.3130   -0.8130 O   0  0  0  0  0  0  0  0  0  0  0  0
   -3.9500    0.4180    0.0110 P   0  0  2  0  0  0  0  0  0  0  0  0
   -4.1830   -0.3170    1.3200 O   0  0  0  0  0  0  0  0  0  0  0  0
   -5.3410    0.3100   -0.9660 O   0  0  0  0  0  0  0  0  0  0  0  0
   -3.5500    2.0370    0.2840 O   0  0  0  0  0  0  0  0  0  0  0  0
   -4.7640    2.6890    1.2880 P   0  0  2  0  0  0  0  0  0  0  0  0
   -5.6160    1.5870    1.8830 O   0  0  0  0  0  0  0  0  0  0  0  0
   -5.6980    3.7420    0.3710 O   0  0  0  0  0  0  0  0  0  0  0  0
   -4.0510    3.5270    2.5700 O   0  0  0  0  0  0  0  0  0  0  0  0
   -0.0310   -2.7960   -0.1590 C   0  0  1  0  0  0  0  0  0  0  0  0
   -0.4240   -4.0980   -0.4690 O   0  0  0  0  0  0  0  0  0  0  0  0
    1.3260   -2.5300   -0.7740 C   0  0  1  0  0  0  0  0  0  0  0  0
    1.4150   -3.3280   -1.9130 O   0  0  0  0  0  0  0  0  0  0  0  0
  1  2  1  0
  2  3  2  0
  2  7  1  0
  3  4  1  0
  4  5  2  0
  5  6  1  0
  6  7  2  0
  6 10  1  0
  7  8  1  0
  8  9  2  0
  9 10  1  0
 11 10  1  1
 11 12  1  0
 11 26  1  0
 12 13  1  0
 13 14  1  1
 13 24  1  0
 14 15  1  0
 15 16  1  0
 16 17  2  0
 16 18  1  6
 16 19  1  0
 19 20  1  0
 20 21  2  0
 20 22  1  6
 20 23  1  0
 24 25  1  6
 24 26  1  0
 26 27  1  6
M  END
