
     RDKit          3D

 27 27  0  0  0  0  0  0  0  0999 V2000
    3.7650    0.0530   -2.4160 C   0  0  0  0  0  0  0  0  0  0  0  0
    3.5880    0.9020   -1.3770 C   0  0  0  0  0  0  0  0  0  0  0  0
    4.5370    1.9600   -1.2590 C   0  0  0  0  0  0  0  0  0  0  0  0
    4.5650    2.8870   -0.3480 C   0  0  0  0  0  0  0  0  0  0  0  0
    3.7170    3.0910    0.7140 O   0  0  0  0  0  0  0  0  0  0  0  0
    2.4780    0.6830   -0.4810 C   0  0  0  0  0  0  0  0  0  0  0  0
    2.1610    1.3490    0.5130 O   0  0  0  0  0  0  0  0  0  0  0  0
    1.6090   -0.4160   -0.7200 O   0  0  0  0  0  0  0  0  0  0  0  0
    0.5220   -0.6870    0.0990 C   0  0  0  0  0  0  0  0  0  0  0  0
    0.7270   -1.5780    1.2200 C   0  0  0  0  0  0  0  0  0  0  0  0
    1.7880   -2.1610    1.5630 N   0  0  0  0  0  0  0  0  0  0  0  0
    3.0880   -2.1570    1.0070 C   0  0  0  0  0  0  0  0  0  0  0  0
    3.8690   -3.3860    1.3300 C   0  0  0  0  0  0  0  0  0  0  0  0
    5.0370   -3.4640    0.8750 O   0  0  0  0  0  0  0  0  0  0  0  0
    3.3240   -4.4030    2.1030 O   0  0  0  0  0  0  0  0  0  0  0  0
   -0.6500   -0.1440   -0.1490 C   0  0  0  0  0  0  0  0  0  0  0  0
   -1.8620   -0.3420    0.6230 C   0  0  0  0  0  0  0  0  0  0  0  0
   -2.9750    0.2780    0.2460 C   0  0  0  0  0  0  0  0  0  0  0  0
   -2.9620    1.1320   -0.9160 N   0  0  0  0  0  0  0  0  0  0  0  0
   -3.7570    0.9160   -2.0500 C   0  0  0  0  0  0  0  0  0  0  0  0
   -3.7560    1.7430   -3.1960 N   0  0  0  0  0  0  0  0  0  0  0  0
   -4.5300   -0.0910   -2.0510 O   0  0  0  0  0  0  0  0  0  0  0  0
   -4.1990    0.0920    1.0080 C   0  0  0  0  0  0  0  0  0  0  0  0
   -5.4240    0.6650    0.7510 C   0  0  0  0  0  0  0  0  0  0  0  0
   -6.2890    0.2070    1.7270 C   0  0  0  0  0  0  0  0  0  0  0  0
   -5.5530   -0.6240    2.5370 C   0  0  0  0  0  0  0  0  0  0  0  0
   -4.3430   -0.6570    2.0740 O   0  0  0  0  0  0  0  0  0  0  0  0
  1  2  2  0
  2  3  1  0
  2  6  1  0
  3  4  2  3
  4  5  1  0
  6  7  2  0
  6  8  1  0
  8  9  1  0
  9 10  1  0
  9 16  2  3
 10 11  2  3
 11 12  1  0
 12 13  1  0
 13 14  2  0
 13 15  1  0
 16 17  1  0
 17 18  2  3
 18 19  1  0
 18 23  1  0
 19 20  1  0
 20 21  1  0
 20 22  2  0
 23 24  2  0
 23 27  1  0
 24 25  1  0
 25 26  2  0
 26 27  1  0
M  END
