
     RDKit          3D

 27 28  0  0  0  0  0  0  0  0999 V2000
   -5.0610    1.5660    0.3150 C   0  0  0  0  0  0  0  0  0  0  0  0
   -3.6290    1.3320    0.7570 C   0  0  1  0  0  0  0  0  0  0  0  0
   -3.1320   -0.0470    0.5290 C   0  0  0  0  0  0  0  0  0  0  0  0
   -3.7340   -1.1160    1.1970 N   0  0  0  0  0  0  0  0  0  0  0  0
   -5.0070   -1.5970    0.8790 C   0  0  0  0  0  0  0  0  0  0  0  0
   -5.1310   -2.3390   -0.4320 C   0  0  0  0  0  0  0  0  0  0  0  0
   -4.7690   -1.5280   -1.4780 O   0  0  0  0  0  0  0  0  0  0  0  0
   -4.8450   -2.0900   -2.6420 O   0  0  0  0  0  0  0  0  0  0  0  0
   -2.8790    2.2610   -0.0050 O   0  0  0  0  0  0  0  0  0  0  0  0
   -2.3480    3.2480    0.7630 C   0  0  0  0  0  0  0  0  0  0  0  0
   -1.3480    2.7350    1.7440 C   0  0  0  0  0  0  0  0  0  0  0  0
   -0.2200    2.1070    0.9630 C   0  0  0  0  0  0  0  0  0  0  0  0
   -0.1890    2.0670   -0.2750 O   0  0  0  0  0  0  0  0  0  0  0  0
    0.8200    1.5550    1.6960 O   0  0  0  0  0  0  0  0  0  0  0  0
    1.9050    0.9560    1.0960 C   0  0  0  0  0  0  0  0  0  0  0  0
    1.9530   -0.3360    0.7880 C   0  0  0  0  0  0  0  0  0  0  0  0
    3.0890   -0.8920    0.1760 O   0  0  0  0  0  0  0  0  0  0  0  0
    4.1980   -0.1180   -0.1280 C   0  0  0  0  0  0  0  0  0  0  0  0
    5.3630   -0.7190   -0.7620 C   0  0  0  0  0  0  0  0  0  0  0  0
    5.3980   -2.0570   -1.0790 C   0  0  0  0  0  0  0  0  0  0  0  0
    6.4900   -2.6450   -1.6770 C   0  0  0  0  0  0  0  0  0  0  0  0
    7.5830   -1.8400   -1.9600 C   0  0  0  0  0  0  0  0  0  0  0  0
    8.7070   -2.3970   -2.5640 O   0  0  0  0  0  0  0  0  0  0  0  0
    7.5510   -0.4960   -1.6430 C   0  0  0  0  0  0  0  0  0  0  0  0
    6.4490    0.0730   -1.0450 C   0  0  0  0  0  0  0  0  0  0  0  0
    4.1670    1.1290    0.1630 N   0  0  0  0  0  0  0  0  0  0  0  0
    3.0510    1.7350    0.7770 N   0  0  0  0  0  0  0  0  0  0  0  0
  2  1  1  6
  2  3  1  0
  2  9  1  0
  3  4  1  0
  4  5  1  0
  5  6  1  0
  6  7  1  0
  7  8  1  0
  9 10  1  0
 10 11  1  0
 11 12  1  0
 12 13  2  0
 12 14  1  0
 14 15  1  0
 15 16  2  0
 15 27  1  0
 16 17  1  0
 17 18  1  0
 18 19  1  0
 18 26  2  0
 19 20  2  0
 19 25  1  0
 20 21  1  0
 21 22  2  0
 22 23  1  0
 22 24  1  0
 24 25  2  0
 26 27  1  0
M  END
