
     RDKit          3D

 27 28  0  0  0  0  0  0  0  0999 V2000
   -3.2080    3.3350   -0.1590 C   0  0  0  0  0  0  0  0  0  0  0  0
   -2.9150    1.9500   -0.2890 O   0  0  0  0  0  0  0  0  0  0  0  0
   -1.7260    1.3850    0.0630 C   0  0  0  0  0  0  0  0  0  0  0  0
   -0.8120    2.0980    0.5320 O   0  0  0  0  0  0  0  0  0  0  0  0
   -1.4440   -0.0600   -0.0820 C   0  0  0  0  0  0  0  0  0  0  0  0
   -0.2610   -0.5150    0.2890 C   0  0  0  0  0  0  0  0  0  0  0  0
    0.0860   -1.8810    0.1770 N   0  0  0  0  0  0  0  0  0  0  0  0
    1.3300   -2.3530    0.6710 C   0  0  0  0  0  0  0  0  0  0  0  0
    2.4100   -1.8320    0.2870 N   0  0  0  0  0  0  0  0  0  0  0  0
    2.6570   -0.7900   -0.6100 C   0  0  0  0  0  0  0  0  0  0  0  0
    2.0210   -0.7050   -1.6940 O   0  0  0  0  0  0  0  0  0  0  0  0
    3.6690    0.2310   -0.3070 C   0  0  0  0  0  0  0  0  0  0  0  0
    4.3850    0.1770    0.8690 C   0  0  0  0  0  0  0  0  0  0  0  0
    5.3430    1.1490    1.1480 C   0  0  0  0  0  0  0  0  0  0  0  0
    5.5700    2.1230    0.2930 O   0  0  0  0  0  0  0  0  0  0  0  0
    4.9160    2.2300   -0.8510 C   0  0  0  0  0  0  0  0  0  0  0  0
    5.1370    3.1670   -1.6680 O   0  0  0  0  0  0  0  0  0  0  0  0
    3.9490    1.2720   -1.1620 C   0  0  0  0  0  0  0  0  0  0  0  0
    0.6670    0.4150    0.8120 O   0  0  0  0  0  0  0  0  0  0  0  0
    0.9390    0.4750    2.1840 C   0  0  0  0  0  0  0  0  0  0  0  0
   -2.4910   -0.9430   -0.5710 C   0  0  0  0  0  0  0  0  0  0  0  0
   -2.8850   -2.0790    0.1010 C   0  0  0  0  0  0  0  0  0  0  0  0
   -3.8840   -2.8520   -0.4840 C   0  0  0  0  0  0  0  0  0  0  0  0
   -4.4750   -2.5280   -1.6780 C   0  0  0  0  0  0  0  0  0  0  0  0
   -4.0830   -1.4210   -2.3200 N   0  0  0  0  0  0  0  0  0  0  0  0
   -3.1250   -0.6690   -1.7730 C   0  0  0  0  0  0  0  0  0  0  0  0
   -2.7490    0.3850   -2.3830 O   0  0  0  0  0  0  0  0  0  0  0  0
  1  2  1  0
  2  3  1  0
  3  4  2  0
  3  5  1  0
  5  6  2  3
  5 21  1  0
  6  7  1  0
  6 19  1  0
  7  8  1  0
  8  9  2  3
  9 10  1  0
 10 11  2  0
 10 12  1  0
 12 13  1  0
 12 18  2  0
 13 14  2  0
 14 15  1  0
 15 16  1  0
 16 17  2  0
 16 18  1  0
 19 20  1  0
 21 22  2  0
 21 26  1  0
 22 23  1  0
 23 24  2  0
 24 25  1  0
 25 26  1  0
 26 27  2  0
M  END
