
     RDKit          3D

 27 28  0  0  0  0  0  0  0  0999 V2000
    5.4960    2.7820   -0.2740 C   0  0  0  0  0  0  0  0  0  0  0  0
    4.8130    1.5520    0.0890 N   0  0  0  0  0  0  0  0  0  0  0  0
    3.4510    1.5250    0.4690 C   0  0  0  0  0  0  0  0  0  0  0  0
    2.8060    2.5880    0.4960 O   0  0  0  0  0  0  0  0  0  0  0  0
    2.7890    0.2590    0.8310 C   0  0  0  0  0  0  0  0  0  0  0  0
    1.3650    0.5350    1.1920 C   0  0  0  0  0  0  0  0  0  0  0  0
    0.5810   -0.6710    1.5790 C   0  0  0  0  0  0  0  0  0  0  0  0
    0.5070   -1.6650    0.5360 N   0  0  0  0  0  0  0  0  0  0  0  0
   -0.5130   -1.6900   -0.4490 C   0  0  0  0  0  0  0  0  0  0  0  0
   -0.5520   -2.6160   -1.3070 O   0  0  0  0  0  0  0  0  0  0  0  0
   -1.5170   -0.6340   -0.4650 N   0  0  0  0  0  0  0  0  0  0  0  0
   -2.5370   -0.6130   -1.4120 C   0  0  0  0  0  0  0  0  0  0  0  0
   -2.4630   -1.6200   -2.2310 O   0  0  0  0  0  0  0  0  0  0  0  0
   -3.6260    0.2890   -1.6490 C   0  0  0  0  0  0  0  0  0  0  0  0
   -4.4400   -0.0080   -2.6870 C   0  0  0  0  0  0  0  0  0  0  0  0
   -5.5670    0.8100   -3.0340 C   0  0  0  0  0  0  0  0  0  0  0  0
   -5.8780    1.9030   -2.3590 C   0  0  0  0  0  0  0  0  0  0  0  0
   -5.0810    2.2480   -1.2930 O   0  0  0  0  0  0  0  0  0  0  0  0
   -3.9470    1.4810   -0.8950 C   0  0  0  0  0  0  0  0  0  0  0  0
   -3.2680    1.9090    0.1340 C   0  0  0  0  0  0  0  0  0  0  0  0
   -3.7470    3.1010    0.7370 O   0  0  0  0  0  0  0  0  0  0  0  0
   -4.4910    3.0500    1.8490 O   0  0  0  0  0  0  0  0  0  0  0  0
    1.4960   -2.7140    0.4670 C   0  0  0  0  0  0  0  0  0  0  0  0
    2.1320   -3.3580    1.4930 C   0  0  0  0  0  0  0  0  0  0  0  0
    2.9740   -4.2650    0.9190 C   0  0  0  0  0  0  0  0  0  0  0  0
    2.8310   -4.1520   -0.4410 C   0  0  0  0  0  0  0  0  0  0  0  0
    1.9250   -3.2000   -0.6650 O   0  0  0  0  0  0  0  0  0  0  0  0
  1  2  1  0
  2  3  1  0
  3  4  2  0
  3  5  1  0
  5  6  1  0
  6  7  1  0
  7  8  1  0
  8  9  1  0
  8 23  1  0
  9 10  2  0
  9 11  1  0
 11 12  1  0
 12 13  2  0
 12 14  1  0
 14 15  2  0
 14 19  1  0
 15 16  1  0
 16 17  2  0
 17 18  1  0
 18 19  1  0
 19 20  2  3
 20 21  1  0
 21 22  1  0
 23 24  2  0
 23 27  1  0
 24 25  1  0
 25 26  2  0
 26 27  1  0
M  END
