
     RDKit          3D

 27 28  0  0  0  0  0  0  0  0999 V2000
   -1.7770   -6.8550   -1.9390 O   0  0  0  0  0  0  0  0  0  0  0  0
   -1.1290   -5.9170   -2.4580 C   0  0  0  0  0  0  0  0  0  0  0  0
   -0.8750   -4.7720   -1.7470 O   0  0  0  0  0  0  0  0  0  0  0  0
   -1.3700   -4.6910   -0.4160 C   0  0  0  0  0  0  0  0  0  0  0  0
   -0.9260   -3.3080    0.0980 C   0  0  0  0  0  0  0  0  0  0  0  0
   -1.5410   -2.3130   -0.8080 C   0  0  0  0  0  0  0  0  0  0  0  0
   -1.2550   -0.9590   -0.4970 N   0  0  0  0  0  0  0  0  0  0  0  0
   -2.1390   -0.2260    0.4110 C   0  0  0  0  0  0  0  0  0  0  0  0
   -2.8850   -0.8780    1.1910 O   0  0  0  0  0  0  0  0  0  0  0  0
   -2.2460    1.1960    0.5040 N   0  0  0  0  0  0  0  0  0  0  0  0
   -1.4410    2.2440    0.9950 C   0  0  0  0  0  0  0  0  0  0  0  0
   -1.0500    3.3180    0.0210 C   0  0  0  0  0  0  0  0  0  0  0  0
    0.0710    3.2820   -0.6670 O   0  0  0  0  0  0  0  0  0  0  0  0
    1.2350    3.9240   -0.4740 C   0  0  0  0  0  0  0  0  0  0  0  0
    2.3200    3.4990   -1.5570 C   0  0  0  0  0  0  0  0  0  0  0  0
    1.5350    2.5450   -2.4270 C   0  0  0  0  0  0  0  0  0  0  0  0
    0.9220    1.4600   -1.9530 C   0  0  0  0  0  0  0  0  0  0  0  0
    0.2510    0.8220   -2.9490 O   0  0  0  0  0  0  0  0  0  0  0  0
   -0.3940   -0.1550   -2.5570 N   0  0  0  0  0  0  0  0  0  0  0  0
   -0.1710   -0.2290   -1.1810 C   0  0  0  0  0  0  0  0  0  0  0  0
    0.6950    0.7560   -0.7650 C   0  0  0  0  0  0  0  0  0  0  0  0
    1.4540    0.8150    0.3970 C   0  0  0  0  0  0  0  0  0  0  0  0
    1.4900    0.2700    1.6840 C   0  0  0  0  0  0  0  0  0  0  0  0
    2.4880    0.6410    2.5480 C   0  0  0  0  0  0  0  0  0  0  0  0
    3.4550    1.5490    2.1540 O   0  0  0  0  0  0  0  0  0  0  0  0
    0.5850   -0.7190    2.2610 C   0  0  0  0  0  0  0  0  0  0  0  0
    0.9730   -1.0630    3.5930 O   0  0  0  0  0  0  0  0  0  0  0  0
  1  2  2  0
  2  3  1  0
  3  4  1  0
  4  5  1  0
  5  6  1  0
  6  7  1  0
  7  8  1  0
  7 20  1  0
  8  9  2  0
  8 10  1  0
 10 11  1  0
 11 12  1  0
 12 13  1  0
 13 14  1  0
 14 15  1  0
 15 16  1  0
 16 17  2  0
 17 18  1  0
 17 21  1  0
 18 19  1  0
 19 20  2  0
 20 21  1  0
 21 22  2  3
 22 23  1  0
 23 24  2  3
 23 26  1  0
 24 25  1  0
 26 27  1  0
M  END
