
     RDKit          3D

 22 22  0  0  0  0  0  0  0  0999 V2000
   -3.0640   -2.2430    0.6600 C   0  0  0  0  0  0  0  0  0  0  0  0
   -2.4270   -1.0430   -0.0190 C   0  0  2  0  0  0  0  0  0  0  0  0
   -3.2510   -0.7200   -1.2220 C   0  0  0  0  0  0  0  0  0  0  0  0
   -1.0610   -1.4890   -0.4620 C   0  0  0  0  0  0  0  0  0  0  0  0
   -0.0560   -0.3870   -0.5550 C   0  0  2  0  0  0  0  0  0  0  0  0
    1.3230   -0.9900   -0.7240 C   0  0  0  0  0  0  0  0  0  0  0  0
    2.3780    0.0530   -0.8370 C   0  0  0  0  0  0  0  0  0  0  0  0
    2.1130    1.2850   -0.8280 O   0  0  0  0  0  0  0  0  0  0  0  0
    3.7540   -0.2800   -0.9620 N   0  0  0  0  0  0  0  0  0  0  0  0
    4.7720    0.7760   -1.0710 C   0  0  0  0  0  0  0  0  0  0  0  0
    6.1460    0.1880   -1.1920 C   0  0  0  0  0  0  0  0  0  0  0  0
    6.4910   -0.5970   -0.0990 O   0  0  0  0  0  0  0  0  0  0  0  0
   -0.0260    0.5750    0.5730 C   0  0  0  0  0  0  0  0  0  0  0  0
   -1.0020    0.1700    1.6200 C   0  0  2  0  0  0  0  0  0  0  0  0
   -0.6580   -1.0740    2.1410 O   0  0  0  0  0  0  0  0  0  0  0  0
   -2.3720    0.0630    1.0000 C   0  0  2  0  0  0  0  0  0  0  0  0
   -3.2530   -0.2140    2.0790 O   0  0  0  0  0  0  0  0  0  0  0  0
   -2.7690    1.4120    0.5000 C   0  0  1  0  0  0  0  0  0  0  0  0
   -4.5300    1.4610    0.1060 Cl  0  0  0  0  0  0  0  0  0  0  0  0
   -2.6240    2.3220    1.5720 O   0  0  0  0  0  0  0  0  0  0  0  0
   -1.8760    3.4430    1.4270 N   0  0  0  0  0  0  0  0  0  0  0  0
   -2.2490    4.4010    0.6640 N   0  0  0  0  0  0  0  0  0  0  0  0
  2  1  1  1
  2  3  1  0
  2  4  1  0
  2 16  1  0
  4  5  1  0
  5  6  1  1
  5 13  1  0
  6  7  1  0
  7  8  2  0
  7  9  1  0
  9 10  1  0
 10 11  1  0
 11 12  1  0
 13 14  1  0
 14 15  1  6
 14 16  1  0
 16 17  1  1
 16 18  1  0
 18 19  1  1
 18 20  1  0
 20 21  1  0
 21 22  2  0
M  END
