
     RDKit          3D

 22 22  0  0  0  0  0  0  0  0999 V2000
   -3.9980   -0.2500   -1.7330 C   0  0  0  0  0  0  0  0  0  0  0  0
   -3.7800   -0.6920   -0.2800 C   0  0  2  0  0  0  0  0  0  0  0  0
   -5.0010   -1.9890   -0.0010 Cl  0  0  0  0  0  0  0  0  0  0  0  0
   -4.0860    0.4040    0.6670 C   0  0  0  0  0  0  0  0  0  0  0  0
   -2.9770    1.3880    0.8850 C   0  0  2  0  0  0  0  0  0  0  0  0
   -2.8070    2.3430   -0.2110 C   0  0  0  0  0  0  0  0  0  0  0  0
   -3.8130    3.2470   -0.6400 N   0  0  0  0  0  0  0  0  0  0  0  0
   -1.7100    2.3780   -0.8210 O   0  0  0  0  0  0  0  0  0  0  0  0
   -1.7300    0.6530    1.2390 C   0  0  0  0  0  0  0  0  0  0  0  0
   -1.3350   -0.3910    0.2380 C   0  0  1  0  0  0  0  0  0  0  0  0
   -0.2760   -1.1850    0.8340 N   0  0  0  0  0  0  0  0  0  0  0  0
    1.0260   -1.2670    0.2570 C   0  0  0  0  0  0  0  0  0  0  0  0
    1.2470   -0.6370   -0.7840 O   0  0  0  0  0  0  0  0  0  0  0  0
    2.0630   -2.0390    0.8320 N   0  0  0  0  0  0  0  0  0  0  0  0
    3.4000   -2.1740    0.3320 C   0  0  0  0  0  0  0  0  0  0  0  0
    4.2000   -0.9150    0.2540 C   0  0  0  0  0  0  0  0  0  0  0  0
    3.7050    0.0680   -0.5360 O   0  0  0  0  0  0  0  0  0  0  0  0
    4.3630    1.2460   -0.6270 C   0  0  0  0  0  0  0  0  0  0  0  0
    5.7580    1.2430   -1.1390 C   0  0  0  0  0  0  0  0  0  0  0  0
    6.6610    0.4970   -0.3950 O   0  0  0  0  0  0  0  0  0  0  0  0
   -2.4460   -1.3260   -0.1300 C   0  0  1  0  0  0  0  0  0  0  0  0
   -2.4840   -2.4110    0.7590 O   0  0  0  0  0  0  0  0  0  0  0  0
  2  1  1  6
  2  3  1  0
  2  4  1  0
  2 21  1  0
  4  5  1  0
  5  6  1  6
  5  9  1  0
  6  7  1  0
  6  8  2  0
  9 10  1  0
 10 11  1  1
 10 21  1  0
 11 12  1  0
 12 13  2  0
 12 14  1  0
 14 15  1  0
 15 16  1  0
 16 17  1  0
 17 18  1  0
 18 19  1  0
 19 20  1  0
 21 22  1  1
M  END
