
     RDKit          3D

 22 22  0  0  0  0  0  0  0  0999 V2000
   -2.6890   -3.4160    0.1710 C   0  0  0  0  0  0  0  0  0  0  0  0
   -1.2780   -3.2960   -0.3270 C   0  0  0  0  0  0  0  0  0  0  0  0
   -0.6150   -2.1210    0.4090 C   0  0  2  0  0  0  0  0  0  0  0  0
   -0.6130   -2.3500    1.7810 O   0  0  0  0  0  0  0  0  0  0  0  0
   -1.4280   -0.9160    0.0750 C   0  0  0  0  0  0  0  0  0  0  0  0
   -0.9730    0.3670    0.6840 C   0  0  2  0  0  0  0  0  0  0  0  0
   -1.0170    0.1930    2.2060 C   0  0  0  0  0  0  0  0  0  0  0  0
   -1.8850    1.4040    0.3720 O   0  0  0  0  0  0  0  0  0  0  0  0
   -2.2130    1.8460   -0.8770 C   0  0  0  0  0  0  0  0  0  0  0  0
   -1.6690    1.3030   -1.8730 O   0  0  0  0  0  0  0  0  0  0  0  0
   -3.1730    2.9330   -1.1620 C   0  0  0  0  0  0  0  0  0  0  0  0
   -3.7750    3.5270    0.0790 C   0  0  0  0  0  0  0  0  0  0  0  0
   -4.6560    4.5330   -0.3270 O   0  0  0  0  0  0  0  0  0  0  0  0
    0.4180    0.7420    0.3340 C   0  0  0  0  0  0  0  0  0  0  0  0
    0.6870    1.8710   -0.1920 O   0  0  0  0  0  0  0  0  0  0  0  0
    1.4940   -0.0960    0.5520 O   0  0  0  0  0  0  0  0  0  0  0  0
    2.8030    0.1710    0.2600 C   0  0  0  0  0  0  0  0  0  0  0  0
    3.7700   -0.7250    0.5170 C   0  0  0  0  0  0  0  0  0  0  0  0
    5.0640   -0.1740    0.1040 C   0  0  1  0  0  0  0  0  0  0  0  0
    5.6750   -0.9760   -0.9250 N   0  0  0  0  0  0  0  0  0  0  0  0
    4.7450    1.1560   -0.4290 C   0  0  0  0  0  0  0  0  0  0  0  0
    3.4300    1.3390   -0.3310 C   0  0  0  0  0  0  0  0  0  0  0  0
  1  2  1  0
  2  3  1  0
  3  4  1  1
  3  5  1  0
  5  6  1  0
  6  7  1  1
  6  8  1  0
  6 14  1  0
  8  9  1  0
  9 10  2  0
  9 11  1  0
 11 12  1  0
 12 13  1  0
 14 15  2  0
 14 16  1  0
 16 17  1  0
 17 18  2  0
 17 22  1  0
 18 19  1  0
 19 20  1  6
 19 21  1  0
 21 22  2  0
M  CHG  1  20   1
M  END
