
     RDKit          3D

 22 22  0  0  0  0  0  0  0  0999 V2000
   -2.0100   -3.9100   -0.0890 N   0  0  0  0  0  0  0  0  0  0  0  0
   -2.8540   -3.1410    0.2010 C   0  0  0  0  0  0  0  0  0  0  0  0
   -3.9040   -2.1890    0.5390 C   0  0  0  0  0  0  0  0  0  0  0  0
   -3.6220   -0.8300    0.0470 C   0  0  0  0  0  0  0  0  0  0  0  0
   -2.3890   -0.1510    0.5470 C   0  0  1  0  0  0  0  0  0  0  0  0
   -2.5380   -0.0630    2.0450 C   0  0  0  0  0  0  0  0  0  0  0  0
   -2.7310    1.1490    2.7400 N   0  0  0  0  0  0  0  0  0  0  0  0
   -2.4880   -1.1310    2.7220 O   0  0  0  0  0  0  0  0  0  0  0  0
   -1.1050   -0.8000    0.2550 C   0  0  0  0  0  0  0  0  0  0  0  0
    0.1190    0.0570    0.2200 C   0  0  1  0  0  0  0  0  0  0  0  0
    1.2000   -0.6100   -0.6040 C   0  0  0  0  0  0  0  0  0  0  0  0
    2.4310    0.1900   -0.6590 C   0  0  0  0  0  0  0  0  0  0  0  0
    2.4900    1.2700   -0.0240 O   0  0  0  0  0  0  0  0  0  0  0  0
    3.5610   -0.2030   -1.3990 N   0  0  0  0  0  0  0  0  0  0  0  0
    4.7670    0.5670   -1.4590 C   0  0  0  0  0  0  0  0  0  0  0  0
    5.4090    0.7690   -0.1220 C   0  0  0  0  0  0  0  0  0  0  0  0
    5.8470   -0.7640    0.6560 Cl  0  0  0  0  0  0  0  0  0  0  0  0
   -0.0990    1.4390   -0.3150 C   0  0  2  0  0  0  0  0  0  0  0  0
    0.2460    2.4300    0.6350 O   0  0  0  0  0  0  0  0  0  0  0  0
   -1.5000    1.7360   -0.6930 C   0  0  0  0  0  0  0  0  0  0  0  0
   -1.7470    2.4530   -1.6880 O   0  0  0  0  0  0  0  0  0  0  0  0
   -2.4820    1.1920    0.0910 O   0  0  0  0  0  0  0  0  0  0  0  0
  1  2  3  0
  2  3  1  0
  3  4  1  0
  5  4  1  6
  5  6  1  0
  5  9  1  0
  5 22  1  0
  6  7  1  0
  6  8  2  0
  9 10  1  0
 10 11  1  6
 10 18  1  0
 11 12  1  0
 12 13  2  0
 12 14  1  0
 14 15  1  0
 15 16  1  0
 16 17  1  0
 18 19  1  1
 18 20  1  0
 20 21  2  0
 20 22  1  0
M  END
