
     RDKit          3D

 22 22  0  0  0  0  0  0  0  0999 V2000
   -4.1780   -0.1110   -0.3860 C   0  0  0  0  0  0  0  0  0  0  0  0
   -3.2500    0.2770    0.7210 C   0  0  2  0  0  0  0  0  0  0  0  0
   -2.9130    1.6240    0.5950 O   0  0  0  0  0  0  0  0  0  0  0  0
   -2.0490   -0.5470    0.8860 C   0  0  0  0  0  0  0  0  0  0  0  0
   -1.0770   -0.6530   -0.2360 C   0  0  2  0  0  0  0  0  0  0  0  0
   -0.0590   -1.4980    0.2100 O   0  0  0  0  0  0  0  0  0  0  0  0
    1.0190   -0.8590    0.7790 C   0  0  0  0  0  0  0  0  0  0  0  0
    1.6870   -0.1040   -0.2990 C   0  0  0  0  0  0  0  0  0  0  0  0
    3.0820   -0.1790   -0.4600 N   0  0  0  0  0  0  0  0  0  0  0  0
    3.6790   -1.4210   -0.9470 C   0  0  0  0  0  0  0  0  0  0  0  0
    5.4170   -1.2900   -1.2350 Cl  0  0  0  0  0  0  0  0  0  0  0  0
    3.9760    0.9130   -0.1450 C   0  0  0  0  0  0  0  0  0  0  0  0
    4.8110    0.6590    1.0890 C   0  0  0  0  0  0  0  0  0  0  0  0
    5.6600    1.7570    1.3370 O   0  0  0  0  0  0  0  0  0  0  0  0
    0.9140    0.6170   -1.0740 C   0  0  0  0  0  0  0  0  0  0  0  0
   -0.5800    0.6210   -0.8100 C   0  0  1  0  0  0  0  0  0  0  0  0
   -1.1860    0.8060   -2.1730 C   0  0  0  0  0  0  0  0  0  0  0  0
   -0.9670   -0.1570   -3.1880 N   0  0  0  0  0  0  0  0  0  0  0  0
   -1.8970    1.8070   -2.4550 O   0  0  0  0  0  0  0  0  0  0  0  0
   -4.0400    0.1850    2.0000 C   0  0  0  0  0  0  0  0  0  0  0  0
   -4.3150    1.2920    2.8270 N   0  0  0  0  0  0  0  0  0  0  0  0
   -4.4850   -0.9320    2.3610 O   0  0  0  0  0  0  0  0  0  0  0  0
  2  1  1  6
  2  3  1  0
  2  4  1  0
  2 20  1  0
  5  4  1  1
  5  6  1  0
  5 16  1  0
  6  7  1  0
  7  8  1  0
  8  9  1  0
  8 15  2  0
  9 10  1  0
  9 12  1  0
 10 11  1  0
 12 13  1  0
 13 14  1  0
 15 16  1  0
 16 17  1  6
 17 18  1  0
 17 19  2  0
 20 21  1  0
 20 22  2  0
M  END
