
     RDKit          3D

 21 23  0  0  0  0  0  0  0  0999 V2000
    0.4950    3.8790    0.2300 C   0  0  0  0  0  0  0  0  0  0  0  0
    0.2920    2.3820    0.5240 C   0  0  2  0  0  0  0  0  0  0  0  0
    1.6300    1.8220    0.6910 C   0  0  0  0  0  0  0  0  0  0  0  0
    2.2780    0.9070    0.0290 C   0  0  0  0  0  0  0  0  0  0  0  0
    3.7030    0.6200    0.5670 C   0  0  0  0  0  0  0  0  0  0  0  0
    4.1030   -0.6620   -0.1600 C   0  0  0  0  0  0  0  0  0  0  0  0
    3.0900   -1.7490   -0.0710 C   0  0  0  0  0  0  0  0  0  0  0  0
    1.7450   -1.3910   -0.7300 C   0  0  1  0  0  0  0  0  0  0  0  0
    0.6900   -1.5900    0.2900 C   0  0  0  0  0  0  0  0  0  0  0  0
   -0.6190   -2.1460   -0.1620 C   0  0  2  0  0  0  0  0  0  0  0  0
   -0.4050   -3.5440   -0.3070 O   0  0  0  0  0  0  0  0  0  0  0  0
   -1.2370   -1.5700   -1.3640 C   0  0  0  0  0  0  0  0  0  0  0  0
   -2.2810   -0.5420   -1.2160 C   0  0  0  0  0  0  0  0  0  0  0  0
   -2.4980    0.1010    0.0910 C   0  0  2  0  0  0  0  0  0  0  0  0
   -4.0260    0.2330    0.2940 C   0  0  0  0  0  0  0  0  0  0  0  0
   -2.0480    1.5720    0.1340 C   0  0  0  0  0  0  0  0  0  0  0  0
   -0.6450    1.7440   -0.4150 C   0  0  0  0  0  0  0  0  0  0  0  0
   -2.0110   -0.6350    1.2930 C   0  0  0  0  0  0  0  0  0  0  0  0
   -1.5850   -2.0400    1.0070 C   0  0  0  0  0  0  0  0  0  0  0  0
    1.9520    0.0770   -1.0940 C   0  0  0  0  0  0  0  0  0  0  0  0
    1.8090    0.3470   -2.3280 O   0  0  0  0  0  0  0  0  0  0  0  0
  2  1  1  6
  2  3  1  0
  2 17  1  0
  3  4  2  0
  4  5  1  0
  4 20  1  0
  5  6  1  0
  6  7  1  0
  8  7  1  1
  8  9  1  0
  8 20  1  0
  9 10  1  0
 10 11  1  6
 10 12  1  0
 10 19  1  0
 12 13  1  0
 13 14  1  0
 14 15  1  1
 14 16  1  0
 14 18  1  0
 16 17  1  0
 18 19  1  0
 20 21  2  0
M  END
