
     RDKit          3D

 21 24  0  0  0  0  0  0  0  0999 V2000
   -1.4090    0.7830    1.5430 C   0  0  0  0  0  0  0  0  0  0  0  0
   -1.8350   -0.0240    0.3810 C   0  0  2  0  0  0  0  0  0  0  0  0
   -3.3060   -0.1710    0.3600 C   0  0  0  0  0  0  0  0  0  0  0  0
   -1.1180   -1.4090    0.3370 C   0  0  1  0  0  0  0  0  0  0  0  0
   -1.3250   -2.2230    1.5260 C   0  0  0  0  0  0  0  0  0  0  0  0
   -1.5250   -1.9040   -0.9830 C   0  0  0  0  0  0  0  0  0  0  0  0
   -1.9390   -0.6600   -1.7870 C   0  0  0  0  0  0  0  0  0  0  0  0
   -1.2250    0.4680   -0.9460 C   0  0  1  0  0  0  0  0  0  0  0  0
   -1.6760    1.7900   -1.3300 C   0  0  0  0  0  0  0  0  0  0  0  0
    0.1520    0.0270   -0.9860 C   0  0  1  0  0  0  0  0  0  0  0  0
    1.3490    0.8180   -1.0110 C   0  0  0  0  0  0  0  0  0  0  0  0
    1.6990    1.9560   -1.8500 C   0  0  0  0  0  0  0  0  0  0  0  0
    0.7990    2.2440   -2.7350 O   0  0  0  0  0  0  0  0  0  0  0  0
    2.8390    2.7920   -1.8600 C   0  0  0  0  0  0  0  0  0  0  0  0
    3.8150    2.7690   -1.1000 O   0  0  0  0  0  0  0  0  0  0  0  0
    2.1750    0.3490   -0.0600 C   0  0  0  0  0  0  0  0  0  0  0  0
    3.5240    0.5150    0.5890 C   0  0  0  0  0  0  0  0  0  0  0  0
    3.6900   -0.6910    1.4850 C   0  0  0  0  0  0  0  0  0  0  0  0
    2.3150   -1.1440    1.8330 C   0  0  0  0  0  0  0  0  0  0  0  0
    1.4580   -0.6620    0.6990 C   0  0  0  0  0  0  0  0  0  0  0  0
    0.2560   -0.8020    0.2370 C   0  0  0  0  0  0  0  0  0  0  0  0
  2  1  1  1
  2  3  1  0
  2  4  1  0
  2  8  1  0
  4  5  1  1
  4  6  1  0
  4 21  1  0
  6  7  1  0
  7  8  1  0
  8  9  1  6
  8 10  1  0
 10 11  1  1
 10 21  1  0
 11 12  1  0
 11 16  2  0
 12 13  2  0
 12 14  1  0
 14 15  2  0
 16 17  1  0
 16 20  1  0
 17 18  1  0
 18 19  1  0
 19 20  1  0
 20 21  2  0
M  END
