
     RDKit          3D

 21 23  0  0  0  0  0  0  0  0999 V2000
   -0.0940    3.1820    0.4230 C   0  0  0  0  0  0  0  0  0  0  0  0
   -0.8410    1.9220    0.7460 C   0  0  1  0  0  0  0  0  0  0  0  0
   -2.2510    2.3250    0.9750 C   0  0  0  0  0  0  0  0  0  0  0  0
   -0.5820    0.7370   -0.1000 C   0  0  1  0  0  0  0  0  0  0  0  0
   -0.9180    1.1500   -1.4030 O   0  0  0  0  0  0  0  0  0  0  0  0
    0.8120    0.2480   -0.2120 C   0  0  1  0  0  0  0  0  0  0  0  0
    1.5540    1.0610   -1.2570 C   0  0  0  0  0  0  0  0  0  0  0  0
    2.9440    0.4540   -1.5140 C   0  0  0  0  0  0  0  0  0  0  0  0
    3.7180    0.6800   -0.2640 C   0  0  0  0  0  0  0  0  0  0  0  0
    3.0660   -0.0140    0.8770 C   0  0  2  0  0  0  0  0  0  0  0  0
    3.4610   -1.4930    0.9060 C   0  0  0  0  0  0  0  0  0  0  0  0
    1.6060    0.2220    1.0590 C   0  0  0  0  0  0  0  0  0  0  0  0
    0.6360   -1.1810   -0.7060 C   0  0  0  0  0  0  0  0  0  0  0  0
   -0.8130   -1.5120   -0.6880 C   0  0  2  0  0  0  0  0  0  0  0  0
   -1.0150   -2.9020   -0.0930 C   0  0  0  0  0  0  0  0  0  0  0  0
   -1.3010   -1.6130   -2.1020 C   0  0  0  0  0  0  0  0  0  0  0  0
   -1.4830   -0.4410    0.1440 C   0  0  2  0  0  0  0  0  0  0  0  0
   -2.8780   -0.3410   -0.3430 C   0  0  0  0  0  0  0  0  0  0  0  0
   -3.7160   -0.9940    0.7450 C   0  0  0  0  0  0  0  0  0  0  0  0
   -2.9040   -1.3150    1.7820 O   0  0  0  0  0  0  0  0  0  0  0  0
   -1.6330   -0.8370    1.5690 C   0  0  0  0  0  0  0  0  0  0  0  0
  2  1  1  6
  2  3  1  0
  2  4  1  0
  4  5  1  6
  4  6  1  0
  4 17  1  0
  6  7  1  6
  6 12  1  0
  6 13  1  0
  7  8  1  0
  8  9  1  0
  9 10  1  0
 10 11  1  6
 10 12  1  0
 13 14  1  0
 14 15  1  1
 14 16  1  0
 14 17  1  0
 17 18  1  6
 17 21  1  0
 18 19  1  0
 19 20  1  0
 20 21  1  0
M  END
