
     RDKit          3D

 21 23  0  0  0  0  0  0  0  0999 V2000
   -4.1690    0.4390   -2.9920 C   0  0  0  0  0  0  0  0  0  0  0  0
   -2.6840    0.6500   -2.6350 C   0  0  1  0  0  0  0  0  0  0  0  0
   -2.7070    1.4230   -1.3320 C   0  0  0  0  0  0  0  0  0  0  0  0
   -2.5350    0.3600   -0.3160 C   0  0  0  0  0  0  0  0  0  0  0  0
   -1.5410   -0.6620   -0.9260 C   0  0  2  0  0  0  0  0  0  0  0  0
   -1.7990   -2.0140   -0.2440 C   0  0  0  0  0  0  0  0  0  0  0  0
   -0.4720   -2.4560    0.4420 C   0  0  0  0  0  0  0  0  0  0  0  0
   -0.4510   -2.1030    1.8140 C   0  0  0  0  0  0  0  0  0  0  0  0
    0.1670   -1.4730    2.7600 C   0  0  0  0  0  0  0  0  0  0  0  0
    1.3460   -0.6800    2.9520 C   0  0  0  0  0  0  0  0  0  0  0  0
    2.2020   -0.0830    2.1900 C   0  0  0  0  0  0  0  0  0  0  0  0
    3.4270    0.7270    2.6590 C   0  0  0  0  0  0  0  0  0  0  0  0
    4.3310    0.7280    1.4940 C   0  0  0  0  0  0  0  0  0  0  0  0
    3.8240   -0.3390    0.5690 C   0  0  0  0  0  0  0  0  0  0  0  0
    2.2940   -0.0060    0.7140 C   0  0  2  0  0  0  0  0  0  0  0  0
    2.2140    1.3960    0.1600 C   0  0  0  0  0  0  0  0  0  0  0  0
    0.8970    1.7060   -0.5000 C   0  0  2  0  0  0  0  0  0  0  0  0
   -0.0350    2.0080    0.4610 O   0  0  0  0  0  0  0  0  0  0  0  0
    0.3780    0.6340   -1.4150 C   0  0  0  0  0  0  0  0  0  0  0  0
   -0.2830   -0.2880   -0.6970 O   0  0  0  0  0  0  0  0  0  0  0  0
   -2.0350   -0.6920   -2.3510 C   0  0  0  0  0  0  0  0  0  0  0  0
  2  1  1  1
  2  3  1  0
  2 21  1  0
  3  4  1  0
  5  4  1  1
  5  6  1  0
  5 20  1  0
  5 21  1  0
  6  7  1  0
  7  8  1  0
  8  9  2  0
  9 10  1  0
 10 11  2  0
 11 12  1  0
 11 15  1  0
 12 13  1  0
 13 14  1  0
 15 14  1  1
 15 16  1  0
 16 17  1  0
 17 18  1  1
 17 19  1  0
 19 20  1  0
M  END
