
     RDKit          3D

 21 23  0  0  0  0  0  0  0  0999 V2000
    3.5480   -1.1710    2.2530 C   0  0  0  0  0  0  0  0  0  0  0  0
    3.0400   -1.2990    1.0680 C   0  0  0  0  0  0  0  0  0  0  0  0
    2.3510   -2.5140    0.5510 C   0  0  0  0  0  0  0  0  0  0  0  0
    0.9310   -2.0750    0.2520 C   0  0  0  0  0  0  0  0  0  0  0  0
    0.8220   -0.9420   -0.7220 C   0  0  1  0  0  0  0  0  0  0  0  0
   -0.0940    0.1540   -0.2350 C   0  0  1  0  0  0  0  0  0  0  0  0
    0.4550    0.5890    0.9950 O   0  0  0  0  0  0  0  0  0  0  0  0
    0.0610    1.3560   -1.1610 C   0  0  0  0  0  0  0  0  0  0  0  0
   -0.9010    2.4680   -0.8390 C   0  0  0  0  0  0  0  0  0  0  0  0
   -2.1530    2.0020   -0.4720 O   0  0  0  0  0  0  0  0  0  0  0  0
   -2.3770    0.7100   -0.9680 C   0  0  2  0  0  0  0  0  0  0  0  0
   -3.8430    0.4640   -0.8360 C   0  0  0  0  0  0  0  0  0  0  0  0
   -4.3070    0.4770    0.5760 C   0  0  0  0  0  0  0  0  0  0  0  0
   -3.4030   -0.2580    1.5310 C   0  0  0  0  0  0  0  0  0  0  0  0
   -1.9530    0.1380    1.3300 C   0  0  0  0  0  0  0  0  0  0  0  0
   -1.5150   -0.2050   -0.1000 C   0  0  2  0  0  0  0  0  0  0  0  0
   -1.8810   -1.6470   -0.2840 C   0  0  0  0  0  0  0  0  0  0  0  0
    2.1940   -0.4630   -1.0910 C   0  0  0  0  0  0  0  0  0  0  0  0
    3.0910   -0.2240    0.0670 C   0  0  0  0  0  0  0  0  0  0  0  0
    3.8720    0.8260    0.2280 C   0  0  0  0  0  0  0  0  0  0  0  0
    3.9550    1.9340   -0.7530 C   0  0  0  0  0  0  0  0  0  0  0  0
  1  2  2  0
  2  3  1  0
  2 19  1  0
  3  4  1  0
  5  4  1  1
  5  6  1  0
  5 18  1  0
  6  7  1  1
  6  8  1  0
  6 16  1  0
  8  9  1  0
  9 10  1  0
 10 11  1  0
 11 12  1  1
 11 16  1  0
 12 13  1  0
 13 14  1  0
 14 15  1  0
 15 16  1  0
 16 17  1  6
 18 19  1  0
 19 20  2  3
 20 21  1  0
M  END
