
     RDKit          3D

 26 29  0  0  0  0  0  0  0  0999 V2000
   -6.8920    0.1510   -1.3230 C   0  0  0  0  0  0  0  0  0  0  0  0
   -6.7380   -0.3530    0.1040 C   0  0  1  0  0  0  0  0  0  0  0  0
   -6.0960   -1.6810    0.2040 C   0  0  0  0  0  0  0  0  0  0  0  0
   -6.1140    0.6720    0.9890 C   0  0  0  0  0  0  0  0  0  0  0  0
   -4.8210    1.0980    0.5800 N   0  0  0  0  0  0  0  0  0  0  0  0
   -3.6430    0.4120    0.8500 C   0  0  0  0  0  0  0  0  0  0  0  0
   -3.5300   -0.6960    1.5800 N   0  0  0  0  0  0  0  0  0  0  0  0
   -2.3560   -1.2760    1.8190 C   0  0  0  0  0  0  0  0  0  0  0  0
   -1.1840   -0.7470    1.3150 C   0  0  0  0  0  0  0  0  0  0  0  0
   -1.2400    0.3750    0.5700 N   0  0  0  0  0  0  0  0  0  0  0  0
   -0.2750    1.0740   -0.0430 C   0  0  0  0  0  0  0  0  0  0  0  0
    1.1560    0.8800   -0.1580 C   0  0  0  0  0  0  0  0  0  0  0  0
    1.9190    0.1100    0.6940 C   0  0  0  0  0  0  0  0  0  0  0  0
    3.2910   -0.0890    0.4580 C   0  0  0  0  0  0  0  0  0  0  0  0
    3.8980    0.4720   -0.6100 C   0  0  0  0  0  0  0  0  0  0  0  0
    5.3240    0.3130   -0.9250 C   0  0  0  0  0  0  0  0  0  0  0  0
    5.8240    0.8660   -1.9390 O   0  0  0  0  0  0  0  0  0  0  0  0
    6.1830   -0.4630   -0.1070 N   0  0  0  0  0  0  0  0  0  0  0  0
    7.5790   -0.5790   -0.4740 C   0  0  2  0  0  0  0  0  0  0  0  0
    8.3460   -1.7940   -0.0730 C   0  0  0  0  0  0  0  0  0  0  0  0
    8.5920   -0.5430    0.6940 C   0  0  0  0  0  0  0  0  0  0  0  0
    3.1320    1.2480   -1.4640 C   0  0  0  0  0  0  0  0  0  0  0  0
    1.8070    1.4560   -1.2630 C   0  0  0  0  0  0  0  0  0  0  0  0
   -0.9270    2.1310   -0.6920 C   0  0  0  0  0  0  0  0  0  0  0  0
   -2.2270    2.0170   -0.4360 N   0  0  0  0  0  0  0  0  0  0  0  0
   -2.4420    0.9300    0.3490 C   0  0  0  0  0  0  0  0  0  0  0  0
  2  1  1  6
  2  3  1  0
  2  4  1  0
  4  5  1  0
  5  6  1  0
  6  7  2  0
  6 26  1  0
  7  8  1  0
  8  9  2  0
  9 10  1  0
 10 11  1  0
 10 26  1  0
 11 12  1  0
 11 24  2  0
 12 13  2  0
 12 23  1  0
 13 14  1  0
 14 15  2  0
 15 16  1  0
 15 22  1  0
 16 17  2  0
 16 18  1  0
 19 18  1  1
 19 20  1  0
 19 21  1  0
 20 21  1  0
 22 23  2  0
 24 25  1  0
 25 26  2  0
M  END
