
     RDKit          3D

 39 42  0  0  0  0  0  0  0  0999 V2000
   -8.9390    3.3140    1.6470 C   0  0  0  0  0  0  0  0  0  0  0  0
   -7.6540    3.4920    1.5280 C   0  0  0  0  0  0  0  0  0  0  0  0
   -6.8380    2.5110    0.8390 C   0  0  0  0  0  0  0  0  0  0  0  0
   -5.5060    2.6610    0.6980 C   0  0  0  0  0  0  0  0  0  0  0  0
   -4.6750    1.6770    0.0040 C   0  0  0  0  0  0  0  0  0  0  0  0
   -3.3430    2.3420    0.0100 C   0  0  0  0  0  0  0  0  0  0  0  0
   -2.0960    1.9920   -0.5180 C   0  0  0  0  0  0  0  0  0  0  0  0
   -2.0140    0.7410   -1.2360 N   0  0  0  0  0  0  0  0  0  0  0  0
   -1.8510   -0.4300   -0.4280 C   0  0  0  0  0  0  0  0  0  0  0  0
   -1.7520   -1.6890   -1.2420 C   0  0  2  0  0  0  0  0  0  0  0  0
   -2.9980   -1.8310   -2.1000 C   0  0  0  0  0  0  0  0  0  0  0  0
   -2.9630   -3.0890   -2.9400 C   0  0  0  0  0  0  0  0  0  0  0  0
   -1.7030   -2.8580   -0.2800 C   0  0  0  0  0  0  0  0  0  0  0  0
   -0.7570   -3.7510   -0.1970 C   0  0  0  0  0  0  0  0  0  0  0  0
   -1.0870   -4.7160    0.8650 C   0  0  0  0  0  0  0  0  0  0  0  0
   -2.4010   -4.2380    1.3950 C   0  0  0  0  0  0  0  0  0  0  0  0
   -2.7290   -3.1670    0.7180 C   0  0  0  0  0  0  0  0  0  0  0  0
   -0.9520    2.7330   -0.3660 C   0  0  0  0  0  0  0  0  0  0  0  0
    0.2700    2.3880   -0.9170 O   0  0  0  0  0  0  0  0  0  0  0  0
    1.3890    3.1950   -0.6880 C   0  0  0  0  0  0  0  0  0  0  0  0
    2.6040    2.9100   -1.4610 C   0  0  0  0  0  0  0  0  0  0  0  0
    3.1960    1.7070   -1.3880 O   0  0  0  0  0  0  0  0  0  0  0  0
    3.7810    1.0940   -0.3190 C   0  0  0  0  0  0  0  0  0  0  0  0
    3.8130    1.5890    0.8080 O   0  0  0  0  0  0  0  0  0  0  0  0
    4.4230   -0.1960   -0.4710 N   0  0  0  0  0  0  0  0  0  0  0  0
    5.0740   -0.8330    0.6200 C   0  0  2  0  0  0  0  0  0  0  0  0
    6.5140   -0.3570    0.7500 C   0  0  0  0  0  0  0  0  0  0  0  0
    7.4650   -1.2960    0.1060 C   0  0  0  0  0  0  0  0  0  0  0  0
    6.9180   -2.0250   -1.0220 N   0  0  0  0  0  0  0  0  0  0  0  0
    5.9480   -2.9090   -0.5220 C   0  0  2  0  0  0  0  0  0  0  0  0
    6.4970   -4.2170    0.0240 C   0  0  0  0  0  0  0  0  0  0  0  0
    5.0140   -3.3110   -1.6490 C   0  0  0  0  0  0  0  0  0  0  0  0
    4.3320   -3.5920   -2.4470 N   0  0  0  0  0  0  0  0  0  0  0  0
    5.0220   -2.3010    0.5120 C   0  0  0  0  0  0  0  0  0  0  0  0
   -1.0510    3.8960    0.3680 C   0  0  0  0  0  0  0  0  0  0  0  0
   -2.2710    4.3070    0.9250 C   0  0  0  0  0  0  0  0  0  0  0  0
   -2.3510    5.5660    1.6990 C   0  0  0  0  0  0  0  0  0  0  0  0
   -3.3750    3.5120    0.7200 C   0  0  0  0  0  0  0  0  0  0  0  0
   -4.7110    3.6960    1.1450 O   0  0  0  0  0  0  0  0  0  0  0  0
  1  2  2  0
  2  3  1  0
  3  4  2  3
  4  5  1  0
  4 39  1  0
  5  6  1  0
  6  7  2  0
  6 38  1  0
  7  8  1  0
  7 18  1  0
  8  9  1  0
 10  9  1  1
 10 11  1  0
 10 13  1  0
 11 12  1  0
 13 14  2  0
 13 17  1  0
 14 15  1  0
 15 16  1  0
 16 17  2  0
 18 19  1  0
 18 35  2  0
 19 20  1  0
 20 21  1  0
 21 22  1  0
 22 23  1  0
 23 24  2  0
 23 25  1  0
 26 25  1  6
 26 27  1  0
 26 34  1  0
 27 28  1  0
 28 29  1  0
 29 30  1  0
 30 31  1  1
 30 32  1  0
 30 34  1  0
 32 33  3  0
 35 36  1  0
 36 37  1  0
 36 38  2  0
 38 39  1  0
M  END
