
     RDKit          3D

 39 41  0  0  0  0  0  0  0  0999 V2000
   -3.9020    6.1900   -3.1380 C   0  0  0  0  0  0  0  0  0  0  0  0
   -4.1910    5.1720   -2.5330 C   0  0  0  0  0  0  0  0  0  0  0  0
   -4.5150    3.9490   -1.8250 C   0  0  0  0  0  0  0  0  0  0  0  0
   -3.5250    2.9700   -2.0970 O   0  0  0  0  0  0  0  0  0  0  0  0
   -3.4240    1.8510   -1.2790 C   0  0  0  0  0  0  0  0  0  0  0  0
   -4.2440    1.6920   -0.2000 C   0  0  0  0  0  0  0  0  0  0  0  0
   -4.1290    0.5880    0.6420 C   0  0  0  0  0  0  0  0  0  0  0  0
   -3.1840   -0.3930    0.4250 C   0  0  0  0  0  0  0  0  0  0  0  0
   -3.0160   -1.4970    1.2840 N   0  0  0  0  0  0  0  0  0  0  0  0
   -3.8420   -1.9360    2.3200 C   0  0  0  0  0  0  0  0  0  0  0  0
   -4.9180   -1.2840    2.5380 O   0  0  0  0  0  0  0  0  0  0  0  0
   -3.5930   -3.0950    3.2020 C   0  0  1  0  0  0  0  0  0  0  0  0
   -2.5240   -2.7720    4.2530 C   0  0  0  0  0  0  0  0  0  0  0  0
   -4.8100   -3.3170    4.0070 N   0  0  0  0  0  0  0  0  0  0  0  0
   -5.9280   -3.6440    3.1300 C   0  0  0  0  0  0  0  0  0  0  0  0
   -2.3430   -0.2190   -0.7000 C   0  0  0  0  0  0  0  0  0  0  0  0
   -1.3980   -1.1690   -0.8990 O   0  0  0  0  0  0  0  0  0  0  0  0
   -0.5240   -1.3710   -1.9390 C   0  0  0  0  0  0  0  0  0  0  0  0
    0.6400   -0.5460   -2.1360 C   0  0  0  0  0  0  0  0  0  0  0  0
    1.1670    0.1950   -1.0700 C   0  0  0  0  0  0  0  0  0  0  0  0
    2.3910    0.8110   -1.1110 C   0  0  0  0  0  0  0  0  0  0  0  0
    3.0920    1.5130   -0.0280 C   0  0  2  0  0  0  0  0  0  0  0  0
    4.3580    0.6340    0.2160 N   0  0  0  0  0  0  0  0  0  0  0  0
    3.6780   -0.5050    0.8170 C   0  0  1  0  0  0  0  0  0  0  0  0
    4.6070   -1.4500    1.4290 C   0  0  0  0  0  0  0  0  0  0  0  0
    5.9200   -1.4820    1.2590 C   0  0  0  0  0  0  0  0  0  0  0  0
    3.9180   -2.4710    2.3220 C   0  0  0  0  0  0  0  0  0  0  0  0
    2.6480    0.0140    1.7000 N   0  0  0  0  0  0  0  0  0  0  0  0
    2.5350    1.4400    1.3490 C   0  0  2  0  0  0  0  0  0  0  0  0
    1.1850    1.9300    1.6150 C   0  0  0  0  0  0  0  0  0  0  0  0
    3.5030    2.0950    2.3420 C   0  0  0  0  0  0  0  0  0  0  0  0
    3.7750    3.5200    2.0520 C   0  0  0  0  0  0  0  0  0  0  0  0
    3.1010    0.6530   -2.3210 C   0  0  0  0  0  0  0  0  0  0  0  0
    2.5960   -0.0650   -3.3710 C   0  0  0  0  0  0  0  0  0  0  0  0
    1.3690   -0.6770   -3.3110 C   0  0  0  0  0  0  0  0  0  0  0  0
    0.8400   -1.4180   -4.3800 O   0  0  0  0  0  0  0  0  0  0  0  0
    1.4770   -1.6130   -5.6070 C   0  0  0  0  0  0  0  0  0  0  0  0
    1.6810   -0.2590   -6.2670 C   0  0  0  0  0  0  0  0  0  0  0  0
   -2.4930    0.8840   -1.5070 C   0  0  0  0  0  0  0  0  0  0  0  0
  1  2  3  0
  2  3  1  0
  3  4  1  0
  4  5  1  0
  5  6  2  0
  5 39  1  0
  6  7  1  0
  7  8  2  0
  8  9  1  0
  8 16  1  0
  9 10  1  0
 10 11  2  0
 10 12  1  0
 12 13  1  1
 12 14  1  0
 14 15  1  0
 16 17  1  0
 16 39  2  0
 17 18  1  0
 18 19  1  0
 19 20  2  0
 19 35  1  0
 20 21  1  0
 22 21  1  6
 21 33  2  0
 22 23  1  0
 22 29  1  0
 23 24  1  0
 24 25  1  1
 24 28  1  0
 25 26  2  0
 25 27  1  0
 28 29  1  0
 29 30  1  6
 29 31  1  0
 31 32  1  0
 33 34  1  0
 34 35  2  0
 35 36  1  0
 36 37  1  0
 37 38  1  0
M  END
