
     RDKit          3D

 39 41  0  0  0  0  0  0  0  0999 V2000
   -1.1520    0.0720   -3.1290 C   0  0  0  0  0  0  0  0  0  0  0  0
   -2.1100   -0.4980   -2.1060 C   0  0  0  0  0  0  0  0  0  0  0  0
   -2.3130    0.4260   -0.9740 C   0  0  0  0  0  0  0  0  0  0  0  0
   -3.2590   -0.3100    0.1060 C   0  0  2  0  0  0  0  0  0  0  0  0
   -2.4800   -1.5420    0.3530 N   0  0  0  0  0  0  0  0  0  0  0  0
   -1.0930   -1.5010    0.5880 C   0  0  0  0  0  0  0  0  0  0  0  0
   -0.4080   -0.4260    0.6080 O   0  0  0  0  0  0  0  0  0  0  0  0
   -0.3100   -2.7030    0.8280 N   0  0  0  0  0  0  0  0  0  0  0  0
    1.1380   -2.5080    0.8280 C   0  0  0  0  0  0  0  0  0  0  0  0
    1.6520   -2.4020   -0.4820 C   0  0  0  0  0  0  0  0  0  0  0  0
    2.9740   -2.1220   -0.6670 C   0  0  0  0  0  0  0  0  0  0  0  0
    3.8260   -1.9350    0.4060 C   0  0  0  0  0  0  0  0  0  0  0  0
    5.1730   -1.6130    0.4890 C   0  0  0  0  0  0  0  0  0  0  0  0
    5.9410   -1.3310   -0.7290 C   0  0  0  0  0  0  0  0  0  0  0  0
    7.2840   -0.7810   -0.5780 C   0  0  0  0  0  0  0  0  0  0  0  0
    8.3080   -1.4830   -0.6750 O   0  0  0  0  0  0  0  0  0  0  0  0
    7.4400    0.5180   -0.3280 O   0  0  0  0  0  0  0  0  0  0  0  0
    8.3980    1.4330   -0.1570 C   0  0  0  0  0  0  0  0  0  0  0  0
    9.6430    1.1560    0.5920 C   0  0  1  0  0  0  0  0  0  0  0  0
   10.5730    0.1300    0.0170 C   0  0  0  0  0  0  0  0  0  0  0  0
   10.3520    2.3940    1.0180 C   0  0  0  0  0  0  0  0  0  0  0  0
   10.7730    3.3550   -0.0470 C   0  0  0  0  0  0  0  0  0  0  0  0
    5.4930   -1.5250    1.8250 C   0  0  0  0  0  0  0  0  0  0  0  0
    6.8220   -1.1980    2.4070 C   0  0  0  0  0  0  0  0  0  0  0  0
    4.3180   -1.7910    2.5030 N   0  0  0  0  0  0  0  0  0  0  0  0
    3.3010   -2.0420    1.6680 C   0  0  0  0  0  0  0  0  0  0  0  0
    1.9480   -2.3330    1.8730 C   0  0  0  0  0  0  0  0  0  0  0  0
   -4.4820   -0.5130   -0.6440 C   0  0  0  0  0  0  0  0  0  0  0  0
   -4.6700    0.0890   -1.7360 O   0  0  0  0  0  0  0  0  0  0  0  0
   -5.5440   -1.3860   -0.2350 N   0  0  0  0  0  0  0  0  0  0  0  0
   -6.7440   -1.5090   -0.9940 C   0  0  0  0  0  0  0  0  0  0  0  0
   -7.6880   -0.3340   -0.7300 C   0  0  2  0  0  0  0  0  0  0  0  0
   -7.2180    1.0050   -1.0610 C   0  0  0  0  0  0  0  0  0  0  0  0
   -8.3870    2.0000   -0.8210 C   0  0  0  0  0  0  0  0  0  0  0  0
   -8.9940    1.8150    0.5260 C   0  0  2  0  0  0  0  0  0  0  0  0
  -10.3480    1.1420    0.3830 C   0  0  0  0  0  0  0  0  0  0  0  0
   -9.1340    3.1000    1.2720 C   0  0  0  0  0  0  0  0  0  0  0  0
   -8.0810    0.9270    1.3930 C   0  0  0  0  0  0  0  0  0  0  0  0
   -7.9760   -0.4220    0.7920 C   0  0  0  0  0  0  0  0  0  0  0  0
  1  2  1  0
  2  3  1  0
  4  3  1  6
  4  5  1  0
  4 28  1  0
  5  6  1  0
  6  7  2  0
  6  8  1  0
  8  9  1  0
  9 10  2  0
  9 27  1  0
 10 11  1  0
 11 12  2  0
 12 13  1  0
 12 26  1  0
 13 14  1  0
 13 23  2  0
 14 15  1  0
 15 16  2  0
 15 17  1  0
 17 18  1  0
 18 19  1  0
 19 20  1  6
 19 21  1  0
 21 22  1  0
 23 24  1  0
 23 25  1  0
 25 26  1  0
 26 27  2  0
 28 29  2  0
 28 30  1  0
 30 31  1  0
 32 31  1  1
 32 33  1  0
 32 39  1  0
 33 34  1  0
 34 35  1  0
 35 36  1  6
 35 37  1  0
 35 38  1  0
 38 39  1  0
M  END
