
     RDKit          3D

 39 41  0  0  0  0  0  0  0  0999 V2000
   -5.7510   -1.8730   -1.1000 C   0  0  0  0  0  0  0  0  0  0  0  0
   -4.7750   -2.7310   -1.2540 C   0  0  0  0  0  0  0  0  0  0  0  0
   -3.4650   -2.4790   -0.7440 C   0  0  0  0  0  0  0  0  0  0  0  0
   -2.4490   -3.2750   -0.8640 C   0  0  0  0  0  0  0  0  0  0  0  0
   -2.5020   -4.5730   -1.5630 C   0  0  0  0  0  0  0  0  0  0  0  0
   -3.2040   -1.2220   -0.0850 N   0  0  0  0  0  0  0  0  0  0  0  0
   -3.7110   -0.8140    1.1520 C   0  0  0  0  0  0  0  0  0  0  0  0
   -4.4830   -1.6190    1.7700 O   0  0  0  0  0  0  0  0  0  0  0  0
   -3.3860    0.5110    1.7800 C   0  0  2  0  0  0  0  0  0  0  0  0
   -4.6230    1.2180    2.1160 C   0  0  0  0  0  0  0  0  0  0  0  0
   -5.0590    2.2620    1.1940 C   0  0  0  0  0  0  0  0  0  0  0  0
   -6.3760    2.7170    1.3660 C   0  0  0  0  0  0  0  0  0  0  0  0
   -7.2540    2.1500    2.4230 C   0  0  0  0  0  0  0  0  0  0  0  0
   -6.8230    3.7080    0.5200 C   0  0  0  0  0  0  0  0  0  0  0  0
   -6.0000    4.2410   -0.4710 C   0  0  0  0  0  0  0  0  0  0  0  0
   -6.4740    5.3140   -1.3880 C   0  0  0  0  0  0  0  0  0  0  0  0
   -4.7150    3.7550   -0.5940 C   0  0  0  0  0  0  0  0  0  0  0  0
   -4.2340    2.7490    0.2510 C   0  0  0  0  0  0  0  0  0  0  0  0
   -2.8330    2.3040    0.0540 C   0  0  0  0  0  0  0  0  0  0  0  0
   -2.4680    1.1870    0.8690 N   0  0  0  0  0  0  0  0  0  0  0  0
   -1.1620    0.6290    0.8310 C   0  0  0  0  0  0  0  0  0  0  0  0
   -0.9200   -0.3650    1.6450 O   0  0  0  0  0  0  0  0  0  0  0  0
   -0.0540    1.0100    0.0040 C   0  0  0  0  0  0  0  0  0  0  0  0
    0.0320    1.9530   -0.9880 C   0  0  0  0  0  0  0  0  0  0  0  0
    1.3250    1.9210   -1.5430 C   0  0  0  0  0  0  0  0  0  0  0  0
    1.9820    0.9410   -0.8490 C   0  0  0  0  0  0  0  0  0  0  0  0
    3.3750    0.4870   -1.0800 C   0  0  0  0  0  0  0  0  0  0  0  0
    3.9700    0.9910   -2.0760 O   0  0  0  0  0  0  0  0  0  0  0  0
    3.9320   -0.4420   -0.2140 N   0  0  0  0  0  0  0  0  0  0  0  0
    5.3230   -0.9420   -0.4270 C   0  0  2  0  0  0  0  0  0  0  0  0
    5.2020   -2.4060   -0.3020 C   0  0  0  0  0  0  0  0  0  0  0  0
    6.1240   -3.3070   -0.4260 O   0  0  0  0  0  0  0  0  0  0  0  0
    6.8670   -3.6640   -1.4660 C   0  0  0  0  0  0  0  0  0  0  0  0
    7.8630   -2.6540   -1.9390 C   0  0  0  0  0  0  0  0  0  0  0  0
    8.8480   -2.4020   -0.7890 C   0  0  0  0  0  0  0  0  0  0  0  0
    6.2060   -0.2610    0.5920 C   0  0  2  0  0  0  0  0  0  0  0  0
    5.8070   -0.5370    2.0200 C   0  0  0  0  0  0  0  0  0  0  0  0
    6.0320    1.2460    0.3860 C   0  0  0  0  0  0  0  0  0  0  0  0
    1.1610    0.4090    0.0630 N   0  0  0  0  0  0  0  0  0  0  0  0
  1  2  2  0
  2  3  1  0
  3  4  2  3
  3  6  1  0
  4  5  1  0
  6  7  1  0
  7  8  2  0
  9  7  1  6
  9 10  1  0
  9 20  1  0
 10 11  1  0
 11 12  2  0
 11 18  1  0
 12 13  1  0
 12 14  1  0
 14 15  2  0
 15 16  1  0
 15 17  1  0
 17 18  2  0
 18 19  1  0
 19 20  1  0
 20 21  1  0
 21 22  2  0
 21 23  1  0
 23 24  2  0
 23 39  1  0
 24 25  1  0
 25 26  2  0
 26 27  1  0
 26 39  1  0
 27 28  2  0
 27 29  1  0
 29 30  1  0
 30 31  1  1
 30 36  1  0
 31 32  1  0
 32 33  1  0
 33 34  1  0
 34 35  1  0
 36 37  1  1
 36 38  1  0
M  END
