
     RDKit          3D

 39 41  0  0  0  0  0  0  0  0999 V2000
   -8.4970    3.2490    0.7920 C   0  0  0  0  0  0  0  0  0  0  0  0
   -8.2440    2.9520   -0.6390 C   0  0  0  0  0  0  0  0  0  0  0  0
   -7.4390    1.7660   -0.9800 C   0  0  0  0  0  0  0  0  0  0  0  0
   -6.0060    1.7470   -0.4680 C   0  0  1  0  0  0  0  0  0  0  0  0
   -5.3560    3.0210   -1.0290 C   0  0  0  0  0  0  0  0  0  0  0  0
   -5.8910    1.6900    0.9960 C   0  0  0  0  0  0  0  0  0  0  0  0
   -4.9720    0.6830    1.5230 N   0  0  0  0  0  0  0  0  0  0  0  0
   -3.9090    0.1740    0.7430 C   0  0  0  0  0  0  0  0  0  0  0  0
   -2.7460   -0.2580    1.3690 C   0  0  0  0  0  0  0  0  0  0  0  0
   -2.6290   -0.2400    2.8430 C   0  0  2  0  0  0  0  0  0  0  0  0
   -1.1940   -0.4840    3.2850 C   0  0  0  0  0  0  0  0  0  0  0  0
   -3.5480   -1.2730    3.4810 C   0  0  0  0  0  0  0  0  0  0  0  0
   -1.7210   -0.7350    0.5500 C   0  0  0  0  0  0  0  0  0  0  0  0
   -1.8320   -0.7870   -0.8140 C   0  0  0  0  0  0  0  0  0  0  0  0
   -0.7950   -1.2420   -1.6850 N   0  0  0  0  0  0  0  0  0  0  0  0
    0.5640   -1.3120   -1.3370 C   0  0  0  0  0  0  0  0  0  0  0  0
    0.9880   -0.9650   -0.2100 O   0  0  0  0  0  0  0  0  0  0  0  0
    1.6010   -1.8130   -2.3080 C   0  0  1  0  0  0  0  0  0  0  0  0
    1.5780   -1.0210   -3.5870 C   0  0  0  0  0  0  0  0  0  0  0  0
    2.9430   -1.7220   -1.7100 N   0  0  0  0  0  0  0  0  0  0  0  0
    3.6750   -2.8810   -1.4180 C   0  0  0  0  0  0  0  0  0  0  0  0
    3.1100   -3.9940   -1.7080 O   0  0  0  0  0  0  0  0  0  0  0  0
    5.0230   -2.8540   -0.8170 C   0  0  0  0  0  0  0  0  0  0  0  0
    5.4730   -1.5230   -0.5160 N   0  0  0  0  0  0  0  0  0  0  0  0
    4.8160   -0.7080    0.4380 C   0  0  0  0  0  0  0  0  0  0  0  0
    3.8090   -1.1820    1.0410 O   0  0  0  0  0  0  0  0  0  0  0  0
    5.2660    0.6610    0.7410 C   0  0  0  0  0  0  0  0  0  0  0  0
    6.4920    0.9500    0.1230 O   0  0  0  0  0  0  0  0  0  0  0  0
    7.6410    0.2600    0.4400 C   0  0  0  0  0  0  0  0  0  0  0  0
    7.6690   -0.7410    1.3880 C   0  0  0  0  0  0  0  0  0  0  0  0
    8.8370   -1.4050    1.6740 C   0  0  0  0  0  0  0  0  0  0  0  0
   10.0110   -1.0750    1.0100 C   0  0  0  0  0  0  0  0  0  0  0  0
   11.2990   -1.7740    1.2940 C   0  0  0  0  0  0  0  0  0  0  0  0
   10.0080   -0.0740    0.0550 C   0  0  0  0  0  0  0  0  0  0  0  0
    8.8300    0.5860   -0.2250 C   0  0  0  0  0  0  0  0  0  0  0  0
   -3.0350   -0.3350   -1.3720 C   0  0  0  0  0  0  0  0  0  0  0  0
   -4.0640    0.1400   -0.6140 C   0  0  0  0  0  0  0  0  0  0  0  0
   -5.3200    0.6190   -1.2250 C   0  0  2  0  0  0  0  0  0  0  0  0
   -5.0310    1.0330   -2.6770 C   0  0  0  0  0  0  0  0  0  0  0  0
  1  2  1  0
  2  3  1  0
  3  4  1  0
  4  5  1  6
  4  6  1  0
  4 38  1  0
  6  7  1  0
  7  8  1  0
  8  9  2  0
  8 37  1  0
  9 10  1  0
  9 13  1  0
 10 11  1  6
 10 12  1  0
 13 14  2  0
 14 15  1  0
 14 36  1  0
 15 16  1  0
 16 17  2  0
 16 18  1  0
 18 19  1  6
 18 20  1  0
 20 21  1  0
 21 22  2  0
 21 23  1  0
 23 24  1  0
 24 25  1  0
 25 26  2  0
 25 27  1  0
 27 28  1  0
 28 29  1  0
 29 30  2  0
 29 35  1  0
 30 31  1  0
 31 32  2  0
 32 33  1  0
 32 34  1  0
 34 35  2  0
 36 37  2  0
 37 38  1  0
 38 39  1  6
M  END
