
     RDKit          3D

 39 41  0  0  0  0  0  0  0  0999 V2000
   -8.9310    0.7120    3.4290 C   0  0  0  0  0  0  0  0  0  0  0  0
   -7.6470    0.9580    2.6660 C   0  0  0  0  0  0  0  0  0  0  0  0
   -7.8060    0.1270    1.3450 C   0  0  2  0  0  0  0  0  0  0  0  0
   -7.9770   -1.2970    1.8390 C   0  0  0  0  0  0  0  0  0  0  0  0
   -6.5710    0.3560    0.5950 C   0  0  0  0  0  0  0  0  0  0  0  0
   -6.2600   -0.2410   -0.6870 C   0  0  1  0  0  0  0  0  0  0  0  0
   -6.9360   -0.0970   -1.9440 C   0  0  0  0  0  0  0  0  0  0  0  0
   -8.3070   -0.4460   -2.2800 C   0  0  2  0  0  0  0  0  0  0  0  0
   -9.4280    0.2390   -1.5940 C   0  0  0  0  0  0  0  0  0  0  0  0
   -8.5540   -1.9640   -2.2810 C   0  0  0  0  0  0  0  0  0  0  0  0
   -4.7750    0.1300   -0.9770 C   0  0  0  0  0  0  0  0  0  0  0  0
   -4.4980    0.8240   -1.9650 O   0  0  0  0  0  0  0  0  0  0  0  0
   -3.7830   -0.3340   -0.1030 N   0  0  0  0  0  0  0  0  0  0  0  0
   -2.3980   -0.0710   -0.2410 C   0  0  0  0  0  0  0  0  0  0  0  0
   -1.5170   -0.8430    0.5360 C   0  0  0  0  0  0  0  0  0  0  0  0
   -0.1720   -0.6560    0.4810 C   0  0  0  0  0  0  0  0  0  0  0  0
    0.4240    0.3030   -0.3400 C   0  0  0  0  0  0  0  0  0  0  0  0
    1.7830    0.4370   -0.3480 O   0  0  0  0  0  0  0  0  0  0  0  0
    2.4940    1.3820   -1.1160 C   0  0  2  0  0  0  0  0  0  0  0  0
    3.2310    0.6250   -2.2290 C   0  0  0  0  0  0  0  0  0  0  0  0
    3.4270    2.1460   -0.2020 C   0  0  0  0  0  0  0  0  0  0  0  0
    4.1580    3.1390   -0.7200 O   0  0  0  0  0  0  0  0  0  0  0  0
    5.1220    2.9620   -1.6310 C   0  0  0  0  0  0  0  0  0  0  0  0
    6.2700    2.1430   -1.1880 C   0  0  0  0  0  0  0  0  0  0  0  0
    7.1910    1.4610   -0.8270 C   0  0  0  0  0  0  0  0  0  0  0  0
    8.3160    0.6490   -0.4060 C   0  0  0  0  0  0  0  0  0  0  0  0
    9.5320    1.2530   -0.1970 C   0  0  0  0  0  0  0  0  0  0  0  0
   10.6430    0.5350    0.1970 C   0  0  0  0  0  0  0  0  0  0  0  0
   10.5230   -0.8210    0.3830 C   0  0  0  0  0  0  0  0  0  0  0  0
   11.7150   -1.5800    0.7960 C   0  0  2  0  0  0  0  0  0  0  0  0
   11.3510   -2.4810    1.8620 N   0  0  0  0  0  0  0  0  0  0  0  0
   11.1870   -1.6360    2.9530 N   0  0  0  0  0  0  0  0  0  0  0  0
   12.2000   -0.6400    2.8200 C   0  0  0  0  0  0  0  0  0  0  0  0
   12.5670    0.1320    3.7340 O   0  0  0  0  0  0  0  0  0  0  0  0
   12.6800   -0.7110    1.4770 N   0  0  0  0  0  0  0  0  0  0  0  0
    9.3380   -1.4600    0.1880 C   0  0  0  0  0  0  0  0  0  0  0  0
    8.2310   -0.7030   -0.2110 C   0  0  0  0  0  0  0  0  0  0  0  0
   -0.4300    1.0500   -1.0910 C   0  0  0  0  0  0  0  0  0  0  0  0
   -1.8200    0.8590   -1.0360 C   0  0  0  0  0  0  0  0  0  0  0  0
  1  2  1  0
  2  3  1  0
  3  4  1  1
  3  5  1  0
  6  5  1  1
  6  7  1  0
  6 11  1  0
  7  8  1  0
  8  9  1  1
  8 10  1  0
 11 12  2  0
 11 13  1  0
 13 14  1  0
 14 15  2  0
 14 39  1  0
 15 16  1  0
 16 17  2  0
 17 18  1  0
 17 38  1  0
 18 19  1  0
 19 20  1  6
 19 21  1  0
 21 22  1  0
 22 23  1  0
 23 24  1  0
 24 25  3  0
 25 26  1  0
 26 27  2  0
 26 37  1  0
 27 28  1  0
 28 29  2  0
 30 29  1  1
 29 36  1  0
 30 31  1  0
 30 35  1  0
 31 32  1  0
 32 33  1  0
 33 34  2  0
 33 35  1  0
 36 37  2  0
 38 39  2  0
M  END
