
     RDKit          3D

 39 41  0  0  0  0  0  0  0  0999 V2000
   11.9700    2.5420    0.2960 C   0  0  0  0  0  0  0  0  0  0  0  0
   12.3200    1.2960    0.4050 C   0  0  0  0  0  0  0  0  0  0  0  0
   11.4240    0.1950    0.1740 C   0  0  0  0  0  0  0  0  0  0  0  0
   11.9040   -1.0490    0.3440 C   0  0  0  0  0  0  0  0  0  0  0  0
   10.0290    0.2760   -0.2160 C   0  0  0  0  0  0  0  0  0  0  0  0
    9.5210    1.1170   -1.1690 C   0  0  0  0  0  0  0  0  0  0  0  0
    8.1710    1.1710   -1.4720 C   0  0  0  0  0  0  0  0  0  0  0  0
    7.2490    0.3540   -0.8090 C   0  0  0  0  0  0  0  0  0  0  0  0
    5.8250    0.4570   -1.1850 C   0  0  0  0  0  0  0  0  0  0  0  0
    4.9170   -0.0250   -0.1810 N   0  0  0  0  0  0  0  0  0  0  0  0
    3.5080   -0.0720   -0.3980 C   0  0  0  0  0  0  0  0  0  0  0  0
    3.0780    0.3290   -1.5050 O   0  0  0  0  0  0  0  0  0  0  0  0
    2.5770   -0.5490    0.5760 N   0  0  0  0  0  0  0  0  0  0  0  0
    1.1840   -0.6060    0.3570 C   0  0  0  0  0  0  0  0  0  0  0  0
    0.6920   -1.5490   -0.6520 C   0  0  0  0  0  0  0  0  0  0  0  0
   -0.7700   -1.4580   -0.9870 C   0  0  0  0  0  0  0  0  0  0  0  0
   -1.5350   -0.5770   -0.3820 C   0  0  0  0  0  0  0  0  0  0  0  0
   -2.9470   -0.4730   -0.6910 C   0  0  0  0  0  0  0  0  0  0  0  0
   -3.7640    0.3770   -0.1280 C   0  0  0  0  0  0  0  0  0  0  0  0
   -5.1860    0.4790   -0.4430 C   0  0  0  0  0  0  0  0  0  0  0  0
   -6.0070    1.3530    0.1430 O   0  0  0  0  0  0  0  0  0  0  0  0
   -6.9340    1.3770    1.1310 C   0  0  2  0  0  0  0  0  0  0  0  0
   -6.5190    1.0100    2.5210 C   0  0  0  0  0  0  0  0  0  0  0  0
   -8.3000    0.8970    0.7490 C   0  0  0  0  0  0  0  0  0  0  0  0
   -9.1290    1.6510    0.0160 C   0  0  0  0  0  0  0  0  0  0  0  0
   -8.9800    3.0080   -0.5690 C   0  0  0  0  0  0  0  0  0  0  0  0
   -7.8060    3.6520   -0.3620 O   0  0  0  0  0  0  0  0  0  0  0  0
  -10.3650    0.8560   -0.1980 C   0  0  0  0  0  0  0  0  0  0  0  0
  -10.2630   -0.2670    0.3570 N   0  0  0  0  0  0  0  0  0  0  0  0
   -8.9700   -0.3720    0.9990 C   0  0  1  0  0  0  0  0  0  0  0  0
   -8.3600   -1.5940    0.6640 N   0  0  0  0  0  0  0  0  0  0  0  0
   -7.2240   -1.9290    1.4440 C   0  0  0  0  0  0  0  0  0  0  0  0
   -5.6600   -0.3660   -1.3770 C   0  0  0  0  0  0  0  0  0  0  0  0
   -4.8090   -1.3560   -2.0660 C   0  0  0  0  0  0  0  0  0  0  0  0
   -3.4780   -1.3290   -1.6490 O   0  0  0  0  0  0  0  0  0  0  0  0
    1.3350   -2.4570   -1.3110 C   0  0  0  0  0  0  0  0  0  0  0  0
    2.7350   -2.8650   -1.2850 C   0  0  0  0  0  0  0  0  0  0  0  0
    7.7460   -0.4970    0.1500 C   0  0  0  0  0  0  0  0  0  0  0  0
    9.0950   -0.5360    0.4390 C   0  0  0  0  0  0  0  0  0  0  0  0
  1  2  2  0
  2  3  1  0
  3  4  2  0
  3  5  1  0
  5  6  2  0
  5 39  1  0
  6  7  1  0
  7  8  2  0
  8  9  1  0
  8 38  1  0
  9 10  1  0
 10 11  1  0
 11 12  2  0
 11 13  1  0
 13 14  1  0
 14 15  1  0
 15 16  1  0
 15 36  2  3
 16 17  2  3
 17 18  1  0
 18 19  2  0
 18 35  1  0
 19 20  1  0
 20 21  1  0
 20 33  2  0
 21 22  1  0
 22 23  1  1
 22 24  1  0
 24 25  2  0
 24 30  1  0
 25 26  1  0
 25 28  1  0
 26 27  1  0
 28 29  2  0
 29 30  1  0
 30 31  1  6
 31 32  1  0
 33 34  1  0
 34 35  1  0
 36 37  1  0
 38 39  2  0
M  END
