
     RDKit          3D

 13 12  0  0  0  0  0  0  0  0999 V2000
   -3.5770    0.6700   -1.2540 C   0  0  0  0  0  0  0  0  0  0  0  0
   -3.4200   -0.5030   -0.3640 C   0  0  0  0  0  0  0  0  0  0  0  0
   -4.6040   -1.3200   -0.0110 C   0  0  0  0  0  0  0  0  0  0  0  0
   -2.2340   -0.8490    0.1330 C   0  0  0  0  0  0  0  0  0  0  0  0
   -1.0800   -0.0220   -0.2340 C   0  0  0  0  0  0  0  0  0  0  0  0
    0.0940   -0.3640    0.2590 C   0  0  0  0  0  0  0  0  0  0  0  0
    1.2500    0.4410   -0.0910 C   0  0  0  0  0  0  0  0  0  0  0  0
    1.0490    1.8260   -1.1450 Cl  0  0  0  0  0  0  0  0  0  0  0  0
    2.4370    0.1140    0.3920 C   0  0  0  0  0  0  0  0  0  0  0  0
    3.5820    0.9280    0.0330 C   0  0  0  0  0  0  0  0  0  0  0  0
    3.4080    2.0180   -0.7990 O   0  0  0  0  0  0  0  0  0  0  0  0
    4.7910    0.6450    0.4890 C   0  0  0  0  0  0  0  0  0  0  0  0
    4.9610   -0.4760    1.3430 N   0  0  0  0  0  0  0  0  0  0  0  0
  1  2  1  0
  2  3  1  0
  2  4  2  3
  4  5  1  0
  5  6  2  3
  6  7  1  0
  7  8  1  0
  7  9  2  3
  9 10  1  0
 10 11  1  0
 10 12  2  3
 12 13  1  0
M  END
