
     RDKit          3D

 13 13  0  0  0  0  0  0  0  0999 V2000
   -4.7300    0.7980    1.2870 O   0  0  0  0  0  0  0  0  0  0  0  0
   -3.8940    0.4410    0.2270 C   0  0  0  0  0  0  0  0  0  0  0  0
   -2.4760    0.1940    0.7110 C   0  0  0  0  0  0  0  0  0  0  0  0
   -1.6540   -0.1840   -0.5010 C   0  0  0  0  0  0  0  0  0  0  0  0
   -0.2800   -0.4470   -0.1820 N   0  0  0  0  0  0  0  0  0  0  0  0
    0.1340   -1.5630    0.5810 C   0  0  0  0  0  0  0  0  0  0  0  0
    1.3870   -1.8120    0.8800 C   0  0  0  0  0  0  0  0  0  0  0  0
    2.4770   -0.9420    0.4390 C   0  0  0  0  0  0  0  0  0  0  0  0
    2.0320    0.2030   -0.3470 C   0  0  0  0  0  0  0  0  0  0  0  0
    3.0700    1.1440   -0.8380 C   0  0  0  0  0  0  0  0  0  0  0  0
    4.3270    0.9290   -0.5630 C   0  0  0  0  0  0  0  0  0  0  0  0
    5.6050    2.0100   -1.1170 Cl  0  0  0  0  0  0  0  0  0  0  0  0
    0.7660    0.4110   -0.6200 C   0  0  0  0  0  0  0  0  0  0  0  0
  1  2  1  0
  2  3  1  0
  3  4  1  0
  4  5  1  0
  5  6  1  0
  5 13  1  0
  6  7  2  0
  7  8  1  0
  8  9  1  0
  9 10  1  0
  9 13  2  0
 10 11  2  3
 11 12  1  0
M  END
