
     RDKit          3D

 19 21  0  0  0  0  0  0  0  0999 V2000
    7.2680    1.4410   -0.3670 Cl  0  0  0  0  0  0  0  0  0  0  0  0
    5.5970    0.8270   -0.2230 C   0  0  0  0  0  0  0  0  0  0  0  0
    4.6040    1.5300   -0.7090 C   0  0  0  0  0  0  0  0  0  0  0  0
    3.2420    1.0560   -0.6080 N   0  0  0  0  0  0  0  0  0  0  0  0
    2.9830   -0.1900    0.0250 C   0  0  0  0  0  0  0  0  0  0  0  0
    1.8460   -0.4950    0.4830 N   0  0  0  0  0  0  0  0  0  0  0  0
    0.7630    0.3800    0.3960 N   0  0  0  0  0  0  0  0  0  0  0  0
   -0.5750   -0.0430    0.3210 C   0  0  0  0  0  0  0  0  0  0  0  0
   -0.9190   -1.3830    0.3300 C   0  0  0  0  0  0  0  0  0  0  0  0
   -2.2620   -1.7560    0.2540 C   0  0  0  0  0  0  0  0  0  0  0  0
   -3.2670   -0.8110    0.1700 C   0  0  0  0  0  0  0  0  0  0  0  0
   -2.9210    0.5170    0.1620 C   0  0  0  0  0  0  0  0  0  0  0  0
   -1.5990    0.8750    0.2370 C   0  0  0  0  0  0  0  0  0  0  0  0
   -3.8770    1.4990    0.0800 O   0  0  0  0  0  0  0  0  0  0  0  0
   -5.2690    1.2480    0.1010 C   0  0  0  0  0  0  0  0  0  0  0  0
   -5.6260   -0.1530   -0.2660 C   0  0  0  0  0  0  0  0  0  0  0  0
   -4.6430   -1.1330    0.0910 N   0  0  0  0  0  0  0  0  0  0  0  0
    4.1220   -1.1220    0.1210 C   0  0  0  0  0  0  0  0  0  0  0  0
    5.4020   -0.4430    0.4540 C   0  0  0  0  0  0  0  0  0  0  0  0
  1  2  1  0
  2  3  2  0
  2 19  1  0
  3  4  1  0
  4  5  1  0
  5  6  2  3
  5 18  1  0
  6  7  1  0
  7  8  1  0
  8  9  2  0
  8 13  1  0
  9 10  1  0
 10 11  2  0
 11 12  1  0
 11 17  1  0
 12 13  2  0
 12 14  1  0
 14 15  1  0
 15 16  1  0
 16 17  1  0
 18 19  1  0
M  END
