
     RDKit          3D

 13 13  0  0  0  0  0  0  0  0999 V2000
   -2.1940   -0.2440    1.7290 C   0  0  0  0  0  0  0  0  0  0  0  0
   -2.3390    0.7240    0.5790 C   0  0  2  0  0  0  0  0  0  0  0  0
   -3.4270    0.3300   -0.3840 C   0  0  0  0  0  0  0  0  0  0  0  0
   -1.0030    0.8550   -0.1280 C   0  0  0  0  0  0  0  0  0  0  0  0
   -0.5440   -0.4150   -0.6500 N   0  0  0  0  0  0  0  0  0  0  0  0
    0.8850   -0.4010   -0.5570 C   0  0  0  0  0  0  0  0  0  0  0  0
    1.5420    0.6440   -1.1880 C   0  0  0  0  0  0  0  0  0  0  0  0
    2.9100    0.7340   -1.1500 C   0  0  0  0  0  0  0  0  0  0  0  0
    3.6340   -0.2280   -0.4750 C   0  0  0  0  0  0  0  0  0  0  0  0
    5.0360   -0.1540   -0.4230 O   0  0  0  0  0  0  0  0  0  0  0  0
    2.9850   -1.2690    0.1550 C   0  0  0  0  0  0  0  0  0  0  0  0
    1.6030   -1.3550    0.1120 C   0  0  0  0  0  0  0  0  0  0  0  0
    0.7600   -2.6620    0.9000 Cl  0  0  0  0  0  0  0  0  0  0  0  0
  2  1  1  1
  2  3  1  0
  2  4  1  0
  4  5  1  0
  5  6  1  0
  6  7  2  0
  6 12  1  0
  7  8  1  0
  8  9  2  0
  9 10  1  0
  9 11  1  0
 11 12  2  0
 12 13  1  0
M  CHG  1   5   1
M  END
