
     RDKit          3D

 13 12  0  0  0  0  0  0  0  0999 V2000
    1.6860    1.3050   -2.1040 C   0  0  0  0  0  0  0  0  0  0  0  0
    0.9470    0.7240   -1.1210 C   0  0  0  0  0  0  0  0  0  0  0  0
   -0.4580    0.7220   -1.3590 C   0  0  0  0  0  0  0  0  0  0  0  0
   -1.4930    0.3000   -0.7290 C   0  0  0  0  0  0  0  0  0  0  0  0
   -2.8360    0.4880   -1.3220 C   0  0  0  0  0  0  0  0  0  0  0  0
   -2.9340    1.2860   -2.8660 Cl  0  0  0  0  0  0  0  0  0  0  0  0
   -3.9210    0.0700   -0.7080 C   0  0  0  0  0  0  0  0  0  0  0  0
   -3.8160   -0.6100    0.6120 C   0  0  0  0  0  0  0  0  0  0  0  0
    1.6590    0.2080   -0.0100 C   0  0  0  0  0  0  0  0  0  0  0  0
    3.1010    0.4020   -0.1320 O   0  0  0  0  0  0  0  0  0  0  0  0
    1.2320   -0.3870    1.0550 C   0  0  0  0  0  0  0  0  0  0  0  0
    2.1920   -0.8480    2.1020 C   0  0  0  0  0  0  0  0  0  0  0  0
    3.5200   -0.5110    1.6860 N   0  0  0  0  0  0  0  0  0  0  0  0
  1  2  2  0
  2  3  1  0
  2  9  1  0
  3  4  2  3
  4  5  1  0
  5  6  1  0
  5  7  2  3
  7  8  1  0
  9 10  1  0
  9 11  2  3
 11 12  1  0
 12 13  1  0
M  END
