
     RDKit          3D

 13 13  0  0  0  0  0  0  0  0999 V2000
   -3.6390    1.7180    1.0610 C   0  0  0  0  0  0  0  0  0  0  0  0
   -2.1360    1.4990    0.7120 C   0  0  0  0  0  0  0  0  0  0  0  0
   -1.2610    2.9640    0.7060 Cl  0  0  0  0  0  0  0  0  0  0  0  0
   -1.8030    0.3080    0.4900 C   0  0  0  0  0  0  0  0  0  0  0  0
   -0.6630   -0.4930    0.1440 C   0  0  0  0  0  0  0  0  0  0  0  0
   -1.0170   -1.8370    0.0500 C   0  0  0  0  0  0  0  0  0  0  0  0
   -2.3380   -2.2200    0.2840 O   0  0  0  0  0  0  0  0  0  0  0  0
    0.7060   -0.2790   -0.1200 C   0  0  0  0  0  0  0  0  0  0  0  0
    1.2860    0.9050   -0.0950 C   0  0  0  0  0  0  0  0  0  0  0  0
    2.7690    0.9320   -0.4070 C   0  0  0  0  0  0  0  0  0  0  0  0
    3.1090    0.2040   -1.5830 N   0  0  0  0  0  0  0  0  0  0  0  0
    2.2590   -0.9160   -1.8380 C   0  0  0  0  0  0  0  0  0  0  0  0
    1.7170   -1.3660   -0.4670 C   0  0  0  0  0  0  0  0  0  0  0  0
  1  2  1  0
  2  3  1  0
  2  4  2  3
  4  5  1  0
  5  6  2  3
  5  8  1  0
  6  7  1  0
  8  9  2  0
  8 13  1  0
  9 10  1  0
 10 11  1  0
 11 12  1  0
 12 13  1  0
M  END
