
     RDKit          3D

 30 33  0  0  0  0  0  0  0  0999 V2000
   -4.3910    1.7270    0.2810 C   0  0  0  0  0  0  0  0  0  0  0  0
   -4.2110    0.2280    0.3860 C   0  0  2  0  0  0  0  0  0  0  0  0
   -2.7600   -0.1700    0.3420 C   0  0  0  0  0  0  0  0  0  0  0  0
   -1.9900    0.4460    1.4650 C   0  0  0  0  0  0  0  0  0  0  0  0
   -2.6150    1.1830    2.2640 O   0  0  0  0  0  0  0  0  0  0  0  0
   -0.6170    0.2350    1.6530 N   0  0  0  0  0  0  0  0  0  0  0  0
    0.0950    0.8420    2.7430 C   0  0  0  0  0  0  0  0  0  0  0  0
    1.2180    1.7150    2.2450 C   0  0  0  0  0  0  0  0  0  0  0  0
    1.9990    1.0230    1.1190 C   0  0  1  0  0  0  0  0  0  0  0  0
    1.5830    1.6290   -0.0620 O   0  0  0  0  0  0  0  0  0  0  0  0
    3.4440    1.2140    1.4090 C   0  0  0  0  0  0  0  0  0  0  0  0
    4.3620    0.6530    0.4900 N   0  0  0  0  0  0  0  0  0  0  0  0
    4.8130    1.3170   -0.5830 C   0  0  0  0  0  0  0  0  0  0  0  0
    5.6630    0.8510   -1.4750 N   0  0  0  0  0  0  0  0  0  0  0  0
    6.1960   -0.4270   -1.3850 C   0  0  0  0  0  0  0  0  0  0  0  0
    7.0520   -0.9720   -2.2330 C   0  0  0  0  0  0  0  0  0  0  0  0
    7.7830   -0.0870   -3.8470 Br  0  0  0  0  0  0  0  0  0  0  0  0
    7.5100   -2.2840   -2.0150 C   0  0  0  0  0  0  0  0  0  0  0  0
    6.5870   -2.6810   -0.4530 S   0  0  0  0  0  0  0  0  0  0  0  0
    5.7360   -1.1100   -0.2870 C   0  0  0  0  0  0  0  0  0  0  0  0
    4.8550   -0.6020    0.6210 C   0  0  0  0  0  0  0  0  0  0  0  0
    4.5070   -1.3060    1.5760 O   0  0  0  0  0  0  0  0  0  0  0  0
    1.6290   -0.4300    1.0420 C   0  0  0  0  0  0  0  0  0  0  0  0
    0.1560   -0.6190    0.7440 C   0  0  0  0  0  0  0  0  0  0  0  0
   -4.9000   -0.4690   -0.7270 C   0  0  0  0  0  0  0  0  0  0  0  0
   -4.5840   -0.2040   -2.0590 C   0  0  0  0  0  0  0  0  0  0  0  0
   -5.2510   -0.8770   -3.0620 C   0  0  0  0  0  0  0  0  0  0  0  0
   -6.2370   -1.8200   -2.7990 C   0  0  0  0  0  0  0  0  0  0  0  0
   -6.5480   -2.0800   -1.4740 C   0  0  0  0  0  0  0  0  0  0  0  0
   -5.8730   -1.4000   -0.4880 C   0  0  0  0  0  0  0  0  0  0  0  0
  2  1  1  6
  2  3  1  0
  2 25  1  0
  3  4  1  0
  4  5  2  0
  4  6  1  0
  6  7  1  0
  6 24  1  0
  7  8  1  0
  8  9  1  0
  9 10  1  6
  9 11  1  0
  9 23  1  0
 11 12  1  0
 12 13  1  0
 12 21  1  0
 13 14  2  0
 14 15  1  0
 15 16  1  0
 15 20  2  0
 16 17  1  0
 16 18  2  0
 18 19  1  0
 19 20  1  0
 20 21  1  0
 21 22  2  0
 23 24  1  0
 25 26  2  0
 25 30  1  0
 26 27  1  0
 27 28  2  0
 28 29  1  0
 29 30  2  0
M  END
