
     RDKit          3D

 29 31  0  0  0  0  0  0  0  0999 V2000
    5.1770    0.6340   -2.8870 N   0  0  0  0  0  0  0  0  0  0  0  0
    4.3070   -0.3100   -3.4660 C   0  0  0  0  0  0  0  0  0  0  0  0
    4.6910   -0.9800   -4.4450 O   0  0  0  0  0  0  0  0  0  0  0  0
    2.9580   -0.5030   -2.9210 C   0  0  0  0  0  0  0  0  0  0  0  0
    2.5430    0.2010   -1.8840 C   0  0  0  0  0  0  0  0  0  0  0  0
    3.4490    1.1090   -1.3650 O   0  0  0  0  0  0  0  0  0  0  0  0
    3.5320    1.5680   -0.0600 C   0  0  0  0  0  0  0  0  0  0  0  0
    3.7630    0.4770    0.9300 C   0  0  0  0  0  0  0  0  0  0  0  0
    3.9070   -0.8670    0.6680 C   0  0  0  0  0  0  0  0  0  0  0  0
    4.1040   -1.5140    1.8800 C   0  0  0  0  0  0  0  0  0  0  0  0
    4.0660   -0.5020    2.8240 C   0  0  0  0  0  0  0  0  0  0  0  0
    3.8660    0.6300    2.2190 O   0  0  0  0  0  0  0  0  0  0  0  0
    1.2100    0.0140   -1.3420 C   0  0  0  0  0  0  0  0  0  0  0  0
    0.9210    0.7420   -0.3490 O   0  0  0  0  0  0  0  0  0  0  0  0
    0.2330   -0.8780   -1.8030 N   0  0  0  0  0  0  0  0  0  0  0  0
   -1.0740   -1.0820   -1.3030 C   0  0  0  0  0  0  0  0  0  0  0  0
   -1.7590   -2.2110   -1.7720 C   0  0  0  0  0  0  0  0  0  0  0  0
   -3.0320   -2.4250   -1.3150 C   0  0  0  0  0  0  0  0  0  0  0  0
   -3.6260   -1.5660   -0.4240 C   0  0  0  0  0  0  0  0  0  0  0  0
   -2.9810   -0.4470    0.0580 C   0  0  0  0  0  0  0  0  0  0  0  0
   -3.6420    0.4190    1.0140 C   0  0  0  0  0  0  0  0  0  0  0  0
   -4.1360   -0.0950    2.2170 C   0  0  0  0  0  0  0  0  0  0  0  0
   -4.7410    0.7110    3.1580 C   0  0  0  0  0  0  0  0  0  0  0  0
   -5.2330    0.1910    4.3590 O   0  0  0  0  0  0  0  0  0  0  0  0
   -4.8810    2.0700    2.9440 C   0  0  0  0  0  0  0  0  0  0  0  0
   -4.4000    2.5890    1.7650 C   0  0  0  0  0  0  0  0  0  0  0  0
   -3.7850    1.7660    0.8070 C   0  0  0  0  0  0  0  0  0  0  0  0
   -3.3280    2.3540   -0.3600 O   0  0  0  0  0  0  0  0  0  0  0  0
   -1.6820   -0.2290   -0.4090 C   0  0  0  0  0  0  0  0  0  0  0  0
  1  2  1  0
  2  3  2  0
  2  4  1  0
  4  5  2  3
  5  6  1  0
  5 13  1  0
  6  7  1  0
  7  8  1  0
  8  9  2  0
  8 12  1  0
  9 10  1  0
 10 11  2  0
 11 12  1  0
 13 14  2  0
 13 15  1  0
 15 16  1  0
 16 17  2  0
 16 29  1  0
 17 18  1  0
 18 19  2  0
 19 20  1  0
 20 21  1  0
 20 29  2  0
 21 22  2  0
 21 27  1  0
 22 23  1  0
 23 24  1  0
 23 25  2  0
 25 26  1  0
 26 27  2  0
 27 28  1  0
M  END
