
     RDKit          3D

 29 31  0  0  0  0  0  0  0  0999 V2000
   -7.3420    1.9480    2.1470 C   0  0  0  0  0  0  0  0  0  0  0  0
   -6.0450    1.6560    1.6520 O   0  0  0  0  0  0  0  0  0  0  0  0
   -5.8960    0.7230    0.6140 C   0  0  0  0  0  0  0  0  0  0  0  0
   -7.0090    0.1030    0.0870 C   0  0  0  0  0  0  0  0  0  0  0  0
   -6.9140   -0.8170   -0.9300 C   0  0  0  0  0  0  0  0  0  0  0  0
   -8.0470   -1.4420   -1.4590 O   0  0  0  0  0  0  0  0  0  0  0  0
   -5.6560   -1.0980   -1.4060 C   0  0  0  0  0  0  0  0  0  0  0  0
   -5.4850   -2.0110   -2.4270 O   0  0  0  0  0  0  0  0  0  0  0  0
   -4.5250   -0.4580   -0.8600 C   0  0  0  0  0  0  0  0  0  0  0  0
   -4.6100    0.4610    0.1550 C   0  0  0  0  0  0  0  0  0  0  0  0
   -3.5420    1.1480    0.7600 N   0  0  0  0  0  0  0  0  0  0  0  0
   -2.1680    1.0390    0.4570 C   0  0  0  0  0  0  0  0  0  0  0  0
   -1.8040    0.2600   -0.4420 O   0  0  0  0  0  0  0  0  0  0  0  0
   -1.1280    1.8210    1.1710 C   0  0  0  0  0  0  0  0  0  0  0  0
    0.2680    1.5020    0.7710 C   0  0  0  0  0  0  0  0  0  0  0  0
    0.6950    0.0870    1.0260 C   0  0  0  0  0  0  0  0  0  0  0  0
    2.1180   -0.0390    0.5700 C   0  0  0  0  0  0  0  0  0  0  0  0
    2.8410    0.9880    0.0360 C   0  0  0  0  0  0  0  0  0  0  0  0
    4.1430    0.8120   -0.3670 C   0  0  0  0  0  0  0  0  0  0  0  0
    4.7210    1.8200   -0.8470 O   0  0  0  0  0  0  0  0  0  0  0  0
    4.7910   -0.4250   -0.2510 C   0  0  0  0  0  0  0  0  0  0  0  0
    6.1720   -0.5080   -0.6790 C   0  0  0  0  0  0  0  0  0  0  0  0
    6.9730   -1.5200   -0.8390 C   0  0  0  0  0  0  0  0  0  0  0  0
    8.3040   -1.0200   -1.3030 C   0  0  0  0  0  0  0  0  0  0  0  0
    8.2890    0.3300   -1.1140 O   0  0  0  0  0  0  0  0  0  0  0  0
    6.9820    0.7240   -1.0070 C   0  0  0  0  0  0  0  0  0  0  0  0
    4.0340   -1.4260    0.2890 C   0  0  0  0  0  0  0  0  0  0  0  0
    4.6200   -2.7810    0.5010 C   0  0  0  0  0  0  0  0  0  0  0  0
    2.7370   -1.2220    0.6820 N   0  0  0  0  0  0  0  0  0  0  0  0
  1  2  1  0
  2  3  1  0
  3  4  2  0
  3 10  1  0
  4  5  1  0
  5  6  1  0
  5  7  2  0
  7  8  1  0
  7  9  1  0
  9 10  2  0
 10 11  1  0
 11 12  1  0
 12 13  2  0
 12 14  1  0
 14 15  1  0
 15 16  1  0
 16 17  1  0
 17 18  2  0
 17 29  1  0
 18 19  1  0
 19 20  2  0
 19 21  1  0
 21 22  1  0
 21 27  2  0
 22 23  2  0
 22 26  1  0
 23 24  1  0
 24 25  1  0
 25 26  1  0
 27 28  1  0
 27 29  1  0
M  END
