
     RDKit          3D

 29 32  0  0  0  0  0  0  0  0999 V2000
   -9.1500    0.4950    2.4660 C   0  0  0  0  0  0  0  0  0  0  0  0
   -7.8140    0.2100    1.8500 C   0  0  0  0  0  0  0  0  0  0  0  0
   -7.6940   -0.2300    0.5460 C   0  0  0  0  0  0  0  0  0  0  0  0
   -6.4750   -0.4990   -0.0410 C   0  0  0  0  0  0  0  0  0  0  0  0
   -5.3020   -0.3290    0.6890 C   0  0  0  0  0  0  0  0  0  0  0  0
   -5.4220    0.1100    1.9920 C   0  0  0  0  0  0  0  0  0  0  0  0
   -6.6540    0.3780    2.5730 C   0  0  0  0  0  0  0  0  0  0  0  0
   -4.1540    0.1840    2.4500 N   0  0  0  0  0  0  0  0  0  0  0  0
   -3.3010   -0.1900    1.4810 C   0  0  0  0  0  0  0  0  0  0  0  0
   -1.9190   -0.3040    1.4040 C   0  0  0  0  0  0  0  0  0  0  0  0
   -1.2720   -0.7210    0.2760 C   0  0  0  0  0  0  0  0  0  0  0  0
    0.2150   -0.8200    0.2910 C   0  0  0  0  0  0  0  0  0  0  0  0
    0.7660    0.5190   -0.1270 C   0  0  0  0  0  0  0  0  0  0  0  0
    2.2560    0.4760   -0.1220 C   0  0  0  0  0  0  0  0  0  0  0  0
    2.8180   -0.5030   -1.0810 C   0  0  0  0  0  0  0  0  0  0  0  0
    2.1600   -1.1570   -1.9240 O   0  0  0  0  0  0  0  0  0  0  0  0
    4.2410   -0.7740   -1.0940 N   0  0  0  0  0  0  0  0  0  0  0  0
    4.7590   -1.6860   -1.9920 N   0  0  0  0  0  0  0  0  0  0  0  0
    5.9270   -1.5880   -2.4580 C   0  0  0  0  0  0  0  0  0  0  0  0
    6.8540   -0.5230   -2.1160 C   0  0  0  0  0  0  0  0  0  0  0  0
    8.1690   -0.4020   -2.6150 C   0  0  0  0  0  0  0  0  0  0  0  0
    8.7340    0.7250   -2.0680 C   0  0  0  0  0  0  0  0  0  0  0  0
    7.7780    1.2600   -1.2640 C   0  0  0  0  0  0  0  0  0  0  0  0
    7.8640    2.5000   -0.4240 C   0  0  0  0  0  0  0  0  0  0  0  0
    6.7210    0.5040   -1.3290 O   0  0  0  0  0  0  0  0  0  0  0  0
   -2.0150   -1.0430   -0.8410 C   0  0  0  0  0  0  0  0  0  0  0  0
   -3.3840   -0.9290   -0.7600 C   0  0  0  0  0  0  0  0  0  0  0  0
   -4.0700   -1.2200   -1.7680 O   0  0  0  0  0  0  0  0  0  0  0  0
   -4.0020   -0.5180    0.3610 N   0  0  0  0  0  0  0  0  0  0  0  0
  1  2  1  0
  2  3  2  0
  2  7  1  0
  3  4  1  0
  4  5  2  0
  5  6  1  0
  5 29  1  0
  6  7  2  0
  6  8  1  0
  8  9  1  0
  9 10  2  0
  9 29  1  0
 10 11  1  0
 11 12  1  0
 11 26  2  0
 12 13  1  0
 13 14  1  0
 14 15  1  0
 15 16  2  0
 15 17  1  0
 17 18  1  0
 18 19  2  3
 19 20  1  0
 20 21  2  0
 20 25  1  0
 21 22  1  0
 22 23  2  0
 23 24  1  0
 23 25  1  0
 26 27  1  0
 27 28  2  0
 27 29  1  0
M  END
