
     RDKit          3D

 29 31  0  0  0  0  0  0  0  0999 V2000
   -7.4640   -2.2620   -0.7740 C   0  0  0  0  0  0  0  0  0  0  0  0
   -6.0810   -2.0740   -0.5370 O   0  0  0  0  0  0  0  0  0  0  0  0
   -5.6330   -0.7700   -0.2980 C   0  0  0  0  0  0  0  0  0  0  0  0
   -6.4770    0.3080   -0.2880 C   0  0  0  0  0  0  0  0  0  0  0  0
   -5.9890    1.5730   -0.0490 C   0  0  0  0  0  0  0  0  0  0  0  0
   -4.6620    1.8240    0.1880 C   0  0  0  0  0  0  0  0  0  0  0  0
   -4.1730    3.1000    0.4290 O   0  0  0  0  0  0  0  0  0  0  0  0
   -5.0940    4.1720    0.4260 C   0  0  0  0  0  0  0  0  0  0  0  0
   -3.7710    0.7320    0.1830 C   0  0  0  0  0  0  0  0  0  0  0  0
   -2.4100    0.9780    0.4250 N   0  0  0  0  0  0  0  0  0  0  0  0
   -1.3380    0.0390    0.4670 C   0  0  0  0  0  0  0  0  0  0  0  0
   -1.6070   -1.1450    0.2710 O   0  0  0  0  0  0  0  0  0  0  0  0
   -0.0150    0.4130    0.7190 N   0  0  0  0  0  0  0  0  0  0  0  0
    1.1010   -0.4510    0.7810 C   0  0  0  0  0  0  0  0  0  0  0  0
    1.0620   -1.8210    0.7590 C   0  0  0  0  0  0  0  0  0  0  0  0
    2.2390   -2.5890    0.8150 C   0  0  0  0  0  0  0  0  0  0  0  0
    3.4870   -2.0190    0.8950 C   0  0  0  0  0  0  0  0  0  0  0  0
    4.6210   -2.8180    0.9480 O   0  0  0  0  0  0  0  0  0  0  0  0
    3.5410   -0.6460    0.9190 C   0  0  0  0  0  0  0  0  0  0  0  0
    4.7170    0.0260    0.9960 O   0  0  0  0  0  0  0  0  0  0  0  0
    5.7950    0.0240    0.1510 C   0  0  0  0  0  0  0  0  0  0  0  0
    6.9090   -0.7590    0.2640 C   0  0  0  0  0  0  0  0  0  0  0  0
    7.9150   -0.6540   -0.6630 C   0  0  0  0  0  0  0  0  0  0  0  0
    7.8650    0.2190   -1.7290 C   0  0  0  0  0  0  0  0  0  0  0  0
    8.8990    0.3080   -2.6570 O   0  0  0  0  0  0  0  0  0  0  0  0
    6.7340    1.0020   -1.8280 C   0  0  0  0  0  0  0  0  0  0  0  0
    5.7070    0.9240   -0.9190 C   0  0  0  0  0  0  0  0  0  0  0  0
    2.3900    0.1050    0.8640 C   0  0  0  0  0  0  0  0  0  0  0  0
   -4.2720   -0.5100   -0.0550 C   0  0  0  0  0  0  0  0  0  0  0  0
  1  2  1  0
  2  3  1  0
  3  4  2  0
  3 29  1  0
  4  5  1  0
  5  6  2  0
  6  7  1  0
  6  9  1  0
  7  8  1  0
  9 10  1  0
  9 29  2  0
 10 11  1  0
 11 12  2  0
 11 13  1  0
 13 14  1  0
 14 15  2  0
 14 28  1  0
 15 16  1  0
 16 17  2  0
 17 18  1  0
 17 19  1  0
 19 20  1  0
 19 28  2  0
 20 21  1  0
 21 22  2  0
 21 27  1  0
 22 23  1  0
 23 24  2  0
 24 25  1  0
 24 26  1  0
 26 27  2  0
M  END
