
     RDKit          3D

 29 31  0  0  0  0  0  0  0  0999 V2000
    7.8330    0.0220    2.0240 C   0  0  0  0  0  0  0  0  0  0  0  0
    6.3320   -0.1230    2.0650 C   0  0  0  0  0  0  0  0  0  0  0  0
    5.8080    0.1130    0.7930 O   0  0  0  0  0  0  0  0  0  0  0  0
    4.4530    0.0560    0.5000 C   0  0  0  0  0  0  0  0  0  0  0  0
    3.5040   -0.2430    1.4550 C   0  0  0  0  0  0  0  0  0  0  0  0
    2.1680   -0.2880    1.1160 C   0  0  0  0  0  0  0  0  0  0  0  0
    1.2040   -0.6020    2.1290 N   0  0  0  0  0  0  0  0  0  0  0  0
    1.7040   -0.0390   -0.1880 C   0  0  0  0  0  0  0  0  0  0  0  0
    0.3220   -0.1180   -0.3950 N   0  0  0  0  0  0  0  0  0  0  0  0
   -0.3370    0.0980   -1.6230 C   0  0  0  0  0  0  0  0  0  0  0  0
    0.3400    0.3850   -2.6440 O   0  0  0  0  0  0  0  0  0  0  0  0
   -1.8210   -0.0050   -1.7540 C   0  0  0  0  0  0  0  0  0  0  0  0
   -2.3280   -0.0800   -3.0340 C   0  0  0  0  0  0  0  0  0  0  0  0
   -3.6790   -0.1700   -3.1960 C   0  0  0  0  0  0  0  0  0  0  0  0
   -4.5690   -0.1880   -2.1050 C   0  0  0  0  0  0  0  0  0  0  0  0
   -5.9220   -0.2820   -2.3800 O   0  0  0  0  0  0  0  0  0  0  0  0
   -4.0500   -0.1120   -0.8390 C   0  0  0  0  0  0  0  0  0  0  0  0
   -4.9020   -0.1170    0.3390 C   0  0  0  0  0  0  0  0  0  0  0  0
   -6.2120   -0.1630    0.3270 C   0  0  0  0  0  0  0  0  0  0  0  0
   -7.0860   -0.1680    1.5440 C   0  0  0  0  0  0  0  0  0  0  0  0
   -6.3850   -0.1240    2.7410 O   0  0  0  0  0  0  0  0  0  0  0  0
   -5.0200   -0.0750    2.7850 C   0  0  0  0  0  0  0  0  0  0  0  0
   -4.4250   -0.0310    4.0480 O   0  0  0  0  0  0  0  0  0  0  0  0
   -4.2770   -0.0700    1.6750 C   0  0  0  0  0  0  0  0  0  0  0  0
   -2.6570   -0.0210   -0.6910 C   0  0  0  0  0  0  0  0  0  0  0  0
    2.6770    0.2520   -1.0960 C   0  0  0  0  0  0  0  0  0  0  0  0
    4.0280    0.3060   -0.7870 C   0  0  0  0  0  0  0  0  0  0  0  0
    4.9870    0.6050   -1.7390 O   0  0  0  0  0  0  0  0  0  0  0  0
    4.5480    0.8610   -3.0600 C   0  0  0  0  0  0  0  0  0  0  0  0
  1  2  1  0
  2  3  1  0
  3  4  1  0
  4  5  2  0
  4 27  1  0
  5  6  1  0
  6  7  1  0
  6  8  2  0
  8  9  1  0
  8 26  1  0
  9 10  1  0
 10 11  2  0
 10 12  1  0
 12 13  2  0
 12 25  1  0
 13 14  1  0
 14 15  2  0
 15 16  1  0
 15 17  1  0
 17 18  1  0
 17 25  2  0
 18 19  2  0
 18 24  1  0
 19 20  1  0
 20 21  1  0
 21 22  1  0
 22 23  1  0
 22 24  2  0
 26 27  2  0
 27 28  1  0
 28 29  1  0
M  END
