
     RDKit          3D

 29 31  0  0  0  0  0  0  0  0999 V2000
    2.9550   -5.3150   -0.2150 C   0  0  0  0  0  0  0  0  0  0  0  0
    2.2220   -4.0440   -0.1990 C   0  0  0  0  0  0  0  0  0  0  0  0
    0.8660   -4.0200   -0.0390 C   0  0  0  0  0  0  0  0  0  0  0  0
    0.1660   -2.8180   -0.0280 C   0  0  0  0  0  0  0  0  0  0  0  0
    0.8200   -1.6170   -0.1790 C   0  0  0  0  0  0  0  0  0  0  0  0
    0.1830   -0.4430   -0.1660 O   0  0  0  0  0  0  0  0  0  0  0  0
   -0.9850    0.1230    0.0700 C   0  0  0  0  0  0  0  0  0  0  0  0
   -2.1310   -0.4380    0.6090 C   0  0  0  0  0  0  0  0  0  0  0  0
   -3.3140    0.2280    0.8170 C   0  0  0  0  0  0  0  0  0  0  0  0
   -3.4070    1.5370    0.4820 C   0  0  0  0  0  0  0  0  0  0  0  0
   -2.3100    2.1620   -0.0570 C   0  0  0  0  0  0  0  0  0  0  0  0
   -1.1260    1.4850   -0.2640 C   0  0  0  0  0  0  0  0  0  0  0  0
   -0.0530    2.2090   -0.8380 N   0  0  0  0  0  0  0  0  0  0  0  0
   -4.5270    2.5180    0.5820 C   0  0  0  0  0  0  0  0  0  0  0  0
   -5.8590    1.9200    0.8500 C   0  0  0  0  0  0  0  0  0  0  0  0
   -6.0720    0.5930    0.1690 C   0  0  0  0  0  0  0  0  0  0  0  0
   -5.7140   -0.5640    1.1030 C   0  0  0  0  0  0  0  0  0  0  0  0
   -4.3210   -0.5550    1.3710 O   0  0  0  0  0  0  0  0  0  0  0  0
    2.2280   -1.6540   -0.3470 C   0  0  0  0  0  0  0  0  0  0  0  0
    3.0000   -0.4270   -0.5160 C   0  0  0  0  0  0  0  0  0  0  0  0
    4.2710   -0.5740   -0.6490 O   0  0  0  0  0  0  0  0  0  0  0  0
    2.4900    0.8410   -0.5460 O   0  0  0  0  0  0  0  0  0  0  0  0
    3.3110    1.9580   -0.7150 C   0  0  0  0  0  0  0  0  0  0  0  0
    4.3030    2.1420    0.4250 C   0  0  0  0  0  0  0  0  0  0  0  0
    5.1590    3.3350    0.1580 C   0  0  0  0  0  0  0  0  0  0  0  0
    5.6670    3.3970   -0.9930 O   0  0  0  0  0  0  0  0  0  0  0  0
    5.4160    4.3400    1.0630 O   0  0  0  0  0  0  0  0  0  0  0  0
    2.8960   -2.8600   -0.3520 C   0  0  0  0  0  0  0  0  0  0  0  0
    4.2960   -2.9280   -0.5170 N   0  0  0  0  0  0  0  0  0  0  0  0
  1  2  1  0
  2  3  2  0
  2 28  1  0
  3  4  1  0
  4  5  2  0
  5  6  1  0
  5 19  1  0
  6  7  1  0
  7  8  2  0
  7 12  1  0
  8  9  1  0
  9 10  2  0
  9 18  1  0
 10 11  1  0
 10 14  1  0
 11 12  2  0
 12 13  1  0
 14 15  1  0
 15 16  1  0
 16 17  1  0
 17 18  1  0
 19 20  1  0
 19 28  2  0
 20 21  2  0
 20 22  1  0
 22 23  1  0
 23 24  1  0
 24 25  1  0
 25 26  2  0
 25 27  1  0
 28 29  1  0
M  END
