
     RDKit          3D

 29 32  0  0  0  0  0  0  0  0999 V2000
   -6.7980    2.1210    0.4590 C   0  0  0  0  0  0  0  0  0  0  0  0
   -5.9910    0.9200    0.1180 C   0  0  0  0  0  0  0  0  0  0  0  0
   -6.5800   -0.2900   -0.1850 C   0  0  0  0  0  0  0  0  0  0  0  0
   -5.7850   -1.3930   -0.5000 C   0  0  0  0  0  0  0  0  0  0  0  0
   -6.4260   -2.6990   -0.8270 C   0  0  0  0  0  0  0  0  0  0  0  0
   -4.4400   -1.2190   -0.4930 C   0  0  0  0  0  0  0  0  0  0  0  0
   -3.6190   -2.3440   -0.8140 N   0  0  0  0  0  0  0  0  0  0  0  0
   -3.7880   -0.0250   -0.1950 C   0  0  0  0  0  0  0  0  0  0  0  0
   -2.3330    0.0250   -0.2240 C   0  0  0  0  0  0  0  0  0  0  0  0
   -1.6090   -1.0730   -0.5360 N   0  0  0  0  0  0  0  0  0  0  0  0
   -0.2660   -1.0370   -0.5650 C   0  0  0  0  0  0  0  0  0  0  0  0
    0.3370   -2.0980   -0.8630 O   0  0  0  0  0  0  0  0  0  0  0  0
    0.4150    0.0860   -0.2870 N   0  0  0  0  0  0  0  0  0  0  0  0
    1.8560    0.1000   -0.3250 C   0  0  0  0  0  0  0  0  0  0  0  0
    2.5800    0.7290    0.6460 C   0  0  0  0  0  0  0  0  0  0  0  0
    3.9750    0.7320    0.5920 C   0  0  0  0  0  0  0  0  0  0  0  0
    4.6700    0.1270   -0.3990 C   0  0  0  0  0  0  0  0  0  0  0  0
    6.1090    0.0940   -0.5110 C   0  0  0  0  0  0  0  0  0  0  0  0
    6.7610   -0.5140   -1.5080 O   0  0  0  0  0  0  0  0  0  0  0  0
    8.0380   -0.4200   -1.4110 C   0  0  0  0  0  0  0  0  0  0  0  0
    8.2960    0.2970   -0.2770 C   0  0  0  0  0  0  0  0  0  0  0  0
    7.0610    0.6230    0.2940 C   0  0  0  0  0  0  0  0  0  0  0  0
    6.9030    1.4030    1.5450 C   0  0  0  0  0  0  0  0  0  0  0  0
    3.9110   -0.5130   -1.3870 C   0  0  0  0  0  0  0  0  0  0  0  0
    2.5320   -0.5270   -1.3510 C   0  0  0  0  0  0  0  0  0  0  0  0
   -0.2830    1.1860    0.0240 C   0  0  0  0  0  0  0  0  0  0  0  0
    0.3210    2.2760    0.2950 O   0  0  0  0  0  0  0  0  0  0  0  0
   -1.6470    1.1410    0.0510 N   0  0  0  0  0  0  0  0  0  0  0  0
   -4.5980    1.0420    0.1100 C   0  0  0  0  0  0  0  0  0  0  0  0
  1  2  1  0
  2  3  2  0
  2 29  1  0
  3  4  1  0
  4  5  1  0
  4  6  2  0
  6  7  1  0
  6  8  1  0
  8  9  1  0
  8 29  2  0
  9 10  2  0
  9 28  1  0
 10 11  1  0
 11 12  2  0
 11 13  1  0
 13 14  1  0
 13 26  1  0
 14 15  2  0
 14 25  1  0
 15 16  1  0
 16 17  2  0
 17 18  1  0
 17 24  1  0
 18 19  1  0
 18 22  2  0
 19 20  1  0
 20 21  2  0
 21 22  1  0
 22 23  1  0
 24 25  2  0
 26 27  2  0
 26 28  1  0
M  END
