
     RDKit          3D

 29 31  0  0  0  0  0  0  0  0999 V2000
   -0.9130    3.0000   -0.3870 C   0  0  0  0  0  0  0  0  0  0  0  0
   -1.5180    1.7320   -0.5460 O   0  0  0  0  0  0  0  0  0  0  0  0
   -0.7010    0.6110   -0.5760 C   0  0  0  0  0  0  0  0  0  0  0  0
    0.6830    0.7290   -0.4550 C   0  0  0  0  0  0  0  0  0  0  0  0
    1.5310   -0.3520   -0.4810 C   0  0  0  0  0  0  0  0  0  0  0  0
    2.9790   -0.2140   -0.3520 C   0  0  0  0  0  0  0  0  0  0  0  0
    3.6090    0.9000   -0.8310 C   0  0  0  0  0  0  0  0  0  0  0  0
    5.0000    1.0210   -0.7020 C   0  0  0  0  0  0  0  0  0  0  0  0
    5.7910    0.0780   -0.1140 C   0  0  0  0  0  0  0  0  0  0  0  0
    7.1960    0.1220    0.0570 N   0  0  0  0  0  0  0  0  0  0  0  0
    7.9750    1.1960   -0.3830 C   0  0  0  0  0  0  0  0  0  0  0  0
    7.5560    2.2150   -0.9590 O   0  0  0  0  0  0  0  0  0  0  0  0
    5.0950   -1.0510    0.3650 C   0  0  0  0  0  0  0  0  0  0  0  0
    5.8420   -2.0510    0.9760 O   0  0  0  0  0  0  0  0  0  0  0  0
    3.7400   -1.1890    0.2490 C   0  0  0  0  0  0  0  0  0  0  0  0
    1.0160   -1.6190   -0.6330 C   0  0  0  0  0  0  0  0  0  0  0  0
   -0.3480   -1.7490   -0.7540 C   0  0  0  0  0  0  0  0  0  0  0  0
   -1.2070   -0.6620   -0.7280 C   0  0  0  0  0  0  0  0  0  0  0  0
   -2.5590   -0.8580   -0.8550 O   0  0  0  0  0  0  0  0  0  0  0  0
   -3.5300   -0.5410    0.0640 C   0  0  0  0  0  0  0  0  0  0  0  0
   -3.2670    0.0200    1.2980 C   0  0  0  0  0  0  0  0  0  0  0  0
   -4.2810    0.3240    2.1940 C   0  0  0  0  0  0  0  0  0  0  0  0
   -5.6010    0.0770    1.8880 C   0  0  0  0  0  0  0  0  0  0  0  0
   -6.6110    0.3820    2.7850 O   0  0  0  0  0  0  0  0  0  0  0  0
   -5.8590   -0.4850    0.6530 C   0  0  0  0  0  0  0  0  0  0  0  0
   -4.8610   -0.7900   -0.2420 C   0  0  0  0  0  0  0  0  0  0  0  0
   -5.2090   -1.3840   -1.5310 C   0  0  0  0  0  0  0  0  0  0  0  0
   -6.5600   -1.6490   -1.8680 N   0  0  0  0  0  0  0  0  0  0  0  0
   -4.3240   -1.6680   -2.3600 O   0  0  0  0  0  0  0  0  0  0  0  0
  1  2  1  0
  2  3  1  0
  3  4  2  0
  3 18  1  0
  4  5  1  0
  5  6  1  0
  5 16  2  0
  6  7  2  0
  6 15  1  0
  7  8  1  0
  8  9  2  0
  9 10  1  0
  9 13  1  0
 10 11  1  0
 11 12  2  0
 13 14  1  0
 13 15  2  0
 16 17  1  0
 17 18  2  0
 18 19  1  0
 19 20  1  0
 20 21  2  0
 20 26  1  0
 21 22  1  0
 22 23  2  0
 23 24  1  0
 23 25  1  0
 25 26  2  0
 26 27  1  0
 27 28  1  0
 27 29  2  0
M  END
