
     RDKit          3D

 29 31  0  0  0  0  0  0  0  0999 V2000
    1.0210   -0.3580    2.1050 C   0  0  0  0  0  0  0  0  0  0  0  0
    1.6110    1.0080    2.1550 C   0  0  0  0  0  0  0  0  0  0  0  0
    1.7680    1.6770    3.3170 C   0  0  0  0  0  0  0  0  0  0  0  0
    1.4020    1.1710    4.5730 O   0  0  0  0  0  0  0  0  0  0  0  0
    2.3680    2.9790    3.0000 C   0  0  0  0  0  0  0  0  0  0  0  0
    2.6680    2.9430    1.6450 O   0  0  0  0  0  0  0  0  0  0  0  0
    2.1530    1.7520    1.0400 C   0  0  0  0  0  0  0  0  0  0  0  0
    2.2200    1.5290   -0.2440 C   0  0  0  0  0  0  0  0  0  0  0  0
    1.7380    0.4130   -1.0120 C   0  0  0  0  0  0  0  0  0  0  0  0
    2.6310   -0.3520   -1.7820 C   0  0  0  0  0  0  0  0  0  0  0  0
    2.2260   -1.4270   -2.5330 C   0  0  0  0  0  0  0  0  0  0  0  0
    3.1330   -2.1490   -3.2900 O   0  0  0  0  0  0  0  0  0  0  0  0
    2.8600   -3.2710   -4.0400 C   0  0  0  0  0  0  0  0  0  0  0  0
    2.3940   -4.4010   -3.2450 C   0  0  0  0  0  0  0  0  0  0  0  0
    2.2880   -4.3860   -1.8310 N   0  0  0  0  0  0  0  0  0  0  0  0
    2.0680   -5.4610   -3.8690 O   0  0  0  0  0  0  0  0  0  0  0  0
    0.8990   -1.7980   -2.5520 C   0  0  0  0  0  0  0  0  0  0  0  0
    0.0090   -1.0650   -1.8100 C   0  0  0  0  0  0  0  0  0  0  0  0
    0.4310    0.0200   -1.0590 C   0  0  0  0  0  0  0  0  0  0  0  0
   -0.5340    0.7380   -0.3340 O   0  0  0  0  0  0  0  0  0  0  0  0
   -1.8670    0.3280   -0.3750 C   0  0  0  0  0  0  0  0  0  0  0  0
   -2.8150    1.1520    0.3800 C   0  0  0  0  0  0  0  0  0  0  0  0
   -2.4270    2.2610    1.0920 C   0  0  0  0  0  0  0  0  0  0  0  0
   -3.3600    3.0050    1.7920 C   0  0  0  0  0  0  0  0  0  0  0  0
   -2.9000    4.1150    2.4930 O   0  0  0  0  0  0  0  0  0  0  0  0
   -4.6490    2.6610    1.7880 N   0  0  0  0  0  0  0  0  0  0  0  0
   -5.0700    1.5780    1.1010 C   0  0  0  0  0  0  0  0  0  0  0  0
   -4.1560    0.8150    0.3910 C   0  0  0  0  0  0  0  0  0  0  0  0
   -4.5860   -0.3780   -0.3710 C   0  0  0  0  0  0  0  0  0  0  0  0
  1  2  1  0
  2  3  2  0
  2  7  1  0
  3  4  1  0
  3  5  1  0
  5  6  1  0
  6  7  1  0
  7  8  2  3
  8  9  1  0
  9 10  2  0
  9 19  1  0
 10 11  1  0
 11 12  1  0
 11 17  2  0
 12 13  1  0
 13 14  1  0
 14 15  1  0
 14 16  2  0
 17 18  1  0
 18 19  2  0
 19 20  1  0
 20 21  1  0
 21 22  1  0
 22 23  2  0
 22 28  1  0
 23 24  1  0
 24 25  1  0
 24 26  2  0
 26 27  1  0
 27 28  2  0
 28 29  1  0
M  END
