
     RDKit          3D

 28 30  0  0  0  0  0  0  0  0999 V2000
   -6.1950    0.2690   -1.7350 C   0  0  0  0  0  0  0  0  0  0  0  0
   -6.0670    1.6700   -1.1790 C   0  0  0  0  0  0  0  0  0  0  0  0
   -4.7240    2.1080   -1.1920 O   0  0  0  0  0  0  0  0  0  0  0  0
   -3.7520    1.3890   -0.4670 C   0  0  0  0  0  0  0  0  0  0  0  0
   -2.6300    1.0490   -1.0420 C   0  0  0  0  0  0  0  0  0  0  0  0
   -1.5740    0.3010   -0.3460 C   0  0  0  0  0  0  0  0  0  0  0  0
   -0.4580    0.0210   -0.9610 C   0  0  0  0  0  0  0  0  0  0  0  0
    0.6710   -0.7140   -0.4180 C   0  0  0  0  0  0  0  0  0  0  0  0
    1.8780   -0.0720   -0.1320 C   0  0  0  0  0  0  0  0  0  0  0  0
    2.9770   -0.7360    0.3390 C   0  0  0  0  0  0  0  0  0  0  0  0
    4.2560   -0.1070    0.6460 C   0  0  0  0  0  0  0  0  0  0  0  0
    4.4970    1.2070    0.1830 N   0  0  1  0  0  0  0  0  0  0  0  0
    4.1540    1.4840   -1.1650 C   0  0  0  0  0  0  0  0  0  0  0  0
    4.0000    2.1940    1.1450 C   0  0  0  0  0  0  0  0  0  0  0  0
    4.2530    3.6080    0.7050 C   0  0  0  0  0  0  0  0  0  0  0  0
    2.8320   -2.1060    0.5230 C   0  0  0  0  0  0  0  0  0  0  0  0
    1.6580   -2.7570    0.2480 C   0  0  0  0  0  0  0  0  0  0  0  0
    1.5410   -4.1440    0.4220 C   0  0  0  0  0  0  0  0  0  0  0  0
    0.3780   -4.8120    0.1320 C   0  0  0  0  0  0  0  0  0  0  0  0
   -0.7100   -4.1140   -0.3430 C   0  0  0  0  0  0  0  0  0  0  0  0
   -0.6270   -2.7580   -0.5220 C   0  0  0  0  0  0  0  0  0  0  0  0
    0.5470   -2.0990   -0.2260 C   0  0  0  0  0  0  0  0  0  0  0  0
   -1.8170   -0.0580    1.0320 C   0  0  0  0  0  0  0  0  0  0  0  0
   -0.9920   -0.6960    1.7460 O   0  0  0  0  0  0  0  0  0  0  0  0
   -3.1030    0.3510    1.6310 C   0  0  0  0  0  0  0  0  0  0  0  0
   -3.3900    0.0100    3.0100 C   0  0  0  0  0  0  0  0  0  0  0  0
   -4.4830    0.3580    3.5060 O   0  0  0  0  0  0  0  0  0  0  0  0
   -3.9860    1.0260    0.9070 C   0  0  0  0  0  0  0  0  0  0  0  0
  1  2  1  0
  2  3  1  0
  3  4  1  0
  4  5  2  0
  4 28  1  0
  5  6  1  0
  6  7  2  3
  6 23  1  0
  7  8  1  0
  8  9  2  0
  8 22  1  0
  9 10  1  0
 10 11  1  0
 10 16  2  0
 11 12  1  0
 12 13  1  6
 12 14  1  0
 14 15  1  0
 16 17  1  0
 17 18  2  0
 17 22  1  0
 18 19  1  0
 19 20  2  0
 20 21  1  0
 21 22  2  0
 23 24  2  0
 23 25  1  0
 25 26  1  0
 25 28  2  0
 26 27  2  0
M  CHG  1  12   1
M  END
