
     RDKit          3D

 28 31  0  0  0  0  0  0  0  0999 V2000
    7.0450    0.7720    1.1120 C   0  0  0  0  0  0  0  0  0  0  0  0
    5.6420    0.6040    0.7050 C   0  0  0  0  0  0  0  0  0  0  0  0
    5.0940   -0.6790    0.5980 C   0  0  0  0  0  0  0  0  0  0  0  0
    3.7860   -0.8560    0.2190 C   0  0  0  0  0  0  0  0  0  0  0  0
    2.9890    0.2270   -0.0640 C   0  0  0  0  0  0  0  0  0  0  0  0
    3.5320    1.5160    0.0410 C   0  0  0  0  0  0  0  0  0  0  0  0
    4.8300    1.6650    0.4190 C   0  0  0  0  0  0  0  0  0  0  0  0
    5.3920    3.0330    0.5260 C   0  0  0  0  0  0  0  0  0  0  0  0
    1.5650    0.1280   -0.4780 C   0  0  0  0  0  0  0  0  0  0  0  0
    1.1090   -1.2050   -0.6960 N   0  0  2  0  0  0  0  0  0  0  0  0
    0.2480   -1.6960    0.3630 C   0  0  0  0  0  0  0  0  0  0  0  0
   -1.2150   -1.7090   -0.0240 C   0  0  1  0  0  0  0  0  0  0  0  0
   -1.9530   -2.2540    1.1880 C   0  0  0  0  0  0  0  0  0  0  0  0
   -1.6150   -0.2960   -0.3280 C   0  0  0  0  0  0  0  0  0  0  0  0
   -3.0040   -0.1150   -0.7200 C   0  0  0  0  0  0  0  0  0  0  0  0
   -3.7840    0.6700    0.0100 C   0  0  0  0  0  0  0  0  0  0  0  0
   -3.2960    1.3180    1.1400 O   0  0  0  0  0  0  0  0  0  0  0  0
   -4.1500    2.1250    1.8720 C   0  0  0  0  0  0  0  0  0  0  0  0
   -3.7250    3.1280    2.4830 O   0  0  0  0  0  0  0  0  0  0  0  0
   -5.5870    1.7430    1.8960 C   0  0  0  0  0  0  0  0  0  0  0  0
   -6.0600    1.7700    0.4670 C   0  0  0  0  0  0  0  0  0  0  0  0
   -5.1810    0.8860   -0.3350 C   0  0  0  0  0  0  0  0  0  0  0  0
   -5.7500    0.3170   -1.3880 C   0  0  0  0  0  0  0  0  0  0  0  0
   -5.0180   -0.5720   -2.2840 C   0  0  0  0  0  0  0  0  0  0  0  0
   -3.6250   -0.7380   -1.8770 C   0  0  0  0  0  0  0  0  0  0  0  0
   -2.8920   -1.4790   -2.5780 O   0  0  0  0  0  0  0  0  0  0  0  0
    2.1670   -2.1610   -0.9880 C   0  0  0  0  0  0  0  0  0  0  0  0
    3.2140   -2.2130    0.1050 C   0  0  0  0  0  0  0  0  0  0  0  0
  1  2  1  0
  2  3  2  0
  2  7  1  0
  3  4  1  0
  4  5  2  0
  4 28  1  0
  5  6  1  0
  5  9  1  0
  6  7  2  0
  7  8  1  0
  9 10  1  0
 10 11  1  1
 10 27  1  0
 11 12  1  0
 12 13  1  1
 12 14  1  0
 14 15  1  0
 15 16  2  0
 15 25  1  0
 16 17  1  0
 16 22  1  0
 17 18  1  0
 18 19  2  0
 18 20  1  0
 20 21  1  0
 21 22  1  0
 22 23  2  0
 23 24  1  0
 24 25  1  0
 25 26  2  0
 27 28  1  0
M  CHG  1  10   1
M  END
