
     RDKit          3D

 28 31  0  0  0  0  0  0  0  0999 V2000
    5.2420   -2.8900    0.1730 C   0  0  0  0  0  0  0  0  0  0  0  0
    3.7700   -2.7920    0.3530 C   0  0  0  0  0  0  0  0  0  0  0  0
    3.1980   -3.6390    0.9870 O   0  0  0  0  0  0  0  0  0  0  0  0
    3.0360   -1.6590   -0.2490 C   0  0  1  0  0  0  0  0  0  0  0  0
    1.5610   -1.7230    0.0410 C   0  0  0  0  0  0  0  0  0  0  0  0
    1.0730   -0.5260    0.8080 C   0  0  0  0  0  0  0  0  0  0  0  0
    1.3710    0.7410    0.1410 N   0  0  2  0  0  0  0  0  0  0  0  0
    0.3590    0.9190   -0.9300 C   0  0  0  0  0  0  0  0  0  0  0  0
   -0.7980    1.7180   -0.4710 C   0  0  0  0  0  0  0  0  0  0  0  0
   -1.9920    1.1860   -0.4300 C   0  0  0  0  0  0  0  0  0  0  0  0
   -2.2800   -0.1840   -0.8280 C   0  0  0  0  0  0  0  0  0  0  0  0
   -1.9990   -0.7210   -2.0560 C   0  0  0  0  0  0  0  0  0  0  0  0
   -2.2820   -2.0570   -2.3700 C   0  0  0  0  0  0  0  0  0  0  0  0
   -2.8630   -2.8830   -1.4310 C   0  0  0  0  0  0  0  0  0  0  0  0
   -3.1580   -2.3690   -0.1820 C   0  0  0  0  0  0  0  0  0  0  0  0
   -2.8700   -1.0520    0.1020 C   0  0  0  0  0  0  0  0  0  0  0  0
   -3.7440   -3.2260    0.7440 O   0  0  0  0  0  0  0  0  0  0  0  0
   -3.7000   -4.6380    0.6500 C   0  0  0  0  0  0  0  0  0  0  0  0
   -3.9430   -5.0020   -0.7990 C   0  0  0  0  0  0  0  0  0  0  0  0
   -3.1680   -4.2110   -1.6750 O   0  0  0  0  0  0  0  0  0  0  0  0
   -0.6310    3.1080   -0.0770 C   0  0  0  0  0  0  0  0  0  0  0  0
    0.5530    3.7490   -0.1190 C   0  0  0  0  0  0  0  0  0  0  0  0
    0.5390    5.1620    0.3230 C   0  0  0  0  0  0  0  0  0  0  0  0
   -0.1690    5.3360    1.6500 C   0  0  0  0  0  0  0  0  0  0  0  0
   -1.3600    4.4140    1.8070 C   0  0  0  0  0  0  0  0  0  0  0  0
   -1.7380    3.9640    0.4060 C   0  0  0  0  0  0  0  0  0  0  0  0
    2.7020    0.7590   -0.3810 C   0  0  0  0  0  0  0  0  0  0  0  0
    3.5260   -0.3190    0.2830 C   0  0  0  0  0  0  0  0  0  0  0  0
  1  2  1  0
  2  3  2  0
  4  2  1  1
  4  5  1  0
  4 28  1  0
  5  6  1  0
  6  7  1  0
  7  8  1  6
  7 27  1  0
  8  9  1  0
  9 10  2  3
  9 21  1  0
 10 11  1  0
 11 12  2  0
 11 16  1  0
 12 13  1  0
 13 14  2  0
 14 15  1  0
 14 20  1  0
 15 16  2  0
 15 17  1  0
 17 18  1  0
 18 19  1  0
 19 20  1  0
 21 22  2  0
 21 26  1  0
 22 23  1  0
 23 24  1  0
 24 25  1  0
 25 26  1  0
 27 28  1  0
M  CHG  1   7   1
M  END
