
     RDKit          3D

 28 31  0  0  0  0  0  0  0  0999 V2000
    8.4000    0.2830   -0.6060 C   0  0  0  0  0  0  0  0  0  0  0  0
    7.7420    0.7000    0.7000 C   0  0  0  0  0  0  0  0  0  0  0  0
    6.3890    0.3040    0.7660 O   0  0  0  0  0  0  0  0  0  0  0  0
    5.5200    0.7810   -0.1910 C   0  0  0  0  0  0  0  0  0  0  0  0
    5.9460    1.5420   -1.0810 O   0  0  0  0  0  0  0  0  0  0  0  0
    4.1120    0.4120   -0.1830 C   0  0  0  0  0  0  0  0  0  0  0  0
    3.2690    0.9180   -1.1750 C   0  0  0  0  0  0  0  0  0  0  0  0
    1.9060    0.5800   -1.1930 C   0  0  0  0  0  0  0  0  0  0  0  0
    1.4080   -0.2510   -0.2290 C   0  0  0  0  0  0  0  0  0  0  0  0
    2.2410   -0.7440    0.7420 C   0  0  0  0  0  0  0  0  0  0  0  0
    3.5830   -0.4240    0.7770 C   0  0  0  0  0  0  0  0  0  0  0  0
    1.6130   -1.6450    1.7460 C   0  0  0  0  0  0  0  0  0  0  0  0
    0.1910   -1.3480    2.0570 C   0  0  0  0  0  0  0  0  0  0  0  0
   -0.4310   -0.3830    1.1880 N   0  0  2  0  0  0  0  0  0  0  0  0
   -1.8730   -0.4050    1.3200 C   0  0  0  0  0  0  0  0  0  0  0  0
   -2.4840    0.7400    0.6260 C   0  0  0  0  0  0  0  0  0  0  0  0
   -1.7090    1.5860    0.1100 O   0  0  0  0  0  0  0  0  0  0  0  0
   -3.9050    1.0040    0.4790 C   0  0  0  0  0  0  0  0  0  0  0  0
   -4.4630    2.1470    1.0670 C   0  0  0  0  0  0  0  0  0  0  0  0
   -5.7910    2.4540    1.0610 C   0  0  0  0  0  0  0  0  0  0  0  0
   -6.6440    1.5810    0.4350 C   0  0  0  0  0  0  0  0  0  0  0  0
   -6.1300    0.4260   -0.1680 C   0  0  0  0  0  0  0  0  0  0  0  0
   -6.9820   -0.4280   -0.8100 C   0  0  0  0  0  0  0  0  0  0  0  0
   -6.4950   -1.5680   -1.4380 C   0  0  0  0  0  0  0  0  0  0  0  0
   -5.1420   -1.8340   -1.4100 C   0  0  0  0  0  0  0  0  0  0  0  0
   -4.2580   -0.9950   -0.7720 C   0  0  0  0  0  0  0  0  0  0  0  0
   -4.7720    0.1360   -0.1500 C   0  0  0  0  0  0  0  0  0  0  0  0
   -0.0030   -0.6500   -0.1710 C   0  0  0  0  0  0  0  0  0  0  0  0
  1  2  1  0
  2  3  1  0
  3  4  1  0
  4  5  2  0
  4  6  1  0
  6  7  2  0
  6 11  1  0
  7  8  1  0
  8  9  2  0
  9 10  1  0
  9 28  1  0
 10 11  2  0
 10 12  1  0
 12 13  1  0
 13 14  1  0
 14 15  1  6
 14 28  1  0
 15 16  1  0
 16 17  2  0
 16 18  1  0
 18 19  2  0
 18 27  1  0
 19 20  1  0
 20 21  2  0
 21 22  1  0
 22 23  2  0
 22 27  1  0
 23 24  1  0
 24 25  2  0
 25 26  1  0
 26 27  2  0
M  CHG  1  14   1
M  END
