
     RDKit          3D

 28 31  0  0  0  0  0  0  0  0999 V2000
    6.2130   -3.3660   -0.1690 C   0  0  0  0  0  0  0  0  0  0  0  0
    6.7030   -2.0560    0.0470 O   0  0  0  0  0  0  0  0  0  0  0  0
    5.7870   -1.0180    0.0680 C   0  0  0  0  0  0  0  0  0  0  0  0
    4.4310   -1.2280   -0.1140 C   0  0  0  0  0  0  0  0  0  0  0  0
    3.5280   -0.1880   -0.0910 C   0  0  0  0  0  0  0  0  0  0  0  0
    4.0140    1.0690    0.1180 C   0  0  0  0  0  0  0  0  0  0  0  0
    5.3630    1.3220    0.3040 C   0  0  0  0  0  0  0  0  0  0  0  0
    6.2580    0.2720    0.2790 C   0  0  0  0  0  0  0  0  0  0  0  0
    7.6230    0.4550    0.4580 O   0  0  0  0  0  0  0  0  0  0  0  0
    8.1920    1.7290    0.6790 C   0  0  0  0  0  0  0  0  0  0  0  0
    2.8670    1.9680    0.0960 C   0  0  0  0  0  0  0  0  0  0  0  0
    2.9580    3.2130    0.2570 O   0  0  0  0  0  0  0  0  0  0  0  0
    1.6780    1.1610   -0.1390 C   0  0  0  0  0  0  0  0  0  0  0  0
    0.3210    1.6930   -0.2160 C   0  0  0  0  0  0  0  0  0  0  0  0
   -0.7910    0.7350   -0.3060 C   0  0  1  0  0  0  0  0  0  0  0  0
   -0.9890   -0.2190    0.8150 C   0  0  0  0  0  0  0  0  0  0  0  0
   -1.9600   -1.2740    0.3200 C   0  0  0  0  0  0  0  0  0  0  0  0
   -3.2260   -0.7010   -0.0800 N   0  0  1  0  0  0  0  0  0  0  0  0
   -4.1020   -0.4920    1.0590 C   0  0  0  0  0  0  0  0  0  0  0  0
   -5.5230   -0.3580    0.6380 C   0  0  0  0  0  0  0  0  0  0  0  0
   -6.3160   -1.4810    0.4120 C   0  0  0  0  0  0  0  0  0  0  0  0
   -7.6240   -1.3890    0.0280 C   0  0  0  0  0  0  0  0  0  0  0  0
   -8.1540   -0.1320   -0.1340 C   0  0  0  0  0  0  0  0  0  0  0  0
   -7.4170    0.9970    0.0760 C   0  0  0  0  0  0  0  0  0  0  0  0
   -6.0990    0.8830    0.4630 C   0  0  0  0  0  0  0  0  0  0  0  0
   -3.1020    0.4340   -0.9320 C   0  0  0  0  0  0  0  0  0  0  0  0
   -2.1240    1.4820   -0.4570 C   0  0  0  0  0  0  0  0  0  0  0  0
    2.0710   -0.0840   -0.2460 C   0  0  0  0  0  0  0  0  0  0  0  0
  1  2  1  0
  2  3  1  0
  3  4  2  0
  3  8  1  0
  4  5  1  0
  5  6  2  0
  5 28  1  0
  6  7  1  0
  6 11  1  0
  7  8  2  0
  8  9  1  0
  9 10  1  0
 11 12  2  0
 11 13  1  0
 13 14  1  0
 13 28  2  0
 15 14  1  1
 15 16  1  0
 15 27  1  0
 16 17  1  0
 17 18  1  0
 18 19  1  1
 18 26  1  0
 19 20  1  0
 20 21  2  0
 20 25  1  0
 21 22  1  0
 22 23  2  0
 23 24  1  0
 24 25  2  0
 26 27  1  0
M  CHG  1  18   1
M  END
