
     RDKit          3D

 15 16  0  0  0  0  0  0  0  0999 V2000
   -3.7590   -1.2900   -0.0630 O   0  0  0  0  0  0  0  0  0  0  0  0
   -2.7110   -0.9690    0.8280 C   0  0  2  0  0  0  0  0  0  0  0  0
   -2.7230    0.5000    1.1030 C   0  0  0  0  0  0  0  0  0  0  0  0
   -1.4970    0.9780    0.3120 C   0  0  2  0  0  0  0  0  0  0  0  0
   -1.7330    2.1810   -0.3150 O   0  0  0  0  0  0  0  0  0  0  0  0
   -1.3010   -0.1750   -0.6150 C   0  0  1  0  0  0  0  0  0  0  0  0
    0.0160   -0.1750   -1.3250 C   0  0  2  0  0  0  0  0  0  0  0  0
    0.0480   -1.3220   -2.1390 O   0  0  0  0  0  0  0  0  0  0  0  0
    1.1830   -0.0590   -0.4610 C   0  0  0  0  0  0  0  0  0  0  0  0
    2.0440    0.9390   -0.5640 C   0  0  0  0  0  0  0  0  0  0  0  0
    3.2320    1.0150    0.3500 C   0  0  0  0  0  0  0  0  0  0  0  0
    3.5470   -0.2910    1.0040 C   0  0  0  0  0  0  0  0  0  0  0  0
    2.8310   -1.3590    0.4960 O   0  0  0  0  0  0  0  0  0  0  0  0
    1.4460   -1.0810    0.5810 C   0  0  0  0  0  0  0  0  0  0  0  0
   -1.5190   -1.2690    0.1780 O   0  0  0  0  0  0  0  0  0  0  0  0
  2  1  1  6
  2  3  1  0
  2 15  1  0
  3  4  1  0
  4  5  1  6
  4  6  1  0
  6  7  1  0
  6 15  1  1
  7  8  1  1
  7  9  1  0
  9 10  2  0
  9 14  1  0
 10 11  1  0
 11 12  1  0
 12 13  1  0
 13 14  1  0
M  END
