
     RDKit          3D

 16 17  0  0  0  0  0  0  0  0999 V2000
    4.1370    1.1380   -0.8360 O   0  0  0  0  0  0  0  0  0  0  0  0
    4.1810    0.3860    0.3100 C   0  0  0  0  0  0  0  0  0  0  0  0
    3.1180   -0.4930    0.4480 O   0  0  0  0  0  0  0  0  0  0  0  0
    1.8910    0.1770    0.4770 C   0  0  0  0  0  0  0  0  0  0  0  0
    0.7750   -0.8230    0.6280 C   0  0  0  0  0  0  0  0  0  0  0  0
   -0.5950   -0.2300    0.6780 C   0  0  2  0  0  0  0  0  0  0  0  0
   -1.5950   -1.3550    0.8400 C   0  0  1  0  0  0  0  0  0  0  0  0
   -2.8600   -0.7780    0.8840 O   0  0  0  0  0  0  0  0  0  0  0  0
   -1.4700   -2.0770   -0.4760 C   0  0  1  0  0  0  0  0  0  0  0  0
   -2.6680   -2.7320   -0.7890 O   0  0  0  0  0  0  0  0  0  0  0  0
   -1.1770   -0.9710   -1.4650 C   0  0  0  0  0  0  0  0  0  0  0  0
   -1.0630    0.2960   -0.6700 C   0  0  2  0  0  0  0  0  0  0  0  0
   -0.3010    1.2850   -1.2020 O   0  0  0  0  0  0  0  0  0  0  0  0
   -0.6490    2.4000   -0.4390 C   0  0  0  0  0  0  0  0  0  0  0  0
   -2.0510    2.0770    0.0580 C   0  0  0  0  0  0  0  0  0  0  0  0
   -2.3350    0.8450   -0.4870 O   0  0  0  0  0  0  0  0  0  0  0  0
  1  2  1  0
  2  3  1  0
  3  4  1  0
  4  5  1  0
  6  5  1  6
  6  7  1  0
  6 12  1  0
  7  8  1  6
  7  9  1  0
  9 10  1  6
  9 11  1  0
 12 11  1  6
 12 13  1  0
 12 16  1  0
 13 14  1  0
 14 15  1  0
 15 16  1  0
M  END
