
     RDKit          3D

 16 17  0  0  0  0  0  0  0  0999 V2000
   -2.6320   -1.4670    0.1040 C   0  0  0  0  0  0  0  0  0  0  0  0
   -2.4790   -0.0050    0.3850 C   0  0  2  0  0  0  0  0  0  0  0  0
   -3.2370    0.2580    1.5520 O   0  0  0  0  0  0  0  0  0  0  0  0
   -3.0930    0.7820   -0.7220 C   0  0  0  0  0  0  0  0  0  0  0  0
   -2.4090    0.5860   -1.9250 O   0  0  0  0  0  0  0  0  0  0  0  0
   -1.0680    0.3910    0.7050 C   0  0  1  0  0  0  0  0  0  0  0  0
   -0.9450    1.7170    1.0420 O   0  0  0  0  0  0  0  0  0  0  0  0
   -0.5250   -0.4800    1.8200 C   0  0  0  0  0  0  0  0  0  0  0  0
    0.8470   -0.1500    1.7390 O   0  0  0  0  0  0  0  0  0  0  0  0
    1.1480   -0.3090    0.3940 C   0  0  2  0  0  0  0  0  0  0  0  0
    2.3050    0.6480    0.0980 C   0  0  1  0  0  0  0  0  0  0  0  0
    3.4070    0.3650    0.8620 O   0  0  0  0  0  0  0  0  0  0  0  0
    4.4750    0.1180    0.0140 C   0  0  0  0  0  0  0  0  0  0  0  0
    3.7420   -0.3950   -1.2320 C   0  0  0  0  0  0  0  0  0  0  0  0
    2.6390    0.4600   -1.2370 O   0  0  0  0  0  0  0  0  0  0  0  0
   -0.0870    0.0850   -0.3870 C   0  0  0  0  0  0  0  0  0  0  0  0
  2  1  1  6
  2  3  1  0
  2  4  1  0
  2  6  1  0
  4  5  1  0
  6  7  1  1
  6  8  1  0
  6 16  1  0
  8  9  1  0
  9 10  1  0
 10 11  1  0
 10 16  1  6
 11 12  1  1
 11 15  1  0
 12 13  1  0
 13 14  1  0
 14 15  1  0
M  END
