
     RDKit          3D

 26 29  0  0  0  0  0  0  0  0999 V2000
   -8.6420   -0.2540    0.3890 C   0  0  0  0  0  0  0  0  0  0  0  0
   -8.0650    1.0300    0.4110 O   0  0  0  0  0  0  0  0  0  0  0  0
   -6.6960    1.2430    0.4960 C   0  0  0  0  0  0  0  0  0  0  0  0
   -6.1500    2.4940    0.5170 C   0  0  0  0  0  0  0  0  0  0  0  0
   -4.7730    2.6200    0.6030 C   0  0  0  0  0  0  0  0  0  0  0  0
   -4.0010    1.4840    0.6660 C   0  0  0  0  0  0  0  0  0  0  0  0
   -4.5240    0.2080    0.6470 C   0  0  0  0  0  0  0  0  0  0  0  0
   -5.8930    0.1090    0.5610 C   0  0  0  0  0  0  0  0  0  0  0  0
   -3.4460   -0.7680    0.7270 C   0  0  0  0  0  0  0  0  0  0  0  0
   -2.2540   -0.1330    0.7950 C   0  0  0  0  0  0  0  0  0  0  0  0
   -0.9850   -0.8570    0.8860 C   0  0  0  0  0  0  0  0  0  0  0  0
   -0.0300   -0.6950   -0.2490 C   0  0  2  0  0  0  0  0  0  0  0  0
    1.1770   -1.5840    0.0830 C   0  0  0  0  0  0  0  0  0  0  0  0
    2.1900   -0.7360    0.8020 C   0  0  0  0  0  0  0  0  0  0  0  0
    2.8990    0.0500   -0.2080 N   0  0  1  0  0  0  0  0  0  0  0  0
    3.8130   -0.8580   -0.8740 C   0  0  0  0  0  0  0  0  0  0  0  0
    5.2180   -0.3630   -0.8070 C   0  0  0  0  0  0  0  0  0  0  0  0
    5.7060    0.4480   -1.7930 C   0  0  0  0  0  0  0  0  0  0  0  0
    6.9990    0.9040   -1.7330 C   0  0  0  0  0  0  0  0  0  0  0  0
    7.8350    0.5650   -0.6930 C   0  0  0  0  0  0  0  0  0  0  0  0
    7.3310   -0.2570    0.3010 C   0  0  0  0  0  0  0  0  0  0  0  0
    6.0260   -0.7200    0.2440 C   0  0  0  0  0  0  0  0  0  0  0  0
    1.9130    0.6060   -1.1180 C   0  0  0  0  0  0  0  0  0  0  0  0
    0.5440    0.6930   -0.4030 C   0  0  0  0  0  0  0  0  0  0  0  0
   -2.5390    1.2790    0.7610 C   0  0  0  0  0  0  0  0  0  0  0  0
   -1.7460    2.2480    0.8020 O   0  0  0  0  0  0  0  0  0  0  0  0
  1  2  1  0
  2  3  1  0
  3  4  2  0
  3  8  1  0
  4  5  1  0
  5  6  2  0
  6  7  1  0
  6 25  1  0
  7  8  2  0
  7  9  1  0
  9 10  2  0
 10 11  1  0
 10 25  1  0
 12 11  1  1
 12 13  1  0
 12 24  1  0
 13 14  1  0
 14 15  1  0
 15 16  1  6
 15 23  1  0
 16 17  1  0
 17 18  2  0
 17 22  1  0
 18 19  1  0
 19 20  2  0
 20 21  1  0
 21 22  2  0
 23 24  1  0
 25 26  2  0
M  CHG  1  15   1
M  END
