
     RDKit          3D

 21 24  0  0  0  0  0  0  0  0999 V2000
    0.0720   -3.4170   -1.3930 C   0  0  0  0  0  0  0  0  0  0  0  0
   -0.4330   -2.0150   -1.2310 C   0  0  0  0  0  0  0  0  0  0  0  0
    0.3280   -1.1060   -0.6650 C   0  0  0  0  0  0  0  0  0  0  0  0
    1.6760   -1.3380   -0.1570 C   0  0  0  0  0  0  0  0  0  0  0  0
    2.6090   -2.2680   -0.0020 C   0  0  0  0  0  0  0  0  0  0  0  0
    3.7950   -1.6700    0.6500 C   0  0  0  0  0  0  0  0  0  0  0  0
    3.4080   -0.2700    0.8450 C   0  0  0  0  0  0  0  0  0  0  0  0
    4.2380    0.7780    1.4610 C   0  0  0  0  0  0  0  0  0  0  0  0
    2.1720   -0.0880    0.3700 C   0  0  0  0  0  0  0  0  0  0  0  0
    1.1050    0.8900    0.1720 C   0  0  0  0  0  0  0  0  0  0  0  0
    1.1170    2.2230    0.5080 C   0  0  0  0  0  0  0  0  0  0  0  0
    0.0090    2.9820    0.2270 C   0  0  0  0  0  0  0  0  0  0  0  0
   -1.1090    2.4040   -0.3890 C   0  0  0  0  0  0  0  0  0  0  0  0
   -2.3110    3.1970   -0.7030 C   0  0  0  0  0  0  0  0  0  0  0  0
   -1.1170    1.0680   -0.7240 C   0  0  0  0  0  0  0  0  0  0  0  0
   -2.2850    0.5190   -1.3510 C   0  0  0  0  0  0  0  0  0  0  0  0
   -2.3140    0.5250   -2.6170 O   0  0  0  0  0  0  0  0  0  0  0  0
   -3.4520   -0.0450   -0.6860 C   0  0  1  0  0  0  0  0  0  0  0  0
   -3.1360   -0.9490    0.5090 C   0  0  0  0  0  0  0  0  0  0  0  0
   -3.8250    0.3240    0.7050 C   0  0  0  0  0  0  0  0  0  0  0  0
    0.0000    0.2960   -0.4440 C   0  0  0  0  0  0  0  0  0  0  0  0
  1  2  1  0
  2  3  2  3
  3  4  1  0
  3 21  1  0
  4  5  2  0
  4  9  1  0
  5  6  1  0
  6  7  1  0
  7  8  1  0
  7  9  2  0
  9 10  1  0
 10 11  2  0
 10 21  1  0
 11 12  1  0
 12 13  2  0
 13 14  1  0
 13 15  1  0
 15 16  1  0
 15 21  2  0
 16 17  2  0
 18 16  1  1
 18 19  1  0
 18 20  1  0
 19 20  1  0
M  END
