
     RDKit          3D

 21 24  0  0  0  0  0  0  0  0999 V2000
    4.2920   -0.6540    0.8620 C   0  0  0  0  0  0  0  0  0  0  0  0
    3.0810   -0.4950   -0.0570 C   0  0  1  0  0  0  0  0  0  0  0  0
    2.0880   -1.5860    0.3610 C   0  0  0  0  0  0  0  0  0  0  0  0
    0.8160   -1.3170   -0.3310 C   0  0  0  0  0  0  0  0  0  0  0  0
    0.3340   -2.0820   -1.1390 O   0  0  0  0  0  0  0  0  0  0  0  0
    0.1620   -0.0190    0.0270 C   0  0  0  0  0  0  0  0  0  0  0  0
   -1.1000    0.0790    0.1690 C   0  0  0  0  0  0  0  0  0  0  0  0
   -2.0740    1.1390    0.5020 C   0  0  0  0  0  0  0  0  0  0  0  0
   -2.7080    1.4820   -0.8330 C   0  0  0  0  0  0  0  0  0  0  0  0
   -3.5460    0.3170   -1.2970 C   0  0  0  0  0  0  0  0  0  0  0  0
   -3.1200   -1.0020   -0.7990 C   0  0  0  0  0  0  0  0  0  0  0  0
   -3.7320   -2.1770   -0.9080 C   0  0  0  0  0  0  0  0  0  0  0  0
   -2.9010   -3.2230   -0.2410 C   0  0  0  0  0  0  0  0  0  0  0  0
   -1.7470   -2.4750    0.3090 C   0  0  0  0  0  0  0  0  0  0  0  0
   -1.8690   -1.2030   -0.0320 C   0  0  0  0  0  0  0  0  0  0  0  0
    1.1070    1.1000    0.2550 C   0  0  0  0  0  0  0  0  0  0  0  0
    0.6790    2.3870    0.4710 C   0  0  0  0  0  0  0  0  0  0  0  0
    1.5410    3.4620    0.5900 C   0  0  0  0  0  0  0  0  0  0  0  0
    2.8820    3.2000    0.4790 C   0  0  0  0  0  0  0  0  0  0  0  0
    3.3500    1.9340    0.2610 C   0  0  0  0  0  0  0  0  0  0  0  0
    2.4560    0.8520    0.1450 C   0  0  0  0  0  0  0  0  0  0  0  0
  2  1  1  1
  2  3  1  0
  2 21  1  0
  3  4  1  0
  4  5  2  0
  4  6  1  0
  6  7  2  3
  6 16  1  0
  7  8  1  0
  7 15  1  0
  8  9  1  0
  9 10  1  0
 10 11  1  0
 11 12  2  0
 11 15  1  0
 12 13  1  0
 13 14  1  0
 14 15  2  0
 16 17  2  0
 16 21  1  0
 17 18  1  0
 18 19  2  0
 19 20  1  0
 20 21  2  0
M  END
