
     RDKit          3D

 21 24  0  0  0  0  0  0  0  0999 V2000
    1.7480    2.4640    2.6370 O   0  0  0  0  0  0  0  0  0  0  0  0
    2.1790    1.5640    1.6480 C   0  0  0  0  0  0  0  0  0  0  0  0
    3.4830    1.6220    1.1980 C   0  0  0  0  0  0  0  0  0  0  0  0
    3.9690    0.7690    0.2320 C   0  0  0  0  0  0  0  0  0  0  0  0
    3.0880   -0.1660   -0.2840 C   0  0  0  0  0  0  0  0  0  0  0  0
    3.5620   -1.0430   -1.2640 C   0  0  0  0  0  0  0  0  0  0  0  0
    2.7400   -1.9970   -1.8160 C   0  0  0  0  0  0  0  0  0  0  0  0
    1.4350   -2.0840   -1.3940 C   0  0  0  0  0  0  0  0  0  0  0  0
    0.9210   -1.2220   -0.4130 C   0  0  0  0  0  0  0  0  0  0  0  0
   -0.4520   -1.3230    0.0110 C   0  0  0  0  0  0  0  0  0  0  0  0
   -0.8580   -2.3150    0.8560 C   0  0  0  0  0  0  0  0  0  0  0  0
   -2.1940   -2.4270    1.2630 C   0  0  0  0  0  0  0  0  0  0  0  0
   -3.1130   -1.5130    0.7980 C   0  0  0  0  0  0  0  0  0  0  0  0
   -2.6980   -0.5170   -0.0520 C   0  0  0  0  0  0  0  0  0  0  0  0
   -1.3780   -0.4250   -0.4410 C   0  0  0  0  0  0  0  0  0  0  0  0
   -0.9780    0.6600   -1.3380 C   0  0  0  0  0  0  0  0  0  0  0  0
   -1.5580    1.9560   -0.7590 C   0  0  0  0  0  0  0  0  0  0  0  0
   -3.0460    1.8800   -0.6720 C   0  0  0  0  0  0  0  0  0  0  0  0
   -3.6220    0.5040   -0.6090 C   0  0  0  0  0  0  0  0  0  0  0  0
    1.7660   -0.2730    0.1260 C   0  0  0  0  0  0  0  0  0  0  0  0
    1.3440    0.6170    1.1020 C   0  0  0  0  0  0  0  0  0  0  0  0
  1  2  1  0
  2  3  2  0
  2 21  1  0
  3  4  1  0
  4  5  2  0
  5  6  1  0
  5 20  1  0
  6  7  2  0
  7  8  1  0
  8  9  2  0
  9 10  1  0
  9 20  1  0
 10 11  2  0
 10 15  1  0
 11 12  1  0
 12 13  2  0
 13 14  1  0
 14 15  2  0
 14 19  1  0
 15 16  1  0
 16 17  1  0
 17 18  1  0
 18 19  1  0
 20 21  2  0
M  END
