
     RDKit          3D

 21 24  0  0  0  0  0  0  0  0999 V2000
    4.1850    3.2030    0.1320 C   0  0  0  0  0  0  0  0  0  0  0  0
    3.7140    1.7980    0.0660 C   0  0  0  0  0  0  0  0  0  0  0  0
    4.7060    0.8110    0.0070 C   0  0  0  0  0  0  0  0  0  0  0  0
    4.3460   -0.5150   -0.0550 C   0  0  0  0  0  0  0  0  0  0  0  0
    5.4030   -1.5470   -0.1200 C   0  0  0  0  0  0  0  0  0  0  0  0
    2.9920   -0.8700   -0.0570 C   0  0  0  0  0  0  0  0  0  0  0  0
    2.3580   -2.0090   -0.1060 O   0  0  0  0  0  0  0  0  0  0  0  0
    1.0570   -1.8780   -0.0870 C   0  0  0  0  0  0  0  0  0  0  0  0
    0.0060   -2.8040   -0.1220 C   0  0  0  0  0  0  0  0  0  0  0  0
   -1.2960   -2.3570   -0.0870 C   0  0  0  0  0  0  0  0  0  0  0  0
   -1.5420   -1.0090   -0.0190 C   0  0  0  0  0  0  0  0  0  0  0  0
   -2.9210   -0.4970    0.0100 C   0  0  1  0  0  0  0  0  0  0  0  0
   -3.9520   -1.5810   -0.0680 C   0  0  0  0  0  0  0  0  0  0  0  0
   -3.1820    0.3820    1.2140 C   0  0  0  0  0  0  0  0  0  0  0  0
   -4.4800    1.0630    0.8350 C   0  0  0  0  0  0  0  0  0  0  0  0
   -4.2600    1.4030   -0.6150 C   0  0  0  0  0  0  0  0  0  0  0  0
   -3.1750    0.4810   -1.1330 C   0  0  0  0  0  0  0  0  0  0  0  0
   -0.4980   -0.0750    0.0170 C   0  0  0  0  0  0  0  0  0  0  0  0
    0.8060   -0.5260   -0.0170 C   0  0  0  0  0  0  0  0  0  0  0  0
    2.0230    0.1290    0.0020 C   0  0  0  0  0  0  0  0  0  0  0  0
    2.3780    1.4550    0.0640 C   0  0  0  0  0  0  0  0  0  0  0  0
  1  2  1  0
  2  3  2  0
  2 21  1  0
  3  4  1  0
  4  5  1  0
  4  6  2  0
  6  7  1  0
  6 20  1  0
  7  8  1  0
  8  9  2  0
  8 19  1  0
  9 10  1  0
 10 11  2  0
 11 12  1  0
 11 18  1  0
 12 13  1  6
 12 14  1  0
 12 17  1  0
 14 15  1  0
 15 16  1  0
 16 17  1  0
 18 19  2  0
 19 20  1  0
 20 21  2  0
M  END
