
     RDKit          3D

 14 15  0  0  0  0  0  0  0  0999 V2000
    5.3100   -0.0710    0.2020 C   0  0  0  0  0  0  0  0  0  0  0  0
    4.0020   -0.5390   -0.0850 O   0  0  0  0  0  0  0  0  0  0  0  0
    2.9190    0.2240    0.2590 C   0  0  0  0  0  0  0  0  0  0  0  0
    3.1020    1.3320    0.8270 O   0  0  0  0  0  0  0  0  0  0  0  0
    1.5400   -0.1730    0.0050 C   0  0  0  0  0  0  0  0  0  0  0  0
    1.1660   -1.3470   -0.6040 C   0  0  0  0  0  0  0  0  0  0  0  0
   -0.1780   -1.3390   -0.6520 N   0  0  0  0  0  0  0  0  0  0  0  0
   -0.6630   -0.2130   -0.1010 C   0  0  0  0  0  0  0  0  0  0  0  0
   -2.0850    0.1680    0.0370 C   0  0  0  0  0  0  0  0  0  0  0  0
   -2.5660    1.2730    0.5770 C   0  0  0  0  0  0  0  0  0  0  0  0
   -4.0510    1.2700    0.5190 C   0  0  0  0  0  0  0  0  0  0  0  0
   -4.3540   -0.0130   -0.1420 C   0  0  0  0  0  0  0  0  0  0  0  0
   -3.2010   -0.6250   -0.4080 C   0  0  0  0  0  0  0  0  0  0  0  0
    0.4140    0.4920    0.2980 N   0  0  0  0  0  0  0  0  0  0  0  0
  1  2  1  0
  2  3  1  0
  3  4  2  0
  3  5  1  0
  5  6  2  0
  5 14  1  0
  6  7  1  0
  7  8  1  0
  8  9  1  0
  8 14  2  0
  9 10  2  0
  9 13  1  0
 10 11  1  0
 11 12  1  0
 12 13  2  0
M  END
