
     RDKit          3D

 21 25  0  0  0  0  0  0  0  0999 V2000
   -4.9630    0.9130   -0.2380 O   0  0  0  0  0  0  0  0  0  0  0  0
   -3.8760    0.0760   -0.0590 C   0  0  0  0  0  0  0  0  0  0  0  0
   -4.1080   -1.2780    0.2080 C   0  0  0  0  0  0  0  0  0  0  0  0
   -3.0470   -2.1240    0.3890 C   0  0  0  0  0  0  0  0  0  0  0  0
   -1.7550   -1.6490    0.3090 C   0  0  0  0  0  0  0  0  0  0  0  0
   -0.6970   -2.4900    0.4880 C   0  0  0  0  0  0  0  0  0  0  0  0
    0.6200   -2.0650    0.4180 C   0  0  0  0  0  0  0  0  0  0  0  0
    0.8420   -0.7340    0.1560 C   0  0  0  0  0  0  0  0  0  0  0  0
    2.1430   -0.2510    0.0740 C   0  0  0  0  0  0  0  0  0  0  0  0
    3.1860   -1.1050    0.2560 C   0  0  0  0  0  0  0  0  0  0  0  0
    4.4980   -0.6250    0.1750 C   0  0  0  0  0  0  0  0  0  0  0  0
    4.7520    0.6960   -0.0850 C   0  0  0  0  0  0  0  0  0  0  0  0
    3.6860    1.5450   -0.2660 C   0  0  0  0  0  0  0  0  0  0  0  0
    2.3780    1.0960   -0.1920 C   0  0  0  0  0  0  0  0  0  0  0  0
    1.3260    1.9840   -0.3800 C   0  0  0  0  0  0  0  0  0  0  0  0
    0.0560    1.4950   -0.2970 C   0  0  0  0  0  0  0  0  0  0  0  0
   -1.0090    2.3510   -0.4800 C   0  0  0  0  0  0  0  0  0  0  0  0
   -2.3000    1.8730   -0.3990 C   0  0  0  0  0  0  0  0  0  0  0  0
   -2.5830    0.5490   -0.1380 C   0  0  0  0  0  0  0  0  0  0  0  0
   -1.5120   -0.3200    0.0470 C   0  0  0  0  0  0  0  0  0  0  0  0
   -0.1980    0.1650   -0.0350 C   0  0  0  0  0  0  0  0  0  0  0  0
  1  2  1  0
  2  3  2  0
  2 19  1  0
  3  4  1  0
  4  5  2  0
  5  6  1  0
  5 20  1  0
  6  7  2  0
  7  8  1  0
  8  9  2  0
  8 21  1  0
  9 10  1  0
  9 14  1  0
 10 11  2  0
 11 12  1  0
 12 13  2  0
 13 14  1  0
 14 15  2  0
 15 16  1  0
 16 17  2  0
 16 21  1  0
 17 18  1  0
 18 19  2  0
 19 20  1  0
 20 21  2  0
M  END
