
     RDKit          3D

 15 15  0  0  0  0  0  0  0  0999 V2000
   -3.6320    1.7700   -0.6200 N   0  0  0  0  0  0  0  0  0  0  0  0
   -2.3300    1.3430   -0.0920 C   0  0  2  0  0  0  0  0  0  0  0  0
   -1.6720    0.4990   -1.1300 C   0  0  0  0  0  0  0  0  0  0  0  0
   -0.5150   -0.3170   -0.5130 C   0  0  1  0  0  0  0  0  0  0  0  0
    0.0730   -1.0670   -1.4840 O   0  0  0  0  0  0  0  0  0  0  0  0
    0.4210    0.7070    0.0570 C   0  0  0  0  0  0  0  0  0  0  0  0
    1.5560    0.2690    0.6420 O   0  0  0  0  0  0  0  0  0  0  0  0
    2.4940   -0.3900   -0.0720 C   0  0  2  0  0  0  0  0  0  0  0  0
    2.5620   -1.7210    0.4100 O   0  0  0  0  0  0  0  0  0  0  0  0
    3.8990    0.1480    0.1100 C   0  0  0  0  0  0  0  0  0  0  0  0
    4.3140    0.0760    1.4280 O   0  0  0  0  0  0  0  0  0  0  0  0
   -1.2160   -1.1390    0.5480 C   0  0  1  0  0  0  0  0  0  0  0  0
   -0.4160   -2.1040    1.1180 O   0  0  0  0  0  0  0  0  0  0  0  0
   -1.8000   -0.2260    1.5540 C   0  0  0  0  0  0  0  0  0  0  0  0
   -2.4770    0.8420    1.1320 O   0  0  0  0  0  0  0  0  0  0  0  0
  2  1  1  6
  2  3  1  0
  2 15  1  0
  3  4  1  0
  4  5  1  6
  4  6  1  0
  4 12  1  0
  6  7  1  0
  7  8  1  0
  8  9  1  1
  8 10  1  0
 10 11  1  0
 12 13  1  1
 12 14  1  0
 14 15  1  0
M  END
