
     RDKit          3D

 15 15  0  0  0  0  0  0  0  0999 V2000
    4.4460    0.2870   -0.1360 C   0  0  0  0  0  0  0  0  0  0  0  0
    3.0330    0.7090    0.0180 C   0  0  0  0  0  0  0  0  0  0  0  0
    2.7040    1.8710    0.3770 O   0  0  0  0  0  0  0  0  0  0  0  0
    2.0050   -0.2200   -0.2470 N   0  0  0  0  0  0  0  0  0  0  0  0
    0.6200    0.0890   -0.1280 C   0  0  1  0  0  0  0  0  0  0  0  0
   -0.1470    0.0010   -1.4220 C   0  0  2  0  0  0  0  0  0  0  0  0
    0.4170    0.9720   -2.2800 O   0  0  0  0  0  0  0  0  0  0  0  0
   -1.4550    0.3650   -1.2180 O   0  0  0  0  0  0  0  0  0  0  0  0
   -2.1030   -0.4080   -0.2670 C   0  0  2  0  0  0  0  0  0  0  0  0
   -3.5560   -0.0920   -0.2070 C   0  0  0  0  0  0  0  0  0  0  0  0
   -4.2000   -0.3150   -1.4030 O   0  0  0  0  0  0  0  0  0  0  0  0
   -1.4550   -0.1060    1.0690 C   0  0  1  0  0  0  0  0  0  0  0  0
   -2.1750   -0.5560    2.1420 O   0  0  0  0  0  0  0  0  0  0  0  0
   -0.0600   -0.7000    0.9860 C   0  0  2  0  0  0  0  0  0  0  0  0
    0.6590   -0.4550    2.1530 O   0  0  0  0  0  0  0  0  0  0  0  0
  1  2  1  0
  2  3  2  0
  2  4  1  0
  5  4  1  6
  5  6  1  0
  5 14  1  0
  6  7  1  6
  6  8  1  0
  8  9  1  0
  9 10  1  1
  9 12  1  0
 10 11  1  0
 12 13  1  1
 12 14  1  0
 14 15  1  1
M  END
