
     RDKit          3D

 15 15  0  0  0  0  0  0  0  0999 V2000
    2.7650   -1.5970   -0.2490 C   0  0  0  0  0  0  0  0  0  0  0  0
    1.6290   -0.6210    0.0400 C   0  0  2  0  0  0  0  0  0  0  0  0
    0.8440   -0.3940   -1.0460 O   0  0  0  0  0  0  0  0  0  0  0  0
   -0.4950   -0.5750   -0.9410 C   0  0  0  0  0  0  0  0  0  0  0  0
   -1.1990    0.3280    0.0220 C   0  0  1  0  0  0  0  0  0  0  0  0
   -0.7720    0.2420    1.3190 O   0  0  0  0  0  0  0  0  0  0  0  0
   -1.0500    1.7470   -0.5430 C   0  0  0  0  0  0  0  0  0  0  0  0
   -2.0110    1.7550   -1.5850 O   0  0  0  0  0  0  0  0  0  0  0  0
   -3.0020    0.8130   -1.3580 C   0  0  0  0  0  0  0  0  0  0  0  0
   -3.9480    0.5840   -2.1360 O   0  0  0  0  0  0  0  0  0  0  0  0
   -2.7160    0.1750   -0.0780 C   0  0  1  0  0  0  0  0  0  0  0  0
   -3.0880   -1.1980    0.0150 N   0  0  0  0  0  0  0  0  0  0  0  0
    2.3300    0.6960    0.4030 C   0  0  2  0  0  0  0  0  0  0  0  0
    3.1140    1.1640   -0.6380 O   0  0  0  0  0  0  0  0  0  0  0  0
    3.2180    0.4630    1.4790 O   0  0  0  0  0  0  0  0  0  0  0  0
  2  1  1  6
  2  3  1  0
  2 13  1  0
  3  4  1  0
  4  5  1  0
  5  6  1  1
  5  7  1  0
  5 11  1  0
  7  8  1  0
  8  9  1  0
  9 10  2  0
  9 11  1  0
 11 12  1  6
 13 14  1  6
 13 15  1  0
M  END
