
     RDKit          3D

 15 15  0  0  0  0  0  0  0  0999 V2000
   -0.9760   -2.0970    0.9710 C   0  0  0  0  0  0  0  0  0  0  0  0
   -0.2220   -1.1060    0.1400 C   0  0  2  0  0  0  0  0  0  0  0  0
   -0.0360   -1.6570   -1.1420 O   0  0  0  0  0  0  0  0  0  0  0  0
    1.0780   -0.9300    0.6300 O   0  0  0  0  0  0  0  0  0  0  0  0
    1.4920    0.3510    0.4240 C   0  0  1  0  0  0  0  0  0  0  0  0
    2.8680    0.4670   -0.0780 C   0  0  0  0  0  0  0  0  0  0  0  0
    3.5240   -0.5860   -0.2680 O   0  0  0  0  0  0  0  0  0  0  0  0
    3.4980    1.6640   -0.3580 O   0  0  0  0  0  0  0  0  0  0  0  0
    4.7900    1.7560   -0.8290 N   0  0  0  0  0  0  0  0  0  0  0  0
    0.4790    0.9980   -0.4950 C   0  0  0  0  0  0  0  0  0  0  0  0
   -0.7710    0.2700    0.0680 C   0  0  2  0  0  0  0  0  0  0  0  0
   -0.9010    0.7770    1.3630 O   0  0  0  0  0  0  0  0  0  0  0  0
   -1.9450    0.5250   -0.7860 C   0  0  0  0  0  0  0  0  0  0  0  0
   -3.1440   -0.2530   -0.3540 C   0  0  0  0  0  0  0  0  0  0  0  0
   -3.5050    0.1150    0.9500 O   0  0  0  0  0  0  0  0  0  0  0  0
  2  1  1  1
  2  3  1  0
  2  4  1  0
  2 11  1  0
  4  5  1  0
  5  6  1  6
  5 10  1  0
  6  7  2  0
  6  8  1  0
  8  9  1  0
 10 11  1  0
 11 12  1  1
 11 13  1  0
 13 14  1  0
 14 15  1  0
M  END
