
     RDKit          3D

 15 16  0  0  0  0  0  0  0  0999 V2000
    3.8280    1.0520   -0.0380 C   0  0  0  0  0  0  0  0  0  0  0  0
    2.7930    0.1860   -0.4330 O   0  0  0  0  0  0  0  0  0  0  0  0
    1.5660    0.1700    0.2170 C   0  0  0  0  0  0  0  0  0  0  0  0
    1.4510    0.9800    1.1770 O   0  0  0  0  0  0  0  0  0  0  0  0
    0.5460   -0.7470   -0.2440 C   0  0  1  0  0  0  0  0  0  0  0  0
    1.0240   -1.4880   -1.3240 O   0  0  0  0  0  0  0  0  0  0  0  0
    0.2580   -1.7580    0.8880 C   0  0  0  0  0  0  0  0  0  0  0  0
   -1.1270   -1.6470    1.1520 O   0  0  0  0  0  0  0  0  0  0  0  0
   -1.3490   -0.3350    0.9250 C   0  0  2  0  0  0  0  0  0  0  0  0
   -2.6980    0.1770    0.6720 C   0  0  0  0  0  0  0  0  0  0  0  0
   -2.6190    0.9700   -0.5700 N   0  0  0  0  0  0  0  0  0  0  0  0
   -1.1670    1.0660   -0.8640 C   0  0  1  0  0  0  0  0  0  0  0  0
   -0.7110    2.1030   -0.0980 O   0  0  0  0  0  0  0  0  0  0  0  0
   -0.7820   -0.2730   -0.5170 C   0  0  1  0  0  0  0  0  0  0  0  0
   -1.5030   -1.2050   -1.2620 O   0  0  0  0  0  0  0  0  0  0  0  0
  1  2  1  0
  2  3  1  0
  3  4  2  0
  3  5  1  0
  5  6  1  6
  5  7  1  0
  5 14  1  0
  7  8  1  0
  8  9  1  0
  9 10  1  6
  9 14  1  0
 10 11  1  0
 11 12  1  0
 12 13  1  1
 12 14  1  0
 14 15  1  6
M  END
