
     RDKit          3D

 15 15  0  0  0  0  0  0  0  0999 V2000
   -4.0430    0.1040   -0.0520 C   0  0  0  0  0  0  0  0  0  0  0  0
   -3.3220    1.0330    0.6400 O   0  0  0  0  0  0  0  0  0  0  0  0
   -2.2550    0.5650    1.3420 C   0  0  0  0  0  0  0  0  0  0  0  0
   -1.2320   -0.0960    0.4660 C   0  0  2  0  0  0  0  0  0  0  0  0
   -1.7030   -1.2170   -0.2000 O   0  0  0  0  0  0  0  0  0  0  0  0
   -0.0980   -0.6260    1.3640 C   0  0  0  0  0  0  0  0  0  0  0  0
    0.9300   -0.9330    0.4580 O   0  0  0  0  0  0  0  0  0  0  0  0
    1.5210    0.2680    0.1060 C   0  0  1  0  0  0  0  0  0  0  0  0
    2.5050    0.0910   -1.0290 C   0  0  1  0  0  0  0  0  0  0  0  0
    3.0320    1.3720   -1.2900 O   0  0  0  0  0  0  0  0  0  0  0  0
    3.6810   -0.7690   -0.6200 C   0  0  0  0  0  0  0  0  0  0  0  0
    4.3120   -0.2670    0.5170 O   0  0  0  0  0  0  0  0  0  0  0  0
    0.6480    1.2670   -0.2150 O   0  0  0  0  0  0  0  0  0  0  0  0
   -0.6370    0.8890   -0.5040 C   0  0  1  0  0  0  0  0  0  0  0  0
   -0.7830    0.3490   -1.8430 N   0  0  0  0  0  0  0  0  0  0  0  0
  1  2  1  0
  2  3  1  0
  3  4  1  0
  4  5  1  6
  4  6  1  0
  4 14  1  0
  6  7  1  0
  8  7  1  6
  8  9  1  0
  8 13  1  0
  9 10  1  1
  9 11  1  0
 11 12  1  0
 13 14  1  0
 14 15  1  6
M  END
