
     RDKit          3D

 14 14  0  0  0  0  0  0  0  0999 V2000
    3.1180    1.4400    1.3730 N   0  0  0  0  0  0  0  0  0  0  0  0
    2.1700    0.4180    1.1210 C   0  0  0  0  0  0  0  0  0  0  0  0
    2.2280   -0.3670    0.0590 C   0  0  0  0  0  0  0  0  0  0  0  0
    3.2920   -0.1450   -0.8350 O   0  0  0  0  0  0  0  0  0  0  0  0
    1.2990   -1.4450   -0.2760 C   0  0  2  0  0  0  0  0  0  0  0  0
    1.0210   -1.4820   -1.6340 O   0  0  0  0  0  0  0  0  0  0  0  0
    0.0040   -1.4650    0.4630 C   0  0  2  0  0  0  0  0  0  0  0  0
   -0.5780   -2.7580    0.2270 O   0  0  0  0  0  0  0  0  0  0  0  0
   -1.0320   -0.5140   -0.1560 C   0  0  2  0  0  0  0  0  0  0  0  0
   -0.6250    0.9150   -0.1740 C   0  0  0  0  0  0  0  0  0  0  0  0
   -1.6970    1.6480   -0.7620 O   0  0  0  0  0  0  0  0  0  0  0  0
   -2.7390    1.5920    0.1610 C   0  0  0  0  0  0  0  0  0  0  0  0
   -3.2130    0.1620    0.3490 C   0  0  0  0  0  0  0  0  0  0  0  0
   -2.1850   -0.7100    0.5540 O   0  0  0  0  0  0  0  0  0  0  0  0
  1  2  1  0
  2  3  2  3
  3  4  1  0
  3  5  1  0
  5  6  1  6
  5  7  1  0
  7  8  1  6
  7  9  1  0
  9 10  1  1
  9 14  1  0
 10 11  1  0
 11 12  1  0
 12 13  1  0
 13 14  1  0
M  END
