
     RDKit          3D

 15 15  0  0  0  0  0  0  0  0999 V2000
    3.7520   -0.4440    0.1770 C   0  0  0  0  0  0  0  0  0  0  0  0
    2.5260   -0.3520    0.8130 O   0  0  0  0  0  0  0  0  0  0  0  0
    1.9770    0.8990    0.6390 C   0  0  2  0  0  0  0  0  0  0  0  0
    1.8620    1.5700    1.8740 O   0  0  0  0  0  0  0  0  0  0  0  0
    0.6240    0.9080    0.0170 C   0  0  1  0  0  0  0  0  0  0  0  0
    0.5390    0.3080   -1.3450 C   0  0  0  0  0  0  0  0  0  0  0  0
   -0.8070   -0.4120   -1.4350 C   0  0  1  0  0  0  0  0  0  0  0  0
   -0.5610   -1.7510   -1.4810 O   0  0  0  0  0  0  0  0  0  0  0  0
   -1.5260    0.0840   -0.2390 C   0  0  1  0  0  0  0  0  0  0  0  0
   -2.6720   -0.6880    0.1920 C   0  0  0  0  0  0  0  0  0  0  0  0
   -3.0800   -1.7300   -0.3810 O   0  0  0  0  0  0  0  0  0  0  0  0
   -3.4100   -0.2710    1.3350 N   0  0  0  0  0  0  0  0  0  0  0  0
   -4.4940   -0.9470    1.7930 O   0  0  0  0  0  0  0  0  0  0  0  0
   -0.3980    0.1150    0.8030 C   0  0  2  0  0  0  0  0  0  0  0  0
   -0.7950    0.7530    1.9560 O   0  0  0  0  0  0  0  0  0  0  0  0
  1  2  1  0
  2  3  1  0
  3  4  1  1
  3  5  1  0
  5  6  1  6
  5 14  1  0
  6  7  1  0
  7  8  1  1
  7  9  1  0
  9 10  1  1
  9 14  1  0
 10 11  2  0
 10 12  1  0
 12 13  1  0
 14 15  1  1
M  END
