
     RDKit          3D

 21 22  0  0  0  0  0  0  0  0999 V2000
   -4.6720    0.8720    0.4770 C   0  0  0  0  0  0  0  0  0  0  0  0
   -3.2820    0.2260    0.5940 C   0  0  1  0  0  0  0  0  0  0  0  0
   -3.4930   -1.0960    1.2800 C   0  0  0  0  0  0  0  0  0  0  0  0
   -2.7430    0.1000   -0.7900 C   0  0  0  0  0  0  0  0  0  0  0  0
   -1.2810   -0.1250   -0.8850 C   0  0  1  0  0  0  0  0  0  0  0  0
   -0.9550   -1.5710   -1.2540 C   0  0  0  0  0  0  0  0  0  0  0  0
   -0.7610    0.7170   -2.0570 C   0  0  0  0  0  0  0  0  0  0  0  0
   -0.5090    0.2010    0.3560 C   0  0  1  0  0  0  0  0  0  0  0  0
    0.8330    0.4760    0.0950 O   0  0  0  0  0  0  0  0  0  0  0  0
    1.8610   -0.2340    0.7160 C   0  0  0  0  0  0  0  0  0  0  0  0
    1.5290   -1.1350    1.5230 O   0  0  0  0  0  0  0  0  0  0  0  0
    3.2680    0.0580    0.4390 C   0  0  0  0  0  0  0  0  0  0  0  0
    3.6330    0.9900   -0.3960 C   0  0  0  0  0  0  0  0  0  0  0  0
    5.0530    1.2710   -0.6640 C   0  0  0  0  0  0  0  0  0  0  0  0
    5.9610    0.4780    0.0330 O   0  0  0  0  0  0  0  0  0  0  0  0
    5.5690   -0.4980    0.9070 C   0  0  0  0  0  0  0  0  0  0  0  0
    4.2850   -0.7140    1.1160 C   0  0  0  0  0  0  0  0  0  0  0  0
    3.9610   -1.7320    2.0260 O   0  0  0  0  0  0  0  0  0  0  0  0
   -1.2000    1.3670    1.0070 C   0  0  0  0  0  0  0  0  0  0  0  0
   -0.6140    2.4520    1.1740 O   0  0  0  0  0  0  0  0  0  0  0  0
   -2.5200    1.1260    1.3950 O   0  0  0  0  0  0  0  0  0  0  0  0
  2  1  1  6
  2  3  1  0
  2  4  1  0
  2 21  1  0
  4  5  1  0
  5  6  1  6
  5  7  1  0
  5  8  1  0
  8  9  1  6
  8 19  1  0
  9 10  1  0
 10 11  2  0
 10 12  1  0
 12 13  2  0
 12 17  1  0
 13 14  1  0
 14 15  1  0
 15 16  1  0
 16 17  2  0
 17 18  1  0
 19 20  2  0
 19 21  1  0
M  END
