
     RDKit          3D

 21 23  0  0  0  0  0  0  0  0999 V2000
   -4.2140   -1.0870   -0.5470 C   0  0  0  0  0  0  0  0  0  0  0  0
   -3.5140    0.1670   -0.0440 C   0  0  2  0  0  0  0  0  0  0  0  0
   -4.5300    1.1690    0.4980 C   0  0  0  0  0  0  0  0  0  0  0  0
   -2.7720    0.6710   -1.1250 O   0  0  0  0  0  0  0  0  0  0  0  0
   -1.3860    0.5280   -1.2510 C   0  0  0  0  0  0  0  0  0  0  0  0
   -0.8590    0.8770   -2.3490 O   0  0  0  0  0  0  0  0  0  0  0  0
   -0.5950    0.0000   -0.1630 C   0  0  0  0  0  0  0  0  0  0  0  0
   -1.1790   -0.3670    0.9860 C   0  0  0  0  0  0  0  0  0  0  0  0
   -0.4350   -0.9270    2.1330 C   0  0  0  0  0  0  0  0  0  0  0  0
    0.9190   -0.6890    2.0480 O   0  0  0  0  0  0  0  0  0  0  0  0
    1.5800   -0.3450    0.8970 C   0  0  0  0  0  0  0  0  0  0  0  0
    2.9840   -0.3710    0.8920 C   0  0  0  0  0  0  0  0  0  0  0  0
    3.6230   -0.0340   -0.2660 C   0  0  0  0  0  0  0  0  0  0  0  0
    5.1070   -0.1460   -0.3340 C   0  0  0  0  0  0  0  0  0  0  0  0
    5.7430    1.0280   -0.7590 O   0  0  0  0  0  0  0  0  0  0  0  0
    2.9010    0.3170   -1.3790 C   0  0  0  0  0  0  0  0  0  0  0  0
    3.5350    0.6630   -2.5540 O   0  0  0  0  0  0  0  0  0  0  0  0
    1.4950    0.3550   -1.4110 C   0  0  0  0  0  0  0  0  0  0  0  0
    0.8600    0.0160   -0.2460 C   0  0  0  0  0  0  0  0  0  0  0  0
   -2.6360   -0.2260    1.0740 C   0  0  0  0  0  0  0  0  0  0  0  0
   -3.1480   -0.4710    2.2220 O   0  0  0  0  0  0  0  0  0  0  0  0
  2  1  1  6
  2  3  1  0
  2  4  1  0
  2 20  1  0
  4  5  1  0
  5  6  2  0
  5  7  1  0
  7  8  2  0
  7 19  1  0
  8  9  1  0
  8 20  1  0
  9 10  1  0
 10 11  1  0
 11 12  2  0
 11 19  1  0
 12 13  1  0
 13 14  1  0
 13 16  2  0
 14 15  1  0
 16 17  1  0
 16 18  1  0
 18 19  2  0
 20 21  2  0
M  END
