
     RDKit          3D

 21 23  0  0  0  0  0  0  0  0999 V2000
    4.9030    2.1400    0.0570 O   0  0  0  0  0  0  0  0  0  0  0  0
    4.1330    1.1460    0.0500 C   0  0  0  0  0  0  0  0  0  0  0  0
    2.6630    1.2900    0.0270 C   0  0  0  0  0  0  0  0  0  0  0  0
    1.8580    0.2630    0.0200 C   0  0  0  0  0  0  0  0  0  0  0  0
    0.4090    0.3700   -0.0020 C   0  0  0  0  0  0  0  0  0  0  0  0
   -0.2000    1.5930   -0.0160 C   0  0  0  0  0  0  0  0  0  0  0  0
   -1.5780    1.7490   -0.0370 C   0  0  0  0  0  0  0  0  0  0  0  0
   -2.0530    2.9100   -0.0500 O   0  0  0  0  0  0  0  0  0  0  0  0
   -2.3690    0.6370   -0.0440 C   0  0  0  0  0  0  0  0  0  0  0  0
   -3.7540    0.7280   -0.0650 C   0  0  0  0  0  0  0  0  0  0  0  0
   -4.4230    1.9150   -0.0800 O   0  0  0  0  0  0  0  0  0  0  0  0
   -4.5010   -0.4540   -0.0710 C   0  0  0  0  0  0  0  0  0  0  0  0
   -3.8450   -1.6350   -0.0560 C   0  0  0  0  0  0  0  0  0  0  0  0
   -4.5860   -2.8090   -0.0610 O   0  0  0  0  0  0  0  0  0  0  0  0
   -2.4860   -1.7280   -0.0350 C   0  0  0  0  0  0  0  0  0  0  0  0
   -1.7000   -0.5880   -0.0290 C   0  0  0  0  0  0  0  0  0  0  0  0
   -0.3850   -0.6720   -0.0090 O   0  0  0  0  0  0  0  0  0  0  0  0
    2.4070   -1.1050    0.0340 C   0  0  0  0  0  0  0  0  0  0  0  0
    3.8510   -1.2300    0.0560 C   0  0  0  0  0  0  0  0  0  0  0  0
    4.6690   -0.1990    0.0630 C   0  0  0  0  0  0  0  0  0  0  0  0
    6.0460   -0.4230    0.0850 O   0  0  0  0  0  0  0  0  0  0  0  0
  1  2  2  0
  2  3  1  0
  2 20  1  0
  3  4  2  0
  4  5  1  0
  4 18  1  0
  5  6  2  0
  5 17  1  0
  6  7  1  0
  7  8  2  0
  7  9  1  0
  9 10  2  0
  9 16  1  0
 10 11  1  0
 10 12  1  0
 12 13  2  0
 13 14  1  0
 13 15  1  0
 15 16  2  0
 16 17  1  0
 18 19  1  0
 19 20  2  0
 20 21  1  0
M  END
