
     RDKit          3D

 21 23  0  0  0  0  0  0  0  0999 V2000
    6.7030    0.4560   -0.8190 O   0  0  0  0  0  0  0  0  0  0  0  0
    5.7420    0.8330    0.1080 C   0  0  0  0  0  0  0  0  0  0  0  0
    4.5270   -0.0370   -0.0410 C   0  0  0  0  0  0  0  0  0  0  0  0
    4.3710   -1.0540   -0.9490 C   0  0  0  0  0  0  0  0  0  0  0  0
    3.0900   -1.5590   -0.7010 C   0  0  0  0  0  0  0  0  0  0  0  0
    2.5460   -0.8300    0.3300 C   0  0  0  0  0  0  0  0  0  0  0  0
    1.2050   -1.0360    0.9050 C   0  0  0  0  0  0  0  0  0  0  0  0
    0.2130   -0.2630    0.2510 O   0  0  0  0  0  0  0  0  0  0  0  0
   -1.0830   -0.3680    0.6970 C   0  0  0  0  0  0  0  0  0  0  0  0
   -1.4510   -1.1820    1.7390 C   0  0  0  0  0  0  0  0  0  0  0  0
   -2.7730   -1.2680    2.1680 C   0  0  0  0  0  0  0  0  0  0  0  0
   -3.7330   -0.5180    1.5340 C   0  0  0  0  0  0  0  0  0  0  0  0
   -5.0540   -0.5790    1.9350 O   0  0  0  0  0  0  0  0  0  0  0  0
   -3.3730    0.3210    0.4650 C   0  0  0  0  0  0  0  0  0  0  0  0
   -2.0580    0.3750    0.0740 C   0  0  0  0  0  0  0  0  0  0  0  0
   -1.6650    1.2510   -1.0450 C   0  0  1  0  0  0  0  0  0  0  0  0
   -0.6350    0.7110   -1.8110 O   0  0  0  0  0  0  0  0  0  0  0  0
   -2.8730    1.3880   -1.9480 C   0  0  0  0  0  0  0  0  0  0  0  0
   -3.9640    1.9020   -1.2580 O   0  0  0  0  0  0  0  0  0  0  0  0
   -4.3880    1.1280   -0.2230 C   0  0  0  0  0  0  0  0  0  0  0  0
    3.4380    0.0560    0.6820 O   0  0  0  0  0  0  0  0  0  0  0  0
  1  2  1  0
  2  3  1  0
  3  4  2  0
  3 21  1  0
  4  5  1  0
  5  6  2  0
  6  7  1  0
  6 21  1  0
  7  8  1  0
  8  9  1  0
  9 10  2  0
  9 15  1  0
 10 11  1  0
 11 12  2  0
 12 13  1  0
 12 14  1  0
 14 15  2  0
 14 20  1  0
 15 16  1  0
 16 17  1  6
 16 18  1  0
 18 19  1  0
 19 20  1  0
M  END
