
     RDKit          3D

 21 22  0  0  0  0  0  0  0  0999 V2000
   -4.7520    0.3190   -1.9330 C   0  0  0  0  0  0  0  0  0  0  0  0
   -3.8220   -0.1960   -1.1350 C   0  0  0  0  0  0  0  0  0  0  0  0
   -3.5080    0.3030    0.1850 C   0  0  0  0  0  0  0  0  0  0  0  0
   -4.2190    1.3600    0.6090 C   0  0  0  0  0  0  0  0  0  0  0  0
   -2.4850   -0.2860    1.0270 C   0  0  1  0  0  0  0  0  0  0  0  0
   -2.9480   -0.5390    2.3330 O   0  0  0  0  0  0  0  0  0  0  0  0
   -1.7850   -1.4220    0.4600 C   0  0  0  0  0  0  0  0  0  0  0  0
   -0.6920   -2.1050    1.2770 C   0  0  0  0  0  0  0  0  0  0  0  0
    0.3380   -1.2220    1.5890 O   0  0  0  0  0  0  0  0  0  0  0  0
    1.0570   -0.6030    0.5810 C   0  0  0  0  0  0  0  0  0  0  0  0
    0.7480   -0.8690   -0.6050 O   0  0  0  0  0  0  0  0  0  0  0  0
    2.1550    0.3390    0.8870 C   0  0  0  0  0  0  0  0  0  0  0  0
    2.7910    0.8850   -0.3520 C   0  0  1  0  0  0  0  0  0  0  0  0
    1.8500    1.5620   -1.1080 O   0  0  0  0  0  0  0  0  0  0  0  0
    3.9050    1.8340    0.0370 C   0  0  0  0  0  0  0  0  0  0  0  0
    5.0950    0.8690    0.0880 C   0  0  0  0  0  0  0  0  0  0  0  0
    4.8760    0.1160   -1.0610 O   0  0  0  0  0  0  0  0  0  0  0  0
    3.5320   -0.1640   -1.1340 C   0  0  0  0  0  0  0  0  0  0  0  0
   -2.0500   -1.8920   -0.7300 C   0  0  0  0  0  0  0  0  0  0  0  0
   -3.0590   -1.3490   -1.6210 C   0  0  0  0  0  0  0  0  0  0  0  0
   -3.2570   -1.8570   -2.7540 O   0  0  0  0  0  0  0  0  0  0  0  0
  1  2  2  0
  2  3  1  0
  2 20  1  0
  3  4  2  0
  3  5  1  0
  5  6  1  1
  5  7  1  0
  7  8  1  0
  7 19  2  0
  8  9  1  0
  9 10  1  0
 10 11  2  0
 10 12  1  0
 12 13  1  0
 13 14  1  6
 13 15  1  0
 13 18  1  0
 15 16  1  0
 16 17  1  0
 17 18  1  0
 19 20  1  0
 20 21  2  0
M  END
