
     RDKit          3D

 21 23  0  0  0  0  0  0  0  0999 V2000
   -4.6250    0.0370   -1.5670 C   0  0  0  0  0  0  0  0  0  0  0  0
   -4.0740   -0.6710   -0.3370 C   0  0  1  0  0  0  0  0  0  0  0  0
   -4.5860   -1.9310   -0.1660 O   0  0  0  0  0  0  0  0  0  0  0  0
   -2.6070   -0.6810   -0.4520 C   0  0  0  0  0  0  0  0  0  0  0  0
   -1.7450   -0.1180    0.3530 C   0  0  0  0  0  0  0  0  0  0  0  0
   -0.2760   -0.1860    0.1480 C   0  0  0  0  0  0  0  0  0  0  0  0
    0.6070    0.3750    0.9480 C   0  0  0  0  0  0  0  0  0  0  0  0
    1.9470    0.1200    0.4690 C   0  0  0  0  0  0  0  0  0  0  0  0
    3.0530    0.5430    1.0300 C   0  0  0  0  0  0  0  0  0  0  0  0
    4.3330    0.1860    0.4120 C   0  0  0  0  0  0  0  0  0  0  0  0
    5.3580    1.0440    0.1660 C   0  0  0  0  0  0  0  0  0  0  0  0
    6.3710    0.2930   -0.4200 C   0  0  0  0  0  0  0  0  0  0  0  0
    5.8830   -1.0110   -0.4950 C   0  0  0  0  0  0  0  0  0  0  0  0
    4.6670   -1.0360    0.0100 O   0  0  0  0  0  0  0  0  0  0  0  0
    1.8090   -0.6420   -0.6860 O   0  0  0  0  0  0  0  0  0  0  0  0
    0.4520   -0.8440   -0.9080 C   0  0  0  0  0  0  0  0  0  0  0  0
   -0.0190   -1.4870   -1.8650 O   0  0  0  0  0  0  0  0  0  0  0  0
   -2.2380    0.6280    1.5360 C   0  0  0  0  0  0  0  0  0  0  0  0
   -3.6100    1.1040    1.2710 C   0  0  0  0  0  0  0  0  0  0  0  0
   -3.9750    2.3010    1.4820 O   0  0  0  0  0  0  0  0  0  0  0  0
   -4.5070    0.1350    0.7630 O   0  0  0  0  0  0  0  0  0  0  0  0
  2  1  1  6
  2  3  1  0
  2  4  1  0
  2 21  1  0
  4  5  2  0
  5  6  1  0
  5 18  1  0
  6  7  2  0
  6 16  1  0
  7  8  1  0
  8  9  2  3
  8 15  1  0
  9 10  1  0
 10 11  2  0
 10 14  1  0
 11 12  1  0
 12 13  2  0
 13 14  1  0
 15 16  1  0
 16 17  2  0
 18 19  1  0
 19 20  2  0
 19 21  1  0
M  END
