
     RDKit          3D

 21 22  0  0  0  0  0  0  0  0999 V2000
   -3.5880   -1.9060    0.3260 C   0  0  0  0  0  0  0  0  0  0  0  0
   -2.3930   -1.0130   -0.0120 C   0  0  2  0  0  0  0  0  0  0  0  0
   -2.0240   -1.3790   -1.3080 O   0  0  0  0  0  0  0  0  0  0  0  0
   -1.3280   -1.2940    0.9860 C   0  0  0  0  0  0  0  0  0  0  0  0
   -1.7030   -1.1860    2.2050 O   0  0  0  0  0  0  0  0  0  0  0  0
   -0.0320   -1.6440    0.6940 O   0  0  0  0  0  0  0  0  0  0  0  0
    0.5380   -1.5960   -0.5830 C   0  0  0  0  0  0  0  0  0  0  0  0
    2.0010   -1.6780   -0.6470 C   0  0  0  0  0  0  0  0  0  0  0  0
    2.4200   -2.5610   -1.4930 O   0  0  0  0  0  0  0  0  0  0  0  0
    3.0200   -0.9410    0.0720 C   0  0  0  0  0  0  0  0  0  0  0  0
    4.0690   -1.4630    0.7010 C   0  0  0  0  0  0  0  0  0  0  0  0
    4.8740   -0.4140    1.3060 C   0  0  0  0  0  0  0  0  0  0  0  0
    4.1790    0.8280    0.9450 C   0  0  0  0  0  0  0  0  0  0  0  0
    3.1040    0.5220    0.2340 C   0  0  0  0  0  0  0  0  0  0  0  0
    2.1520    1.3680   -0.3150 O   0  0  0  0  0  0  0  0  0  0  0  0
    0.8780    1.7460    0.0650 C   0  0  0  0  0  0  0  0  0  0  0  0
    0.0800    2.1740   -1.1470 C   0  0  0  0  0  0  0  0  0  0  0  0
   -1.3500    2.3820   -0.6530 C   0  0  0  0  0  0  0  0  0  0  0  0
   -2.1960    1.2290   -1.0850 C   0  0  0  0  0  0  0  0  0  0  0  0
   -2.7830    0.4470    0.0750 C   0  0  2  0  0  0  0  0  0  0  0  0
   -2.3230    1.0530    1.2510 O   0  0  0  0  0  0  0  0  0  0  0  0
  2  1  1  1
  2  3  1  0
  2  4  1  0
  2 20  1  0
  4  5  2  0
  4  6  1  0
  6  7  1  0
  7  8  1  0
  8  9  2  0
  8 10  1  0
 10 11  2  0
 10 14  1  0
 11 12  1  0
 12 13  1  0
 13 14  2  0
 14 15  1  0
 15 16  1  0
 16 17  1  0
 17 18  1  0
 18 19  1  0
 19 20  1  0
 20 21  1  1
M  END
