
     RDKit          3D

 21 22  0  0  0  0  0  0  0  0999 V2000
    4.8410    1.1390    0.2360 C   0  0  0  0  0  0  0  0  0  0  0  0
    3.8960   -0.0100   -0.1410 C   0  0  1  0  0  0  0  0  0  0  0  0
    4.4270   -1.2370    0.5550 C   0  0  0  0  0  0  0  0  0  0  0  0
    2.5300    0.3810    0.3130 C   0  0  0  0  0  0  0  0  0  0  0  0
    1.4500   -0.5600   -0.1360 C   0  0  1  0  0  0  0  0  0  0  0  0
    1.3410   -1.6830    0.6810 O   0  0  0  0  0  0  0  0  0  0  0  0
    0.1150    0.1760   -0.1270 C   0  0  0  0  0  0  0  0  0  0  0  0
   -0.0320    1.2150   -0.7870 O   0  0  0  0  0  0  0  0  0  0  0  0
   -0.9330   -0.2720    0.5870 O   0  0  0  0  0  0  0  0  0  0  0  0
   -2.2010    0.1340    0.7770 C   0  0  2  0  0  0  0  0  0  0  0  0
   -3.1230    0.1350   -0.3720 C   0  0  2  0  0  0  0  0  0  0  0  0
   -3.3610   -1.3240   -0.7920 C   0  0  0  0  0  0  0  0  0  0  0  0
   -2.7800    0.9040   -1.5940 C   0  0  0  0  0  0  0  0  0  0  0  0
   -4.4070    0.5540    0.1130 O   0  0  0  0  0  0  0  0  0  0  0  0
   -2.3490    1.3930    1.6290 C   0  0  0  0  0  0  0  0  0  0  0  0
   -3.6410    1.1100    2.3560 C   0  0  0  0  0  0  0  0  0  0  0  0
   -3.9890   -0.2100    2.0880 O   0  0  0  0  0  0  0  0  0  0  0  0
   -2.8110   -0.8660    1.7970 C   0  0  0  0  0  0  0  0  0  0  0  0
    1.7010   -0.9500   -1.5600 C   0  0  0  0  0  0  0  0  0  0  0  0
    2.7700   -0.0420   -2.1530 C   0  0  0  0  0  0  0  0  0  0  0  0
    3.9740   -0.1620   -1.5040 O   0  0  0  0  0  0  0  0  0  0  0  0
  2  1  1  1
  2  3  1  0
  2  4  1  0
  2 21  1  0
  4  5  1  0
  5  6  1  1
  5  7  1  0
  5 19  1  0
  7  8  2  0
  7  9  1  0
 10  9  1  6
 10 11  1  0
 10 15  1  0
 10 18  1  0
 11 12  1  6
 11 13  1  0
 11 14  1  0
 15 16  1  0
 16 17  1  0
 17 18  1  0
 19 20  1  0
 20 21  1  0
M  END
