
     RDKit          3D

 21 21  0  0  0  0  0  0  0  0999 V2000
    0.1770    3.7500   -1.8260 C   0  0  0  0  0  0  0  0  0  0  0  0
    0.7400    2.4340   -1.8340 O   0  0  0  0  0  0  0  0  0  0  0  0
    0.4030    1.6020   -0.6800 C   0  0  0  0  0  0  0  0  0  0  0  0
   -0.6020    0.8000   -0.8650 C   0  0  0  0  0  0  0  0  0  0  0  0
   -1.2450   -0.1940    0.0560 C   0  0  0  0  0  0  0  0  0  0  0  0
   -2.6580    0.0190    0.4070 C   0  0  2  0  0  0  0  0  0  0  0  0
   -3.5080   -0.9430    1.0510 C   0  0  0  0  0  0  0  0  0  0  0  0
   -3.3110    0.3140   -0.9830 C   0  0  0  0  0  0  0  0  0  0  0  0
   -2.8600    1.2650    1.0750 O   0  0  0  0  0  0  0  0  0  0  0  0
   -0.4890   -1.2380    0.4550 C   0  0  0  0  0  0  0  0  0  0  0  0
   -1.0900   -2.2460    1.3900 C   0  0  0  0  0  0  0  0  0  0  0  0
    0.7970   -1.4180    0.0390 O   0  0  0  0  0  0  0  0  0  0  0  0
    1.5240   -1.6940   -1.0480 C   0  0  0  0  0  0  0  0  0  0  0  0
    1.4950   -1.3380   -2.2500 O   0  0  0  0  0  0  0  0  0  0  0  0
    2.6700   -2.6740   -0.7850 C   0  0  0  0  0  0  0  0  0  0  0  0
    3.2470   -2.2530    0.5610 C   0  0  0  0  0  0  0  0  0  0  0  0
    2.6310   -1.1260    1.0720 O   0  0  0  0  0  0  0  0  0  0  0  0
    3.0410    0.0470    0.5130 C   0  0  0  0  0  0  0  0  0  0  0  0
    2.3180    1.2610    0.9360 C   0  0  0  0  0  0  0  0  0  0  0  0
    1.2770    1.8590    0.4450 C   0  0  0  0  0  0  0  0  0  0  0  0
    0.8890    3.0730    1.1770 O   0  0  0  0  0  0  0  0  0  0  0  0
  1  2  1  0
  2  3  1  0
  3  4  2  0
  3 20  1  0
  4  5  1  0
  5  6  1  0
  5 10  2  0
  6  7  1  1
  6  8  1  0
  6  9  1  0
 10 11  1  0
 10 12  1  0
 12 13  1  0
 13 14  2  0
 13 15  1  0
 15 16  1  0
 16 17  1  0
 17 18  1  0
 18 19  1  0
 19 20  2  0
 20 21  1  0
M  END
