
     RDKit          3D

 16 17  0  0  0  0  0  0  0  0999 V2000
    3.9580   -1.4760   -0.4170 O   0  0  0  0  0  0  0  0  0  0  0  0
    2.7740   -1.0890   -0.2650 C   0  0  0  0  0  0  0  0  0  0  0  0
    1.7380   -1.8090    0.4010 N   0  0  0  0  0  0  0  0  0  0  0  0
    0.5930   -0.9350    0.5330 C   0  0  2  0  0  0  0  0  0  0  0  0
   -0.6350   -1.6360   -0.0190 C   0  0  1  0  0  0  0  0  0  0  0  0
   -0.8930   -2.7350    0.7700 O   0  0  0  0  0  0  0  0  0  0  0  0
   -1.8170   -0.7430   -0.1290 C   0  0  1  0  0  0  0  0  0  0  0  0
   -2.6610   -1.0270    0.9690 O   0  0  0  0  0  0  0  0  0  0  0  0
   -1.5290    0.7100   -0.1400 C   0  0  2  0  0  0  0  0  0  0  0  0
   -2.5320    1.3620   -0.8650 O   0  0  0  0  0  0  0  0  0  0  0  0
   -0.2000    1.0950   -0.6860 C   0  0  1  0  0  0  0  0  0  0  0  0
    0.2050    2.4680   -0.1630 C   0  0  0  0  0  0  0  0  0  0  0  0
    0.3820    2.4350    1.2210 O   0  0  0  0  0  0  0  0  0  0  0  0
    0.8580    0.1860   -0.3450 N   0  0  0  0  0  0  0  0  0  0  0  0
    2.2180    0.1890   -0.7450 C   0  0  0  0  0  0  0  0  0  0  0  0
    2.8730    1.0490   -1.3700 O   0  0  0  0  0  0  0  0  0  0  0  0
  1  2  2  0
  2  3  1  0
  2 15  1  0
  4  3  1  6
  4  5  1  0
  4 14  1  0
  5  6  1  1
  5  7  1  0
  7  8  1  1
  7  9  1  0
  9 10  1  6
  9 11  1  0
 11 12  1  1
 11 14  1  0
 12 13  1  0
 14 15  1  0
 15 16  2  0
M  END
