
     RDKit          3D

 16 16  0  0  0  0  0  0  0  0999 V2000
    0.8520    3.0250   -1.8000 O   0  0  0  0  0  0  0  0  0  0  0  0
    0.8540    2.3740   -0.7160 C   0  0  0  0  0  0  0  0  0  0  0  0
    1.7350    1.2620   -0.6430 N   0  0  0  0  0  0  0  0  0  0  0  0
    1.9810    0.4860    0.5560 C   0  0  0  0  0  0  0  0  0  0  0  0
    2.1300   -0.9780    0.1430 C   0  0  2  0  0  0  0  0  0  0  0  0
    2.9170   -1.0840   -1.0030 O   0  0  0  0  0  0  0  0  0  0  0  0
    0.7840   -1.6180   -0.1280 C   0  0  0  0  0  0  0  0  0  0  0  0
   -0.1320   -1.0360    0.7080 O   0  0  0  0  0  0  0  0  0  0  0  0
   -1.3740   -1.6610    0.6960 C   0  0  0  0  0  0  0  0  0  0  0  0
   -2.1290   -1.0660   -0.4790 C   0  0  1  0  0  0  0  0  0  0  0  0
   -3.4860   -1.2240   -0.2900 O   0  0  0  0  0  0  0  0  0  0  0  0
   -1.7510    0.4090   -0.5290 C   0  0  0  0  0  0  0  0  0  0  0  0
   -1.4360    0.8280    0.7580 O   0  0  0  0  0  0  0  0  0  0  0  0
   -0.8020    1.9650    1.1390 C   0  0  0  0  0  0  0  0  0  0  0  0
   -0.9100    2.3280    2.3610 O   0  0  0  0  0  0  0  0  0  0  0  0
   -0.0180    2.8120    0.3140 N   0  0  0  0  0  0  0  0  0  0  0  0
  1  2  2  0
  2  3  1  0
  2 16  1  0
  3  4  1  0
  4  5  1  0
  5  6  1  6
  5  7  1  0
  7  8  1  0
  8  9  1  0
  9 10  1  0
 10 11  1  1
 10 12  1  0
 12 13  1  0
 13 14  1  0
 14 15  2  0
 14 16  1  0
M  END
