
     RDKit          3D

 16 17  0  0  0  0  0  0  0  0999 V2000
   -4.3010   -0.5060    1.0460 C   0  0  0  0  0  0  0  0  0  0  0  0
   -3.5530   -0.5270   -0.1900 N   0  0  0  0  0  0  0  0  0  0  0  0
   -4.1200    0.1740   -1.3210 C   0  0  0  0  0  0  0  0  0  0  0  0
   -2.3340   -1.1810   -0.3300 N   0  0  0  0  0  0  0  0  0  0  0  0
   -1.1790   -0.5820   -0.1530 C   0  0  0  0  0  0  0  0  0  0  0  0
   -1.1050    0.8580    0.2130 C   0  0  0  0  0  0  0  0  0  0  0  0
    0.5250    0.7860    1.0770 S   0  0  0  0  0  0  0  0  0  0  0  0
    1.0360   -0.7180    0.2540 C   0  0  0  0  0  0  0  0  0  0  0  0
    2.3550   -1.2030    0.2440 N   0  0  0  0  0  0  0  0  0  0  0  0
    3.3820   -0.5320   -0.1210 C   0  0  0  0  0  0  0  0  0  0  0  0
    3.4490    0.8410   -0.5980 C   0  0  0  0  0  0  0  0  0  0  0  0
    4.7350    1.1270   -0.8670 C   0  0  0  0  0  0  0  0  0  0  0  0
    5.5520   -0.0390   -0.5770 C   0  0  0  0  0  0  0  0  0  0  0  0
    7.2820   -0.1650   -0.7640 Cl  0  0  0  0  0  0  0  0  0  0  0  0
    4.7530   -1.0230   -0.1360 C   0  0  0  0  0  0  0  0  0  0  0  0
    0.0290   -1.2310   -0.2890 N   0  0  0  0  0  0  0  0  0  0  0  0
  1  2  1  0
  2  3  1  0
  2  4  1  0
  4  5  2  3
  5  6  1  0
  5 16  1  0
  6  7  1  0
  7  8  1  0
  8  9  1  0
  8 16  2  0
  9 10  2  3
 10 11  1  0
 10 15  1  0
 11 12  2  0
 12 13  1  0
 13 14  1  0
 13 15  2  0
M  END
