
     RDKit          3D

 16 16  0  0  0  0  0  0  0  0999 V2000
    4.8470   -1.5640   -0.0520 N   0  0  0  0  0  0  0  0  0  0  0  0
    3.6700   -1.0490    0.5240 C   0  0  0  0  0  0  0  0  0  0  0  0
    3.5800   -0.8820    1.7640 O   0  0  0  0  0  0  0  0  0  0  0  0
    2.5290   -0.6970   -0.3070 C   0  0  0  0  0  0  0  0  0  0  0  0
    2.5970   -0.8590   -1.5730 O   0  0  0  0  0  0  0  0  0  0  0  0
    1.3520   -0.1910    0.1850 O   0  0  0  0  0  0  0  0  0  0  0  0
    0.2470    0.1480   -0.6330 C   0  0  2  0  0  0  0  0  0  0  0  0
   -0.0400    1.5870   -0.4570 C   0  0  0  0  0  0  0  0  0  0  0  0
    0.7570    2.3430    0.4520 N   0  0  0  0  0  0  0  0  0  0  0  0
   -0.9650    2.1910   -1.0760 O   0  0  0  0  0  0  0  0  0  0  0  0
   -0.9550   -0.6890   -0.2620 C   0  0  2  0  0  0  0  0  0  0  0  0
   -2.1040   -0.5830   -1.2000 C   0  0  0  0  0  0  0  0  0  0  0  0
   -3.3170   -0.8940   -0.5410 O   0  0  0  0  0  0  0  0  0  0  0  0
   -3.5960    0.0810    0.3900 C   0  0  0  0  0  0  0  0  0  0  0  0
   -2.3970    0.3150    1.2710 C   0  0  0  0  0  0  0  0  0  0  0  0
   -1.3280   -0.4990    1.0360 O   0  0  0  0  0  0  0  0  0  0  0  0
  1  2  1  0
  2  3  2  0
  2  4  1  0
  4  5  2  0
  4  6  1  0
  7  6  1  1
  7  8  1  0
  7 11  1  0
  8  9  1  0
  8 10  2  0
 11 12  1  6
 11 16  1  0
 12 13  1  0
 13 14  1  0
 14 15  1  0
 15 16  1  0
M  END
