
     RDKit          3D

 16 16  0  0  0  0  0  0  0  0999 V2000
    5.3740   -1.1220   -0.2910 C   0  0  0  0  0  0  0  0  0  0  0  0
    4.6880    0.0650    0.0620 O   0  0  0  0  0  0  0  0  0  0  0  0
    3.3510    0.2620   -0.2070 C   0  0  0  0  0  0  0  0  0  0  0  0
    2.6940   -0.6270   -0.7850 O   0  0  0  0  0  0  0  0  0  0  0  0
    2.6790    1.5190    0.1810 C   0  0  0  0  0  0  0  0  0  0  0  0
    1.2850    1.4950   -0.2040 N   0  0  0  0  0  0  0  0  0  0  0  0
    0.4170    0.4900    0.3170 C   0  0  0  0  0  0  0  0  0  0  0  0
    0.8280   -0.3930    1.1140 O   0  0  0  0  0  0  0  0  0  0  0  0
   -0.9550    0.4420   -0.0420 N   0  0  0  0  0  0  0  0  0  0  0  0
   -1.8780   -0.5540    0.4550 C   0  0  1  0  0  0  0  0  0  0  0  0
   -3.0250    0.2280    1.1130 C   0  0  2  0  0  0  0  0  0  0  0  0
   -3.7400   -0.6030    1.9710 O   0  0  0  0  0  0  0  0  0  0  0  0
   -3.8370    0.5990   -0.0990 C   0  0  0  0  0  0  0  0  0  0  0  0
   -3.3610   -0.1090   -1.1690 O   0  0  0  0  0  0  0  0  0  0  0  0
   -2.6770   -1.2030   -0.6600 C   0  0  1  0  0  0  0  0  0  0  0  0
   -1.9120   -1.8630   -1.5690 O   0  0  0  0  0  0  0  0  0  0  0  0
  1  2  1  0
  2  3  1  0
  3  4  2  0
  3  5  1  0
  5  6  1  0
  6  7  1  0
  7  8  2  0
  7  9  1  0
 10  9  1  6
 10 11  1  0
 10 15  1  0
 11 12  1  1
 11 13  1  0
 13 14  1  0
 14 15  1  0
 15 16  1  6
M  END
