
     RDKit          3D

 15 15  0  0  0  0  0  0  0  0999 V2000
    2.0320   -0.7840   -0.3490 O   0  0  0  0  0  0  0  0  0  0  0  0
    2.3270    0.1230    0.4480 C   0  0  0  0  0  0  0  0  0  0  0  0
    1.3500    0.7790    1.1870 N   0  0  0  0  0  0  0  0  0  0  0  0
   -0.0340    0.5640    1.1580 C   0  0  0  0  0  0  0  0  0  0  0  0
   -0.8310    0.8340   -0.0570 C   0  0  1  0  0  0  0  0  0  0  0  0
   -0.6950    2.1660   -0.4860 O   0  0  0  0  0  0  0  0  0  0  0  0
   -0.7430   -0.1030   -1.2140 C   0  0  0  0  0  0  0  0  0  0  0  0
   -0.9700   -1.4650   -0.8700 N   0  0  0  0  0  0  0  0  0  0  0  0
   -2.1220   -1.7040   -0.0770 C   0  0  0  0  0  0  0  0  0  0  0  0
   -2.9910   -0.4910   -0.0810 C   0  0  0  0  0  0  0  0  0  0  0  0
   -2.3490    0.7810    0.3370 C   0  0  2  0  0  0  0  0  0  0  0  0
   -3.0470    1.8200   -0.2490 O   0  0  0  0  0  0  0  0  0  0  0  0
    3.7000    0.4420    0.5550 O   0  0  0  0  0  0  0  0  0  0  0  0
    4.6200   -0.2820   -0.2390 C   0  0  0  0  0  0  0  0  0  0  0  0
    4.5900   -1.6470    0.0300 O   0  0  0  0  0  0  0  0  0  0  0  0
  1  2  2  0
  2  3  1  0
  2 13  1  0
  3  4  1  0
  4  5  1  0
  5  6  1  6
  5  7  1  0
  5 11  1  0
  7  8  1  0
  8  9  1  0
  9 10  1  0
 10 11  1  0
 11 12  1  6
 13 14  1  0
 14 15  1  0
M  END
