
     RDKit          3D

 15 16  0  0  0  0  0  0  0  0999 V2000
    3.5720    0.6510   -0.4390 C   0  0  0  0  0  0  0  0  0  0  0  0
    2.3440    0.1850    0.3300 C   0  0  2  0  0  0  0  0  0  0  0  0
    2.7980   -0.6270    1.3900 O   0  0  0  0  0  0  0  0  0  0  0  0
    1.5440   -0.5150   -0.5480 O   0  0  0  0  0  0  0  0  0  0  0  0
    0.3390   -0.7710    0.0410 C   0  0  2  0  0  0  0  0  0  0  0  0
   -0.5410   -1.5370   -0.6730 O   0  0  0  0  0  0  0  0  0  0  0  0
   -1.8200   -1.2510   -0.2610 C   0  0  2  0  0  0  0  0  0  0  0  0
   -2.7430   -1.0850   -1.4210 C   0  0  0  0  0  0  0  0  0  0  0  0
   -4.1190   -0.7850   -1.2550 N   0  0  0  0  0  0  0  0  0  0  0  0
   -2.2970   -1.2130   -2.5870 O   0  0  0  0  0  0  0  0  0  0  0  0
   -1.7570    0.0760    0.5110 C   0  0  0  0  0  0  0  0  0  0  0  0
   -0.4210    0.5660    0.0850 C   0  0  1  0  0  0  0  0  0  0  0  0
    0.2710    1.3960    1.0080 N   0  0  0  0  0  0  0  0  0  0  0  0
    1.7130    1.3690    0.9210 C   0  0  0  0  0  0  0  0  0  0  0  0
    2.4140    2.3360    1.3410 O   0  0  0  0  0  0  0  0  0  0  0  0
  2  1  1  6
  2  3  1  0
  2  4  1  0
  2 14  1  0
  5  4  1  6
  5  6  1  0
  5 12  1  0
  6  7  1  0
  7  8  1  6
  7 11  1  0
  8  9  1  0
  8 10  2  0
 12 11  1  1
 12 13  1  0
 13 14  1  0
 14 15  2  0
M  END
