
     RDKit          3D

 14 14  0  0  0  0  0  0  0  0999 V2000
    2.8530    0.8810    1.4880 O   0  0  0  0  0  0  0  0  0  0  0  0
    3.1630    0.8400    0.2470 C   0  0  0  0  0  0  0  0  0  0  0  0
    4.1810    1.6700   -0.1390 O   0  0  0  0  0  0  0  0  0  0  0  0
    2.4700   -0.0220   -0.6150 N   0  0  0  0  0  0  0  0  0  0  0  0
    1.4210   -0.8440   -0.0970 C   0  0  1  0  0  0  0  0  0  0  0  0
    1.9690   -1.5390    1.0030 O   0  0  0  0  0  0  0  0  0  0  0  0
    0.2950   -0.2200    0.2880 O   0  0  0  0  0  0  0  0  0  0  0  0
   -0.7950   -0.3790   -0.4700 C   0  0  2  0  0  0  0  0  0  0  0  0
   -2.0180   -0.1010    0.4110 C   0  0  2  0  0  0  0  0  0  0  0  0
   -3.2100   -0.2700   -0.2930 O   0  0  0  0  0  0  0  0  0  0  0  0
   -1.9090    1.3360    0.9100 C   0  0  0  0  0  0  0  0  0  0  0  0
   -1.9400    2.1660   -0.2120 O   0  0  0  0  0  0  0  0  0  0  0  0
   -0.9420   -1.8250   -0.9200 C   0  0  0  0  0  0  0  0  0  0  0  0
    0.8460   -2.0640   -1.3330 S   0  0  0  0  0  0  0  0  0  0  0  0
  1  2  2  0
  2  3  1  0
  2  4  1  0
  4  5  1  0
  5  6  1  1
  5  7  1  0
  5 14  1  0
  7  8  1  0
  8  9  1  0
  8 13  1  1
  9 10  1  6
  9 11  1  0
 11 12  1  0
 13 14  1  0
M  END
