
     RDKit          3D

 14 14  0  0  0  0  0  0  0  0999 V2000
   -1.2020    1.4930    1.6050 O   0  0  0  0  0  0  0  0  0  0  0  0
   -1.6020    1.0710    0.5060 C   0  0  0  0  0  0  0  0  0  0  0  0
   -2.6990    1.7190   -0.0580 O   0  0  0  0  0  0  0  0  0  0  0  0
   -0.9500   -0.0570   -0.1680 C   0  0  1  0  0  0  0  0  0  0  0  0
   -1.9650   -1.1350   -0.4350 C   0  0  0  0  0  0  0  0  0  0  0  0
   -2.4680   -1.6670    0.7370 O   0  0  0  0  0  0  0  0  0  0  0  0
   -0.4380    0.4400   -1.5280 C   0  0  0  0  0  0  0  0  0  0  0  0
    0.9800    1.4110   -0.8630 S   0  0  0  0  0  0  0  0  0  0  0  0
    1.2360    0.3360    0.6110 C   0  0  2  0  0  0  0  0  0  0  0  0
    1.3810    1.0740    1.7600 O   0  0  0  0  0  0  0  0  0  0  0  0
    2.5620   -0.3870    0.3230 C   0  0  1  0  0  0  0  0  0  0  0  0
    2.4460   -0.9390   -0.9430 O   0  0  0  0  0  0  0  0  0  0  0  0
    3.5640    0.6020    0.2560 O   0  0  0  0  0  0  0  0  0  0  0  0
    0.1420   -0.5620    0.5710 N   0  0  0  0  0  0  0  0  0  0  0  0
  1  2  2  0
  2  3  1  0
  2  4  1  0
  4  5  1  6
  4  7  1  0
  4 14  1  0
  5  6  1  0
  7  8  1  0
  8  9  1  0
  9 10  1  1
  9 11  1  0
  9 14  1  0
 11 12  1  6
 11 13  1  0
M  END
