
     RDKit          3D

 14 14  0  0  0  0  0  0  0  0999 V2000
   -2.1810    2.2970   -0.8260 N   0  0  0  0  0  0  0  0  0  0  0  0
   -1.4350    1.4320   -0.0030 C   0  0  0  0  0  0  0  0  0  0  0  0
   -0.9240    1.8630    1.0450 O   0  0  0  0  0  0  0  0  0  0  0  0
   -1.2640    0.0260   -0.3850 C   0  0  2  0  0  0  0  0  0  0  0  0
   -1.8850   -0.3070   -1.5700 O   0  0  0  0  0  0  0  0  0  0  0  0
   -1.7860   -0.8150    0.7910 C   0  0  1  0  0  0  0  0  0  0  0  0
   -1.6140   -2.1420    0.4600 O   0  0  0  0  0  0  0  0  0  0  0  0
   -0.8420   -0.4970    1.7630 O   0  0  0  0  0  0  0  0  0  0  0  0
    0.3950   -0.4460    1.1770 C   0  0  0  0  0  0  0  0  0  0  0  0
    0.1820   -0.4320   -0.3410 C   0  0  2  0  0  0  0  0  0  0  0  0
    1.3050    0.6570   -1.1890 S   0  0  0  0  0  0  0  0  0  0  0  0
    2.9850   -0.0510   -1.0300 C   0  0  1  0  0  0  0  0  0  0  0  0
    3.3070    0.0210    0.3320 O   0  0  0  0  0  0  0  0  0  0  0  0
    2.9890   -1.3860   -1.4420 O   0  0  0  0  0  0  0  0  0  0  0  0
  1  2  1  0
  2  3  2  0
  2  4  1  0
  4  5  1  6
  4  6  1  0
  4 10  1  0
  6  7  1  6
  6  8  1  0
  8  9  1  0
  9 10  1  0
 10 11  1  6
 11 12  1  0
 12 13  1  1
 12 14  1  0
M  END
