
     RDKit          3D

  8  7  0  0  0  0  0  0  0  0999 V2000
    2.9550    0.5250   -0.2650 C   0  0  0  0  0  0  0  0  0  0  0  0
    1.5380    0.6580    0.1270 C   0  0  0  0  0  0  0  0  0  0  0  0
    0.6040   -0.1450   -0.3050 C   0  0  0  0  0  0  0  0  0  0  0  0
    1.0880   -1.4490   -1.4160 S   0  0  0  0  0  0  0  0  0  0  0  0
   -0.8200   -0.0400    0.0670 C   0  0  2  0  0  0  0  0  0  0  0  0
   -1.1050    1.0990    1.0100 C   0  0  0  0  0  0  0  0  0  0  0  0
   -1.2430   -1.3230    0.7660 C   0  0  0  0  0  0  0  0  0  0  0  0
   -1.6900    0.2000   -1.1680 C   0  0  0  0  0  0  0  0  0  0  0  0
  1  2  1  0
  2  3  2  3
  3  4  1  0
  3  5  1  0
  5  6  1  1
  5  7  1  0
  5  8  1  0
M  END
