
     RDKit          3D

 16 17  0  0  0  0  0  0  0  0999 V2000
   -5.2310    0.4750   -0.3230 C   0  0  0  0  0  0  0  0  0  0  0  0
   -3.9210   -0.1550    0.0780 C   0  0  0  0  0  0  0  0  0  0  0  0
   -3.7410   -1.2370    0.8320 N   0  0  0  0  0  0  0  0  0  0  0  0
   -2.4330   -1.4710    0.9560 C   0  0  0  0  0  0  0  0  0  0  0  0
   -1.7760   -0.4750    0.2380 C   0  0  0  0  0  0  0  0  0  0  0  0
   -0.3290   -0.3390    0.0980 C   0  0  0  0  0  0  0  0  0  0  0  0
    0.2110    0.6910   -0.6410 C   0  0  0  0  0  0  0  0  0  0  0  0
    1.5790    0.8530   -0.7960 C   0  0  0  0  0  0  0  0  0  0  0  0
    2.4440   -0.0470   -0.1920 C   0  0  0  0  0  0  0  0  0  0  0  0
    4.1510    0.1810   -0.4040 S   0  0  1  0  0  0  0  0  0  0  0  0
    4.6940    1.2070    0.9020 N   0  0  0  0  0  0  0  0  0  0  0  0
    4.9270   -1.0950   -0.2860 O   0  0  0  0  0  0  0  0  0  0  0  0
    4.4210    0.8910   -1.7020 O   0  0  0  0  0  0  0  0  0  0  0  0
    1.9000   -1.0870    0.5540 C   0  0  0  0  0  0  0  0  0  0  0  0
    0.5370   -1.2240    0.6920 C   0  0  0  0  0  0  0  0  0  0  0  0
   -2.7260    0.2700   -0.2560 O   0  0  0  0  0  0  0  0  0  0  0  0
  1  2  1  0
  2  3  2  0
  2 16  1  0
  3  4  1  0
  4  5  2  0
  5  6  1  0
  5 16  1  0
  6  7  2  0
  6 15  1  0
  7  8  1  0
  8  9  2  0
  9 10  1  0
  9 14  1  0
 10 11  1  1
 10 12  2  0
 10 13  2  0
 14 15  2  0
M  END
