
     RDKit          3D

 14 14  0  0  0  0  0  0  0  0999 V2000
    2.8610    0.5350   -1.5240 N   0  0  0  0  0  0  0  0  0  0  0  0
    2.1760   -0.3350   -0.5880 C   0  0  2  0  0  0  0  0  0  0  0  0
    1.3690    0.3460    0.2670 O   0  0  0  0  0  0  0  0  0  0  0  0
    0.0620   -0.0600    0.3300 C   0  0  2  0  0  0  0  0  0  0  0  0
   -0.7860    1.0630   -0.2320 C   0  0  0  0  0  0  0  0  0  0  0  0
   -2.2390    0.7180   -0.2090 C   0  0  1  0  0  0  0  0  0  0  0  0
   -2.4570   -0.2630   -1.2030 O   0  0  0  0  0  0  0  0  0  0  0  0
   -2.5980    0.2120    1.1550 C   0  0  1  0  0  0  0  0  0  0  0  0
   -3.1320   -1.0660    1.0290 O   0  0  0  0  0  0  0  0  0  0  0  0
   -1.5730    0.2890    2.0720 O   0  0  0  0  0  0  0  0  0  0  0  0
   -0.4430   -0.4310    1.6700 C   0  0  1  0  0  0  0  0  0  0  0  0
   -0.8480   -1.7880    1.6840 O   0  0  0  0  0  0  0  0  0  0  0  0
    3.4510   -1.1790    0.4320 S   0  0  0  0  0  0  0  0  0  0  0  0
    4.2900   -0.0890    1.4200 O   0  0  0  0  0  0  0  0  0  0  0  0
  2  1  1  6
  2  3  1  0
  2 13  1  0
  4  3  1  1
  4  5  1  0
  4 11  1  0
  5  6  1  0
  6  7  1  6
  6  8  1  0
  8  9  1  6
  8 10  1  0
 10 11  1  0
 11 12  1  6
 13 14  1  0
M  END
