
     RDKit          3D

 15 16  0  0  0  0  0  0  0  0999 V2000
    5.1290    1.1340   -1.0900 O   0  0  0  0  0  0  0  0  0  0  0  0
    4.1860    0.4190   -0.6290 C   0  0  0  0  0  0  0  0  0  0  0  0
    4.2700   -0.9230   -0.1300 N   0  0  0  0  0  0  0  0  0  0  0  0
    2.9290   -1.2790    0.2720 C   0  0  0  0  0  0  0  0  0  0  0  0
    2.5350   -2.4570    0.3680 O   0  0  0  0  0  0  0  0  0  0  0  0
    2.2410   -0.0050    0.5090 C   0  0  2  0  0  0  0  0  0  0  0  0
    0.8610   -0.0380    0.2790 O   0  0  0  0  0  0  0  0  0  0  0  0
   -0.0980    0.4210    1.1650 C   0  0  0  0  0  0  0  0  0  0  0  0
    0.3540    0.8930    2.2400 O   0  0  0  0  0  0  0  0  0  0  0  0
   -1.5380    0.3920    0.9360 C   0  0  1  0  0  0  0  0  0  0  0  0
   -1.9760    1.1730   -0.2760 C   0  0  0  0  0  0  0  0  0  0  0  0
   -2.9450    0.2770   -1.0060 C   0  0  0  0  0  0  0  0  0  0  0  0
   -3.3690   -0.6400    0.0110 N   0  0  0  0  0  0  0  0  0  0  0  0
   -2.0940   -0.9790    0.6630 C   0  0  0  0  0  0  0  0  0  0  0  0
    2.8300    0.8440   -0.5230 N   0  0  0  0  0  0  0  0  0  0  0  0
  1  2  2  0
  2  3  1  0
  2 15  1  0
  3  4  1  0
  4  5  2  0
  4  6  1  0
  6  7  1  6
  6 15  1  0
  7  8  1  0
  8  9  2  0
 10  8  1  6
 10 11  1  0
 10 14  1  0
 11 12  1  0
 12 13  1  0
 13 14  1  0
M  CHG  1  13   1
M  END
