
     RDKit          3D

 15 16  0  0  0  0  0  0  0  0999 V2000
    5.0740   -0.1090    0.2070 O   0  0  0  0  0  0  0  0  0  0  0  0
    3.8150   -0.0360    0.1490 C   0  0  0  0  0  0  0  0  0  0  0  0
    3.2050    0.9660   -0.6510 N   0  0  0  0  0  0  0  0  0  0  0  0
    1.9170    0.7340   -1.2110 C   0  0  0  0  0  0  0  0  0  0  0  0
    1.1010   -0.3070   -0.4740 C   0  0  2  0  0  0  0  0  0  0  0  0
   -0.2720    0.0030   -0.6540 N   0  0  0  0  0  0  0  0  0  0  0  0
   -1.1980   -0.6630    0.2090 C   0  0  1  0  0  0  0  0  0  0  0  0
   -1.6620    0.2850    1.2960 C   0  0  0  0  0  0  0  0  0  0  0  0
   -2.7610    1.1770    0.7030 C   0  0  0  0  0  0  0  0  0  0  0  0
   -3.8270    0.2920    0.4120 O   0  0  0  0  0  0  0  0  0  0  0  0
   -3.5620   -0.7200   -0.4740 N   0  0  0  0  0  0  0  0  0  0  0  0
   -2.3700   -1.1520   -0.5650 C   0  0  0  0  0  0  0  0  0  0  0  0
   -2.0770   -2.1920   -1.4710 O   0  0  0  0  0  0  0  0  0  0  0  0
    1.5970   -0.4290    0.9080 C   0  0  0  0  0  0  0  0  0  0  0  0
    2.9600   -0.8920    0.8300 O   0  0  0  0  0  0  0  0  0  0  0  0
  1  2  2  0
  2  3  1  0
  2 15  1  0
  3  4  1  0
  4  5  1  0
  5  6  1  1
  5 14  1  0
  7  6  1  6
  7  8  1  0
  7 12  1  0
  8  9  1  0
  9 10  1  0
 10 11  1  0
 11 12  2  0
 12 13  1  0
 14 15  1  0
M  CHG  1   6   1
M  END
