
     RDKit          3D

 15 16  0  0  0  0  0  0  0  0999 V2000
   -3.2220    1.1870    0.1530 C   0  0  0  0  0  0  0  0  0  0  0  0
   -2.1540    0.1470   -0.0950 C   0  0  2  0  0  0  0  0  0  0  0  0
   -2.7330   -1.1460    0.1360 N   0  0  0  0  0  0  0  0  0  0  0  0
   -0.9150    0.4000    0.7100 C   0  0  0  0  0  0  0  0  0  0  0  0
    0.1560   -0.6340    0.4680 C   0  0  2  0  0  0  0  0  0  0  0  0
    1.3010   -0.3620    1.2420 O   0  0  0  0  0  0  0  0  0  0  0  0
    2.1260    0.4050    0.4600 C   0  0  1  0  0  0  0  0  0  0  0  0
    3.5510    0.3530    0.7820 C   0  0  0  0  0  0  0  0  0  0  0  0
    4.0520    0.5260    1.9120 O   0  0  0  0  0  0  0  0  0  0  0  0
    4.2450    0.0700   -0.4270 N   0  0  0  0  0  0  0  0  0  0  0  0
    3.3250   -0.3260   -1.4360 C   0  0  0  0  0  0  0  0  0  0  0  0
    3.5790   -0.6490   -2.6210 O   0  0  0  0  0  0  0  0  0  0  0  0
    2.0270   -0.2880   -0.8380 N   0  0  0  0  0  0  0  0  0  0  0  0
    0.6500   -0.6280   -0.9330 C   0  0  0  0  0  0  0  0  0  0  0  0
    0.0600   -0.8570   -2.0000 O   0  0  0  0  0  0  0  0  0  0  0  0
  2  1  1  1
  2  3  1  0
  2  4  1  0
  5  4  1  6
  5  6  1  0
  5 14  1  0
  7  6  1  1
  7  8  1  0
  7 13  1  0
  8  9  2  0
  8 10  1  0
 10 11  1  0
 11 12  2  0
 11 13  1  0
 13 14  1  0
 14 15  2  0
M  CHG  1   3   1
M  END
