
     RDKit          3D

 15 15  0  0  0  0  0  0  0  0999 V2000
    3.2790   -2.5710    0.2960 C   0  0  0  0  0  0  0  0  0  0  0  0
    2.0450   -1.8940    0.3610 O   0  0  0  0  0  0  0  0  0  0  0  0
    1.9160   -0.5450    0.6500 C   0  0  0  0  0  0  0  0  0  0  0  0
    2.9540    0.1370    0.8710 O   0  0  0  0  0  0  0  0  0  0  0  0
    0.5490    0.0870    0.6950 C   0  0  2  0  0  0  0  0  0  0  0  0
   -0.3940   -0.8650    0.4200 O   0  0  0  0  0  0  0  0  0  0  0  0
   -1.5230   -0.3560   -0.1750 C   0  0  2  0  0  0  0  0  0  0  0  0
   -2.5670   -1.4310   -0.3600 C   0  0  0  0  0  0  0  0  0  0  0  0
   -2.9440   -1.9980    0.9370 N   0  0  0  0  0  0  0  0  0  0  0  0
   -1.1180    0.0990   -1.5840 C   0  0  0  0  0  0  0  0  0  0  0  0
   -0.2290    1.2240   -1.3990 N   0  0  0  0  0  0  0  0  0  0  0  0
    0.4990    1.2740   -0.1690 C   0  0  0  0  0  0  0  0  0  0  0  0
    1.0970    2.3390    0.1690 N   0  0  0  0  0  0  0  0  0  0  0  0
    1.1560    3.5690   -0.5340 C   0  0  0  0  0  0  0  0  0  0  0  0
    0.9630    4.6340    0.3750 O   0  0  0  0  0  0  0  0  0  0  0  0
  1  2  1  0
  2  3  1  0
  3  4  2  0
  5  3  1  6
  5  6  1  0
  5 12  1  0
  6  7  1  0
  7  8  1  6
  7 10  1  0
  8  9  1  0
 10 11  1  0
 11 12  1  0
 12 13  2  3
 13 14  1  0
 14 15  1  0
M  CHG  1   9   1
M  END
