
     RDKit          3D

 15 16  0  0  0  0  0  0  0  0999 V2000
    4.1780    1.8520   -0.3420 O   0  0  0  0  0  0  0  0  0  0  0  0
    3.3900    0.8700   -0.2080 C   0  0  0  0  0  0  0  0  0  0  0  0
    3.1370    0.2680    1.0430 N   0  0  0  0  0  0  0  0  0  0  0  0
    2.2340   -0.8380    1.1590 C   0  0  0  0  0  0  0  0  0  0  0  0
    2.0330   -1.3380    2.2810 O   0  0  0  0  0  0  0  0  0  0  0  0
    1.5210   -1.3940   -0.0500 C   0  0  1  0  0  0  0  0  0  0  0  0
    0.0390   -1.5300    0.2290 C   0  0  0  0  0  0  0  0  0  0  0  0
   -0.2380   -0.1680    0.6380 N   0  0  2  0  0  0  0  0  0  0  0  0
   -1.5650    0.2530    0.6690 C   0  0  0  0  0  0  0  0  0  0  0  0
   -2.3760    0.0110   -0.5820 C   0  0  0  0  0  0  0  0  0  0  0  0
   -3.7400    0.5270   -0.2810 N   0  0  0  0  0  0  0  0  0  0  0  0
   -4.0080    1.5790   -1.1810 O   0  0  0  0  0  0  0  0  0  0  0  0
    0.5380    0.7020   -0.2760 C   0  0  0  0  0  0  0  0  0  0  0  0
    1.4430   -0.2520   -1.0540 C   0  0  1  0  0  0  0  0  0  0  0  0
    2.7180    0.3100   -1.2720 O   0  0  0  0  0  0  0  0  0  0  0  0
  1  2  2  0
  2  3  1  0
  2 15  1  0
  3  4  1  0
  4  5  2  0
  4  6  1  0
  6  7  1  1
  6 14  1  0
  7  8  1  0
  8  9  1  6
  8 13  1  0
  9 10  1  0
 10 11  1  0
 11 12  1  0
 14 13  1  1
 14 15  1  0
M  CHG  1   8   1
M  END
