
     RDKit          3D

 15 16  0  0  0  0  0  0  0  0999 V2000
    4.6280   -0.1500   -0.7700 C   0  0  0  0  0  0  0  0  0  0  0  0
    3.2380   -0.4320   -0.9030 O   0  0  0  0  0  0  0  0  0  0  0  0
    2.4100   -0.5810    0.1980 C   0  0  0  0  0  0  0  0  0  0  0  0
    2.8730   -0.1980    1.3380 N   0  0  0  0  0  0  0  0  0  0  0  0
    1.0490   -1.1480    0.1130 C   0  0  0  0  0  0  0  0  0  0  0  0
    0.1870   -0.3560   -0.7750 N   0  0  0  0  0  0  0  0  0  0  0  0
   -0.4510    0.6430    0.0200 C   0  0  0  0  0  0  0  0  0  0  0  0
   -1.9420    0.6590   -0.0830 C   0  0  1  0  0  0  0  0  0  0  0  0
   -2.5130    0.6030   -1.3880 N   0  0  0  0  0  0  0  0  0  0  0  0
   -3.8910    0.2310   -1.1950 C   0  0  0  0  0  0  0  0  0  0  0  0
   -4.8680    0.4450   -1.9600 O   0  0  0  0  0  0  0  0  0  0  0  0
   -3.9460   -0.4270    0.0270 O   0  0  0  0  0  0  0  0  0  0  0  0
   -2.6940   -0.3710    0.6840 C   0  0  2  0  0  0  0  0  0  0  0  0
   -2.6390    0.6920    1.7350 C   0  0  0  0  0  0  0  0  0  0  0  0
   -2.4970    1.6470    0.7100 O   0  0  0  0  0  0  0  0  0  0  0  0
  1  2  1  0
  2  3  1  0
  3  4  2  0
  3  5  1  0
  5  6  1  0
  6  7  1  0
  8  7  1  6
  8  9  1  0
  8 13  1  0
  8 15  1  0
  9 10  1  0
 10 11  2  0
 10 12  1  0
 12 13  1  0
 13 14  1  1
 14 15  1  0
M  CHG  1   6   1
M  END
