
     RDKit          3D

 23 24  0  0  0  0  0  0  0  0999 V2000
    6.1420    0.7080    0.7180 C   0  0  0  0  0  0  0  0  0  0  0  0
    4.9490    0.1570    0.6530 C   0  0  0  0  0  0  0  0  0  0  0  0
    3.8330    0.7630    0.3940 O   0  0  0  0  0  0  0  0  0  0  0  0
    2.8110   -0.0720    0.4030 C   0  0  0  0  0  0  0  0  0  0  0  0
    1.4140    0.2940    0.1480 C   0  0  0  0  0  0  0  0  0  0  0  0
    1.0920    1.5200   -0.1130 C   0  0  0  0  0  0  0  0  0  0  0  0
   -0.2790    2.0140   -0.3870 C   0  0  0  0  0  0  0  0  0  0  0  0
   -0.4540    3.2310   -0.6260 O   0  0  0  0  0  0  0  0  0  0  0  0
   -1.3840    1.1390   -0.3830 N   0  0  0  0  0  0  0  0  0  0  0  0
   -2.7700    1.5350   -0.6410 C   0  0  0  0  0  0  0  0  0  0  0  0
   -3.1900    2.7790   -0.9180 C   0  0  0  0  0  0  0  0  0  0  0  0
   -4.5510    2.9830   -1.1400 C   0  0  0  0  0  0  0  0  0  0  0  0
   -5.3890    4.5210   -1.5260 Cl  0  0  0  0  0  0  0  0  0  0  0  0
   -5.2400    1.3620   -0.9470 S   0  0  0  0  0  0  0  0  0  0  0  0
   -3.7230    0.5400   -0.5950 C   0  0  0  0  0  0  0  0  0  0  0  0
   -3.6630   -0.8820   -0.3360 C   0  0  0  0  0  0  0  0  0  0  0  0
   -2.6150   -1.4590   -0.0910 O   0  0  0  0  0  0  0  0  0  0  0  0
   -4.8500   -1.6730   -0.3570 N   0  0  0  0  0  0  0  0  0  0  0  0
   -4.8300   -3.1000   -0.1030 C   0  0  0  0  0  0  0  0  0  0  0  0
    3.2970   -1.2940    0.6850 N   0  0  0  0  0  0  0  0  0  0  0  0
    4.6230   -1.1830    0.8460 C   0  0  0  0  0  0  0  0  0  0  0  0
    5.5100   -2.1250    1.1330 C   0  0  0  0  0  0  0  0  0  0  0  0
    5.0230   -3.8280    1.3680 S   0  0  0  0  0  0  0  0  0  0  0  0
  1  2  2  0
  2  3  1  0
  2 21  1  0
  3  4  1  0
  4  5  1  0
  4 20  2  0
  5  6  2  3
  6  7  1  0
  7  8  2  0
  7  9  1  0
  9 10  1  0
 10 11  1  0
 10 15  2  0
 11 12  2  0
 12 13  1  0
 12 14  1  0
 14 15  1  0
 15 16  1  0
 16 17  2  0
 16 18  1  0
 18 19  1  0
 20 21  1  0
 21 22  2  3
 22 23  1  0
M  END
