
     RDKit          3D

 14 14  0  0  0  0  0  0  0  0999 V2000
    1.4070    0.9570   -1.9380 C   0  0  0  0  0  0  0  0  0  0  0  0
    2.2420    0.3090   -0.8930 C   0  0  0  0  0  0  0  0  0  0  0  0
    3.5120    0.6290   -0.8150 C   0  0  0  0  0  0  0  0  0  0  0  0
    4.3610    0.0790    0.1190 O   0  0  0  0  0  0  0  0  0  0  0  0
    3.9550   -0.8670    1.0700 C   0  0  0  0  0  0  0  0  0  0  0  0
    2.5280   -1.2070    0.9600 C   0  0  0  0  0  0  0  0  0  0  0  0
    1.7190   -0.6690    0.0530 C   0  0  0  0  0  0  0  0  0  0  0  0
    0.3400   -1.0370   -0.0090 N   0  0  0  0  0  0  0  0  0  0  0  0
   -0.6530   -0.0510    0.1670 C   0  0  0  0  0  0  0  0  0  0  0  0
   -0.3880    1.1670    0.3820 O   0  0  0  0  0  0  0  0  0  0  0  0
   -2.0420   -0.3820    0.1110 N   0  0  0  0  0  0  0  0  0  0  0  0
   -3.0850    0.5790    0.2830 C   0  0  0  0  0  0  0  0  0  0  0  0
   -4.4130   -0.1040    0.1650 C   0  0  0  0  0  0  0  0  0  0  0  0
   -5.4690    0.8110    0.3290 O   0  0  0  0  0  0  0  0  0  0  0  0
  1  2  1  0
  2  3  2  0
  2  7  1  0
  3  4  1  0
  4  5  1  0
  5  6  1  0
  6  7  2  0
  7  8  1  0
  8  9  1  0
  9 10  2  0
  9 11  1  0
 11 12  1  0
 12 13  1  0
 13 14  1  0
M  END
