
     RDKit          3D

 23 24  0  0  0  0  0  0  0  0999 V2000
   -3.5850   -2.0160   -0.1890 C   0  0  0  0  0  0  0  0  0  0  0  0
   -4.0880   -0.6410    0.1830 C   0  0  0  0  0  0  0  0  0  0  0  0
   -5.3740   -0.3960    0.3040 N   0  0  0  0  0  0  0  0  0  0  0  0
   -5.9140    0.6310    0.5890 C   0  0  0  0  0  0  0  0  0  0  0  0
   -7.2030    1.1790    0.7870 N   0  0  0  0  0  0  0  0  0  0  0  0
   -8.2980    0.3000    0.6140 C   0  0  0  0  0  0  0  0  0  0  0  0
   -8.1000   -0.9040    0.2990 O   0  0  0  0  0  0  0  0  0  0  0  0
   -4.4210    1.7540    0.8070 S   0  0  0  0  0  0  0  0  0  0  0  0
   -3.2560    0.3920    0.4080 C   0  0  0  0  0  0  0  0  0  0  0  0
   -1.8150    0.6090    0.3970 C   0  0  0  0  0  0  0  0  0  0  0  0
   -1.4560    1.7950    0.6820 O   0  0  0  0  0  0  0  0  0  0  0  0
   -0.8180   -0.3030    0.1210 N   0  0  0  0  0  0  0  0  0  0  0  0
    0.5840   -0.1500    0.0960 C   0  0  0  0  0  0  0  0  0  0  0  0
    1.1940    1.0360    0.3690 C   0  0  0  0  0  0  0  0  0  0  0  0
    2.6010    1.1700    0.3390 C   0  0  0  0  0  0  0  0  0  0  0  0
    3.3310    0.0960    0.0350 C   0  0  0  0  0  0  0  0  0  0  0  0
    5.1810    0.2470    0.0570 S   0  0  0  0  0  0  0  0  0  0  0  0
    5.9910   -1.0480   -0.5490 C   0  0  0  0  0  0  0  0  0  0  0  0
    5.7330    1.8020    0.1270 C   0  0  0  0  0  0  0  0  0  0  0  0
    4.7210    0.6140   -1.6300 O   0  0  0  0  0  0  0  0  0  0  0  0
    2.7870   -1.1040   -0.2450 C   0  0  0  0  0  0  0  0  0  0  0  0
    1.4110   -1.2270   -0.2140 C   0  0  0  0  0  0  0  0  0  0  0  0
    0.6660   -2.7740   -0.5720 Cl  0  0  0  0  0  0  0  0  0  0  0  0
  1  2  1  0
  2  3  1  0
  2  9  2  0
  3  4  2  0
  4  5  1  0
  4  8  1  0
  5  6  1  0
  6  7  2  0
  8  9  1  0
  9 10  1  0
 10 11  2  0
 10 12  1  0
 12 13  1  0
 13 14  2  0
 13 22  1  0
 14 15  1  0
 15 16  2  0
 16 17  1  0
 16 21  1  0
 17 18  1  0
 17 19  1  0
 17 20  2  0
 21 22  2  0
 22 23  1  0
M  END
