
     RDKit          3D

 23 24  0  0  0  0  0  0  0  0999 V2000
    6.2740   -1.4420    1.4570 C   0  0  0  0  0  0  0  0  0  0  0  0
    5.0200   -0.7400    1.0510 C   0  0  0  0  0  0  0  0  0  0  0  0
    3.7750   -1.1470    1.1660 C   0  0  0  0  0  0  0  0  0  0  0  0
    2.7670   -0.2720    0.6940 C   0  0  0  0  0  0  0  0  0  0  0  0
    3.1580    0.8720    0.1810 C   0  0  0  0  0  0  0  0  0  0  0  0
    2.3440    1.9810   -0.3890 C   0  0  0  0  0  0  0  0  0  0  0  0
    0.9190    1.6330   -0.3400 N   0  0  0  0  0  0  0  0  0  0  0  0
    0.4130    0.6220   -1.1610 C   0  0  0  0  0  0  0  0  0  0  0  0
    1.4820   -0.1300   -2.1890 S   0  0  0  0  0  0  0  0  0  0  0  0
   -0.9170    0.1740   -1.2210 N   0  0  0  0  0  0  0  0  0  0  0  0
   -1.9820    0.6920   -0.4350 C   0  0  0  0  0  0  0  0  0  0  0  0
   -1.8620    1.6720    0.4570 N   0  0  0  0  0  0  0  0  0  0  0  0
   -2.8290    2.1880    1.2150 C   0  0  0  0  0  0  0  0  0  0  0  0
   -4.1020    1.6820    1.0900 C   0  0  0  0  0  0  0  0  0  0  0  0
   -4.3000    0.6520    0.1720 C   0  0  0  0  0  0  0  0  0  0  0  0
   -3.2750    0.1520   -0.5860 C   0  0  0  0  0  0  0  0  0  0  0  0
   -3.4530   -0.8350   -1.4720 O   0  0  0  0  0  0  0  0  0  0  0  0
   -4.5030   -1.6000   -1.8900 C   0  0  0  0  0  0  0  0  0  0  0  0
   -5.1740   -2.4760   -0.8880 C   0  0  0  0  0  0  0  0  0  0  0  0
   -6.5170   -3.3770   -1.6800 Cl  0  0  0  0  0  0  0  0  0  0  0  0
    4.9050    0.8390    0.3010 S   0  0  2  0  0  0  0  0  0  0  0  0
    5.5160    0.8460   -1.0680 O   0  0  0  0  0  0  0  0  0  0  0  0
    5.4420    1.9150    1.1820 O   0  0  0  0  0  0  0  0  0  0  0  0
  1  2  1  0
  2  3  2  0
 21  2  1  1
  3  4  1  0
  4  5  2  0
  5  6  1  0
  5 21  1  0
  6  7  1  0
  7  8  1  0
  8  9  2  0
  8 10  1  0
 10 11  1  0
 11 12  2  0
 11 16  1  0
 12 13  1  0
 13 14  2  0
 14 15  1  0
 15 16  2  0
 16 17  1  0
 17 18  1  0
 18 19  1  0
 19 20  1  0
 21 22  2  0
 21 23  2  0
M  END
