
     RDKit          3D

 23 24  0  0  0  0  0  0  0  0999 V2000
   -1.7200    4.1500    0.9800 C   0  0  0  0  0  0  0  0  0  0  0  0
   -2.3610    3.1180    0.4810 C   0  0  0  0  0  0  0  0  0  0  0  0
   -3.7630    3.0450    0.6360 N   0  0  0  0  0  0  0  0  0  0  0  0
   -1.6230    2.1160   -0.1920 N   0  0  0  0  0  0  0  0  0  0  0  0
   -1.7410    0.7330    0.1150 C   0  0  0  0  0  0  0  0  0  0  0  0
   -2.5880    0.2610    1.0960 C   0  0  0  0  0  0  0  0  0  0  0  0
   -2.6640   -1.0950    1.3540 C   0  0  0  0  0  0  0  0  0  0  0  0
   -3.7360   -1.7120    2.6010 Cl  0  0  0  0  0  0  0  0  0  0  0  0
   -1.9130   -2.0140    0.6560 C   0  0  0  0  0  0  0  0  0  0  0  0
   -1.9990   -3.4850    0.9400 C   0  0  0  0  0  0  0  0  0  0  0  0
   -1.0640   -1.5440   -0.3280 C   0  0  0  0  0  0  0  0  0  0  0  0
   -0.9810   -0.1750   -0.5950 C   0  0  0  0  0  0  0  0  0  0  0  0
   -0.1400    0.3150   -1.5750 O   0  0  0  0  0  0  0  0  0  0  0  0
    0.6880   -0.4740   -2.3570 C   0  0  0  0  0  0  0  0  0  0  0  0
    1.7180   -1.2390   -1.6510 C   0  0  0  0  0  0  0  0  0  0  0  0
    2.4460   -1.9990   -2.3660 O   0  0  0  0  0  0  0  0  0  0  0  0
    1.9750   -1.2060   -0.2550 N   0  0  0  0  0  0  0  0  0  0  0  0
    3.1100   -0.9280    0.2370 C   0  0  0  0  0  0  0  0  0  0  0  0
    4.6020   -0.5260   -0.6390 S   0  0  0  0  0  0  0  0  0  0  0  0
    5.8390   -0.3560    0.6970 C   0  0  0  0  0  0  0  0  0  0  0  0
    5.0790    0.0430    1.9140 C   0  0  0  0  0  0  0  0  0  0  0  0
    5.4270    0.8490    2.7610 O   0  0  0  0  0  0  0  0  0  0  0  0
    3.5170   -0.8650    1.9630 S   0  0  0  0  0  0  0  0  0  0  0  0
  1  2  2  0
  2  3  1  0
  2  4  1  0
  4  5  1  0
  5  6  2  0
  5 12  1  0
  6  7  1  0
  7  8  1  0
  7  9  2  0
  9 10  1  0
  9 11  1  0
 11 12  2  0
 12 13  1  0
 13 14  1  0
 14 15  1  0
 15 16  2  0
 15 17  1  0
 17 18  2  3
 18 19  1  0
 18 23  1  0
 19 20  1  0
 20 21  1  0
 21 22  2  0
 21 23  1  0
M  END
