
     RDKit          3D

  7  7  0  0  0  0  0  0  0  0999 V2000
    0.4960    1.0170   -1.4740 O   0  0  0  0  0  0  0  0  0  0  0  0
   -0.3150    1.0560   -0.3580 C   0  0  1  0  0  0  0  0  0  0  0  0
   -1.1590   -0.1870   -0.3380 C   0  0  0  0  0  0  0  0  0  0  0  0
   -0.5230   -1.3690    0.2690 C   0  0  0  0  0  0  0  0  0  0  0  0
    0.7670   -1.2690    0.6610 O   0  0  0  0  0  0  0  0  0  0  0  0
    1.3420   -0.0420    0.6390 C   0  0  0  0  0  0  0  0  0  0  0  0
    0.4660    1.0230    0.8220 O   0  0  0  0  0  0  0  0  0  0  0  0
  2  1  1  6
  2  3  1  0
  2  7  1  0
  3  4  1  0
  4  5  1  0
  5  6  1  0
  6  7  1  0
M  END
