
     RDKit          3D

 11 12  0  0  0  0  0  0  0  0999 V2000
   -3.5650    0.1020   -0.2780 N   0  0  0  0  0  0  0  0  0  0  0  0
   -2.7520   -0.2740    0.8620 C   0  0  0  0  0  0  0  0  0  0  0  0
   -1.3150   -0.1680    0.5420 C   0  0  0  0  0  0  0  0  0  0  0  0
   -0.2770   -0.3270    1.0240 N   0  0  0  0  0  0  0  0  0  0  0  0
    0.9270   -0.1730    0.5600 C   0  0  0  0  0  0  0  0  0  0  0  0
    2.1680   -0.3770    1.1800 C   0  0  0  0  0  0  0  0  0  0  0  0
    3.3430   -0.1570    0.5130 C   0  0  0  0  0  0  0  0  0  0  0  0
    3.3810    0.2750   -0.7950 C   0  0  0  0  0  0  0  0  0  0  0  0
    2.1540    0.4880   -1.4420 C   0  0  0  0  0  0  0  0  0  0  0  0
    1.0420    0.2610   -0.7530 C   0  0  0  0  0  0  0  0  0  0  0  0
   -0.7560    0.3990   -1.1750 S   0  0  0  0  0  0  0  0  0  0  0  0
  1  2  1  0
  2  3  1  0
  3  4  2  0
  3 11  1  0
  4  5  1  0
  5  6  2  0
  5 10  1  0
  6  7  1  0
  7  8  2  0
  8  9  1  0
  9 10  2  0
 10 11  1  0
M  CHG  1   1   1
M  END
