
     RDKit          3D

 20 20  0  0  0  0  0  0  0  0999 V2000
   -4.7540    1.9560    0.6460 C   0  0  0  0  0  0  0  0  0  0  0  0
   -3.4520    1.5660    0.2610 O   0  0  0  0  0  0  0  0  0  0  0  0
   -3.1170    0.2330   -0.0290 C   0  0  0  0  0  0  0  0  0  0  0  0
   -4.0990   -0.5650    0.0910 O   0  0  0  0  0  0  0  0  0  0  0  0
   -1.7830   -0.1940   -0.4280 C   0  0  0  0  0  0  0  0  0  0  0  0
   -0.7630    0.6470   -0.5410 C   0  0  0  0  0  0  0  0  0  0  0  0
   -0.9640    2.0710   -0.2620 C   0  0  0  0  0  0  0  0  0  0  0  0
    0.5200    0.1880   -0.9160 N   0  0  0  0  0  0  0  0  0  0  0  0
    1.7230    0.2120   -0.1400 C   0  0  1  0  0  0  0  0  0  0  0  0
    2.2250    1.5870    0.2220 C   0  0  0  0  0  0  0  0  0  0  0  0
    3.6140    1.5800    0.7880 C   0  0  0  0  0  0  0  0  0  0  0  0
    4.5080    0.5110    0.2120 C   0  0  0  0  0  0  0  0  0  0  0  0
    3.9740   -0.8580    0.4760 C   0  0  0  0  0  0  0  0  0  0  0  0
    4.3690   -1.7710   -0.2160 O   0  0  0  0  0  0  0  0  0  0  0  0
    2.9840   -1.1650    1.5450 C   0  0  0  0  0  0  0  0  0  0  0  0
    1.6470   -0.6830    1.1020 C   0  0  0  0  0  0  0  0  0  0  0  0
   -1.5980   -1.6390   -0.7450 C   0  0  1  0  0  0  0  0  0  0  0  0
   -1.9380   -2.4780    0.3840 N   0  0  0  0  0  0  0  0  0  0  0  0
   -2.3380   -2.1270   -1.9430 C   0  0  0  0  0  0  0  0  0  0  0  0
   -3.7020   -2.1330   -1.8360 O   0  0  0  0  0  0  0  0  0  0  0  0
  1  2  1  0
  2  3  1  0
  3  4  2  0
  3  5  1  0
  5  6  2  3
  5 17  1  0
  6  7  1  0
  6  8  1  0
  9  8  1  1
  9 10  1  0
  9 16  1  0
 10 11  1  0
 11 12  1  0
 12 13  1  0
 13 14  2  0
 13 15  1  0
 15 16  1  0
 17 18  1  1
 17 19  1  0
 19 20  1  0
M  END
