
     RDKit          3D

  7  7  0  0  0  0  0  0  0  0999 V2000
    2.5130   -1.2650    0.1330 O   0  0  0  0  0  0  0  0  0  0  0  0
    1.3740   -0.7100   -0.0180 C   0  0  0  0  0  0  0  0  0  0  0  0
    1.0540    0.6790    0.2250 C   0  0  0  0  0  0  0  0  0  0  0  0
   -0.2220    0.8910   -0.0400 C   0  0  0  0  0  0  0  0  0  0  0  0
   -0.8320   -0.3670   -0.4800 C   0  0  2  0  0  0  0  0  0  0  0  0
   -1.8200   -0.8200    0.3880 O   0  0  0  0  0  0  0  0  0  0  0  0
    0.2140   -1.3010   -0.4400 O   0  0  0  0  0  0  0  0  0  0  0  0
  1  2  2  0
  2  3  1  0
  2  7  1  0
  3  4  2  0
  4  5  1  0
  5  6  1  1
  5  7  1  0
M  END
