
     RDKit          3D

 37 39  0  0  0  0  0  0  0  0999 V2000
   -1.4010   -1.6560   -4.1970 C   0  0  0  0  0  0  0  0  0  0  0  0
   -1.1500   -1.6340   -2.7040 C   0  0  0  0  0  0  0  0  0  0  0  0
   -0.9170   -0.1230   -2.3710 C   0  0  2  0  0  0  0  0  0  0  0  0
    0.2560    0.2970   -3.1760 C   0  0  0  0  0  0  0  0  0  0  0  0
   -0.5820   -0.0440   -0.8980 N   0  0  0  0  0  0  0  0  0  0  0  0
    0.7130   -0.4920   -0.6100 C   0  0  0  0  0  0  0  0  0  0  0  0
    1.3130   -1.1680   -1.4640 O   0  0  0  0  0  0  0  0  0  0  0  0
    1.4740   -0.2360    0.6280 C   0  0  0  0  0  0  0  0  0  0  0  0
    0.8570    0.5520    1.4900 C   0  0  0  0  0  0  0  0  0  0  0  0
    1.3730    0.9480    2.7460 N   0  0  0  0  0  0  0  0  0  0  0  0
    1.7680    2.3540    2.8700 C   0  0  0  0  0  0  0  0  0  0  0  0
    2.6220    2.7490    4.0030 C   0  0  0  0  0  0  0  0  0  0  0  0
    1.3540    3.2180    1.9760 C   0  0  0  0  0  0  0  0  0  0  0  0
    1.6990    4.6170    2.0310 C   0  0  0  0  0  0  0  0  0  0  0  0
    2.4060    5.1440    2.9150 O   0  0  0  0  0  0  0  0  0  0  0  0
    2.7350   -0.7730    1.0160 C   0  0  0  0  0  0  0  0  0  0  0  0
    3.0730   -0.4550    2.2570 O   0  0  0  0  0  0  0  0  0  0  0  0
    3.7230   -1.5610    0.4080 N   0  0  0  0  0  0  0  0  0  0  0  0
    4.8870   -2.1170    1.1660 C   0  0  0  0  0  0  0  0  0  0  0  0
    5.9450   -2.4780    0.2080 C   0  0  0  0  0  0  0  0  0  0  0  0
    5.3660   -2.3310   -1.1510 C   0  0  0  0  0  0  0  0  0  0  0  0
    3.9050   -1.9320   -0.9560 C   0  0  0  0  0  0  0  0  0  0  0  0
   -1.7110    0.0000   -0.0630 C   0  0  0  0  0  0  0  0  0  0  0  0
   -2.5950    0.9600   -0.1230 C   0  0  0  0  0  0  0  0  0  0  0  0
   -2.6140    2.1510   -0.9430 C   0  0  0  0  0  0  0  0  0  0  0  0
   -3.7050    2.9130   -1.0000 C   0  0  0  0  0  0  0  0  0  0  0  0
   -3.9020    4.0790   -1.7270 N   0  0  0  0  0  0  0  0  0  0  0  0
   -2.4410    4.9970   -2.1720 S   0  0  0  0  0  0  0  0  0  0  0  0
   -1.1430    3.8360   -1.9880 N   0  0  0  0  0  0  0  0  0  0  0  0
   -1.3500    2.6680   -1.4500 C   0  0  0  0  0  0  0  0  0  0  0  0
   -3.7170    0.7790    0.8420 C   0  0  0  0  0  0  0  0  0  0  0  0
   -4.1450    1.7330    1.5180 O   0  0  0  0  0  0  0  0  0  0  0  0
   -4.3460   -0.5540    1.0170 C   0  0  0  0  0  0  0  0  0  0  0  0
   -3.2900   -1.6280    1.0810 C   0  0  1  0  0  0  0  0  0  0  0  0
   -3.3850   -2.2620    2.4770 C   0  0  0  0  0  0  0  0  0  0  0  0
   -3.6070   -2.6860    0.0560 C   0  0  0  0  0  0  0  0  0  0  0  0
   -1.9160   -1.1330    0.9290 C   0  0  0  0  0  0  0  0  0  0  0  0
  1  2  1  0
  2  3  1  0
  3  4  1  6
  3  5  1  0
  5  6  1  0
  5 23  1  0
  6  7  2  0
  6  8  1  0
  8  9  2  3
  8 16  1  0
  9 10  1  0
 10 11  1  0
 11 12  1  0
 11 13  2  3
 13 14  1  0
 14 15  2  0
 16 17  2  0
 16 18  1  0
 18 19  1  0
 18 22  1  0
 19 20  1  0
 20 21  1  0
 21 22  1  0
 23 24  2  0
 23 37  1  0
 24 25  1  0
 24 31  1  0
 25 26  2  0
 25 30  1  0
 26 27  1  0
 27 28  1  0
 28 29  1  0
 29 30  2  0
 31 32  2  0
 31 33  1  0
 33 34  1  0
 34 35  1  1
 34 36  1  0
 34 37  1  0
M  END
