
     RDKit          3D

 37 40  0  0  0  0  0  0  0  0999 V2000
   -1.2560   -3.2990    3.5500 C   0  0  0  0  0  0  0  0  0  0  0  0
   -1.7450   -2.5620    2.2860 C   0  0  0  0  0  0  0  0  0  0  0  0
   -1.5880   -1.2520    2.2000 C   0  0  0  0  0  0  0  0  0  0  0  0
   -1.8780   -0.2120    1.2530 C   0  0  0  0  0  0  0  0  0  0  0  0
   -1.0870    0.3500    0.2980 C   0  0  0  0  0  0  0  0  0  0  0  0
   -1.6730    1.3870   -0.5130 C   0  0  0  0  0  0  0  0  0  0  0  0
   -1.0790    1.9830   -1.5230 C   0  0  0  0  0  0  0  0  0  0  0  0
    0.2900    1.6800   -2.0020 C   0  0  0  0  0  0  0  0  0  0  0  0
   -1.7260    3.0720   -2.3110 C   0  0  0  0  0  0  0  0  0  0  0  0
   -1.1410    3.6250   -3.2670 O   0  0  0  0  0  0  0  0  0  0  0  0
   -3.0370    3.5150   -1.9930 N   0  0  0  0  0  0  0  0  0  0  0  0
   -3.6650    4.5500   -2.7610 C   0  0  0  0  0  0  0  0  0  0  0  0
   -4.6660    5.2820   -1.9410 C   0  0  0  0  0  0  0  0  0  0  0  0
   -5.6400    4.3440   -1.2470 C   0  0  0  0  0  0  0  0  0  0  0  0
   -4.8920    3.2560   -0.5550 C   0  0  0  0  0  0  0  0  0  0  0  0
   -3.6890    2.8890   -0.9160 C   0  0  0  0  0  0  0  0  0  0  0  0
   -3.0130    1.8580   -0.2090 N   0  0  0  0  0  0  0  0  0  0  0  0
    0.3250    0.0310    0.2110 C   0  0  0  0  0  0  0  0  0  0  0  0
    1.1910    0.9750    0.4640 O   0  0  0  0  0  0  0  0  0  0  0  0
    0.9990   -1.1700   -0.1010 N   0  0  0  0  0  0  0  0  0  0  0  0
    2.4030   -1.3080    0.3150 C   0  0  0  0  0  0  0  0  0  0  0  0
    2.6270   -1.2150    1.6040 C   0  0  0  0  0  0  0  0  0  0  0  0
    4.3130   -1.3730    2.1730 S   0  0  0  0  0  0  0  0  0  0  0  0
    5.3990   -0.9810    0.7730 C   0  0  2  0  0  0  0  0  0  0  0  0
    6.8510   -1.0670    1.1430 C   0  0  0  0  0  0  0  0  0  0  0  0
    7.3190    0.3710    1.3180 C   0  0  0  0  0  0  0  0  0  0  0  0
    6.0490    1.1970    1.3880 C   0  0  0  0  0  0  0  0  0  0  0  0
    5.1590    0.4660    0.4060 C   0  0  1  0  0  0  0  0  0  0  0  0
    5.5180    0.7060   -0.9120 O   0  0  0  0  0  0  0  0  0  0  0  0
    0.5820   -2.3390   -0.7510 C   0  0  0  0  0  0  0  0  0  0  0  0
   -0.4180   -2.0000   -1.8280 C   0  0  0  0  0  0  0  0  0  0  0  0
   -1.4080   -3.0910   -1.9940 C   0  0  0  0  0  0  0  0  0  0  0  0
   -2.0100   -3.0620   -3.1390 O   0  0  0  0  0  0  0  0  0  0  0  0
   -1.6950   -4.0800   -1.0270 N   0  0  0  0  0  0  0  0  0  0  0  0
   -2.0930   -3.8130    0.1840 N   0  0  0  0  0  0  0  0  0  0  0  0
   -2.3990   -3.5050    1.3330 C   0  0  0  0  0  0  0  0  0  0  0  0
   -3.6380   -4.1920    1.9580 C   0  0  0  0  0  0  0  0  0  0  0  0
  1  2  1  0
  2  3  2  0
  2 36  1  0
  3  4  1  0
  4  5  2  0
  5  6  1  0
  5 18  1  0
  6  7  2  0
  6 17  1  0
  7  8  1  0
  7  9  1  0
  9 10  2  0
  9 11  1  0
 11 12  1  0
 11 16  1  0
 12 13  1  0
 13 14  1  0
 14 15  1  0
 15 16  2  0
 16 17  1  0
 18 19  2  0
 18 20  1  0
 20 21  1  0
 20 30  1  0
 21 22  2  3
 22 23  1  0
 24 23  1  1
 24 25  1  0
 24 28  1  0
 25 26  1  0
 26 27  1  0
 27 28  1  0
 28 29  1  6
 30 31  1  0
 31 32  1  0
 32 33  2  0
 32 34  1  0
 34 35  1  0
 35 36  2  0
 36 37  1  0
M  END
