
     RDKit          3D

 37 40  0  0  0  0  0  0  0  0999 V2000
   -0.4500    1.8730    3.0720 C   0  0  0  0  0  0  0  0  0  0  0  0
   -0.8580    0.5620    2.3680 C   0  0  0  0  0  0  0  0  0  0  0  0
    0.1030   -0.3770    2.3090 C   0  0  0  0  0  0  0  0  0  0  0  0
    1.2700   -0.5360    3.1880 C   0  0  0  0  0  0  0  0  0  0  0  0
    1.2870    0.0240    4.3460 O   0  0  0  0  0  0  0  0  0  0  0  0
    2.4190   -1.2740    2.8880 N   0  0  0  0  0  0  0  0  0  0  0  0
    3.4010   -1.6240    3.8620 C   0  0  0  0  0  0  0  0  0  0  0  0
    2.7860   -1.4210    1.4540 C   0  0  0  0  0  0  0  0  0  0  0  0
    3.8540   -0.3610    1.2430 C   0  0  0  0  0  0  0  0  0  0  0  0
    4.2500    0.2700    2.2530 O   0  0  0  0  0  0  0  0  0  0  0  0
    4.3940   -0.0660   -0.0150 N   0  0  0  0  0  0  0  0  0  0  0  0
    5.4570    0.9280   -0.0700 C   0  0  2  0  0  0  0  0  0  0  0  0
    5.4920    1.7320    1.0770 C   0  0  0  0  0  0  0  0  0  0  0  0
    5.5120    2.4130    2.0760 N   0  0  0  0  0  0  0  0  0  0  0  0
    5.6030    1.6220   -1.3850 C   0  0  1  0  0  0  0  0  0  0  0  0
    6.6560    2.6590   -1.2300 C   0  0  0  0  0  0  0  0  0  0  0  0
    7.1740    3.1200   -2.5380 C   0  0  0  0  0  0  0  0  0  0  0  0
    7.4930    2.2070   -3.4470 C   0  0  0  0  0  0  0  0  0  0  0  0
    7.2900    0.7910   -3.0510 C   0  0  0  0  0  0  0  0  0  0  0  0
    5.9600    0.5560   -2.4250 C   0  0  0  0  0  0  0  0  0  0  0  0
   -0.3510   -1.7530    1.3010 S   0  0  0  0  0  0  0  0  0  0  0  0
   -1.9070   -1.5650    0.6600 C   0  0  0  0  0  0  0  0  0  0  0  0
   -2.4440   -2.4520   -0.0930 O   0  0  0  0  0  0  0  0  0  0  0  0
   -2.6350   -0.4080    0.9640 C   0  0  0  0  0  0  0  0  0  0  0  0
   -3.9120   -0.2980    0.4670 C   0  0  0  0  0  0  0  0  0  0  0  0
   -4.4560   -1.1430   -0.5700 N   0  0  0  0  0  0  0  0  0  0  0  0
   -5.8510   -1.4730   -0.5610 C   0  0  0  0  0  0  0  0  0  0  0  0
   -6.4960   -1.0540    0.4620 O   0  0  0  0  0  0  0  0  0  0  0  0
   -6.4980   -2.2180   -1.6520 C   0  0  1  0  0  0  0  0  0  0  0  0
   -7.7210   -2.9930   -1.5750 C   0  0  0  0  0  0  0  0  0  0  0  0
   -7.8320   -1.5750   -2.0390 C   0  0  2  0  0  0  0  0  0  0  0  0
   -7.8940   -1.2070   -3.5070 C   0  0  0  0  0  0  0  0  0  0  0  0
   -8.6260   -0.6960   -1.1460 C   0  0  0  0  0  0  0  0  0  0  0  0
   -4.6880    0.8220    0.7950 C   0  0  0  0  0  0  0  0  0  0  0  0
   -4.1460    1.7800    1.5980 N   0  0  0  0  0  0  0  0  0  0  0  0
   -2.9350    1.6550    2.0460 C   0  0  0  0  0  0  0  0  0  0  0  0
   -2.0850    0.5970    1.7960 C   0  0  0  0  0  0  0  0  0  0  0  0
  1  2  1  0
  2  3  2  0
  2 37  1  0
  3  4  1  0
  3 21  1  0
  4  5  2  0
  4  6  1  0
  6  7  1  0
  6  8  1  0
  8  9  1  0
  9 10  2  0
  9 11  1  0
 11 12  1  0
 12 13  1  1
 12 15  1  0
 13 14  3  0
 15 16  1  1
 15 20  1  0
 16 17  1  0
 17 18  2  0
 18 19  1  0
 19 20  1  0
 21 22  1  0
 22 23  2  0
 22 24  1  0
 24 25  2  0
 24 37  1  0
 25 26  1  0
 25 34  1  0
 26 27  1  0
 27 28  2  0
 29 27  1  1
 29 30  1  0
 29 31  1  0
 30 31  1  0
 31 32  1  6
 31 33  1  0
 34 35  2  0
 35 36  1  0
 36 37  2  0
M  END
