
     RDKit          3D

 37 40  0  0  0  0  0  0  0  0999 V2000
   -4.8790    1.0060   -1.8010 C   0  0  0  0  0  0  0  0  0  0  0  0
   -4.1900    1.4030   -0.4720 C   0  0  1  0  0  0  0  0  0  0  0  0
   -4.6260    0.4090    0.5080 C   0  0  0  0  0  0  0  0  0  0  0  0
   -4.2990   -0.9630    0.3390 C   0  0  0  0  0  0  0  0  0  0  0  0
   -4.0650   -1.9790    0.2000 C   0  0  0  0  0  0  0  0  0  0  0  0
   -3.7550   -3.4000   -0.0040 C   0  0  0  0  0  0  0  0  0  0  0  0
   -2.5270   -3.7920    0.6140 N   0  0  0  0  0  0  0  0  0  0  0  0
   -2.6160   -4.8230    1.6950 C   0  0  0  0  0  0  0  0  0  0  0  0
   -1.2060   -3.3440    0.3080 C   0  0  0  0  0  0  0  0  0  0  0  0
   -0.3740   -4.3300    0.1880 O   0  0  0  0  0  0  0  0  0  0  0  0
   -0.7470   -2.0380    0.1330 N   0  0  0  0  0  0  0  0  0  0  0  0
   -0.6660   -0.9620    1.1140 C   0  0  1  0  0  0  0  0  0  0  0  0
   -1.6090   -1.1510    2.2950 C   0  0  0  0  0  0  0  0  0  0  0  0
    0.6890   -1.0330    1.7740 C   0  0  0  0  0  0  0  0  0  0  0  0
    1.9430   -0.7720    1.1500 C   0  0  0  0  0  0  0  0  0  0  0  0
    2.4920   -1.4700   -0.0580 C   0  0  0  0  0  0  0  0  0  0  0  0
    3.6830   -1.0080   -0.3910 O   0  0  0  0  0  0  0  0  0  0  0  0
    4.8450   -0.5650   -0.7280 C   0  0  0  0  0  0  0  0  0  0  0  0
    5.5400   -0.7620   -1.8590 C   0  0  0  0  0  0  0  0  0  0  0  0
    6.7950   -0.2080   -2.0870 C   0  0  0  0  0  0  0  0  0  0  0  0
    7.3070    0.5820   -1.0490 C   0  0  0  0  0  0  0  0  0  0  0  0
    8.5880    1.1150   -1.3610 O   0  0  0  0  0  0  0  0  0  0  0  0
    6.6790    0.8320    0.1140 C   0  0  0  0  0  0  0  0  0  0  0  0
    7.1460    1.5880    1.1590 C   0  0  0  0  0  0  0  0  0  0  0  0
    6.4450    1.7580    2.2790 C   0  0  0  0  0  0  0  0  0  0  0  0
    4.9250    0.7600    1.8730 S   0  0  0  0  0  0  0  0  0  0  0  0
    5.4300    0.2660    0.3050 C   0  0  0  0  0  0  0  0  0  0  0  0
   -0.8830    0.3170    0.4200 C   0  0  0  0  0  0  0  0  0  0  0  0
    0.3300    0.5440   -0.2150 O   0  0  0  0  0  0  0  0  0  0  0  0
   -1.7510    1.3330    0.1710 N   0  0  0  0  0  0  0  0  0  0  0  0
   -2.7780    1.6000   -0.7830 C   0  0  2  0  0  0  0  0  0  0  0  0
   -2.6490    3.0140   -1.3240 C   0  0  0  0  0  0  0  0  0  0  0  0
   -2.5370    4.0240   -0.3850 C   0  0  0  0  0  0  0  0  0  0  0  0
   -2.4090    5.3050   -0.7830 N   0  0  0  0  0  0  0  0  0  0  0  0
   -2.3870    5.6220   -2.0660 C   0  0  0  0  0  0  0  0  0  0  0  0
   -2.5000    4.6400   -3.0850 C   0  0  0  0  0  0  0  0  0  0  0  0
   -2.6250    3.3860   -2.5530 N   0  0  0  0  0  0  0  0  0  0  0  0
  2  1  1  6
  2  3  1  0
  2 31  1  0
  3  4  1  0
  4  5  3  0
  5  6  1  0
  6  7  1  0
  7  8  1  0
  7  9  1  0
  9 10  2  0
  9 11  1  0
 11 12  1  0
 12 13  1  1
 12 14  1  0
 12 28  1  0
 14 15  1  0
 15 16  1  0
 16 17  1  0
 17 18  1  0
 18 19  2  0
 18 27  1  0
 19 20  1  0
 20 21  2  0
 21 22  1  0
 21 23  1  0
 23 24  1  0
 23 27  2  0
 24 25  2  0
 25 26  1  0
 26 27  1  0
 28 29  2  0
 28 30  1  0
 30 31  1  0
 31 32  1  1
 32 33  2  0
 32 37  1  0
 33 34  1  0
 34 35  2  0
 35 36  1  0
 36 37  2  0
M  END
