
     RDKit          3D

 37 40  0  0  0  0  0  0  0  0999 V2000
   -1.4780   -3.1470   -2.4900 C   0  0  0  0  0  0  0  0  0  0  0  0
   -2.0820   -2.7290   -1.1700 C   0  0  0  0  0  0  0  0  0  0  0  0
   -2.5220   -1.3520   -1.1730 N   0  0  0  0  0  0  0  0  0  0  0  0
   -3.7490   -0.9160   -1.5250 C   0  0  0  0  0  0  0  0  0  0  0  0
   -3.7720    0.4610   -1.3930 C   0  0  0  0  0  0  0  0  0  0  0  0
   -4.8670    1.3710   -1.6550 C   0  0  0  0  0  0  0  0  0  0  0  0
   -4.9640    1.8390   -2.8080 O   0  0  0  0  0  0  0  0  0  0  0  0
   -5.7730    1.6910   -0.6070 N   0  0  0  0  0  0  0  0  0  0  0  0
   -6.8440    2.6010   -0.9210 C   0  0  0  0  0  0  0  0  0  0  0  0
   -7.8370    2.8410    0.1450 C   0  0  0  0  0  0  0  0  0  0  0  0
   -7.7730    1.9720    1.3400 C   0  0  0  0  0  0  0  0  0  0  0  0
   -7.0020    0.6990    1.1650 C   0  0  2  0  0  0  0  0  0  0  0  0
   -7.5720   -0.2350    0.1520 C   0  0  0  0  0  0  0  0  0  0  0  0
   -6.8910    0.0530    2.5480 C   0  0  0  0  0  0  0  0  0  0  0  0
   -6.1810   -1.1280    2.4140 O   0  0  0  0  0  0  0  0  0  0  0  0
   -5.5960    1.1080    0.7110 C   0  0  0  0  0  0  0  0  0  0  0  0
   -2.4890    0.7950   -0.9450 C   0  0  0  0  0  0  0  0  0  0  0  0
   -2.1170    1.9760   -0.7060 O   0  0  0  0  0  0  0  0  0  0  0  0
   -1.7730   -0.3280   -0.8270 N   0  0  0  0  0  0  0  0  0  0  0  0
   -0.4250   -0.4180   -0.4010 C   0  0  0  0  0  0  0  0  0  0  0  0
   -0.0760   -0.5170    0.9330 C   0  0  0  0  0  0  0  0  0  0  0  0
    1.2190   -0.6030    1.3350 C   0  0  0  0  0  0  0  0  0  0  0  0
    2.2900   -0.5970    0.4190 C   0  0  0  0  0  0  0  0  0  0  0  0
    3.6080   -0.7070    0.9390 N   0  0  0  0  0  0  0  0  0  0  0  0
    4.7420   -0.4580    0.1430 C   0  0  0  0  0  0  0  0  0  0  0  0
    4.7150   -0.1180   -1.0540 O   0  0  0  0  0  0  0  0  0  0  0  0
    6.0710   -0.5930    0.7080 N   0  0  0  0  0  0  0  0  0  0  0  0
    7.2110   -0.3300   -0.1360 C   0  0  1  0  0  0  0  0  0  0  0  0
    8.0950    0.6920    0.4880 C   0  0  0  0  0  0  0  0  0  0  0  0
    7.9850    2.4730    0.2390 S   0  0  0  0  0  0  0  0  0  0  0  0
    9.2600    3.2920    1.1980 C   0  0  0  0  0  0  0  0  0  0  0  0
    8.9770    0.0800    1.2560 C   0  0  0  0  0  0  0  0  0  0  0  0
    8.7750   -1.3990    1.2250 C   0  0  0  0  0  0  0  0  0  0  0  0
    8.0870   -1.5630   -0.1380 C   0  0  2  0  0  0  0  0  0  0  0  0
    9.1330   -1.4170   -1.2060 C   0  0  0  0  0  0  0  0  0  0  0  0
    1.9470   -0.5010   -0.8940 C   0  0  0  0  0  0  0  0  0  0  0  0
    0.6250   -0.4140   -1.2910 C   0  0  0  0  0  0  0  0  0  0  0  0
  1  2  1  0
  2  3  1  0
  3  4  1  0
  3 19  1  0
  4  5  2  0
  5  6  1  0
  5 17  1  0
  6  7  2  0
  6  8  1  0
  8  9  1  0
  8 16  1  0
  9 10  1  0
 10 11  1  0
 11 12  1  0
 12 13  1  6
 12 14  1  0
 12 16  1  0
 14 15  1  0
 17 18  2  0
 17 19  1  0
 19 20  1  0
 20 21  2  0
 20 37  1  0
 21 22  1  0
 22 23  2  0
 23 24  1  0
 23 36  1  0
 24 25  1  0
 25 26  2  0
 25 27  1  0
 28 27  1  1
 28 29  1  0
 28 34  1  0
 29 30  1  0
 29 32  2  0
 30 31  1  0
 32 33  1  0
 33 34  1  0
 34 35  1  6
 36 37  2  0
M  END
