
     RDKit          3D

 36 39  0  0  0  0  0  0  0  0999 V2000
    8.7420   -1.4260   -0.2910 C   0  0  0  0  0  0  0  0  0  0  0  0
    8.4120   -0.5250   -1.4580 C   0  0  0  0  0  0  0  0  0  0  0  0
    6.7580   -0.9190   -1.9920 S   0  0  1  0  0  0  0  0  0  0  0  0
    6.2920   -0.0310   -3.1060 O   0  0  0  0  0  0  0  0  0  0  0  0
    6.6420   -2.3560   -2.3840 O   0  0  0  0  0  0  0  0  0  0  0  0
    5.6690   -0.6400   -0.6380 C   0  0  0  0  0  0  0  0  0  0  0  0
    5.1760    0.6200   -0.4380 C   0  0  0  0  0  0  0  0  0  0  0  0
    4.3210    0.8320    0.5980 C   0  0  0  0  0  0  0  0  0  0  0  0
    3.9380   -0.1740    1.4470 C   0  0  0  0  0  0  0  0  0  0  0  0
    2.9900    0.1260    2.5250 C   0  0  0  0  0  0  0  0  0  0  0  0
    1.5880   -0.2130    2.1290 C   0  0  0  0  0  0  0  0  0  0  0  0
    1.2770   -1.4220    1.9860 O   0  0  0  0  0  0  0  0  0  0  0  0
    0.6100    0.7600    1.9070 N   0  0  0  0  0  0  0  0  0  0  0  0
   -0.7420    0.4260    1.5170 C   0  0  0  0  0  0  0  0  0  0  0  0
   -1.7360    1.2070    1.2170 N   0  0  0  0  0  0  0  0  0  0  0  0
   -2.8930    0.7280    0.8860 C   0  0  0  0  0  0  0  0  0  0  0  0
   -4.0100    1.6600    0.5310 C   0  0  0  0  0  0  0  0  0  0  0  0
   -3.8080    2.7140   -0.3040 C   0  0  0  0  0  0  0  0  0  0  0  0
   -4.8330    3.5770   -0.6330 C   0  0  0  0  0  0  0  0  0  0  0  0
   -6.0750    3.3560   -0.1010 C   0  0  0  0  0  0  0  0  0  0  0  0
   -6.2850    2.2960    0.7400 C   0  0  0  0  0  0  0  0  0  0  0  0
   -7.9000    2.0640    1.3870 Cl  0  0  0  0  0  0  0  0  0  0  0  0
   -5.2470    1.4340    1.0650 C   0  0  0  0  0  0  0  0  0  0  0  0
   -3.0930   -0.6040    0.8480 C   0  0  0  0  0  0  0  0  0  0  0  0
   -4.1840   -1.4770    0.5110 C   0  0  0  0  0  0  0  0  0  0  0  0
   -4.3710   -2.4960    1.2670 O   0  0  0  0  0  0  0  0  0  0  0  0
   -5.0990   -1.3350   -0.5930 C   0  0  0  0  0  0  0  0  0  0  0  0
   -6.4620   -1.2970   -0.4110 C   0  0  0  0  0  0  0  0  0  0  0  0
   -7.3270   -1.1700   -1.4930 C   0  0  0  0  0  0  0  0  0  0  0  0
   -6.7970   -1.0830   -2.7540 C   0  0  0  0  0  0  0  0  0  0  0  0
   -5.4370   -1.1160   -2.9950 C   0  0  0  0  0  0  0  0  0  0  0  0
   -4.6050   -1.2450   -1.8690 C   0  0  0  0  0  0  0  0  0  0  0  0
   -2.8790   -1.2820   -2.2480 Cl  0  0  0  0  0  0  0  0  0  0  0  0
   -1.4370   -1.1690    1.3390 S   0  0  0  0  0  0  0  0  0  0  0  0
    4.4240   -1.4370    1.2570 C   0  0  0  0  0  0  0  0  0  0  0  0
    5.3000   -1.6710    0.2010 C   0  0  0  0  0  0  0  0  0  0  0  0
  1  2  1  0
  3  2  1  1
  3  4  2  0
  3  5  2  0
  3  6  1  0
  6  7  2  0
  6 36  1  0
  7  8  1  0
  8  9  2  0
  9 10  1  0
  9 35  1  0
 10 11  1  0
 11 12  2  0
 11 13  1  0
 13 14  1  0
 14 15  2  0
 14 34  1  0
 15 16  1  0
 16 17  1  0
 16 24  2  0
 17 18  2  0
 17 23  1  0
 18 19  1  0
 19 20  2  0
 20 21  1  0
 21 22  1  0
 21 23  2  0
 24 25  1  0
 24 34  1  0
 25 26  2  0
 25 27  1  0
 27 28  2  0
 27 32  1  0
 28 29  1  0
 29 30  2  0
 30 31  1  0
 31 32  2  0
 32 33  1  0
 35 36  2  0
M  END
