
     RDKit          3D

 37 40  0  0  0  0  0  0  0  0999 V2000
   -0.9350   -2.5620    4.3580 C   0  0  0  0  0  0  0  0  0  0  0  0
   -0.5910   -1.9050    3.0840 C   0  0  0  0  0  0  0  0  0  0  0  0
    0.6530   -1.3970    2.7900 C   0  0  0  0  0  0  0  0  0  0  0  0
    0.6390   -0.8500    1.4860 C   0  0  0  0  0  0  0  0  0  0  0  0
   -0.5890   -1.0400    1.0380 N   0  0  0  0  0  0  0  0  0  0  0  0
   -1.3150   -1.6660    1.9900 N   0  0  0  0  0  0  0  0  0  0  0  0
   -0.9200   -0.7710   -0.3160 C   0  0  0  0  0  0  0  0  0  0  0  0
   -2.0990   -0.7280   -0.8220 C   0  0  0  0  0  0  0  0  0  0  0  0
   -3.4600   -0.8370   -0.4720 C   0  0  0  0  0  0  0  0  0  0  0  0
   -4.3090   -0.9390   -1.5650 C   0  0  0  0  0  0  0  0  0  0  0  0
   -5.7440   -1.0630   -1.5180 C   0  0  0  0  0  0  0  0  0  0  0  0
   -6.2680   -2.3740   -2.0190 C   0  0  2  0  0  0  0  0  0  0  0  0
   -6.0480   -2.8040   -3.4210 C   0  0  0  0  0  0  0  0  0  0  0  0
   -7.4420   -2.3410   -2.9890 C   0  0  0  0  0  0  0  0  0  0  0  0
   -4.1170   -0.7800    0.8450 C   0  0  0  0  0  0  0  0  0  0  0  0
   -4.2880    0.6180    1.3230 C   0  0  0  0  0  0  0  0  0  0  0  0
   -3.0710    1.7640    1.5810 S   0  0  2  0  0  0  0  0  0  0  0  0
   -3.7870    3.1240    1.8530 O   0  0  0  0  0  0  0  0  0  0  0  0
   -2.2970    2.0990    0.2890 O   0  0  0  0  0  0  0  0  0  0  0  0
   -1.9430    1.5910    2.9080 C   0  0  0  0  0  0  0  0  0  0  0  0
   -2.7130    1.6700    4.2020 C   0  0  0  0  0  0  0  0  0  0  0  0
   -3.2850    1.7160    5.1920 N   0  0  0  0  0  0  0  0  0  0  0  0
    0.2100   -0.2920   -1.1420 C   0  0  0  0  0  0  0  0  0  0  0  0
    1.4330   -0.1110   -0.6960 C   0  0  0  0  0  0  0  0  0  0  0  0
    2.4770    0.3790   -1.6440 C   0  0  0  0  0  0  0  0  0  0  0  0
    2.0620    0.7460   -2.8060 O   0  0  0  0  0  0  0  0  0  0  0  0
    3.8030    0.4820   -1.4000 N   0  0  0  0  0  0  0  0  0  0  0  0
    4.6180    1.4320   -2.2100 C   0  0  0  0  0  0  0  0  0  0  0  0
    5.0830    2.4220   -1.1350 C   0  0  2  0  0  0  0  0  0  0  0  0
    5.8790    3.5090   -1.7620 C   0  0  0  0  0  0  0  0  0  0  0  0
    6.5640    4.4060   -0.9180 N   0  0  0  0  0  0  0  0  0  0  0  0
    5.9510    3.6340   -2.9920 O   0  0  0  0  0  0  0  0  0  0  0  0
    5.8660    1.7520   -0.0970 C   0  0  0  0  0  0  0  0  0  0  0  0
    5.3710    0.4550    0.4610 C   0  0  0  0  0  0  0  0  0  0  0  0
    4.6060   -0.3480   -0.5270 C   0  0  2  0  0  0  0  0  0  0  0  0
    5.6950   -0.9190   -1.5070 C   0  0  0  0  0  0  0  0  0  0  0  0
    1.7210   -0.1920    0.7250 C   0  0  0  0  0  0  0  0  0  0  0  0
  1  2  1  0
  2  3  1  0
  2  6  2  0
  3  4  2  0
  4  5  1  0
  4 37  1  0
  5  6  1  0
  5  7  1  0
  7  8  2  3
  7 23  1  0
  8  9  1  0
  9 10  2  3
  9 15  1  0
 10 11  1  0
 12 11  1  6
 12 13  1  0
 12 14  1  0
 13 14  1  0
 15 16  1  0
 17 16  1  6
 17 18  2  0
 17 19  2  0
 17 20  1  0
 20 21  1  0
 21 22  3  0
 23 24  2  0
 24 25  1  0
 24 37  1  0
 25 26  2  0
 25 27  1  0
 27 28  1  0
 27 35  1  0
 28 29  1  0
 29 30  1  6
 29 33  1  0
 30 31  1  0
 30 32  2  0
 33 34  1  0
 34 35  1  0
 35 36  1  6
M  END
