
     RDKit          3D

 37 40  0  0  0  0  0  0  0  0999 V2000
   -1.5270    1.0890    3.2620 C   0  0  0  0  0  0  0  0  0  0  0  0
   -0.2950    0.5710    2.5260 C   0  0  0  0  0  0  0  0  0  0  0  0
   -0.4990   -0.3010    1.5270 C   0  0  0  0  0  0  0  0  0  0  0  0
    0.5540   -0.8870    0.7370 C   0  0  0  0  0  0  0  0  0  0  0  0
    0.2360   -1.8980   -0.0240 C   0  0  0  0  0  0  0  0  0  0  0  0
   -1.4630   -2.2600    0.1470 S   0  0  0  0  0  0  0  0  0  0  0  0
   -1.8170   -0.6370    1.0180 C   0  0  0  0  0  0  0  0  0  0  0  0
   -3.0240   -0.2260    0.9330 N   0  0  0  0  0  0  0  0  0  0  0  0
   -3.9260   -1.1730    0.2290 C   0  0  1  0  0  0  0  0  0  0  0  0
   -4.3260   -2.2550    1.1980 C   0  0  0  0  0  0  0  0  0  0  0  0
   -5.7780   -2.2950    1.2440 C   0  0  0  0  0  0  0  0  0  0  0  0
   -6.7150   -1.6810    0.6650 C   0  0  0  0  0  0  0  0  0  0  0  0
   -6.3640   -0.6070   -0.3520 C   0  0  0  0  0  0  0  0  0  0  0  0
   -4.9020   -0.5160   -0.5930 C   0  0  2  0  0  0  0  0  0  0  0  0
   -4.5800   -0.9040   -2.0850 C   0  0  0  0  0  0  0  0  0  0  0  0
   -4.6710   -2.2550   -2.3010 O   0  0  0  0  0  0  0  0  0  0  0  0
    1.9680   -0.4450    1.0490 C   0  0  0  0  0  0  0  0  0  0  0  0
    2.9400   -0.6350    0.0680 N   0  0  0  0  0  0  0  0  0  0  0  0
    4.0080   -0.4880   -0.6190 C   0  0  0  0  0  0  0  0  0  0  0  0
    4.6880    0.6820   -0.0590 O   0  0  0  0  0  0  0  0  0  0  0  0
    4.8250   -0.8910   -1.6380 C   0  0  0  0  0  0  0  0  0  0  0  0
    5.7970   -1.8360   -1.4580 C   0  0  0  0  0  0  0  0  0  0  0  0
    6.5810   -2.3640   -2.4640 C   0  0  0  0  0  0  0  0  0  0  0  0
    6.3370   -1.8770   -3.7360 C   0  0  0  0  0  0  0  0  0  0  0  0
    5.3780   -0.9280   -3.9540 C   0  0  0  0  0  0  0  0  0  0  0  0
    5.0280   -0.5590   -5.3970 C   0  0  0  0  0  0  0  0  0  0  0  0
    4.6520   -0.4330   -3.0000 N   0  0  0  0  0  0  0  0  0  0  0  0
    2.0560    0.4170    2.0650 C   0  0  0  0  0  0  0  0  0  0  0  0
    3.5130    0.8030    2.3530 C   0  0  0  0  0  0  0  0  0  0  0  0
    4.6550    1.1070    2.5860 N   0  0  0  0  0  0  0  0  0  0  0  0
    1.0240    0.9020    2.9580 C   0  0  1  0  0  0  0  0  0  0  0  0
    1.3310    2.3560    3.3030 C   0  0  0  0  0  0  0  0  0  0  0  0
    1.2040    3.2820    2.2680 N   0  0  0  0  0  0  0  0  0  0  0  0
    0.4370    3.8380    1.3580 C   0  0  0  0  0  0  0  0  0  0  0  0
   -0.8360    3.3770    1.3520 O   0  0  0  0  0  0  0  0  0  0  0  0
    0.6830    4.8580    0.3430 C   0  0  0  0  0  0  0  0  0  0  0  0
   -0.3010    4.8820   -0.6460 O   0  0  0  0  0  0  0  0  0  0  0  0
  1  2  1  0
  2  3  2  0
  2 31  1  0
  3  4  1  0
  3  7  1  0
  4  5  2  0
  4 17  1  0
  5  6  1  0
  6  7  1  0
  7  8  2  3
  9  8  1  1
  9 10  1  0
  9 14  1  0
 10 11  1  0
 11 12  2  0
 12 13  1  0
 13 14  1  0
 14 15  1  6
 15 16  1  0
 17 18  1  0
 17 28  2  0
 18 19  1  0
 19 20  2  0
 19 21  1  0
 21 22  2  0
 21 27  1  0
 22 23  1  0
 23 24  2  0
 24 25  1  0
 25 26  1  0
 25 27  2  0
 28 29  1  0
 28 31  1  0
 29 30  3  0
 31 32  1  6
 32 33  1  0
 33 34  1  0
 34 35  2  0
 34 36  1  0
 36 37  1  0
M  END
