
     RDKit          3D

 15 16  0  0  0  0  0  0  0  0999 V2000
    4.8140   -1.3920    1.8930 O   0  0  0  0  0  0  0  0  0  0  0  0
    3.9800   -0.6240    1.3730 C   0  0  0  0  0  0  0  0  0  0  0  0
    3.9100    0.8060    1.5100 N   0  0  0  0  0  0  0  0  0  0  0  0
    2.8070    1.2820    0.7520 C   0  0  0  0  0  0  0  0  0  0  0  0
    2.3740    2.4490    0.7790 O   0  0  0  0  0  0  0  0  0  0  0  0
    2.3030    0.1630   -0.0390 C   0  0  2  0  0  0  0  0  0  0  0  0
    0.8850    0.0850   -0.0560 O   0  0  0  0  0  0  0  0  0  0  0  0
    0.1330    0.1710   -1.2010 C   0  0  0  0  0  0  0  0  0  0  0  0
    0.7400    0.3270   -2.2920 O   0  0  0  0  0  0  0  0  0  0  0  0
   -1.3420    0.0930   -1.2430 C   0  0  1  0  0  0  0  0  0  0  0  0
   -1.7890   -1.2450   -0.6850 C   0  0  0  0  0  0  0  0  0  0  0  0
   -3.1980   -0.9390   -0.2460 C   0  0  0  0  0  0  0  0  0  0  0  0
   -3.2890    0.4670   -0.0020 N   0  0  0  0  0  0  0  0  0  0  0  0
   -2.0030    1.0570   -0.2930 C   0  0  0  0  0  0  0  0  0  0  0  0
    2.9110   -1.0030    0.5280 N   0  0  0  0  0  0  0  0  0  0  0  0
  1  2  2  0
  2  3  1  0
  2 15  1  0
  3  4  1  0
  4  5  2  0
  4  6  1  0
  6  7  1  1
  6 15  1  0
  7  8  1  0
  8  9  2  0
 10  8  1  1
 10 11  1  0
 10 14  1  0
 11 12  1  0
 12 13  1  0
 13 14  1  0
M  CHG  1  13   1
M  END
