
     RDKit          3D

 15 15  0  0  0  0  0  0  0  0999 V2000
   -3.4550   -2.2090    0.5530 C   0  0  0  0  0  0  0  0  0  0  0  0
   -2.1660   -1.7690    0.1640 O   0  0  0  0  0  0  0  0  0  0  0  0
   -2.0190   -0.5450   -0.4620 C   0  0  0  0  0  0  0  0  0  0  0  0
   -3.0570    0.1340   -0.6600 O   0  0  0  0  0  0  0  0  0  0  0  0
   -0.6810   -0.0920   -0.8650 C   0  0  2  0  0  0  0  0  0  0  0  0
    0.2590   -1.0370   -0.5230 O   0  0  0  0  0  0  0  0  0  0  0  0
    1.5190   -0.5280   -0.7620 C   0  0  2  0  0  0  0  0  0  0  0  0
    2.4960   -1.6720   -0.8470 C   0  0  0  0  0  0  0  0  0  0  0  0
    2.5210   -2.4310    0.3840 N   0  0  0  0  0  0  0  0  0  0  0  0
    1.8420    0.3770    0.4350 C   0  0  0  0  0  0  0  0  0  0  0  0
    0.8640    1.4740    0.3370 N   0  0  0  0  0  0  0  0  0  0  0  0
   -0.3720    1.2550   -0.3240 C   0  0  0  0  0  0  0  0  0  0  0  0
   -1.2360    2.1540   -0.4790 N   0  0  0  0  0  0  0  0  0  0  0  0
   -1.2060    3.5120   -0.0690 C   0  0  0  0  0  0  0  0  0  0  0  0
   -0.0040    4.1510   -0.2950 O   0  0  0  0  0  0  0  0  0  0  0  0
  1  2  1  0
  2  3  1  0
  3  4  2  0
  5  3  1  1
  5  6  1  0
  5 12  1  0
  6  7  1  0
  7  8  1  1
  7 10  1  0
  8  9  1  0
 10 11  1  0
 11 12  1  0
 12 13  2  3
 13 14  1  0
 14 15  1  0
M  CHG  1   9   1
M  END
