
     RDKit          3D

 15 16  0  0  0  0  0  0  0  0999 V2000
   -2.5220   -1.9970   -0.5780 C   0  0  0  0  0  0  0  0  0  0  0  0
   -1.6500   -0.9040   -0.1940 N   0  0  0  0  0  0  0  0  0  0  0  0
   -1.9450    0.4410   -0.2820 N   0  0  0  0  0  0  0  0  0  0  0  0
   -1.0040    1.1830    0.1550 C   0  0  0  0  0  0  0  0  0  0  0  0
   -0.9910    2.6420    0.2070 C   0  0  0  0  0  0  0  0  0  0  0  0
   -0.0130    3.2890    0.6570 O   0  0  0  0  0  0  0  0  0  0  0  0
   -2.0770    3.3830   -0.2480 O   0  0  0  0  0  0  0  0  0  0  0  0
    0.1020    0.3340    0.6150 C   0  0  2  0  0  0  0  0  0  0  0  0
    1.3900    0.5570   -0.1210 C   0  0  1  0  0  0  0  0  0  0  0  0
    2.5030    0.1970    0.8080 C   0  0  0  0  0  0  0  0  0  0  0  0
    3.2160   -0.7990    0.5670 O   0  0  0  0  0  0  0  0  0  0  0  0
    2.7270    0.9690    1.9200 O   0  0  0  0  0  0  0  0  0  0  0  0
    1.2950   -0.3510   -1.2280 N   0  0  0  0  0  0  0  0  0  0  0  0
    0.6710   -1.5400   -0.6920 C   0  0  0  0  0  0  0  0  0  0  0  0
   -0.3300   -1.0900    0.3410 C   0  0  2  0  0  0  0  0  0  0  0  0
  1  2  1  0
  2  3  1  0
  2 15  1  0
  3  4  2  0
  4  5  1  0
  8  4  1  6
  5  6  2  0
  5  7  1  0
  8  9  1  0
  8 15  1  0
  9 10  1  1
  9 13  1  0
 10 11  2  0
 10 12  1  0
 13 14  1  0
 15 14  1  6
M  CHG  1  13   1
M  END
