
     RDKit          3D

 15 16  0  0  0  0  0  0  0  0999 V2000
   -3.7720    0.5470   -0.4100 C   0  0  0  0  0  0  0  0  0  0  0  0
   -2.4150    0.2100    0.0430 N   0  0  0  0  0  0  0  0  0  0  0  0
   -1.5050    0.8420   -0.8620 C   0  0  0  0  0  0  0  0  0  0  0  0
   -0.1430    0.2250   -0.9050 C   0  0  1  0  0  0  0  0  0  0  0  0
    0.5470    0.2620    0.4530 C   0  0  0  0  0  0  0  0  0  0  0  0
    1.6680   -0.7280    0.2150 C   0  0  2  0  0  0  0  0  0  0  0  0
    1.0290   -1.7400   -0.5630 N   0  0  0  0  0  0  0  0  0  0  0  0
   -0.1530   -1.2160   -1.1960 C   0  0  0  0  0  0  0  0  0  0  0  0
   -1.0200   -1.8340   -1.8580 O   0  0  0  0  0  0  0  0  0  0  0  0
    2.2290   -1.1960    1.4190 O   0  0  0  0  0  0  0  0  0  0  0  0
    3.3150   -0.3650    1.7060 C   0  0  0  0  0  0  0  0  0  0  0  0
    3.9270   -0.2110    2.7920 O   0  0  0  0  0  0  0  0  0  0  0  0
    3.6880    0.3580    0.5180 N   0  0  0  0  0  0  0  0  0  0  0  0
    2.7920   -0.0590   -0.5070 C   0  0  0  0  0  0  0  0  0  0  0  0
    2.8940    0.0880   -1.7530 O   0  0  0  0  0  0  0  0  0  0  0  0
  1  2  1  0
  2  3  1  0
  4  3  1  1
  4  5  1  0
  4  8  1  0
  6  5  1  1
  6  7  1  0
  6 10  1  0
  6 14  1  0
  7  8  1  0
  8  9  2  0
 10 11  1  0
 11 12  2  0
 11 13  1  0
 13 14  1  0
 14 15  2  0
M  CHG  1   2   1
M  END
