
     RDKit          3D

 15 16  0  0  0  0  0  0  0  0999 V2000
    3.8000    0.6010   -1.4800 N   0  0  0  0  0  0  0  0  0  0  0  0
    2.9590   -0.2090   -0.6780 C   0  0  0  0  0  0  0  0  0  0  0  0
    2.4130   -1.3000   -1.0590 N   0  0  0  0  0  0  0  0  0  0  0  0
    1.6530   -1.8670   -0.0680 O   0  0  0  0  0  0  0  0  0  0  0  0
    1.5500   -1.0180    1.0430 C   0  0  2  0  0  0  0  0  0  0  0  0
    0.2260   -0.3520    1.1340 C   0  0  0  0  0  0  0  0  0  0  0  0
    0.0340    0.4330    2.0990 O   0  0  0  0  0  0  0  0  0  0  0  0
   -0.8180   -0.5420    0.2150 N   0  0  0  0  0  0  0  0  0  0  0  0
   -2.1000    0.1080    0.3110 C   0  0  2  0  0  0  0  0  0  0  0  0
   -3.2540   -0.8410    0.2840 C   0  0  0  0  0  0  0  0  0  0  0  0
   -4.3300   -0.0060   -0.1520 O   0  0  0  0  0  0  0  0  0  0  0  0
   -3.8340    1.0630   -0.8800 C   0  0  0  0  0  0  0  0  0  0  0  0
   -4.4810    1.9970   -1.4180 O   0  0  0  0  0  0  0  0  0  0  0  0
   -2.3520    0.9370   -0.9360 C   0  0  0  0  0  0  0  0  0  0  0  0
    2.5680    0.0550    0.7140 C   0  0  0  0  0  0  0  0  0  0  0  0
  1  2  1  0
  2  3  2  0
  2 15  1  0
  3  4  1  0
  4  5  1  0
  5  6  1  6
  5 15  1  0
  6  7  2  0
  6  8  1  0
  9  8  1  6
  9 10  1  0
  9 14  1  0
 10 11  1  0
 11 12  1  0
 12 13  2  0
 12 14  1  0
M  CHG  1   1   1
M  END
