
     RDKit          3D

 15 16  0  0  0  0  0  0  0  0999 V2000
    4.5290   -1.1560   -0.6870 C   0  0  0  0  0  0  0  0  0  0  0  0
    3.1590   -0.7670   -0.5930 O   0  0  0  0  0  0  0  0  0  0  0  0
    2.7550    0.3300    0.1190 C   0  0  0  0  0  0  0  0  0  0  0  0
    3.5240    0.8430    1.0020 N   0  0  0  0  0  0  0  0  0  0  0  0
    1.4220    0.9370   -0.1250 C   0  0  0  0  0  0  0  0  0  0  0  0
    0.3420    0.0060    0.1230 N   0  0  0  0  0  0  0  0  0  0  0  0
   -0.7570    0.3630   -0.7550 C   0  0  0  0  0  0  0  0  0  0  0  0
   -2.0340    0.0830   -0.0160 C   0  0  1  0  0  0  0  0  0  0  0  0
   -2.4260    1.0370    0.9650 N   0  0  0  0  0  0  0  0  0  0  0  0
   -3.8430    0.9760    1.0640 C   0  0  0  0  0  0  0  0  0  0  0  0
   -4.5170    1.5900    1.9380 O   0  0  0  0  0  0  0  0  0  0  0  0
   -4.3210    0.1370    0.0460 O   0  0  0  0  0  0  0  0  0  0  0  0
   -3.2630   -0.0770   -0.8600 C   0  0  2  0  0  0  0  0  0  0  0  0
   -2.7370   -1.4800   -0.9060 C   0  0  0  0  0  0  0  0  0  0  0  0
   -2.1300   -1.2490    0.3280 O   0  0  0  0  0  0  0  0  0  0  0  0
  1  2  1  0
  2  3  1  0
  3  4  2  0
  3  5  1  0
  5  6  1  0
  6  7  1  0
  8  7  1  6
  8  9  1  0
  8 13  1  0
  8 15  1  0
  9 10  1  0
 10 11  2  0
 10 12  1  0
 12 13  1  0
 13 14  1  1
 14 15  1  0
M  CHG  1   6   1
M  END
