
     RDKit          3D

 31 34  0  0  0  0  0  0  0  0999 V2000
   -2.9200   -0.3060   -3.0270 C   0  0  0  0  0  0  0  0  0  0  0  0
   -3.1240   -0.1370   -1.6090 N   0  0  0  0  0  0  0  0  0  0  0  0
   -1.8980    0.0360   -0.8440 C   0  0  1  0  0  0  0  0  0  0  0  0
   -2.2670    0.8690    0.3320 C   0  0  0  0  0  0  0  0  0  0  0  0
   -1.6150    1.9910    0.7660 C   0  0  0  0  0  0  0  0  0  0  0  0
   -2.2340    2.5050    1.8720 C   0  0  0  0  0  0  0  0  0  0  0  0
   -1.9550    3.6070    2.6550 C   0  0  0  0  0  0  0  0  0  0  0  0
   -2.7440    3.9350    3.7500 C   0  0  0  0  0  0  0  0  0  0  0  0
   -3.8170    3.1160    4.0220 C   0  0  0  0  0  0  0  0  0  0  0  0
   -4.0850    2.0100    3.2230 C   0  0  0  0  0  0  0  0  0  0  0  0
   -3.2910    1.6920    2.1320 C   0  0  0  0  0  0  0  0  0  0  0  0
   -3.2950    0.7170    1.2000 N   0  0  0  0  0  0  0  0  0  0  0  0
   -1.0910   -1.1620   -0.5800 C   0  0  1  0  0  0  0  0  0  0  0  0
   -1.8940   -2.2230    0.2030 C   0  0  0  0  0  0  0  0  0  0  0  0
   -2.7210   -3.1340   -0.5900 C   0  0  0  0  0  0  0  0  0  0  0  0
   -1.9940   -4.4800   -0.7910 C   0  0  0  0  0  0  0  0  0  0  0  0
   -1.1210   -4.1710   -2.0190 C   0  0  0  0  0  0  0  0  0  0  0  0
   -0.0800   -3.1720   -1.4910 C   0  0  0  0  0  0  0  0  0  0  0  0
   -0.4240   -1.8160   -1.6000 N   0  0  0  0  0  0  0  0  0  0  0  0
    0.3540   -1.1910   -2.5820 C   0  0  0  0  0  0  0  0  0  0  0  0
    1.7930   -0.9600   -2.3910 C   0  0  0  0  0  0  0  0  0  0  0  0
    2.4670   -1.3800   -1.1460 C   0  0  0  0  0  0  0  0  0  0  0  0
    2.4120   -0.3700   -0.0250 C   0  0  1  0  0  0  0  0  0  0  0  0
    3.3130    0.7450   -0.2040 N   0  0  2  0  0  0  0  0  0  0  0  0
    4.5840    0.3650   -0.7890 C   0  0  0  0  0  0  0  0  0  0  0  0
    3.6180    1.2660    1.1270 C   0  0  0  0  0  0  0  0  0  0  0  0
    3.9040    2.7530    1.0730 C   0  0  0  0  0  0  0  0  0  0  0  0
    4.2090    3.1970    2.5030 C   0  0  0  0  0  0  0  0  0  0  0  0
    4.4880    4.5630    2.5630 O   0  0  0  0  0  0  0  0  0  0  0  0
    0.9920    0.1790    0.0240 C   0  0  0  0  0  0  0  0  0  0  0  0
   -0.0320   -0.7710    0.4760 C   0  0  0  0  0  0  0  0  0  0  0  0
  1  2  1  0
  3  2  1  1
  3  4  1  0
  3 13  1  0
  4  5  2  0
  4 12  1  0
  5  6  1  0
  6  7  2  0
  6 11  1  0
  7  8  1  0
  8  9  2  0
  9 10  1  0
 10 11  2  0
 11 12  1  0
 13 14  1  1
 13 19  1  0
 13 31  1  0
 14 15  1  0
 15 16  1  0
 16 17  1  0
 17 18  1  0
 18 19  1  0
 19 20  1  0
 20 21  1  0
 21 22  1  0
 23 22  1  6
 23 24  1  0
 23 30  1  0
 24 25  1  1
 24 26  1  0
 26 27  1  0
 27 28  1  0
 28 29  1  0
 30 31  1  0
M  CHG  2   2   1  24   1
M  END
