
     RDKit          3D

 32 35  0  0  0  0  0  0  0  0999 V2000
    9.0210   -1.7700    0.2670 C   0  0  0  0  0  0  0  0  0  0  0  0
    7.9450   -1.0680   -0.0640 C   0  0  0  0  0  0  0  0  0  0  0  0
    7.7730   -0.2830   -1.3070 C   0  0  0  0  0  0  0  0  0  0  0  0
    6.8080    0.7340   -0.8660 N   0  0  0  0  0  0  0  0  0  0  0  0
    6.0410    0.1870    0.1970 C   0  0  0  0  0  0  0  0  0  0  0  0
    4.8360    0.5730    0.7360 C   0  0  0  0  0  0  0  0  0  0  0  0
    4.0860    1.7630    0.2090 C   0  0  0  0  0  0  0  0  0  0  0  0
    3.4070    1.4200   -1.1080 C   0  0  0  0  0  0  0  0  0  0  0  0
    2.4660    0.3350   -0.9490 N   0  0  0  0  0  0  0  0  0  0  0  0
    1.1220    0.7610   -1.2530 C   0  0  1  0  0  0  0  0  0  0  0  0
    0.6190    0.1230   -2.5390 C   0  0  0  0  0  0  0  0  0  0  0  0
    0.2040    0.4980   -0.1220 C   0  0  0  0  0  0  0  0  0  0  0  0
    0.5690   -0.0330    0.9610 O   0  0  0  0  0  0  0  0  0  0  0  0
   -1.1520    0.8620   -0.2680 N   0  0  0  0  0  0  0  0  0  0  0  0
   -2.1340    0.6550    0.7670 C   0  0  1  0  0  0  0  0  0  0  0  0
   -2.5920    1.9970    1.2770 C   0  0  0  0  0  0  0  0  0  0  0  0
   -3.6140    2.6600    0.4110 C   0  0  0  0  0  0  0  0  0  0  0  0
   -4.6000    1.6610   -0.1920 C   0  0  0  0  0  0  0  0  0  0  0  0
   -4.5620    0.4370    0.6750 C   0  0  1  0  0  0  0  0  0  0  0  0
   -5.6810   -0.4110    0.5960 N   0  0  2  0  0  0  0  0  0  0  0  0
   -5.4410   -1.7490    0.1400 C   0  0  0  0  0  0  0  0  0  0  0  0
   -6.8490   -2.3010   -0.0360 C   0  0  0  0  0  0  0  0  0  0  0  0
   -7.7800   -1.0820    0.0280 C   0  0  0  0  0  0  0  0  0  0  0  0
   -6.7520    0.0260   -0.2650 C   0  0  2  0  0  0  0  0  0  0  0  0
   -6.4660   -0.0310   -1.7190 C   0  0  0  0  0  0  0  0  0  0  0  0
   -3.2360   -0.2670    0.3640 C   0  0  0  0  0  0  0  0  0  0  0  0
    4.3240   -0.1650    1.7850 C   0  0  0  0  0  0  0  0  0  0  0  0
    4.9880   -1.2630    2.2950 C   0  0  0  0  0  0  0  0  0  0  0  0
    4.4460   -2.0680    3.4280 C   0  0  0  0  0  0  0  0  0  0  0  0
    6.1960   -1.6490    1.7550 C   0  0  0  0  0  0  0  0  0  0  0  0
    7.0390   -3.0410    2.3980 Cl  0  0  0  0  0  0  0  0  0  0  0  0
    6.7160   -0.9130    0.7010 C   0  0  0  0  0  0  0  0  0  0  0  0
  1  2  2  0
  2  3  1  0
  2 32  1  0
  3  4  1  0
  4  5  1  0
  5  6  2  0
  5 32  1  0
  6  7  1  0
  6 27  1  0
  7  8  1  0
  8  9  1  0
  9 10  1  0
 10 11  1  6
 10 12  1  0
 12 13  2  0
 12 14  1  0
 15 14  1  6
 15 16  1  0
 15 26  1  0
 16 17  1  0
 17 18  1  0
 19 18  1  6
 19 20  1  0
 19 26  1  0
 20 21  1  6
 20 24  1  0
 21 22  1  0
 22 23  1  0
 23 24  1  0
 24 25  1  6
 27 28  2  0
 28 29  1  0
 28 30  1  0
 30 31  1  0
 30 32  2  0
M  CHG  2   9   1  20   1
M  END
