
     RDKit          3D

 32 35  0  0  0  0  0  0  0  0999 V2000
   -2.1210    4.7410   -1.7830 C   0  0  0  0  0  0  0  0  0  0  0  0
   -1.5230    4.8890   -0.4050 C   0  0  0  0  0  0  0  0  0  0  0  0
   -1.2390    3.6330    0.2200 N   0  0  0  0  0  0  0  0  0  0  0  0
   -1.9460    3.1940    1.3320 N   0  0  0  0  0  0  0  0  0  0  0  0
   -1.7230    2.0860    1.9140 C   0  0  0  0  0  0  0  0  0  0  0  0
   -0.6910    1.1240    1.4880 C   0  0  1  0  0  0  0  0  0  0  0  0
   -1.3260   -0.1510    1.4010 N   0  0  0  0  0  0  0  0  0  0  0  0
   -1.4520   -0.8230    0.1740 C   0  0  2  0  0  0  0  0  0  0  0  0
   -2.1890   -0.1210   -0.9300 C   0  0  0  0  0  0  0  0  0  0  0  0
   -3.4290    0.5820   -0.6560 C   0  0  0  0  0  0  0  0  0  0  0  0
   -4.3330    0.2660    0.4420 C   0  0  0  0  0  0  0  0  0  0  0  0
   -4.4780   -1.0840    0.9860 C   0  0  0  0  0  0  0  0  0  0  0  0
   -3.4990   -2.1090    0.6640 C   0  0  0  0  0  0  0  0  0  0  0  0
   -2.2070   -2.1250    0.3110 C   0  0  0  0  0  0  0  0  0  0  0  0
   -1.7310   -3.4500    0.0500 C   0  0  0  0  0  0  0  0  0  0  0  0
   -2.9180   -4.5940   -0.7230 Cl  0  0  0  0  0  0  0  0  0  0  0  0
   -0.5710   -4.0000    0.2860 C   0  0  0  0  0  0  0  0  0  0  0  0
    0.6330   -3.4380    0.9030 C   0  0  0  0  0  0  0  0  0  0  0  0
    1.6340   -3.1340   -0.2160 C   0  0  2  0  0  0  0  0  0  0  0  0
    2.2080   -4.4440   -0.7560 C   0  0  0  0  0  0  0  0  0  0  0  0
    2.7020   -2.3380    0.3510 N   0  0  0  0  0  0  0  0  0  0  0  0
    2.7510   -1.0410   -0.3030 C   0  0  2  0  0  0  0  0  0  0  0  0
    4.1860   -0.8090   -0.6860 C   0  0  0  0  0  0  0  0  0  0  0  0
    4.9880   -0.0860    0.3590 C   0  0  0  0  0  0  0  0  0  0  0  0
    4.2790    1.2680    0.5170 C   0  0  0  0  0  0  0  0  0  0  0  0
    2.9970    0.9800    1.2140 C   0  0  0  0  0  0  0  0  0  0  0  0
    2.1040   -0.0250    0.5390 C   0  0  1  0  0  0  0  0  0  0  0  0
    1.1390    0.7710   -0.2670 C   0  0  0  0  0  0  0  0  0  0  0  0
    1.2340    0.7600   -1.5100 O   0  0  0  0  0  0  0  0  0  0  0  0
    0.0480    1.5980    0.3140 C   0  0  0  0  0  0  0  0  0  0  0  0
   -0.2290    2.7590   -0.2450 C   0  0  0  0  0  0  0  0  0  0  0  0
    0.5830    3.1780   -1.4680 C   0  0  0  0  0  0  0  0  0  0  0  0
  1  2  1  0
  2  3  1  0
  3  4  1  0
  3 31  1  0
  4  5  2  0
  5  6  1  0
  6  7  1  6
  6 30  1  0
  7  8  1  0
  8  9  1  6
  8 14  1  0
  9 10  1  0
 10 11  1  0
 11 12  1  0
 12 13  1  0
 13 14  2  0
 14 15  1  0
 15 16  1  0
 15 17  2  0
 17 18  1  0
 18 19  1  0
 19 20  1  1
 19 21  1  0
 21 22  1  0
 22 23  1  1
 22 27  1  0
 23 24  1  0
 24 25  1  0
 25 26  1  0
 27 26  1  6
 27 28  1  0
 28 29  2  0
 28 30  1  0
 30 31  2  0
 31 32  1  0
M  CHG  2   7   1  21   1
M  END
