
     RDKit          3D

 32 35  0  0  0  0  0  0  0  0999 V2000
    8.8620    1.5680    0.2740 C   0  0  0  0  0  0  0  0  0  0  0  0
    7.7470    0.5350    0.2110 C   0  0  0  0  0  0  0  0  0  0  0  0
    6.6450    0.9660   -0.7600 C   0  0  0  0  0  0  0  0  0  0  0  0
    5.6170   -0.0270   -0.8010 N   0  0  0  0  0  0  0  0  0  0  0  0
    4.8460   -0.1790    0.3820 C   0  0  1  0  0  0  0  0  0  0  0  0
    4.0670    1.0670    0.7000 C   0  0  0  0  0  0  0  0  0  0  0  0
    2.9330    0.9180   -0.1720 O   0  0  0  0  0  0  0  0  0  0  0  0
    2.6220   -0.4580   -0.1600 C   0  0  0  0  0  0  0  0  0  0  0  0
    3.7370   -1.1820    0.1670 C   0  0  0  0  0  0  0  0  0  0  0  0
    3.6890   -2.5440    0.2450 C   0  0  0  0  0  0  0  0  0  0  0  0
    2.5370   -3.2170   -0.0010 C   0  0  0  0  0  0  0  0  0  0  0  0
    2.4480   -4.7030    0.0740 C   0  0  0  0  0  0  0  0  0  0  0  0
    1.3970   -2.4990   -0.3340 C   0  0  0  0  0  0  0  0  0  0  0  0
    0.2130   -3.1550   -0.5850 C   0  0  0  0  0  0  0  0  0  0  0  0
   -0.8840   -2.4160   -0.9040 C   0  0  0  0  0  0  0  0  0  0  0  0
   -0.8690   -1.0120   -0.9910 C   0  0  0  0  0  0  0  0  0  0  0  0
   -2.0100   -0.3440   -1.3210 O   0  0  0  0  0  0  0  0  0  0  0  0
   -2.1830    1.0190   -1.4030 C   0  0  0  0  0  0  0  0  0  0  0  0
   -2.0650    1.6820   -0.0670 C   0  0  0  0  0  0  0  0  0  0  0  0
   -3.0880    1.1480    0.9030 C   0  0  0  0  0  0  0  0  0  0  0  0
   -4.4680    1.4860    0.3700 C   0  0  0  0  0  0  0  0  0  0  0  0
   -4.5810    2.2000   -0.6380 O   0  0  0  0  0  0  0  0  0  0  0  0
   -5.6070    0.9840    1.0290 N   0  0  0  0  0  0  0  0  0  0  0  0
   -6.9410    1.2190    0.6410 C   0  0  0  0  0  0  0  0  0  0  0  0
   -7.3600    1.9620   -0.4320 C   0  0  0  0  0  0  0  0  0  0  0  0
   -8.7050    2.1490   -0.7530 C   0  0  0  0  0  0  0  0  0  0  0  0
   -9.6860    1.5770    0.0190 C   0  0  0  0  0  0  0  0  0  0  0  0
   -9.2840    0.8330    1.0930 C   0  0  0  0  0  0  0  0  0  0  0  0
   -7.9390    0.6390    1.4240 C   0  0  0  0  0  0  0  0  0  0  0  0
   -7.6640   -0.1220    2.5180 O   0  0  0  0  0  0  0  0  0  0  0  0
    0.3050   -0.3610   -0.7450 C   0  0  0  0  0  0  0  0  0  0  0  0
    1.4280   -1.1260   -0.4170 C   0  0  0  0  0  0  0  0  0  0  0  0
  1  2  1  0
  2  3  1  0
  3  4  1  0
  5  4  1  6
  5  6  1  0
  5  9  1  0
  6  7  1  0
  7  8  1  0
  8  9  2  0
  8 32  1  0
  9 10  1  0
 10 11  2  0
 11 12  1  0
 11 13  1  0
 13 14  2  0
 13 32  1  0
 14 15  1  0
 15 16  2  0
 16 17  1  0
 16 31  1  0
 17 18  1  0
 18 19  1  0
 19 20  1  0
 20 21  1  0
 21 22  2  0
 21 23  1  0
 23 24  1  0
 24 25  2  0
 24 29  1  0
 25 26  1  0
 26 27  2  0
 27 28  1  0
 28 29  2  0
 29 30  1  0
 31 32  2  0
M  END
