
     RDKit          3D

 32 35  0  0  0  0  0  0  0  0999 V2000
   -2.9010    0.2070    3.8660 O   0  0  0  0  0  0  0  0  0  0  0  0
   -1.9790   -0.4880    3.4130 C   0  0  0  0  0  0  0  0  0  0  0  0
   -1.6510   -0.7780    2.0380 C   0  0  0  0  0  0  0  0  0  0  0  0
   -0.5520   -1.6280    1.8440 C   0  0  0  0  0  0  0  0  0  0  0  0
   -0.1420   -1.9980    0.5820 C   0  0  0  0  0  0  0  0  0  0  0  0
   -0.8120   -1.5340   -0.5190 C   0  0  0  0  0  0  0  0  0  0  0  0
   -0.3980   -1.9020   -1.8140 N   0  0  0  0  0  0  0  0  0  0  0  0
    0.7580   -2.7190   -2.0830 C   0  0  0  0  0  0  0  0  0  0  0  0
    2.0310   -2.0880   -1.6250 C   0  0  0  0  0  0  0  0  0  0  0  0
    2.0190   -0.7630   -1.2570 C   0  0  0  0  0  0  0  0  0  0  0  0
    3.2000   -0.1450   -0.8180 C   0  0  0  0  0  0  0  0  0  0  0  0
    4.3940   -0.8200   -0.7390 C   0  0  0  0  0  0  0  0  0  0  0  0
    5.5530   -0.2250   -0.3110 O   0  0  0  0  0  0  0  0  0  0  0  0
    5.6980    1.0830    0.0920 C   0  0  1  0  0  0  0  0  0  0  0  0
    6.2500    1.2140    1.5030 C   0  0  0  0  0  0  0  0  0  0  0  0
    7.1790    2.4050    1.4880 C   0  0  0  0  0  0  0  0  0  0  0  0
    6.9360    3.0840    0.1460 C   0  0  0  0  0  0  0  0  0  0  0  0
    6.7220    1.8520   -0.7310 C   0  0  0  0  0  0  0  0  0  0  0  0
    4.3490   -2.1550   -1.1230 C   0  0  0  0  0  0  0  0  0  0  0  0
    5.5250   -2.8770   -1.0610 O   0  0  0  0  0  0  0  0  0  0  0  0
    3.2040   -2.7840   -1.5570 C   0  0  0  0  0  0  0  0  0  0  0  0
   -1.9160   -0.6800   -0.3230 C   0  0  0  0  0  0  0  0  0  0  0  0
   -2.3440   -0.2960    0.9230 C   0  0  0  0  0  0  0  0  0  0  0  0
   -3.4220    0.5740    1.1160 N   0  0  0  0  0  0  0  0  0  0  0  0
   -4.2690    1.0230    0.0700 C   0  0  0  0  0  0  0  0  0  0  0  0
   -4.1430    0.6850   -1.1210 O   0  0  0  0  0  0  0  0  0  0  0  0
   -5.3750    1.9630    0.4740 C   0  0  0  0  0  0  0  0  0  0  0  0
   -6.2400    2.2570   -0.6990 C   0  0  1  0  0  0  0  0  0  0  0  0
   -6.9300    1.0660   -1.3070 C   0  0  0  0  0  0  0  0  0  0  0  0
   -7.9100    0.7150   -0.1860 C   0  0  0  0  0  0  0  0  0  0  0  0
   -8.2140    2.0910    0.3580 C   0  0  0  0  0  0  0  0  0  0  0  0
   -7.3490    2.9830   -0.2240 O   0  0  0  0  0  0  0  0  0  0  0  0
  1  2  2  0
  2  3  1  0
  3  4  2  0
  3 23  1  0
  4  5  1  0
  5  6  2  0
  6  7  1  0
  6 22  1  0
  7  8  1  0
  8  9  1  0
  9 10  2  0
  9 21  1  0
 10 11  1  0
 11 12  2  0
 12 13  1  0
 12 19  1  0
 14 13  1  6
 14 15  1  0
 14 18  1  0
 15 16  1  0
 16 17  1  0
 17 18  1  0
 19 20  1  0
 19 21  2  0
 22 23  2  0
 23 24  1  0
 24 25  1  0
 25 26  2  0
 25 27  1  0
 28 27  1  1
 28 29  1  0
 28 32  1  0
 29 30  1  0
 30 31  1  0
 31 32  1  0
M  END
