
     RDKit          3D

 33 36  0  0  0  0  0  0  0  0999 V2000
   -8.0920   -1.0680    2.1840 C   0  0  0  0  0  0  0  0  0  0  0  0
   -8.9370   -0.7020    1.0120 C   0  0  0  0  0  0  0  0  0  0  0  0
  -10.2650   -0.9870    0.9220 C   0  0  0  0  0  0  0  0  0  0  0  0
  -10.9680   -0.6040   -0.2080 C   0  0  0  0  0  0  0  0  0  0  0  0
  -10.3690    0.0610   -1.2510 C   0  0  0  0  0  0  0  0  0  0  0  0
   -9.0160    0.3590   -1.1720 C   0  0  0  0  0  0  0  0  0  0  0  0
   -8.1750    1.2030   -2.4470 Cl  0  0  0  0  0  0  0  0  0  0  0  0
   -8.3320   -0.0260   -0.0490 C   0  0  0  0  0  0  0  0  0  0  0  0
   -6.9480    0.2620    0.0450 N   0  0  0  0  0  0  0  0  0  0  0  0
   -5.9880   -0.6410   -0.4750 C   0  0  0  0  0  0  0  0  0  0  0  0
   -6.3960   -1.7120   -1.0320 O   0  0  0  0  0  0  0  0  0  0  0  0
   -4.6170   -0.3870   -0.3940 C   0  0  0  0  0  0  0  0  0  0  0  0
   -3.8260    0.6350    0.1550 C   0  0  0  0  0  0  0  0  0  0  0  0
   -2.5550    0.5330    0.0540 N   0  0  0  0  0  0  0  0  0  0  0  0
   -1.8730   -0.3230   -0.4520 C   0  0  0  0  0  0  0  0  0  0  0  0
   -0.5340   -0.6900   -0.6910 N   0  0  0  0  0  0  0  0  0  0  0  0
    0.5670    0.0740   -0.2460 C   0  0  0  0  0  0  0  0  0  0  0  0
    0.3910    1.1800    0.5430 C   0  0  0  0  0  0  0  0  0  0  0  0
    1.5190    1.8870    0.9520 C   0  0  0  0  0  0  0  0  0  0  0  0
    2.7800    1.4700    0.5620 C   0  0  0  0  0  0  0  0  0  0  0  0
    2.9710    0.3600   -0.2310 C   0  0  0  0  0  0  0  0  0  0  0  0
    4.3210   -0.0770   -0.6290 C   0  0  0  0  0  0  0  0  0  0  0  0
    4.4090   -0.9440   -1.5280 O   0  0  0  0  0  0  0  0  0  0  0  0
    5.5110    0.4240   -0.0530 N   0  0  0  0  0  0  0  0  0  0  0  0
    6.8330   -0.0310   -0.4720 C   0  0  2  0  0  0  0  0  0  0  0  0
    7.4550   -0.9170    0.6040 C   0  0  0  0  0  0  0  0  0  0  0  0
    8.7730   -0.3490    1.0080 C   0  0  0  0  0  0  0  0  0  0  0  0
    9.6350   -0.2920   -0.1530 N   0  0  0  0  0  0  0  0  0  0  0  0
    9.0990    0.5310   -1.1950 C   0  0  0  0  0  0  0  0  0  0  0  0
    7.7180    1.0800   -0.9050 C   0  0  1  0  0  0  0  0  0  0  0  0
    7.2100    1.5730   -2.1020 F   0  0  0  0  0  0  0  0  0  0  0  0
    1.8600   -0.3350   -0.6330 C   0  0  0  0  0  0  0  0  0  0  0  0
   -3.2550   -1.4590   -1.0450 S   0  0  0  0  0  0  0  0  0  0  0  0
  1  2  1  0
  2  3  2  0
  2  8  1  0
  3  4  1  0
  4  5  2  0
  5  6  1  0
  6  7  1  0
  6  8  2  0
  8  9  1  0
  9 10  1  0
 10 11  2  0
 10 12  1  0
 12 13  2  0
 12 33  1  0
 13 14  1  0
 14 15  2  0
 15 16  1  0
 15 33  1  0
 16 17  1  0
 17 18  2  0
 17 32  1  0
 18 19  1  0
 19 20  2  0
 20 21  1  0
 21 22  1  0
 21 32  2  0
 22 23  2  0
 22 24  1  0
 25 24  1  1
 25 26  1  0
 25 30  1  0
 26 27  1  0
 27 28  1  0
 28 29  1  0
 29 30  1  0
 30 31  1  6
M  CHG  1  28   1
M  END
