
     RDKit          3D

 32 35  0  0  0  0  0  0  0  0999 V2000
   -5.2390   -1.6130   -2.6580 C   0  0  0  0  0  0  0  0  0  0  0  0
   -4.4710   -1.6370   -1.5840 C   0  0  0  0  0  0  0  0  0  0  0  0
   -4.9980   -2.0040   -0.2430 C   0  0  0  0  0  0  0  0  0  0  0  0
   -4.7580   -0.8480    0.6640 C   0  0  0  0  0  0  0  0  0  0  0  0
   -5.8090    0.0220    0.9720 C   0  0  0  0  0  0  0  0  0  0  0  0
   -5.5970    1.1090    1.7940 C   0  0  0  0  0  0  0  0  0  0  0  0
   -4.3560    1.3400    2.3090 C   0  0  0  0  0  0  0  0  0  0  0  0
   -3.3270    0.4500    1.9810 C   0  0  0  0  0  0  0  0  0  0  0  0
   -3.4880   -0.6410    1.1720 C   0  0  0  0  0  0  0  0  0  0  0  0
   -2.4750   -1.5620    0.8470 N   0  0  0  0  0  0  0  0  0  0  0  0
   -1.1120   -1.5010    1.2220 C   0  0  0  0  0  0  0  0  0  0  0  0
   -0.6890   -0.5680    1.9070 O   0  0  0  0  0  0  0  0  0  0  0  0
   -0.1320   -2.5430    0.8130 C   0  0  0  0  0  0  0  0  0  0  0  0
    1.2640   -2.2860    1.2310 C   0  0  0  0  0  0  0  0  0  0  0  0
    1.8950   -1.0380    0.7050 C   0  0  2  0  0  0  0  0  0  0  0  0
    1.9520   -0.9930   -0.8110 C   0  0  0  0  0  0  0  0  0  0  0  0
    3.2910   -0.4450   -1.1320 N   0  0  0  0  0  0  0  0  0  0  0  0
    3.4240    0.8250   -1.6920 C   0  0  0  0  0  0  0  0  0  0  0  0
    2.3510    1.4820   -1.9070 O   0  0  0  0  0  0  0  0  0  0  0  0
    4.6570    1.4630   -2.0510 C   0  0  0  0  0  0  0  0  0  0  0  0
    4.8240    2.7440   -2.6080 C   0  0  0  0  0  0  0  0  0  0  0  0
    6.1650    2.9690   -2.7980 C   0  0  0  0  0  0  0  0  0  0  0  0
    6.7820    1.8140   -2.3490 C   0  0  0  0  0  0  0  0  0  0  0  0
    8.2430    1.5170   -2.3250 C   0  0  0  0  0  0  0  0  0  0  0  0
    8.7380    1.7890   -1.0480 O   0  0  0  0  0  0  0  0  0  0  0  0
    5.8700    0.9860   -1.9320 O   0  0  0  0  0  0  0  0  0  0  0  0
    4.3620   -1.3600   -0.7940 C   0  0  0  0  0  0  0  0  0  0  0  0
    4.0930   -1.7900    0.6450 C   0  0  0  0  0  0  0  0  0  0  0  0
    3.1730   -0.9490    1.2610 O   0  0  0  0  0  0  0  0  0  0  0  0
   -4.3780    2.5830    3.1590 C   0  0  0  0  0  0  0  0  0  0  0  0
   -5.5510    3.3350    2.5060 C   0  0  0  0  0  0  0  0  0  0  0  0
   -6.5020    2.1810    2.2990 C   0  0  0  0  0  0  0  0  0  0  0  0
  1  2  2  0
  2  3  1  0
  3  4  1  0
  4  5  2  0
  4  9  1  0
  5  6  1  0
  6  7  2  0
  6 32  1  0
  7  8  1  0
  7 30  1  0
  8  9  2  0
  9 10  1  0
 10 11  1  0
 11 12  2  0
 11 13  1  0
 13 14  1  0
 15 14  1  6
 15 16  1  0
 15 29  1  0
 16 17  1  0
 17 18  1  0
 17 27  1  0
 18 19  2  0
 18 20  1  0
 20 21  2  0
 20 26  1  0
 21 22  1  0
 22 23  2  0
 23 24  1  0
 23 26  1  0
 24 25  1  0
 27 28  1  0
 28 29  1  0
 30 31  1  0
 31 32  1  0
M  END
