
     RDKit          3D

 32 35  0  0  0  0  0  0  0  0999 V2000
    9.8970   -2.1910    2.2350 C   0  0  0  0  0  0  0  0  0  0  0  0
    8.7830   -3.1370    2.3140 C   0  0  0  0  0  0  0  0  0  0  0  0
    7.5440   -2.7500    2.1490 C   0  0  0  0  0  0  0  0  0  0  0  0
    7.2440   -1.3580    1.8810 C   0  0  0  0  0  0  0  0  0  0  0  0
    5.9860   -0.9660    1.7150 C   0  0  0  0  0  0  0  0  0  0  0  0
    5.6160    0.4420    1.4390 C   0  0  0  0  0  0  0  0  0  0  0  0
    4.5150    0.4880    0.5520 O   0  0  0  0  0  0  0  0  0  0  0  0
    3.4740   -0.4460    0.6270 C   0  0  0  0  0  0  0  0  0  0  0  0
    2.2290   -0.1860    0.0870 C   0  0  0  0  0  0  0  0  0  0  0  0
    1.1950   -1.0960    0.1530 C   0  0  0  0  0  0  0  0  0  0  0  0
   -0.1220   -0.7250   -0.4580 C   0  0  2  0  0  0  0  0  0  0  0  0
   -0.0150   -0.7000   -1.9690 C   0  0  0  0  0  0  0  0  0  0  0  0
   -0.4100    0.6060   -0.0050 N   0  0  0  0  0  0  0  0  0  0  0  0
   -1.6760    1.0500   -0.5310 C   0  0  0  0  0  0  0  0  0  0  0  0
   -2.7880    0.2760    0.0940 C   0  0  1  0  0  0  0  0  0  0  0  0
   -2.7760    0.4090    1.4940 O   0  0  0  0  0  0  0  0  0  0  0  0
   -4.0870    0.7980   -0.3810 C   0  0  0  0  0  0  0  0  0  0  0  0
   -5.2460    0.3650    0.2090 C   0  0  0  0  0  0  0  0  0  0  0  0
   -6.4840    0.8280   -0.1920 C   0  0  0  0  0  0  0  0  0  0  0  0
   -6.5120    1.7400   -1.2060 C   0  0  0  0  0  0  0  0  0  0  0  0
   -5.3730    2.2190   -1.8460 C   0  0  0  0  0  0  0  0  0  0  0  0
   -5.4880    3.1620   -2.8830 N   0  0  0  0  0  0  0  0  0  0  0  0
   -4.4620    3.7200   -3.6400 C   0  0  0  0  0  0  0  0  0  0  0  0
   -3.2730    3.4170   -3.4630 O   0  0  0  0  0  0  0  0  0  0  0  0
   -4.1650    1.7180   -1.3990 C   0  0  0  0  0  0  0  0  0  0  0  0
   -7.8680    2.0590   -1.4370 O   0  0  0  0  0  0  0  0  0  0  0  0
   -8.6490    1.6910   -0.3200 C   0  0  0  0  0  0  0  0  0  0  0  0
   -7.8710    0.5400    0.2500 C   0  0  0  0  0  0  0  0  0  0  0  0
    1.4300   -2.2970    0.7820 C   0  0  0  0  0  0  0  0  0  0  0  0
    2.6780   -2.5450    1.3180 C   0  0  0  0  0  0  0  0  0  0  0  0
    3.7250   -1.6530    1.2650 C   0  0  0  0  0  0  0  0  0  0  0  0
    4.9740   -1.9040    1.8020 O   0  0  0  0  0  0  0  0  0  0  0  0
  1  2  1  0
  2  3  2  3
  3  4  1  0
  4  5  2  3
  5  6  1  0
  5 32  1  0
  6  7  1  0
  7  8  1  0
  8  9  2  0
  8 31  1  0
  9 10  1  0
 10 11  1  0
 10 29  2  0
 11 12  1  6
 11 13  1  0
 13 14  1  0
 14 15  1  0
 15 16  1  1
 15 17  1  0
 17 18  2  0
 17 25  1  0
 18 19  1  0
 19 20  2  0
 19 28  1  0
 20 21  1  0
 20 26  1  0
 21 22  1  0
 21 25  2  0
 22 23  1  0
 23 24  2  0
 26 27  1  0
 27 28  1  0
 29 30  1  0
 30 31  2  0
 31 32  1  0
M  END
