
     RDKit          3D

 32 35  0  0  0  0  0  0  0  0999 V2000
   -5.3340    3.4820    2.7080 C   0  0  0  0  0  0  0  0  0  0  0  0
   -5.0720    3.2930    1.3650 C   0  0  0  0  0  0  0  0  0  0  0  0
   -4.0910    2.1960    1.1330 C   0  0  0  0  0  0  0  0  0  0  0  0
   -3.0940    2.3240    0.2320 C   0  0  0  0  0  0  0  0  0  0  0  0
   -2.1960    1.2020    0.0850 C   0  0  0  0  0  0  0  0  0  0  0  0
   -1.0190    1.0650   -0.3910 C   0  0  0  0  0  0  0  0  0  0  0  0
    0.0350    1.9070   -0.9770 C   0  0  1  0  0  0  0  0  0  0  0  0
    0.0860    3.2720   -0.3540 C   0  0  0  0  0  0  0  0  0  0  0  0
    0.6070    2.8610    1.0460 C   0  0  0  0  0  0  0  0  0  0  0  0
    1.9250    2.3350    0.4220 C   0  0  0  0  0  0  0  0  0  0  0  0
    1.2990    1.2630   -0.4750 N   0  0  0  0  0  0  0  0  0  0  0  0
    1.8350    0.1170   -0.5530 C   0  0  0  0  0  0  0  0  0  0  0  0
    3.0090    0.0380    0.3200 O   0  0  0  0  0  0  0  0  0  0  0  0
    1.7980   -1.1930   -1.0990 N   0  0  0  0  0  0  0  0  0  0  0  0
    2.7390   -2.2380   -0.8150 C   0  0  0  0  0  0  0  0  0  0  0  0
    3.5360   -2.5890   -1.9100 C   0  0  0  0  0  0  0  0  0  0  0  0
    4.4960   -3.5020   -1.8060 C   0  0  0  0  0  0  0  0  0  0  0  0
    4.6680   -4.1050   -0.5310 C   0  0  0  0  0  0  0  0  0  0  0  0
    5.5950   -5.0120   -0.3880 C   0  0  0  0  0  0  0  0  0  0  0  0
    5.8790   -5.7000    0.7960 C   0  0  0  0  0  0  0  0  0  0  0  0
    5.0970   -5.3650    1.8770 C   0  0  0  0  0  0  0  0  0  0  0  0
    4.0560   -4.3500    1.7510 C   0  0  0  0  0  0  0  0  0  0  0  0
    3.9220   -3.7960    0.5450 C   0  0  0  0  0  0  0  0  0  0  0  0
    2.8360   -2.7410    0.3850 C   0  0  0  0  0  0  0  0  0  0  0  0
   -2.9250   -0.1090    0.4000 C   0  0  0  0  0  0  0  0  0  0  0  0
   -2.2490   -1.3910    0.1050 C   0  0  0  0  0  0  0  0  0  0  0  0
   -3.2940   -2.4460    0.3880 C   0  0  0  0  0  0  0  0  0  0  0  0
   -4.1210   -3.2690    0.5900 N   0  0  0  0  0  0  0  0  0  0  0  0
   -3.3910    3.3800   -0.7570 C   0  0  0  0  0  0  0  0  0  0  0  0
   -2.4470    3.5110   -2.2600 Cl  0  0  0  0  0  0  0  0  0  0  0  0
   -4.4730    4.1270   -0.7660 C   0  0  0  0  0  0  0  0  0  0  0  0
   -5.5930    3.9840    0.2350 C   0  0  0  0  0  0  0  0  0  0  0  0
  1  2  2  0
  2  3  1  0
  2 32  1  0
  3  4  2  0
  4  5  1  0
  4 29  1  0
  5  6  2  3
  5 25  1  0
  7  6  1  1
  7  8  1  0
  7 11  1  0
  8  9  1  0
  9 10  1  0
 10 11  1  0
 11 12  1  0
 12 13  2  0
 12 14  1  0
 14 15  1  0
 15 16  2  0
 15 24  1  0
 16 17  1  0
 17 18  2  0
 18 19  1  0
 18 23  1  0
 19 20  2  0
 20 21  1  0
 21 22  2  0
 22 23  1  0
 23 24  2  0
 25 26  1  0
 26 27  1  0
 27 28  3  0
 29 30  1  0
 29 31  2  0
 31 32  1  0
M  END
