
     RDKit          3D

 32 35  0  0  0  0  0  0  0  0999 V2000
    6.2390   -4.5240    0.5560 C   0  0  0  0  0  0  0  0  0  0  0  0
    5.2840   -3.3830    0.4000 C   0  0  0  0  0  0  0  0  0  0  0  0
    5.1360   -2.2700    1.2230 C   0  0  0  0  0  0  0  0  0  0  0  0
    4.1230   -1.5280    0.6290 C   0  0  0  0  0  0  0  0  0  0  0  0
    3.7210   -2.2120   -0.4920 C   0  0  0  0  0  0  0  0  0  0  0  0
    2.6780   -1.8160   -1.4370 C   0  0  0  0  0  0  0  0  0  0  0  0
    1.9550   -0.6410   -1.0560 N   0  0  0  0  0  0  0  0  0  0  0  0
    1.1980   -0.4730    0.1460 C   0  0  0  0  0  0  0  0  0  0  0  0
    1.1930   -1.4250    0.9540 O   0  0  0  0  0  0  0  0  0  0  0  0
    0.4720    0.7960    0.3800 C   0  0  0  0  0  0  0  0  0  0  0  0
    0.7210    1.5330    1.5270 C   0  0  0  0  0  0  0  0  0  0  0  0
    0.1750    2.7860    1.6680 C   0  0  0  0  0  0  0  0  0  0  0  0
   -0.6410    3.3800    0.6920 C   0  0  0  0  0  0  0  0  0  0  0  0
   -1.1720    4.7270    0.9290 C   0  0  0  0  0  0  0  0  0  0  0  0
   -1.9140    5.3320    0.0530 C   0  0  0  0  0  0  0  0  0  0  0  0
   -2.4840    6.7200    0.2520 C   0  0  0  0  0  0  0  0  0  0  0  0
   -2.0930    7.2200    1.4890 O   0  0  0  0  0  0  0  0  0  0  0  0
   -1.3130    6.5960    2.4200 C   0  0  0  0  0  0  0  0  0  0  0  0
   -0.8800    5.4180    2.1510 N   0  0  0  0  0  0  0  0  0  0  0  0
   -0.8760    2.6410   -0.4210 C   0  0  0  0  0  0  0  0  0  0  0  0
   -0.3270    1.3530   -0.5810 C   0  0  0  0  0  0  0  0  0  0  0  0
   -0.7910    0.5880   -1.7470 C   0  0  0  0  0  0  0  0  0  0  0  0
   -2.1200   -0.0950   -1.5100 C   0  0  0  0  0  0  0  0  0  0  0  0
   -2.2370   -1.0000   -0.3820 C   0  0  0  0  0  0  0  0  0  0  0  0
   -1.7940   -0.7580    0.7640 O   0  0  0  0  0  0  0  0  0  0  0  0
   -2.9160   -2.3110   -0.5350 C   0  0  0  0  0  0  0  0  0  0  0  0
   -3.4490   -2.7660   -1.6560 C   0  0  0  0  0  0  0  0  0  0  0  0
   -4.0340   -4.1160   -1.4030 C   0  0  0  0  0  0  0  0  0  0  0  0
   -3.7680   -4.3710    0.0170 C   0  0  0  0  0  0  0  0  0  0  0  0
   -3.1250   -3.3240    0.4990 C   0  0  0  0  0  0  0  0  0  0  0  0
   -2.6860   -3.1690    1.8240 O   0  0  0  0  0  0  0  0  0  0  0  0
    4.4420   -3.3170   -0.5930 O   0  0  0  0  0  0  0  0  0  0  0  0
  1  2  1  0
  2  3  2  0
  2 32  1  0
  3  4  1  0
  4  5  2  0
  5  6  1  0
  5 32  1  0
  6  7  1  0
  7  8  1  0
  8  9  2  0
  8 10  1  0
 10 11  2  0
 10 21  1  0
 11 12  1  0
 12 13  2  0
 13 14  1  0
 13 20  1  0
 14 15  2  0
 14 19  1  0
 15 16  1  0
 16 17  1  0
 17 18  1  0
 18 19  2  0
 20 21  2  0
 21 22  1  0
 22 23  1  0
 23 24  1  0
 24 25  2  0
 24 26  1  0
 26 27  2  0
 26 30  1  0
 27 28  1  0
 28 29  1  0
 29 30  2  0
 30 31  1  0
M  END
