
     RDKit          3D

 30 30  0  0  0  0  0  0  0  0999 V2000
   -5.3420   -2.8310    2.4430 C   0  0  0  0  0  0  0  0  0  0  0  0
   -4.3510   -2.0160    2.2060 C   0  0  0  0  0  0  0  0  0  0  0  0
   -3.1980   -1.9680    3.1380 C   0  0  0  0  0  0  0  0  0  0  0  0
   -3.4410   -2.9190    4.2710 C   0  0  0  0  0  0  0  0  0  0  0  0
   -4.3610   -1.1320    1.0680 C   0  0  0  0  0  0  0  0  0  0  0  0
   -3.3040   -0.3200    0.8810 C   0  0  0  0  0  0  0  0  0  0  0  0
   -3.2920    0.6000   -0.2740 C   0  0  0  0  0  0  0  0  0  0  0  0
   -2.2550    1.3760   -0.4510 C   0  0  0  0  0  0  0  0  0  0  0  0
   -1.1770    1.3280    0.4470 N   0  0  0  0  0  0  0  0  0  0  0  0
    0.2110    1.0570   -0.0340 C   0  0  0  0  0  0  0  0  0  0  0  0
    0.5270   -0.1620   -0.2610 C   0  0  0  0  0  0  0  0  0  0  0  0
    1.6250   -0.9640   -0.7130 C   0  0  1  0  0  0  0  0  0  0  0  0
    2.6460   -0.3170   -1.5470 C   0  0  0  0  0  0  0  0  0  0  0  0
    3.9240   -0.2520   -0.6940 C   0  0  0  0  0  0  0  0  0  0  0  0
    4.4500   -1.6710   -0.6800 C   0  0  2  0  0  0  0  0  0  0  0  0
    5.8030   -1.7560   -0.0050 C   0  0  0  0  0  0  0  0  0  0  0  0
    4.6350   -2.0110   -2.0360 O   0  0  0  0  0  0  0  0  0  0  0  0
    3.4160   -2.5700   -0.0820 C   0  0  0  0  0  0  0  0  0  0  0  0
    2.1920   -1.8580    0.4040 C   0  0  0  0  0  0  0  0  0  0  0  0
    1.0050    2.2300   -0.0910 C   0  0  0  0  0  0  0  0  0  0  0  0
    0.4200    3.3640    0.2570 O   0  0  0  0  0  0  0  0  0  0  0  0
    2.3030    2.4450   -0.4430 O   0  0  0  0  0  0  0  0  0  0  0  0
    2.9300    3.7300   -0.4290 C   0  0  0  0  0  0  0  0  0  0  0  0
    4.3580    3.6550   -0.8540 C   0  0  0  0  0  0  0  0  0  0  0  0
    5.0410    2.8240    0.0100 O   0  0  0  0  0  0  0  0  0  0  0  0
   -2.2950    2.3020   -1.6210 C   0  0  2  0  0  0  0  0  0  0  0  0
   -1.1740    2.1010   -2.5910 C   0  0  0  0  0  0  0  0  0  0  0  0
   -2.3730    3.6550   -1.1330 N   0  0  0  0  0  0  0  0  0  0  0  0
   -5.3550   -1.0630    0.1790 O   0  0  0  0  0  0  0  0  0  0  0  0
   -5.7880   -1.8840   -0.8360 C   0  0  0  0  0  0  0  0  0  0  0  0
  1  2  2  0
  2  3  1  0
  2  5  1  0
  3  4  1  0
  5  6  2  3
  5 29  1  0
  6  7  1  0
  7  8  2  3
  8  9  1  0
  8 26  1  0
  9 10  1  0
 10 11  2  3
 10 20  1  0
 12 11  1  1
 12 13  1  0
 12 19  1  0
 13 14  1  0
 14 15  1  0
 15 16  1  1
 15 17  1  0
 15 18  1  0
 18 19  1  0
 20 21  2  0
 20 22  1  0
 22 23  1  0
 23 24  1  0
 24 25  1  0
 26 27  1  1
 26 28  1  0
 29 30  1  0
M  CHG  1  28   1
M  END
