
     RDKit          3D

 28 30  0  0  0  0  0  0  0  0999 V2000
    6.3630    3.3320   -0.6310 C   0  0  0  0  0  0  0  0  0  0  0  0
    6.3800    1.9190   -0.6020 O   0  0  0  0  0  0  0  0  0  0  0  0
    5.2420    1.1730   -0.3610 C   0  0  0  0  0  0  0  0  0  0  0  0
    3.9980    1.7080   -0.1300 C   0  0  0  0  0  0  0  0  0  0  0  0
    2.8880    0.8940    0.1070 C   0  0  0  0  0  0  0  0  0  0  0  0
    3.0330   -0.4780    0.1100 C   0  0  0  0  0  0  0  0  0  0  0  0
    2.0000   -1.3480    0.3320 O   0  0  0  0  0  0  0  0  0  0  0  0
    0.7000   -1.0300    0.5800 C   0  0  0  0  0  0  0  0  0  0  0  0
    0.2580   -0.8390    1.8670 C   0  0  0  0  0  0  0  0  0  0  0  0
   -1.0760   -0.5120    2.1190 C   0  0  0  0  0  0  0  0  0  0  0  0
   -1.9800   -0.3740    1.0730 C   0  0  0  0  0  0  0  0  0  0  0  0
   -3.2660   -0.0620    1.2910 N   0  0  0  0  0  0  0  0  0  0  0  0
   -4.1880    0.0830    0.3130 C   0  0  0  0  0  0  0  0  0  0  0  0
   -5.5330    0.4480    0.6480 N   0  0  0  0  0  0  0  0  0  0  0  0
   -6.5980    0.4710   -0.2850 C   0  0  0  0  0  0  0  0  0  0  0  0
   -7.4080    1.7050   -0.4280 C   0  0  0  0  0  0  0  0  0  0  0  0
   -6.8410   -0.6030   -0.9440 N   0  0  0  0  0  0  0  0  0  0  0  0
   -6.1910   -1.8390   -0.8720 C   0  0  0  0  0  0  0  0  0  0  0  0
   -6.2620   -2.5540    0.1650 O   0  0  0  0  0  0  0  0  0  0  0  0
   -3.7430   -0.1070   -0.9660 C   0  0  0  0  0  0  0  0  0  0  0  0
   -2.4170   -0.4330   -1.2440 C   0  0  0  0  0  0  0  0  0  0  0  0
   -1.5260   -0.5690   -0.2230 C   0  0  0  0  0  0  0  0  0  0  0  0
   -0.1870   -0.8960   -0.4610 C   0  0  0  0  0  0  0  0  0  0  0  0
    4.2920   -1.0190   -0.1250 C   0  0  0  0  0  0  0  0  0  0  0  0
    4.4990   -2.4620   -0.1320 C   0  0  0  0  0  0  0  0  0  0  0  0
    5.7850   -3.0080   -0.3720 N   0  0  0  0  0  0  0  0  0  0  0  0
    3.4880   -3.1970    0.0830 O   0  0  0  0  0  0  0  0  0  0  0  0
    5.3810   -0.2070   -0.3570 C   0  0  0  0  0  0  0  0  0  0  0  0
  1  2  1  0
  2  3  1  0
  3  4  2  0
  3 28  1  0
  4  5  1  0
  5  6  2  0
  6  7  1  0
  6 24  1  0
  7  8  1  0
  8  9  2  0
  8 23  1  0
  9 10  1  0
 10 11  2  0
 11 12  1  0
 11 22  1  0
 12 13  2  0
 13 14  1  0
 13 20  1  0
 14 15  1  0
 15 16  1  0
 15 17  2  3
 17 18  1  0
 18 19  2  0
 20 21  2  0
 21 22  1  0
 22 23  2  0
 24 25  1  0
 24 28  2  0
 25 26  1  0
 25 27  2  0
M  END
