
     RDKit          3D

 30 31  0  0  0  0  0  0  0  0999 V2000
   -3.7590    4.6630    2.0420 C   0  0  0  0  0  0  0  0  0  0  0  0
   -3.2320    3.7270    1.0810 N   0  0  0  0  0  0  0  0  0  0  0  0
   -3.2600    2.3540    1.6260 C   0  0  0  0  0  0  0  0  0  0  0  0
   -2.7020    1.4740    0.5750 C   0  0  0  0  0  0  0  0  0  0  0  0
   -2.6100    0.0070    0.9010 C   0  0  2  0  0  0  0  0  0  0  0  0
   -2.0330   -0.6460   -0.2860 C   0  0  0  0  0  0  0  0  0  0  0  0
   -1.8380    0.0040   -1.3780 O   0  0  0  0  0  0  0  0  0  0  0  0
   -1.6440   -1.9780   -0.3820 O   0  0  0  0  0  0  0  0  0  0  0  0
   -1.1040   -2.5370   -1.5320 C   0  0  0  0  0  0  0  0  0  0  0  0
   -1.9490   -3.0290   -2.5050 C   0  0  0  0  0  0  0  0  0  0  0  0
   -1.4050   -3.5840   -3.6470 C   0  0  0  0  0  0  0  0  0  0  0  0
   -0.0420   -3.6490   -3.8200 C   0  0  0  0  0  0  0  0  0  0  0  0
    0.7840   -3.1370   -2.8070 C   0  0  0  0  0  0  0  0  0  0  0  0
    0.2910   -2.5760   -1.6550 C   0  0  0  0  0  0  0  0  0  0  0  0
    0.9920   -2.0520   -0.6130 O   0  0  0  0  0  0  0  0  0  0  0  0
    2.3800   -2.0020   -0.5570 C   0  0  2  0  0  0  0  0  0  0  0  0
    2.9240   -3.0100    0.4670 C   0  0  0  0  0  0  0  0  0  0  0  0
    2.9380   -0.6510   -0.2830 C   0  0  0  0  0  0  0  0  0  0  0  0
    3.7310   -0.4310    0.8440 C   0  0  0  0  0  0  0  0  0  0  0  0
    4.2740    0.8070    1.1450 C   0  0  0  0  0  0  0  0  0  0  0  0
    4.0300    1.8740    0.3070 C   0  0  0  0  0  0  0  0  0  0  0  0
    4.5980    3.2210    0.5950 C   0  0  0  0  0  0  0  0  0  0  0  0
    5.3980    3.1500    1.8010 N   0  0  0  0  0  0  0  0  0  0  0  0
    3.2500    1.6570   -0.8020 C   0  0  0  0  0  0  0  0  0  0  0  0
    2.6950    0.4110   -1.1170 C   0  0  0  0  0  0  0  0  0  0  0  0
    1.8770    0.2840   -2.3270 C   0  0  0  0  0  0  0  0  0  0  0  0
   -3.8730   -0.5730    1.4240 C   0  0  2  0  0  0  0  0  0  0  0  0
   -4.2910    0.0470    2.6050 O   0  0  0  0  0  0  0  0  0  0  0  0
   -3.6740   -2.0680    1.6680 C   0  0  0  0  0  0  0  0  0  0  0  0
   -4.8960   -2.6280    2.1330 O   0  0  0  0  0  0  0  0  0  0  0  0
  1  2  1  0
  2  3  1  0
  3  4  1  0
  5  4  1  6
  5  6  1  0
  5 27  1  0
  6  7  2  0
  6  8  1  0
  8  9  1  0
  9 10  2  0
  9 14  1  0
 10 11  1  0
 11 12  2  0
 12 13  1  0
 13 14  2  0
 14 15  1  0
 15 16  1  0
 16 17  1  1
 16 18  1  0
 18 19  2  0
 18 25  1  0
 19 20  1  0
 20 21  2  0
 21 22  1  0
 21 24  1  0
 22 23  1  0
 24 25  2  0
 25 26  1  0
 27 28  1  1
 27 29  1  0
 29 30  1  0
M  CHG  1  23   1
M  END
