
     RDKit          3D

 30 31  0  0  0  0  0  0  0  0999 V2000
   -1.1020    1.3530    0.8900 C   0  0  0  0  0  0  0  0  0  0  0  0
   -1.6740    0.4600   -0.1600 C   0  0  0  0  0  0  0  0  0  0  0  0
   -1.1100   -0.6030   -0.6220 C   0  0  0  0  0  0  0  0  0  0  0  0
   -1.9740   -1.3300   -1.7000 C   0  0  0  0  0  0  0  0  0  0  0  0
   -2.2530   -2.6800   -1.2660 N   0  0  0  0  0  0  0  0  0  0  0  0
    0.1700   -1.2230   -0.4990 C   0  0  0  0  0  0  0  0  0  0  0  0
    0.1760   -2.4310   -1.0890 O   0  0  0  0  0  0  0  0  0  0  0  0
    1.4270   -0.8750    0.0920 C   0  0  0  0  0  0  0  0  0  0  0  0
    2.3070   -1.9400    0.3870 C   0  0  0  0  0  0  0  0  0  0  0  0
    3.5790   -1.7310    0.8620 C   0  0  0  0  0  0  0  0  0  0  0  0
    4.0700   -0.4680    1.0780 C   0  0  0  0  0  0  0  0  0  0  0  0
    5.4640   -0.2890    1.5990 C   0  0  1  0  0  0  0  0  0  0  0  0
    5.5540   -1.2320    2.6510 O   0  0  0  0  0  0  0  0  0  0  0  0
    6.4850   -0.6720    0.5810 C   0  0  0  0  0  0  0  0  0  0  0  0
    7.9060   -0.5170    1.0130 C   0  0  0  0  0  0  0  0  0  0  0  0
    8.3100   -1.3180    2.2050 C   0  0  0  0  0  0  0  0  0  0  0  0
    9.6690   -1.0440    2.4440 O   0  0  0  0  0  0  0  0  0  0  0  0
    3.2530    0.5870    0.8040 C   0  0  0  0  0  0  0  0  0  0  0  0
    1.9600    0.3600    0.3200 C   0  0  0  0  0  0  0  0  0  0  0  0
   -2.9600    0.9780   -0.6290 N   0  0  0  0  0  0  0  0  0  0  0  0
   -3.0730    1.9080   -1.7070 C   0  0  1  0  0  0  0  0  0  0  0  0
   -2.5930    3.3080   -1.2490 C   0  0  0  0  0  0  0  0  0  0  0  0
   -2.2270    1.6310   -2.9300 C   0  0  0  0  0  0  0  0  0  0  0  0
   -2.5170    2.7280   -3.7970 O   0  0  0  0  0  0  0  0  0  0  0  0
   -4.1200    0.6120    0.1290 C   0  0  1  0  0  0  0  0  0  0  0  0
   -5.4290    1.0990   -0.4230 C   0  0  0  0  0  0  0  0  0  0  0  0
   -6.4670    0.9430    0.7020 C   0  0  0  0  0  0  0  0  0  0  0  0
   -6.4410   -0.4770    1.1720 C   0  0  0  0  0  0  0  0  0  0  0  0
   -5.1720   -0.8660    1.6060 O   0  0  0  0  0  0  0  0  0  0  0  0
   -4.2600   -0.8110    0.5270 C   0  0  0  0  0  0  0  0  0  0  0  0
  1  2  1  0
  2  3  2  3
  2 20  1  0
  3  4  1  0
  3  6  1  0
  4  5  1  0
  6  7  2  0
  6  8  1  0
  8  9  2  0
  8 19  1  0
  9 10  1  0
 10 11  2  0
 11 12  1  0
 11 18  1  0
 12 13  1  1
 12 14  1  0
 14 15  1  0
 15 16  1  0
 16 17  1  0
 18 19  2  0
 20 21  1  0
 25 20  1  6
 21 22  1  1
 21 23  1  0
 23 24  1  0
 25 26  1  0
 25 30  1  0
 26 27  1  0
 27 28  1  0
 28 29  1  0
 29 30  1  0
M  CHG  1   5   1
M  END
