
     RDKit          3D

 30 31  0  0  0  0  0  0  0  0999 V2000
   -3.9400   -2.5760   -2.0190 C   0  0  0  0  0  0  0  0  0  0  0  0
   -3.5490   -1.5110   -2.6730 C   0  0  0  0  0  0  0  0  0  0  0  0
   -2.6330   -0.4580   -2.1600 C   0  0  0  0  0  0  0  0  0  0  0  0
   -2.2170   -0.6690   -0.7820 N   0  0  0  0  0  0  0  0  0  0  0  0
   -0.7740   -0.5810   -0.7200 C   0  0  0  0  0  0  0  0  0  0  0  0
   -0.0510   -0.8870    0.5020 C   0  0  2  0  0  0  0  0  0  0  0  0
   -0.7290   -2.2060    1.0580 C   0  0  0  0  0  0  0  0  0  0  0  0
   -0.1950   -0.0400    1.5820 O   0  0  0  0  0  0  0  0  0  0  0  0
    1.4150   -1.2640    0.3820 C   0  0  1  0  0  0  0  0  0  0  0  0
    1.6930   -1.9490    1.6320 N   0  0  0  0  0  0  0  0  0  0  0  0
    1.6650   -2.2080   -0.7430 C   0  0  0  0  0  0  0  0  0  0  0  0
    2.8570   -2.8100   -0.8820 O   0  0  0  0  0  0  0  0  0  0  0  0
    4.0160   -2.1870   -1.0820 C   0  0  0  0  0  0  0  0  0  0  0  0
    2.3180   -0.0840    0.2860 C   0  0  0  0  0  0  0  0  0  0  0  0
    2.2970    0.7180   -0.8550 C   0  0  0  0  0  0  0  0  0  0  0  0
    3.1510    1.8220   -0.9900 C   0  0  0  0  0  0  0  0  0  0  0  0
    4.0210    2.1310   -0.0020 C   0  0  0  0  0  0  0  0  0  0  0  0
    4.0720    1.3670    1.1360 C   0  0  0  0  0  0  0  0  0  0  0  0
    3.2310    0.2890    1.2600 C   0  0  0  0  0  0  0  0  0  0  0  0
    5.0680    1.6500    2.2070 C   0  0  0  0  0  0  0  0  0  0  0  0
    6.0590    2.5280    1.8580 O   0  0  0  0  0  0  0  0  0  0  0  0
    6.2930    2.6300    0.5010 C   0  0  0  0  0  0  0  0  0  0  0  0
    4.9980    3.2790   -0.0620 C   0  0  0  0  0  0  0  0  0  0  0  0
   -2.8630    0.1650    0.1570 C   0  0  0  0  0  0  0  0  0  0  0  0
   -4.2860    0.0180    0.4500 C   0  0  2  0  0  0  0  0  0  0  0  0
   -4.4540    0.8500    1.8100 C   0  0  0  0  0  0  0  0  0  0  0  0
   -4.6980   -1.2330    0.9120 O   0  0  0  0  0  0  0  0  0  0  0  0
   -5.2840    0.6560   -0.4480 C   0  0  0  0  0  0  0  0  0  0  0  0
   -5.2560    2.1410   -0.5690 C   0  0  0  0  0  0  0  0  0  0  0  0
   -4.0820    2.6630   -1.0620 O   0  0  0  0  0  0  0  0  0  0  0  0
  1  2  2  0
  2  3  1  0
  3  4  1  0
  4  5  1  0
  4 24  1  0
  5  6  1  0
  6  7  1  1
  6  8  1  0
  6  9  1  0
  9 10  1  1
  9 11  1  0
  9 14  1  0
 11 12  1  0
 12 13  1  0
 14 15  2  0
 14 19  1  0
 15 16  1  0
 16 17  2  0
 17 18  1  0
 17 23  1  0
 18 19  2  0
 18 20  1  0
 20 21  1  0
 21 22  1  0
 22 23  1  0
 24 25  1  0
 25 26  1  1
 25 27  1  0
 25 28  1  0
 28 29  1  0
 29 30  1  0
M  CHG  1  10   1
M  END
