
     RDKit          3D

 35 38  0  0  0  0  0  0  0  0999 V2000
    6.6470    2.7980    2.2340 C   0  0  0  0  0  0  0  0  0  0  0  0
    6.4330    2.6550    0.7480 C   0  0  0  0  0  0  0  0  0  0  0  0
    5.0560    2.0870    0.5420 C   0  0  1  0  0  0  0  0  0  0  0  0
    4.7270    1.8980   -0.9350 C   0  0  0  0  0  0  0  0  0  0  0  0
    3.2780    1.5100   -0.9850 C   0  0  0  0  0  0  0  0  0  0  0  0
    3.0520    0.0840   -0.4410 C   0  0  2  0  0  0  0  0  0  0  0  0
    3.8690   -0.8150   -1.2850 C   0  0  0  0  0  0  0  0  0  0  0  0
    3.3170   -2.1340   -1.6220 C   0  0  1  0  0  0  0  0  0  0  0  0
    4.2590   -3.2610   -1.1230 C   0  0  0  0  0  0  0  0  0  0  0  0
    1.9850   -2.4890   -1.0190 C   0  0  0  0  0  0  0  0  0  0  0  0
    1.0430   -1.3410   -1.1120 C   0  0  1  0  0  0  0  0  0  0  0  0
    0.9430   -0.9560   -2.5720 C   0  0  0  0  0  0  0  0  0  0  0  0
   -0.2860   -1.7560   -0.5080 C   0  0  2  0  0  0  0  0  0  0  0  0
   -0.1720   -2.1320    0.9530 C   0  0  0  0  0  0  0  0  0  0  0  0
   -0.6730   -2.9980   -1.1000 O   0  0  0  0  0  0  0  0  0  0  0  0
   -1.3820   -0.7590   -0.6060 C   0  0  1  0  0  0  0  0  0  0  0  0
   -1.8580   -0.3200   -1.9270 C   0  0  0  0  0  0  0  0  0  0  0  0
   -3.4100   -0.2840   -1.9600 C   0  0  0  0  0  0  0  0  0  0  0  0
   -3.7690    0.5750   -0.9490 O   0  0  0  0  0  0  0  0  0  0  0  0
   -3.6360   -0.0820    0.2510 C   0  0  1  0  0  0  0  0  0  0  0  0
   -3.2640    0.8780    1.3400 C   0  0  0  0  0  0  0  0  0  0  0  0
   -4.3920    1.7080    1.8520 C   0  0  1  0  0  0  0  0  0  0  0  0
   -3.7720    2.9640    2.4810 C   0  0  0  0  0  0  0  0  0  0  0  0
   -5.3570    2.1730    0.8130 C   0  0  0  0  0  0  0  0  0  0  0  0
   -6.5020    1.2230    0.5950 C   0  0  0  0  0  0  0  0  0  0  0  0
   -6.0850   -0.0330   -0.1350 C   0  0  2  0  0  0  0  0  0  0  0  0
   -7.2210   -0.9630   -0.1920 C   0  0  0  0  0  0  0  0  0  0  0  0
   -7.6670   -1.3310   -1.2970 O   0  0  0  0  0  0  0  0  0  0  0  0
   -7.8040   -1.4360    0.9630 O   0  0  0  0  0  0  0  0  0  0  0  0
   -4.9570   -0.7410    0.5880 C   0  0  0  0  0  0  0  0  0  0  0  0
   -2.6010   -1.1970    0.1990 C   0  0  0  0  0  0  0  0  0  0  0  0
    1.5930   -0.1140   -0.4250 C   0  0  0  0  0  0  0  0  0  0  0  0
    3.6000    0.1120    0.9870 C   0  0  1  0  0  0  0  0  0  0  0  0
    3.5740   -1.1520    1.5610 O   0  0  0  0  0  0  0  0  0  0  0  0
    4.9650    0.6670    1.1180 C   0  0  0  0  0  0  0  0  0  0  0  0
  1  2  1  0
  3  2  1  6
  3  4  1  0
  3 35  1  0
  4  5  1  0
  6  5  1  6
  6  7  1  0
  6 32  1  0
  6 33  1  0
  7  8  1  0
  8  9  1  1
  8 10  1  0
 10 11  1  0
 11 12  1  6
 11 13  1  0
 11 32  1  0
 13 14  1  1
 13 15  1  0
 13 16  1  0
 16 17  1  6
 16 31  1  0
 17 18  1  0
 18 19  1  0
 19 20  1  0
 20 21  1  1
 20 30  1  0
 20 31  1  0
 21 22  1  0
 22 23  1  6
 22 24  1  0
 24 25  1  0
 25 26  1  0
 26 27  1  1
 26 30  1  0
 27 28  2  0
 27 29  1  0
 33 34  1  6
 33 35  1  0
M  END
