
     RDKit          3D

 35 38  0  0  0  0  0  0  0  0999 V2000
    8.4760    2.2240   -0.3460 C   0  0  0  0  0  0  0  0  0  0  0  0
    8.0470    2.0260    1.0760 C   0  0  0  0  0  0  0  0  0  0  0  0
    6.6760    1.8160    1.2410 O   0  0  0  0  0  0  0  0  0  0  0  0
    5.9780    0.7540    0.6850 C   0  0  0  0  0  0  0  0  0  0  0  0
    6.5880   -0.2090   -0.0880 C   0  0  0  0  0  0  0  0  0  0  0  0
    5.9090   -1.2600   -0.6400 C   0  0  0  0  0  0  0  0  0  0  0  0
    4.5320   -1.3780   -0.4200 C   0  0  0  0  0  0  0  0  0  0  0  0
    3.8710   -2.4930   -0.9610 N   0  0  0  0  0  0  0  0  0  0  0  0
    3.8930   -0.4390    0.3410 C   0  0  0  0  0  0  0  0  0  0  0  0
    2.4660   -0.4020    0.5980 C   0  0  0  0  0  0  0  0  0  0  0  0
    2.0800    0.1680    1.6810 O   0  0  0  0  0  0  0  0  0  0  0  0
    1.4790   -0.9370   -0.2520 N   0  0  0  0  0  0  0  0  0  0  0  0
    0.1240   -0.8090    0.1730 N   0  0  0  0  0  0  0  0  0  0  0  0
   -0.5550    0.2450   -0.0860 C   0  0  0  0  0  0  0  0  0  0  0  0
   -0.0240    1.3720   -0.8140 C   0  0  0  0  0  0  0  0  0  0  0  0
    1.1270    1.5410   -1.3070 O   0  0  0  0  0  0  0  0  0  0  0  0
   -1.0790    2.3490   -0.9010 N   0  0  0  0  0  0  0  0  0  0  0  0
   -2.2570    1.8730   -0.2540 C   0  0  0  0  0  0  0  0  0  0  0  0
   -3.4250    2.4400   -0.1280 C   0  0  0  0  0  0  0  0  0  0  0  0
   -3.8460    3.7440   -0.6210 C   0  0  0  0  0  0  0  0  0  0  0  0
   -5.0620    4.1990   -0.4230 N   0  0  0  0  0  0  0  0  0  0  0  0
   -5.2170    5.4940   -1.0030 C   0  0  0  0  0  0  0  0  0  0  0  0
   -3.9420    5.7500   -1.5680 N   0  0  0  0  0  0  0  0  0  0  0  0
   -3.1290    4.7410   -1.3560 C   0  0  0  0  0  0  0  0  0  0  0  0
   -4.5260    1.6670    0.5460 C   0  0  0  0  0  0  0  0  0  0  0  0
   -4.1090    0.4500    1.1010 N   0  0  0  0  0  0  0  0  0  0  0  0
   -2.8560   -0.1870    0.9350 C   0  0  0  0  0  0  0  0  0  0  0  0
   -2.5860   -1.5090    1.4770 C   0  0  0  0  0  0  0  0  0  0  0  0
   -3.2530   -2.6790    0.8150 C   0  0  1  0  0  0  0  0  0  0  0  0
   -2.8360   -2.7800   -0.6480 C   0  0  0  0  0  0  0  0  0  0  0  0
   -2.6680   -3.9490    1.4580 C   0  0  0  0  0  0  0  0  0  0  0  0
   -4.7290   -2.7820    0.9770 C   0  0  0  0  0  0  0  0  0  0  0  0
   -5.2690   -4.0450    0.2670 C   0  0  0  0  0  0  0  0  0  0  0  0
   -1.9390    0.5180    0.2820 C   0  0  0  0  0  0  0  0  0  0  0  0
    4.6330    0.6280    0.8920 C   0  0  0  0  0  0  0  0  0  0  0  0
  1  2  1  0
  2  3  1  0
  3  4  1  0
  4  5  2  0
  4 35  1  0
  5  6  1  0
  6  7  2  0
  7  8  1  0
  7  9  1  0
  9 10  1  0
  9 35  2  0
 10 11  2  0
 10 12  1  0
 12 13  1  0
 13 14  2  3
 14 15  1  0
 14 34  1  0
 15 16  2  0
 15 17  1  0
 17 18  1  0
 18 19  2  0
 18 34  1  0
 19 20  1  0
 19 25  1  0
 20 21  2  0
 20 24  1  0
 21 22  1  0
 22 23  1  0
 23 24  2  0
 25 26  1  0
 26 27  1  0
 27 28  1  0
 27 34  2  0
 28 29  1  0
 29 30  1  6
 29 31  1  0
 29 32  1  0
 32 33  1  0
M  CHG  1   8   1
M  END
