
     RDKit          3D

 35 38  0  0  0  0  0  0  0  0999 V2000
    3.3020   -0.1740   -6.9950 C   0  0  0  0  0  0  0  0  0  0  0  0
    3.1430    0.8280   -6.0280 O   0  0  0  0  0  0  0  0  0  0  0  0
    2.9620    0.6050   -4.6760 C   0  0  0  0  0  0  0  0  0  0  0  0
    2.9130   -0.6390   -4.0930 C   0  0  0  0  0  0  0  0  0  0  0  0
    2.7270   -0.7680   -2.7160 C   0  0  0  0  0  0  0  0  0  0  0  0
    2.5870    0.3320   -1.9020 C   0  0  0  0  0  0  0  0  0  0  0  0
    2.3930    0.1690   -0.4690 C   0  0  0  0  0  0  0  0  0  0  0  0
    1.0090    0.0990   -0.0940 O   0  0  0  0  0  0  0  0  0  0  0  0
    0.7340   -0.0600    1.2730 C   0  0  0  0  0  0  0  0  0  0  0  0
    1.5300   -0.7070    2.1400 C   0  0  0  0  0  0  0  0  0  0  0  0
    0.9570   -0.6920    3.4750 C   0  0  0  0  0  0  0  0  0  0  0  0
    1.4740   -1.2600    4.6760 N   0  0  0  0  0  0  0  0  0  0  0  0
    0.6320   -1.6530    5.7850 C   0  0  0  0  0  0  0  0  0  0  0  0
   -0.3430   -2.6840    5.4320 C   0  0  0  0  0  0  0  0  0  0  0  0
   -1.6330   -2.3360    5.1210 C   0  0  0  0  0  0  0  0  0  0  0  0
   -2.5810   -3.2960    4.7780 C   0  0  0  0  0  0  0  0  0  0  0  0
   -2.1410   -4.5750    4.7750 N   0  0  0  0  0  0  0  0  0  0  0  0
   -0.9010   -4.9490    5.0690 C   0  0  0  0  0  0  0  0  0  0  0  0
   -0.4670   -6.2770    5.0590 O   0  0  0  0  0  0  0  0  0  0  0  0
   -0.0070   -3.9790    5.3990 N   0  0  0  0  0  0  0  0  0  0  0  0
   -0.1430   -0.0580    3.4120 N   0  0  0  0  0  0  0  0  0  0  0  0
   -0.3970    0.3960    2.0560 C   0  0  0  0  0  0  0  0  0  0  0  0
   -1.4570    1.0810    1.6700 C   0  0  0  0  0  0  0  0  0  0  0  0
   -2.4480    1.3840    2.7770 C   0  0  0  0  0  0  0  0  0  0  0  0
   -1.7710    1.5630    0.3560 C   0  0  0  0  0  0  0  0  0  0  0  0
   -3.0250    2.2970    0.2240 N   0  0  0  0  0  0  0  0  0  0  0  0
   -1.0560    1.4080   -0.7060 N   0  0  0  0  0  0  0  0  0  0  0  0
   -1.4950    1.9410   -1.9420 C   0  0  0  0  0  0  0  0  0  0  0  0
   -2.6820    1.5910   -2.4390 C   0  0  0  0  0  0  0  0  0  0  0  0
   -3.1500    2.1270   -3.7050 C   0  0  0  0  0  0  0  0  0  0  0  0
   -2.4640    2.9690   -4.4350 C   0  0  0  0  0  0  0  0  0  0  0  0
   -1.1380    3.4170   -3.9710 C   0  0  0  0  0  0  0  0  0  0  0  0
   -0.7380    2.8540   -2.7180 N   0  0  0  0  0  0  0  0  0  0  0  0
    2.6340    1.5820   -2.4670 C   0  0  0  0  0  0  0  0  0  0  0  0
    2.8190    1.7050   -3.8300 C   0  0  0  0  0  0  0  0  0  0  0  0
  1  2  1  0
  2  3  1  0
  3  4  2  0
  3 35  1  0
  4  5  1  0
  5  6  2  0
  6  7  1  0
  6 34  1  0
  7  8  1  0
  8  9  1  0
  9 10  2  0
  9 22  1  0
 10 11  1  0
 11 12  1  0
 11 21  2  0
 12 13  1  0
 13 14  1  0
 14 15  2  0
 14 20  1  0
 15 16  1  0
 16 17  2  0
 17 18  1  0
 18 19  1  0
 18 20  2  0
 21 22  1  0
 22 23  2  3
 23 24  1  0
 23 25  1  0
 25 26  1  0
 25 27  2  3
 27 28  1  0
 28 29  2  0
 28 33  1  0
 29 30  1  0
 30 31  2  0
 31 32  1  0
 32 33  1  0
 34 35  2  0
M  CHG  1  17   1
M  END
