
     RDKit          3D

 35 38  0  0  0  0  0  0  0  0999 V2000
    0.1340   -1.2850   -2.4800 C   0  0  0  0  0  0  0  0  0  0  0  0
    0.0100   -2.0400   -1.2580 C   0  0  0  0  0  0  0  0  0  0  0  0
   -0.2880   -1.4470    0.0950 C   0  0  2  0  0  0  0  0  0  0  0  0
   -0.3630   -2.7660    0.9460 C   0  0  0  0  0  0  0  0  0  0  0  0
   -0.3680   -4.0620    0.3040 C   0  0  0  0  0  0  0  0  0  0  0  0
   -1.6810   -4.6730   -0.0910 C   0  0  0  0  0  0  0  0  0  0  0  0
   -2.8890   -3.7990   -0.0890 C   0  0  0  0  0  0  0  0  0  0  0  0
   -2.9220   -2.6820   -1.0500 C   0  0  0  0  0  0  0  0  0  0  0  0
   -2.6690   -1.3130   -0.6420 C   0  0  0  0  0  0  0  0  0  0  0  0
   -1.5940   -0.8120    0.2760 C   0  0  1  0  0  0  0  0  0  0  0  0
   -2.1420   -1.2390    1.5300 O   0  0  0  0  0  0  0  0  0  0  0  0
   -1.8380    0.6500    0.4880 C   0  0  2  0  0  0  0  0  0  0  0  0
   -1.5390    1.2510    1.7820 C   0  0  0  0  0  0  0  0  0  0  0  0
   -3.3750    0.8610    0.3170 C   0  0  0  0  0  0  0  0  0  0  0  0
   -3.7630    2.2920    0.6440 C   0  0  0  0  0  0  0  0  0  0  0  0
   -3.0560    3.3420   -0.1150 C   0  0  0  0  0  0  0  0  0  0  0  0
   -1.5890    3.0130   -0.3380 C   0  0  1  0  0  0  0  0  0  0  0  0
   -1.3780    1.5660   -0.5980 C   0  0  0  0  0  0  0  0  0  0  0  0
   -1.0450    3.7630   -1.5580 C   0  0  1  0  0  0  0  0  0  0  0  0
   -0.4480    4.9370   -1.1010 O   0  0  0  0  0  0  0  0  0  0  0  0
    0.0140    3.0030   -2.2720 C   0  0  0  0  0  0  0  0  0  0  0  0
    1.2610    2.8130   -1.8980 C   0  0  0  0  0  0  0  0  0  0  0  0
    1.9640    3.2770   -0.6980 C   0  0  0  0  0  0  0  0  0  0  0  0
    1.8840    2.3410    0.4980 C   0  0  0  0  0  0  0  0  0  0  0  0
    2.6350    1.0860    0.3300 C   0  0  1  0  0  0  0  0  0  0  0  0
    3.5920    1.4150   -0.7120 O   0  0  0  0  0  0  0  0  0  0  0  0
    3.4850    0.8320    1.5090 C   0  0  0  0  0  0  0  0  0  0  0  0
    2.9420    0.5090    2.5820 O   0  0  0  0  0  0  0  0  0  0  0  0
    4.8650    0.9250    1.5300 O   0  0  0  0  0  0  0  0  0  0  0  0
    5.6190    0.6760    2.6760 C   0  0  0  0  0  0  0  0  0  0  0  0
    1.9480   -0.1180   -0.2620 C   0  0  1  0  0  0  0  0  0  0  0  0
    3.1500   -0.9660   -0.6800 C   0  0  0  0  0  0  0  0  0  0  0  0
    3.2880   -1.8530    0.4800 C   0  0  0  0  0  0  0  0  0  0  0  0
    1.9370   -1.9870    1.1000 C   0  0  0  0  0  0  0  0  0  0  0  0
    1.0140   -0.8690    0.5500 C   0  0  2  0  0  0  0  0  0  0  0  0
  1  2  1  0
  3  2  1  6
  3  4  1  0
  3 10  1  0
  3 35  1  0
  4  5  1  0
  5  6  1  0
  6  7  1  0
  7  8  1  0
  8  9  1  0
  9 10  1  0
 10 11  1  1
 10 12  1  0
 12 13  1  1
 12 14  1  0
 12 18  1  0
 14 15  1  0
 15 16  1  0
 17 16  1  6
 17 18  1  0
 17 19  1  0
 19 20  1  1
 19 21  1  0
 21 22  2  0
 22 23  1  0
 23 24  1  0
 24 25  1  0
 25 26  1  6
 25 27  1  0
 25 31  1  0
 27 28  2  0
 27 29  1  0
 29 30  1  0
 31 32  1  1
 31 35  1  0
 32 33  1  0
 33 34  1  0
 35 34  1  6
M  END
