
     RDKit          3D

 34 38  0  0  0  0  0  0  0  0999 V2000
   -3.3240    3.2830    0.2570 C   0  0  0  0  0  0  0  0  0  0  0  0
   -3.5310    1.7850    0.6050 C   0  0  0  0  0  0  0  0  0  0  0  0
   -3.5420    0.9740   -0.5860 C   0  0  0  0  0  0  0  0  0  0  0  0
   -2.7920   -0.0170   -0.8900 C   0  0  0  0  0  0  0  0  0  0  0  0
   -1.6980   -0.7590   -0.3040 C   0  0  1  0  0  0  0  0  0  0  0  0
   -0.7270   -0.1710    0.6730 C   0  0  2  0  0  0  0  0  0  0  0  0
   -1.0220   -0.1880    2.1140 C   0  0  0  0  0  0  0  0  0  0  0  0
   -0.1180    0.5600    3.0550 C   0  0  0  0  0  0  0  0  0  0  0  0
   -0.7100    0.3480    4.3440 O   0  0  0  0  0  0  0  0  0  0  0  0
   -0.2200    1.1220    0.1160 C   0  0  0  0  0  0  0  0  0  0  0  0
    1.1260    1.0990   -0.5100 C   0  0  0  0  0  0  0  0  0  0  0  0
    2.1670    0.5590    0.4220 C   0  0  2  0  0  0  0  0  0  0  0  0
    3.5710    0.7640   -0.0510 C   0  0  2  0  0  0  0  0  0  0  0  0
    3.7620    2.2840   -0.1810 C   0  0  0  0  0  0  0  0  0  0  0  0
    5.2670    2.5720   -0.2780 C   0  0  0  0  0  0  0  0  0  0  0  0
    5.7240    1.9380   -1.5740 C   0  0  0  0  0  0  0  0  0  0  0  0
    5.4540    0.4540   -1.5360 C   0  0  0  0  0  0  0  0  0  0  0  0
    3.9500    0.1800   -1.3520 C   0  0  2  0  0  0  0  0  0  0  0  0
    3.2780    0.7510   -2.4310 O   0  0  0  0  0  0  0  0  0  0  0  0
    1.8120   -0.8680    0.7140 C   0  0  1  0  0  0  0  0  0  0  0  0
    2.5640   -1.4010    1.8760 C   0  0  0  0  0  0  0  0  0  0  0  0
    0.4240   -1.2160    0.4840 C   0  0  1  0  0  0  0  0  0  0  0  0
    0.0120   -2.6110    0.8770 C   0  0  2  0  0  0  0  0  0  0  0  0
    0.1730   -3.5060   -0.4020 C   0  0  0  0  0  0  0  0  0  0  0  0
   -1.0690   -3.0460   -1.1920 C   0  0  0  0  0  0  0  0  0  0  0  0
   -1.9350   -2.2470   -0.1860 C   0  0  2  0  0  0  0  0  0  0  0  0
   -3.3820   -2.6320   -0.3710 C   0  0  0  0  0  0  0  0  0  0  0  0
   -1.4190   -2.9170    1.0280 C   0  0  1  0  0  0  0  0  0  0  0  0
   -1.5620   -4.3230    0.7090 O   0  0  0  0  0  0  0  0  0  0  0  0
   -3.3060   -0.4210   -2.2490 C   0  0  0  0  0  0  0  0  0  0  0  0
   -2.8910   -1.3570   -2.9790 O   0  0  0  0  0  0  0  0  0  0  0  0
   -4.3820    0.4340   -2.6310 C   0  0  0  0  0  0  0  0  0  0  0  0
   -4.5510    1.2850   -1.6550 C   0  0  0  0  0  0  0  0  0  0  0  0
   -5.5650    2.3760   -1.5970 C   0  0  0  0  0  0  0  0  0  0  0  0
  1  2  1  0
  2  3  1  0
  3  4  2  0
  3 33  1  0
  5  4  1  1
  4 30  1  0
  5  6  1  0
  5 26  1  0
  6  7  1  1
  6 10  1  0
  6 22  1  0
  7  8  1  0
  8  9  1  0
 10 11  1  0
 12 11  1  6
 12 13  1  0
 12 20  1  0
 13 14  1  6
 13 18  1  0
 14 15  1  0
 15 16  1  0
 16 17  1  0
 17 18  1  0
 18 19  1  6
 20 21  1  1
 22 20  1  1
 22 23  1  0
 23 24  1  6
 23 28  1  0
 24 25  1  0
 25 26  1  0
 26 27  1  6
 26 28  1  0
 28 29  1  6
 30 31  2  0
 30 32  1  0
 32 33  2  0
 33 34  1  0
M  END
