
     RDKit          3D

 35 38  0  0  0  0  0  0  0  0999 V2000
    3.8450   -0.7980   -5.3570 C   0  0  0  0  0  0  0  0  0  0  0  0
    3.4200   -0.6080   -3.9400 C   0  0  0  0  0  0  0  0  0  0  0  0
    4.3910   -0.2650   -2.9910 C   0  0  0  0  0  0  0  0  0  0  0  0
    3.9910   -0.0930   -1.6960 C   0  0  0  0  0  0  0  0  0  0  0  0
    4.9170    0.2640   -0.6270 C   0  0  0  0  0  0  0  0  0  0  0  0
    6.2490    0.4470   -0.8730 C   0  0  0  0  0  0  0  0  0  0  0  0
    7.0860    0.7840    0.1720 C   0  0  0  0  0  0  0  0  0  0  0  0
    6.5820    0.9320    1.4380 C   0  0  0  0  0  0  0  0  0  0  0  0
    7.5260    1.2970    2.5290 C   0  0  0  0  0  0  0  0  0  0  0  0
    8.8560    1.4320    2.0260 N   0  0  0  0  0  0  0  0  0  0  0  0
    5.2730    0.7480    1.6560 N   0  0  0  0  0  0  0  0  0  0  0  0
    4.4490    0.4230    0.6670 C   0  0  0  0  0  0  0  0  0  0  0  0
    2.6960   -0.2560   -1.3750 N   0  0  0  0  0  0  0  0  0  0  0  0
    1.7450   -0.5840   -2.2620 C   0  0  0  0  0  0  0  0  0  0  0  0
    0.3630   -0.7430   -1.8430 C   0  0  0  0  0  0  0  0  0  0  0  0
   -0.6070   -1.0800   -2.7610 O   0  0  0  0  0  0  0  0  0  0  0  0
    0.0360   -0.5650   -0.5840 C   0  0  0  0  0  0  0  0  0  0  0  0
   -1.3100   -0.7200   -0.1750 N   0  0  0  0  0  0  0  0  0  0  0  0
   -1.6780   -1.0460    1.0120 C   0  0  0  0  0  0  0  0  0  0  0  0
   -0.8220   -1.2910    2.0550 C   0  0  0  0  0  0  0  0  0  0  0  0
   -1.2660   -1.6380    3.3120 C   0  0  0  0  0  0  0  0  0  0  0  0
   -2.6270   -1.7390    3.5130 C   0  0  0  0  0  0  0  0  0  0  0  0
   -3.4840   -1.4920    2.4620 C   0  0  0  0  0  0  0  0  0  0  0  0
   -4.8410   -1.5980    2.6840 C   0  0  0  0  0  0  0  0  0  0  0  0
   -5.2490   -1.9140    3.8300 O   0  0  0  0  0  0  0  0  0  0  0  0
   -5.7080   -1.3660    1.6880 N   0  0  0  0  0  0  0  0  0  0  0  0
   -5.2460   -1.0290    0.4710 C   0  0  0  0  0  0  0  0  0  0  0  0
   -6.1590   -0.7660   -0.6460 C   0  0  0  0  0  0  0  0  0  0  0  0
   -6.5610    0.6890   -0.7250 C   0  0  0  0  0  0  0  0  0  0  0  0
   -7.2660    1.0810    0.5770 C   0  0  0  0  0  0  0  0  0  0  0  0
   -7.6840    2.5220    0.5390 C   0  0  0  0  0  0  0  0  0  0  0  0
   -6.6320    3.3930    0.3790 O   0  0  0  0  0  0  0  0  0  0  0  0
   -3.8660   -0.9270    0.2680 C   0  0  0  0  0  0  0  0  0  0  0  0
   -2.9990   -1.1530    1.2430 N   0  0  0  0  0  0  0  0  0  0  0  0
    2.1510   -0.7490   -3.5300 N   0  0  0  0  0  0  0  0  0  0  0  0
  1  2  1  0
  2  3  2  0
  2 35  1  0
  3  4  1  0
  4  5  1  0
  4 13  2  0
  5  6  2  0
  5 12  1  0
  6  7  1  0
  7  8  2  0
  8  9  1  0
  8 11  1  0
  9 10  1  0
 11 12  2  0
 13 14  1  0
 14 15  1  0
 14 35  2  0
 15 16  1  0
 15 17  2  3
 17 18  1  0
 18 19  2  3
 19 20  1  0
 19 34  1  0
 20 21  2  0
 21 22  1  0
 22 23  2  0
 23 24  1  0
 23 34  1  0
 24 25  2  0
 24 26  1  0
 26 27  1  0
 27 28  1  0
 27 33  2  0
 28 29  1  0
 29 30  1  0
 30 31  1  0
 31 32  1  0
 33 34  1  0
M  CHG  1  10   1
M  END
