
     RDKit          3D

 34 37  0  0  0  0  0  0  0  0999 V2000
   -7.9770   -0.8010    2.2370 C   0  0  0  0  0  0  0  0  0  0  0  0
   -8.8450   -0.3380    1.1180 C   0  0  0  0  0  0  0  0  0  0  0  0
  -10.1920   -0.5750    1.1250 C   0  0  0  0  0  0  0  0  0  0  0  0
  -11.0220   -0.1510    0.0920 C   0  0  0  0  0  0  0  0  0  0  0  0
  -10.3990    0.5220   -0.9370 C   0  0  0  0  0  0  0  0  0  0  0  0
   -9.0490    0.7740   -0.9690 C   0  0  0  0  0  0  0  0  0  0  0  0
   -8.3180    1.6280   -2.2900 Cl  0  0  0  0  0  0  0  0  0  0  0  0
   -8.2580    0.3420    0.0660 C   0  0  0  0  0  0  0  0  0  0  0  0
   -6.8400    0.5560    0.1130 N   0  0  0  0  0  0  0  0  0  0  0  0
   -5.9270   -0.3720   -0.4480 C   0  0  0  0  0  0  0  0  0  0  0  0
   -6.3860   -1.3970   -0.9960 O   0  0  0  0  0  0  0  0  0  0  0  0
   -4.5040   -0.1420   -0.3900 C   0  0  0  0  0  0  0  0  0  0  0  0
   -3.7040    0.8170    0.1090 C   0  0  0  0  0  0  0  0  0  0  0  0
   -2.4240    0.6570   -0.0400 N   0  0  0  0  0  0  0  0  0  0  0  0
   -1.8350   -0.2450   -0.5730 C   0  0  0  0  0  0  0  0  0  0  0  0
   -0.5270   -0.6990   -0.8810 N   0  0  0  0  0  0  0  0  0  0  0  0
    0.5970    0.0510   -0.4940 C   0  0  0  0  0  0  0  0  0  0  0  0
    0.5430    1.2800    0.1190 C   0  0  0  0  0  0  0  0  0  0  0  0
    1.7060    1.9490    0.4800 C   0  0  0  0  0  0  0  0  0  0  0  0
    2.9460    1.4060    0.2370 C   0  0  0  0  0  0  0  0  0  0  0  0
    3.0340    0.1780   -0.3740 C   0  0  0  0  0  0  0  0  0  0  0  0
    4.3130   -0.4650   -0.6580 C   0  0  0  0  0  0  0  0  0  0  0  0
    4.3220   -1.5280   -1.3610 O   0  0  0  0  0  0  0  0  0  0  0  0
    5.5400    0.0510   -0.1780 N   0  0  0  0  0  0  0  0  0  0  0  0
    6.7980   -0.6430   -0.4970 C   0  0  2  0  0  0  0  0  0  0  0  0
    7.2690   -1.2380    0.8040 C   0  0  0  0  0  0  0  0  0  0  0  0
    8.7990   -1.2830    0.7550 C   0  0  0  0  0  0  0  0  0  0  0  0
    9.1820    0.1340    0.8560 N   0  0  0  0  0  0  0  0  0  0  0  0
    8.8960    0.7620   -0.3810 C   0  0  0  0  0  0  0  0  0  0  0  0
    7.7600    0.2570   -1.1630 C   0  0  1  0  0  0  0  0  0  0  0  0
    8.2690   -0.4060   -2.2920 F   0  0  0  0  0  0  0  0  0  0  0  0
    7.0280    1.3250   -1.7060 F   0  0  0  0  0  0  0  0  0  0  0  0
    1.8550   -0.4700   -0.7250 C   0  0  0  0  0  0  0  0  0  0  0  0
   -3.2890   -1.3240   -1.1100 S   0  0  0  0  0  0  0  0  0  0  0  0
  1  2  1  0
  2  3  2  0
  2  8  1  0
  3  4  1  0
  4  5  2  0
  5  6  1  0
  6  7  1  0
  6  8  2  0
  8  9  1  0
  9 10  1  0
 10 11  2  0
 10 12  1  0
 12 13  2  0
 12 34  1  0
 13 14  1  0
 14 15  2  0
 15 16  1  0
 15 34  1  0
 16 17  1  0
 17 18  2  0
 17 33  1  0
 18 19  1  0
 19 20  2  0
 20 21  1  0
 21 22  1  0
 21 33  2  0
 22 23  2  0
 22 24  1  0
 25 24  1  1
 25 26  1  0
 25 30  1  0
 26 27  1  0
 27 28  1  0
 28 29  1  0
 29 30  1  0
 30 31  1  6
 30 32  1  0
M  CHG  1  28   1
M  END
