
     RDKit          3D

 35 38  0  0  0  0  0  0  0  0999 V2000
   -6.1030   -0.6660    3.9890 C   0  0  0  0  0  0  0  0  0  0  0  0
   -4.9900   -0.0480    3.5580 C   0  0  0  0  0  0  0  0  0  0  0  0
   -4.8840    0.1690    2.1420 C   0  0  0  0  0  0  0  0  0  0  0  0
   -3.7980    0.7800    1.6340 C   0  0  0  0  0  0  0  0  0  0  0  0
   -3.7300    0.9830    0.1700 C   0  0  0  0  0  0  0  0  0  0  0  0
   -2.5940    0.3240   -0.3910 N   0  0  0  0  0  0  0  0  0  0  0  0
   -2.6470   -1.0980   -0.7810 C   0  0  0  0  0  0  0  0  0  0  0  0
   -3.0960   -1.1180   -2.2050 C   0  0  0  0  0  0  0  0  0  0  0  0
   -3.3650   -0.0000   -2.8960 N   0  0  0  0  0  0  0  0  0  0  0  0
   -3.7710    0.0080   -4.1790 C   0  0  0  0  0  0  0  0  0  0  0  0
   -4.0450    1.2120   -4.8710 N   0  0  0  0  0  0  0  0  0  0  0  0
   -3.9200   -1.2220   -4.8290 C   0  0  0  0  0  0  0  0  0  0  0  0
   -3.6470   -2.3770   -4.1340 C   0  0  0  0  0  0  0  0  0  0  0  0
   -3.7780   -3.5000   -4.7120 O   0  0  0  0  0  0  0  0  0  0  0  0
   -3.2480   -2.2850   -2.8560 N   0  0  0  0  0  0  0  0  0  0  0  0
   -1.3870    1.0220   -0.5910 C   0  0  0  0  0  0  0  0  0  0  0  0
   -1.2960    2.2600   -0.3220 O   0  0  0  0  0  0  0  0  0  0  0  0
   -0.1830    0.3270   -1.1250 C   0  0  0  0  0  0  0  0  0  0  0  0
    0.8930    1.2940   -1.2290 N   0  0  0  0  0  0  0  0  0  0  0  0
    1.5480    1.3390    0.0530 C   0  0  0  0  0  0  0  0  0  0  0  0
    2.9290    0.7670   -0.1130 C   0  0  0  0  0  0  0  0  0  0  0  0
    3.2380    0.3800   -1.2610 O   0  0  0  0  0  0  0  0  0  0  0  0
    3.7490    0.7130    1.0220 N   0  0  0  0  0  0  0  0  0  0  0  0
    5.0600    0.2060    0.9870 C   0  0  0  0  0  0  0  0  0  0  0  0
    5.6680   -0.1060    2.1890 C   0  0  0  0  0  0  0  0  0  0  0  0
    6.9430   -0.5810    2.2040 C   0  0  0  0  0  0  0  0  0  0  0  0
    7.6690   -0.7690    1.0450 C   0  0  0  0  0  0  0  0  0  0  0  0
    8.9230   -1.2170    0.7750 N   0  0  0  0  0  0  0  0  0  0  0  0
    9.1450   -1.2060   -0.5470 C   0  0  0  0  0  0  0  0  0  0  0  0
    7.9670   -0.7250   -1.1340 C   0  0  0  0  0  0  0  0  0  0  0  0
    7.0550   -0.4560   -0.1480 C   0  0  0  0  0  0  0  0  0  0  0  0
    5.7470    0.0320   -0.1660 C   0  0  0  0  0  0  0  0  0  0  0  0
   -2.7590    1.2050    2.5540 C   0  0  0  0  0  0  0  0  0  0  0  0
   -2.8230    1.0240    3.8560 C   0  0  0  0  0  0  0  0  0  0  0  0
   -3.9530    0.3740    4.5010 C   0  0  0  0  0  0  0  0  0  0  0  0
  1  2  2  0
  2  3  1  0
  2 35  1  0
  3  4  2  0
  4  5  1  0
  4 33  1  0
  5  6  1  0
  6  7  1  0
  6 16  1  0
  7  8  1  0
  8  9  2  0
  8 15  1  0
  9 10  1  0
 10 11  1  0
 10 12  2  0
 12 13  1  0
 13 14  2  0
 13 15  1  0
 16 17  2  0
 16 18  1  0
 18 19  1  0
 19 20  1  0
 20 21  1  0
 21 22  2  0
 21 23  1  0
 23 24  1  0
 24 25  2  0
 24 32  1  0
 25 26  1  0
 26 27  2  0
 27 28  1  0
 27 31  1  0
 28 29  1  0
 29 30  2  0
 30 31  1  0
 31 32  2  0
 33 34  2  0
 34 35  1  0
M  CHG  1  19   1
M  END
