
     RDKit          3D

 34 39  0  0  0  0  0  0  0  0999 V2000
   -6.5690   -0.7820    1.4900 C   0  0  0  0  0  0  0  0  0  0  0  0
   -5.7170   -0.0570    0.4790 C   0  0  2  0  0  0  0  0  0  0  0  0
   -6.2170   -0.1410   -0.9160 C   0  0  0  0  0  0  0  0  0  0  0  0
   -4.2870   -0.4890    0.6640 C   0  0  1  0  0  0  0  0  0  0  0  0
   -4.0450   -1.8060    0.5040 O   0  0  0  0  0  0  0  0  0  0  0  0
   -2.9870   -2.2430   -0.1960 C   0  0  2  0  0  0  0  0  0  0  0  0
   -3.4770   -2.6060   -1.6060 C   0  0  0  0  0  0  0  0  0  0  0  0
   -2.5900   -3.5980    0.4300 C   0  0  0  0  0  0  0  0  0  0  0  0
   -1.7540   -1.4180   -0.2310 C   0  0  0  0  0  0  0  0  0  0  0  0
   -1.9550   -0.0220    0.3760 C   0  0  2  0  0  0  0  0  0  0  0  0
   -2.0060   -0.0820    1.7490 O   0  0  0  0  0  0  0  0  0  0  0  0
   -3.3240    0.3510   -0.1570 C   0  0  2  0  0  0  0  0  0  0  0  0
   -3.6140    1.7990   -0.1560 C   0  0  0  0  0  0  0  0  0  0  0  0
   -2.5460    2.5170   -0.9110 C   0  0  0  0  0  0  0  0  0  0  0  0
   -1.3900    1.5900   -1.3250 C   0  0  0  0  0  0  0  0  0  0  0  0
   -0.8720    0.9470   -0.1210 C   0  0  1  0  0  0  0  0  0  0  0  0
   -0.6450    1.9240    1.0420 C   0  0  0  0  0  0  0  0  0  0  0  0
    0.5680    2.7920    0.7730 C   0  0  0  0  0  0  0  0  0  0  0  0
    1.7980    1.9310    0.7160 C   0  0  0  0  0  0  0  0  0  0  0  0
    1.6530    0.9370   -0.4350 C   0  0  1  0  0  0  0  0  0  0  0  0
    1.7790    1.6880   -1.6980 C   0  0  0  0  0  0  0  0  0  0  0  0
    3.2920    1.7060   -2.0000 C   0  0  0  0  0  0  0  0  0  0  0  0
    3.6430    0.2960   -1.7000 C   0  0  1  0  0  0  0  0  0  0  0  0
    5.1090    0.1510   -1.4370 C   0  0  0  0  0  0  0  0  0  0  0  0
    5.3260   -1.1990   -0.7680 C   0  0  0  0  0  0  0  0  0  0  0  0
    4.6900   -1.1430    0.5790 C   0  0  1  0  0  0  0  0  0  0  0  0
    5.6620   -1.0660    1.7300 C   0  0  2  0  0  0  0  0  0  0  0  0
    6.6180    0.0370    1.8620 C   0  0  0  0  0  0  0  0  0  0  0  0
    7.0760   -1.4190    1.6350 C   0  0  0  0  0  0  0  0  0  0  0  0
    3.7020    0.0110    0.7060 C   0  0  0  0  0  0  0  0  0  0  0  0
    2.7920   -0.0440   -0.4800 C   0  0  1  0  0  0  0  0  0  0  0  0
    2.3440   -1.3620   -0.7380 O   0  0  0  0  0  0  0  0  0  0  0  0
    0.3930    0.1740   -0.2030 C   0  0  1  0  0  0  0  0  0  0  0  0
    0.5170   -0.3270    1.1240 O   0  0  0  0  0  0  0  0  0  0  0  0
  2  1  1  1
  2  3  1  0
  2  4  1  0
  4  5  1  6
  4 12  1  0
  5  6  1  0
  6  7  1  6
  6  8  1  0
  6  9  1  0
  9 10  1  0
 10 11  1  1
 10 12  1  0
 10 16  1  0
 12 13  1  1
 13 14  1  0
 14 15  1  0
 16 15  1  6
 16 17  1  0
 16 33  1  0
 17 18  1  0
 18 19  1  0
 20 19  1  1
 20 21  1  0
 20 31  1  0
 20 33  1  0
 21 22  1  0
 23 22  1  1
 23 24  1  0
 23 31  1  0
 24 25  1  0
 26 25  1  6
 26 27  1  0
 26 30  1  0
 27 28  1  6
 27 29  1  0
 28 29  1  0
 30 31  1  0
 31 32  1  6
 33 34  1  1
M  END
