
     RDKit          3D

 32 35  0  0  0  0  0  0  0  0999 V2000
   -6.1270   -3.1170    0.4130 C   0  0  0  0  0  0  0  0  0  0  0  0
   -4.9410   -2.3060   -0.1330 C   0  0  2  0  0  0  0  0  0  0  0  0
   -3.8810   -2.3430    0.9060 C   0  0  0  0  0  0  0  0  0  0  0  0
   -2.8060   -1.3500    0.6720 C   0  0  1  0  0  0  0  0  0  0  0  0
   -1.7570   -1.8200   -0.2890 C   0  0  0  0  0  0  0  0  0  0  0  0
   -0.5830   -0.8970   -0.1370 C   0  0  1  0  0  0  0  0  0  0  0  0
    0.6040   -1.2770   -0.9570 C   0  0  0  0  0  0  0  0  0  0  0  0
    1.7950   -0.5150   -0.3330 C   0  0  1  0  0  0  0  0  0  0  0  0
    2.1890   -1.3460    0.8810 C   0  0  0  0  0  0  0  0  0  0  0  0
    2.9430   -0.4700   -1.2770 C   0  0  0  0  0  0  0  0  0  0  0  0
    4.1100    0.2480   -0.6860 C   0  0  0  0  0  0  0  0  0  0  0  0
    5.2730    0.2820   -1.6470 C   0  0  0  0  0  0  0  0  0  0  0  0
    5.1070   -0.2730   -2.7590 O   0  0  0  0  0  0  0  0  0  0  0  0
    6.4860    0.9180   -1.2830 N   0  0  0  0  0  0  0  0  0  0  0  0
    6.6240    1.5430    0.0150 C   0  0  0  0  0  0  0  0  0  0  0  0
    7.9980    1.2450    0.5710 C   0  0  0  0  0  0  0  0  0  0  0  0
    9.0150    1.4690   -0.3220 O   0  0  0  0  0  0  0  0  0  0  0  0
    8.6200    1.9400   -1.5500 C   0  0  0  0  0  0  0  0  0  0  0  0
    7.6170    0.9660   -2.1820 C   0  0  0  0  0  0  0  0  0  0  0  0
    1.2690    0.8000    0.1320 C   0  0  0  0  0  0  0  0  0  0  0  0
    0.1220    1.3360   -0.7280 C   0  0  0  0  0  0  0  0  0  0  0  0
   -1.0760    0.4420   -0.7010 C   0  0  2  0  0  0  0  0  0  0  0  0
   -2.1560    1.0020    0.1590 C   0  0  2  0  0  0  0  0  0  0  0  0
   -1.5320    1.4370    1.3560 O   0  0  0  0  0  0  0  0  0  0  0  0
   -3.2970    0.0710    0.4540 C   0  0  2  0  0  0  0  0  0  0  0  0
   -3.9530    0.4360    1.7560 C   0  0  0  0  0  0  0  0  0  0  0  0
   -4.5260    1.7910    1.8940 C   0  0  0  0  0  0  0  0  0  0  0  0
   -5.0480    1.9230    3.2250 O   0  0  0  0  0  0  0  0  0  0  0  0
   -4.3020    0.0500   -0.6460 C   0  0  1  0  0  0  0  0  0  0  0  0
   -4.9210    1.3440   -1.0460 C   0  0  0  0  0  0  0  0  0  0  0  0
   -3.7230   -0.4910   -1.8370 O   0  0  0  0  0  0  0  0  0  0  0  0
   -5.4360   -0.9180   -0.3440 C   0  0  0  0  0  0  0  0  0  0  0  0
  2  1  1  1
  2  3  1  0
  2 32  1  0
  4  3  1  6
  4  5  1  0
  4 25  1  0
  6  5  1  6
  6  7  1  0
  6 22  1  0
  7  8  1  0
  8  9  1  1
  8 10  1  0
  8 20  1  0
 10 11  1  0
 11 12  1  0
 12 13  2  0
 12 14  1  0
 14 15  1  0
 14 19  1  0
 15 16  1  0
 16 17  1  0
 17 18  1  0
 18 19  1  0
 20 21  1  0
 22 21  1  1
 22 23  1  0
 23 24  1  1
 23 25  1  0
 25 26  1  1
 25 29  1  0
 26 27  1  0
 27 28  1  0
 29 30  1  6
 29 31  1  0
 29 32  1  0
M  END
