
     RDKit          3D

 32 35  0  0  0  0  0  0  0  0999 V2000
    7.2260    0.1240    2.4090 C   0  0  0  0  0  0  0  0  0  0  0  0
    7.2800   -0.0530    0.9030 C   0  0  2  0  0  0  0  0  0  0  0  0
    7.2800   -1.5200    0.5980 C   0  0  0  0  0  0  0  0  0  0  0  0
    8.5670    0.5630    0.3710 C   0  0  0  0  0  0  0  0  0  0  0  0
    6.1260    0.6820    0.3070 C   0  0  1  0  0  0  0  0  0  0  0  0
    6.0580    0.5810   -1.2060 C   0  0  0  0  0  0  0  0  0  0  0  0
    7.2560    0.9230   -1.8170 O   0  0  0  0  0  0  0  0  0  0  0  0
    4.8750    0.3250    0.8950 N   0  0  0  0  0  0  0  0  0  0  0  0
    3.6590    0.9540    0.4250 C   0  0  0  0  0  0  0  0  0  0  0  0
    3.6320    2.2300    0.0290 C   0  0  0  0  0  0  0  0  0  0  0  0
    2.2710    2.5560   -0.3870 C   0  0  0  0  0  0  0  0  0  0  0  0
    1.5020    1.5180   -0.2490 C   0  0  0  0  0  0  0  0  0  0  0  0
    0.0780    1.1840   -0.4840 C   0  0  0  0  0  0  0  0  0  0  0  0
   -0.2910   -0.0760   -0.5780 C   0  0  0  0  0  0  0  0  0  0  0  0
   -1.7310   -0.4790   -0.8190 C   0  0  0  0  0  0  0  0  0  0  0  0
   -2.6210    0.6730   -0.4430 C   0  0  2  0  0  0  0  0  0  0  0  0
   -4.0680    0.4700   -0.7210 C   0  0  0  0  0  0  0  0  0  0  0  0
   -4.6920   -0.6820   -0.0170 C   0  0  2  0  0  0  0  0  0  0  0  0
   -4.1700   -1.9170   -0.2890 O   0  0  0  0  0  0  0  0  0  0  0  0
   -6.1960   -0.6260   -0.3220 C   0  0  2  0  0  0  0  0  0  0  0  0
   -6.7050    0.6820    0.1930 C   0  0  0  0  0  0  0  0  0  0  0  0
   -8.1700    0.6320    0.5660 C   0  0  0  0  0  0  0  0  0  0  0  0
   -8.4590   -0.4220    1.6030 C   0  0  0  0  0  0  0  0  0  0  0  0
   -7.4350   -1.5350    1.5830 C   0  0  0  0  0  0  0  0  0  0  0  0
   -6.9240   -1.8220    0.2070 C   0  0  1  0  0  0  0  0  0  0  0  0
   -7.9640   -2.1120   -0.6750 O   0  0  0  0  0  0  0  0  0  0  0  0
   -2.0870    1.8880   -1.2140 C   0  0  0  0  0  0  0  0  0  0  0  0
   -0.8520    2.2070   -0.6030 O   0  0  0  0  0  0  0  0  0  0  0  0
    0.6730   -1.1770   -0.4460 C   0  0  1  0  0  0  0  0  0  0  0  0
    0.3720   -2.2440   -1.3000 O   0  0  0  0  0  0  0  0  0  0  0  0
    2.1180   -0.7760   -0.5820 C   0  0  0  0  0  0  0  0  0  0  0  0
    2.3280    0.4000    0.3230 C   0  0  1  0  0  0  0  0  0  0  0  0
  2  1  1  1
  2  3  1  0
  2  4  1  0
  2  5  1  0
  5  6  1  6
  5  8  1  0
  6  7  1  0
  8  9  1  0
  9 10  2  0
  9 32  1  0
 10 11  1  0
 11 12  2  0
 12 13  1  0
 12 32  1  0
 13 14  2  0
 13 28  1  0
 14 15  1  0
 14 29  1  0
 15 16  1  0
 16 17  1  6
 16 27  1  0
 17 18  1  0
 18 19  1  6
 18 20  1  0
 20 21  1  1
 20 25  1  0
 21 22  1  0
 22 23  1  0
 23 24  1  0
 24 25  1  0
 25 26  1  6
 27 28  1  0
 29 30  1  6
 29 31  1  0
 32 31  1  6
M  END
