
     RDKit          3D

 32 35  0  0  0  0  0  0  0  0999 V2000
   -1.0990    0.8840    1.3710 C   0  0  0  0  0  0  0  0  0  0  0  0
   -1.0070    0.1020    0.0540 C   0  0  2  0  0  0  0  0  0  0  0  0
   -0.0130    0.8640   -0.8040 C   0  0  0  0  0  0  0  0  0  0  0  0
    1.3470    0.9600   -0.1660 C   0  0  0  0  0  0  0  0  0  0  0  0
    1.9960   -0.3550    0.1060 C   0  0  1  0  0  0  0  0  0  0  0  0
    2.2280   -1.2150   -1.1020 C   0  0  0  0  0  0  0  0  0  0  0  0
    2.9910   -0.4270   -2.1090 C   0  0  0  0  0  0  0  0  0  0  0  0
    4.3000    0.0070   -1.5360 C   0  0  0  0  0  0  0  0  0  0  0  0
    4.4960   -0.1950   -0.0760 C   0  0  1  0  0  0  0  0  0  0  0  0
    5.5570    0.7910    0.4480 C   0  0  1  0  0  0  0  0  0  0  0  0
    5.8070    0.6470    1.9090 C   0  0  0  0  0  0  0  0  0  0  0  0
    6.6600   -0.5400    2.2560 C   0  0  0  0  0  0  0  0  0  0  0  0
    7.8550   -0.6710    1.3530 C   0  0  0  0  0  0  0  0  0  0  0  0
    8.0420    0.5330    0.4880 C   0  0  2  0  0  0  0  0  0  0  0  0
    8.4040    1.6750    1.1910 O   0  0  0  0  0  0  0  0  0  0  0  0
    6.8100    0.7150   -0.3670 C   0  0  0  0  0  0  0  0  0  0  0  0
    3.3130   -0.0750    0.7990 C   0  0  2  0  0  0  0  0  0  0  0  0
    3.4360   -1.0270    1.8410 O   0  0  0  0  0  0  0  0  0  0  0  0
   -2.2960    0.0950   -0.6550 C   0  0  0  0  0  0  0  0  0  0  0  0
   -2.4200    0.5840   -1.8230 O   0  0  0  0  0  0  0  0  0  0  0  0
   -3.4920   -0.4570   -0.0900 N   0  0  0  0  0  0  0  0  0  0  0  0
   -4.7230   -0.4450   -0.8080 C   0  0  1  0  0  0  0  0  0  0  0  0
   -5.3270   -1.8190   -1.0010 C   0  0  0  0  0  0  0  0  0  0  0  0
   -6.7700   -1.5730   -0.6220 C   0  0  1  0  0  0  0  0  0  0  0  0
   -7.7470   -2.4080   -1.3430 C   0  0  0  0  0  0  0  0  0  0  0  0
   -6.8520   -1.6520    0.8800 C   0  0  0  0  0  0  0  0  0  0  0  0
   -6.1210   -0.3550    1.2650 C   0  0  0  0  0  0  0  0  0  0  0  0
   -5.8460    0.2660   -0.0610 C   0  0  1  0  0  0  0  0  0  0  0  0
   -5.7060    1.7390   -0.0930 C   0  0  0  0  0  0  0  0  0  0  0  0
   -6.7770    2.4840    0.6210 C   0  0  0  0  0  0  0  0  0  0  0  0
   -8.0210    2.1900    0.0660 O   0  0  0  0  0  0  0  0  0  0  0  0
   -6.9520   -0.1900   -0.8180 O   0  0  0  0  0  0  0  0  0  0  0  0
  2  1  1  1
  2  3  1  0
  2 19  1  0
  3  4  1  0
  5  4  1  6
  5  6  1  0
  5 17  1  0
  6  7  1  0
  7  8  1  0
  9  8  1  6
  9 10  1  0
  9 17  1  0
 10 11  1  1
 10 16  1  0
 11 12  1  0
 12 13  1  0
 13 14  1  0
 14 15  1  1
 14 16  1  0
 17 18  1  1
 19 20  2  0
 19 21  1  0
 22 21  1  1
 22 23  1  0
 22 28  1  0
 23 24  1  0
 24 25  1  6
 24 26  1  0
 24 32  1  0
 26 27  1  0
 27 28  1  0
 28 29  1  1
 28 32  1  0
 29 30  1  0
 30 31  1  0
M  END
