
     RDKit          3D

 32 35  0  0  0  0  0  0  0  0999 V2000
    4.7030   -2.0410    0.1440 C   0  0  0  0  0  0  0  0  0  0  0  0
    5.2620   -0.6790   -0.1430 C   0  0  1  0  0  0  0  0  0  0  0  0
    4.3460    0.2070   -0.9230 C   0  0  0  0  0  0  0  0  0  0  0  0
    3.1760    0.7350   -0.1300 C   0  0  2  0  0  0  0  0  0  0  0  0
    3.3540    0.4850    1.3640 C   0  0  0  0  0  0  0  0  0  0  0  0
    4.7510    0.8710    1.7250 C   0  0  0  0  0  0  0  0  0  0  0  0
    5.7970    0.0070    1.0990 C   0  0  1  0  0  0  0  0  0  0  0  0
    6.3300   -1.0300    2.0900 C   0  0  0  0  0  0  0  0  0  0  0  0
    1.9360    0.1010   -0.6460 C   0  0  0  0  0  0  0  0  0  0  0  0
    0.6830    0.9600   -0.3500 C   0  0  2  0  0  0  0  0  0  0  0  0
   -0.4380    0.2370   -0.9810 C   0  0  2  0  0  0  0  0  0  0  0  0
   -0.1680    0.1360   -2.4450 C   0  0  0  0  0  0  0  0  0  0  0  0
   -0.1690    1.3470   -3.2090 N   0  0  0  0  0  0  0  0  0  0  0  0
    0.0610   -0.9500   -3.0420 O   0  0  0  0  0  0  0  0  0  0  0  0
   -1.8220    0.6690   -0.7910 C   0  0  1  0  0  0  0  0  0  0  0  0
   -2.7010   -0.3040   -1.6040 C   0  0  0  0  0  0  0  0  0  0  0  0
   -3.1100   -1.5010   -0.8110 C   0  0  1  0  0  0  0  0  0  0  0  0
   -3.9130   -1.1610    0.4140 C   0  0  0  0  0  0  0  0  0  0  0  0
   -3.8200    0.3220    0.6270 C   0  0  1  0  0  0  0  0  0  0  0  0
   -4.5550    0.7870    1.8270 C   0  0  0  0  0  0  0  0  0  0  0  0
   -6.0350    0.4780    1.7560 C   0  0  0  0  0  0  0  0  0  0  0  0
   -6.7030    0.9330    2.8960 O   0  0  0  0  0  0  0  0  0  0  0  0
   -2.3690    0.7500    0.5980 C   0  0  2  0  0  0  0  0  0  0  0  0
   -2.4020    2.2350    1.0070 C   0  0  0  0  0  0  0  0  0  0  0  0
   -1.6290    0.0270    1.6560 C   0  0  0  0  0  0  0  0  0  0  0  0
   -3.9570   -2.2500   -1.6630 O   0  0  0  0  0  0  0  0  0  0  0  0
   -4.0580   -3.4710   -1.0010 C   0  0  0  0  0  0  0  0  0  0  0  0
   -2.7620   -3.5760   -0.2540 C   0  0  0  0  0  0  0  0  0  0  0  0
   -2.0970   -2.4000   -0.5890 O   0  0  0  0  0  0  0  0  0  0  0  0
    0.9400    2.3620   -0.7450 C   0  0  0  0  0  0  0  0  0  0  0  0
    2.3490    2.4440   -1.3260 C   0  0  0  0  0  0  0  0  0  0  0  0
    3.2060    2.1340   -0.2720 O   0  0  0  0  0  0  0  0  0  0  0  0
  2  1  1  1
  2  3  1  0
  2  7  1  0
  4  3  1  6
  4  5  1  0
  4  9  1  0
  4 32  1  0
  5  6  1  0
  6  7  1  0
  7  8  1  1
 10  9  1  6
 10 11  1  0
 10 30  1  0
 11 12  1  6
 11 15  1  0
 12 13  1  0
 12 14  2  0
 15 16  1  6
 15 23  1  0
 17 16  1  6
 17 18  1  0
 17 26  1  0
 17 29  1  0
 18 19  1  0
 19 20  1  1
 19 23  1  0
 20 21  1  0
 21 22  1  0
 23 24  1  1
 23 25  1  0
 26 27  1  0
 27 28  1  0
 28 29  1  0
 30 31  1  0
 31 32  1  0
M  END
