
     RDKit          3D

 33 36  0  0  0  0  0  0  0  0999 V2000
   -0.5520    4.1250    2.6280 O   0  0  0  0  0  0  0  0  0  0  0  0
   -0.5900    2.8480    2.3640 C   0  0  0  0  0  0  0  0  0  0  0  0
    0.1170    2.0130    3.2890 C   0  0  0  0  0  0  0  0  0  0  0  0
    0.8960    1.0030    3.1520 C   0  0  0  0  0  0  0  0  0  0  0  0
    1.3780    0.2940    1.9540 C   0  0  0  0  0  0  0  0  0  0  0  0
    1.2940   -1.1710    2.0120 C   0  0  0  0  0  0  0  0  0  0  0  0
    0.8340   -1.7790    3.0500 O   0  0  0  0  0  0  0  0  0  0  0  0
    1.6960   -2.0090    0.9710 N   0  0  0  0  0  0  0  0  0  0  0  0
    1.5960   -3.4760    1.0740 C   0  0  1  0  0  0  0  0  0  0  0  0
    1.6960   -4.2330   -0.2190 C   0  0  0  0  0  0  0  0  0  0  0  0
    2.9210   -4.1900    0.6450 C   0  0  0  0  0  0  0  0  0  0  0  0
    1.8780    0.8560    0.8680 C   0  0  0  0  0  0  0  0  0  0  0  0
    2.1090    2.1530    0.4820 N   0  0  0  0  0  0  0  0  0  0  0  0
    1.3210    3.1550   -0.2080 C   0  0  0  0  0  0  0  0  0  0  0  0
    1.7330    4.4500   -0.0690 N   0  0  0  0  0  0  0  0  0  0  0  0
    1.1960    5.4970   -0.6920 C   0  0  0  0  0  0  0  0  0  0  0  0
    0.1400    5.3180   -1.5570 C   0  0  0  0  0  0  0  0  0  0  0  0
   -0.2930    4.0380   -1.7140 C   0  0  0  0  0  0  0  0  0  0  0  0
    0.2590    2.9090   -1.0610 C   0  0  0  0  0  0  0  0  0  0  0  0
   -0.3330    1.6290   -1.3190 C   0  0  0  0  0  0  0  0  0  0  0  0
   -1.1070    0.7920   -0.5810 C   0  0  0  0  0  0  0  0  0  0  0  0
   -1.5430   -0.3380   -0.9820 O   0  0  0  0  0  0  0  0  0  0  0  0
   -1.9770   -1.4640   -1.3810 C   0  0  0  0  0  0  0  0  0  0  0  0
   -1.4600   -2.0100   -2.5800 C   0  0  0  0  0  0  0  0  0  0  0  0
   -1.9350   -3.2160   -2.9950 C   0  0  0  0  0  0  0  0  0  0  0  0
   -1.4660   -3.7820   -4.1450 F   0  0  0  0  0  0  0  0  0  0  0  0
   -2.8900   -3.9360   -2.3150 C   0  0  0  0  0  0  0  0  0  0  0  0
   -3.3380   -5.1360   -2.7610 F   0  0  0  0  0  0  0  0  0  0  0  0
   -3.4050   -3.4220   -1.1460 C   0  0  0  0  0  0  0  0  0  0  0  0
   -2.9570   -2.2360   -0.7120 C   0  0  0  0  0  0  0  0  0  0  0  0
   -3.4540   -1.7100    0.4410 F   0  0  0  0  0  0  0  0  0  0  0  0
   -1.5340    1.1550    0.8180 C   0  0  0  0  0  0  0  0  0  0  0  0
   -1.3170    2.4720    1.2140 N   0  0  0  0  0  0  0  0  0  0  0  0
  1  2  2  0
  2  3  1  0
  2 33  1  0
  3  4  2  0
  4  5  1  0
  5  6  1  0
  5 12  2  0
  6  7  2  0
  6  8  1  0
  9  8  1  6
  9 10  1  0
  9 11  1  0
 10 11  1  0
 12 13  1  0
 13 14  1  0
 14 15  2  0
 14 19  1  0
 15 16  1  0
 16 17  2  0
 17 18  1  0
 18 19  2  0
 19 20  1  0
 20 21  2  0
 21 22  1  0
 21 32  1  0
 22 23  1  0
 23 24  2  0
 23 30  1  0
 24 25  1  0
 25 26  1  0
 25 27  2  0
 27 28  1  0
 27 29  1  0
 29 30  2  0
 30 31  1  0
 32 33  1  0
M  END
