
     RDKit          3D

 33 36  0  0  0  0  0  0  0  0999 V2000
   -3.4610   -2.2660    0.7240 C   0  0  0  0  0  0  0  0  0  0  0  0
   -4.3930   -1.2870    0.1720 C   0  0  0  0  0  0  0  0  0  0  0  0
   -5.6850   -1.5520    0.4340 C   0  0  0  0  0  0  0  0  0  0  0  0
   -6.9540   -0.8890    0.1050 C   0  0  0  0  0  0  0  0  0  0  0  0
   -6.9020   -0.0030   -1.1020 C   0  0  0  0  0  0  0  0  0  0  0  0
   -6.0610    1.2150   -0.9370 C   0  0  0  0  0  0  0  0  0  0  0  0
   -4.7970    1.0490   -0.1860 C   0  0  0  0  0  0  0  0  0  0  0  0
   -3.9500   -0.1220   -0.6060 C   0  0  2  0  0  0  0  0  0  0  0  0
   -4.2690   -0.4360   -1.9540 O   0  0  0  0  0  0  0  0  0  0  0  0
   -2.4940    0.1810   -0.5920 C   0  0  2  0  0  0  0  0  0  0  0  0
   -1.6380   -0.9230   -1.1020 C   0  0  0  0  0  0  0  0  0  0  0  0
   -0.4840   -1.2740   -0.6370 C   0  0  0  0  0  0  0  0  0  0  0  0
    0.1060   -0.5320    0.5350 C   0  0  0  0  0  0  0  0  0  0  0  0
   -0.4800    0.7730    0.5460 N   0  0  0  0  0  0  0  0  0  0  0  0
    0.2430    1.9550    0.4600 C   0  0  0  0  0  0  0  0  0  0  0  0
   -0.5080    3.0350    0.4840 O   0  0  0  0  0  0  0  0  0  0  0  0
    1.6660    2.2210    0.3500 C   0  0  0  0  0  0  0  0  0  0  0  0
    2.5030    1.1090    0.3310 O   0  0  0  0  0  0  0  0  0  0  0  0
    3.8840    1.2080    0.2300 C   0  0  0  0  0  0  0  0  0  0  0  0
    4.4930    2.4560    0.1440 C   0  0  0  0  0  0  0  0  0  0  0  0
    5.8560    2.6210    0.0420 C   0  0  0  0  0  0  0  0  0  0  0  0
    6.6480    1.4960    0.0250 C   0  0  0  0  0  0  0  0  0  0  0  0
    7.9770    1.2670   -0.0630 N   0  0  0  0  0  0  0  0  0  0  0  0
    8.2110   -0.0470   -0.0350 N   0  0  0  0  0  0  0  0  0  0  0  0
    7.0510   -0.7250    0.0720 C   0  0  0  0  0  0  0  0  0  0  0  0
    6.8880   -2.1530    0.1330 N   0  0  0  0  0  0  0  0  0  0  0  0
    8.0460   -2.9920    0.0750 C   0  0  2  0  0  0  0  0  0  0  0  0
    7.6770   -4.3150    0.1530 F   0  0  0  0  0  0  0  0  0  0  0  0
    8.9710   -2.7180    1.0680 F   0  0  0  0  0  0  0  0  0  0  0  0
    8.7190   -2.8360   -1.1360 F   0  0  0  0  0  0  0  0  0  0  0  0
    6.0650    0.2360    0.1090 C   0  0  0  0  0  0  0  0  0  0  0  0
    4.6940    0.0970    0.2110 C   0  0  0  0  0  0  0  0  0  0  0  0
   -1.9590    0.7940    0.6630 C   0  0  0  0  0  0  0  0  0  0  0  0
  1  2  1  0
  2  3  2  0
  2  8  1  0
  3  4  1  0
  4  5  1  0
  5  6  1  0
  6  7  1  0
  7  8  1  0
  8  9  1  6
  8 10  1  0
 10 11  1  0
 10 33  1  1
 11 12  2  0
 12 13  1  0
 13 14  1  0
 14 15  1  0
 14 33  1  0
 15 16  2  0
 15 17  1  0
 17 18  1  0
 18 19  1  0
 19 20  2  0
 19 32  1  0
 20 21  1  0
 21 22  2  0
 22 23  1  0
 22 31  1  0
 23 24  1  0
 24 25  2  0
 25 26  1  0
 25 31  1  0
 26 27  1  0
 27 28  1  1
 27 29  1  0
 27 30  1  0
 31 32  2  0
M  END
