
     RDKit          3D

 32 35  0  0  0  0  0  0  0  0999 V2000
   -3.6210    3.4110   -0.6160 C   0  0  0  0  0  0  0  0  0  0  0  0
   -4.6690    2.7570   -0.1780 C   0  0  0  0  0  0  0  0  0  0  0  0
   -4.6400    2.0490    1.1180 C   0  0  0  0  0  0  0  0  0  0  0  0
   -4.9810    0.6310    0.9130 C   0  0  0  0  0  0  0  0  0  0  0  0
   -6.2890    0.2020    1.1840 C   0  0  0  0  0  0  0  0  0  0  0  0
   -6.6760   -1.0980    0.9860 C   0  0  0  0  0  0  0  0  0  0  0  0
   -5.7750   -2.0060    0.5160 C   0  0  0  0  0  0  0  0  0  0  0  0
   -4.4710   -1.5980    0.2430 C   0  0  0  0  0  0  0  0  0  0  0  0
   -4.0770   -0.2870    0.4410 C   0  0  0  0  0  0  0  0  0  0  0  0
   -2.7600    0.1390    0.2060 N   0  0  0  0  0  0  0  0  0  0  0  0
   -1.7700   -0.6650   -0.3560 C   0  0  0  0  0  0  0  0  0  0  0  0
   -1.8970   -1.8500   -0.7270 O   0  0  0  0  0  0  0  0  0  0  0  0
   -0.3880   -0.0760   -0.5530 C   0  0  0  0  0  0  0  0  0  0  0  0
    0.5510   -1.0780   -1.1580 C   0  0  0  0  0  0  0  0  0  0  0  0
    1.9310   -0.5750   -1.3970 C   0  0  2  0  0  0  0  0  0  0  0  0
    2.5740   -0.1340   -0.1170 C   0  0  0  0  0  0  0  0  0  0  0  0
    3.9430    0.3500   -0.3640 N   0  0  0  0  0  0  0  0  0  0  0  0
    4.9890   -0.0630    0.4840 C   0  0  0  0  0  0  0  0  0  0  0  0
    4.6900   -0.8590    1.4700 O   0  0  0  0  0  0  0  0  0  0  0  0
    6.3760    0.2900    0.3980 C   0  0  0  0  0  0  0  0  0  0  0  0
    7.0210    1.0840   -0.5110 C   0  0  0  0  0  0  0  0  0  0  0  0
    8.3810    1.1210   -0.1700 C   0  0  0  0  0  0  0  0  0  0  0  0
    8.4840    0.3350    0.9430 C   0  0  0  0  0  0  0  0  0  0  0  0
    9.7410    0.0350    1.7200 C   0  0  0  0  0  0  0  0  0  0  0  0
   10.7990    0.6290    1.0730 O   0  0  0  0  0  0  0  0  0  0  0  0
    7.3030   -0.1330    1.2480 O   0  0  0  0  0  0  0  0  0  0  0  0
    4.0820    1.2250   -1.4740 C   0  0  0  0  0  0  0  0  0  0  0  0
    2.6780    1.5190   -2.0110 C   0  0  0  0  0  0  0  0  0  0  0  0
    1.9890    0.3960   -2.3870 O   0  0  0  0  0  0  0  0  0  0  0  0
   -6.4620   -3.3230    0.3960 C   0  0  0  0  0  0  0  0  0  0  0  0
   -7.5860   -3.2180    1.3870 C   0  0  0  0  0  0  0  0  0  0  0  0
   -8.0010   -1.7720    1.2100 C   0  0  0  0  0  0  0  0  0  0  0  0
  1  2  2  0
  2  3  1  0
  3  4  1  0
  4  5  2  0
  4  9  1  0
  5  6  1  0
  6  7  2  0
  6 32  1  0
  7  8  1  0
  7 30  1  0
  8  9  2  0
  9 10  1  0
 10 11  1  0
 11 12  2  0
 11 13  1  0
 13 14  1  0
 15 14  1  1
 15 16  1  0
 15 29  1  0
 16 17  1  0
 17 18  1  0
 17 27  1  0
 18 19  2  0
 18 20  1  0
 20 21  2  0
 20 26  1  0
 21 22  1  0
 22 23  2  0
 23 24  1  0
 23 26  1  0
 24 25  1  0
 27 28  1  0
 28 29  1  0
 30 31  1  0
 31 32  1  0
M  END
