
     RDKit          3D

 32 35  0  0  0  0  0  0  0  0999 V2000
   -9.0060    1.0140    0.6220 C   0  0  0  0  0  0  0  0  0  0  0  0
   -8.5790    1.2270   -0.8070 C   0  0  0  0  0  0  0  0  0  0  0  0
   -7.3860    2.1540   -0.8210 C   0  0  0  0  0  0  0  0  0  0  0  0
   -6.2580    1.6300   -0.0880 N   0  0  0  0  0  0  0  0  0  0  0  0
   -5.6650    0.4790   -0.7060 C   0  0  1  0  0  0  0  0  0  0  0  0
   -5.0940    0.7690   -2.0770 C   0  0  0  0  0  0  0  0  0  0  0  0
   -4.0580   -0.2190   -2.1510 O   0  0  0  0  0  0  0  0  0  0  0  0
   -3.4920   -0.2730   -0.8700 C   0  0  0  0  0  0  0  0  0  0  0  0
   -4.4260    0.1420    0.0540 C   0  0  0  0  0  0  0  0  0  0  0  0
   -4.0500    0.1570    1.3840 C   0  0  0  0  0  0  0  0  0  0  0  0
   -2.7860   -0.2260    1.7960 C   0  0  0  0  0  0  0  0  0  0  0  0
   -2.3940   -0.2060    3.2170 C   0  0  0  0  0  0  0  0  0  0  0  0
   -1.8580   -0.6390    0.8680 C   0  0  0  0  0  0  0  0  0  0  0  0
   -0.6020   -1.0200    1.2750 C   0  0  0  0  0  0  0  0  0  0  0  0
    0.3190   -1.4360    0.3040 C   0  0  0  0  0  0  0  0  0  0  0  0
    0.0060   -1.4720   -1.0300 C   0  0  0  0  0  0  0  0  0  0  0  0
    0.8360   -1.8570   -2.0520 O   0  0  0  0  0  0  0  0  0  0  0  0
    2.1560   -2.2460   -1.9040 C   0  0  0  0  0  0  0  0  0  0  0  0
    3.0980   -1.1990   -1.4240 C   0  0  0  0  0  0  0  0  0  0  0  0
    4.5130   -1.7240   -1.2730 C   0  0  0  0  0  0  0  0  0  0  0  0
    5.4120   -0.6210   -0.7940 C   0  0  0  0  0  0  0  0  0  0  0  0
    4.9090    0.4980   -0.6100 O   0  0  0  0  0  0  0  0  0  0  0  0
    6.7770   -0.8150   -0.5530 N   0  0  0  0  0  0  0  0  0  0  0  0
    7.7390    0.0880   -0.1140 C   0  0  0  0  0  0  0  0  0  0  0  0
    7.4650    1.3970    0.1510 C   0  0  0  0  0  0  0  0  0  0  0  0
    8.4490    2.2900    0.5880 C   0  0  0  0  0  0  0  0  0  0  0  0
    9.7200    1.8480    0.7560 C   0  0  0  0  0  0  0  0  0  0  0  0
   10.0310    0.5370    0.4980 C   0  0  0  0  0  0  0  0  0  0  0  0
    9.0390   -0.3270    0.0670 C   0  0  0  0  0  0  0  0  0  0  0  0
    9.4010   -1.6360   -0.1790 O   0  0  0  0  0  0  0  0  0  0  0  0
   -1.2950   -1.0700   -1.3820 C   0  0  0  0  0  0  0  0  0  0  0  0
   -2.2090   -0.6630   -0.4630 C   0  0  0  0  0  0  0  0  0  0  0  0
  1  2  1  0
  2  3  1  0
  3  4  1  0
  5  4  1  1
  5  6  1  0
  5  9  1  0
  6  7  1  0
  7  8  1  0
  8  9  2  0
  8 32  1  0
  9 10  1  0
 10 11  2  0
 11 12  1  0
 11 13  1  0
 13 14  2  0
 13 32  1  0
 14 15  1  0
 15 16  2  0
 16 17  1  0
 16 31  1  0
 17 18  1  0
 18 19  1  0
 19 20  1  0
 20 21  1  0
 21 22  2  0
 21 23  1  0
 23 24  1  0
 24 25  2  0
 24 29  1  0
 25 26  1  0
 26 27  2  0
 27 28  1  0
 28 29  2  0
 29 30  1  0
 31 32  2  0
M  END
