
     RDKit          3D

 32 36  0  0  0  0  0  0  0  0999 V2000
    1.5820    3.1340   -2.8110 C   0  0  0  0  0  0  0  0  0  0  0  0
    2.1150    2.7550   -1.4890 C   0  0  0  0  0  0  0  0  0  0  0  0
    2.8700    3.6460   -0.7680 C   0  0  0  0  0  0  0  0  0  0  0  0
    3.3760    3.3400    0.4430 N   0  0  0  0  0  0  0  0  0  0  0  0
    3.1110    2.1070    0.9290 C   0  0  0  0  0  0  0  0  0  0  0  0
    3.6510    1.8120    2.1650 C   0  0  0  0  0  0  0  0  0  0  0  0
    3.4290    0.5710    2.7140 C   0  0  0  0  0  0  0  0  0  0  0  0
    2.6760   -0.3270    2.0060 C   0  0  0  0  0  0  0  0  0  0  0  0
    2.1090   -0.0860    0.7610 C   0  0  0  0  0  0  0  0  0  0  0  0
    1.2610   -1.0100    0.1080 N   0  0  0  0  0  0  0  0  0  0  0  0
    1.3870   -2.3920    0.3870 C   0  0  0  0  0  0  0  0  0  0  0  0
    2.6850   -2.8730    0.6420 C   0  0  0  0  0  0  0  0  0  0  0  0
    2.8760   -4.2470    0.7270 C   0  0  0  0  0  0  0  0  0  0  0  0
    1.8260   -5.0900    0.5650 C   0  0  0  0  0  0  0  0  0  0  0  0
    0.5430   -4.5770    0.3120 C   0  0  0  0  0  0  0  0  0  0  0  0
   -0.7760   -5.7160    0.1860 Cl  0  0  0  0  0  0  0  0  0  0  0  0
    0.3030   -3.2220    0.2200 C   0  0  0  0  0  0  0  0  0  0  0  0
   -1.0040   -2.6720    0.1400 N   0  0  0  0  0  0  0  0  0  0  0  0
   -2.0350   -3.4760   -0.4950 C   0  0  0  0  0  0  0  0  0  0  0  0
   -2.9750   -2.6200   -1.3060 C   0  0  0  0  0  0  0  0  0  0  0  0
   -2.3640   -1.2470   -1.5200 C   0  0  0  0  0  0  0  0  0  0  0  0
   -2.2380   -0.5880   -0.1250 C   0  0  2  0  0  0  0  0  0  0  0  0
   -1.7460    0.6950   -0.3260 O   0  0  0  0  0  0  0  0  0  0  0  0
   -2.3270    1.8860   -0.0420 C   0  0  0  0  0  0  0  0  0  0  0  0
   -3.5670    1.9540    0.5420 C   0  0  0  0  0  0  0  0  0  0  0  0
   -4.1020    3.2280    0.8060 C   0  0  0  0  0  0  0  0  0  0  0  0
   -3.4250    4.3790    0.4970 C   0  0  0  0  0  0  0  0  0  0  0  0
   -2.1820    4.2650   -0.0890 C   0  0  0  0  0  0  0  0  0  0  0  0
   -1.6370    3.0550   -0.3570 C   0  0  0  0  0  0  0  0  0  0  0  0
   -1.4280   -1.4660    0.7740 C   0  0  0  0  0  0  0  0  0  0  0  0
    2.3540    1.1700    0.2440 C   0  0  0  0  0  0  0  0  0  0  0  0
    1.8440    1.4980   -0.9910 C   0  0  0  0  0  0  0  0  0  0  0  0
  1  2  1  0
  2  3  2  0
  2 32  1  0
  3  4  1  0
  4  5  2  0
  5  6  1  0
  5 31  1  0
  6  7  2  0
  7  8  1  0
  8  9  2  0
  9 10  1  0
  9 31  1  0
 10 11  1  0
 11 12  2  0
 11 17  1  0
 12 13  1  0
 13 14  2  0
 14 15  1  0
 15 16  1  0
 15 17  2  0
 17 18  1  0
 18 19  1  0
 18 30  1  0
 19 20  1  0
 20 21  1  0
 21 22  1  0
 22 23  1  6
 22 30  1  0
 23 24  1  0
 24 25  2  0
 24 29  1  0
 25 26  1  0
 26 27  2  0
 27 28  1  0
 28 29  2  0
 31 32  2  0
M  END
