
     RDKit          3D

 32 35  0  0  0  0  0  0  0  0999 V2000
    5.3840   -3.4520   -2.0600 C   0  0  0  0  0  0  0  0  0  0  0  0
    5.3390   -2.3100   -1.1110 C   0  0  0  0  0  0  0  0  0  0  0  0
    6.0900   -1.1590   -1.2230 C   0  0  0  0  0  0  0  0  0  0  0  0
    5.7430   -0.3850   -0.1540 C   0  0  0  0  0  0  0  0  0  0  0  0
    4.7900   -1.0850    0.5800 C   0  0  0  0  0  0  0  0  0  0  0  0
    4.1730   -0.5520    1.8260 C   0  0  0  0  0  0  0  0  0  0  0  0
    3.0480    0.3090    1.5860 N   0  0  0  0  0  0  0  0  0  0  0  0
    1.8410   -0.1070    0.9100 C   0  0  0  0  0  0  0  0  0  0  0  0
    1.8050   -1.2660    0.5320 O   0  0  0  0  0  0  0  0  0  0  0  0
    0.7430    0.8430    0.7070 C   0  0  0  0  0  0  0  0  0  0  0  0
    0.5980    1.8810    1.6210 C   0  0  0  0  0  0  0  0  0  0  0  0
   -0.3050    2.8620    1.4370 C   0  0  0  0  0  0  0  0  0  0  0  0
   -1.1450    2.9060    0.3330 C   0  0  0  0  0  0  0  0  0  0  0  0
   -2.1330    3.9560    0.1080 C   0  0  0  0  0  0  0  0  0  0  0  0
   -2.3300    4.9560    0.9060 C   0  0  0  0  0  0  0  0  0  0  0  0
   -3.3320    6.0490    0.7080 C   0  0  0  0  0  0  0  0  0  0  0  0
   -4.0140    5.8140   -0.4820 O   0  0  0  0  0  0  0  0  0  0  0  0
   -3.8100    4.7570   -1.3280 C   0  0  0  0  0  0  0  0  0  0  0  0
   -2.9350    3.8660   -1.0810 N   0  0  0  0  0  0  0  0  0  0  0  0
   -0.9880    1.8720   -0.5540 C   0  0  0  0  0  0  0  0  0  0  0  0
   -0.0620    0.8310   -0.3970 C   0  0  0  0  0  0  0  0  0  0  0  0
   -0.1390   -0.2920   -1.3800 C   0  0  0  0  0  0  0  0  0  0  0  0
   -1.3470   -1.1450   -1.2150 C   0  0  0  0  0  0  0  0  0  0  0  0
   -1.6630   -1.7560    0.0590 C   0  0  0  0  0  0  0  0  0  0  0  0
   -1.0060   -1.4900    1.0890 O   0  0  0  0  0  0  0  0  0  0  0  0
   -2.7920   -2.7220    0.1620 C   0  0  0  0  0  0  0  0  0  0  0  0
   -3.1240   -3.3110    1.2890 C   0  0  0  0  0  0  0  0  0  0  0  0
   -4.2980   -4.2120    1.0320 C   0  0  0  0  0  0  0  0  0  0  0  0
   -4.5670   -4.0300   -0.4040 C   0  0  0  0  0  0  0  0  0  0  0  0
   -3.6800   -3.1580   -0.8970 C   0  0  0  0  0  0  0  0  0  0  0  0
   -3.5920   -2.7170   -2.2070 O   0  0  0  0  0  0  0  0  0  0  0  0
    4.5940   -2.2040   -0.0280 O   0  0  0  0  0  0  0  0  0  0  0  0
  1  2  1  0
  2  3  2  0
  2 32  1  0
  3  4  1  0
  4  5  2  0
  5  6  1  0
  5 32  1  0
  6  7  1  0
  7  8  1  0
  8  9  2  0
  8 10  1  0
 10 11  2  0
 10 21  1  0
 11 12  1  0
 12 13  2  0
 13 14  1  0
 13 20  1  0
 14 15  2  0
 14 19  1  0
 15 16  1  0
 16 17  1  0
 17 18  1  0
 18 19  2  0
 20 21  2  0
 21 22  1  0
 22 23  1  0
 23 24  1  0
 24 25  2  0
 24 26  1  0
 26 27  2  0
 26 30  1  0
 27 28  1  0
 28 29  1  0
 29 30  2  0
 30 31  1  0
M  END
