
     RDKit          3D

 34 38  0  0  0  0  0  0  0  0999 V2000
    5.1180   -2.2030    2.6700 C   0  0  0  0  0  0  0  0  0  0  0  0
    5.0070   -2.4930    1.1880 C   0  0  0  0  0  0  0  0  0  0  0  0
    5.0770   -1.2450    0.3890 C   0  0  0  0  0  0  0  0  0  0  0  0
    4.0140   -0.5660   -0.2360 C   0  0  0  0  0  0  0  0  0  0  0  0
    4.5000    0.5310   -0.8660 C   0  0  0  0  0  0  0  0  0  0  0  0
    3.8030    1.5520   -1.6520 C   0  0  0  0  0  0  0  0  0  0  0  0
    4.4200    2.5960   -2.2220 O   0  0  0  0  0  0  0  0  0  0  0  0
    3.5980    3.3610   -2.8650 C   0  0  0  0  0  0  0  0  0  0  0  0
    3.9260    4.6240   -3.6290 C   0  0  0  0  0  0  0  0  0  0  0  0
    2.3830    2.8190   -2.7280 N   0  0  0  0  0  0  0  0  0  0  0  0
    2.4920    1.6800   -1.9680 C   0  0  0  0  0  0  0  0  0  0  0  0
    1.3520    0.7980   -1.5810 C   0  0  0  0  0  0  0  0  0  0  0  0
    0.9770    1.1020   -0.1730 C   0  0  0  0  0  0  0  0  0  0  0  0
   -0.1360    0.3080    0.3260 N   0  0  2  0  0  0  0  0  0  0  0  0
    0.2900   -0.8910    0.9920 C   0  0  0  0  0  0  0  0  0  0  0  0
    0.3430   -2.1280    0.1970 C   0  0  0  0  0  0  0  0  0  0  0  0
   -1.1000    0.1100   -0.7020 C   0  0  0  0  0  0  0  0  0  0  0  0
   -2.4330   -0.3890   -0.2370 C   0  0  2  0  0  0  0  0  0  0  0  0
   -3.3090   -0.5480   -1.4670 C   0  0  0  0  0  0  0  0  0  0  0  0
   -4.6960   -1.0130   -1.1970 C   0  0  0  0  0  0  0  0  0  0  0  0
   -5.1810   -0.5880    0.1190 C   0  0  0  0  0  0  0  0  0  0  0  0
   -4.4400    0.2310    0.9390 C   0  0  0  0  0  0  0  0  0  0  0  0
   -5.2970    0.3830    2.0850 C   0  0  0  0  0  0  0  0  0  0  0  0
   -5.4650    0.2960    3.3530 N   0  0  0  0  0  0  0  0  0  0  0  0
   -6.4200   -0.9070    3.4520 C   0  0  0  0  0  0  0  0  0  0  0  0
   -7.0980   -1.1170    4.4220 O   0  0  0  0  0  0  0  0  0  0  0  0
   -6.2790   -1.6440    2.1630 C   0  0  0  0  0  0  0  0  0  0  0  0
   -6.4770   -0.8940    0.8810 C   0  0  1  0  0  0  0  0  0  0  0  0
   -6.6620    0.5850    1.3990 C   0  0  0  0  0  0  0  0  0  0  0  0
   -3.0810    0.6840    0.6620 C   0  0  2  0  0  0  0  0  0  0  0  0
   -3.0360    1.9690    0.0610 N   0  0  0  0  0  0  0  0  0  0  0  0
    5.8100    0.5240   -0.6350 O   0  0  0  0  0  0  0  0  0  0  0  0
    6.1840   -0.4760    0.0810 C   0  0  0  0  0  0  0  0  0  0  0  0
    7.5670   -0.8340    0.5530 C   0  0  0  0  0  0  0  0  0  0  0  0
  1  2  1  0
  2  3  1  0
  3  4  1  0
  3 33  2  0
  4  5  2  0
  5  6  1  0
  5 32  1  0
  6  7  1  0
  6 11  2  0
  7  8  1  0
  8  9  1  0
  8 10  2  0
 10 11  1  0
 11 12  1  0
 12 13  1  0
 14 13  1  6
 14 15  1  0
 14 17  1  0
 15 16  1  0
 18 17  1  6
 18 19  1  0
 18 30  1  0
 19 20  1  0
 20 21  1  0
 21 22  2  0
 21 28  1  0
 22 23  1  0
 22 30  1  0
 23 24  2  0
 23 29  1  0
 24 25  1  0
 25 26  2  0
 25 27  1  0
 28 27  1  1
 28 29  1  0
 30 31  1  6
 32 33  1  0
 33 34  1  0
M  CHG  2  14   1  31   1
M  END
