
     RDKit          3D

 34 36  0  0  0  0  0  0  0  0999 V2000
   -1.8390   -2.9490    1.9340 C   0  0  0  0  0  0  0  0  0  0  0  0
   -1.8040   -3.0830    0.6370 C   0  0  0  0  0  0  0  0  0  0  0  0
   -2.5650   -4.2450    0.0440 C   0  0  0  0  0  0  0  0  0  0  0  0
   -1.0940   -2.2080   -0.2330 N   0  0  0  0  0  0  0  0  0  0  0  0
   -1.2730   -0.7520   -0.2130 C   0  0  0  0  0  0  0  0  0  0  0  0
   -1.5390   -0.1680    0.8080 N   0  0  0  0  0  0  0  0  0  0  0  0
   -1.8370    0.6980    1.8160 C   0  0  0  0  0  0  0  0  0  0  0  0
   -3.0710    0.5810    2.4240 C   0  0  0  0  0  0  0  0  0  0  0  0
   -4.0790   -0.4320    2.0330 C   0  0  0  0  0  0  0  0  0  0  0  0
   -0.7750    1.7030    2.2470 C   0  0  0  0  0  0  0  0  0  0  0  0
    0.2260    1.3420    3.0740 C   0  0  0  0  0  0  0  0  0  0  0  0
    0.4630   -0.0090    3.6410 C   0  0  0  0  0  0  0  0  0  0  0  0
    1.3660   -0.9150    3.3100 C   0  0  0  0  0  0  0  0  0  0  0  0
    2.4230   -0.8740    2.2950 C   0  0  0  0  0  0  0  0  0  0  0  0
    2.3350   -1.8400    1.1760 C   0  0  2  0  0  0  0  0  0  0  0  0
    2.7770   -3.0940    1.7150 O   0  0  0  0  0  0  0  0  0  0  0  0
    1.8230   -4.0740    1.6120 C   0  0  0  0  0  0  0  0  0  0  0  0
    3.2750   -1.6030    0.0510 C   0  0  0  0  0  0  0  0  0  0  0  0
    3.0980   -0.5500   -0.8530 N   0  0  1  0  0  0  0  0  0  0  0  0
    3.0560   -0.9210   -2.2400 C   0  0  0  0  0  0  0  0  0  0  0  0
    2.4240    0.2920   -2.8710 C   0  0  0  0  0  0  0  0  0  0  0  0
    1.2710    0.6080   -1.9090 C   0  0  2  0  0  0  0  0  0  0  0  0
    0.7670    2.0040   -2.0470 C   0  0  0  0  0  0  0  0  0  0  0  0
    0.5330    2.7410   -0.8590 N   0  0  0  0  0  0  0  0  0  0  0  0
   -0.6490    3.5370   -0.7890 C   0  0  1  0  0  0  0  0  0  0  0  0
   -1.3900    3.5400   -1.9630 O   0  0  0  0  0  0  0  0  0  0  0  0
   -1.5050    4.7690   -2.5690 C   0  0  0  0  0  0  0  0  0  0  0  0
   -1.5930    3.1830    0.3200 C   0  0  2  0  0  0  0  0  0  0  0  0
   -2.5790    4.1460    0.4990 O   0  0  0  0  0  0  0  0  0  0  0  0
   -0.8060    3.0720    1.6160 C   0  0  0  0  0  0  0  0  0  0  0  0
    1.9710    0.2690   -0.6300 C   0  0  0  0  0  0  0  0  0  0  0  0
    0.2010   -0.4280   -2.2370 C   0  0  2  0  0  0  0  0  0  0  0  0
    0.0200   -0.5700   -3.7330 C   0  0  0  0  0  0  0  0  0  0  0  0
   -1.1050   -0.1760   -1.6160 C   0  0  0  0  0  0  0  0  0  0  0  0
  1  2  2  0
  2  3  1  0
  2  4  1  0
  4  5  1  0
  5  6  2  0
  5 34  1  0
  6  7  1  0
  7  8  2  3
  7 10  1  0
  8  9  1  0
 10 11  2  0
 10 30  1  0
 11 12  1  0
 12 13  2  0
 13 14  1  0
 14 15  1  0
 15 16  1  1
 15 18  1  0
 16 17  1  0
 19 18  1  1
 19 20  1  0
 19 31  1  0
 20 21  1  0
 22 21  1  6
 22 23  1  0
 22 31  1  0
 22 32  1  0
 23 24  1  0
 24 25  1  0
 25 26  1  6
 25 28  1  0
 26 27  1  0
 28 29  1  1
 28 30  1  0
 32 33  1  6
 32 34  1  0
M  CHG  2  19   1  24   1
M  END
