
     RDKit          3D

 34 38  0  0  0  0  0  0  0  0999 V2000
   -3.4920    6.9370    1.7920 N   0  0  0  0  0  0  0  0  0  0  0  0
   -3.0050    6.2400    1.0140 C   0  0  0  0  0  0  0  0  0  0  0  0
   -2.3730    5.3760    0.0410 C   0  0  0  0  0  0  0  0  0  0  0  0
   -1.9870    5.9020   -1.1800 C   0  0  0  0  0  0  0  0  0  0  0  0
   -1.3860    5.0830   -2.1050 C   0  0  0  0  0  0  0  0  0  0  0  0
   -1.1780    3.7640   -1.8080 C   0  0  0  0  0  0  0  0  0  0  0  0
   -1.5450    3.1930   -0.6020 C   0  0  0  0  0  0  0  0  0  0  0  0
   -1.3020    1.7530   -0.3150 C   0  0  1  0  0  0  0  0  0  0  0  0
   -0.1520    1.5480    0.6250 C   0  0  0  0  0  0  0  0  0  0  0  0
    0.6000    0.3670    0.4150 N   0  0  2  0  0  0  0  0  0  0  0  0
    1.9610    0.7670    0.0580 C   0  0  0  0  0  0  0  0  0  0  0  0
    2.9460   -0.2250    0.5100 C   0  0  0  0  0  0  0  0  0  0  0  0
    2.5360   -1.2480    1.1180 O   0  0  0  0  0  0  0  0  0  0  0  0
    4.3130    0.0020    0.2490 N   0  0  0  0  0  0  0  0  0  0  0  0
    5.2670   -0.9770    0.6970 C   0  0  0  0  0  0  0  0  0  0  0  0
    6.6880   -0.6030    0.3480 C   0  0  2  0  0  0  0  0  0  0  0  0
    6.9320   -0.7310   -1.1550 C   0  0  0  0  0  0  0  0  0  0  0  0
    6.8610   -2.2470   -1.3190 C   0  0  0  0  0  0  0  0  0  0  0  0
    7.2710   -2.7340    0.0470 C   0  0  0  0  0  0  0  0  0  0  0  0
    7.5110   -1.6220    0.8320 O   0  0  0  0  0  0  0  0  0  0  0  0
    0.1320   -0.5130   -0.6010 C   0  0  0  0  0  0  0  0  0  0  0  0
   -1.3100   -0.8760   -0.5340 C   0  0  0  0  0  0  0  0  0  0  0  0
   -2.0540   -0.2580    0.6120 C   0  0  2  0  0  0  0  0  0  0  0  0
   -3.3160   -0.9620    0.9660 C   0  0  2  0  0  0  0  0  0  0  0  0
   -3.1700   -2.3460    1.4800 C   0  0  0  0  0  0  0  0  0  0  0  0
   -4.4730   -2.9550    1.0590 C   0  0  0  0  0  0  0  0  0  0  0  0
   -5.1500   -4.1130    1.3800 C   0  0  0  0  0  0  0  0  0  0  0  0
   -6.3700   -4.4170    0.8160 C   0  0  0  0  0  0  0  0  0  0  0  0
   -6.9410   -3.5500   -0.0950 C   0  0  0  0  0  0  0  0  0  0  0  0
   -6.2950   -2.3850   -0.4400 C   0  0  0  0  0  0  0  0  0  0  0  0
   -5.0570   -2.1010    0.1480 C   0  0  0  0  0  0  0  0  0  0  0  0
   -4.2640   -0.9830   -0.0760 O   0  0  0  0  0  0  0  0  0  0  0  0
   -2.4570    1.1220    0.2840 N   0  0  0  0  0  0  0  0  0  0  0  0
   -2.1510    4.0390    0.3180 C   0  0  0  0  0  0  0  0  0  0  0  0
  1  2  3  0
  2  3  1  0
  3  4  2  0
  3 34  1  0
  4  5  1  0
  5  6  2  0
  6  7  1  0
  8  7  1  1
  7 34  2  0
  8  9  1  0
  8 33  1  0
  9 10  1  0
 10 11  1  6
 10 21  1  0
 11 12  1  0
 12 13  2  0
 12 14  1  0
 14 15  1  0
 16 15  1  6
 16 17  1  0
 16 20  1  0
 17 18  1  0
 18 19  1  0
 19 20  1  0
 21 22  1  0
 23 22  1  6
 23 24  1  0
 23 33  1  0
 24 25  1  6
 24 32  1  0
 25 26  1  0
 26 27  2  0
 26 31  1  0
 27 28  1  0
 28 29  2  0
 29 30  1  0
 30 31  2  0
 31 32  1  0
M  CHG  2  10   1  33   1
M  END
