
     RDKit          3D

 33 38  0  0  0  0  0  0  0  0999 V2000
   -4.9380   -1.7000    3.1100 C   0  0  0  0  0  0  0  0  0  0  0  0
   -5.3520   -1.1940    1.8960 O   0  0  0  0  0  0  0  0  0  0  0  0
   -4.8200    0.0610    1.6260 C   0  0  2  0  0  0  0  0  0  0  0  0
   -5.9690    1.0710    1.4800 C   0  0  0  0  0  0  0  0  0  0  0  0
   -6.4780    0.6780    0.1350 C   0  0  0  0  0  0  0  0  0  0  0  0
   -7.7380    0.8240   -0.4070 C   0  0  0  0  0  0  0  0  0  0  0  0
   -8.0060    0.3840   -1.6930 C   0  0  0  0  0  0  0  0  0  0  0  0
   -6.9990   -0.2110   -2.4530 C   0  0  0  0  0  0  0  0  0  0  0  0
   -5.7500   -0.3410   -1.8810 C   0  0  0  0  0  0  0  0  0  0  0  0
   -5.4690    0.0920   -0.6010 C   0  0  0  0  0  0  0  0  0  0  0  0
   -4.2470    0.0800    0.2450 C   0  0  2  0  0  0  0  0  0  0  0  0
   -3.3810   -1.0350   -0.0360 N   0  0  0  0  0  0  0  0  0  0  0  0
   -2.0310   -0.6500   -0.2620 C   0  0  0  0  0  0  0  0  0  0  0  0
   -1.2300   -1.2400   -1.2180 C   0  0  0  0  0  0  0  0  0  0  0  0
    0.0770   -0.8310   -1.3990 C   0  0  0  0  0  0  0  0  0  0  0  0
    0.6320    0.1900   -0.6240 C   0  0  0  0  0  0  0  0  0  0  0  0
   -0.1740    0.7680    0.3200 C   0  0  0  0  0  0  0  0  0  0  0  0
   -1.5010    0.3520    0.5050 C   0  0  0  0  0  0  0  0  0  0  0  0
    0.5720    1.7990    0.9600 N   0  0  0  0  0  0  0  0  0  0  0  0
    1.8720    1.8670    0.3970 C   0  0  0  0  0  0  0  0  0  0  0  0
    2.6920    2.7630    0.7700 O   0  0  0  0  0  0  0  0  0  0  0  0
    2.0060    0.7890   -0.5890 C   0  0  1  0  0  0  0  0  0  0  0  0
    2.9760   -0.1750   -0.1240 N   0  0  1  0  0  0  0  0  0  0  0  0
    3.6270   -0.8760   -1.2000 C   0  0  0  0  0  0  0  0  0  0  0  0
    5.0090   -0.4690   -1.5270 C   0  0  0  0  0  0  0  0  0  0  0  0
    5.8930   -0.1180   -0.3740 C   0  0  2  0  0  0  0  0  0  0  0  0
    5.1300    0.9230    0.4310 C   0  0  0  0  0  0  0  0  0  0  0  0
    3.8670    0.2450    0.8950 C   0  0  0  0  0  0  0  0  0  0  0  0
    7.1450    0.5350   -0.8940 C   0  0  0  0  0  0  0  0  0  0  0  0
    8.2600   -0.2610   -0.4030 N   0  0  0  0  0  0  0  0  0  0  0  0
    7.8020   -1.4330    0.2160 C   0  0  0  0  0  0  0  0  0  0  0  0
    8.5180   -2.4200    0.5130 O   0  0  0  0  0  0  0  0  0  0  0  0
    6.3340   -1.2880    0.4490 C   0  0  0  0  0  0  0  0  0  0  0  0
  1  2  1  0
  3  2  1  6
  3  4  1  0
  3 11  1  0
  4  5  1  0
  5  6  2  0
  5 10  1  0
  6  7  1  0
  7  8  2  0
  8  9  1  0
  9 10  2  0
 10 11  1  0
 11 12  1  6
 12 13  1  0
 13 14  2  0
 13 18  1  0
 14 15  1  0
 15 16  2  0
 16 17  1  0
 16 22  1  0
 17 18  2  0
 17 19  1  0
 19 20  1  0
 20 21  2  0
 22 20  1  1
 22 23  1  0
 23 24  1  6
 23 28  1  0
 24 25  1  0
 26 25  1  6
 26 27  1  0
 26 29  1  0
 26 33  1  0
 27 28  1  0
 29 30  1  0
 30 31  1  0
 31 32  2  0
 31 33  1  0
M  CHG  2  12   1  23   1
M  END
