
     RDKit          3D

 35 40  0  0  0  0  0  0  0  0999 V2000
   -3.0610    0.1650    3.9150 C   0  0  0  0  0  0  0  0  0  0  0  0
   -3.1100    0.1600    2.4160 C   0  0  0  0  0  0  0  0  0  0  0  0
   -4.0840    0.8530    1.7630 C   0  0  0  0  0  0  0  0  0  0  0  0
   -4.1320    0.8540    0.3590 C   0  0  0  0  0  0  0  0  0  0  0  0
   -5.1810    1.6640   -0.3170 C   0  0  0  0  0  0  0  0  0  0  0  0
   -3.2070    0.1600   -0.4110 C   0  0  0  0  0  0  0  0  0  0  0  0
   -3.3770    0.1760   -1.8460 C   0  0  0  0  0  0  0  0  0  0  0  0
   -2.4760    0.0520   -2.8170 C   0  0  0  0  0  0  0  0  0  0  0  0
   -3.1380    0.1290   -4.1380 C   0  0  0  0  0  0  0  0  0  0  0  0
   -4.3290    0.5720   -3.8370 C   0  0  0  0  0  0  0  0  0  0  0  0
   -4.6570    0.2470   -2.5920 C   0  0  0  0  0  0  0  0  0  0  0  0
   -2.2300   -0.5380    0.2640 C   0  0  0  0  0  0  0  0  0  0  0  0
   -1.2350   -1.3070   -0.4480 C   0  0  0  0  0  0  0  0  0  0  0  0
   -1.5820   -2.1420   -1.4630 N   0  0  0  0  0  0  0  0  0  0  0  0
   -0.4830   -2.7250   -1.9720 C   0  0  0  0  0  0  0  0  0  0  0  0
   -0.2600   -3.6120   -2.9600 N   0  0  0  0  0  0  0  0  0  0  0  0
    0.9690   -4.0310   -3.2560 C   0  0  0  0  0  0  0  0  0  0  0  0
    2.0630   -3.5710   -2.5620 C   0  0  0  0  0  0  0  0  0  0  0  0
    1.8500   -2.6590   -1.5440 C   0  0  0  0  0  0  0  0  0  0  0  0
    0.5810   -2.2440   -1.2580 C   0  0  0  0  0  0  0  0  0  0  0  0
    0.0690   -1.3670   -0.3230 N   0  0  0  0  0  0  0  0  0  0  0  0
    0.9580   -0.7010    0.5880 C   0  0  0  0  0  0  0  0  0  0  0  0
    1.4540    0.5280   -0.0230 N   0  0  0  0  0  0  0  0  0  0  0  0
    0.4230    1.4650   -0.3620 C   0  0  0  0  0  0  0  0  0  0  0  0
    1.0770    2.5990   -1.1600 C   0  0  0  0  0  0  0  0  0  0  0  0
    2.1450    3.2320   -0.4500 N   0  0  0  0  0  0  0  0  0  0  0  0
    3.0860    2.2730    0.1000 C   0  0  0  0  0  0  0  0  0  0  0  0
    2.3350    1.2220    0.9130 C   0  0  2  0  0  0  0  0  0  0  0  0
    3.3530    0.3380    1.5220 C   0  0  0  0  0  0  0  0  0  0  0  0
    4.1540   -0.4850    0.7670 C   0  0  0  0  0  0  0  0  0  0  0  0
    5.0950   -1.3120    1.3410 C   0  0  0  0  0  0  0  0  0  0  0  0
    5.2400   -1.3180    2.7060 C   0  0  0  0  0  0  0  0  0  0  0  0
    4.4540   -0.5040    3.5060 C   0  0  0  0  0  0  0  0  0  0  0  0
    3.5110    0.3200    2.8860 C   0  0  0  0  0  0  0  0  0  0  0  0
   -2.2060   -0.5190    1.6710 C   0  0  0  0  0  0  0  0  0  0  0  0
  1  2  1  0
  2  3  2  0
  2 35  1  0
  3  4  1  0
  4  5  1  0
  4  6  2  0
  6  7  1  0
  6 12  1  0
  7  8  2  0
  7 11  1  0
  8  9  1  0
  9 10  2  0
 10 11  2  0
 12 13  1  0
 12 35  2  0
 13 14  2  0
 13 21  1  0
 14 15  1  0
 15 16  2  0
 15 20  1  0
 16 17  1  0
 17 18  2  0
 18 19  1  0
 19 20  2  0
 20 21  1  0
 21 22  1  0
 22 23  1  0
 23 24  1  0
 23 28  1  0
 24 25  1  0
 25 26  1  0
 26 27  1  0
 27 28  1  0
 28 29  1  6
 29 30  2  0
 29 34  1  0
 30 31  1  0
 31 32  2  0
 32 33  1  0
 33 34  2  0
M  CHG  1  26   1
M  END
