
     RDKit          3D

 35 40  0  0  0  0  0  0  0  0999 V2000
   -7.2890    3.2140    0.1770 C   0  0  0  0  0  0  0  0  0  0  0  0
   -5.8320    3.2160   -0.0050 C   0  0  0  0  0  0  0  0  0  0  0  0
   -5.0610    2.1930   -0.1750 C   0  0  0  0  0  0  0  0  0  0  0  0
   -5.3840    0.7540   -0.2370 C   0  0  0  0  0  0  0  0  0  0  0  0
   -6.4490   -0.0050   -0.1590 C   0  0  0  0  0  0  0  0  0  0  0  0
   -6.4410   -1.4830   -0.2660 C   0  0  0  0  0  0  0  0  0  0  0  0
   -5.1510   -2.1750   -0.4690 C   0  0  0  0  0  0  0  0  0  0  0  0
   -3.9690   -1.3050   -0.5630 C   0  0  0  0  0  0  0  0  0  0  0  0
   -2.6810   -1.7760   -0.7580 C   0  0  0  0  0  0  0  0  0  0  0  0
   -2.3910   -3.2120   -0.8920 C   0  0  0  0  0  0  0  0  0  0  0  0
   -0.8970   -3.4380   -1.0060 C   0  0  0  0  0  0  0  0  0  0  0  0
   -1.6230   -0.8560   -0.8250 C   0  0  0  0  0  0  0  0  0  0  0  0
   -1.8500    0.5220   -0.6960 C   0  0  0  0  0  0  0  0  0  0  0  0
   -0.8730    1.4790   -0.7470 C   0  0  0  0  0  0  0  0  0  0  0  0
    0.5000    1.1670   -0.9370 N   0  0  0  0  0  0  0  0  0  0  0  0
    1.3060    1.6090   -0.0030 C   0  0  0  0  0  0  0  0  0  0  0  0
    2.6660    1.3700   -0.0880 N   0  0  0  0  0  0  0  0  0  0  0  0
    3.2380    0.2490   -0.0930 C   0  0  0  0  0  0  0  0  0  0  0  0
    2.5650   -1.0080   -0.0070 N   0  0  0  0  0  0  0  0  0  0  0  0
    3.3540   -2.1570    0.3750 C   0  0  0  0  0  0  0  0  0  0  0  0
    4.6470   -2.3070   -0.3520 C   0  0  2  0  0  0  0  0  0  0  0  0
    5.7220   -2.8680    0.5850 C   0  0  0  0  0  0  0  0  0  0  0  0
    5.1840   -1.0080   -0.9180 C   0  0  0  0  0  0  0  0  0  0  0  0
    4.6790    0.1410   -0.1970 N   0  0  0  0  0  0  0  0  0  0  0  0
    5.4830    1.1480    0.3760 C   0  0  0  0  0  0  0  0  0  0  0  0
    6.8150    1.3510   -0.0120 C   0  0  0  0  0  0  0  0  0  0  0  0
    7.5270    2.3440    0.6090 C   0  0  0  0  0  0  0  0  0  0  0  0
    7.0370    3.1540    1.5820 C   0  0  0  0  0  0  0  0  0  0  0  0
    5.7420    2.9550    1.9540 N   0  0  0  0  0  0  0  0  0  0  0  0
    5.0150    1.9920    1.3700 C   0  0  0  0  0  0  0  0  0  0  0  0
   -1.2660    2.8220   -0.6000 C   0  0  0  0  0  0  0  0  0  0  0  0
   -2.6040    3.1890   -0.4080 C   0  0  0  0  0  0  0  0  0  0  0  0
   -3.5850    2.2250   -0.3570 C   0  0  0  0  0  0  0  0  0  0  0  0
   -3.1440    0.9410   -0.5040 C   0  0  0  0  0  0  0  0  0  0  0  0
   -4.1360    0.0470   -0.4440 C   0  0  0  0  0  0  0  0  0  0  0  0
  1  2  1  0
  2  3  2  3
  3  4  1  0
  3 33  1  0
  4  5  2  0
  4 35  1  0
  5  6  1  0
  6  7  1  0
  7  8  1  0
  8  9  2  0
  8 35  1  0
  9 10  1  0
  9 12  1  0
 10 11  1  0
 12 13  2  0
 13 14  1  0
 13 34  1  0
 14 15  1  0
 14 31  2  0
 15 16  2  3
 16 17  1  0
 17 18  2  3
 18 19  1  0
 18 24  1  0
 19 20  1  0
 20 21  1  0
 21 22  1  1
 21 23  1  0
 23 24  1  0
 24 25  1  0
 25 26  2  0
 25 30  1  0
 26 27  1  0
 27 28  2  0
 28 29  1  0
 29 30  2  0
 31 32  1  0
 32 33  2  0
 33 34  1  0
 34 35  2  0
M  CHG  1  15   1
M  END
