
     RDKit          3D

 33 36  0  0  0  0  0  0  0  0999 V2000
    7.5160   -2.7980    3.0780 N   0  0  0  0  0  0  0  0  0  0  0  0
    6.5670   -2.1710    2.7840 C   0  0  0  0  0  0  0  0  0  0  0  0
    5.4230   -1.3950    2.4090 C   0  0  0  0  0  0  0  0  0  0  0  0
    4.5460   -0.7890    3.2830 C   0  0  0  0  0  0  0  0  0  0  0  0
    3.6100   -0.1450    2.5130 C   0  0  0  0  0  0  0  0  0  0  0  0
    2.5110    0.6140    3.0210 N   0  0  0  0  0  0  0  0  0  0  0  0
    1.6030    1.2600    2.1130 C   0  0  0  0  0  0  0  0  0  0  0  0
    1.8420    1.1140    0.9080 O   0  0  0  0  0  0  0  0  0  0  0  0
    0.4530    2.0550    2.6030 C   0  0  0  0  0  0  0  0  0  0  0  0
   -0.4240    2.6220    1.5560 C   0  0  0  0  0  0  0  0  0  0  0  0
   -1.2400    1.4580    0.5290 S   0  0  1  0  0  0  0  0  0  0  0  0
   -0.3610    0.5740   -0.2590 O   0  0  0  0  0  0  0  0  0  0  0  0
   -2.1040    0.5910    1.4000 O   0  0  0  0  0  0  0  0  0  0  0  0
   -2.2130    2.4130   -0.6380 C   0  0  0  0  0  0  0  0  0  0  0  0
   -2.9720    1.5920   -1.6020 C   0  0  0  0  0  0  0  0  0  0  0  0
   -3.9530    0.6820   -1.0240 N   0  0  1  0  0  0  0  0  0  0  0  0
   -4.8550    1.3300   -0.1450 C   0  0  0  0  0  0  0  0  0  0  0  0
   -6.2050    1.5420   -0.8040 C   0  0  0  0  0  0  0  0  0  0  0  0
   -6.6390    0.0610   -1.0400 C   0  0  0  0  0  0  0  0  0  0  0  0
   -8.0040   -0.8800   -0.6660 S   0  0  0  0  0  0  0  0  0  0  0  0
   -7.3710   -2.4360   -1.4090 C   0  0  0  0  0  0  0  0  0  0  0  0
   -6.1510   -2.0300   -1.8680 C   0  0  0  0  0  0  0  0  0  0  0  0
   -5.7770   -0.7640   -1.6830 C   0  0  0  0  0  0  0  0  0  0  0  0
   -4.4870   -0.0760   -2.1020 C   0  0  0  0  0  0  0  0  0  0  0  0
    3.9550   -0.3850    1.2470 N   0  0  0  0  0  0  0  0  0  0  0  0
    5.0380   -1.1330    1.1420 N   0  0  0  0  0  0  0  0  0  0  0  0
    5.6720   -1.5780   -0.0680 C   0  0  0  0  0  0  0  0  0  0  0  0
    6.0840   -0.7210   -1.0680 C   0  0  0  0  0  0  0  0  0  0  0  0
    6.6880   -1.1800   -2.2270 C   0  0  0  0  0  0  0  0  0  0  0  0
    6.8980   -2.5290   -2.4160 C   0  0  0  0  0  0  0  0  0  0  0  0
    7.6580   -3.1290   -3.8770 Cl  0  0  0  0  0  0  0  0  0  0  0  0
    6.4860   -3.3830   -1.4150 C   0  0  0  0  0  0  0  0  0  0  0  0
    5.8790   -2.9150   -0.2540 C   0  0  0  0  0  0  0  0  0  0  0  0
  1  2  3  0
  2  3  1  0
  3  4  2  0
  3 26  1  0
  4  5  1  0
  5  6  1  0
  5 25  2  0
  6  7  1  0
  7  8  2  0
  7  9  1  0
  9 10  1  0
 11 10  1  1
 11 12  2  0
 11 13  2  0
 11 14  1  0
 14 15  1  0
 16 15  1  6
 16 17  1  0
 16 24  1  0
 17 18  1  0
 18 19  1  0
 19 20  1  0
 19 23  2  0
 20 21  1  0
 21 22  2  0
 22 23  1  0
 23 24  1  0
 25 26  1  0
 26 27  1  0
 27 28  2  0
 27 33  1  0
 28 29  1  0
 29 30  2  0
 30 31  1  0
 30 32  1  0
 32 33  2  0
M  CHG  1  16   1
M  END
