
     RDKit          3D

 35 40  0  0  0  0  0  0  0  0999 V2000
    6.0730    1.0420   -2.1570 C   0  0  0  0  0  0  0  0  0  0  0  0
    5.6790   -0.4100   -1.7970 C   0  0  0  0  0  0  0  0  0  0  0  0
    5.1760   -0.2770   -0.4050 C   0  0  0  0  0  0  0  0  0  0  0  0
    3.8690   -0.0910   -0.2440 N   0  0  0  0  0  0  0  0  0  0  0  0
    3.3080    0.3690    0.8590 C   0  0  0  0  0  0  0  0  0  0  0  0
    1.8990    0.4400    1.0550 N   0  0  0  0  0  0  0  0  0  0  0  0
    1.0330   -0.1950    0.2100 C   0  0  2  0  0  0  0  0  0  0  0  0
    1.0930    0.0480   -1.3050 C   0  0  0  0  0  0  0  0  0  0  0  0
    0.4930   -1.1020   -2.0110 C   0  0  0  0  0  0  0  0  0  0  0  0
   -0.0670   -2.2350   -1.0450 C   0  0  0  0  0  0  0  0  0  0  0  0
   -0.9190   -1.5420    0.0170 C   0  0  0  0  0  0  0  0  0  0  0  0
   -0.4130   -0.2710    0.4000 C   0  0  0  0  0  0  0  0  0  0  0  0
   -1.3170    0.6340    0.8220 C   0  0  0  0  0  0  0  0  0  0  0  0
   -2.6540    0.3840    0.9130 C   0  0  0  0  0  0  0  0  0  0  0  0
   -3.7250    1.2840    1.4060 C   0  0  0  0  0  0  0  0  0  0  0  0
   -4.0360    2.4370    0.7810 N   0  0  0  0  0  0  0  0  0  0  0  0
   -5.2470    3.0770    1.1090 C   0  0  0  0  0  0  0  0  0  0  0  0
   -5.3800    4.2620    0.1520 C   0  0  0  0  0  0  0  0  0  0  0  0
   -4.3620    3.9970   -0.9120 C   0  0  0  0  0  0  0  0  0  0  0  0
   -3.3340    3.1030   -0.1870 C   0  0  0  0  0  0  0  0  0  0  0  0
   -3.1350   -0.8760    0.5590 C   0  0  0  0  0  0  0  0  0  0  0  0
   -4.4860   -1.1530    0.5320 C   0  0  0  0  0  0  0  0  0  0  0  0
   -4.9250   -2.3630    0.0770 C   0  0  0  0  0  0  0  0  0  0  0  0
   -4.0550   -3.3530   -0.3260 C   0  0  0  0  0  0  0  0  0  0  0  0
   -4.5300   -4.5990   -0.6600 C   0  0  0  0  0  0  0  0  0  0  0  0
   -3.6620   -5.6270   -0.9700 C   0  0  0  0  0  0  0  0  0  0  0  0
   -2.2950   -5.3780   -0.9300 C   0  0  0  0  0  0  0  0  0  0  0  0
   -1.7980   -4.1030   -0.5870 C   0  0  0  0  0  0  0  0  0  0  0  0
   -2.6850   -3.1120   -0.3060 C   0  0  0  0  0  0  0  0  0  0  0  0
   -2.2400   -1.8550    0.1110 C   0  0  0  0  0  0  0  0  0  0  0  0
    4.1910    0.6660    1.9090 C   0  0  0  0  0  0  0  0  0  0  0  0
    5.5920    0.4720    1.7540 C   0  0  0  0  0  0  0  0  0  0  0  0
    6.3940    1.1320    2.6670 N   0  0  0  0  0  0  0  0  0  0  0  0
    7.4320    1.6400    3.3670 C   0  0  0  0  0  0  0  0  0  0  0  0
    6.0660   -0.0040    0.5860 N   0  0  0  0  0  0  0  0  0  0  0  0
  1  2  1  0
  2  3  1  0
  3  4  2  0
  3 35  1  0
  4  5  1  0
  5  6  1  0
  5 31  2  0
  7  6  1  1
  7  8  1  0
  7 12  1  0
  8  9  1  0
  9 10  1  0
 10 11  1  0
 11 12  2  0
 11 30  1  0
 12 13  1  0
 13 14  2  0
 14 15  1  0
 14 21  1  0
 15 16  1  0
 16 17  1  0
 16 20  1  0
 17 18  1  0
 18 19  1  0
 19 20  1  0
 21 22  2  0
 21 30  1  0
 22 23  1  0
 23 24  2  0
 24 25  1  0
 24 29  1  0
 25 26  2  0
 26 27  1  0
 27 28  2  0
 28 29  1  0
 29 30  2  0
 31 32  1  0
 32 33  1  0
 32 35  2  0
 33 34  1  0
M  CHG  1  35   1
M  END
