
     RDKit          3D

 35 38  0  0  0  0  0  0  0  0999 V2000
    8.7380   -0.7060   -1.5640 C   0  0  0  0  0  0  0  0  0  0  0  0
    9.4540   -0.4180   -0.3200 C   0  0  0  0  0  0  0  0  0  0  0  0
   10.8110   -0.1610   -0.3310 C   0  0  0  0  0  0  0  0  0  0  0  0
   11.5080    0.1190    0.8220 C   0  0  0  0  0  0  0  0  0  0  0  0
   10.8060    0.1380    2.0250 C   0  0  0  0  0  0  0  0  0  0  0  0
    9.4300   -0.1240    2.0270 C   0  0  0  0  0  0  0  0  0  0  0  0
    8.5510   -0.1060    3.5490 Cl  0  0  0  0  0  0  0  0  0  0  0  0
    8.7540   -0.4010    0.8620 C   0  0  0  0  0  0  0  0  0  0  0  0
    7.3700   -0.6700    0.8420 N   0  0  0  0  0  0  0  0  0  0  0  0
    6.3570    0.2830    0.6650 C   0  0  0  0  0  0  0  0  0  0  0  0
    6.7210    1.4820    0.5120 O   0  0  0  0  0  0  0  0  0  0  0  0
    4.9470   -0.0160    0.6460 C   0  0  0  0  0  0  0  0  0  0  0  0
    4.1450   -1.0810    0.7540 C   0  0  0  0  0  0  0  0  0  0  0  0
    2.8740   -0.9690    0.6800 N   0  0  0  0  0  0  0  0  0  0  0  0
    2.2180    0.1270    0.5030 C   0  0  0  0  0  0  0  0  0  0  0  0
    0.9090    0.6090    0.3690 N   0  0  0  0  0  0  0  0  0  0  0  0
   -0.2340   -0.1990    0.3950 C   0  0  0  0  0  0  0  0  0  0  0  0
   -0.1440   -1.5550    0.5500 C   0  0  0  0  0  0  0  0  0  0  0  0
   -1.2910   -2.3610    0.5680 C   0  0  0  0  0  0  0  0  0  0  0  0
   -2.5340   -1.7890    0.4280 C   0  0  0  0  0  0  0  0  0  0  0  0
   -2.6190   -0.4290    0.2720 C   0  0  0  0  0  0  0  0  0  0  0  0
   -3.9060    0.2550    0.1000 C   0  0  0  0  0  0  0  0  0  0  0  0
   -3.9670    1.4900    0.3070 O   0  0  0  0  0  0  0  0  0  0  0  0
   -5.0810   -0.4390   -0.2960 N   0  0  0  0  0  0  0  0  0  0  0  0
   -6.3180    0.3130   -0.4440 C   0  0  1  0  0  0  0  0  0  0  0  0
   -6.6730    0.4120   -1.9360 C   0  0  0  0  0  0  0  0  0  0  0  0
   -7.6920    1.5420   -2.0480 C   0  0  0  0  0  0  0  0  0  0  0  0
   -8.8320    1.2750   -1.0830 C   0  0  2  0  0  0  0  0  0  0  0  0
   -8.8560    2.2560    0.0270 C   0  0  0  0  0  0  0  0  0  0  0  0
   -8.7360    1.8580    1.1980 O   0  0  0  0  0  0  0  0  0  0  0  0
   -9.0110    3.6270   -0.2030 O   0  0  0  0  0  0  0  0  0  0  0  0
   -8.7770   -0.1200   -0.5250 C   0  0  0  0  0  0  0  0  0  0  0  0
   -7.4850   -0.3830    0.2150 C   0  0  0  0  0  0  0  0  0  0  0  0
   -1.4810    0.3540    0.2570 C   0  0  0  0  0  0  0  0  0  0  0  0
    3.6520    1.3110    0.4090 S   0  0  0  0  0  0  0  0  0  0  0  0
  1  2  1  0
  2  3  2  0
  2  8  1  0
  3  4  1  0
  4  5  2  0
  5  6  1  0
  6  7  1  0
  6  8  2  0
  8  9  1  0
  9 10  1  0
 10 11  2  0
 10 12  1  0
 12 13  2  0
 12 35  1  0
 13 14  1  0
 14 15  2  0
 15 16  1  0
 15 35  1  0
 16 17  1  0
 17 18  2  0
 17 34  1  0
 18 19  1  0
 19 20  2  0
 20 21  1  0
 21 22  1  0
 21 34  2  0
 22 23  2  0
 22 24  1  0
 25 24  1  6
 25 26  1  0
 25 33  1  0
 26 27  1  0
 27 28  1  0
 28 29  1  1
 28 32  1  0
 29 30  2  0
 29 31  1  0
 32 33  1  0
M  END
