
     RDKit          3D

 34 38  0  0  0  0  0  0  0  0999 V2000
    1.0560   -3.2510   -2.4160 C   0  0  0  0  0  0  0  0  0  0  0  0
    1.7690   -2.5230   -1.5080 C   0  0  0  0  0  0  0  0  0  0  0  0
    2.7560   -3.2020   -0.7740 C   0  0  0  0  0  0  0  0  0  0  0  0
    3.6020   -2.9900    0.1500 C   0  0  0  0  0  0  0  0  0  0  0  0
    3.9480   -1.8440    0.9390 C   0  0  0  0  0  0  0  0  0  0  0  0
    3.2860   -0.6940    1.1830 C   0  0  0  0  0  0  0  0  0  0  0  0
    4.0730    0.1070    1.9370 N   0  0  0  0  0  0  0  0  0  0  0  0
    3.6780    1.4420    2.3930 C   0  0  2  0  0  0  0  0  0  0  0  0
    2.6090    1.3410    3.2540 F   0  0  0  0  0  0  0  0  0  0  0  0
    3.3340    2.1640    1.2660 F   0  0  0  0  0  0  0  0  0  0  0  0
    4.7710    2.0380    2.9750 F   0  0  0  0  0  0  0  0  0  0  0  0
    5.2070   -0.5070    2.1750 C   0  0  0  0  0  0  0  0  0  0  0  0
    6.2000   -0.0960    2.8400 O   0  0  0  0  0  0  0  0  0  0  0  0
    5.1550   -1.6910    1.5810 N   0  0  0  0  0  0  0  0  0  0  0  0
    1.4280   -1.1380   -1.4940 C   0  0  0  0  0  0  0  0  0  0  0  0
    2.3330   -0.1660   -1.9260 C   0  0  0  0  0  0  0  0  0  0  0  0
    2.0160    1.1900   -1.9270 C   0  0  0  0  0  0  0  0  0  0  0  0
    0.7690    1.5580   -1.4850 C   0  0  0  0  0  0  0  0  0  0  0  0
    0.4220    2.8900   -1.4730 O   0  0  0  0  0  0  0  0  0  0  0  0
   -0.8060    3.3960   -1.0490 C   0  0  2  0  0  0  0  0  0  0  0  0
   -1.4760    4.3670   -1.9950 C   0  0  0  0  0  0  0  0  0  0  0  0
   -1.1620    5.5420   -1.1020 C   0  0  0  0  0  0  0  0  0  0  0  0
   -0.6190    4.5510   -0.0840 C   0  0  0  0  0  0  0  0  0  0  0  0
   -0.1030    0.6350   -1.0690 N   0  0  0  0  0  0  0  0  0  0  0  0
    0.1720   -0.6920   -1.0550 C   0  0  0  0  0  0  0  0  0  0  0  0
   -0.7040   -1.6890   -0.6310 N   0  0  0  0  0  0  0  0  0  0  0  0
   -1.8720   -1.6440   -0.1880 C   0  0  0  0  0  0  0  0  0  0  0  0
   -2.5520   -2.8500    0.1790 N   0  0  0  0  0  0  0  0  0  0  0  0
   -3.9430   -2.6930    0.5610 C   0  0  1  0  0  0  0  0  0  0  0  0
   -3.9620   -1.8670    1.8450 C   0  0  0  0  0  0  0  0  0  0  0  0
   -4.4830   -0.5000    1.4530 C   0  0  0  0  0  0  0  0  0  0  0  0
   -4.0630   -0.4250   -0.0030 C   0  0  2  0  0  0  0  0  0  0  0  0
   -4.5760   -1.7840   -0.5010 C   0  0  0  0  0  0  0  0  0  0  0  0
   -2.6070   -0.4450   -0.0110 N   0  0  0  0  0  0  0  0  0  0  0  0
  1  2  2  0
  2  3  1  0
  2 15  1  0
  3  4  2  3
  4  5  1  0
  5  6  2  0
  5 14  1  0
  6  7  1  0
  7  8  1  0
  7 12  1  0
  8  9  1  1
  8 10  1  0
  8 11  1  0
 12 13  2  0
 12 14  1  0
 15 16  2  0
 15 25  1  0
 16 17  1  0
 17 18  2  0
 18 19  1  0
 18 24  1  0
 20 19  1  6
 20 21  1  0
 20 23  1  0
 21 22  1  0
 22 23  1  0
 24 25  2  0
 25 26  1  0
 26 27  2  3
 27 28  1  0
 27 34  1  0
 28 29  1  0
 29 30  1  1
 29 33  1  0
 30 31  1  0
 32 31  1  1
 32 33  1  0
 32 34  1  0
M  END
