
     RDKit          3D

 33 36  0  0  0  0  0  0  0  0999 V2000
    4.2680   -1.4400   -1.3980 C   0  0  0  0  0  0  0  0  0  0  0  0
    4.1640   -1.7490    0.0560 C   0  0  0  0  0  0  0  0  0  0  0  0
    3.4150   -0.7400    0.8820 C   0  0  1  0  0  0  0  0  0  0  0  0
    3.4700   -1.2990    2.3260 C   0  0  0  0  0  0  0  0  0  0  0  0
    4.8550   -1.4530    2.8350 C   0  0  0  0  0  0  0  0  0  0  0  0
    4.0690    0.6100    0.8840 C   0  0  0  0  0  0  0  0  0  0  0  0
    2.9220    1.6300    0.7780 C   0  0  0  0  0  0  0  0  0  0  0  0
    2.3210    1.3400   -0.5740 C   0  0  0  0  0  0  0  0  0  0  0  0
    1.5430    0.0930   -0.5520 N   0  0  0  0  0  0  0  0  0  0  0  0
    0.1910    0.5550   -0.2970 C   0  0  0  0  0  0  0  0  0  0  0  0
   -0.8820   -0.4910   -0.3870 C   0  0  1  0  0  0  0  0  0  0  0  0
   -2.1290    0.1230   -0.0570 N   0  0  0  0  0  0  0  0  0  0  0  0
   -3.1830    0.3420   -0.7020 C   0  0  0  0  0  0  0  0  0  0  0  0
   -4.3420    1.0210   -0.0660 C   0  0  0  0  0  0  0  0  0  0  0  0
   -4.2850    1.4260    1.2430 C   0  0  0  0  0  0  0  0  0  0  0  0
   -3.1710    1.2490    2.0810 N   0  0  0  0  0  0  0  0  0  0  0  0
   -3.2180    1.7180    3.4820 C   0  0  0  0  0  0  0  0  0  0  0  0
   -5.3970    2.0430    1.7630 N   0  0  0  0  0  0  0  0  0  0  0  0
   -6.4930    2.2400    1.0140 C   0  0  0  0  0  0  0  0  0  0  0  0
   -7.5260    2.8150    1.4990 O   0  0  0  0  0  0  0  0  0  0  0  0
   -6.5570    1.8520   -0.2540 N   0  0  0  0  0  0  0  0  0  0  0  0
   -7.6500    2.0440   -1.0100 F   0  0  0  0  0  0  0  0  0  0  0  0
   -5.4910    1.2350   -0.8270 C   0  0  0  0  0  0  0  0  0  0  0  0
   -5.6370    0.9050   -2.0170 O   0  0  0  0  0  0  0  0  0  0  0  0
   -3.2360   -0.0730   -2.0340 N   0  0  0  0  0  0  0  0  0  0  0  0
   -2.0840   -0.7280   -2.5980 C   0  0  0  0  0  0  0  0  0  0  0  0
   -2.1680   -1.1290   -3.9220 C   0  0  0  0  0  0  0  0  0  0  0  0
   -1.1180   -1.7550   -4.5150 C   0  0  0  0  0  0  0  0  0  0  0  0
    0.0150   -1.9830   -3.7980 C   0  0  0  0  0  0  0  0  0  0  0  0
    1.0580   -2.6040   -4.3840 F   0  0  0  0  0  0  0  0  0  0  0  0
    0.0890   -1.5730   -2.4580 C   0  0  0  0  0  0  0  0  0  0  0  0
   -0.9640   -0.9360   -1.8340 C   0  0  0  0  0  0  0  0  0  0  0  0
    1.9710   -0.7570    0.5390 C   0  0  0  0  0  0  0  0  0  0  0  0
  1  2  1  0
  3  2  1  6
  3  4  1  0
  3  6  1  0
  3 33  1  0
  4  5  1  0
  6  7  1  0
  7  8  1  0
  8  9  1  0
  9 10  1  0
  9 33  1  0
 11 10  1  6
 11 12  1  0
 11 32  1  0
 12 13  2  0
 13 14  1  0
 13 25  1  0
 14 15  2  0
 14 23  1  0
 15 16  1  0
 15 18  1  0
 16 17  1  0
 18 19  1  0
 19 20  2  0
 19 21  1  0
 21 22  1  0
 21 23  1  0
 23 24  2  0
 25 26  1  0
 26 27  2  0
 26 32  1  0
 27 28  1  0
 28 29  2  0
 29 30  1  0
 29 31  1  0
 31 32  2  0
M  END
