
     RDKit          3D

 34 37  0  0  0  0  0  0  0  0999 V2000
   -1.8850   -0.6390    3.8880 C   0  0  0  0  0  0  0  0  0  0  0  0
   -2.2150    0.4250    2.8990 C   0  0  0  0  0  0  0  0  0  0  0  0
   -1.1000    0.7710    1.9470 C   0  0  0  0  0  0  0  0  0  0  0  0
   -0.6240   -0.3520    1.1000 C   0  0  2  0  0  0  0  0  0  0  0  0
    0.4730    0.1030    0.1990 C   0  0  1  0  0  0  0  0  0  0  0  0
    1.5940   -0.8230    0.1130 N   0  0  0  0  0  0  0  0  0  0  0  0
    2.8640   -0.2970   -0.3040 C   0  0  0  0  0  0  0  0  0  0  0  0
    2.9050    0.9120   -0.5760 O   0  0  0  0  0  0  0  0  0  0  0  0
    4.0130   -1.0840   -0.4110 N   0  0  0  0  0  0  0  0  0  0  0  0
    5.3330   -0.8160   -0.8170 C   0  0  0  0  0  0  0  0  0  0  0  0
    6.0840    0.2030   -0.0590 C   0  0  0  0  0  0  0  0  0  0  0  0
    7.0240   -0.2390    0.7680 C   0  0  0  0  0  0  0  0  0  0  0  0
    7.8730    0.5710    1.6040 C   0  0  2  0  0  0  0  0  0  0  0  0
    9.1980    0.1200    1.3790 F   0  0  0  0  0  0  0  0  0  0  0  0
    7.5980    0.2860    2.9500 F   0  0  0  0  0  0  0  0  0  0  0  0
    7.8550    2.0450    1.3620 C   0  0  0  0  0  0  0  0  0  0  0  0
    6.8120    2.4530    0.4380 C   0  0  0  0  0  0  0  0  0  0  0  0
    5.9860    1.6370   -0.2280 C   0  0  0  0  0  0  0  0  0  0  0  0
    5.1280    2.1750   -1.1300 F   0  0  0  0  0  0  0  0  0  0  0  0
   -0.1510    0.2030   -1.2020 C   0  0  0  0  0  0  0  0  0  0  0  0
   -1.6430    0.1100   -0.8870 C   0  0  0  0  0  0  0  0  0  0  0  0
   -1.6860   -0.8670    0.1900 N   0  0  0  0  0  0  0  0  0  0  0  0
   -2.4630   -1.9790    0.3660 C   0  0  0  0  0  0  0  0  0  0  0  0
   -2.2270   -2.7020    1.4200 O   0  0  0  0  0  0  0  0  0  0  0  0
   -3.5720   -2.5970   -0.4400 C   0  0  0  0  0  0  0  0  0  0  0  0
   -4.2990   -1.1270   -0.8260 C   0  0  0  0  0  0  0  0  0  0  0  0
   -5.3650   -1.3460   -1.5790 C   0  0  0  0  0  0  0  0  0  0  0  0
   -6.2730   -0.3580   -2.1430 C   0  0  0  0  0  0  0  0  0  0  0  0
   -6.1800    0.9510   -1.9880 C   0  0  0  0  0  0  0  0  0  0  0  0
   -7.2990    1.5800   -2.7240 C   0  0  0  0  0  0  0  0  0  0  0  0
   -8.0040    0.4130   -3.2980 C   0  0  0  0  0  0  0  0  0  0  0  0
   -7.4060   -0.6430   -2.9540 N   0  0  0  0  0  0  0  0  0  0  0  0
   -5.4330   -2.6930   -1.7250 N   0  0  0  0  0  0  0  0  0  0  0  0
   -4.4370   -3.0790   -1.0690 N   0  0  0  0  0  0  0  0  0  0  0  0
  1  2  1  0
  2  3  1  0
  4  3  1  6
  4  5  1  0
  4 22  1  0
  5  6  1  6
  5 20  1  0
  6  7  1  0
  7  8  2  0
  7  9  1  0
  9 10  1  0
 10 11  1  0
 11 12  2  0
 11 18  1  0
 12 13  1  0
 13 14  1  6
 13 15  1  0
 13 16  1  0
 16 17  1  0
 17 18  2  0
 18 19  1  0
 20 21  1  0
 21 22  1  0
 22 23  1  0
 23 24  2  0
 23 25  1  0
 25 26  1  0
 25 34  2  0
 26 27  2  0
 27 28  1  0
 27 33  1  0
 28 29  2  0
 28 32  1  0
 29 30  1  0
 30 31  1  0
 31 32  2  0
 33 34  1  0
M  END
