
     RDKit          3D

 34 37  0  0  0  0  0  0  0  0999 V2000
    0.3310    1.2270    1.6600 C   0  0  0  0  0  0  0  0  0  0  0  0
   -0.1320    0.3970    0.4960 C   0  0  0  0  0  0  0  0  0  0  0  0
    0.6360   -0.4550   -0.1040 C   0  0  0  0  0  0  0  0  0  0  0  0
    1.9830   -0.8630    0.0970 C   0  0  0  0  0  0  0  0  0  0  0  0
    2.4960   -1.7230   -0.7460 O   0  0  0  0  0  0  0  0  0  0  0  0
    2.8750   -0.4670    1.1070 N   0  0  0  0  0  0  0  0  0  0  0  0
    4.2560   -0.9970    1.1570 C   0  0  0  0  0  0  0  0  0  0  0  0
    5.0600   -0.6190   -0.0400 C   0  0  2  0  0  0  0  0  0  0  0  0
    6.4820   -1.1690    0.0060 C   0  0  2  0  0  0  0  0  0  0  0  0
    6.8930   -1.8610    1.2250 C   0  0  0  0  0  0  0  0  0  0  0  0
    7.2390   -2.4120    2.1900 N   0  0  0  0  0  0  0  0  0  0  0  0
    6.2190    0.2860    0.1130 C   0  0  2  0  0  0  0  0  0  0  0  0
    6.4550    0.9500    1.4230 C   0  0  0  0  0  0  0  0  0  0  0  0
    6.5230    1.1500   -1.1020 C   0  0  0  0  0  0  0  0  0  0  0  0
   -1.5310    0.5480    0.1820 N   0  0  0  0  0  0  0  0  0  0  0  0
   -2.1870    1.6120    0.6080 N   0  0  0  0  0  0  0  0  0  0  0  0
   -3.5030    1.5200    0.2690 C   0  0  0  0  0  0  0  0  0  0  0  0
   -4.4920    2.5450    0.5560 C   0  0  0  0  0  0  0  0  0  0  0  0
   -4.1630    3.7870    1.1250 C   0  0  0  0  0  0  0  0  0  0  0  0
   -5.3040    4.5410    1.2890 C   0  0  0  0  0  0  0  0  0  0  0  0
   -6.3240    3.7830    0.8310 N   0  0  0  0  0  0  0  0  0  0  0  0
   -5.8280    2.5830    0.3910 C   0  0  0  0  0  0  0  0  0  0  0  0
   -6.7240    1.5310   -0.2040 C   0  0  2  0  0  0  0  0  0  0  0  0
   -6.4230    1.2890   -1.5250 F   0  0  0  0  0  0  0  0  0  0  0  0
   -8.0580    1.9580   -0.0940 F   0  0  0  0  0  0  0  0  0  0  0  0
   -6.6810    0.3490    0.5030 F   0  0  0  0  0  0  0  0  0  0  0  0
   -3.6090    0.3380   -0.3840 C   0  0  0  0  0  0  0  0  0  0  0  0
   -2.3330   -0.2870   -0.4390 C   0  0  0  0  0  0  0  0  0  0  0  0
   -2.0830   -1.5280   -1.0460 N   0  0  0  0  0  0  0  0  0  0  0  0
   -2.0940   -1.6650   -2.5160 C   0  0  0  0  0  0  0  0  0  0  0  0
   -2.9400   -2.8870   -2.8150 C   0  0  0  0  0  0  0  0  0  0  0  0
   -3.6940   -3.2720   -1.7060 O   0  0  0  0  0  0  0  0  0  0  0  0
   -2.9030   -3.7480   -0.6730 C   0  0  0  0  0  0  0  0  0  0  0  0
   -1.8180   -2.7610   -0.3120 C   0  0  0  0  0  0  0  0  0  0  0  0
  1  2  1  0
  2  3  2  3
  2 15  1  0
  3  4  1  0
  4  5  2  0
  4  6  1  0
  6  7  1  0
  8  7  1  1
  8  9  1  0
  8 12  1  0
  9 10  1  1
  9 12  1  0
 10 11  3  0
 12 13  1  1
 12 14  1  0
 15 16  1  0
 15 28  1  0
 16 17  2  0
 17 18  1  0
 17 27  1  0
 18 19  1  0
 18 22  2  0
 19 20  2  0
 20 21  1  0
 21 22  1  0
 22 23  1  0
 23 24  1  6
 23 25  1  0
 23 26  1  0
 27 28  2  0
 28 29  1  0
 29 30  1  0
 29 34  1  0
 30 31  1  0
 31 32  1  0
 32 33  1  0
 33 34  1  0
M  END
