
     RDKit          3D

 35 39  0  0  0  0  0  0  0  0999 V2000
    7.1340   -0.7010    2.1990 C   0  0  0  0  0  0  0  0  0  0  0  0
    7.7890   -1.2610    0.9860 C   0  0  0  0  0  0  0  0  0  0  0  0
    9.1660   -1.4570    1.0270 C   0  0  0  0  0  0  0  0  0  0  0  0
    9.8440   -1.9710   -0.0580 C   0  0  0  0  0  0  0  0  0  0  0  0
    9.0970   -2.2820   -1.1850 C   0  0  0  0  0  0  0  0  0  0  0  0
    7.7240   -2.0870   -1.2270 C   0  0  0  0  0  0  0  0  0  0  0  0
    6.7690   -2.4770   -2.6490 Cl  0  0  0  0  0  0  0  0  0  0  0  0
    7.0560   -1.5730   -0.1390 C   0  0  0  0  0  0  0  0  0  0  0  0
    5.6540   -1.3460   -0.1060 N   0  0  0  0  0  0  0  0  0  0  0  0
    5.1220   -0.1160   -0.5040 C   0  0  0  0  0  0  0  0  0  0  0  0
    5.9130    0.7790   -0.8890 O   0  0  0  0  0  0  0  0  0  0  0  0
    3.6660    0.1140   -0.4690 C   0  0  0  0  0  0  0  0  0  0  0  0
    2.6520   -0.6920   -0.1000 C   0  0  0  0  0  0  0  0  0  0  0  0
    1.4410   -0.2190   -0.1730 N   0  0  0  0  0  0  0  0  0  0  0  0
    1.1220    0.8980   -0.5450 C   0  0  0  0  0  0  0  0  0  0  0  0
    0.0040    1.7370   -0.7560 N   0  0  0  0  0  0  0  0  0  0  0  0
   -1.3350    1.3630   -0.5190 C   0  0  0  0  0  0  0  0  0  0  0  0
   -1.6190    0.1020   -0.0620 C   0  0  0  0  0  0  0  0  0  0  0  0
   -2.9180   -0.3050    0.1820 C   0  0  0  0  0  0  0  0  0  0  0  0
   -3.1080   -1.6320    0.6490 N   0  0  0  0  0  0  0  0  0  0  0  0
   -2.0250   -2.5770    0.7670 C   0  0  0  0  0  0  0  0  0  0  0  0
   -2.6290   -3.9660    0.7330 C   0  0  0  0  0  0  0  0  0  0  0  0
   -3.5280   -4.2080    1.7390 O   0  0  0  0  0  0  0  0  0  0  0  0
   -4.2080   -3.0990    2.1730 C   0  0  0  0  0  0  0  0  0  0  0  0
   -4.4220   -2.0900    1.0350 C   0  0  0  0  0  0  0  0  0  0  0  0
   -3.9300    0.5810   -0.0410 C   0  0  0  0  0  0  0  0  0  0  0  0
   -3.6860    1.8720   -0.5040 C   0  0  0  0  0  0  0  0  0  0  0  0
   -4.7540    2.7720   -0.7280 N   0  0  0  0  0  0  0  0  0  0  0  0
   -6.1170    2.3230   -0.4520 C   0  0  0  0  0  0  0  0  0  0  0  0
   -7.1200    3.4390   -0.5170 C   0  0  0  0  0  0  0  0  0  0  0  0
   -6.4680    4.6220   -0.1330 O   0  0  0  0  0  0  0  0  0  0  0  0
   -5.6870    4.9890   -1.2420 C   0  0  0  0  0  0  0  0  0  0  0  0
   -4.4690    4.0990   -1.2200 C   0  0  0  0  0  0  0  0  0  0  0  0
   -2.3880    2.2470   -0.7380 C   0  0  0  0  0  0  0  0  0  0  0  0
    2.8470    1.5730   -0.9240 S   0  0  0  0  0  0  0  0  0  0  0  0
  1  2  1  0
  2  3  2  0
  2  8  1  0
  3  4  1  0
  4  5  2  0
  5  6  1  0
  6  7  1  0
  6  8  2  0
  8  9  1  0
  9 10  1  0
 10 11  2  0
 10 12  1  0
 12 13  2  0
 12 35  1  0
 13 14  1  0
 14 15  2  0
 15 16  1  0
 15 35  1  0
 16 17  1  0
 17 18  2  0
 17 34  1  0
 18 19  1  0
 19 20  1  0
 19 26  2  0
 20 21  1  0
 20 25  1  0
 21 22  1  0
 22 23  1  0
 23 24  1  0
 24 25  1  0
 26 27  1  0
 27 28  1  0
 27 34  2  0
 28 29  1  0
 28 33  1  0
 29 30  1  0
 30 31  1  0
 31 32  1  0
 32 33  1  0
M  END
