
     RDKit          3D

 34 37  0  0  0  0  0  0  0  0999 V2000
   -7.4590    2.7360    0.0320 C   0  0  0  0  0  0  0  0  0  0  0  0
   -7.9470    1.3350   -0.0120 C   0  0  0  0  0  0  0  0  0  0  0  0
   -7.1000    0.2840    0.0970 C   0  0  0  0  0  0  0  0  0  0  0  0
   -5.6920    0.6010    0.2600 C   0  0  0  0  0  0  0  0  0  0  0  0
   -4.7400    0.1470   -0.7020 N   0  0  0  0  0  0  0  0  0  0  0  0
   -4.5050   -1.2350   -0.6320 C   0  0  0  0  0  0  0  0  0  0  0  0
   -3.2220   -1.7390   -1.2640 C   0  0  0  0  0  0  0  0  0  0  0  0
   -2.0690   -0.7830   -1.1780 C   0  0  0  0  0  0  0  0  0  0  0  0
   -2.3670    0.1900   -0.0950 C   0  0  1  0  0  0  0  0  0  0  0  0
   -2.2460   -0.0740    1.3480 C   0  0  0  0  0  0  0  0  0  0  0  0
   -1.3840    0.9160    0.7120 C   0  0  1  0  0  0  0  0  0  0  0  0
    0.0800    0.6160    0.5150 C   0  0  0  0  0  0  0  0  0  0  0  0
    0.8320    1.5560    0.2010 O   0  0  0  0  0  0  0  0  0  0  0  0
    0.6260   -0.6630    0.6730 N   0  0  0  0  0  0  0  0  0  0  0  0
    1.9760   -1.0570    0.5160 C   0  0  0  0  0  0  0  0  0  0  0  0
    2.2890   -2.4220    0.3800 C   0  0  0  0  0  0  0  0  0  0  0  0
    3.5860   -2.8330    0.2480 C   0  0  0  0  0  0  0  0  0  0  0  0
    4.6490   -1.9300    0.2440 C   0  0  0  0  0  0  0  0  0  0  0  0
    4.3790   -0.6140    0.3740 C   0  0  0  0  0  0  0  0  0  0  0  0
    5.3310    0.4010    0.3810 N   0  0  0  0  0  0  0  0  0  0  0  0
    6.7250    0.2320    0.1320 C   0  0  0  0  0  0  0  0  0  0  0  0
    7.2040   -0.8750   -0.1210 O   0  0  0  0  0  0  0  0  0  0  0  0
    7.6280    1.3330    0.1650 N   0  0  0  0  0  0  0  0  0  0  0  0
    9.0130    1.1990   -0.0760 C   0  0  0  0  0  0  0  0  0  0  0  0
    9.7680    0.1110   -0.3730 C   0  0  0  0  0  0  0  0  0  0  0  0
   11.0980    0.5260   -0.5140 C   0  0  0  0  0  0  0  0  0  0  0  0
   11.1130    1.8470   -0.2990 N   0  0  0  0  0  0  0  0  0  0  0  0
    9.8910    2.2490   -0.0410 N   0  0  0  0  0  0  0  0  0  0  0  0
    3.0420   -0.2160    0.5070 C   0  0  0  0  0  0  0  0  0  0  0  0
   -3.5770    1.0070   -0.5700 C   0  0  0  0  0  0  0  0  0  0  0  0
   -7.6940   -1.0530    0.0400 C   0  0  2  0  0  0  0  0  0  0  0  0
   -9.0570   -0.9700    0.4580 F   0  0  0  0  0  0  0  0  0  0  0  0
   -7.1290   -2.0090    0.8140 F   0  0  0  0  0  0  0  0  0  0  0  0
   -7.8160   -1.5520   -1.2610 F   0  0  0  0  0  0  0  0  0  0  0  0
  1  2  1  0
  2  3  2  3
  3  4  1  0
  3 31  1  0
  4  5  1  0
  5  6  1  0
  5 30  1  0
  6  7  1  0
  7  8  1  0
  9  8  1  6
  9 10  1  0
  9 11  1  0
  9 30  1  0
 10 11  1  0
 11 12  1  6
 12 13  2  0
 12 14  1  0
 14 15  1  0
 15 16  2  0
 15 29  1  0
 16 17  1  0
 17 18  2  0
 18 19  1  0
 19 20  1  0
 19 29  2  0
 20 21  1  0
 21 22  2  0
 21 23  1  0
 23 24  1  0
 24 25  1  0
 24 28  2  0
 25 26  2  0
 26 27  1  0
 27 28  1  0
 31 32  1  1
 31 33  1  0
 31 34  1  0
M  END
