
     RDKit          3D

 32 36  0  0  0  0  0  0  0  0999 V2000
    7.7610   -2.9160    2.7790 C   0  0  0  0  0  0  0  0  0  0  0  0
    6.7650   -2.1740    2.0730 N   0  0  0  0  0  0  0  0  0  0  0  0
    6.9560   -0.9400    1.6710 C   0  0  0  0  0  0  0  0  0  0  0  0
    8.2520   -0.3230    1.9720 C   0  0  0  0  0  0  0  0  0  0  0  0
    8.3610    1.0620    1.4750 C   0  0  0  0  0  0  0  0  0  0  0  0
    7.3680    1.6350    0.8340 C   0  0  0  0  0  0  0  0  0  0  0  0
    6.0930    0.9810    0.5560 C   0  0  0  0  0  0  0  0  0  0  0  0
    5.0630    1.6470   -0.1350 N   0  0  0  0  0  0  0  0  0  0  0  0
    3.7380    1.1220   -0.0380 C   0  0  0  0  0  0  0  0  0  0  0  0
    2.6970    1.7400   -0.6960 C   0  0  0  0  0  0  0  0  0  0  0  0
    1.4020    1.2640   -0.6270 C   0  0  0  0  0  0  0  0  0  0  0  0
    1.1390    0.1480    0.1160 C   0  0  0  0  0  0  0  0  0  0  0  0
   -0.0280   -0.4040    0.2670 O   0  0  0  0  0  0  0  0  0  0  0  0
   -1.3230   -0.4420    0.0440 C   0  0  0  0  0  0  0  0  0  0  0  0
   -2.0310    0.4730   -0.7080 C   0  0  0  0  0  0  0  0  0  0  0  0
   -3.4010    0.3580   -0.8930 C   0  0  0  0  0  0  0  0  0  0  0  0
   -4.0780   -0.6820   -0.3240 C   0  0  0  0  0  0  0  0  0  0  0  0
   -3.3790   -1.6350    0.4510 C   0  0  0  0  0  0  0  0  0  0  0  0
   -2.0380   -1.5150    0.6280 C   0  0  0  0  0  0  0  0  0  0  0  0
   -1.3350   -2.4540    1.3940 O   0  0  0  0  0  0  0  0  0  0  0  0
   -2.0040   -3.5290    1.9890 C   0  0  0  0  0  0  0  0  0  0  0  0
   -5.5270   -0.8520   -0.4840 C   0  0  0  0  0  0  0  0  0  0  0  0
   -6.1260    0.0930   -1.4610 C   0  0  1  0  0  0  0  0  0  0  0  0
   -6.7390    1.2860   -0.8250 C   0  0  0  0  0  0  0  0  0  0  0  0
   -7.1860    2.2380   -1.6280 C   0  0  0  0  0  0  0  0  0  0  0  0
   -7.0290    2.0170   -3.0900 C   0  0  0  0  0  0  0  0  0  0  0  0
   -5.7570    1.3380   -3.4760 C   0  0  0  0  0  0  0  0  0  0  0  0
   -5.1570    0.5960   -2.4160 N   0  0  0  0  0  0  0  0  0  0  0  0
   -4.1330    1.3530   -1.7070 C   0  0  0  0  0  0  0  0  0  0  0  0
    2.2350   -0.4610    0.7790 C   0  0  0  0  0  0  0  0  0  0  0  0
    3.4670    0.0270    0.6870 N   0  0  0  0  0  0  0  0  0  0  0  0
    5.9600   -0.2310    0.9760 N   0  0  0  0  0  0  0  0  0  0  0  0
  1  2  1  0
  2  3  2  3
  3  4  1  0
  3 32  1  0
  4  5  1  0
  5  6  2  0
  6  7  1  0
  7  8  1  0
  7 32  2  0
  8  9  1  0
  9 10  2  0
  9 31  1  0
 10 11  1  0
 11 12  2  0
 12 13  1  0
 12 30  1  0
 13 14  1  0
 14 15  2  0
 14 19  1  0
 15 16  1  0
 16 17  2  0
 16 29  1  0
 17 18  1  0
 17 22  1  0
 18 19  2  0
 19 20  1  0
 20 21  1  0
 23 22  1  1
 23 24  1  0
 23 28  1  0
 24 25  2  0
 25 26  1  0
 26 27  1  0
 27 28  1  0
 28 29  1  0
 30 31  2  0
M  END
