
     RDKit          3D

 32 35  0  0  0  0  0  0  0  0999 V2000
    7.6050    0.6690   -1.8480 N   0  0  0  0  0  0  0  0  0  0  0  0
    8.3790   -0.2060   -0.9980 C   0  0  0  0  0  0  0  0  0  0  0  0
    7.5780   -0.9370   -0.0230 C   0  0  0  0  0  0  0  0  0  0  0  0
    6.1950   -0.7200   -0.0150 C   0  0  0  0  0  0  0  0  0  0  0  0
    5.3800   -1.3800    0.8810 C   0  0  0  0  0  0  0  0  0  0  0  0
    3.9370   -1.1810    0.9200 C   0  0  0  0  0  0  0  0  0  0  0  0
    3.0830   -1.7860    1.7620 N   0  0  0  0  0  0  0  0  0  0  0  0
    1.8710   -1.3800    1.5220 O   0  0  0  0  0  0  0  0  0  0  0  0
    1.8570   -0.5010    0.5280 C   0  0  0  0  0  0  0  0  0  0  0  0
    0.7110    0.1840   -0.0390 C   0  0  0  0  0  0  0  0  0  0  0  0
    0.8660    1.0730   -1.0750 C   0  0  0  0  0  0  0  0  0  0  0  0
   -0.2170    1.7360   -1.6290 C   0  0  0  0  0  0  0  0  0  0  0  0
   -1.4930    1.4830   -1.1100 C   0  0  0  0  0  0  0  0  0  0  0  0
   -1.6750    0.6030   -0.0790 C   0  0  0  0  0  0  0  0  0  0  0  0
   -2.9490    0.3260    0.4370 N   0  0  0  0  0  0  0  0  0  0  0  0
   -4.1510    0.6010   -0.2110 C   0  0  0  0  0  0  0  0  0  0  0  0
   -4.1960    1.1120   -1.3300 O   0  0  0  0  0  0  0  0  0  0  0  0
   -5.4310    0.3070    0.3820 N   0  0  0  0  0  0  0  0  0  0  0  0
   -6.6810    0.5830   -0.2690 C   0  0  2  0  0  0  0  0  0  0  0  0
   -7.5140    1.6040    0.4350 C   0  0  0  0  0  0  0  0  0  0  0  0
   -8.4350    0.8360    1.3460 C   0  0  0  0  0  0  0  0  0  0  0  0
   -8.4500    0.9310    2.5380 O   0  0  0  0  0  0  0  0  0  0  0  0
   -9.3720   -0.0930    0.6620 C   0  0  0  0  0  0  0  0  0  0  0  0
   -8.5890   -1.0030   -0.2100 C   0  0  0  0  0  0  0  0  0  0  0  0
   -7.3890   -0.6650   -0.6060 C   0  0  0  0  0  0  0  0  0  0  0  0
   -6.7120   -1.5700   -1.4240 O   0  0  0  0  0  0  0  0  0  0  0  0
   -0.5440   -0.0430    0.4470 C   0  0  0  0  0  0  0  0  0  0  0  0
    3.1620   -0.3890    0.1630 N   0  0  0  0  0  0  0  0  0  0  0  0
    5.9840   -2.2520    1.7600 C   0  0  0  0  0  0  0  0  0  0  0  0
    7.3590   -2.4670    1.7520 C   0  0  0  0  0  0  0  0  0  0  0  0
    8.1610   -1.8020    0.8510 C   0  0  0  0  0  0  0  0  0  0  0  0
    9.5360   -1.9780    0.8000 O   0  0  0  0  0  0  0  0  0  0  0  0
  1  2  1  0
  2  3  1  0
  3  4  2  0
  3 31  1  0
  4  5  1  0
  5  6  1  0
  5 29  2  0
  6  7  2  0
  6 28  1  0
  7  8  1  0
  8  9  1  0
  9 10  1  0
  9 28  2  0
 10 11  2  0
 10 27  1  0
 11 12  1  0
 12 13  2  0
 13 14  1  0
 14 15  1  0
 14 27  2  0
 15 16  1  0
 16 17  2  0
 16 18  1  0
 19 18  1  1
 19 20  1  0
 19 25  1  0
 20 21  1  0
 21 22  2  0
 21 23  1  0
 23 24  1  0
 24 25  2  0
 25 26  1  0
 29 30  1  0
 30 31  2  0
 31 32  1  0
M  CHG  1   1   1
M  END
