
     RDKit          3D

 32 35  0  0  0  0  0  0  0  0999 V2000
    7.0710   -0.3340    1.5520 N   0  0  0  0  0  0  0  0  0  0  0  0
    5.7480   -0.7360    1.7510 N   0  0  0  0  0  0  0  0  0  0  0  0
    5.2040   -1.2330    0.5130 C   0  0  0  0  0  0  0  0  0  0  0  0
    3.7870   -1.6790    0.6570 C   0  0  1  0  0  0  0  0  0  0  0  0
    3.7340   -2.7590    1.5940 O   0  0  0  0  0  0  0  0  0  0  0  0
    2.8940   -0.5580    1.1900 C   0  0  0  0  0  0  0  0  0  0  0  0
    2.8300    0.5110    0.4630 O   0  0  0  0  0  0  0  0  0  0  0  0
    3.1280    1.6060   -0.1860 C   0  0  0  0  0  0  0  0  0  0  0  0
    4.4030    2.1840   -0.2050 C   0  0  0  0  0  0  0  0  0  0  0  0
    4.7160    3.3320   -0.8820 C   0  0  0  0  0  0  0  0  0  0  0  0
    3.7060    3.9390   -1.5770 C   0  0  0  0  0  0  0  0  0  0  0  0
    2.4160    3.3870   -1.5800 C   0  0  0  0  0  0  0  0  0  0  0  0
    2.0850    2.2470   -0.9140 C   0  0  0  0  0  0  0  0  0  0  0  0
    0.7960    1.6730   -0.9010 N   0  0  0  0  0  0  0  0  0  0  0  0
   -0.3680    2.1200   -1.5340 C   0  0  0  0  0  0  0  0  0  0  0  0
   -0.3240    3.1590   -2.2140 O   0  0  0  0  0  0  0  0  0  0  0  0
   -1.6530    1.3960   -1.4200 C   0  0  0  0  0  0  0  0  0  0  0  0
   -1.9370    0.2390   -0.7290 C   0  0  0  0  0  0  0  0  0  0  0  0
   -3.2820   -0.0850   -0.9000 C   0  0  0  0  0  0  0  0  0  0  0  0
   -3.9480   -1.2440   -0.3180 C   0  0  0  0  0  0  0  0  0  0  0  0
   -3.3780   -2.5000   -0.3390 C   0  0  0  0  0  0  0  0  0  0  0  0
   -4.0010   -3.6130    0.2110 C   0  0  0  0  0  0  0  0  0  0  0  0
   -5.2410   -3.4410    0.8000 C   0  0  0  0  0  0  0  0  0  0  0  0
   -5.8480   -2.2040    0.8440 C   0  0  0  0  0  0  0  0  0  0  0  0
   -5.1950   -1.1160    0.2840 C   0  0  0  0  0  0  0  0  0  0  0  0
   -5.7590    0.1540    0.3000 O   0  0  0  0  0  0  0  0  0  0  0  0
   -7.1820    0.2690    0.4470 C   0  0  0  0  0  0  0  0  0  0  0  0
   -7.6950   -0.6950    1.4560 C   0  0  0  0  0  0  0  0  0  0  0  0
   -8.5980   -0.3680    2.2870 O   0  0  0  0  0  0  0  0  0  0  0  0
   -7.1230   -1.9990    1.4440 N   0  0  0  0  0  0  0  0  0  0  0  0
   -3.7840    0.9120   -1.7100 C   0  0  0  0  0  0  0  0  0  0  0  0
   -2.7850    1.7930   -2.0100 N   0  0  0  0  0  0  0  0  0  0  0  0
  1  2  1  0
  2  3  1  0
  3  4  1  0
  4  5  1  1
  4  6  1  0
  6  7  1  0
  7  8  1  0
  8  9  2  0
  8 13  1  0
  9 10  1  0
 10 11  2  0
 11 12  1  0
 12 13  2  0
 13 14  1  0
 14 15  1  0
 15 16  2  0
 15 17  1  0
 17 18  2  0
 17 32  1  0
 18 19  1  0
 19 20  1  0
 19 31  2  0
 20 21  2  0
 20 25  1  0
 21 22  1  0
 22 23  2  0
 23 24  1  0
 24 25  2  0
 24 30  1  0
 25 26  1  0
 26 27  1  0
 27 28  1  0
 28 29  2  0
 28 30  1  0
 31 32  1  0
M  CHG  1   1   1
M  END
