
     RDKit          3D

 33 36  0  0  0  0  0  0  0  0999 V2000
    7.4900   -2.0360   -0.4280 C   0  0  0  0  0  0  0  0  0  0  0  0
    7.9670   -0.6320   -0.5860 C   0  0  0  0  0  0  0  0  0  0  0  0
    9.2050   -0.3620   -1.1850 C   0  0  0  0  0  0  0  0  0  0  0  0
    9.6250    0.9480   -1.3200 C   0  0  0  0  0  0  0  0  0  0  0  0
    8.8500    1.9940   -0.8780 C   0  0  0  0  0  0  0  0  0  0  0  0
    7.6340    1.6890   -0.2920 C   0  0  0  0  0  0  0  0  0  0  0  0
    6.6550    3.0330    0.2690 Cl  0  0  0  0  0  0  0  0  0  0  0  0
    7.1870    0.4040   -0.1420 C   0  0  0  0  0  0  0  0  0  0  0  0
    5.9420    0.1540    0.4610 N   0  0  0  0  0  0  0  0  0  0  0  0
    4.7400    0.0760   -0.2610 C   0  0  0  0  0  0  0  0  0  0  0  0
    4.7520    0.2320   -1.4950 O   0  0  0  0  0  0  0  0  0  0  0  0
    3.5050   -0.1910    0.4870 C   0  0  0  0  0  0  0  0  0  0  0  0
    3.3040   -0.3880    1.8330 C   0  0  0  0  0  0  0  0  0  0  0  0
    2.1270   -0.6060    2.2620 N   0  0  0  0  0  0  0  0  0  0  0  0
    1.0690   -0.6560    1.4750 C   0  0  0  0  0  0  0  0  0  0  0  0
   -0.2730   -0.8480    1.7230 N   0  0  0  0  0  0  0  0  0  0  0  0
   -1.3010   -0.9160    0.7720 C   0  0  0  0  0  0  0  0  0  0  0  0
   -1.0410   -1.2230   -0.5390 C   0  0  0  0  0  0  0  0  0  0  0  0
   -2.0930   -1.2490   -1.4540 C   0  0  0  0  0  0  0  0  0  0  0  0
   -3.3840   -0.9700   -1.0490 C   0  0  0  0  0  0  0  0  0  0  0  0
   -3.6920   -0.6570    0.2530 C   0  0  0  0  0  0  0  0  0  0  0  0
   -5.0010   -0.3320    0.7430 C   0  0  0  0  0  0  0  0  0  0  0  0
   -5.1020   -0.1650    2.0170 O   0  0  0  0  0  0  0  0  0  0  0  0
   -6.2100   -0.1670    0.0020 N   0  0  0  0  0  0  0  0  0  0  0  0
   -6.4830   -0.2390   -1.3970 C   0  0  0  0  0  0  0  0  0  0  0  0
   -7.9200    0.2130   -1.5690 C   0  0  0  0  0  0  0  0  0  0  0  0
   -8.2020    0.9890   -0.2660 C   0  0  2  0  0  0  0  0  0  0  0  0
   -7.5570    2.3250   -0.3320 C   0  0  0  0  0  0  0  0  0  0  0  0
   -6.6860    2.7160    0.4810 O   0  0  0  0  0  0  0  0  0  0  0  0
   -7.9330    3.1900   -1.3460 O   0  0  0  0  0  0  0  0  0  0  0  0
   -7.4730    0.0990    0.7100 C   0  0  0  0  0  0  0  0  0  0  0  0
   -2.6180   -0.6410    1.1370 C   0  0  0  0  0  0  0  0  0  0  0  0
    1.8860   -0.3410   -0.1260 S   0  0  0  0  0  0  0  0  0  0  0  0
  1  2  1  0
  2  3  2  0
  2  8  1  0
  3  4  1  0
  4  5  2  0
  5  6  1  0
  6  7  1  0
  6  8  2  0
  8  9  1  0
  9 10  1  0
 10 11  2  0
 10 12  1  0
 12 13  2  0
 12 33  1  0
 13 14  1  0
 14 15  2  0
 15 16  1  0
 15 33  1  0
 16 17  1  0
 17 18  2  0
 17 32  1  0
 18 19  1  0
 19 20  2  0
 20 21  1  0
 21 22  1  0
 21 32  2  0
 22 23  2  0
 22 24  1  0
 24 25  1  0
 24 31  1  0
 25 26  1  0
 26 27  1  0
 27 28  1  6
 27 31  1  0
 28 29  2  0
 28 30  1  0
M  END
