
     RDKit          3D

 31 35  0  0  0  0  0  0  0  0999 V2000
   -7.1610   -1.1600    0.1730 C   0  0  0  0  0  0  0  0  0  0  0  0
   -5.8090   -1.0000    0.6740 C   0  0  0  0  0  0  0  0  0  0  0  0
   -5.6460   -1.3800    1.9020 O   0  0  0  0  0  0  0  0  0  0  0  0
   -4.6220   -0.4850    0.0320 C   0  0  0  0  0  0  0  0  0  0  0  0
   -3.4760   -0.2200    0.8130 C   0  0  0  0  0  0  0  0  0  0  0  0
   -2.3220    0.2870    0.2850 C   0  0  0  0  0  0  0  0  0  0  0  0
   -1.2020    0.5480    1.0750 C   0  0  0  0  0  0  0  0  0  0  0  0
   -0.0490    1.0670    0.5320 C   0  0  0  0  0  0  0  0  0  0  0  0
   -0.0460    1.3150   -0.8210 C   0  0  0  0  0  0  0  0  0  0  0  0
   -1.1390    1.0650   -1.6230 C   0  0  0  0  0  0  0  0  0  0  0  0
   -1.1600    1.3240   -3.0860 C   0  0  0  0  0  0  0  0  0  0  0  0
   -2.3000    0.5430   -1.0730 C   0  0  0  0  0  0  0  0  0  0  0  0
   -3.4040    0.2900   -1.8440 C   0  0  0  0  0  0  0  0  0  0  0  0
   -4.5860   -0.2300   -1.3030 C   0  0  0  0  0  0  0  0  0  0  0  0
   -5.7030   -0.4720   -2.2600 C   0  0  0  0  0  0  0  0  0  0  0  0
    1.1760    1.3880    1.2910 C   0  0  2  0  0  0  0  0  0  0  0  0
    2.3030    0.5480    0.9310 N   0  0  0  0  0  0  0  0  0  0  0  0
    3.5450    1.0970    0.4570 C   0  0  0  0  0  0  0  0  0  0  0  0
    3.5740    2.3540    0.3800 O   0  0  0  0  0  0  0  0  0  0  0  0
    4.6690    0.2570    0.0970 C   0  0  0  0  0  0  0  0  0  0  0  0
    4.8020   -1.0740    0.1170 N   0  0  0  0  0  0  0  0  0  0  0  0
    6.0460   -1.4490   -0.3080 C   0  0  0  0  0  0  0  0  0  0  0  0
    6.6220   -2.6650   -0.4530 N   0  0  0  0  0  0  0  0  0  0  0  0
    7.8810   -2.7580   -0.8980 C   0  0  0  0  0  0  0  0  0  0  0  0
    8.5620   -1.5980   -1.2000 C   0  0  0  0  0  0  0  0  0  0  0  0
    7.9390   -0.3720   -1.0390 C   0  0  0  0  0  0  0  0  0  0  0  0
    6.6690   -0.2920   -0.5890 N   0  0  0  0  0  0  0  0  0  0  0  0
    5.8480    0.7230   -0.3470 N   0  0  0  0  0  0  0  0  0  0  0  0
    0.9580    1.2230    2.7820 C   0  0  0  0  0  0  0  0  0  0  0  0
    0.0970    0.0450    3.0960 C   0  0  0  0  0  0  0  0  0  0  0  0
   -1.2790    0.2440    2.5090 C   0  0  0  0  0  0  0  0  0  0  0  0
  1  2  1  0
  2  3  2  0
  2  4  1  0
  4  5  2  0
  4 14  1  0
  5  6  1  0
  6  7  2  0
  6 12  1  0
  7  8  1  0
  7 31  1  0
  8  9  2  0
  8 16  1  0
  9 10  1  0
 10 11  1  0
 10 12  2  0
 12 13  1  0
 13 14  2  0
 14 15  1  0
 16 17  1  6
 16 29  1  0
 17 18  1  0
 18 19  2  0
 18 20  1  0
 20 21  1  0
 20 28  2  0
 21 22  2  0
 22 23  1  0
 22 27  1  0
 23 24  2  0
 24 25  1  0
 25 26  2  0
 26 27  1  0
 27 28  1  0
 29 30  1  0
 30 31  1  0
M  END
