
     RDKit          3D

 32 36  0  0  0  0  0  0  0  0999 V2000
   -7.4020   -1.5660    3.7950 C   0  0  0  0  0  0  0  0  0  0  0  0
   -7.0200   -0.8760    2.7290 C   0  0  0  0  0  0  0  0  0  0  0  0
   -7.7710    0.1590    1.9930 C   0  0  0  0  0  0  0  0  0  0  0  0
   -6.8720    0.5590    0.9320 N   0  0  0  0  0  0  0  0  0  0  0  0
   -5.7660   -0.1020    0.9920 C   0  0  0  0  0  0  0  0  0  0  0  0
   -4.5510   -0.0780    0.1690 C   0  0  0  0  0  0  0  0  0  0  0  0
   -4.4500    0.7800   -0.9140 C   0  0  0  0  0  0  0  0  0  0  0  0
   -3.3130    0.8100   -1.6930 C   0  0  0  0  0  0  0  0  0  0  0  0
   -3.1830    1.7350   -2.8740 C   0  0  0  0  0  0  0  0  0  0  0  0
   -2.2850   -0.0490   -1.3460 C   0  0  0  0  0  0  0  0  0  0  0  0
   -2.3320   -0.9210   -0.2810 C   0  0  0  0  0  0  0  0  0  0  0  0
   -1.3090   -1.7850    0.0720 O   0  0  0  0  0  0  0  0  0  0  0  0
   -0.0720   -1.9040   -0.5790 C   0  0  0  0  0  0  0  0  0  0  0  0
    0.7270   -0.6410   -0.5430 C   0  0  0  0  0  0  0  0  0  0  0  0
    0.3220    0.3960    0.0600 O   0  0  0  0  0  0  0  0  0  0  0  0
    1.9840   -0.5260   -1.1810 N   0  0  0  0  0  0  0  0  0  0  0  0
    2.7730    0.6920   -1.1570 C   0  0  2  0  0  0  0  0  0  0  0  0
    2.9910    1.2970   -2.4770 C   0  0  0  0  0  0  0  0  0  0  0  0
    4.3590    1.6750   -2.8570 C   0  0  0  0  0  0  0  0  0  0  0  0
    5.3910    1.4940   -2.0820 C   0  0  0  0  0  0  0  0  0  0  0  0
    5.2490    0.9030   -0.7820 C   0  0  0  0  0  0  0  0  0  0  0  0
    4.0040    0.5250   -0.3540 C   0  0  0  0  0  0  0  0  0  0  0  0
    3.9380   -0.0470    0.9230 C   0  0  0  0  0  0  0  0  0  0  0  0
    5.0680   -0.2150    1.6970 C   0  0  0  0  0  0  0  0  0  0  0  0
    4.9660   -0.8270    3.0520 C   0  0  0  0  0  0  0  0  0  0  0  0
    6.2550    0.1800    1.2120 N   0  0  0  0  0  0  0  0  0  0  0  0
    6.3870    0.7360   -0.0050 C   0  0  0  0  0  0  0  0  0  0  0  0
    7.7130    1.1660   -0.5230 C   0  0  0  0  0  0  0  0  0  0  0  0
   -3.4960   -0.9130    0.4690 C   0  0  0  0  0  0  0  0  0  0  0  0
   -3.6050   -1.8180    1.6130 C   0  0  0  0  0  0  0  0  0  0  0  0
   -4.6740   -1.8480    2.3460 N   0  0  0  0  0  0  0  0  0  0  0  0
   -5.7730   -1.0160    2.0790 N   0  0  0  0  0  0  0  0  0  0  0  0
  1  2  2  0
  2  3  1  0
  2 32  1  0
  3  4  1  0
  4  5  2  0
  5  6  1  0
  5 32  1  0
  6  7  2  0
  6 29  1  0
  7  8  1  0
  8  9  1  0
  8 10  2  0
 10 11  1  0
 11 12  1  0
 11 29  2  0
 12 13  1  0
 13 14  1  0
 14 15  2  0
 14 16  1  0
 17 16  1  6
 17 18  1  0
 17 22  1  0
 18 19  1  0
 19 20  2  0
 20 21  1  0
 21 22  2  0
 21 27  1  0
 22 23  1  0
 23 24  2  0
 24 25  1  0
 24 26  1  0
 26 27  2  0
 27 28  1  0
 29 30  1  0
 30 31  2  0
 31 32  1  0
M  END
