
     RDKit          3D

 32 35  0  0  0  0  0  0  0  0999 V2000
   -8.0580   -1.2800    2.3580 C   0  0  0  0  0  0  0  0  0  0  0  0
   -7.8490   -0.0470    1.5180 C   0  0  0  0  0  0  0  0  0  0  0  0
   -6.5520   -0.1910    0.7610 C   0  0  0  0  0  0  0  0  0  0  0  0
   -5.4360    0.3960    1.0370 O   0  0  0  0  0  0  0  0  0  0  0  0
   -4.4770    0.0520    0.1710 C   0  0  0  0  0  0  0  0  0  0  0  0
   -3.0920    0.5300    0.1960 C   0  0  0  0  0  0  0  0  0  0  0  0
   -2.7190    1.0100    1.3340 O   0  0  0  0  0  0  0  0  0  0  0  0
   -2.1850    0.5100   -0.8640 N   0  0  0  0  0  0  0  0  0  0  0  0
   -0.8480    0.9860   -0.7660 C   0  0  0  0  0  0  0  0  0  0  0  0
   -0.3930    1.8670    0.1800 C   0  0  0  0  0  0  0  0  0  0  0  0
    0.9200    2.2540    0.3170 C   0  0  0  0  0  0  0  0  0  0  0  0
    1.8420    1.6980   -0.5880 C   0  0  0  0  0  0  0  0  0  0  0  0
    3.2040    2.0300   -0.3890 C   0  0  0  0  0  0  0  0  0  0  0  0
    3.9780    2.8340   -0.6400 O   0  0  0  0  0  0  0  0  0  0  0  0
    3.8850    0.7440    0.5920 N   0  0  0  0  0  0  0  0  0  0  0  0
    5.1160    1.3060    0.7890 C   0  0  0  0  0  0  0  0  0  0  0  0
    5.7520    2.2270    0.3910 O   0  0  0  0  0  0  0  0  0  0  0  0
    5.8290    0.4550    1.8630 N   0  0  0  0  0  0  0  0  0  0  0  0
    7.1490    0.7780    2.2270 C   0  0  0  0  0  0  0  0  0  0  0  0
    8.1110    0.0990    1.3150 C   0  0  0  0  0  0  0  0  0  0  0  0
    9.0600   -0.8240    1.7750 C   0  0  0  0  0  0  0  0  0  0  0  0
    9.7390   -1.2730    0.6600 C   0  0  0  0  0  0  0  0  0  0  0  0
    9.2640   -0.6800   -0.4490 N   0  0  0  0  0  0  0  0  0  0  0  0
    8.2680    0.1560   -0.0240 C   0  0  0  0  0  0  0  0  0  0  0  0
    1.3970    0.8270   -1.5370 C   0  0  0  0  0  0  0  0  0  0  0  0
    0.0860    0.4410   -1.6660 C   0  0  0  0  0  0  0  0  0  0  0  0
   -5.0190   -0.8300   -0.7330 C   0  0  0  0  0  0  0  0  0  0  0  0
   -6.3500   -0.9780   -0.3470 C   0  0  0  0  0  0  0  0  0  0  0  0
   -6.9660   -1.9280   -1.2730 C   0  0  0  0  0  0  0  0  0  0  0  0
   -6.0960   -1.8970   -2.4420 N   0  0  0  0  0  0  0  0  0  0  0  0
   -4.8080   -1.6750   -1.9010 C   0  0  0  0  0  0  0  0  0  0  0  0
   -3.7220   -2.1080   -2.3260 O   0  0  0  0  0  0  0  0  0  0  0  0
  1  2  1  0
  2  3  1  0
  3  4  1  0
  3 28  2  0
  4  5  1  0
  5  6  1  0
  5 27  2  0
  6  7  2  0
  6  8  1  0
  8  9  1  0
  9 10  2  0
  9 26  1  0
 10 11  1  0
 11 12  2  0
 12 13  1  0
 12 25  1  0
 13 14  2  0
 13 15  1  0
 15 16  1  0
 16 17  2  0
 16 18  1  0
 18 19  1  0
 19 20  1  0
 20 21  1  0
 20 24  2  0
 21 22  2  0
 22 23  1  0
 23 24  1  0
 25 26  2  0
 27 28  1  0
 27 31  1  0
 28 29  1  0
 29 30  1  0
 30 31  1  0
 31 32  2  0
M  CHG  1  30   1
M  END
