
     RDKit          3D

 32 36  0  0  0  0  0  0  0  0999 V2000
   -6.1630    1.4530    1.5050 C   0  0  0  0  0  0  0  0  0  0  0  0
   -5.0640    2.0930    0.6870 C   0  0  0  0  0  0  0  0  0  0  0  0
   -5.0920    1.6010   -0.6630 N   0  0  0  0  0  0  0  0  0  0  0  0
   -5.8210    2.2160   -1.6610 C   0  0  0  0  0  0  0  0  0  0  0  0
   -5.6290    1.5370   -2.8260 C   0  0  0  0  0  0  0  0  0  0  0  0
   -4.8110    0.5340   -2.5650 N   0  0  0  0  0  0  0  0  0  0  0  0
   -4.4800    0.5740   -1.2290 C   0  0  0  0  0  0  0  0  0  0  0  0
   -3.5330   -0.4250   -0.7000 C   0  0  0  0  0  0  0  0  0  0  0  0
   -3.3250   -0.6110    0.6330 C   0  0  0  0  0  0  0  0  0  0  0  0
   -2.3550   -1.5390    1.0440 C   0  0  0  0  0  0  0  0  0  0  0  0
   -1.6110   -2.2650    0.1690 C   0  0  0  0  0  0  0  0  0  0  0  0
   -0.6610   -3.1990    0.6340 N   0  0  0  0  0  0  0  0  0  0  0  0
   -0.9700   -4.4680    0.9950 N   0  0  0  0  0  0  0  0  0  0  0  0
    0.1210   -5.0950    1.4120 C   0  0  0  0  0  0  0  0  0  0  0  0
    1.1480   -4.1940    1.3110 C   0  0  0  0  0  0  0  0  0  0  0  0
    0.6300   -2.9780    0.8070 C   0  0  0  0  0  0  0  0  0  0  0  0
    1.5420   -1.8560    0.5840 C   0  0  1  0  0  0  0  0  0  0  0  0
    1.0330   -0.7330   -0.2010 C   0  0  0  0  0  0  0  0  0  0  0  0
    1.9060    0.4560   -0.3620 C   0  0  0  0  0  0  0  0  0  0  0  0
    3.3670    0.2240   -0.6250 C   0  0  0  0  0  0  0  0  0  0  0  0
    4.0420    0.0950    0.6900 C   0  0  0  0  0  0  0  0  0  0  0  0
    5.2060    0.6410    0.9080 C   0  0  0  0  0  0  0  0  0  0  0  0
    5.8770    1.3890   -0.1340 C   0  0  0  0  0  0  0  0  0  0  0  0
    6.5450    2.6060    0.0210 C   0  0  0  0  0  0  0  0  0  0  0  0
    7.0330    2.9520   -1.2170 C   0  0  0  0  0  0  0  0  0  0  0  0
    6.6610    1.9610   -2.0820 C   0  0  0  0  0  0  0  0  0  0  0  0
    5.9840    1.0640   -1.4040 O   0  0  0  0  0  0  0  0  0  0  0  0
    3.4330   -0.6770    1.8000 C   0  0  0  0  0  0  0  0  0  0  0  0
    4.0600   -0.5810    2.8950 O   0  0  0  0  0  0  0  0  0  0  0  0
    2.2660   -1.4950    1.8100 N   0  0  0  0  0  0  0  0  0  0  0  0
   -1.8340   -2.0670   -1.1580 C   0  0  0  0  0  0  0  0  0  0  0  0
   -2.7790   -1.1630   -1.6190 C   0  0  0  0  0  0  0  0  0  0  0  0
  1  2  1  0
  2  3  1  0
  3  4  1  0
  3  7  1  0
  4  5  2  0
  5  6  1  0
  6  7  2  0
  7  8  1  0
  8  9  2  0
  8 32  1  0
  9 10  1  0
 10 11  2  0
 11 12  1  0
 11 31  1  0
 12 13  1  0
 12 16  1  0
 13 14  2  0
 14 15  1  0
 15 16  2  0
 17 16  1  1
 17 18  1  0
 17 30  1  0
 18 19  1  0
 19 20  1  0
 20 21  1  0
 21 22  2  3
 21 28  1  0
 22 23  1  0
 23 24  2  0
 23 27  1  0
 24 25  1  0
 25 26  2  0
 26 27  1  0
 28 29  2  0
 28 30  1  0
 31 32  2  0
M  END
