
     RDKit          3D

 32 36  0  0  0  0  0  0  0  0999 V2000
    7.1370   -2.2490   -1.5690 C   0  0  0  0  0  0  0  0  0  0  0  0
    7.8890   -1.4420   -0.8580 C   0  0  0  0  0  0  0  0  0  0  0  0
    9.2890   -1.5840   -0.8720 O   0  0  0  0  0  0  0  0  0  0  0  0
   10.1030   -0.7500   -0.1330 C   0  0  0  0  0  0  0  0  0  0  0  0
    9.5240    0.2050    0.6040 C   0  0  0  0  0  0  0  0  0  0  0  0
    8.0910    0.3780    0.6410 C   0  0  0  0  0  0  0  0  0  0  0  0
    7.2740   -0.4050   -0.0570 C   0  0  0  0  0  0  0  0  0  0  0  0
    5.8400   -0.1730    0.0570 C   0  0  0  0  0  0  0  0  0  0  0  0
    5.2720    0.7630    0.8880 N   0  0  0  0  0  0  0  0  0  0  0  0
    4.0000    0.7320    0.7520 O   0  0  0  0  0  0  0  0  0  0  0  0
    3.6160   -0.1610   -0.1220 C   0  0  0  0  0  0  0  0  0  0  0  0
    2.2390   -0.5080   -0.5710 C   0  0  0  0  0  0  0  0  0  0  0  0
    1.3130   -0.3220    0.5370 N   0  0  0  0  0  0  0  0  0  0  0  0
    1.4290   -1.2050    1.6760 C   0  0  0  0  0  0  0  0  0  0  0  0
    0.3430    0.7110    0.4670 C   0  0  0  0  0  0  0  0  0  0  0  0
    0.7370    2.0370    0.6390 C   0  0  0  0  0  0  0  0  0  0  0  0
   -0.1270    3.1030    0.5950 C   0  0  0  0  0  0  0  0  0  0  0  0
   -1.4630    2.7900    0.3610 C   0  0  0  0  0  0  0  0  0  0  0  0
   -1.8870    1.4930    0.1900 C   0  0  0  0  0  0  0  0  0  0  0  0
   -3.3090    1.1690   -0.0120 C   0  0  0  0  0  0  0  0  0  0  0  0
   -4.2550    2.1470   -0.1540 C   0  0  0  0  0  0  0  0  0  0  0  0
   -5.6100    1.8480   -0.3050 C   0  0  0  0  0  0  0  0  0  0  0  0
   -6.0070    0.5470   -0.3120 C   0  0  0  0  0  0  0  0  0  0  0  0
   -7.2410   -0.0590   -0.4310 C   0  0  0  0  0  0  0  0  0  0  0  0
   -8.5580    0.6380   -0.6010 C   0  0  0  0  0  0  0  0  0  0  0  0
   -7.0980   -1.4210   -0.3680 C   0  0  0  0  0  0  0  0  0  0  0  0
   -8.2090   -2.4070   -0.4530 C   0  0  0  0  0  0  0  0  0  0  0  0
   -5.7680   -1.6560   -0.2100 N   0  0  0  0  0  0  0  0  0  0  0  0
   -5.0860   -0.4820   -0.1730 C   0  0  0  0  0  0  0  0  0  0  0  0
   -3.7530   -0.1360   -0.0260 C   0  0  0  0  0  0  0  0  0  0  0  0
   -0.9640    0.5110    0.2500 N   0  0  0  0  0  0  0  0  0  0  0  0
    4.7890   -0.7250   -0.5530 N   0  0  0  0  0  0  0  0  0  0  0  0
  1  2  2  0
  2  3  1  0
  2  7  1  0
  3  4  1  0
  4  5  2  0
  5  6  1  0
  6  7  2  0
  7  8  1  0
  8  9  2  0
  8 32  1  0
  9 10  1  0
 10 11  1  0
 11 12  1  0
 11 32  2  0
 12 13  1  0
 13 14  1  0
 13 15  1  0
 15 16  2  0
 15 31  1  0
 16 17  1  0
 17 18  2  0
 18 19  1  0
 19 20  1  0
 19 31  2  0
 20 21  2  0
 20 30  1  0
 21 22  1  0
 22 23  2  0
 23 24  1  0
 23 29  1  0
 24 25  1  0
 24 26  2  0
 26 27  1  0
 26 28  1  0
 28 29  1  0
 29 30  2  0
M  END
