
     RDKit          3D

 35 39  0  0  0  0  0  0  0  0999 V2000
   -3.2870   -4.4620    1.4750 C   0  0  0  0  0  0  0  0  0  0  0  0
   -3.7580   -3.2930    0.6680 C   0  0  0  0  0  0  0  0  0  0  0  0
   -2.9760   -2.1340    0.5360 C   0  0  0  0  0  0  0  0  0  0  0  0
   -3.3570   -1.0410   -0.1900 C   0  0  0  0  0  0  0  0  0  0  0  0
   -2.5990    0.1110   -0.2540 N   0  0  0  0  0  0  0  0  0  0  0  0
   -1.2360    0.3590   -0.0210 C   0  0  0  0  0  0  0  0  0  0  0  0
   -0.2790   -0.6050   -0.0570 C   0  0  0  0  0  0  0  0  0  0  0  0
    1.1060   -0.3900    0.1110 C   0  0  0  0  0  0  0  0  0  0  0  0
    1.9840   -1.5110    0.0280 N   0  0  0  0  0  0  0  0  0  0  0  0
    3.3050   -1.4770    0.4930 C   0  0  0  0  0  0  0  0  0  0  0  0
    3.8280   -0.4520    1.0290 O   0  0  0  0  0  0  0  0  0  0  0  0
    4.2140   -2.6450    0.3960 C   0  0  0  0  0  0  0  0  0  0  0  0
    5.5360   -2.5610    0.7970 C   0  0  0  0  0  0  0  0  0  0  0  0
    6.4030   -3.6310    0.7200 C   0  0  0  0  0  0  0  0  0  0  0  0
    5.9820   -4.8340    0.2380 C   0  0  0  0  0  0  0  0  0  0  0  0
    6.8230   -5.8830    0.1610 F   0  0  0  0  0  0  0  0  0  0  0  0
    4.6760   -4.9410   -0.1640 C   0  0  0  0  0  0  0  0  0  0  0  0
    3.7980   -3.8600   -0.0870 C   0  0  0  0  0  0  0  0  0  0  0  0
    1.4840    0.9080    0.3220 C   0  0  0  0  0  0  0  0  0  0  0  0
    0.5320    1.9400    0.3650 C   0  0  0  0  0  0  0  0  0  0  0  0
    1.0170    3.2920    0.5940 C   0  0  0  0  0  0  0  0  0  0  0  0
    1.0860    3.6460    1.8110 O   0  0  0  0  0  0  0  0  0  0  0  0
    1.3870    4.1570   -0.4710 N   0  0  0  0  0  0  0  0  0  0  0  0
    1.2640    3.6380   -1.8200 C   0  0  0  0  0  0  0  0  0  0  0  0
    1.8620    5.4800   -0.2880 C   0  0  1  0  0  0  0  0  0  0  0  0
    1.5860    6.3090    0.8910 C   0  0  0  0  0  0  0  0  0  0  0  0
    2.9290    5.6020    0.7940 C   0  0  0  0  0  0  0  0  0  0  0  0
   -0.7940    1.6610    0.1960 C   0  0  0  0  0  0  0  0  0  0  0  0
   -1.7870    2.7490    0.2440 C   0  0  0  0  0  0  0  0  0  0  0  0
   -4.5930   -1.0910   -0.8270 C   0  0  0  0  0  0  0  0  0  0  0  0
   -5.3550   -2.2160   -0.7000 C   0  0  0  0  0  0  0  0  0  0  0  0
   -4.9330   -3.2880    0.0350 N   0  0  0  0  0  0  0  0  0  0  0  0
   -6.5080   -2.0960   -1.3750 C   0  0  0  0  0  0  0  0  0  0  0  0
   -6.5310   -0.7670   -2.0190 C   0  0  0  0  0  0  0  0  0  0  0  0
   -5.2330   -0.1950   -1.5960 C   0  0  0  0  0  0  0  0  0  0  0  0
  1  2  1  0
  2  3  1  0
  2 32  2  0
  3  4  2  0
  4  5  1  0
  4 30  1  0
  5  6  1  0
  6  7  2  0
  6 28  1  0
  7  8  1  0
  8  9  1  0
  8 19  2  0
  9 10  1  0
 10 11  2  0
 10 12  1  0
 12 13  2  0
 12 18  1  0
 13 14  1  0
 14 15  2  0
 15 16  1  0
 15 17  1  0
 17 18  2  0
 19 20  1  0
 20 21  1  0
 20 28  2  0
 21 22  2  0
 21 23  1  0
 23 24  1  0
 25 23  1  1
 25 26  1  0
 25 27  1  0
 26 27  1  0
 28 29  1  0
 30 31  1  0
 30 35  2  0
 31 32  1  0
 31 33  2  0
 33 34  1  0
 34 35  1  0
M  END
