
     RDKit          3D

 35 39  0  0  0  0  0  0  0  0999 V2000
    3.4170    1.9830   -0.5580 O   0  0  0  0  0  0  0  0  0  0  0  0
    2.7530    0.9240   -0.3260 C   0  0  0  0  0  0  0  0  0  0  0  0
    1.2640    1.0210   -0.2750 C   0  0  0  0  0  0  0  0  0  0  0  0
    0.5100    0.0030   -0.0490 C   0  0  0  0  0  0  0  0  0  0  0  0
   -0.9390    0.0680    0.0060 C   0  0  0  0  0  0  0  0  0  0  0  0
   -1.6530   -1.0500    0.2460 C   0  0  0  0  0  0  0  0  0  0  0  0
   -3.1000   -1.1150    0.3240 C   0  0  0  0  0  0  0  0  0  0  0  0
   -3.6480   -2.1730    0.8900 C   0  0  0  0  0  0  0  0  0  0  0  0
   -5.0810   -2.3650    1.0240 C   0  0  0  0  0  0  0  0  0  0  0  0
   -5.6760   -2.6870    2.2300 C   0  0  0  0  0  0  0  0  0  0  0  0
   -7.0250   -2.9230    2.3840 C   0  0  0  0  0  0  0  0  0  0  0  0
   -7.8390   -2.8360    1.2760 C   0  0  0  0  0  0  0  0  0  0  0  0
   -7.2880   -2.5180    0.0540 C   0  0  0  0  0  0  0  0  0  0  0  0
   -5.9190   -2.2850   -0.0650 C   0  0  0  0  0  0  0  0  0  0  0  0
   -3.8900    0.0130   -0.2080 C   0  0  1  0  0  0  0  0  0  0  0  0
   -5.1300    0.1360    0.4330 F   0  0  0  0  0  0  0  0  0  0  0  0
   -3.1530    1.2340   -0.0660 N   0  0  0  0  0  0  0  0  0  0  0  0
   -3.8780    2.4610    0.1870 C   0  0  0  0  0  0  0  0  0  0  0  0
   -4.2250    3.1920   -1.0530 C   0  0  0  0  0  0  0  0  0  0  0  0
   -4.9370    4.3740   -1.1060 C   0  0  0  0  0  0  0  0  0  0  0  0
   -5.0490    4.7310   -2.3950 N   0  0  0  0  0  0  0  0  0  0  0  0
   -4.4400    3.8270   -3.1390 N   0  0  0  0  0  0  0  0  0  0  0  0
   -3.9180    2.8580   -2.3460 C   0  0  0  0  0  0  0  0  0  0  0  0
   -1.7430    1.2680   -0.1580 C   0  0  0  0  0  0  0  0  0  0  0  0
   -1.1710    2.3840   -0.3910 O   0  0  0  0  0  0  0  0  0  0  0  0
    3.4700   -0.2650   -0.1320 N   0  0  0  0  0  0  0  0  0  0  0  0
    4.8660   -0.4430   -0.1650 C   0  0  0  0  0  0  0  0  0  0  0  0
    5.3730   -1.6730    0.2790 C   0  0  0  0  0  0  0  0  0  0  0  0
    6.6980   -1.9960    0.3010 C   0  0  0  0  0  0  0  0  0  0  0  0
    7.6210   -1.0430   -0.1470 C   0  0  0  0  0  0  0  0  0  0  0  0
    7.1810    0.1800   -0.5940 C   0  0  0  0  0  0  0  0  0  0  0  0
    5.8080    0.4510   -0.5920 C   0  0  0  0  0  0  0  0  0  0  0  0
    8.3500    0.9940   -1.0050 C   0  0  0  0  0  0  0  0  0  0  0  0
    9.5380    0.2770   -0.3940 C   0  0  0  0  0  0  0  0  0  0  0  0
    9.0900   -1.1550   -0.2180 C   0  0  0  0  0  0  0  0  0  0  0  0
  1  2  2  0
  2  3  1  0
  2 26  1  0
  3  4  2  3
  4  5  1  0
  5  6  2  0
  5 24  1  0
  6  7  1  0
  7  8  2  3
  7 15  1  0
  8  9  1  0
  9 10  2  0
  9 14  1  0
 10 11  1  0
 11 12  2  0
 12 13  1  0
 13 14  2  0
 15 16  1  1
 15 17  1  0
 17 18  1  0
 17 24  1  0
 18 19  1  0
 19 20  1  0
 19 23  2  0
 20 21  2  0
 21 22  1  0
 22 23  1  0
 24 25  2  0
 26 27  1  0
 27 28  2  0
 27 32  1  0
 28 29  1  0
 29 30  2  0
 30 31  1  0
 30 35  1  0
 31 32  2  0
 31 33  1  0
 33 34  1  0
 34 35  1  0
M  END
