
     RDKit          3D

 35 39  0  0  0  0  0  0  0  0999 V2000
    8.4180   -1.1510    0.7810 C   0  0  0  0  0  0  0  0  0  0  0  0
    7.0100   -1.1150    0.3140 C   0  0  0  0  0  0  0  0  0  0  0  0
    6.0600   -0.4530    1.0710 C   0  0  0  0  0  0  0  0  0  0  0  0
    4.7380   -0.3700    0.7160 C   0  0  0  0  0  0  0  0  0  0  0  0
    4.3160   -0.9690   -0.4510 C   0  0  0  0  0  0  0  0  0  0  0  0
    2.9250   -0.9200   -0.8850 C   0  0  0  0  0  0  0  0  0  0  0  0
    2.3790   -1.9630   -1.6150 C   0  0  0  0  0  0  0  0  0  0  0  0
    1.0860   -1.9530   -2.0350 C   0  0  0  0  0  0  0  0  0  0  0  0
    0.5860   -2.9820   -2.7430 F   0  0  0  0  0  0  0  0  0  0  0  0
    0.2650   -0.8620   -1.7290 C   0  0  0  0  0  0  0  0  0  0  0  0
    0.7290    0.1780   -1.0250 C   0  0  0  0  0  0  0  0  0  0  0  0
   -0.0350    1.3380   -0.5620 C   0  0  0  0  0  0  0  0  0  0  0  0
    0.6800    2.4610   -0.2380 N   0  0  0  0  0  0  0  0  0  0  0  0
    0.1640    3.5640    0.2850 C   0  0  0  0  0  0  0  0  0  0  0  0
   -1.1920    3.6130    0.5330 C   0  0  0  0  0  0  0  0  0  0  0  0
   -1.8480    4.8150    1.1120 C   0  0  0  0  0  0  0  0  0  0  0  0
   -2.5910    5.6350    0.0830 C   0  0  0  0  0  0  0  0  0  0  0  0
   -3.5880    4.9330   -0.5440 O   0  0  0  0  0  0  0  0  0  0  0  0
   -1.9000    2.4910    0.2080 C   0  0  0  0  0  0  0  0  0  0  0  0
   -3.1460    2.5450    0.4400 O   0  0  0  0  0  0  0  0  0  0  0  0
   -1.3370    1.3550   -0.3360 N   0  0  0  0  0  0  0  0  0  0  0  0
   -2.2230    0.2370   -0.5400 C   0  0  0  0  0  0  0  0  0  0  0  0
   -2.1670   -0.7930    0.5690 C   0  0  0  0  0  0  0  0  0  0  0  0
   -3.1210   -1.8770    0.2180 C   0  0  0  0  0  0  0  0  0  0  0  0
   -2.6760   -3.0800   -0.3250 C   0  0  0  0  0  0  0  0  0  0  0  0
   -3.5640   -4.0730   -0.6590 C   0  0  0  0  0  0  0  0  0  0  0  0
   -4.9200   -3.9370   -0.4790 C   0  0  0  0  0  0  0  0  0  0  0  0
   -5.3590   -2.7480    0.0590 C   0  0  0  0  0  0  0  0  0  0  0  0
   -6.6020   -2.3580    0.3410 N   0  0  0  0  0  0  0  0  0  0  0  0
   -6.5380   -1.1350    0.8510 N   0  0  0  0  0  0  0  0  0  0  0  0
   -5.2570   -0.7280    0.9010 C   0  0  0  0  0  0  0  0  0  0  0  0
   -4.4770   -1.7350    0.4020 C   0  0  0  0  0  0  0  0  0  0  0  0
    2.0840    0.1150   -0.6140 C   0  0  0  0  0  0  0  0  0  0  0  0
    5.2590   -1.6330   -1.2140 C   0  0  0  0  0  0  0  0  0  0  0  0
    6.5870   -1.7150   -0.8550 C   0  0  0  0  0  0  0  0  0  0  0  0
  1  2  1  0
  2  3  2  0
  2 35  1  0
  3  4  1  0
  4  5  2  0
  5  6  1  0
  5 34  1  0
  6  7  2  0
  6 33  1  0
  7  8  1  0
  8  9  1  0
  8 10  2  0
 10 11  1  0
 11 12  1  0
 11 33  2  0
 12 13  2  0
 12 21  1  0
 13 14  1  0
 14 15  2  0
 15 16  1  0
 15 19  1  0
 16 17  1  0
 17 18  1  0
 19 20  2  0
 19 21  1  0
 21 22  1  0
 22 23  1  0
 23 24  1  0
 24 25  2  0
 24 32  1  0
 25 26  1  0
 26 27  2  0
 27 28  1  0
 28 29  1  0
 28 32  2  0
 29 30  1  0
 30 31  2  0
 31 32  1  0
 34 35  2  0
M  END
