
     RDKit          3D

 34 37  0  0  0  0  0  0  0  0999 V2000
    8.0930   -1.2280    1.3270 C   0  0  0  0  0  0  0  0  0  0  0  0
    8.6730    0.0630    0.8330 C   0  0  0  0  0  0  0  0  0  0  0  0
   10.0480    0.2490    0.7660 C   0  0  0  0  0  0  0  0  0  0  0  0
   10.5810    1.4370    0.3120 C   0  0  0  0  0  0  0  0  0  0  0  0
    9.7480    2.4510   -0.0800 C   0  0  0  0  0  0  0  0  0  0  0  0
    8.3640    2.2550   -0.0090 C   0  0  0  0  0  0  0  0  0  0  0  0
    7.3580    3.5870   -0.5230 Cl  0  0  0  0  0  0  0  0  0  0  0  0
    7.8260    1.0760    0.4420 C   0  0  0  0  0  0  0  0  0  0  0  0
    6.4400    0.8850    0.5110 N   0  0  0  0  0  0  0  0  0  0  0  0
    5.6610    0.3540   -0.5520 C   0  0  0  0  0  0  0  0  0  0  0  0
    6.3000    0.0540   -1.5940 O   0  0  0  0  0  0  0  0  0  0  0  0
    4.2250    0.1710   -0.4430 C   0  0  0  0  0  0  0  0  0  0  0  0
    3.3200    0.4220    0.5780 C   0  0  0  0  0  0  0  0  0  0  0  0
    2.0860    0.1260    0.3110 N   0  0  0  0  0  0  0  0  0  0  0  0
    1.5740   -0.3160   -0.6310 C   0  0  0  0  0  0  0  0  0  0  0  0
    0.3760   -0.7520   -1.2770 N   0  0  0  0  0  0  0  0  0  0  0  0
   -0.8330   -0.6780   -0.5930 C   0  0  0  0  0  0  0  0  0  0  0  0
   -0.8890   -0.1920    0.6940 C   0  0  0  0  0  0  0  0  0  0  0  0
   -2.0860   -0.1220    1.3670 C   0  0  0  0  0  0  0  0  0  0  0  0
   -3.2520   -0.5470    0.7390 C   0  0  0  0  0  0  0  0  0  0  0  0
   -3.2380   -1.0330   -0.5340 C   0  0  0  0  0  0  0  0  0  0  0  0
   -4.3710   -1.4580   -1.3200 C   0  0  0  0  0  0  0  0  0  0  0  0
   -4.0980   -2.0720   -2.4290 O   0  0  0  0  0  0  0  0  0  0  0  0
   -5.7210   -1.2570   -0.9760 N   0  0  0  0  0  0  0  0  0  0  0  0
   -6.7840   -1.7970   -1.8510 C   0  0  0  0  0  0  0  0  0  0  0  0
   -7.7600   -0.6120   -1.8370 C   0  0  0  0  0  0  0  0  0  0  0  0
   -7.7710   -0.2940   -0.3380 C   0  0  2  0  0  0  0  0  0  0  0  0
   -8.0400    1.1670   -0.0850 C   0  0  0  0  0  0  0  0  0  0  0  0
   -8.0350    1.3920    1.3780 C   0  0  0  0  0  0  0  0  0  0  0  0
   -8.2420    2.5530    1.8070 O   0  0  0  0  0  0  0  0  0  0  0  0
   -7.8100    0.3660    2.2850 O   0  0  0  0  0  0  0  0  0  0  0  0
   -6.3200   -0.5690    0.0910 C   0  0  0  0  0  0  0  0  0  0  0  0
   -1.9980   -1.0860   -1.1770 C   0  0  0  0  0  0  0  0  0  0  0  0
    3.1270   -0.4930   -1.7240 S   0  0  0  0  0  0  0  0  0  0  0  0
  1  2  1  0
  2  3  2  0
  2  8  1  0
  3  4  1  0
  4  5  2  0
  5  6  1  0
  6  7  1  0
  6  8  2  0
  8  9  1  0
  9 10  1  0
 10 11  2  0
 10 12  1  0
 12 13  2  0
 12 34  1  0
 13 14  1  0
 14 15  2  0
 15 16  1  0
 15 34  1  0
 16 17  1  0
 17 18  2  0
 17 33  1  0
 18 19  1  0
 19 20  2  0
 20 21  1  0
 21 22  1  0
 21 33  2  0
 22 23  2  0
 22 24  1  0
 24 25  1  0
 24 32  1  0
 25 26  1  0
 26 27  1  0
 27 28  1  6
 27 32  1  0
 28 29  1  0
 29 30  2  0
 29 31  1  0
M  END
