
     RDKit          3D

 35 39  0  0  0  0  0  0  0  0999 V2000
   -1.1040   -4.5550   -3.8610 C   0  0  0  0  0  0  0  0  0  0  0  0
   -0.4610   -3.4870   -3.0440 C   0  0  0  0  0  0  0  0  0  0  0  0
    0.8840   -3.1790   -3.2450 C   0  0  0  0  0  0  0  0  0  0  0  0
    1.5240   -2.1810   -2.5170 C   0  0  0  0  0  0  0  0  0  0  0  0
    0.7930   -1.4800   -1.5610 C   0  0  0  0  0  0  0  0  0  0  0  0
   -0.5140   -1.7710   -1.3560 C   0  0  0  0  0  0  0  0  0  0  0  0
   -1.2580   -1.0040   -0.2750 C   0  0  0  0  0  0  0  0  0  0  0  0
   -0.2750   -0.0220    0.2680 N   0  0  0  0  0  0  0  0  0  0  0  0
   -0.2020    1.2040   -0.5140 C   0  0  0  0  0  0  0  0  0  0  0  0
   -1.5250    1.9380   -0.3580 C   0  0  0  0  0  0  0  0  0  0  0  0
   -2.4330    1.5310    0.5670 C   0  0  0  0  0  0  0  0  0  0  0  0
   -3.6190    2.2470    0.7190 C   0  0  0  0  0  0  0  0  0  0  0  0
   -3.8540    3.3510   -0.0720 C   0  0  0  0  0  0  0  0  0  0  0  0
   -2.9150    3.7650   -1.0120 C   0  0  0  0  0  0  0  0  0  0  0  0
   -1.7210    3.0340   -1.1550 C   0  0  0  0  0  0  0  0  0  0  0  0
   -0.8510    3.4390   -2.2020 N   0  0  0  0  0  0  0  0  0  0  0  0
   -1.1720    4.5530   -3.0890 C   0  0  0  0  0  0  0  0  0  0  0  0
   -0.7360    4.6920   -4.1940 O   0  0  0  0  0  0  0  0  0  0  0  0
   -2.1430    5.5480   -2.4990 C   0  0  0  0  0  0  0  0  0  0  0  0
   -3.1470    4.8790   -1.7970 O   0  0  0  0  0  0  0  0  0  0  0  0
    0.4890   -0.3240    1.4090 C   0  0  0  0  0  0  0  0  0  0  0  0
    0.1930   -1.4650    2.1260 C   0  0  0  0  0  0  0  0  0  0  0  0
    0.9710   -1.8220    3.2040 C   0  0  0  0  0  0  0  0  0  0  0  0
    0.5540   -3.0350    3.9060 C   0  0  0  0  0  0  0  0  0  0  0  0
    0.2060   -4.0290    4.4600 N   0  0  0  0  0  0  0  0  0  0  0  0
    2.0440   -1.0640    3.5780 C   0  0  0  0  0  0  0  0  0  0  0  0
    2.3780    0.0760    2.8970 C   0  0  0  0  0  0  0  0  0  0  0  0
    1.6000    0.4540    1.8120 C   0  0  0  0  0  0  0  0  0  0  0  0
    3.5560    0.6810    3.5400 C   0  0  2  0  0  0  0  0  0  0  0  0
    4.5180    1.2070    2.5130 C   0  0  0  0  0  0  0  0  0  0  0  0
    4.0880   -0.3760    4.4500 C   0  0  0  0  0  0  0  0  0  0  0  0
    2.9860   -1.2590    4.6370 N   0  0  0  0  0  0  0  0  0  0  0  0
   -1.1410   -2.7630   -2.0900 C   0  0  0  0  0  0  0  0  0  0  0  0
   -2.5510   -3.0180   -1.8750 C   0  0  0  0  0  0  0  0  0  0  0  0
   -2.8350   -4.1820   -1.1530 F   0  0  0  0  0  0  0  0  0  0  0  0
  1  2  1  0
  2  3  2  0
  2 33  1  0
  3  4  1  0
  4  5  2  0
  5  6  1  0
  6  7  1  0
  6 33  2  0
  7  8  1  0
  8  9  1  0
  8 21  1  0
  9 10  1  0
 10 11  2  0
 10 15  1  0
 11 12  1  0
 12 13  2  0
 13 14  1  0
 14 15  2  0
 14 20  1  0
 15 16  1  0
 16 17  1  0
 17 18  2  0
 17 19  1  0
 19 20  1  0
 21 22  2  0
 21 28  1  0
 22 23  1  0
 23 24  1  0
 23 26  2  0
 24 25  3  0
 26 27  1  0
 26 32  1  0
 27 28  2  0
 27 29  1  0
 29 30  1  6
 29 31  1  0
 31 32  1  0
 33 34  1  0
 34 35  1  0
M  END
