
     RDKit          3D

 35 39  0  0  0  0  0  0  0  0999 V2000
    4.1510   -3.3100   -2.3030 C   0  0  0  0  0  0  0  0  0  0  0  0
    2.9070   -2.9020   -1.6410 C   0  0  0  0  0  0  0  0  0  0  0  0
    1.8580   -3.7700   -1.4290 C   0  0  0  0  0  0  0  0  0  0  0  0
    0.7220   -3.3060   -0.8180 C   0  0  0  0  0  0  0  0  0  0  0  0
    0.5860   -1.9910   -0.4010 C   0  0  0  0  0  0  0  0  0  0  0  0
   -0.5800   -1.5330    0.1910 C   0  0  0  0  0  0  0  0  0  0  0  0
   -1.5960   -2.4290    0.3850 F   0  0  0  0  0  0  0  0  0  0  0  0
   -0.7090   -0.2190    0.5720 C   0  0  0  0  0  0  0  0  0  0  0  0
   -1.9360    0.3250    1.1720 C   0  0  0  0  0  0  0  0  0  0  0  0
   -1.8280    1.4300    1.8060 O   0  0  0  0  0  0  0  0  0  0  0  0
   -3.2070   -0.2420    1.1160 N   0  0  0  0  0  0  0  0  0  0  0  0
   -4.4200    0.2980    1.7130 C   0  0  2  0  0  0  0  0  0  0  0  0
   -5.0330   -0.7070    2.6460 C   0  0  0  0  0  0  0  0  0  0  0  0
   -5.3760    0.7190    0.6910 C   0  0  0  0  0  0  0  0  0  0  0  0
   -5.0170    1.6710   -0.2290 C   0  0  0  0  0  0  0  0  0  0  0  0
   -5.9320    2.0280   -1.2160 C   0  0  0  0  0  0  0  0  0  0  0  0
   -7.1440    1.4730   -1.2930 N   0  0  0  0  0  0  0  0  0  0  0  0
   -8.1570    1.6570   -2.1460 C   0  0  0  0  0  0  0  0  0  0  0  0
   -9.2100    0.8270   -1.8060 C   0  0  0  0  0  0  0  0  0  0  0  0
   -8.7660    0.1500   -0.7150 N   0  0  0  0  0  0  0  0  0  0  0  0
   -7.5170    0.5470   -0.4120 C   0  0  0  0  0  0  0  0  0  0  0  0
   -6.6240    0.1600    0.5970 C   0  0  0  0  0  0  0  0  0  0  0  0
    0.3770    0.6110    0.3380 C   0  0  0  0  0  0  0  0  0  0  0  0
    1.5550    0.2150   -0.2410 C   0  0  0  0  0  0  0  0  0  0  0  0
    2.6950    1.0910   -0.4320 C   0  0  0  0  0  0  0  0  0  0  0  0
    2.4530    2.1380   -1.1220 O   0  0  0  0  0  0  0  0  0  0  0  0
    3.9970    0.8830    0.0700 N   0  0  0  0  0  0  0  0  0  0  0  0
    5.0040    1.8690   -0.2720 C   0  0  0  0  0  0  0  0  0  0  0  0
    6.3060    1.6350    0.3740 C   0  0  0  0  0  0  0  0  0  0  0  0
    7.4380    1.3690   -0.2350 C   0  0  0  0  0  0  0  0  0  0  0  0
    8.5250    1.2050    0.7550 C   0  0  0  0  0  0  0  0  0  0  0  0
    7.8690    1.4240    2.0450 C   0  0  0  0  0  0  0  0  0  0  0  0
    6.6050    1.6660    1.8230 C   0  0  0  0  0  0  0  0  0  0  0  0
    1.6550   -1.1050   -0.6140 C   0  0  0  0  0  0  0  0  0  0  0  0
    2.7910   -1.5730   -1.2270 C   0  0  0  0  0  0  0  0  0  0  0  0
  1  2  1  0
  2  3  2  0
  2 35  1  0
  3  4  1  0
  4  5  2  0
  5  6  1  0
  5 34  1  0
  6  7  1  0
  6  8  2  0
  8  9  1  0
  8 23  1  0
  9 10  2  0
  9 11  1  0
 11 12  1  0
 12 13  1  1
 12 14  1  0
 14 15  1  0
 14 22  2  0
 15 16  2  0
 16 17  1  0
 17 18  1  0
 17 21  1  0
 18 19  2  0
 19 20  1  0
 20 21  2  0
 21 22  1  0
 23 24  2  0
 24 25  1  0
 24 34  1  0
 25 26  2  0
 25 27  1  0
 27 28  1  0
 28 29  1  0
 29 30  2  0
 29 33  1  0
 30 31  1  0
 31 32  1  0
 32 33  2  0
 34 35  2  0
M  END
