
     RDKit          3D

 35 39  0  0  0  0  0  0  0  0999 V2000
    0.6330   -0.9070    0.3500 O   0  0  0  0  0  0  0  0  0  0  0  0
    0.8460   -0.6600    1.5380 C   0  0  0  0  0  0  0  0  0  0  0  0
   -0.3430   -0.7570    2.4530 C   0  0  0  0  0  0  0  0  0  0  0  0
   -1.5700   -1.1410    1.7120 C   0  0  0  0  0  0  0  0  0  0  0  0
   -2.0940   -2.4100    1.8090 C   0  0  0  0  0  0  0  0  0  0  0  0
   -3.2300   -2.8200    1.1560 C   0  0  0  0  0  0  0  0  0  0  0  0
   -3.9140   -1.9410    0.3490 C   0  0  0  0  0  0  0  0  0  0  0  0
   -3.3940   -0.6500    0.2410 C   0  0  0  0  0  0  0  0  0  0  0  0
   -2.2500   -0.2250    0.8940 C   0  0  0  0  0  0  0  0  0  0  0  0
   -1.7260    1.0790    0.7750 N   0  0  0  0  0  0  0  0  0  0  0  0
   -2.2050    2.1840    0.0270 C   0  0  1  0  0  0  0  0  0  0  0  0
   -2.2710    2.0310   -1.4650 C   0  0  0  0  0  0  0  0  0  0  0  0
   -2.3280    3.4820   -2.0090 C   0  0  0  0  0  0  0  0  0  0  0  0
   -3.5710    4.1340   -1.4660 C   0  0  1  0  0  0  0  0  0  0  0  0
   -4.7260    3.5200   -1.9230 F   0  0  0  0  0  0  0  0  0  0  0  0
   -3.6170    4.1470    0.0270 C   0  0  0  0  0  0  0  0  0  0  0  0
   -3.5130    2.6980    0.5380 C   0  0  0  0  0  0  0  0  0  0  0  0
   -5.1480   -2.3350   -0.3780 C   0  0  0  0  0  0  0  0  0  0  0  0
   -5.1420   -3.7650   -0.8040 C   0  0  0  0  0  0  0  0  0  0  0  0
   -4.1100   -4.6270   -0.1590 C   0  0  0  0  0  0  0  0  0  0  0  0
   -3.7880   -4.2070    1.2710 C   0  0  0  0  0  0  0  0  0  0  0  0
    2.1170   -0.3080    2.0210 N   0  0  0  0  0  0  0  0  0  0  0  0
    3.2640   -0.1990    1.2420 C   0  0  0  0  0  0  0  0  0  0  0  0
    3.3620   -0.4600   -0.0820 C   0  0  0  0  0  0  0  0  0  0  0  0
    4.5660   -0.3180   -0.7860 C   0  0  0  0  0  0  0  0  0  0  0  0
    5.6940    0.0940   -0.1560 C   0  0  0  0  0  0  0  0  0  0  0  0
    6.8960    0.2270   -0.9050 N   0  0  0  0  0  0  0  0  0  0  0  0
    7.4370    1.4160   -1.1660 C   0  0  0  0  0  0  0  0  0  0  0  0
    8.6100    1.5470   -1.8970 C   0  0  0  0  0  0  0  0  0  0  0  0
    9.2360    0.4110   -2.3670 C   0  0  0  0  0  0  0  0  0  0  0  0
    8.6730   -0.7790   -2.0920 N   0  0  0  0  0  0  0  0  0  0  0  0
    7.5180   -0.8700   -1.3700 C   0  0  0  0  0  0  0  0  0  0  0  0
    7.0410   -1.9920   -1.1450 O   0  0  0  0  0  0  0  0  0  0  0  0
    5.6350    0.3720    1.1970 C   0  0  0  0  0  0  0  0  0  0  0  0
    4.4450    0.2270    1.8730 C   0  0  0  0  0  0  0  0  0  0  0  0
  1  2  2  0
  2  3  1  0
  2 22  1  0
  3  4  1  0
  4  5  2  0
  4  9  1  0
  5  6  1  0
  6  7  2  0
  6 21  1  0
  7  8  1  0
  7 18  1  0
  8  9  2  0
  9 10  1  0
 11 10  1  1
 11 12  1  0
 11 17  1  0
 12 13  1  0
 13 14  1  0
 14 15  1  6
 14 16  1  0
 16 17  1  0
 18 19  1  0
 19 20  1  0
 20 21  1  0
 22 23  1  0
 23 24  2  0
 23 35  1  0
 24 25  1  0
 25 26  2  0
 26 27  1  0
 26 34  1  0
 27 28  1  0
 27 32  1  0
 28 29  2  0
 29 30  1  0
 30 31  2  0
 31 32  1  0
 32 33  2  0
 34 35  2  0
M  END
