
     RDKit          3D

 35 39  0  0  0  0  0  0  0  0999 V2000
    4.3500    0.0040    0.0860 O   0  0  0  0  0  0  0  0  0  0  0  0
    3.1160    0.2530   -0.0420 C   0  0  0  0  0  0  0  0  0  0  0  0
    2.6310    1.4890   -0.4800 N   0  0  0  0  0  0  0  0  0  0  0  0
    3.4380    2.5960   -0.8200 C   0  0  0  0  0  0  0  0  0  0  0  0
    4.7660    2.6900   -0.5590 C   0  0  0  0  0  0  0  0  0  0  0  0
    5.4950    3.8270   -0.9480 C   0  0  0  0  0  0  0  0  0  0  0  0
    4.8860    4.8650   -1.5980 C   0  0  0  0  0  0  0  0  0  0  0  0
    3.5430    4.7780   -1.8660 C   0  0  0  0  0  0  0  0  0  0  0  0
    2.8410    3.6840   -1.4920 C   0  0  0  0  0  0  0  0  0  0  0  0
    2.2450   -0.8800    0.3120 C   0  0  0  0  0  0  0  0  0  0  0  0
    2.7520   -2.1620    0.3850 C   0  0  0  0  0  0  0  0  0  0  0  0
    1.9660   -3.2450    0.7220 C   0  0  0  0  0  0  0  0  0  0  0  0
    0.6730   -2.9730    0.9760 N   0  0  0  0  0  0  0  0  0  0  0  0
    0.1450   -1.7410    0.9150 C   0  0  0  0  0  0  0  0  0  0  0  0
   -1.1050   -1.5550    1.1730 N   0  0  0  0  0  0  0  0  0  0  0  0
   -1.7740   -0.3260    1.1450 C   0  0  0  0  0  0  0  0  0  0  0  0
   -1.5000    0.7390    1.9720 C   0  0  0  0  0  0  0  0  0  0  0  0
   -2.1850    1.8910    1.8860 N   0  0  0  0  0  0  0  0  0  0  0  0
   -3.1740    2.0850    0.9980 C   0  0  0  0  0  0  0  0  0  0  0  0
   -3.9150    3.3670    0.8950 C   0  0  0  0  0  0  0  0  0  0  0  0
   -3.4400    4.2190   -0.2650 C   0  0  0  0  0  0  0  0  0  0  0  0
   -4.2010    5.3790   -0.2680 O   0  0  0  0  0  0  0  0  0  0  0  0
   -3.4780    1.0310    0.1470 C   0  0  0  0  0  0  0  0  0  0  0  0
   -4.4830    1.1710   -0.7750 C   0  0  0  0  0  0  0  0  0  0  0  0
   -4.8150    0.1430   -1.6330 C   0  0  0  0  0  0  0  0  0  0  0  0
   -5.8030    0.2790   -2.5410 F   0  0  0  0  0  0  0  0  0  0  0  0
   -4.1370   -1.0550   -1.5780 C   0  0  0  0  0  0  0  0  0  0  0  0
   -3.1330   -1.1880   -0.6530 C   0  0  0  0  0  0  0  0  0  0  0  0
   -2.8020   -0.1650    0.2020 C   0  0  0  0  0  0  0  0  0  0  0  0
    0.9210   -0.6380    0.5780 C   0  0  0  0  0  0  0  0  0  0  0  0
   -0.2920   -4.0020    1.3450 C   0  0  0  0  0  0  0  0  0  0  0  0
   -0.2010   -5.0700    0.3010 C   0  0  0  0  0  0  0  0  0  0  0  0
    0.7610   -6.1700    0.6400 C   0  0  0  0  0  0  0  0  0  0  0  0
    2.1680   -5.7200    0.7020 C   0  0  0  0  0  0  0  0  0  0  0  0
    2.7130   -4.5120    0.7380 C   0  0  0  0  0  0  0  0  0  0  0  0
  1  2  2  0
  2  3  1  0
  2 10  1  0
  3  4  1  0
  4  5  2  0
  4  9  1  0
  5  6  1  0
  6  7  2  0
  7  8  1  0
  8  9  2  0
 10 11  1  0
 10 30  2  0
 11 12  2  0
 12 13  1  0
 12 35  1  0
 13 14  1  0
 13 31  1  0
 14 15  2  3
 14 30  1  0
 15 16  1  0
 16 17  2  0
 16 29  1  0
 17 18  1  0
 18 19  2  0
 19 20  1  0
 19 23  1  0
 20 21  1  0
 21 22  1  0
 23 24  2  0
 23 29  1  0
 24 25  1  0
 25 26  1  0
 25 27  2  0
 27 28  1  0
 28 29  2  0
 31 32  1  0
 32 33  1  0
 33 34  1  0
 34 35  2  0
M  END
