
     RDKit          3D

 34 37  0  0  0  0  0  0  0  0999 V2000
    1.5490   -4.4830   -2.1960 C   0  0  0  0  0  0  0  0  0  0  0  0
    1.4210   -3.0660   -1.7090 C   0  0  0  0  0  0  0  0  0  0  0  0
    1.8700   -2.0010   -2.4630 C   0  0  0  0  0  0  0  0  0  0  0  0
    1.7200   -0.7250   -1.9520 C   0  0  0  0  0  0  0  0  0  0  0  0
    1.1430   -0.4860   -0.7260 C   0  0  0  0  0  0  0  0  0  0  0  0
    0.9750    0.8680   -0.1650 C   0  0  2  0  0  0  0  0  0  0  0  0
    1.7100    1.0100    1.1480 C   0  0  0  0  0  0  0  0  0  0  0  0
    3.1830    0.7530    0.9100 C   0  0  0  0  0  0  0  0  0  0  0  0
    3.7320    2.0110   -0.3050 S   0  0  0  0  0  0  0  0  0  0  0  0
    5.4940    1.7230   -0.6070 C   0  0  2  0  0  0  0  0  0  0  0  0
    5.6240    0.3850   -1.2940 C   0  0  0  0  0  0  0  0  0  0  0  0
    6.2090    1.7190    0.7440 C   0  0  0  0  0  0  0  0  0  0  0  0
   -0.5040    1.1130    0.0230 C   0  0  0  0  0  0  0  0  0  0  0  0
   -1.2360    0.2240   -0.3040 O   0  0  0  0  0  0  0  0  0  0  0  0
   -0.9960    2.3660    0.5730 C   0  0  0  0  0  0  0  0  0  0  0  0
   -2.4410    2.5880    0.6370 C   0  0  0  0  0  0  0  0  0  0  0  0
   -3.2930    1.7220    1.3270 N   0  0  0  0  0  0  0  0  0  0  0  0
   -4.0430    0.7990    0.7100 C   0  0  0  0  0  0  0  0  0  0  0  0
   -4.8250   -0.0880    1.4450 C   0  0  0  0  0  0  0  0  0  0  0  0
   -4.8370   -0.0280    2.8110 C   0  0  0  0  0  0  0  0  0  0  0  0
   -5.5450   -0.8310    3.4880 O   0  0  0  0  0  0  0  0  0  0  0  0
   -4.0740    0.9120    3.4030 N   0  0  0  0  0  0  0  0  0  0  0  0
   -3.3240    1.7610    2.6700 C   0  0  0  0  0  0  0  0  0  0  0  0
   -2.6180    2.6330    3.2300 O   0  0  0  0  0  0  0  0  0  0  0  0
   -5.5440   -0.9450    0.5120 C   0  0  0  0  0  0  0  0  0  0  0  0
   -6.4350   -1.9810    0.4560 N   0  0  0  0  0  0  0  0  0  0  0  0
   -6.6400   -2.2470   -0.8260 C   0  0  0  0  0  0  0  0  0  0  0  0
   -5.8860   -1.3890   -1.5960 C   0  0  0  0  0  0  0  0  0  0  0  0
   -5.2180   -0.5950   -0.7390 N   0  0  0  0  0  0  0  0  0  0  0  0
   -4.3010    0.4710   -0.6870 C   0  0  0  0  0  0  0  0  0  0  0  0
   -3.8020    1.0300   -1.6990 O   0  0  0  0  0  0  0  0  0  0  0  0
    0.6880   -1.5480    0.0410 C   0  0  0  0  0  0  0  0  0  0  0  0
    0.8370   -2.8220   -0.4670 C   0  0  0  0  0  0  0  0  0  0  0  0
    0.2600   -4.1780    0.5040 Cl  0  0  0  0  0  0  0  0  0  0  0  0
  1  2  1  0
  2  3  2  0
  2 33  1  0
  3  4  1  0
  4  5  2  0
  5  6  1  0
  5 32  1  0
  6  7  1  1
  6 13  1  0
  7  8  1  0
  8  9  1  0
  9 10  1  0
 10 11  1  1
 10 12  1  0
 13 14  2  0
 13 15  1  0
 15 16  1  0
 16 17  1  0
 17 18  1  0
 17 23  1  0
 18 19  2  0
 18 30  1  0
 19 20  1  0
 19 25  1  0
 20 21  2  0
 20 22  1  0
 22 23  1  0
 23 24  2  0
 25 26  2  0
 25 29  1  0
 26 27  1  0
 27 28  2  0
 28 29  1  0
 29 30  1  0
 30 31  2  0
 32 33  2  0
 33 34  1  0
M  END
