
     RDKit          3D

 35 39  0  0  0  0  0  0  0  0999 V2000
    2.6690    2.2580   -3.3880 C   0  0  0  0  0  0  0  0  0  0  0  0
    2.4730    2.1160   -1.9330 C   0  0  0  0  0  0  0  0  0  0  0  0
    1.5180    2.9420   -1.4290 C   0  0  0  0  0  0  0  0  0  0  0  0
    1.1350    3.0070   -0.0080 C   0  0  0  0  0  0  0  0  0  0  0  0
   -0.2580    3.3160    0.3050 C   0  0  0  0  0  0  0  0  0  0  0  0
   -1.3670    2.4850   -0.1430 C   0  0  0  0  0  0  0  0  0  0  0  0
   -1.9840    1.4660    0.7410 C   0  0  1  0  0  0  0  0  0  0  0  0
   -1.2000    0.8420    1.7940 C   0  0  0  0  0  0  0  0  0  0  0  0
   -0.9320   -0.6300    1.6510 N   0  0  0  0  0  0  0  0  0  0  0  0
   -0.2330   -1.0440    2.8830 C   0  0  0  0  0  0  0  0  0  0  0  0
    0.2860   -2.3430    3.0800 C   0  0  1  0  0  0  0  0  0  0  0  0
    1.0590   -3.1150    2.1020 C   0  0  0  0  0  0  0  0  0  0  0  0
    2.3790   -2.5150    2.5980 C   0  0  1  0  0  0  0  0  0  0  0  0
    2.6700   -1.2080    2.0170 C   0  0  0  0  0  0  0  0  0  0  0  0
    3.9530   -1.0300    1.3160 C   0  0  0  0  0  0  0  0  0  0  0  0
    4.0690   -0.4900    0.1130 C   0  0  0  0  0  0  0  0  0  0  0  0
    2.9180   -0.0190   -0.6980 C   0  0  0  0  0  0  0  0  0  0  0  0
    3.2410    1.1740   -1.1340 C   0  0  0  0  0  0  0  0  0  0  0  0
    4.6090    1.4300   -0.6950 O   0  0  0  0  0  0  0  0  0  0  0  0
    5.2360    0.0990   -0.6670 C   0  0  2  0  0  0  0  0  0  0  0  0
    5.3970   -0.4990   -1.9910 C   0  0  0  0  0  0  0  0  0  0  0  0
    1.7970   -0.9020   -1.0500 C   0  0  0  0  0  0  0  0  0  0  0  0
    0.4710   -0.3560   -0.9040 C   0  0  0  0  0  0  0  0  0  0  0  0
   -0.6810   -1.3170   -0.8380 C   0  0  2  0  0  0  0  0  0  0  0  0
   -1.6520   -0.9290   -1.7020 O   0  0  0  0  0  0  0  0  0  0  0  0
   -2.2870   -1.7620   -2.5120 C   0  0  0  0  0  0  0  0  0  0  0  0
   -3.6690   -2.1860   -2.2660 C   0  0  0  0  0  0  0  0  0  0  0  0
   -4.6350   -1.3760   -1.5440 C   0  0  0  0  0  0  0  0  0  0  0  0
   -4.4780    0.0800   -1.3710 C   0  0  0  0  0  0  0  0  0  0  0  0
   -4.5920    0.4640    0.0940 C   0  0  0  0  0  0  0  0  0  0  0  0
   -4.3280    1.8930    0.4050 C   0  0  0  0  0  0  0  0  0  0  0  0
   -3.1940    2.0760    1.3350 N   0  0  0  0  0  0  0  0  0  0  0  0
   -1.3110   -1.3720    0.5490 C   0  0  0  0  0  0  0  0  0  0  0  0
   -2.2610   -2.2620    0.4320 O   0  0  0  0  0  0  0  0  0  0  0  0
    1.5700   -2.3320    3.9200 C   0  0  0  0  0  0  0  0  0  0  0  0
  1  2  1  0
  2  3  2  0
  2 18  1  0
  3  4  1  0
  4  5  1  0
  5  6  1  0
  7  6  1  1
  7  8  1  0
  7 32  1  0
  8  9  1  0
  9 10  1  0
  9 33  1  0
 11 10  1  6
 11 12  1  0
 11 35  1  0
 12 13  1  0
 13 14  1  6
 13 35  1  0
 14 15  1  0
 15 16  2  0
 16 17  1  0
 16 20  1  0
 17 18  2  0
 17 22  1  0
 18 19  1  0
 19 20  1  0
 20 21  1  6
 22 23  1  0
 23 24  1  0
 24 25  1  6
 24 33  1  0
 25 26  1  0
 26 27  1  0
 27 28  1  0
 28 29  1  0
 29 30  1  0
 30 31  1  0
 31 32  1  0
 33 34  2  0
M  CHG  1  32   1
M  END
