
     RDKit          3D

 34 36  0  0  0  0  0  0  0  0999 V2000
   -5.2280   -0.8480    3.2000 C   0  0  0  0  0  0  0  0  0  0  0  0
   -4.8490   -1.4380    2.1040 C   0  0  0  0  0  0  0  0  0  0  0  0
   -5.8720   -1.9920    1.1770 C   0  0  0  0  0  0  0  0  0  0  0  0
   -5.3670   -2.1060   -0.2000 C   0  0  0  0  0  0  0  0  0  0  0  0
   -6.2820   -2.2460   -1.1790 C   0  0  0  0  0  0  0  0  0  0  0  0
   -7.9780   -2.2910   -0.8410 Cl  0  0  0  0  0  0  0  0  0  0  0  0
   -3.9940   -2.0670   -0.4590 N   0  0  0  0  0  0  0  0  0  0  0  0
   -3.0110   -2.0640    0.5770 C   0  0  1  0  0  0  0  0  0  0  0  0
   -1.7680   -1.3660    0.1990 C   0  0  0  0  0  0  0  0  0  0  0  0
   -0.5570   -1.9320    0.4830 C   0  0  0  0  0  0  0  0  0  0  0  0
    0.6330   -1.3430    0.1600 C   0  0  0  0  0  0  0  0  0  0  0  0
    0.6270   -0.1110   -0.4860 C   0  0  0  0  0  0  0  0  0  0  0  0
    1.7230    0.5200   -0.8260 O   0  0  0  0  0  0  0  0  0  0  0  0
    3.0180    0.6940   -0.9410 C   0  0  0  0  0  0  0  0  0  0  0  0
    3.8700   -0.2230   -1.7820 C   0  0  0  0  0  0  0  0  0  0  0  0
    3.8300   -1.6410   -1.3300 C   0  0  0  0  0  0  0  0  0  0  0  0
    4.2390   -1.8560   -0.0520 O   0  0  0  0  0  0  0  0  0  0  0  0
    5.4090   -1.7030    0.6120 C   0  0  0  0  0  0  0  0  0  0  0  0
    5.4380   -2.0150    1.9820 C   0  0  0  0  0  0  0  0  0  0  0  0
    6.5720   -1.8890    2.7100 C   0  0  0  0  0  0  0  0  0  0  0  0
    7.7480   -1.4510    2.1550 C   0  0  0  0  0  0  0  0  0  0  0  0
    7.7560   -1.1380    0.8200 C   0  0  0  0  0  0  0  0  0  0  0  0
    8.9950   -0.6580    0.1560 C   0  0  0  0  0  0  0  0  0  0  0  0
    6.5950   -1.2680    0.0740 C   0  0  0  0  0  0  0  0  0  0  0  0
   -0.6070    0.5030   -0.7930 C   0  0  0  0  0  0  0  0  0  0  0  0
   -0.5860    1.7830   -1.4900 C   0  0  0  0  0  0  0  0  0  0  0  0
   -1.8030    2.3900   -1.7470 O   0  0  0  0  0  0  0  0  0  0  0  0
   -2.7230    2.8370   -0.8410 C   0  0  0  0  0  0  0  0  0  0  0  0
   -2.4710    2.7070    0.3850 O   0  0  0  0  0  0  0  0  0  0  0  0
   -4.0210    3.4750   -1.1940 C   0  0  0  0  0  0  0  0  0  0  0  0
   -3.8680    4.9570   -0.8240 C   0  0  0  0  0  0  0  0  0  0  0  0
   -5.0530    5.7070   -1.1100 N   0  0  0  0  0  0  0  0  0  0  0  0
   -1.7470   -0.1440   -0.4410 C   0  0  0  0  0  0  0  0  0  0  0  0
   -3.4630   -1.5350    1.8270 N   0  0  0  0  0  0  0  0  0  0  0  0
  1  2  2  0
  2  3  1  0
  2 34  1  0
  3  4  1  0
  4  5  2  3
  4  7  1  0
  5  6  1  0
  7  8  1  0
  8  9  1  6
  8 34  1  0
  9 10  2  0
  9 33  1  0
 10 11  1  0
 11 12  2  0
 12 13  1  0
 12 25  1  0
 13 14  1  0
 14 15  1  0
 15 16  1  0
 16 17  1  0
 17 18  1  0
 18 19  2  0
 18 24  1  0
 19 20  1  0
 20 21  2  0
 21 22  1  0
 22 23  1  0
 22 24  2  0
 25 26  1  0
 25 33  2  0
 26 27  1  0
 27 28  1  0
 28 29  2  0
 28 30  1  0
 30 31  1  0
 31 32  1  0
M  CHG  1  32   1
M  END
