
     RDKit          3D

 34 36  0  0  0  0  0  0  0  0999 V2000
    6.6550   -3.4070    2.3440 C   0  0  0  0  0  0  0  0  0  0  0  0
    6.5450   -2.3410    1.4130 O   0  0  0  0  0  0  0  0  0  0  0  0
    7.5720   -1.6400    0.8630 C   0  0  0  0  0  0  0  0  0  0  0  0
    8.9080   -1.8390    1.0720 C   0  0  0  0  0  0  0  0  0  0  0  0
    9.8860   -1.0810    0.4760 C   0  0  0  0  0  0  0  0  0  0  0  0
    9.5550   -0.0420   -0.3970 C   0  0  0  0  0  0  0  0  0  0  0  0
   10.7620    0.9430   -1.1770 Cl  0  0  0  0  0  0  0  0  0  0  0  0
    8.1890    0.1590   -0.6080 C   0  0  0  0  0  0  0  0  0  0  0  0
    7.2130   -0.5980   -0.0110 C   0  0  0  0  0  0  0  0  0  0  0  0
    5.8770   -0.3620   -0.2400 O   0  0  0  0  0  0  0  0  0  0  0  0
    5.4350    0.6650   -1.0540 C   0  0  0  0  0  0  0  0  0  0  0  0
    3.9290    0.6020   -1.0480 C   0  0  0  0  0  0  0  0  0  0  0  0
    3.3920   -0.4090   -0.5300 O   0  0  0  0  0  0  0  0  0  0  0  0
    3.1020    1.6050   -1.5810 N   0  0  0  0  0  0  0  0  0  0  0  0
    1.7090    1.5250   -1.5520 N   0  0  0  0  0  0  0  0  0  0  0  0
    0.9310    1.1330   -0.4450 C   0  0  0  0  0  0  0  0  0  0  0  0
    1.5340    0.8210    0.6310 O   0  0  0  0  0  0  0  0  0  0  0  0
   -0.5770    1.0610   -0.4630 C   0  0  0  0  0  0  0  0  0  0  0  0
   -1.0310    0.3280    0.7440 C   0  0  0  0  0  0  0  0  0  0  0  0
   -2.5530    0.1690    0.8650 C   0  0  1  0  0  0  0  0  0  0  0  0
   -3.0830    1.5930    0.9850 C   0  0  0  0  0  0  0  0  0  0  0  0
   -4.5290    1.6430    1.1920 N   0  0  0  0  0  0  0  0  0  0  0  0
   -4.9910    2.9940    1.0990 C   0  0  0  0  0  0  0  0  0  0  0  0
   -6.4710    3.0740    1.3420 C   0  0  1  0  0  0  0  0  0  0  0  0
   -7.3990    2.3250    0.4020 C   0  0  0  0  0  0  0  0  0  0  0  0
   -7.1790    1.8200    1.8040 C   0  0  0  0  0  0  0  0  0  0  0  0
   -3.0570   -0.5520   -0.3160 C   0  0  0  0  0  0  0  0  0  0  0  0
   -3.6710    0.1680   -1.2360 C   0  0  0  0  0  0  0  0  0  0  0  0
   -4.2730   -0.2890   -2.5150 C   0  0  0  0  0  0  0  0  0  0  0  0
   -4.6640   -1.5120   -2.8260 C   0  0  0  0  0  0  0  0  0  0  0  0
   -4.6490   -2.7650   -2.0750 C   0  0  0  0  0  0  0  0  0  0  0  0
   -3.5790   -2.9070   -1.0820 C   0  0  0  0  0  0  0  0  0  0  0  0
   -2.9000   -2.0100   -0.3370 C   0  0  0  0  0  0  0  0  0  0  0  0
   -1.9080   -2.5560    0.5990 C   0  0  0  0  0  0  0  0  0  0  0  0
  1  2  1  0
  2  3  1  0
  3  4  2  0
  3  9  1  0
  4  5  1  0
  5  6  2  0
  6  7  1  0
  6  8  1  0
  8  9  2  0
  9 10  1  0
 10 11  1  0
 11 12  1  0
 12 13  2  0
 12 14  1  0
 14 15  1  0
 15 16  1  0
 16 17  2  0
 16 18  1  0
 18 19  1  0
 20 19  1  6
 20 21  1  0
 20 27  1  0
 21 22  1  0
 22 23  1  0
 24 23  1  6
 24 25  1  0
 24 26  1  0
 25 26  1  0
 27 28  2  0
 27 33  1  0
 28 29  1  0
 29 30  2  0
 30 31  1  0
 31 32  1  0
 32 33  2  0
 33 34  1  0
M  CHG  1  22   1
M  END
