
     RDKit          3D

 34 37  0  0  0  0  0  0  0  0999 V2000
   -1.4120   -2.1270    3.1250 C   0  0  0  0  0  0  0  0  0  0  0  0
   -1.4240   -0.6070    3.0350 C   0  0  0  0  0  0  0  0  0  0  0  0
   -1.5070   -0.1960    1.6180 C   0  0  0  0  0  0  0  0  0  0  0  0
   -0.3480   -0.0040    0.9040 C   0  0  0  0  0  0  0  0  0  0  0  0
   -0.4190    0.3770   -0.4120 C   0  0  0  0  0  0  0  0  0  0  0  0
    0.7450    0.5830   -1.1830 N   0  0  0  0  0  0  0  0  0  0  0  0
    2.0570    0.4020   -0.6810 C   0  0  0  0  0  0  0  0  0  0  0  0
    2.6690    0.0840    0.3330 N   0  0  0  0  0  0  0  0  0  0  0  0
    3.9380    0.0000    0.5060 C   0  0  0  0  0  0  0  0  0  0  0  0
    4.7370    0.3050   -0.5790 C   0  0  0  0  0  0  0  0  0  0  0  0
    6.1460    0.3180   -0.7460 C   0  0  0  0  0  0  0  0  0  0  0  0
    6.6630    0.6330   -1.8460 O   0  0  0  0  0  0  0  0  0  0  0  0
    7.0180   -0.0230    0.3210 N   0  0  0  0  0  0  0  0  0  0  0  0
    8.4330   -0.0040    0.1320 C   0  0  0  0  0  0  0  0  0  0  0  0
    9.1050   -1.1510   -0.3070 C   0  0  0  0  0  0  0  0  0  0  0  0
    8.3470   -2.3920   -0.5780 C   0  0  0  0  0  0  0  0  0  0  0  0
   10.4660   -1.1330   -0.4890 C   0  0  0  0  0  0  0  0  0  0  0  0
   11.2260   -0.0040   -0.2530 C   0  0  0  0  0  0  0  0  0  0  0  0
   10.5540    1.1210    0.1790 C   0  0  0  0  0  0  0  0  0  0  0  0
    9.1880    1.1250    0.3690 C   0  0  0  0  0  0  0  0  0  0  0  0
    8.3550    2.5750    0.9220 Cl  0  0  0  0  0  0  0  0  0  0  0  0
    3.5080    0.7130   -1.8410 S   0  0  0  0  0  0  0  0  0  0  0  0
   -1.6760    0.5570   -0.9790 C   0  0  0  0  0  0  0  0  0  0  0  0
   -2.8500    0.3740   -0.2940 C   0  0  0  0  0  0  0  0  0  0  0  0
   -4.1340    0.5740   -0.9390 C   0  0  0  0  0  0  0  0  0  0  0  0
   -4.2260    0.8500   -2.1730 O   0  0  0  0  0  0  0  0  0  0  0  0
   -5.3840    0.4830   -0.2710 N   0  0  0  0  0  0  0  0  0  0  0  0
   -6.6430    0.6860   -0.9350 C   0  0  1  0  0  0  0  0  0  0  0  0
   -7.5110   -0.5510   -0.9280 C   0  0  0  0  0  0  0  0  0  0  0  0
   -8.9160   -0.1200   -1.2950 C   0  0  0  0  0  0  0  0  0  0  0  0
   -9.5330    0.6760   -0.2700 N   0  0  0  0  0  0  0  0  0  0  0  0
   -8.5530    1.3840    0.5340 C   0  0  0  0  0  0  0  0  0  0  0  0
   -7.4440    1.8290   -0.3980 C   0  0  0  0  0  0  0  0  0  0  0  0
   -2.7500   -0.0070    1.0180 C   0  0  0  0  0  0  0  0  0  0  0  0
  1  2  1  0
  2  3  1  0
  3  4  2  0
  3 34  1  0
  4  5  1  0
  5  6  1  0
  5 23  2  0
  6  7  1  0
  7  8  2  0
  7 22  1  0
  8  9  1  0
  9 10  2  0
 10 11  1  0
 10 22  1  0
 11 12  2  0
 11 13  1  0
 13 14  1  0
 14 15  2  0
 14 20  1  0
 15 16  1  0
 15 17  1  0
 17 18  2  0
 18 19  1  0
 19 20  2  0
 20 21  1  0
 23 24  1  0
 24 25  1  0
 24 34  2  0
 25 26  2  0
 25 27  1  0
 28 27  1  1
 28 29  1  0
 28 33  1  0
 29 30  1  0
 30 31  1  0
 31 32  1  0
 32 33  1  0
M  CHG  1  31   1
M  END
