
     RDKit          3D

 33 35  0  0  0  0  0  0  0  0999 V2000
   -6.0970   -0.2550    0.3690 C   0  0  0  0  0  0  0  0  0  0  0  0
   -5.0250   -0.6960    1.3530 C   0  0  0  0  0  0  0  0  0  0  0  0
   -3.6590   -0.2540    0.9170 C   0  0  0  0  0  0  0  0  0  0  0  0
   -2.9030   -0.8780   -0.1350 C   0  0  0  0  0  0  0  0  0  0  0  0
   -3.4960   -2.0070   -0.8150 C   0  0  0  0  0  0  0  0  0  0  0  0
   -2.8830   -2.7420   -1.8360 N   0  0  0  0  0  0  0  0  0  0  0  0
   -1.7170   -0.2120   -0.2530 C   0  0  0  0  0  0  0  0  0  0  0  0
   -0.5550   -0.3450   -1.1100 C   0  0  2  0  0  0  0  0  0  0  0  0
   -0.6900   -0.7440   -2.5030 C   0  0  0  0  0  0  0  0  0  0  0  0
   -1.5020   -0.0570   -3.4410 N   0  0  0  0  0  0  0  0  0  0  0  0
   -0.0650   -1.7440   -2.9260 O   0  0  0  0  0  0  0  0  0  0  0  0
    0.7080   -0.7660   -0.4590 C   0  0  0  0  0  0  0  0  0  0  0  0
    1.9310   -0.1570   -0.7780 C   0  0  0  0  0  0  0  0  0  0  0  0
    3.1340   -0.5390   -0.2800 C   0  0  0  0  0  0  0  0  0  0  0  0
    4.3290    0.1060   -0.6350 O   0  0  0  0  0  0  0  0  0  0  0  0
    4.2360    1.1910   -1.5300 C   0  0  0  0  0  0  0  0  0  0  0  0
    5.5840    1.7760   -1.8080 C   0  0  0  0  0  0  0  0  0  0  0  0
    6.7880    1.4110   -1.2540 C   0  0  0  0  0  0  0  0  0  0  0  0
    7.7540    2.2200   -1.8060 C   0  0  0  0  0  0  0  0  0  0  0  0
    7.0990    3.0560   -2.6830 C   0  0  0  0  0  0  0  0  0  0  0  0
    5.8270    2.7510   -2.6450 O   0  0  0  0  0  0  0  0  0  0  0  0
    3.1970   -1.5880    0.6000 C   0  0  0  0  0  0  0  0  0  0  0  0
    4.4370   -2.0020    1.1310 O   0  0  0  0  0  0  0  0  0  0  0  0
    4.4610   -3.1040    2.0510 C   0  0  0  0  0  0  0  0  0  0  0  0
    2.0290   -2.2210    0.9490 C   0  0  0  0  0  0  0  0  0  0  0  0
    0.7930   -1.8020    0.4140 C   0  0  0  0  0  0  0  0  0  0  0  0
   -0.6250   -2.6370    0.9530 Cl  0  0  0  0  0  0  0  0  0  0  0  0
   -1.7620    0.8100    0.7270 C   0  0  0  0  0  0  0  0  0  0  0  0
   -0.7240    1.8410    1.0250 C   0  0  0  0  0  0  0  0  0  0  0  0
   -0.7250    2.9710    0.0040 C   0  0  0  0  0  0  0  0  0  0  0  0
   -2.9260    0.7380    1.3840 N   0  0  0  0  0  0  0  0  0  0  0  0
   -3.3640    1.6230    2.4810 C   0  0  0  0  0  0  0  0  0  0  0  0
   -2.9540    1.1070    3.8200 C   0  0  0  0  0  0  0  0  0  0  0  0
  1  2  1  0
  2  3  1  0
  3  4  2  0
  3 31  1  0
  4  5  1  0
  4  7  1  0
  5  6  1  0
  7  8  1  0
  7 28  2  0
  8  9  1  6
  8 12  1  0
  9 10  1  0
  9 11  2  0
 12 13  2  0
 12 26  1  0
 13 14  1  0
 14 15  1  0
 14 22  2  0
 15 16  1  0
 16 17  1  0
 17 18  2  0
 17 21  1  0
 18 19  1  0
 19 20  2  0
 20 21  1  0
 22 23  1  0
 22 25  1  0
 23 24  1  0
 25 26  2  0
 26 27  1  0
 28 29  1  0
 28 31  1  0
 29 30  1  0
 31 32  1  0
 32 33  1  0
M  CHG  1   6   1
M  END
