
     RDKit          3D

 34 36  0  0  0  0  0  0  0  0999 V2000
    4.9100    1.5850    0.5580 C   0  0  0  0  0  0  0  0  0  0  0  0
    5.2980    0.6680    1.6520 C   0  0  0  0  0  0  0  0  0  0  0  0
    4.9980   -0.6070    1.6140 C   0  0  0  0  0  0  0  0  0  0  0  0
    5.4030   -1.4610    2.7010 C   0  0  0  0  0  0  0  0  0  0  0  0
    5.1770   -2.7230    2.8870 C   0  0  0  0  0  0  0  0  0  0  0  0
    4.2760   -3.7650    1.8260 Cl  0  0  0  0  0  0  0  0  0  0  0  0
    4.2110   -1.1380    0.4950 C   0  0  0  0  0  0  0  0  0  0  0  0
    2.9240   -0.8870    0.1170 C   0  0  0  0  0  0  0  0  0  0  0  0
    1.9110   -0.0800    0.8700 C   0  0  0  0  0  0  0  0  0  0  0  0
    0.6490   -0.0050    0.2080 N   0  0  0  0  0  0  0  0  0  0  0  0
    0.5100    1.0240   -0.7670 C   0  0  2  0  0  0  0  0  0  0  0  0
    1.1030    2.2980   -0.2510 C   0  0  0  0  0  0  0  0  0  0  0  0
    0.6000    2.7610    0.9330 O   0  0  0  0  0  0  0  0  0  0  0  0
   -0.7250    3.0680    0.9870 C   0  0  0  0  0  0  0  0  0  0  0  0
   -0.8360    1.1230   -1.3420 C   0  0  0  0  0  0  0  0  0  0  0  0
   -1.2730    2.2370   -2.0120 C   0  0  0  0  0  0  0  0  0  0  0  0
   -2.5480    2.3320   -2.5470 C   0  0  0  0  0  0  0  0  0  0  0  0
   -2.9370    3.5000   -3.2230 O   0  0  0  0  0  0  0  0  0  0  0  0
   -3.4390    1.2890   -2.4220 C   0  0  0  0  0  0  0  0  0  0  0  0
   -3.0520    0.1550   -1.7610 C   0  0  0  0  0  0  0  0  0  0  0  0
   -3.8980   -0.8910   -1.6140 O   0  0  0  0  0  0  0  0  0  0  0  0
   -4.6720   -1.3570   -0.6340 C   0  0  0  0  0  0  0  0  0  0  0  0
   -4.4040   -2.6600   -0.1680 C   0  0  0  0  0  0  0  0  0  0  0  0
   -5.1330   -3.2470    0.8360 C   0  0  0  0  0  0  0  0  0  0  0  0
   -6.1670   -2.5700    1.4310 C   0  0  0  0  0  0  0  0  0  0  0  0
   -6.4550   -1.2970    0.9980 C   0  0  0  0  0  0  0  0  0  0  0  0
   -5.6970   -0.7050   -0.0360 C   0  0  0  0  0  0  0  0  0  0  0  0
   -6.0490    0.6730   -0.4720 C   0  0  0  0  0  0  0  0  0  0  0  0
   -7.1350    1.1640    0.2750 O   0  0  0  0  0  0  0  0  0  0  0  0
   -1.7670    0.0950   -1.2380 C   0  0  0  0  0  0  0  0  0  0  0  0
    2.6910   -1.5380   -1.0650 C   0  0  0  0  0  0  0  0  0  0  0  0
    3.8350   -2.1610   -1.3690 N   0  0  0  0  0  0  0  0  0  0  0  0
    4.7520   -1.9430   -0.4660 N   0  0  0  0  0  0  0  0  0  0  0  0
    6.1330   -2.4310   -0.5220 C   0  0  0  0  0  0  0  0  0  0  0  0
  1  2  1  0
  2  3  2  3
  3  4  1  0
  3  7  1  0
  4  5  2  3
  5  6  1  0
  7  8  2  0
  7 33  1  0
  8  9  1  0
  8 31  1  0
  9 10  1  0
 10 11  1  0
 11 12  1  1
 11 15  1  0
 12 13  1  0
 13 14  1  0
 15 16  2  0
 15 30  1  0
 16 17  1  0
 17 18  1  0
 17 19  2  0
 19 20  1  0
 20 21  1  0
 20 30  2  0
 21 22  1  0
 22 23  2  0
 22 27  1  0
 23 24  1  0
 24 25  2  0
 25 26  1  0
 26 27  2  0
 27 28  1  0
 28 29  1  0
 31 32  2  0
 32 33  1  0
 33 34  1  0
M  CHG  1  10   1
M  END
