
     RDKit          3D

 34 36  0  0  0  0  0  0  0  0999 V2000
   -4.5370   -1.9040   -1.6710 C   0  0  0  0  0  0  0  0  0  0  0  0
   -4.9280   -0.9730   -0.8220 C   0  0  0  0  0  0  0  0  0  0  0  0
   -4.5930    0.4410   -1.0130 C   0  0  0  0  0  0  0  0  0  0  0  0
   -3.7570    0.7410   -2.1390 N   0  0  0  0  0  0  0  0  0  0  0  0
   -3.9120    2.2220   -2.3300 C   0  0  0  0  0  0  0  0  0  0  0  0
   -3.4680    2.6530   -0.9790 C   0  0  0  0  0  0  0  0  0  0  0  0
   -3.8920    3.7140   -0.2110 C   0  0  0  0  0  0  0  0  0  0  0  0
   -3.3330    3.9180    1.0350 C   0  0  0  0  0  0  0  0  0  0  0  0
   -2.3630    3.0330    1.4500 C   0  0  0  0  0  0  0  0  0  0  0  0
   -1.9390    1.9570    0.6610 C   0  0  0  0  0  0  0  0  0  0  0  0
   -2.4920    1.7600   -0.5640 C   0  0  0  0  0  0  0  0  0  0  0  0
   -2.3740    0.8100   -1.7090 C   0  0  1  0  0  0  0  0  0  0  0  0
   -1.6810   -0.4360   -1.3790 C   0  0  0  0  0  0  0  0  0  0  0  0
   -0.3180   -0.1310   -1.0090 N   0  0  0  0  0  0  0  0  0  0  0  0
    0.5590   -1.1700   -0.6420 C   0  0  0  0  0  0  0  0  0  0  0  0
    0.1710   -2.3660   -0.6320 O   0  0  0  0  0  0  0  0  0  0  0  0
    1.9560   -0.9220   -0.2540 C   0  0  0  0  0  0  0  0  0  0  0  0
    2.4650    0.7540   -0.2090 Cl  0  0  0  0  0  0  0  0  0  0  0  0
    2.7490   -1.9140    0.0810 C   0  0  0  0  0  0  0  0  0  0  0  0
    4.1250   -1.6820    0.4590 C   0  0  0  0  0  0  0  0  0  0  0  0
    4.5490   -2.0990    1.7280 C   0  0  0  0  0  0  0  0  0  0  0  0
    5.8400   -1.9100    2.1370 C   0  0  0  0  0  0  0  0  0  0  0  0
    6.7390   -1.3050    1.3010 C   0  0  0  0  0  0  0  0  0  0  0  0
    8.0300   -1.1160    1.7130 O   0  0  0  0  0  0  0  0  0  0  0  0
    9.0740   -0.5190    1.0100 C   0  0  0  0  0  0  0  0  0  0  0  0
    8.8440    0.9150    0.6270 C   0  0  0  0  0  0  0  0  0  0  0  0
    6.3210   -0.9000    0.0600 C   0  0  0  0  0  0  0  0  0  0  0  0
    5.0080   -1.0830   -0.3820 C   0  0  0  0  0  0  0  0  0  0  0  0
    4.6590   -0.7060   -1.7230 C   0  0  0  0  0  0  0  0  0  0  0  0
    5.5350   -0.1100   -2.4370 O   0  0  0  0  0  0  0  0  0  0  0  0
   -5.7130   -1.3790    0.3300 C   0  0  0  0  0  0  0  0  0  0  0  0
   -6.0630   -2.6990    0.5670 O   0  0  0  0  0  0  0  0  0  0  0  0
   -6.1180   -0.4760    1.1940 C   0  0  0  0  0  0  0  0  0  0  0  0
   -6.8880   -0.7800    2.3460 N   0  0  0  0  0  0  0  0  0  0  0  0
  1  2  2  0
  2  3  1  0
  2 31  1  0
  3  4  1  0
  4  5  1  0
  4 12  1  0
  5  6  1  0
  6  7  2  0
  6 11  1  0
  7  8  1  0
  8  9  2  0
  9 10  1  0
 10 11  2  0
 11 12  1  0
 12 13  1  1
 13 14  1  0
 14 15  1  0
 15 16  2  0
 15 17  1  0
 17 18  1  0
 17 19  2  3
 19 20  1  0
 20 21  2  0
 20 28  1  0
 21 22  1  0
 22 23  2  0
 23 24  1  0
 23 27  1  0
 24 25  1  0
 25 26  1  0
 27 28  2  0
 28 29  1  0
 29 30  2  0
 31 32  1  0
 31 33  2  3
 33 34  1  0
M  CHG  1  34   1
M  END
