
     RDKit          3D

 34 36  0  0  0  0  0  0  0  0999 V2000
    9.2210    0.5510   -2.7740 C   0  0  0  0  0  0  0  0  0  0  0  0
    7.7390    0.1840   -2.9660 C   0  0  0  0  0  0  0  0  0  0  0  0
    7.1720    0.1730   -1.6940 O   0  0  0  0  0  0  0  0  0  0  0  0
    5.8690   -0.0020   -1.3730 C   0  0  0  0  0  0  0  0  0  0  0  0
    4.8700   -0.1530   -2.2950 C   0  0  0  0  0  0  0  0  0  0  0  0
    3.5660   -0.3130   -1.9390 C   0  0  0  0  0  0  0  0  0  0  0  0
    3.1620   -0.3240   -0.5580 C   0  0  0  0  0  0  0  0  0  0  0  0
    1.7660   -0.5340   -0.3710 C   0  0  0  0  0  0  0  0  0  0  0  0
    1.1720   -0.5130    0.9600 N   0  0  0  0  0  0  0  0  0  0  0  0
   -0.2330   -0.5230    0.8620 C   0  0  0  0  0  0  0  0  0  0  0  0
   -0.7800   -0.4520   -0.3070 O   0  0  0  0  0  0  0  0  0  0  0  0
   -1.1760   -0.6260    1.9450 N   0  0  0  0  0  0  0  0  0  0  0  0
   -2.5470   -0.6330    1.4070 C   0  0  0  0  0  0  0  0  0  0  0  0
   -3.2920    0.4380    1.2580 C   0  0  0  0  0  0  0  0  0  0  0  0
   -4.5100    0.3330    0.5670 C   0  0  0  0  0  0  0  0  0  0  0  0
   -5.3500    1.3990    0.4260 C   0  0  0  0  0  0  0  0  0  0  0  0
   -4.9530    2.7570    0.9440 C   0  0  0  0  0  0  0  0  0  0  0  0
   -6.0670    3.1670    1.8060 N   0  0  0  0  0  0  0  0  0  0  0  0
   -6.5450    1.2290   -0.2280 C   0  0  0  0  0  0  0  0  0  0  0  0
   -6.9440    0.0560   -0.7580 C   0  0  0  0  0  0  0  0  0  0  0  0
   -8.1790   -0.1110   -1.5740 C   0  0  0  0  0  0  0  0  0  0  0  0
   -6.0810   -1.0490   -0.6060 C   0  0  0  0  0  0  0  0  0  0  0  0
   -6.4680   -2.3350   -1.1670 C   0  0  0  0  0  0  0  0  0  0  0  0
   -4.8790   -0.9210    0.0600 C   0  0  0  0  0  0  0  0  0  0  0  0
   -4.0790   -2.0370    0.2400 C   0  0  0  0  0  0  0  0  0  0  0  0
   -2.8980   -1.8810    0.9280 C   0  0  0  0  0  0  0  0  0  0  0  0
   -2.0370   -2.9570    1.2230 C   0  0  0  0  0  0  0  0  0  0  0  0
   -1.0150   -3.2020    1.8410 O   0  0  0  0  0  0  0  0  0  0  0  0
    4.1360   -0.1790    0.3520 C   0  0  0  0  0  0  0  0  0  0  0  0
    5.4880   -0.0190   -0.0210 C   0  0  0  0  0  0  0  0  0  0  0  0
    6.5220    0.1340    0.8900 O   0  0  0  0  0  0  0  0  0  0  0  0
    6.2580    0.1220    2.2600 C   0  0  0  0  0  0  0  0  0  0  0  0
    7.4800    0.2680    3.1030 C   0  0  0  0  0  0  0  0  0  0  0  0
    8.6350   -1.0340    2.8630 Cl  0  0  0  0  0  0  0  0  0  0  0  0
  1  2  1  0
  2  3  1  0
  3  4  1  0
  4  5  2  0
  4 30  1  0
  5  6  1  0
  6  7  2  0
  7  8  1  0
  7 29  1  0
  8  9  1  0
  9 10  1  0
 10 11  2  0
 10 12  1  0
 12 13  1  0
 13 14  2  0
 13 26  1  0
 14 15  1  0
 15 16  2  0
 15 24  1  0
 16 17  1  0
 16 19  1  0
 17 18  1  0
 19 20  2  0
 20 21  1  0
 20 22  1  0
 22 23  1  0
 22 24  2  0
 24 25  1  0
 25 26  2  0
 26 27  1  0
 27 28  2  0
 29 30  2  0
 30 31  1  0
 31 32  1  0
 32 33  1  0
 33 34  1  0
M  CHG  1  18   1
M  END
