
     RDKit          3D

 34 36  0  0  0  0  0  0  0  0999 V2000
   11.0950   -0.3060    0.3330 C   0  0  0  0  0  0  0  0  0  0  0  0
   10.2210   -0.9020    1.4370 C   0  0  1  0  0  0  0  0  0  0  0  0
    8.9090   -1.3720    1.0350 N   0  0  0  0  0  0  0  0  0  0  0  0
    7.9350   -0.5110    0.4670 C   0  0  0  0  0  0  0  0  0  0  0  0
    8.2750    0.7100    0.3270 O   0  0  0  0  0  0  0  0  0  0  0  0
    6.5820   -0.9440    0.0410 C   0  0  0  0  0  0  0  0  0  0  0  0
    5.7990    0.2470   -0.4640 C   0  0  0  0  0  0  0  0  0  0  0  0
    4.4220   -0.1700   -0.8920 C   0  0  0  0  0  0  0  0  0  0  0  0
    4.1260   -1.3810   -0.8310 O   0  0  0  0  0  0  0  0  0  0  0  0
    3.4690    0.7550   -1.3510 N   0  0  0  0  0  0  0  0  0  0  0  0
    2.1550    0.5030   -1.7810 C   0  0  0  0  0  0  0  0  0  0  0  0
    1.6660   -0.7340   -2.0800 C   0  0  0  0  0  0  0  0  0  0  0  0
    0.3330   -0.9280   -2.4740 C   0  0  0  0  0  0  0  0  0  0  0  0
   -0.5440    0.1250   -2.5770 C   0  0  0  0  0  0  0  0  0  0  0  0
   -1.8340   -0.1410   -2.9660 O   0  0  0  0  0  0  0  0  0  0  0  0
   -2.8840    0.1670   -2.1280 C   0  0  0  0  0  0  0  0  0  0  0  0
   -3.7470    1.1970   -2.3970 C   0  0  0  0  0  0  0  0  0  0  0  0
   -4.7980    1.4690   -1.5030 C   0  0  0  0  0  0  0  0  0  0  0  0
   -4.9520    0.7050   -0.3750 C   0  0  0  0  0  0  0  0  0  0  0  0
   -6.0490    0.9950    0.5640 C   0  0  0  0  0  0  0  0  0  0  0  0
   -7.2520    0.2240    0.1410 C   0  0  0  0  0  0  0  0  0  0  0  0
   -7.1840   -0.4840   -0.8490 O   0  0  0  0  0  0  0  0  0  0  0  0
   -8.5330    0.3230    0.9320 C   0  0  1  0  0  0  0  0  0  0  0  0
   -9.0040    1.7470    0.9630 C   0  0  0  0  0  0  0  0  0  0  0  0
   -9.5490   -0.5640    0.2390 C   0  0  0  0  0  0  0  0  0  0  0  0
   -8.2270   -0.1700    2.3250 C   0  0  0  0  0  0  0  0  0  0  0  0
   -7.7590   -1.5420    2.3190 N   0  0  0  0  0  0  0  0  0  0  0  0
   -4.0930   -0.3320   -0.0950 C   0  0  0  0  0  0  0  0  0  0  0  0
   -3.0470   -0.6090   -0.9760 C   0  0  0  0  0  0  0  0  0  0  0  0
   -0.0760    1.3710   -2.2830 C   0  0  0  0  0  0  0  0  0  0  0  0
   -1.0910    2.7940   -2.3730 Cl  0  0  0  0  0  0  0  0  0  0  0  0
    1.2400    1.5560   -1.8950 C   0  0  0  0  0  0  0  0  0  0  0  0
   10.8380   -1.2910    2.7150 C   0  0  0  0  0  0  0  0  0  0  0  0
   10.1890    0.0210    2.6900 C   0  0  0  0  0  0  0  0  0  0  0  0
  2  1  1  6
  2  3  1  0
  2 33  1  0
  2 34  1  0
  3  4  1  0
  4  5  2  0
  4  6  1  0
  6  7  1  0
  7  8  1  0
  8  9  2  0
  8 10  1  0
 10 11  1  0
 11 12  2  0
 11 32  1  0
 12 13  1  0
 13 14  2  0
 14 15  1  0
 14 30  1  0
 15 16  1  0
 16 17  2  0
 16 29  1  0
 17 18  1  0
 18 19  2  0
 19 20  1  0
 19 28  1  0
 20 21  1  0
 21 22  2  0
 21 23  1  0
 23 24  1  1
 23 25  1  0
 23 26  1  0
 26 27  1  0
 28 29  2  0
 30 31  1  0
 30 32  2  0
 33 34  1  0
M  CHG  1  27   1
M  END
