
     RDKit          3D

 34 35  0  0  0  0  0  0  0  0999 V2000
    6.0660   -2.2160    1.7050 C   0  0  0  0  0  0  0  0  0  0  0  0
    6.0010   -0.9780    1.1600 C   0  0  0  0  0  0  0  0  0  0  0  0
    7.1900   -0.5560    0.3750 C   0  0  0  0  0  0  0  0  0  0  0  0
    7.4640    0.5280   -0.0920 C   0  0  0  0  0  0  0  0  0  0  0  0
    8.6110    1.3890   -1.0330 Cl  0  0  0  0  0  0  0  0  0  0  0  0
    6.6770    1.6410    0.7040 C   0  0  0  0  0  0  0  0  0  0  0  0
    6.5680    2.8650    0.4870 C   0  0  0  0  0  0  0  0  0  0  0  0
    7.0890    3.7420   -0.5370 C   0  0  0  0  0  0  0  0  0  0  0  0
    6.7790    4.9460   -0.5240 O   0  0  0  0  0  0  0  0  0  0  0  0
    4.7460   -0.2810    1.2180 C   0  0  0  0  0  0  0  0  0  0  0  0
    3.6910   -0.7050    2.1700 C   0  0  0  0  0  0  0  0  0  0  0  0
    2.9990   -1.9260    2.0740 N   0  0  0  0  0  0  0  0  0  0  0  0
    1.6620   -1.5690    1.5450 C   0  0  0  0  0  0  0  0  0  0  0  0
    1.3200   -2.0170    0.2940 C   0  0  0  0  0  0  0  0  0  0  0  0
    0.1670   -1.5610   -0.3120 C   0  0  0  0  0  0  0  0  0  0  0  0
   -0.6220   -0.6570    0.3590 C   0  0  0  0  0  0  0  0  0  0  0  0
   -1.8160   -0.1400   -0.2240 N   0  0  0  0  0  0  0  0  0  0  0  0
   -2.8750   -0.9580   -0.6150 C   0  0  0  0  0  0  0  0  0  0  0  0
   -2.7680   -2.2400   -0.4330 O   0  0  0  0  0  0  0  0  0  0  0  0
   -4.0910   -0.4740   -1.2110 C   0  0  0  0  0  0  0  0  0  0  0  0
   -5.1740   -1.3190   -1.3840 C   0  0  0  0  0  0  0  0  0  0  0  0
   -6.4090   -0.9560   -1.8270 C   0  0  0  0  0  0  0  0  0  0  0  0
   -7.4220   -1.9800   -1.9450 C   0  0  0  0  0  0  0  0  0  0  0  0
   -8.7780   -1.6340   -2.0150 N   0  0  0  0  0  0  0  0  0  0  0  0
   -7.0700   -3.1830   -1.9720 O   0  0  0  0  0  0  0  0  0  0  0  0
   -6.6350    0.3930   -2.1440 C   0  0  0  0  0  0  0  0  0  0  0  0
   -7.9930    0.8560   -2.5740 C   0  0  0  0  0  0  0  0  0  0  0  0
   -5.5970    1.2380   -1.9850 C   0  0  0  0  0  0  0  0  0  0  0  0
   -4.3610    0.8420   -1.5370 C   0  0  0  0  0  0  0  0  0  0  0  0
   -3.4050    1.7980   -1.4280 O   0  0  0  0  0  0  0  0  0  0  0  0
   -3.5240    3.1490   -1.7320 C   0  0  0  0  0  0  0  0  0  0  0  0
   -0.2520   -0.2320    1.6180 C   0  0  0  0  0  0  0  0  0  0  0  0
    0.8970   -0.6730    2.2550 C   0  0  0  0  0  0  0  0  0  0  0  0
    1.1650   -0.2260    3.6510 C   0  0  0  0  0  0  0  0  0  0  0  0
  1  2  2  0
  2  3  1  0
  2 10  1  0
  3  4  2  3
  4  5  1  0
  4  6  1  0
  6  7  2  3
  7  8  1  0
  8  9  2  0
 10 11  1  0
 11 12  1  0
 12 13  1  0
 13 14  2  0
 13 33  1  0
 14 15  1  0
 15 16  2  0
 16 17  1  0
 16 32  1  0
 17 18  1  0
 18 19  2  0
 18 20  1  0
 20 21  2  0
 20 29  1  0
 21 22  1  0
 22 23  1  0
 22 26  2  0
 23 24  1  0
 23 25  2  0
 26 27  1  0
 26 28  1  0
 28 29  2  0
 29 30  1  0
 30 31  1  0
 32 33  2  0
 33 34  1  0
M  CHG  1  12   1
M  END
