
     RDKit          3D

 39 41  0  0  0  0  0  0  0  0999 V2000
   -7.0220    2.1650    2.9170 C   0  0  0  0  0  0  0  0  0  0  0  0
   -5.6200    2.6180    3.2880 C   0  0  0  0  0  0  0  0  0  0  0  0
   -4.5480    1.8410    2.6460 C   0  0  0  0  0  0  0  0  0  0  0  0
   -3.5680    0.6380    3.5710 S   0  0  0  0  0  0  0  0  0  0  0  0
   -2.5690    0.0940    2.2040 C   0  0  0  0  0  0  0  0  0  0  0  0
   -1.5810   -0.8910    2.3690 N   0  0  0  0  0  0  0  0  0  0  0  0
   -0.7420   -1.3640    1.3570 C   0  0  0  0  0  0  0  0  0  0  0  0
   -0.7990   -0.9370    0.1830 O   0  0  0  0  0  0  0  0  0  0  0  0
    0.2570   -2.3910    1.6180 C   0  0  0  0  0  0  0  0  0  0  0  0
    0.3740   -2.8220    2.8000 O   0  0  0  0  0  0  0  0  0  0  0  0
    1.0930   -2.9200    0.6230 N   0  0  0  0  0  0  0  0  0  0  0  0
    0.9630   -2.5140   -0.7550 C   0  0  0  0  0  0  0  0  0  0  0  0
    1.7160   -1.2630   -1.0620 C   0  0  0  0  0  0  0  0  0  0  0  0
    2.3390   -0.7160   -0.1400 O   0  0  0  0  0  0  0  0  0  0  0  0
    1.7300   -0.7040   -2.3590 N   0  0  0  0  0  0  0  0  0  0  0  0
    2.4640    0.5000   -2.6270 C   0  0  0  0  0  0  0  0  0  0  0  0
    3.9330    0.3280   -2.3660 C   0  0  1  0  0  0  0  0  0  0  0  0
    4.4690   -0.6840   -3.1750 O   0  0  0  0  0  0  0  0  0  0  0  0
    4.7090    1.5930   -2.6850 C   0  0  0  0  0  0  0  0  0  0  0  0
    4.5490    1.9000   -4.0410 O   0  0  0  0  0  0  0  0  0  0  0  0
    5.2440    3.0570   -4.3780 C   0  0  0  0  0  0  0  0  0  0  0  0
    2.1050   -3.9280    0.9920 C   0  0  0  0  0  0  0  0  0  0  0  0
    3.4200   -3.3350    1.3700 C   0  0  2  0  0  0  0  0  0  0  0  0
    4.3930   -4.4340    1.7940 C   0  0  0  0  0  0  0  0  0  0  0  0
    4.7970   -4.0150    3.1840 C   0  0  0  0  0  0  0  0  0  0  0  0
    3.5960   -3.1780    3.6000 C   0  0  0  0  0  0  0  0  0  0  0  0
    3.3460   -2.4670    2.4390 O   0  0  0  0  0  0  0  0  0  0  0  0
   -3.0470    0.8510    1.1730 C   0  0  0  0  0  0  0  0  0  0  0  0
   -2.5450    0.6670   -0.1010 N   0  0  0  0  0  0  0  0  0  0  0  0
   -2.9870    1.3220   -1.1640 C   0  0  0  0  0  0  0  0  0  0  0  0
   -2.4020    1.0710   -2.5180 C   0  0  0  0  0  0  0  0  0  0  0  0
   -3.9950    2.2450   -1.0440 C   0  0  0  0  0  0  0  0  0  0  0  0
   -4.5140    2.9440   -2.1890 C   0  0  0  0  0  0  0  0  0  0  0  0
   -4.5230    2.4610    0.2270 C   0  0  0  0  0  0  0  0  0  0  0  0
   -5.5630    3.4470    0.3670 C   0  0  2  0  0  0  0  0  0  0  0  0
   -6.7870    3.1780   -0.1860 F   0  0  0  0  0  0  0  0  0  0  0  0
   -5.1400    4.4590   -0.6650 F   0  0  0  0  0  0  0  0  0  0  0  0
   -5.5130    4.3630    1.3710 F   0  0  0  0  0  0  0  0  0  0  0  0
   -4.0370    1.7420    1.3510 C   0  0  0  0  0  0  0  0  0  0  0  0
  1  2  1  0
  2  3  1  0
  3  4  1  0
  3 39  2  0
  4  5  1  0
  5  6  1  0
  5 28  2  0
  6  7  1  0
  7  8  2  0
  7  9  1  0
  9 10  2  0
  9 11  1  0
 11 12  1  0
 11 22  1  0
 12 13  1  0
 13 14  2  0
 13 15  1  0
 15 16  1  0
 16 17  1  0
 17 18  1  6
 17 19  1  0
 19 20  1  0
 20 21  1  0
 23 22  1  1
 23 24  1  0
 23 27  1  0
 24 25  1  0
 25 26  1  0
 26 27  1  0
 28 29  1  0
 28 39  1  0
 29 30  2  0
 30 31  1  0
 30 32  1  0
 32 33  1  0
 32 34  2  0
 34 35  1  0
 34 39  1  0
 35 36  1  6
 35 37  1  0
 35 38  1  0
M  END
