
     RDKit          3D

 39 41  0  0  0  0  0  0  0  0999 V2000
   -4.6480   -4.2900   -2.5890 C   0  0  0  0  0  0  0  0  0  0  0  0
   -3.8090   -4.8410   -1.4660 C   0  0  0  0  0  0  0  0  0  0  0  0
   -4.1430   -4.0890   -0.2130 C   0  0  0  0  0  0  0  0  0  0  0  0
   -4.8690   -4.4790    0.7820 O   0  0  0  0  0  0  0  0  0  0  0  0
   -4.9640   -3.5890    1.7130 C   0  0  0  0  0  0  0  0  0  0  0  0
   -5.6560   -3.6980    2.8880 F   0  0  0  0  0  0  0  0  0  0  0  0
   -4.2340   -2.4920    1.3110 C   0  0  0  0  0  0  0  0  0  0  0  0
   -3.7040   -2.7960    0.0830 C   0  0  0  0  0  0  0  0  0  0  0  0
   -2.8480   -1.9560   -0.8000 C   0  0  0  0  0  0  0  0  0  0  0  0
   -2.5160   -0.6790   -0.2530 N   0  0  0  0  0  0  0  0  0  0  0  0
   -3.3620    0.4320   -0.4770 C   0  0  0  0  0  0  0  0  0  0  0  0
   -4.4420    0.3270   -1.1210 O   0  0  0  0  0  0  0  0  0  0  0  0
   -3.0200    1.7970    0.0380 C   0  0  0  0  0  0  0  0  0  0  0  0
   -4.0230    2.7660   -0.3120 N   0  0  0  0  0  0  0  0  0  0  0  0
   -3.7000    4.2960    0.2200 S   0  0  1  0  0  0  0  0  0  0  0  0
   -3.1620    5.2670   -1.0650 C   0  0  0  0  0  0  0  0  0  0  0  0
   -5.0950    4.9860    0.8650 C   0  0  0  0  0  0  0  0  0  0  0  0
   -1.3160   -0.5200    0.4860 C   0  0  0  0  0  0  0  0  0  0  0  0
   -1.3630   -0.2800    1.8360 C   0  0  0  0  0  0  0  0  0  0  0  0
   -0.2310   -0.1210    2.5930 C   0  0  0  0  0  0  0  0  0  0  0  0
   -0.2870    0.1180    3.9380 F   0  0  0  0  0  0  0  0  0  0  0  0
    1.0040   -0.2100    1.9410 C   0  0  0  0  0  0  0  0  0  0  0  0
    1.1120   -0.4450    0.6040 C   0  0  0  0  0  0  0  0  0  0  0  0
    2.3520   -0.5320   -0.0590 N   0  0  0  0  0  0  0  0  0  0  0  0
    3.6150   -0.4000    0.5520 C   0  0  0  0  0  0  0  0  0  0  0  0
    3.7800   -0.1930    1.7700 O   0  0  0  0  0  0  0  0  0  0  0  0
    4.8310   -0.5030   -0.2270 N   0  0  0  0  0  0  0  0  0  0  0  0
    6.1220   -0.3640    0.4380 C   0  0  1  0  0  0  0  0  0  0  0  0
    6.9890   -1.5250    0.1150 C   0  0  0  0  0  0  0  0  0  0  0  0
    6.5070   -2.6940   -0.0580 O   0  0  0  0  0  0  0  0  0  0  0  0
    8.3620   -1.4040   -0.0150 O   0  0  0  0  0  0  0  0  0  0  0  0
    8.9450   -0.1740    0.3930 C   0  0  0  0  0  0  0  0  0  0  0  0
    8.0950    0.9030   -0.1860 C   0  0  0  0  0  0  0  0  0  0  0  0
    6.7770    0.8440   -0.1810 C   0  0  0  0  0  0  0  0  0  0  0  0
    6.0210    1.8660   -0.7300 O   0  0  0  0  0  0  0  0  0  0  0  0
    6.1270    2.1960   -2.0840 C   0  0  0  0  0  0  0  0  0  0  0  0
    7.4040    2.5770   -2.4030 F   0  0  0  0  0  0  0  0  0  0  0  0
   -0.0770   -0.5970   -0.1020 C   0  0  0  0  0  0  0  0  0  0  0  0
    0.0080   -0.8450   -1.5830 C   0  0  0  0  0  0  0  0  0  0  0  0
  1  2  1  0
  2  3  1  0
  3  4  1  0
  3  8  2  0
  4  5  1  0
  5  6  1  0
  5  7  2  0
  7  8  1  0
  8  9  1  0
  9 10  1  0
 10 11  1  0
 10 18  1  0
 11 12  2  0
 11 13  1  0
 13 14  1  0
 14 15  1  0
 15 16  1  6
 15 17  1  0
 18 19  2  0
 18 38  1  0
 19 20  1  0
 20 21  1  0
 20 22  2  0
 22 23  1  0
 23 24  1  0
 23 38  2  0
 24 25  1  0
 25 26  2  0
 25 27  1  0
 28 27  1  6
 28 29  1  0
 28 34  1  0
 29 30  2  0
 29 31  1  0
 31 32  1  0
 32 33  1  0
 33 34  2  0
 34 35  1  0
 35 36  1  0
 36 37  1  0
 38 39  1  0
M  END
