
     RDKit          3D

 39 40  0  0  0  0  0  0  0  0999 V2000
    7.0820   -0.6740   -1.1110 C   0  0  0  0  0  0  0  0  0  0  0  0
    6.3570   -0.0590   -0.2280 C   0  0  0  0  0  0  0  0  0  0  0  0
    6.6060    1.3010    0.1220 O   0  0  0  0  0  0  0  0  0  0  0  0
    6.5630    1.6450    1.4970 C   0  0  1  0  0  0  0  0  0  0  0  0
    6.4020    3.1520    1.5400 C   0  0  0  0  0  0  0  0  0  0  0  0
    5.4410    1.0040    2.2660 C   0  0  0  0  0  0  0  0  0  0  0  0
    4.5780    0.2080    1.4080 N   0  0  0  0  0  0  0  0  0  0  0  0
    3.2050    0.2930    1.4950 C   0  0  0  0  0  0  0  0  0  0  0  0
    2.7760    1.0240    2.4860 O   0  0  0  0  0  0  0  0  0  0  0  0
    2.1530   -0.2770    0.6700 C   0  0  0  0  0  0  0  0  0  0  0  0
    0.8050   -0.3290    1.4120 C   0  0  0  0  0  0  0  0  0  0  0  0
   -0.1460   -0.9110    0.5080 N   0  0  0  0  0  0  0  0  0  0  0  0
   -0.5710   -0.4170   -0.7300 C   0  0  0  0  0  0  0  0  0  0  0  0
   -0.1060    0.6620   -1.1450 O   0  0  0  0  0  0  0  0  0  0  0  0
   -1.5710   -1.1350   -1.5890 C   0  0  1  0  0  0  0  0  0  0  0  0
   -2.7910   -1.5110   -0.8330 C   0  0  0  0  0  0  0  0  0  0  0  0
   -4.0200   -0.7400   -1.0450 C   0  0  0  0  0  0  0  0  0  0  0  0
   -5.2260   -1.1820   -0.3670 C   0  0  0  0  0  0  0  0  0  0  0  0
   -6.2920   -0.4930   -0.5660 O   0  0  0  0  0  0  0  0  0  0  0  0
   -5.3900   -2.3040    0.5100 C   0  0  0  0  0  0  0  0  0  0  0  0
   -6.5990   -2.5530    1.0410 C   0  0  0  0  0  0  0  0  0  0  0  0
   -7.6390   -1.7120    0.7160 O   0  0  0  0  0  0  0  0  0  0  0  0
   -4.0690   -3.3910    0.9390 S   0  0  0  0  0  0  0  0  0  0  0  0
   -4.5880   -4.7260    2.0290 C   0  0  2  0  0  0  0  0  0  0  0  0
   -5.4870   -5.5680    1.3580 F   0  0  0  0  0  0  0  0  0  0  0  0
   -5.2040   -4.2600    3.1630 F   0  0  0  0  0  0  0  0  0  0  0  0
   -3.4990   -5.5000    2.3840 F   0  0  0  0  0  0  0  0  0  0  0  0
   -4.0330    0.3220   -1.8240 C   0  0  0  0  0  0  0  0  0  0  0  0
   -5.2850    1.1330   -2.0590 C   0  0  0  0  0  0  0  0  0  0  0  0
   -2.8390    0.7320   -2.4670 N   0  0  0  0  0  0  0  0  0  0  0  0
   -2.6580    2.1240   -2.7850 C   0  0  0  0  0  0  0  0  0  0  0  0
   -2.5260    2.9400   -1.5380 C   0  0  0  0  0  0  0  0  0  0  0  0
   -2.5790    2.3800   -0.4140 O   0  0  0  0  0  0  0  0  0  0  0  0
   -2.3410    4.3420   -1.6320 N   0  0  0  0  0  0  0  0  0  0  0  0
   -2.2190    5.0720   -0.3740 C   0  0  0  0  0  0  0  0  0  0  0  0
   -1.8380   -0.2760   -2.7940 C   0  0  0  0  0  0  0  0  0  0  0  0
    5.2380   -0.6740    0.4810 C   0  0  0  0  0  0  0  0  0  0  0  0
    4.8550   -1.8830    0.3340 C   0  0  0  0  0  0  0  0  0  0  0  0
    5.3170   -2.9920   -0.4980 C   0  0  0  0  0  0  0  0  0  0  0  0
  1  2  2  0
  2  3  1  0
  2 37  1  0
  3  4  1  0
  4  5  1  6
  4  6  1  0
  6  7  1  0
  7  8  1  0
  7 37  1  0
  8  9  2  0
  8 10  1  0
 10 11  1  0
 11 12  1  0
 12 13  1  0
 13 14  2  0
 15 13  1  1
 15 16  1  0
 15 36  1  0
 16 17  1  0
 17 18  1  0
 17 28  2  0
 18 19  2  0
 18 20  1  0
 20 21  2  3
 20 23  1  0
 21 22  1  0
 23 24  1  0
 24 25  1  6
 24 26  1  0
 24 27  1  0
 28 29  1  0
 28 30  1  0
 30 31  1  0
 30 36  1  0
 31 32  1  0
 32 33  2  0
 32 34  1  0
 34 35  1  0
 37 38  2  3
 38 39  1  0
M  END
