
     RDKit          3D

 39 41  0  0  0  0  0  0  0  0999 V2000
    8.5910   -2.3460    0.3080 C   0  0  0  0  0  0  0  0  0  0  0  0
    7.3790   -2.8780   -0.4310 C   0  0  0  0  0  0  0  0  0  0  0  0
    6.2380   -2.2480    0.1030 O   0  0  0  0  0  0  0  0  0  0  0  0
    5.9280   -2.3880    1.4380 C   0  0  0  0  0  0  0  0  0  0  0  0
    6.7070   -3.0980    2.1430 O   0  0  0  0  0  0  0  0  0  0  0  0
    4.7750   -1.7920    2.1260 C   0  0  0  0  0  0  0  0  0  0  0  0
    4.0090   -0.9940    1.2910 O   0  0  0  0  0  0  0  0  0  0  0  0
    4.3750    0.1450    0.6230 C   0  0  0  0  0  0  0  0  0  0  0  0
    5.6550    0.6160    0.7680 C   0  0  0  0  0  0  0  0  0  0  0  0
    6.0320    1.7520    0.1080 C   0  0  0  0  0  0  0  0  0  0  0  0
    7.6950    2.4130    0.2630 S   0  0  0  0  0  0  0  0  0  0  0  0
    7.8020    3.5760    1.6320 C   0  0  0  0  0  0  0  0  0  0  0  0
    5.1240    2.3980   -0.6870 C   0  0  0  0  0  0  0  0  0  0  0  0
    5.5200    3.5200   -1.3310 F   0  0  0  0  0  0  0  0  0  0  0  0
    3.8160    1.8950   -0.8200 C   0  0  0  0  0  0  0  0  0  0  0  0
    3.4070    0.7690   -0.1790 C   0  0  0  0  0  0  0  0  0  0  0  0
    2.1180    0.2020   -0.2590 N   0  0  0  0  0  0  0  0  0  0  0  0
    1.0670    0.7300   -1.0270 C   0  0  0  0  0  0  0  0  0  0  0  0
    1.1900    1.7570   -1.7100 O   0  0  0  0  0  0  0  0  0  0  0  0
   -0.2430   -0.0250   -0.9820 C   0  0  0  0  0  0  0  0  0  0  0  0
   -1.2140    0.6890   -1.8570 C   0  0  1  0  0  0  0  0  0  0  0  0
   -2.5940    0.0770   -1.9390 C   0  0  0  0  0  0  0  0  0  0  0  0
   -3.0580    1.4340   -2.0210 N   0  0  0  0  0  0  0  0  0  0  0  0
   -4.1620    2.1430   -2.5950 C   0  0  0  0  0  0  0  0  0  0  0  0
   -5.2710    2.2310   -1.6610 N   0  0  0  0  0  0  0  0  0  0  0  0
   -5.9100    1.0800   -1.1420 C   0  0  0  0  0  0  0  0  0  0  0  0
   -5.5090   -0.0500   -1.4970 O   0  0  0  0  0  0  0  0  0  0  0  0
   -7.0050    1.1680   -0.2210 N   0  0  0  0  0  0  0  0  0  0  0  0
   -7.5840   -0.0240    0.2490 C   0  0  0  0  0  0  0  0  0  0  0  0
   -7.6060   -0.3170    1.5340 C   0  0  0  0  0  0  0  0  0  0  0  0
   -8.1960   -1.5380    2.0470 C   0  0  0  0  0  0  0  0  0  0  0  0
   -8.1770   -1.7520    3.3780 C   0  0  0  0  0  0  0  0  0  0  0  0
   -7.6320   -0.8750    4.2240 F   0  0  0  0  0  0  0  0  0  0  0  0
   -8.7260   -2.8900    3.8660 F   0  0  0  0  0  0  0  0  0  0  0  0
   -8.8010   -2.5180    1.1490 C   0  0  0  0  0  0  0  0  0  0  0  0
   -8.7310   -2.1100   -0.2530 C   0  0  0  0  0  0  0  0  0  0  0  0
   -8.1860   -0.9940   -0.6460 C   0  0  0  0  0  0  0  0  0  0  0  0
   -1.9340    1.8330   -1.2660 C   0  0  0  0  0  0  0  0  0  0  0  0
   -1.7610    2.7810   -0.4690 O   0  0  0  0  0  0  0  0  0  0  0  0
  1  2  1  0
  2  3  1  0
  3  4  1  0
  4  5  2  0
  4  6  1  0
  6  7  1  0
  7  8  1  0
  8  9  2  0
  8 16  1  0
  9 10  1  0
 10 11  1  0
 10 13  2  0
 11 12  1  0
 13 14  1  0
 13 15  1  0
 15 16  2  0
 16 17  1  0
 17 18  1  0
 18 19  2  0
 18 20  1  0
 21 20  1  1
 21 22  1  0
 21 38  1  0
 22 23  1  0
 23 24  1  0
 23 38  1  0
 24 25  1  0
 25 26  1  0
 26 27  2  0
 26 28  1  0
 28 29  1  0
 29 30  2  0
 29 37  1  0
 30 31  1  0
 31 32  2  3
 31 35  1  0
 32 33  1  0
 32 34  1  0
 35 36  1  0
 36 37  2  0
 38 39  2  0
M  END
