
     RDKit          3D

 39 40  0  0  0  0  0  0  0  0999 V2000
   -7.5180    2.5910   -1.3120 C   0  0  0  0  0  0  0  0  0  0  0  0
   -6.7220    1.5070   -0.7890 N   0  0  0  0  0  0  0  0  0  0  0  0
   -5.8710    0.7760   -1.6440 C   0  0  0  0  0  0  0  0  0  0  0  0
   -5.9260    1.1970   -2.8840 O   0  0  0  0  0  0  0  0  0  0  0  0
   -4.9950   -0.3250   -1.3460 C   0  0  2  0  0  0  0  0  0  0  0  0
   -5.8610   -1.6250   -1.3800 C   0  0  0  0  0  0  0  0  0  0  0  0
   -6.4210   -1.6920   -2.7840 C   0  0  0  0  0  0  0  0  0  0  0  0
   -7.2210   -2.8240   -2.9590 O   0  0  0  0  0  0  0  0  0  0  0  0
   -4.2190   -0.3020   -0.1630 N   0  0  0  0  0  0  0  0  0  0  0  0
   -4.6570   -0.1490    1.1890 C   0  0  0  0  0  0  0  0  0  0  0  0
   -4.5540    1.2400    1.7090 C   0  0  0  0  0  0  0  0  0  0  0  0
   -4.0910    2.2500    0.9900 C   0  0  0  0  0  0  0  0  0  0  0  0
   -3.9940    3.5040    1.4450 F   0  0  0  0  0  0  0  0  0  0  0  0
   -4.9610    1.4900    3.0010 O   0  0  0  0  0  0  0  0  0  0  0  0
   -5.8510    0.6830    3.7390 C   0  0  0  0  0  0  0  0  0  0  0  0
   -2.7800   -0.4980   -0.3200 C   0  0  0  0  0  0  0  0  0  0  0  0
   -2.4090   -0.6350   -1.5400 O   0  0  0  0  0  0  0  0  0  0  0  0
   -1.8110   -0.5400    0.7590 C   0  0  1  0  0  0  0  0  0  0  0  0
   -1.8590   -1.7930    1.6210 C   0  0  0  0  0  0  0  0  0  0  0  0
   -0.4700   -0.5830    0.1120 N   0  0  0  0  0  0  0  0  0  0  0  0
   -0.0770   -1.7960   -0.4680 C   0  0  0  0  0  0  0  0  0  0  0  0
   -0.8640   -2.8220   -0.4440 O   0  0  0  0  0  0  0  0  0  0  0  0
    1.1960   -1.9970   -1.1170 C   0  0  0  0  0  0  0  0  0  0  0  0
    2.1770   -1.1970   -1.2960 C   0  0  0  0  0  0  0  0  0  0  0  0
    3.4580   -1.4420   -1.9640 C   0  0  0  0  0  0  0  0  0  0  0  0
    4.5750   -0.8360   -1.1470 C   0  0  0  0  0  0  0  0  0  0  0  0
    4.1710    0.3160   -0.4160 C   0  0  0  0  0  0  0  0  0  0  0  0
    4.7210    1.1660    0.3720 C   0  0  0  0  0  0  0  0  0  0  0  0
    5.9910    1.4140    0.9290 C   0  0  0  0  0  0  0  0  0  0  0  0
    5.9880    2.4800    1.7400 O   0  0  0  0  0  0  0  0  0  0  0  0
    7.2750    0.8510    0.8710 N   0  0  0  0  0  0  0  0  0  0  0  0
    8.2770    1.5030    1.7330 C   0  0  0  0  0  0  0  0  0  0  0  0
    9.6640    1.1190    1.5040 C   0  0  0  0  0  0  0  0  0  0  0  0
    9.8440    0.6950    0.0480 C   0  0  0  0  0  0  0  0  0  0  0  0
    9.0700   -0.5770   -0.0960 C   0  0  1  0  0  0  0  0  0  0  0  0
    9.2890   -1.1690   -1.3420 F   0  0  0  0  0  0  0  0  0  0  0  0
    9.3850   -1.4840    0.8910 F   0  0  0  0  0  0  0  0  0  0  0  0
    7.5850   -0.2520    0.0330 C   0  0  0  0  0  0  0  0  0  0  0  0
    2.3620    0.4810   -0.8050 S   0  0  0  0  0  0  0  0  0  0  0  0
  1  2  1  0
  2  3  1  0
  3  4  2  0
  3  5  1  0
  5  6  1  1
  5  9  1  0
  6  7  1  0
  7  8  1  0
  9 10  1  0
  9 16  1  0
 10 11  1  0
 11 12  2  3
 11 14  1  0
 12 13  1  0
 14 15  1  0
 16 17  2  0
 16 18  1  0
 18 19  1  6
 18 20  1  0
 20 21  1  0
 21 22  2  0
 21 23  1  0
 23 24  2  3
 24 25  1  0
 24 39  1  0
 25 26  1  0
 26 27  1  0
 27 28  2  3
 27 39  1  0
 28 29  1  0
 29 30  2  0
 29 31  1  0
 31 32  1  0
 31 38  1  0
 32 33  1  0
 33 34  1  0
 34 35  1  0
 35 36  1  6
 35 37  1  0
 35 38  1  0
M  END
