
     RDKit          3D

 39 41  0  0  0  0  0  0  0  0999 V2000
   -8.3550    1.6770    0.3880 C   0  0  0  0  0  0  0  0  0  0  0  0
   -7.7490    0.7150   -0.2790 C   0  0  0  0  0  0  0  0  0  0  0  0
   -8.0370    0.2830   -1.5690 O   0  0  0  0  0  0  0  0  0  0  0  0
   -7.1490   -0.7540   -1.8710 C   0  0  0  0  0  0  0  0  0  0  0  0
   -6.2990   -0.9290   -0.6850 C   0  0  0  0  0  0  0  0  0  0  0  0
   -5.3060   -1.8400   -0.5760 F   0  0  0  0  0  0  0  0  0  0  0  0
   -6.6320   -0.0730    0.2750 C   0  0  0  0  0  0  0  0  0  0  0  0
   -5.8950    0.0740    1.8430 S   0  0  2  0  0  0  0  0  0  0  0  0
   -5.4270   -1.2740    2.3560 O   0  0  0  0  0  0  0  0  0  0  0  0
   -6.8910    0.5810    2.8650 O   0  0  0  0  0  0  0  0  0  0  0  0
   -4.6060    1.1990    1.7590 N   0  0  0  0  0  0  0  0  0  0  0  0
   -3.5790    0.7660    0.8430 C   0  0  0  0  0  0  0  0  0  0  0  0
   -2.4420    1.7460    0.7630 C   0  0  1  0  0  0  0  0  0  0  0  0
   -2.8440    3.1030    0.3070 C   0  0  0  0  0  0  0  0  0  0  0  0
   -1.6870    1.7390    2.0010 N   0  0  0  0  0  0  0  0  0  0  0  0
   -1.0030    0.4700    1.9850 C   0  0  0  0  0  0  0  0  0  0  0  0
   -0.6170   -0.1870    2.9940 O   0  0  0  0  0  0  0  0  0  0  0  0
   -0.8420    0.0910    0.6190 N   0  0  0  0  0  0  0  0  0  0  0  0
   -0.2100   -1.1090    0.1240 C   0  0  0  0  0  0  0  0  0  0  0  0
   -0.5060   -2.3220    0.6870 C   0  0  0  0  0  0  0  0  0  0  0  0
    0.0990   -3.4570    0.2220 C   0  0  0  0  0  0  0  0  0  0  0  0
    1.0100   -3.3710   -0.8200 C   0  0  0  0  0  0  0  0  0  0  0  0
    1.3170   -2.1380   -1.3990 C   0  0  0  0  0  0  0  0  0  0  0  0
    2.3060   -2.0650   -2.5240 C   0  0  0  0  0  0  0  0  0  0  0  0
    3.6490   -2.0030   -1.9910 N   0  0  0  0  0  0  0  0  0  0  0  0
    4.1830   -0.8170   -1.4720 C   0  0  0  0  0  0  0  0  0  0  0  0
    3.5800    0.2640   -1.4240 O   0  0  0  0  0  0  0  0  0  0  0  0
    5.5790   -0.8490   -0.9320 C   0  0  0  0  0  0  0  0  0  0  0  0
    6.0630    0.2560   -0.4630 C   0  0  0  0  0  0  0  0  0  0  0  0
    7.3230    0.5390    0.1020 C   0  0  0  0  0  0  0  0  0  0  0  0
    8.4560   -0.2650    0.3420 C   0  0  0  0  0  0  0  0  0  0  0  0
    8.7670   -1.4800    0.1550 C   0  0  0  0  0  0  0  0  0  0  0  0
    8.1130   -2.5180   -0.3640 F   0  0  0  0  0  0  0  0  0  0  0  0
   10.0740   -1.8650    0.5690 F   0  0  0  0  0  0  0  0  0  0  0  0
    7.4850    1.8540    0.4990 C   0  0  0  0  0  0  0  0  0  0  0  0
    6.4000    2.8020    0.3150 C   0  0  0  0  0  0  0  0  0  0  0  0
    0.7030   -1.0200   -0.9210 C   0  0  0  0  0  0  0  0  0  0  0  0
   -1.4240    1.1260   -0.1620 C   0  0  0  0  0  0  0  0  0  0  0  0
   -1.1370    1.4240   -1.3360 O   0  0  0  0  0  0  0  0  0  0  0  0
  1  2  2  0
  2  3  1  0
  2  7  1  0
  3  4  1  0
  4  5  1  0
  5  6  1  0
  5  7  2  0
  7  8  1  0
  8  9  2  0
  8 10  2  0
  8 11  1  6
 11 12  1  0
 12 13  1  0
 13 14  1  6
 13 15  1  0
 13 38  1  0
 15 16  1  0
 16 17  2  0
 16 18  1  0
 18 19  1  0
 18 38  1  0
 19 20  2  0
 19 37  1  0
 20 21  1  0
 21 22  2  0
 22 23  1  0
 23 24  1  0
 23 37  2  0
 24 25  1  0
 25 26  1  0
 26 27  2  0
 26 28  1  0
 28 29  2  3
 29 30  1  0
 30 31  1  0
 30 35  2  3
 31 32  2  3
 32 33  1  0
 32 34  1  0
 35 36  1  0
 38 39  2  0
M  END
