
     RDKit          3D

 32 33  0  0  0  0  0  0  0  0999 V2000
   -5.2490   -4.1270   -0.4260 C   0  0  0  0  0  0  0  0  0  0  0  0
   -5.2250   -2.8170   -0.6510 C   0  0  0  0  0  0  0  0  0  0  0  0
   -4.3190   -1.9660    0.0690 C   0  0  0  0  0  0  0  0  0  0  0  0
   -4.2470   -0.6540   -0.1110 C   0  0  0  0  0  0  0  0  0  0  0  0
   -5.0740    0.0700   -1.0540 C   0  0  0  0  0  0  0  0  0  0  0  0
   -4.9270    1.3980   -1.1630 C   0  0  0  0  0  0  0  0  0  0  0  0
   -5.7750    2.1400   -2.1310 C   0  0  0  0  0  0  0  0  0  0  0  0
   -3.9710    2.1550   -0.3770 C   0  0  0  0  0  0  0  0  0  0  0  0
   -3.1770    1.5630    0.5090 C   0  0  0  0  0  0  0  0  0  0  0  0
   -3.2860    0.1230    0.6770 C   0  0  0  0  0  0  0  0  0  0  0  0
   -2.5270   -0.4510    1.5250 N   0  0  0  0  0  0  0  0  0  0  0  0
   -1.5910    0.2230    2.3080 N   0  0  0  0  0  0  0  0  0  0  0  0
   -0.2780   -0.3460    2.5530 C   0  0  0  0  0  0  0  0  0  0  0  0
    0.5080   -0.5740    1.2990 C   0  0  2  0  0  0  0  0  0  0  0  0
    1.8450   -1.1620    1.6670 C   0  0  0  0  0  0  0  0  0  0  0  0
    2.8270   -0.5660    0.9170 O   0  0  0  0  0  0  0  0  0  0  0  0
    4.1040   -0.8670    1.3850 C   0  0  0  0  0  0  0  0  0  0  0  0
    4.7240   -1.8320    0.4140 C   0  0  0  0  0  0  0  0  0  0  0  0
    3.9540   -1.8830   -0.8280 N   0  0  0  0  0  0  0  0  0  0  0  0
    4.2710   -1.0570   -1.9430 C   0  0  0  0  0  0  0  0  0  0  0  0
    3.6470   -1.3170   -3.0260 O   0  0  0  0  0  0  0  0  0  0  0  0
    5.2020    0.0070   -1.9470 N   0  0  0  0  0  0  0  0  0  0  0  0
    5.2500    1.0680   -1.0360 N   0  0  0  0  0  0  0  0  0  0  0  0
    4.2180    1.9870   -0.7580 C   0  0  0  0  0  0  0  0  0  0  0  0
    4.4060    2.7710    0.2410 O   0  0  0  0  0  0  0  0  0  0  0  0
    2.9930    2.1540   -1.4490 N   0  0  0  0  0  0  0  0  0  0  0  0
    2.0000    1.1640   -1.6850 C   0  0  0  0  0  0  0  0  0  0  0  0
    1.6300    1.0570   -2.9200 O   0  0  0  0  0  0  0  0  0  0  0  0
    1.3890    0.3110   -0.7580 N   0  0  0  0  0  0  0  0  0  0  0  0
    0.7150    0.6580    0.4720 C   0  0  2  0  0  0  0  0  0  0  0  0
    1.3270    1.7890    1.2290 C   0  0  0  0  0  0  0  0  0  0  0  0
    1.3210    2.9420    0.4650 O   0  0  0  0  0  0  0  0  0  0  0  0
  1  2  2  0
  2  3  1  0
  3  4  2  3
  4  5  1  0
  4 10  1  0
  5  6  2  0
  6  7  1  0
  6  8  1  0
  8  9  2  0
  9 10  1  0
 10 11  2  3
 11 12  1  0
 12 13  1  0
 14 13  1  1
 14 15  1  0
 14 30  1  0
 15 16  1  0
 16 17  1  0
 17 18  1  0
 18 19  1  0
 19 20  1  0
 20 21  2  0
 20 22  1  0
 22 23  1  0
 23 24  1  0
 24 25  2  0
 24 26  1  0
 26 27  1  0
 27 28  2  0
 27 29  1  0
 29 30  1  0
 30 31  1  1
 31 32  1  0
M  END
