
     RDKit          3D

 32 36  0  0  0  0  0  0  0  0999 V2000
    8.0600   -1.0910   -1.2200 C   0  0  0  0  0  0  0  0  0  0  0  0
    7.2850   -0.1260   -0.5390 O   0  0  0  0  0  0  0  0  0  0  0  0
    5.9030   -0.1120   -0.5870 C   0  0  0  0  0  0  0  0  0  0  0  0
    5.1980   -1.0480   -1.3090 C   0  0  0  0  0  0  0  0  0  0  0  0
    3.8280   -1.0010   -1.3280 C   0  0  0  0  0  0  0  0  0  0  0  0
    3.1360   -0.0010   -0.6120 C   0  0  0  0  0  0  0  0  0  0  0  0
    1.6800   -0.0630   -0.5670 C   0  0  0  0  0  0  0  0  0  0  0  0
    1.0430    0.4140   -1.5320 O   0  0  0  0  0  0  0  0  0  0  0  0
    1.0240   -0.6580    0.5260 N   0  0  0  0  0  0  0  0  0  0  0  0
   -0.3970   -0.7150    0.5460 C   0  0  0  0  0  0  0  0  0  0  0  0
   -1.0460   -1.3800    1.5630 C   0  0  0  0  0  0  0  0  0  0  0  0
   -2.4130   -1.4460    1.6560 C   0  0  0  0  0  0  0  0  0  0  0  0
   -3.0650   -2.1850    2.7730 C   0  0  0  0  0  0  0  0  0  0  0  0
   -3.1530   -0.8180    0.6870 C   0  0  0  0  0  0  0  0  0  0  0  0
   -4.5420   -0.8730    0.7750 C   0  0  0  0  0  0  0  0  0  0  0  0
   -5.2610   -0.2250   -0.2070 C   0  0  0  0  0  0  0  0  0  0  0  0
   -4.6480    0.4490   -1.2320 C   0  0  0  0  0  0  0  0  0  0  0  0
   -3.2870    0.4700   -1.2710 C   0  0  0  0  0  0  0  0  0  0  0  0
   -2.5100   -0.1560   -0.3240 C   0  0  0  0  0  0  0  0  0  0  0  0
   -1.1730   -0.1210   -0.3710 N   0  0  0  0  0  0  0  0  0  0  0  0
   -5.4540    1.1520   -2.2480 C   0  0  0  0  0  0  0  0  0  0  0  0
   -4.9170    1.7750   -3.1970 O   0  0  0  0  0  0  0  0  0  0  0  0
   -6.8690    1.1010   -2.1200 N   0  0  0  0  0  0  0  0  0  0  0  0
   -7.4160    0.8470   -0.8000 C   0  0  0  0  0  0  0  0  0  0  0  0
   -6.7420   -0.3110   -0.1220 C   0  0  0  0  0  0  0  0  0  0  0  0
    3.8390    0.9290    0.1010 C   0  0  0  0  0  0  0  0  0  0  0  0
    3.2250    1.9460    0.7950 C   0  0  0  0  0  0  0  0  0  0  0  0
    1.4700    2.0790    0.7400 Cl  0  0  0  0  0  0  0  0  0  0  0  0
    3.9710    2.8760    1.4850 C   0  0  0  0  0  0  0  0  0  0  0  0
    5.3450    2.8120    1.4980 C   0  0  0  0  0  0  0  0  0  0  0  0
    5.9930    1.8100    0.8130 C   0  0  0  0  0  0  0  0  0  0  0  0
    5.2480    0.8840    0.1240 C   0  0  0  0  0  0  0  0  0  0  0  0
  1  2  1  0
  2  3  1  0
  3  4  2  0
  3 32  1  0
  4  5  1  0
  5  6  2  0
  6  7  1  0
  6 26  1  0
  7  8  2  0
  7  9  1  0
  9 10  1  0
 10 11  2  0
 10 20  1  0
 11 12  1  0
 12 13  1  0
 12 14  2  0
 14 15  1  0
 14 19  1  0
 15 16  2  0
 16 17  1  0
 16 25  1  0
 17 18  2  0
 17 21  1  0
 18 19  1  0
 19 20  2  0
 21 22  2  0
 21 23  1  0
 23 24  1  0
 24 25  1  0
 26 27  2  0
 26 32  1  0
 27 28  1  0
 27 29  1  0
 29 30  2  0
 30 31  1  0
 31 32  2  0
M  END
