
     RDKit          3D

 33 36  0  0  0  0  0  0  0  0999 V2000
    7.0580    1.5490   -1.0520 C   0  0  0  0  0  0  0  0  0  0  0  0
    7.6750    0.4430   -0.2840 C   0  0  0  0  0  0  0  0  0  0  0  0
    9.0560    0.2700   -0.3480 C   0  0  0  0  0  0  0  0  0  0  0  0
    9.6540   -0.7540    0.3590 C   0  0  0  0  0  0  0  0  0  0  0  0
    8.8520   -1.5720    1.1070 C   0  0  0  0  0  0  0  0  0  0  0  0
    7.4830   -1.4000    1.1700 C   0  0  0  0  0  0  0  0  0  0  0  0
    6.4410   -2.4360    2.1210 Cl  0  0  0  0  0  0  0  0  0  0  0  0
    6.8800   -0.3780    0.4650 C   0  0  0  0  0  0  0  0  0  0  0  0
    5.4550   -0.1910    0.5250 N   0  0  0  0  0  0  0  0  0  0  0  0
    4.5880   -0.8240   -0.3860 C   0  0  0  0  0  0  0  0  0  0  0  0
    5.0680   -1.5670   -1.2680 O   0  0  0  0  0  0  0  0  0  0  0  0
    3.1700   -0.6130   -0.2950 C   0  0  0  0  0  0  0  0  0  0  0  0
    2.3990    0.1170    0.5360 C   0  0  0  0  0  0  0  0  0  0  0  0
    1.1200    0.1100    0.3670 N   0  0  0  0  0  0  0  0  0  0  0  0
    0.5010   -0.5340   -0.5260 C   0  0  0  0  0  0  0  0  0  0  0  0
   -0.7960   -0.7850   -1.0060 N   0  0  0  0  0  0  0  0  0  0  0  0
   -1.9540   -0.2220   -0.4350 C   0  0  0  0  0  0  0  0  0  0  0  0
   -3.2250   -0.5060   -0.9520 C   0  0  0  0  0  0  0  0  0  0  0  0
   -4.3650    0.0320   -0.4110 C   0  0  0  0  0  0  0  0  0  0  0  0
   -5.6160   -0.2630   -0.9580 N   0  0  0  0  0  0  0  0  0  0  0  0
   -6.8970    0.0040   -0.2900 C   0  0  0  0  0  0  0  0  0  0  0  0
   -7.6530    0.9400   -1.2250 C   0  0  0  0  0  0  0  0  0  0  0  0
   -7.9630    0.1410   -2.3470 O   0  0  0  0  0  0  0  0  0  0  0  0
   -6.8220   -0.0770   -3.0790 C   0  0  0  0  0  0  0  0  0  0  0  0
   -5.8030   -0.8670   -2.2780 C   0  0  0  0  0  0  0  0  0  0  0  0
   -4.2260    0.8710    0.6690 C   0  0  0  0  0  0  0  0  0  0  0  0
   -3.0040    1.1960    1.2320 C   0  0  0  0  0  0  0  0  0  0  0  0
   -2.9460    2.2630    2.5920 S   0  0  1  0  0  0  0  0  0  0  0  0
   -3.0530    1.3490    4.1260 C   0  0  0  0  0  0  0  0  0  0  0  0
   -1.6190    2.9930    2.5790 O   0  0  0  0  0  0  0  0  0  0  0  0
   -4.0600    3.2690    2.5080 O   0  0  0  0  0  0  0  0  0  0  0  0
   -1.8770    0.6290    0.6520 C   0  0  0  0  0  0  0  0  0  0  0  0
    1.9770   -1.3380   -1.3620 S   0  0  0  0  0  0  0  0  0  0  0  0
  1  2  1  0
  2  3  2  0
  2  8  1  0
  3  4  1  0
  4  5  2  0
  5  6  1  0
  6  7  1  0
  6  8  2  0
  8  9  1  0
  9 10  1  0
 10 11  2  0
 10 12  1  0
 12 13  2  0
 12 33  1  0
 13 14  1  0
 14 15  2  0
 15 16  1  0
 15 33  1  0
 16 17  1  0
 17 18  2  0
 17 32  1  0
 18 19  1  0
 19 20  1  0
 19 26  2  0
 20 21  1  0
 20 25  1  0
 21 22  1  0
 22 23  1  0
 23 24  1  0
 24 25  1  0
 26 27  1  0
 27 28  1  0
 27 32  2  0
 28 29  1  1
 28 30  2  0
 28 31  2  0
M  END
