
     RDKit          3D

 32 35  0  0  0  0  0  0  0  0999 V2000
    3.0410    0.6610   -0.2070 O   0  0  0  0  0  0  0  0  0  0  0  0
    2.5360   -0.4870   -0.4710 C   0  0  0  0  0  0  0  0  0  0  0  0
    3.4340   -1.5680   -0.4440 N   0  0  0  0  0  0  0  0  0  0  0  0
    4.8130   -1.3760   -0.1420 N   0  0  0  0  0  0  0  0  0  0  0  0
    5.7020   -2.4460    0.0120 C   0  0  0  0  0  0  0  0  0  0  0  0
    5.2220   -3.6170   -0.1250 O   0  0  0  0  0  0  0  0  0  0  0  0
    7.1030   -2.2980    0.3160 C   0  0  0  0  0  0  0  0  0  0  0  0
    7.9360   -3.3600    0.7210 C   0  0  0  0  0  0  0  0  0  0  0  0
    9.1320   -2.8440    0.9350 N   0  0  0  0  0  0  0  0  0  0  0  0
    9.1130   -1.5590    0.6970 N   0  0  0  0  0  0  0  0  0  0  0  0
    7.8840   -1.1750    0.3120 C   0  0  0  0  0  0  0  0  0  0  0  0
    7.4900    0.1990   -0.0630 C   0  0  2  0  0  0  0  0  0  0  0  0
    8.5840    1.2730    0.1780 C   0  0  0  0  0  0  0  0  0  0  0  0
    7.3050    1.2360    0.9750 C   0  0  0  0  0  0  0  0  0  0  0  0
    1.1210   -0.5580   -0.7640 C   0  0  0  0  0  0  0  0  0  0  0  0
    0.6000   -1.6590   -1.0580 O   0  0  0  0  0  0  0  0  0  0  0  0
    0.3040    0.5890   -0.7260 N   0  0  0  0  0  0  0  0  0  0  0  0
   -1.1110    0.5770   -1.0190 C   0  0  2  0  0  0  0  0  0  0  0  0
   -1.5070    1.7480   -1.8200 C   0  0  0  0  0  0  0  0  0  0  0  0
   -1.9250    2.8480   -1.1390 O   0  0  0  0  0  0  0  0  0  0  0  0
   -1.6930    2.9020    0.2050 C   0  0  0  0  0  0  0  0  0  0  0  0
   -2.1260    1.6930    0.9730 C   0  0  0  0  0  0  0  0  0  0  0  0
   -1.8830    0.3950    0.2750 C   0  0  1  0  0  0  0  0  0  0  0  0
   -3.1590   -0.3710    0.0050 C   0  0  0  0  0  0  0  0  0  0  0  0
   -3.2800   -1.5610    0.3600 O   0  0  0  0  0  0  0  0  0  0  0  0
   -4.2460    0.2480   -0.6600 N   0  0  0  0  0  0  0  0  0  0  0  0
   -5.4920   -0.3990   -0.9680 C   0  0  0  0  0  0  0  0  0  0  0  0
   -6.1370   -0.8610    0.3190 C   0  0  1  0  0  0  0  0  0  0  0  0
   -6.3940    0.3150    1.2380 C   0  0  0  0  0  0  0  0  0  0  0  0
   -7.5310    1.0080    0.5530 C   0  0  0  0  0  0  0  0  0  0  0  0
   -8.2210   -0.0980   -0.2130 C   0  0  0  0  0  0  0  0  0  0  0  0
   -7.5040   -1.3270    0.0730 N   0  0  0  0  0  0  0  0  0  0  0  0
  1  2  2  0
  2  3  1  0
  2 15  1  0
  3  4  1  0
  4  5  1  0
  5  6  2  0
  5  7  1  0
  7  8  1  0
  7 11  2  0
  8  9  2  0
  9 10  1  0
 10 11  1  0
 12 11  1  1
 12 13  1  0
 12 14  1  0
 13 14  1  0
 15 16  2  0
 15 17  1  0
 18 17  1  1
 18 19  1  0
 18 23  1  0
 19 20  1  0
 20 21  1  0
 21 22  1  0
 22 23  1  0
 23 24  1  6
 24 25  2  0
 24 26  1  0
 26 27  1  0
 28 27  1  6
 28 29  1  0
 28 32  1  0
 29 30  1  0
 30 31  1  0
 31 32  1  0
M  CHG  1  32   1
M  END
