
     RDKit          3D

 31 33  0  0  0  0  0  0  0  0999 V2000
    0.3130    5.2500   -1.9130 C   0  0  0  0  0  0  0  0  0  0  0  0
   -0.8250    5.0910   -1.1020 O   0  0  0  0  0  0  0  0  0  0  0  0
   -0.9540    3.9520   -0.3250 C   0  0  0  0  0  0  0  0  0  0  0  0
    0.0470    2.9620   -0.3490 C   0  0  0  0  0  0  0  0  0  0  0  0
   -0.0020    1.8150    0.3830 C   0  0  0  0  0  0  0  0  0  0  0  0
    1.0160    0.7740    0.3800 N   0  0  0  0  0  0  0  0  0  0  0  0
    2.1760    0.7980   -0.3630 C   0  0  0  0  0  0  0  0  0  0  0  0
    2.3600    1.8830   -1.1410 O   0  0  0  0  0  0  0  0  0  0  0  0
    3.2400   -0.1500   -0.4510 C   0  0  0  0  0  0  0  0  0  0  0  0
    3.5970   -1.2940    0.0240 C   0  0  0  0  0  0  0  0  0  0  0  0
    2.9020   -2.1460    0.9810 C   0  0  0  0  0  0  0  0  0  0  0  0
    1.7990   -1.8040    1.4630 O   0  0  0  0  0  0  0  0  0  0  0  0
    3.4560   -3.3380    1.3610 O   0  0  0  0  0  0  0  0  0  0  0  0
    4.6450   -3.8550    0.9310 C   0  0  0  0  0  0  0  0  0  0  0  0
    5.3350   -2.9880   -0.0320 C   0  0  0  0  0  0  0  0  0  0  0  0
    4.9090   -1.8340   -0.4690 C   0  0  0  0  0  0  0  0  0  0  0  0
    5.7040   -1.0520   -1.4460 C   0  0  0  0  0  0  0  0  0  0  0  0
   -1.1230    1.6270    1.2010 C   0  0  0  0  0  0  0  0  0  0  0  0
   -1.2410    0.1390    2.1840 S   0  0  0  0  0  0  0  0  0  0  0  0
   -2.0800   -1.0940    1.1990 C   0  0  0  0  0  0  0  0  0  0  0  0
   -3.4630   -1.1950    1.2580 C   0  0  0  0  0  0  0  0  0  0  0  0
   -4.0990   -2.1500    0.4930 C   0  0  0  0  0  0  0  0  0  0  0  0
   -5.5810   -2.3130    0.5080 C   0  0  0  0  0  0  0  0  0  0  0  0
   -3.3420   -2.9760   -0.3060 C   0  0  0  0  0  0  0  0  0  0  0  0
   -1.9790   -2.8700   -0.3590 C   0  0  0  0  0  0  0  0  0  0  0  0
   -1.1400   -3.7470   -1.2120 C   0  0  0  0  0  0  0  0  0  0  0  0
   -1.3780   -1.9170    0.4070 N   0  0  0  0  0  0  0  0  0  0  0  0
   -2.1090    2.5690    1.2440 C   0  0  0  0  0  0  0  0  0  0  0  0
   -2.0280    3.7190    0.4910 C   0  0  0  0  0  0  0  0  0  0  0  0
   -3.0200    4.7090    0.5080 O   0  0  0  0  0  0  0  0  0  0  0  0
   -4.1330    4.4730    1.3500 C   0  0  0  0  0  0  0  0  0  0  0  0
  1  2  1  0
  2  3  1  0
  3  4  2  0
  3 29  1  0
  4  5  1  0
  5  6  1  0
  5 18  2  0
  6  7  1  0
  7  8  2  0
  7  9  1  0
  9 10  2  3
 10 11  1  0
 10 16  1  0
 11 12  2  0
 11 13  1  0
 13 14  1  0
 14 15  1  0
 15 16  2  0
 16 17  1  0
 18 19  1  0
 18 28  1  0
 19 20  1  0
 20 21  2  0
 20 27  1  0
 21 22  1  0
 22 23  1  0
 22 24  2  0
 24 25  1  0
 25 26  1  0
 25 27  2  0
 28 29  2  0
 29 30  1  0
 30 31  1  0
M  END
