
     RDKit          3D

 29 30  0  0  0  0  0  0  0  0999 V2000
   -5.6300   -3.0730   -1.7090 C   0  0  0  0  0  0  0  0  0  0  0  0
   -4.8830   -4.0870   -0.8990 C   0  0  0  0  0  0  0  0  0  0  0  0
   -3.5130   -3.9860   -1.0250 O   0  0  0  0  0  0  0  0  0  0  0  0
   -2.6700   -2.9620   -0.7000 C   0  0  0  0  0  0  0  0  0  0  0  0
   -1.3290   -3.1210   -0.9440 C   0  0  0  0  0  0  0  0  0  0  0  0
   -0.3940   -2.1200   -0.6390 C   0  0  0  0  0  0  0  0  0  0  0  0
    0.8970   -2.3900   -0.9220 O   0  0  0  0  0  0  0  0  0  0  0  0
    2.0720   -1.6790   -0.7970 C   0  0  0  0  0  0  0  0  0  0  0  0
    2.1660   -0.4230   -1.6260 C   0  0  0  0  0  0  0  0  0  0  0  0
    3.3630    0.2340   -1.4510 O   0  0  0  0  0  0  0  0  0  0  0  0
    3.6020    0.6910   -0.1620 C   0  0  2  0  0  0  0  0  0  0  0  0
    3.7840    2.0380   -0.2190 O   0  0  0  0  0  0  0  0  0  0  0  0
    4.9170    2.5400    0.3980 C   0  0  0  0  0  0  0  0  0  0  0  0
    6.1410    1.8120    0.0270 C   0  0  0  0  0  0  0  0  0  0  0  0
    7.2970    2.4120    0.0650 C   0  0  0  0  0  0  0  0  0  0  0  0
    7.4570    3.7410    0.4450 O   0  0  0  0  0  0  0  0  0  0  0  0
    6.0120    0.3960   -0.3830 C   0  0  0  0  0  0  0  0  0  0  0  0
    4.7710   -0.1080    0.3680 C   0  0  1  0  0  0  0  0  0  0  0  0
    4.9080    0.1170    1.7340 O   0  0  0  0  0  0  0  0  0  0  0  0
   -0.8640   -0.9480   -0.0750 C   0  0  0  0  0  0  0  0  0  0  0  0
   -2.2270   -0.7670    0.1800 C   0  0  0  0  0  0  0  0  0  0  0  0
   -2.6540    0.4830    0.7790 C   0  0  0  0  0  0  0  0  0  0  0  0
   -1.6900    1.1430    2.1170 Cl  0  0  0  0  0  0  0  0  0  0  0  0
   -3.7060    1.1680    0.4050 C   0  0  0  0  0  0  0  0  0  0  0  0
   -4.7300    0.6200   -0.8980 Cl  0  0  0  0  0  0  0  0  0  0  0  0
   -4.0610    2.4280    1.0740 C   0  0  0  0  0  0  0  0  0  0  0  0
   -5.4680    2.3040    1.6490 C   0  0  0  0  0  0  0  0  0  0  0  0
   -5.7860    3.5510    2.2970 N   0  0  0  0  0  0  0  0  0  0  0  0
   -3.0830   -1.7700   -0.1360 C   0  0  0  0  0  0  0  0  0  0  0  0
  1  2  1  0
  2  3  1  0
  3  4  1  0
  4  5  2  0
  4 29  1  0
  5  6  1  0
  6  7  1  0
  6 20  2  0
  7  8  1  0
  8  9  1  0
  9 10  1  0
 11 10  1  6
 11 12  1  0
 11 18  1  0
 12 13  1  0
 13 14  1  0
 14 15  2  3
 14 17  1  0
 15 16  1  0
 17 18  1  0
 18 19  1  1
 20 21  1  0
 21 22  1  0
 21 29  2  0
 22 23  1  0
 22 24  2  3
 24 25  1  0
 24 26  1  0
 26 27  1  0
 27 28  1  0
M  END
