
     RDKit          3D

 31 33  0  0  0  0  0  0  0  0999 V2000
    0.1540   -2.2130   -1.6210 C   0  0  0  0  0  0  0  0  0  0  0  0
    0.4720   -1.0990   -2.1740 C   0  0  0  0  0  0  0  0  0  0  0  0
    0.8100    0.1910   -1.6900 C   0  0  0  0  0  0  0  0  0  0  0  0
    1.0780    1.0170   -2.7560 C   0  0  0  0  0  0  0  0  0  0  0  0
    1.4690    2.4020   -2.9560 C   0  0  0  0  0  0  0  0  0  0  0  0
    2.1060    3.3160   -2.2560 C   0  0  0  0  0  0  0  0  0  0  0  0
    2.7060    3.2710   -0.9030 C   0  0  0  0  0  0  0  0  0  0  0  0
    2.4370    2.5210    0.1590 C   0  0  0  0  0  0  0  0  0  0  0  0
    1.4520    1.4450    0.4300 C   0  0  0  0  0  0  0  0  0  0  0  0
    1.0650    1.4550    1.8450 C   0  0  0  0  0  0  0  0  0  0  0  0
    0.8260    0.5380   -0.3090 C   0  0  0  0  0  0  0  0  0  0  0  0
   -0.0680   -0.3220    0.5190 C   0  0  0  0  0  0  0  0  0  0  0  0
    0.4570   -1.1500    1.4740 C   0  0  0  0  0  0  0  0  0  0  0  0
    1.7520   -1.5910    1.8900 C   0  0  0  0  0  0  0  0  0  0  0  0
    1.8780   -2.3420    2.8990 O   0  0  0  0  0  0  0  0  0  0  0  0
    2.9540   -1.2470    1.2380 N   0  0  0  0  0  0  0  0  0  0  0  0
    4.2180   -1.7440    1.7590 C   0  0  0  0  0  0  0  0  0  0  0  0
    5.3500   -1.2310    0.8990 C   0  0  0  0  0  0  0  0  0  0  0  0
   -1.0270   -1.7650    2.2790 S   0  0  0  0  0  0  0  0  0  0  0  0
   -2.1830   -0.9030    1.3070 C   0  0  0  0  0  0  0  0  0  0  0  0
   -3.6360   -0.9690    1.4560 N   0  0  0  0  0  0  0  0  0  0  0  0
   -4.5250   -2.0120    1.0280 C   0  0  0  0  0  0  0  0  0  0  0  0
   -5.8910   -1.5220    1.4000 C   0  0  0  0  0  0  0  0  0  0  0  0
   -5.6690   -0.5770    2.4210 O   0  0  0  0  0  0  0  0  0  0  0  0
   -4.4410    0.0230    2.0790 C   0  0  0  0  0  0  0  0  0  0  0  0
   -4.1510    1.2280    2.3060 O   0  0  0  0  0  0  0  0  0  0  0  0
   -1.4350   -0.2280    0.4700 C   0  0  0  0  0  0  0  0  0  0  0  0
   -2.0840    0.6640   -0.5520 C   0  0  0  0  0  0  0  0  0  0  0  0
   -2.2950    1.8420   -0.2420 O   0  0  0  0  0  0  0  0  0  0  0  0
   -2.4430    0.2050   -1.8000 O   0  0  0  0  0  0  0  0  0  0  0  0
   -3.0580    1.1090   -2.7270 C   0  0  0  0  0  0  0  0  0  0  0  0
  1  2  2  0
  2  3  1  0
  3  4  2  0
  3 11  1  0
  4  5  1  0
  5  6  2  0
  6  7  1  0
  7  8  2  0
  8  9  1  0
  9 10  1  0
  9 11  2  0
 11 12  1  0
 12 13  2  0
 12 27  1  0
 13 14  1  0
 13 19  1  0
 14 15  2  0
 14 16  1  0
 16 17  1  0
 17 18  1  0
 19 20  1  0
 20 21  1  0
 20 27  2  0
 21 22  1  0
 21 25  1  0
 22 23  1  0
 23 24  1  0
 24 25  1  0
 25 26  2  0
 27 28  1  0
 28 29  2  0
 28 30  1  0
 30 31  1  0
M  END
