
     RDKit          3D

 31 33  0  0  0  0  0  0  0  0999 V2000
   -8.0920   -0.8080    0.9680 C   0  0  0  0  0  0  0  0  0  0  0  0
   -7.7750    0.1840    0.1900 C   0  0  0  0  0  0  0  0  0  0  0  0
   -6.5610    0.7910   -0.1130 C   0  0  0  0  0  0  0  0  0  0  0  0
   -6.5630    1.8370   -0.9840 C   0  0  0  0  0  0  0  0  0  0  0  0
   -7.8650    2.2500   -1.5420 C   0  0  0  0  0  0  0  0  0  0  0  0
   -5.2380    0.4430    0.4030 C   0  0  0  0  0  0  0  0  0  0  0  0
   -4.7250   -0.4770    1.2070 C   0  0  0  0  0  0  0  0  0  0  0  0
   -3.4070   -0.4840    1.4810 C   0  0  0  0  0  0  0  0  0  0  0  0
   -2.5910    0.4450    0.9410 C   0  0  0  0  0  0  0  0  0  0  0  0
   -1.2100    0.7370    1.0070 C   0  0  0  0  0  0  0  0  0  0  0  0
   -0.9520    1.9460    1.4190 O   0  0  0  0  0  0  0  0  0  0  0  0
   -0.0750   -0.0460    0.7120 N   0  0  0  0  0  0  0  0  0  0  0  0
   -0.1480   -1.2630    0.1580 C   0  0  0  0  0  0  0  0  0  0  0  0
   -1.4350   -1.8480   -0.3190 C   0  0  0  0  0  0  0  0  0  0  0  0
    1.0010   -2.0380   -0.0510 C   0  0  0  0  0  0  0  0  0  0  0  0
    2.2250   -1.5280    0.3210 C   0  0  0  0  0  0  0  0  0  0  0  0
    3.4850   -2.3000    0.1210 C   0  0  0  0  0  0  0  0  0  0  0  0
    2.3300   -0.2770    0.8920 C   0  0  0  0  0  0  0  0  0  0  0  0
    3.5690    0.2040    1.2540 O   0  0  0  0  0  0  0  0  0  0  0  0
    4.4740    0.8410    0.4530 C   0  0  0  0  0  0  0  0  0  0  0  0
    4.1640    1.0190   -0.7540 O   0  0  0  0  0  0  0  0  0  0  0  0
    5.7310    1.3110    0.8980 N   0  0  0  0  0  0  0  0  0  0  0  0
    6.6280    1.9690   -0.0150 C   0  0  0  0  0  0  0  0  0  0  0  0
    7.2520    0.8880   -0.8530 C   0  0  0  0  0  0  0  0  0  0  0  0
    7.0580   -0.4760   -0.7590 C   0  0  0  0  0  0  0  0  0  0  0  0
    7.8280   -1.0920   -1.7250 C   0  0  0  0  0  0  0  0  0  0  0  0
    8.4590   -0.1540   -2.3740 O   0  0  0  0  0  0  0  0  0  0  0  0
    8.1520    1.0390   -1.8960 C   0  0  0  0  0  0  0  0  0  0  0  0
    1.1640    0.4150    1.0640 C   0  0  0  0  0  0  0  0  0  0  0  0
    1.2260    1.5670    1.5850 O   0  0  0  0  0  0  0  0  0  0  0  0
   -3.8040    1.4110   -0.0410 S   0  0  0  0  0  0  0  0  0  0  0  0
  1  2  2  0
  2  3  1  0
  3  4  2  3
  3  6  1  0
  4  5  1  0
  6  7  2  0
  6 31  1  0
  7  8  1  0
  8  9  2  0
  9 10  1  0
  9 31  1  0
 10 11  2  0
 10 12  1  0
 12 13  1  0
 12 29  1  0
 13 14  1  0
 13 15  2  0
 15 16  1  0
 16 17  1  0
 16 18  2  0
 18 19  1  0
 18 29  1  0
 19 20  1  0
 20 21  2  0
 20 22  1  0
 22 23  1  0
 23 24  1  0
 24 25  1  0
 24 28  2  0
 25 26  2  0
 26 27  1  0
 27 28  1  0
 29 30  2  0
M  END
