
     RDKit          3D

 31 33  0  0  0  0  0  0  0  0999 V2000
   -6.2530    0.9980   -3.1760 C   0  0  0  0  0  0  0  0  0  0  0  0
   -6.9400    1.5910   -2.2060 C   0  0  0  0  0  0  0  0  0  0  0  0
   -8.2970    1.9000   -2.5030 O   0  0  0  0  0  0  0  0  0  0  0  0
   -9.0490    2.5210   -1.5350 C   0  0  0  0  0  0  0  0  0  0  0  0
   -8.5300    2.7980   -0.4260 N   0  0  0  0  0  0  0  0  0  0  0  0
   -7.2010    2.5440   -0.0080 C   0  0  0  0  0  0  0  0  0  0  0  0
   -6.4040    1.9370   -0.9090 C   0  0  0  0  0  0  0  0  0  0  0  0
   -5.0480    1.7220   -0.6330 N   0  0  0  0  0  0  0  0  0  0  0  0
   -4.2870    2.3060    0.4050 C   0  0  0  0  0  0  0  0  0  0  0  0
   -4.8260    3.1060    1.2140 O   0  0  0  0  0  0  0  0  0  0  0  0
   -2.8440    2.0780    0.6480 C   0  0  0  0  0  0  0  0  0  0  0  0
   -2.1290    0.8240   -0.3920 S   0  0  0  0  0  0  0  0  0  0  0  0
   -1.3130   -0.4560    0.5920 C   0  0  0  0  0  0  0  0  0  0  0  0
    0.0340   -0.2390    0.8760 C   0  0  0  0  0  0  0  0  0  0  0  0
    0.7650   -1.1760    1.6220 C   0  0  0  0  0  0  0  0  0  0  0  0
    2.1820   -0.8670    1.8920 C   0  0  0  0  0  0  0  0  0  0  0  0
    2.9440   -1.6700    2.4750 O   0  0  0  0  0  0  0  0  0  0  0  0
    2.6850    0.3280    1.5020 O   0  0  0  0  0  0  0  0  0  0  0  0
    3.9320    0.8900    1.6090 C   0  0  0  0  0  0  0  0  0  0  0  0
    5.0280    0.2780    0.9070 C   0  0  0  0  0  0  0  0  0  0  0  0
    5.9050   -0.2180    0.3550 C   0  0  0  0  0  0  0  0  0  0  0  0
    7.0560   -0.8410   -0.3700 C   0  0  0  0  0  0  0  0  0  0  0  0
    7.0510   -1.8020   -1.3120 C   0  0  0  0  0  0  0  0  0  0  0  0
    8.3770   -2.0380   -1.6780 C   0  0  0  0  0  0  0  0  0  0  0  0
    9.1250   -1.1450   -0.8760 C   0  0  0  0  0  0  0  0  0  0  0  0
   10.6090   -1.0220   -0.8980 C   0  0  0  0  0  0  0  0  0  0  0  0
    8.2650   -0.4930   -0.1490 O   0  0  0  0  0  0  0  0  0  0  0  0
    0.0940   -2.2770    2.0340 C   0  0  0  0  0  0  0  0  0  0  0  0
   -1.2560   -2.4920    1.7480 C   0  0  0  0  0  0  0  0  0  0  0  0
   -1.9840   -1.5560    1.0050 C   0  0  0  0  0  0  0  0  0  0  0  0
   -3.4310   -1.7840    0.6850 C   0  0  0  0  0  0  0  0  0  0  0  0
  1  2  2  0
  2  3  1  0
  2  7  1  0
  3  4  1  0
  4  5  2  0
  5  6  1  0
  6  7  2  0
  7  8  1  0
  8  9  1  0
  9 10  2  0
  9 11  1  0
 11 12  1  0
 12 13  1  0
 13 14  2  0
 13 30  1  0
 14 15  1  0
 15 16  1  0
 15 28  2  0
 16 17  2  0
 16 18  1  0
 18 19  1  0
 19 20  1  0
 20 21  3  0
 21 22  1  0
 22 23  2  0
 22 27  1  0
 23 24  1  0
 24 25  2  0
 25 26  1  0
 25 27  1  0
 28 29  1  0
 29 30  2  0
 30 31  1  0
M  END
