
     RDKit          3D

 32 34  0  0  0  0  0  0  0  0999 V2000
   -4.8400    0.5940   -2.2140 C   0  0  0  0  0  0  0  0  0  0  0  0
   -3.4710    1.2080   -2.2560 C   0  0  0  0  0  0  0  0  0  0  0  0
   -3.1490    2.1300   -1.1410 C   0  0  0  0  0  0  0  0  0  0  0  0
   -3.1650    1.6140    0.2380 C   0  0  1  0  0  0  0  0  0  0  0  0
   -4.4710    1.0510    0.7360 C   0  0  0  0  0  0  0  0  0  0  0  0
   -2.0490    0.8190    0.6050 N   0  0  0  0  0  0  0  0  0  0  0  0
   -0.8360    1.5770    0.5780 C   0  0  0  0  0  0  0  0  0  0  0  0
   -0.1420    1.5080    1.8870 C   0  0  0  0  0  0  0  0  0  0  0  0
   -0.2610    2.6070    2.5770 O   0  0  0  0  0  0  0  0  0  0  0  0
    0.6130    0.4290    2.4670 C   0  0  0  0  0  0  0  0  0  0  0  0
    1.7210   -0.1420    2.0590 C   0  0  0  0  0  0  0  0  0  0  0  0
    2.6010    0.0620    0.9030 C   0  0  0  0  0  0  0  0  0  0  0  0
    3.8060    0.7570    1.1690 C   0  0  0  0  0  0  0  0  0  0  0  0
    4.7400    1.0890    0.2340 C   0  0  0  0  0  0  0  0  0  0  0  0
    4.5280    0.7340   -1.0780 C   0  0  0  0  0  0  0  0  0  0  0  0
    5.5560    1.1080   -2.0690 C   0  0  0  0  0  0  0  0  0  0  0  0
    5.3360    2.4520   -2.6910 C   0  0  0  0  0  0  0  0  0  0  0  0
    3.3790    0.0630   -1.3500 C   0  0  0  0  0  0  0  0  0  0  0  0
    2.3860   -0.2990   -0.3980 C   0  0  0  0  0  0  0  0  0  0  0  0
    1.2660   -1.1170   -0.9200 C   0  0  0  0  0  0  0  0  0  0  0  0
    0.9010   -0.7600   -2.1020 O   0  0  0  0  0  0  0  0  0  0  0  0
    0.5550   -2.1940   -0.3580 N   0  0  0  0  0  0  0  0  0  0  0  0
   -0.2820   -2.2820    0.7700 C   0  0  0  0  0  0  0  0  0  0  0  0
    0.0580   -3.2550    1.7290 C   0  0  0  0  0  0  0  0  0  0  0  0
    1.1350   -4.2520    1.5270 C   0  0  0  0  0  0  0  0  0  0  0  0
    2.7270   -3.5170    1.6970 Cl  0  0  0  0  0  0  0  0  0  0  0  0
   -0.6770   -3.3990    2.9020 C   0  0  0  0  0  0  0  0  0  0  0  0
   -1.7660   -2.5950    3.1590 C   0  0  0  0  0  0  0  0  0  0  0  0
   -2.7020   -2.7680    4.6430 Cl  0  0  0  0  0  0  0  0  0  0  0  0
   -2.1270   -1.6380    2.2360 C   0  0  0  0  0  0  0  0  0  0  0  0
   -1.3890   -1.4950    1.0620 C   0  0  0  0  0  0  0  0  0  0  0  0
   -1.9700   -0.4900    0.1300 C   0  0  0  0  0  0  0  0  0  0  0  0
  1  2  1  0
  2  3  1  0
  3  4  1  0
  4  5  1  6
  4  6  1  0
  6  7  1  0
  6 32  1  0
  7  8  1  0
  8  9  2  0
  8 10  1  0
 10 11  2  0
 11 12  1  0
 12 13  2  0
 12 19  1  0
 13 14  1  0
 14 15  2  0
 15 16  1  0
 15 18  1  0
 16 17  1  0
 18 19  2  0
 19 20  1  0
 20 21  2  0
 20 22  1  0
 22 23  1  0
 23 24  2  0
 23 31  1  0
 24 25  1  0
 24 27  1  0
 25 26  1  0
 27 28  2  0
 28 29  1  0
 28 30  1  0
 30 31  2  0
 31 32  1  0
M  END
