
     RDKit          3D

 32 34  0  0  0  0  0  0  0  0999 V2000
    8.2390   -2.0950   -1.7350 C   0  0  0  0  0  0  0  0  0  0  0  0
    8.6890   -1.0210   -1.1270 C   0  0  0  0  0  0  0  0  0  0  0  0
    7.9340   -0.3140   -0.1050 C   0  0  0  0  0  0  0  0  0  0  0  0
    8.4950    0.7410    0.4600 C   0  0  0  0  0  0  0  0  0  0  0  0
    6.5780   -0.6930    0.3540 C   0  0  0  0  0  0  0  0  0  0  0  0
    5.5660   -0.3920   -0.7000 C   0  0  0  0  0  0  0  0  0  0  0  0
    4.1910   -0.7580   -0.3260 C   0  0  0  0  0  0  0  0  0  0  0  0
    3.8590   -1.9560   -0.3870 O   0  0  0  0  0  0  0  0  0  0  0  0
    3.2430    0.2450    0.0980 C   0  0  0  0  0  0  0  0  0  0  0  0
    3.7560    1.4220    0.6480 C   0  0  0  0  0  0  0  0  0  0  0  0
    2.8640    2.3490    1.1130 C   0  0  0  0  0  0  0  0  0  0  0  0
    3.4660    3.8490    1.8170 Cl  0  0  0  0  0  0  0  0  0  0  0  0
    1.4800    2.1220    1.0400 C   0  0  0  0  0  0  0  0  0  0  0  0
    0.9670    0.9720    0.5040 C   0  0  0  0  0  0  0  0  0  0  0  0
   -0.4040    0.6880    0.4450 N   0  0  0  0  0  0  0  0  0  0  0  0
   -1.4940    1.5260    0.7740 C   0  0  0  0  0  0  0  0  0  0  0  0
   -1.2640    2.6800    1.1790 O   0  0  0  0  0  0  0  0  0  0  0  0
   -2.8660    1.0790    0.6520 N   0  0  0  0  0  0  0  0  0  0  0  0
   -3.9130    1.9740    1.0110 C   0  0  0  0  0  0  0  0  0  0  0  0
   -5.0830    1.1830    1.5520 C   0  0  0  0  0  0  0  0  0  0  0  0
   -5.5100    0.2750    0.4620 C   0  0  0  0  0  0  0  0  0  0  0  0
   -4.5440   -0.4280   -0.2290 C   0  0  0  0  0  0  0  0  0  0  0  0
   -4.8820   -1.2850   -1.2580 C   0  0  0  0  0  0  0  0  0  0  0  0
   -6.2060   -1.4680   -1.6330 C   0  0  0  0  0  0  0  0  0  0  0  0
   -6.5760   -2.3940   -2.7420 C   0  0  0  0  0  0  0  0  0  0  0  0
   -7.1610   -0.7580   -0.9320 C   0  0  0  0  0  0  0  0  0  0  0  0
   -8.8300   -0.9880   -1.4030 Cl  0  0  0  0  0  0  0  0  0  0  0  0
   -6.8290    0.1120    0.1110 C   0  0  0  0  0  0  0  0  0  0  0  0
   -7.9000    0.8500    0.8300 C   0  0  0  0  0  0  0  0  0  0  0  0
   -3.1100   -0.2380    0.1660 C   0  0  0  0  0  0  0  0  0  0  0  0
    1.8700    0.0320    0.0290 C   0  0  0  0  0  0  0  0  0  0  0  0
    1.3830   -1.1960   -0.5950 C   0  0  0  0  0  0  0  0  0  0  0  0
  1  2  2  0
  2  3  1  0
  3  4  2  0
  3  5  1  0
  5  6  1  0
  6  7  1  0
  7  8  2  0
  7  9  1  0
  9 10  2  0
  9 31  1  0
 10 11  1  0
 11 12  1  0
 11 13  2  0
 13 14  1  0
 14 15  1  0
 14 31  2  0
 15 16  1  0
 16 17  2  0
 16 18  1  0
 18 19  1  0
 18 30  1  0
 19 20  1  0
 20 21  1  0
 21 22  2  0
 21 28  1  0
 22 23  1  0
 22 30  1  0
 23 24  2  0
 24 25  1  0
 24 26  1  0
 26 27  1  0
 26 28  2  0
 28 29  1  0
 31 32  1  0
M  END
