
     RDKit          3D

 32 36  0  0  0  0  0  0  0  0999 V2000
   -4.2930    3.6690   -0.0950 C   0  0  0  0  0  0  0  0  0  0  0  0
   -3.0620    3.5480    0.6770 C   0  0  0  0  0  0  0  0  0  0  0  0
   -2.4180    2.4760    1.0120 C   0  0  0  0  0  0  0  0  0  0  0  0
   -2.7630    1.0910    0.6950 C   0  0  0  0  0  0  0  0  0  0  0  0
   -2.0740   -0.0090    1.0940 C   0  0  0  0  0  0  0  0  0  0  0  0
   -0.9060   -0.0470    1.8990 N   0  0  0  0  0  0  0  0  0  0  0  0
    0.1930   -1.0450    1.8740 C   0  0  0  0  0  0  0  0  0  0  0  0
    1.4050   -0.1310    1.8150 C   0  0  1  0  0  0  0  0  0  0  0  0
    1.7730    0.0760    0.4270 N   0  0  0  0  0  0  0  0  0  0  0  0
    3.2040   -0.0350    0.2270 C   0  0  2  0  0  0  0  0  0  0  0  0
    3.6650    1.1320   -0.6370 C   0  0  0  0  0  0  0  0  0  0  0  0
    4.7660    0.5720   -1.4710 C   0  0  0  0  0  0  0  0  0  0  0  0
    5.7970    1.1930   -2.1670 C   0  0  0  0  0  0  0  0  0  0  0  0
    6.7070    0.4450   -2.8740 C   0  0  0  0  0  0  0  0  0  0  0  0
    6.6470   -0.9250   -2.9300 C   0  0  0  0  0  0  0  0  0  0  0  0
    5.6120   -1.5370   -2.2310 C   0  0  0  0  0  0  0  0  0  0  0  0
    5.4950   -3.0050   -2.2540 C   0  0  0  0  0  0  0  0  0  0  0  0
    4.6830   -0.7970   -1.5090 C   0  0  0  0  0  0  0  0  0  0  0  0
    3.5040   -1.1950   -0.6910 C   0  0  0  0  0  0  0  0  0  0  0  0
    1.0180    1.1100    2.5190 C   0  0  0  0  0  0  0  0  0  0  0  0
   -0.4200    0.9490    2.8110 C   0  0  0  0  0  0  0  0  0  0  0  0
   -1.1430    1.5380    3.6860 O   0  0  0  0  0  0  0  0  0  0  0  0
   -2.7770   -1.2080    0.5570 C   0  0  0  0  0  0  0  0  0  0  0  0
   -2.4160   -2.4460    0.8600 C   0  0  0  0  0  0  0  0  0  0  0  0
   -2.9720   -3.7340    0.4280 C   0  0  0  0  0  0  0  0  0  0  0  0
   -4.4330   -3.5860    0.1160 C   0  0  0  0  0  0  0  0  0  0  0  0
   -4.5640   -2.8260   -1.1990 C   0  0  0  0  0  0  0  0  0  0  0  0
   -4.9340   -1.4190   -0.9250 C   0  0  0  0  0  0  0  0  0  0  0  0
   -3.8860   -0.7450   -0.1720 N   0  0  0  0  0  0  0  0  0  0  0  0
   -3.8500    0.6640   -0.0680 N   0  0  0  0  0  0  0  0  0  0  0  0
   -2.4540    4.8630    1.1630 C   0  0  0  0  0  0  0  0  0  0  0  0
   -3.4400    5.4280    1.9540 O   0  0  0  0  0  0  0  0  0  0  0  0
  1  2  1  0
  2  3  2  3
  2 31  1  0
  3  4  1  0
  4  5  2  0
  4 30  1  0
  5  6  1  0
  5 23  1  0
  6  7  1  0
  6 21  1  0
  7  8  1  0
  8  9  1  6
  8 20  1  0
 10  9  1  6
 10 11  1  0
 10 19  1  0
 11 12  1  0
 12 13  2  0
 12 18  1  0
 13 14  1  0
 14 15  2  0
 15 16  1  0
 16 17  1  0
 16 18  2  0
 18 19  1  0
 20 21  1  0
 21 22  2  0
 23 24  2  0
 23 29  1  0
 24 25  1  0
 25 26  1  0
 26 27  1  0
 27 28  1  0
 28 29  1  0
 29 30  1  0
 31 32  1  0
M  CHG  1   9   1
M  END
