
     RDKit          3D

 32 34  0  0  0  0  0  0  0  0999 V2000
    8.7490    0.5030   -0.1890 C   0  0  0  0  0  0  0  0  0  0  0  0
    7.5850   -0.0630    0.0440 C   0  0  0  0  0  0  0  0  0  0  0  0
    6.3240    0.5400   -0.4320 C   0  0  0  0  0  0  0  0  0  0  0  0
    5.3890    0.8620    0.7230 C   0  0  0  0  0  0  0  0  0  0  0  0
    4.0960    1.4820    0.1950 C   0  0  0  0  0  0  0  0  0  0  0  0
    3.1770    1.8030    1.2830 C   0  0  0  0  0  0  0  0  0  0  0  0
    3.7430    2.9780    2.4680 Cl  0  0  0  0  0  0  0  0  0  0  0  0
    1.9600    1.2890    1.4570 C   0  0  0  0  0  0  0  0  0  0  0  0
    1.1500    1.9350    2.9010 Cl  0  0  0  0  0  0  0  0  0  0  0  0
    1.3970    0.2800    0.6370 C   0  0  0  0  0  0  0  0  0  0  0  0
    0.2580   -0.3680    0.5590 C   0  0  0  0  0  0  0  0  0  0  0  0
   -0.7490    0.0600    1.6050 C   0  0  0  0  0  0  0  0  0  0  0  0
   -2.0140    0.4030    0.8670 N   0  0  0  0  0  0  0  0  0  0  0  0
   -1.5110    1.3880   -0.0300 C   0  0  0  0  0  0  0  0  0  0  0  0
   -3.2990   -0.0560    0.9590 C   0  0  0  0  0  0  0  0  0  0  0  0
   -3.3720   -1.3580    1.0540 O   0  0  0  0  0  0  0  0  0  0  0  0
   -4.7120    0.4330    0.9900 C   0  0  0  0  0  0  0  0  0  0  0  0
   -5.3970    0.3030    2.1630 C   0  0  0  0  0  0  0  0  0  0  0  0
   -6.6770    0.8170    2.2650 C   0  0  0  0  0  0  0  0  0  0  0  0
   -7.2670    1.4550    1.2010 C   0  0  0  0  0  0  0  0  0  0  0  0
   -6.5850    1.5920   -0.0030 C   0  0  0  0  0  0  0  0  0  0  0  0
   -5.3280    1.0820   -0.0980 C   0  0  0  0  0  0  0  0  0  0  0  0
   -4.5400    1.1630   -1.3290 O   0  0  0  0  0  0  0  0  0  0  0  0
   -4.1200   -0.0650   -1.9360 C   0  0  0  0  0  0  0  0  0  0  0  0
   -2.7270   -0.2990   -2.3870 C   0  0  0  0  0  0  0  0  0  0  0  0
   -2.1260   -1.4560   -1.7190 N   0  0  0  0  0  0  0  0  0  0  0  0
   -0.8350   -1.8990   -1.3060 C   0  0  0  0  0  0  0  0  0  0  0  0
   -0.5500   -3.0950   -2.0440 C   0  0  0  0  0  0  0  0  0  0  0  0
    0.5970   -3.8310   -1.9500 C   0  0  0  0  0  0  0  0  0  0  0  0
    1.5410   -3.3800   -1.0790 C   0  0  0  0  0  0  0  0  0  0  0  0
    1.2830   -2.2390   -0.3650 C   0  0  0  0  0  0  0  0  0  0  0  0
    0.1000   -1.4610   -0.4440 C   0  0  0  0  0  0  0  0  0  0  0  0
  1  2  2  0
  2  3  1  0
  3  4  1  0
  4  5  1  0
  5  6  1  0
  6  7  1  0
  6  8  2  3
  8  9  1  0
  8 10  1  0
 10 11  2  3
 11 12  1  0
 11 32  1  0
 12 13  1  0
 13 14  1  0
 13 15  1  0
 15 16  2  0
 15 17  1  0
 17 18  2  0
 17 22  1  0
 18 19  1  0
 19 20  2  0
 20 21  1  0
 21 22  2  0
 22 23  1  0
 23 24  1  0
 24 25  1  0
 25 26  1  0
 26 27  1  0
 27 28  2  0
 27 32  1  0
 28 29  1  0
 29 30  2  0
 30 31  1  0
 31 32  2  0
M  END
