
     RDKit          3D

 32 34  0  0  0  0  0  0  0  0999 V2000
    2.6190    6.0240   -0.2730 C   0  0  0  0  0  0  0  0  0  0  0  0
    2.0010    4.6800   -0.1790 C   0  0  0  0  0  0  0  0  0  0  0  0
    1.0500    4.4530    0.7810 C   0  0  0  0  0  0  0  0  0  0  0  0
    0.4760    3.1840    0.8630 C   0  0  0  0  0  0  0  0  0  0  0  0
    0.8240    2.1590    0.0210 C   0  0  0  0  0  0  0  0  0  0  0  0
    0.0430    0.8830    0.0430 C   0  0  0  0  0  0  0  0  0  0  0  0
   -1.2150    1.0580    0.2620 C   0  0  0  0  0  0  0  0  0  0  0  0
   -2.4200    0.3270    0.4090 C   0  0  0  0  0  0  0  0  0  0  0  0
   -3.5460    1.0350    0.5680 O   0  0  0  0  0  0  0  0  0  0  0  0
   -2.7210   -1.0390    0.4360 N   0  0  0  0  0  0  0  0  0  0  0  0
   -4.0690   -1.5530    0.5910 C   0  0  0  0  0  0  0  0  0  0  0  0
   -4.5650   -1.8030    1.8520 C   0  0  0  0  0  0  0  0  0  0  0  0
   -3.7620   -1.5640    3.0750 C   0  0  0  0  0  0  0  0  0  0  0  0
   -5.8540   -2.2930    1.9670 C   0  0  0  0  0  0  0  0  0  0  0  0
   -6.6360   -2.5300    0.8690 C   0  0  0  0  0  0  0  0  0  0  0  0
   -8.2740   -3.1510    1.0060 Cl  0  0  0  0  0  0  0  0  0  0  0  0
   -6.1070   -2.2660   -0.4050 C   0  0  0  0  0  0  0  0  0  0  0  0
   -4.8450   -1.7860   -0.5330 C   0  0  0  0  0  0  0  0  0  0  0  0
   -4.2700   -1.5040   -1.8230 C   0  0  0  0  0  0  0  0  0  0  0  0
   -4.9120   -1.6880   -2.9380 C   0  0  0  0  0  0  0  0  0  0  0  0
   -4.1570   -1.3260   -4.4900 Cl  0  0  0  0  0  0  0  0  0  0  0  0
    0.7040   -0.3150   -0.3370 C   0  0  0  0  0  0  0  0  0  0  0  0
   -0.0720   -1.2940   -0.7310 O   0  0  0  0  0  0  0  0  0  0  0  0
    2.0790   -0.6510   -0.3510 N   0  0  0  0  0  0  0  0  0  0  0  0
    3.2010    0.0470    0.1580 C   0  0  0  0  0  0  0  0  0  0  0  0
    4.1460   -0.9300    0.9090 C   0  0  0  0  0  0  0  0  0  0  0  0
    4.6380   -1.9830   -0.0620 C   0  0  2  0  0  0  0  0  0  0  0  0
    6.1040   -1.8650   -0.3660 C   0  0  0  0  0  0  0  0  0  0  0  0
    3.8580   -1.9000   -1.3670 C   0  0  0  0  0  0  0  0  0  0  0  0
    2.4040   -1.9480   -1.0130 C   0  0  0  0  0  0  0  0  0  0  0  0
    1.7760    2.4270   -0.9260 C   0  0  0  0  0  0  0  0  0  0  0  0
    2.3780    3.6790   -1.0430 C   0  0  0  0  0  0  0  0  0  0  0  0
  1  2  1  0
  2  3  2  0
  2 32  1  0
  3  4  1  0
  4  5  2  0
  5  6  1  0
  5 31  1  0
  6  7  2  3
  6 22  1  0
  7  8  1  0
  8  9  2  0
  8 10  1  0
 10 11  1  0
 11 12  2  0
 11 18  1  0
 12 13  1  0
 12 14  1  0
 14 15  2  0
 15 16  1  0
 15 17  1  0
 17 18  2  0
 18 19  1  0
 19 20  2  3
 20 21  1  0
 22 23  2  0
 22 24  1  0
 24 25  1  0
 24 30  1  0
 25 26  1  0
 26 27  1  0
 27 28  1  6
 27 29  1  0
 29 30  1  0
 31 32  2  0
M  END
