
     RDKit          3D

 32 34  0  0  0  0  0  0  0  0999 V2000
   -0.9240    5.5530   -1.2520 C   0  0  0  0  0  0  0  0  0  0  0  0
    0.1870    4.8620   -1.2600 C   0  0  0  0  0  0  0  0  0  0  0  0
    0.3290    3.6880   -0.4860 N   0  0  0  0  0  0  0  0  0  0  0  0
   -0.6210    2.5820   -0.7060 C   0  0  0  0  0  0  0  0  0  0  0  0
   -1.3480    2.2320    0.5220 C   0  0  0  0  0  0  0  0  0  0  0  0
   -1.5700    1.0740    1.0600 C   0  0  0  0  0  0  0  0  0  0  0  0
   -2.1240   -0.1610    0.4700 C   0  0  2  0  0  0  0  0  0  0  0  0
   -3.5670   -0.3600    0.8790 C   0  0  0  0  0  0  0  0  0  0  0  0
   -4.4790    0.7190    0.5000 C   0  0  0  0  0  0  0  0  0  0  0  0
   -5.1330    1.4000    1.4320 C   0  0  0  0  0  0  0  0  0  0  0  0
   -4.7150    1.0870   -0.9150 C   0  0  0  0  0  0  0  0  0  0  0  0
   -1.3500   -1.3200    1.0950 C   0  0  0  0  0  0  0  0  0  0  0  0
   -1.4580   -2.5910    0.2480 C   0  0  0  0  0  0  0  0  0  0  0  0
   -0.6770   -2.4200   -1.0000 N   0  0  0  0  0  0  0  0  0  0  0  0
   -0.6510   -1.0040   -1.3360 C   0  0  0  0  0  0  0  0  0  0  0  0
   -1.9710   -0.3220   -0.9970 C   0  0  0  0  0  0  0  0  0  0  0  0
   -0.0540   -3.4500   -1.7110 C   0  0  0  0  0  0  0  0  0  0  0  0
   -0.5080   -4.2890   -2.5680 O   0  0  0  0  0  0  0  0  0  0  0  0
    1.4240   -3.6340   -1.4450 C   0  0  0  0  0  0  0  0  0  0  0  0
    1.6710   -4.1280   -0.1050 N   0  0  0  0  0  0  0  0  0  0  0  0
    1.9230   -3.0220    0.7680 C   0  0  0  0  0  0  0  0  0  0  0  0
    3.3340   -3.0070    1.3390 C   0  0  0  0  0  0  0  0  0  0  0  0
    4.3400   -2.5670    0.3410 C   0  0  0  0  0  0  0  0  0  0  0  0
    4.7190   -3.4500   -0.4730 O   0  0  0  0  0  0  0  0  0  0  0  0
    4.8780   -1.2090    0.2750 N   0  0  0  0  0  0  0  0  0  0  0  0
    4.0180   -0.0570    0.3150 C   0  0  0  0  0  0  0  0  0  0  0  0
    3.6360    0.5650    1.4820 C   0  0  0  0  0  0  0  0  0  0  0  0
    2.7790    1.7050    1.5540 C   0  0  0  0  0  0  0  0  0  0  0  0
    2.2520    2.2850    0.4220 C   0  0  0  0  0  0  0  0  0  0  0  0
    2.6160    1.6850   -0.7650 C   0  0  0  0  0  0  0  0  0  0  0  0
    3.4700    0.5530   -0.7990 C   0  0  0  0  0  0  0  0  0  0  0  0
    1.3530    3.4890    0.5170 C   0  0  0  0  0  0  0  0  0  0  0  0
  1  2  2  0
  2  3  1  0
  3  4  1  0
  3 32  1  0
  4  5  1  0
  5  6  2  0
  6  7  1  0
  7  8  1  6
  7 12  1  0
  7 16  1  0
  8  9  1  0
  9 10  2  0
  9 11  1  0
 12 13  1  0
 13 14  1  0
 14 15  1  0
 14 17  1  0
 15 16  1  0
 17 18  2  0
 17 19  1  0
 19 20  1  0
 20 21  1  0
 21 22  1  0
 22 23  1  0
 23 24  2  0
 23 25  1  0
 25 26  1  0
 26 27  2  0
 26 31  1  0
 27 28  1  0
 28 29  2  0
 29 30  1  0
 29 32  1  0
 30 31  2  0
M  CHG  1  20   1
M  END
