
     RDKit          3D

 32 36  0  0  0  0  0  0  0  0999 V2000
   -3.5640    5.0350    1.6680 N   0  0  0  0  0  0  0  0  0  0  0  0
   -3.3030    3.6080    1.5470 C   0  0  0  0  0  0  0  0  0  0  0  0
   -1.8900    3.4620    1.0260 C   0  0  0  0  0  0  0  0  0  0  0  0
   -1.5340    2.0470    0.8710 N   0  0  0  0  0  0  0  0  0  0  0  0
   -1.8580    1.4360   -0.4280 C   0  0  0  0  0  0  0  0  0  0  0  0
   -2.0430   -0.0150   -0.3380 C   0  0  0  0  0  0  0  0  0  0  0  0
   -1.2740   -0.9100   -1.2820 C   0  0  0  0  0  0  0  0  0  0  0  0
   -1.5500   -2.2950   -0.7560 C   0  0  0  0  0  0  0  0  0  0  0  0
   -0.6610   -3.0560   -0.0370 C   0  0  0  0  0  0  0  0  0  0  0  0
   -1.2240   -4.2840    0.4130 C   0  0  0  0  0  0  0  0  0  0  0  0
   -2.4900   -4.6910    0.1740 C   0  0  0  0  0  0  0  0  0  0  0  0
   -3.3250   -3.8770   -0.5590 C   0  0  0  0  0  0  0  0  0  0  0  0
   -2.8760   -2.6760   -1.0340 C   0  0  0  0  0  0  0  0  0  0  0  0
   -3.9670   -2.0720   -1.7870 C   0  0  0  0  0  0  0  0  0  0  0  0
   -5.0380   -2.8670   -1.7680 C   0  0  0  0  0  0  0  0  0  0  0  0
   -4.7520   -4.0840   -0.9890 C   0  0  0  0  0  0  0  0  0  0  0  0
    0.6950   -2.8020    0.2400 N   0  0  0  0  0  0  0  0  0  0  0  0
    1.5980   -1.8140    0.5920 C   0  0  0  0  0  0  0  0  0  0  0  0
    2.6040   -2.2640    1.3940 O   0  0  0  0  0  0  0  0  0  0  0  0
    1.8660   -0.4540    0.4100 N   0  0  0  0  0  0  0  0  0  0  0  0
    3.1200    0.0830   -0.2400 C   0  0  1  0  0  0  0  0  0  0  0  0
    4.3390   -0.2970    0.5310 C   0  0  1  0  0  0  0  0  0  0  0  0
    5.6920    0.2330    0.2480 C   0  0  0  0  0  0  0  0  0  0  0  0
    4.9920    0.5370    1.5570 C   0  0  0  0  0  0  0  0  0  0  0  0
    3.2380   -0.5870   -1.6100 C   0  0  0  0  0  0  0  0  0  0  0  0
    4.1470    0.2950   -2.3810 C   0  0  0  0  0  0  0  0  0  0  0  0
    3.8210    1.6600   -1.8920 C   0  0  0  0  0  0  0  0  0  0  0  0
    3.0430    1.4960   -0.5990 C   0  0  0  0  0  0  0  0  0  0  0  0
    1.0190    0.6710    0.8410 C   0  0  0  0  0  0  0  0  0  0  0  0
    0.1850    0.4700    2.0360 C   0  0  0  0  0  0  0  0  0  0  0  0
   -0.9550    1.4220    1.9660 C   0  0  0  0  0  0  0  0  0  0  0  0
   -1.4600    1.6810    3.1390 O   0  0  0  0  0  0  0  0  0  0  0  0
  1  2  1  0
  2  3  1  0
  3  4  1  0
  4  5  1  0
  4 31  1  0
  5  6  1  0
  6  7  1  0
  7  8  1  0
  8  9  2  0
  8 13  1  0
  9 10  1  0
  9 17  1  0
 10 11  2  0
 11 12  1  0
 12 13  2  0
 12 16  1  0
 13 14  1  0
 14 15  2  0
 15 16  1  0
 17 18  1  0
 18 19  2  0
 18 20  1  0
 21 20  1  1
 20 29  1  0
 21 22  1  0
 21 25  1  0
 21 28  1  0
 22 23  1  6
 22 24  1  0
 23 24  1  0
 25 26  1  0
 26 27  1  0
 27 28  1  0
 29 30  1  0
 30 31  1  0
 31 32  2  0
M  CHG  1   1   1
M  END
