
     RDKit          3D

 32 35  0  0  0  0  0  0  0  0999 V2000
    3.8110   -0.5650    0.4320 C   0  0  0  0  0  0  0  0  0  0  0  0
    2.7640   -1.1690   -0.3560 N   0  0  2  0  0  0  0  0  0  0  0  0
    2.7810   -0.5440   -1.6330 C   0  0  0  0  0  0  0  0  0  0  0  0
    2.9210    0.6630   -2.0630 C   0  0  0  0  0  0  0  0  0  0  0  0
    3.1230    2.0100   -1.6410 C   0  0  0  0  0  0  0  0  0  0  0  0
    4.4230    2.4040   -1.6810 O   0  0  0  0  0  0  0  0  0  0  0  0
    2.3420    3.1400   -1.1620 C   0  0  0  0  0  0  0  0  0  0  0  0
    2.8530    4.5330   -1.6430 C   0  0  1  0  0  0  0  0  0  0  0  0
    2.9210    5.6460   -0.7170 C   0  0  0  0  0  0  0  0  0  0  0  0
    4.1750    4.9830   -1.1700 C   0  0  0  0  0  0  0  0  0  0  0  0
    1.2460    3.1690   -0.4340 C   0  0  0  0  0  0  0  0  0  0  0  0
    0.3020    2.2320    0.2180 C   0  0  0  0  0  0  0  0  0  0  0  0
    0.2710    2.5120    1.6410 C   0  0  0  0  0  0  0  0  0  0  0  0
    0.2600    2.7320    2.8400 N   0  0  0  0  0  0  0  0  0  0  0  0
   -0.4420    1.2720   -0.2560 C   0  0  0  0  0  0  0  0  0  0  0  0
   -1.4110    0.2310    0.0690 C   0  0  0  0  0  0  0  0  0  0  0  0
   -1.4780   -0.8900    0.7170 C   0  0  0  0  0  0  0  0  0  0  0  0
   -2.8010   -1.5830    0.7230 N   0  0  0  0  0  0  0  0  0  0  0  0
   -3.7130   -1.5000   -0.3230 C   0  0  0  0  0  0  0  0  0  0  0  0
   -3.4360   -0.8540   -1.3640 O   0  0  0  0  0  0  0  0  0  0  0  0
   -5.0390   -2.1670   -0.2180 C   0  0  0  0  0  0  0  0  0  0  0  0
   -5.9360   -2.1120   -1.1860 C   0  0  0  0  0  0  0  0  0  0  0  0
   -7.1590   -2.8450   -0.8290 C   0  0  0  0  0  0  0  0  0  0  0  0
   -6.8300   -3.3580    0.5510 C   0  0  0  0  0  0  0  0  0  0  0  0
   -5.6000   -2.9400    0.8550 C   0  0  0  0  0  0  0  0  0  0  0  0
   -0.4640   -1.6490    1.4450 C   0  0  0  0  0  0  0  0  0  0  0  0
   -0.9280   -2.4280    2.4890 N   0  0  0  0  0  0  0  0  0  0  0  0
   -0.1570   -3.2140    3.2380 C   0  0  0  0  0  0  0  0  0  0  0  0
    1.1860   -3.2960    3.0060 C   0  0  0  0  0  0  0  0  0  0  0  0
    1.7170   -2.5620    2.0020 C   0  0  0  0  0  0  0  0  0  0  0  0
    0.8990   -1.7510    1.2380 C   0  0  0  0  0  0  0  0  0  0  0  0
    1.4780   -0.9110    0.1990 C   0  0  0  0  0  0  0  0  0  0  0  0
  2  1  1  1
  2  3  1  0
  2 32  1  0
  3  4  2  0
  4  5  1  0
  5  6  2  0
  5  7  1  0
  8  7  1  1
  7 11  2  0
  8  9  1  0
  8 10  1  0
  9 10  1  0
 11 12  1  0
 12 13  1  0
 12 15  2  0
 13 14  3  0
 15 16  1  0
 16 17  2  0
 17 18  1  0
 17 26  1  0
 18 19  1  0
 19 20  2  0
 19 21  1  0
 21 22  2  0
 21 25  1  0
 22 23  1  0
 23 24  1  0
 24 25  2  0
 26 27  2  0
 26 31  1  0
 27 28  1  0
 28 29  2  0
 29 30  1  0
 30 31  2  0
 31 32  1  0
M  CHG  1   2   1
M  END
