
     RDKit          3D

 33 35  0  0  0  0  0  0  0  0999 V2000
    5.5680   -2.9440   -1.2150 C   0  0  0  0  0  0  0  0  0  0  0  0
    4.5490   -2.4330   -2.1850 C   0  0  0  0  0  0  0  0  0  0  0  0
    3.6680   -1.5300   -1.6070 O   0  0  0  0  0  0  0  0  0  0  0  0
    4.0580   -0.3260   -1.0690 C   0  0  0  0  0  0  0  0  0  0  0  0
    5.3650    0.0910   -1.0730 C   0  0  0  0  0  0  0  0  0  0  0  0
    5.7640    1.2830   -0.5430 C   0  0  0  0  0  0  0  0  0  0  0  0
    4.8110    2.0840    0.0100 C   0  0  0  0  0  0  0  0  0  0  0  0
    5.1980    3.3770    0.5910 C   0  0  0  0  0  0  0  0  0  0  0  0
    6.6220    3.7650    0.5520 C   0  0  0  0  0  0  0  0  0  0  0  0
    4.3630    4.1530    1.1130 O   0  0  0  0  0  0  0  0  0  0  0  0
    3.4670    1.6900    0.0300 C   0  0  0  0  0  0  0  0  0  0  0  0
    3.0740    0.5060   -0.4960 C   0  0  0  0  0  0  0  0  0  0  0  0
    1.7360    0.0260   -0.5200 N   0  0  0  0  0  0  0  0  0  0  0  0
    0.5980    0.6650   -0.0210 C   0  0  0  0  0  0  0  0  0  0  0  0
    0.7010    1.7870    0.5180 O   0  0  0  0  0  0  0  0  0  0  0  0
   -0.7590    0.0810   -0.0920 C   0  0  0  0  0  0  0  0  0  0  0  0
   -0.9750   -1.2090   -0.4900 C   0  0  0  0  0  0  0  0  0  0  0  0
   -2.2610   -1.7740   -0.5650 C   0  0  0  0  0  0  0  0  0  0  0  0
   -2.4110   -3.1100   -0.9930 N   0  0  0  0  0  0  0  0  0  0  0  0
   -3.5600   -3.9100   -0.9290 C   0  0  0  0  0  0  0  0  0  0  0  0
   -3.5950   -5.3230   -1.4260 C   0  0  0  0  0  0  0  0  0  0  0  0
   -4.6020   -3.4710   -0.4520 O   0  0  0  0  0  0  0  0  0  0  0  0
   -3.3110   -0.9390   -0.2080 C   0  0  0  0  0  0  0  0  0  0  0  0
   -3.1610    0.3600    0.1990 C   0  0  0  0  0  0  0  0  0  0  0  0
   -4.2180    1.2040    0.5760 N   0  0  0  0  0  0  0  0  0  0  0  0
   -5.5630    0.8730    0.7910 C   0  0  0  0  0  0  0  0  0  0  0  0
   -5.9440   -0.3040    0.6520 O   0  0  0  0  0  0  0  0  0  0  0  0
   -6.5690    1.8860    1.1840 C   0  0  0  0  0  0  0  0  0  0  0  0
   -6.3410    3.2150    1.3820 C   0  0  0  0  0  0  0  0  0  0  0  0
   -7.5440    3.7880    1.7350 C   0  0  0  0  0  0  0  0  0  0  0  0
   -8.4680    2.7760    1.7390 C   0  0  0  0  0  0  0  0  0  0  0  0
   -7.8410    1.6780    1.4080 O   0  0  0  0  0  0  0  0  0  0  0  0
   -1.8590    0.8320    0.2420 C   0  0  0  0  0  0  0  0  0  0  0  0
  1  2  1  0
  2  3  1  0
  3  4  1  0
  4  5  2  0
  4 12  1  0
  5  6  1  0
  6  7  2  0
  7  8  1  0
  7 11  1  0
  8  9  1  0
  8 10  2  0
 11 12  2  0
 12 13  1  0
 13 14  1  0
 14 15  2  0
 14 16  1  0
 16 17  2  0
 16 33  1  0
 17 18  1  0
 18 19  1  0
 18 23  2  0
 19 20  1  0
 20 21  1  0
 20 22  2  0
 23 24  1  0
 24 25  1  0
 24 33  2  0
 25 26  1  0
 26 27  2  0
 26 28  1  0
 28 29  2  0
 28 32  1  0
 29 30  1  0
 30 31  2  0
 31 32  1  0
M  END
