
     RDKit          3D

 12 12  0  0  0  0  0  0  0  0999 V2000
    0.5240   -2.2900    0.1150 O   0  0  0  0  0  0  0  0  0  0  0  0
    0.2510   -1.0740    0.0520 C   0  0  0  0  0  0  0  0  0  0  0  0
    1.2900   -0.1700    0.0330 O   0  0  0  0  0  0  0  0  0  0  0  0
    2.6500   -0.5350    0.0800 C   0  0  0  0  0  0  0  0  0  0  0  0
    3.4440    0.7750    0.0370 C   0  0  0  0  0  0  0  0  0  0  0  0
    3.0850    1.5660    1.1500 O   0  0  0  0  0  0  0  0  0  0  0  0
   -1.1270   -0.5530   -0.0030 C   0  0  0  0  0  0  0  0  0  0  0  0
   -1.3000    0.7450   -0.0680 C   0  0  0  0  0  0  0  0  0  0  0  0
   -2.6560    1.3270   -0.1260 C   0  0  0  0  0  0  0  0  0  0  0  0
   -3.6360    0.3540   -0.1020 O   0  0  0  0  0  0  0  0  0  0  0  0
   -3.4650   -1.0130   -0.0340 C   0  0  0  0  0  0  0  0  0  0  0  0
   -2.2460   -1.5130    0.0170 C   0  0  0  0  0  0  0  0  0  0  0  0
  1  2  2  0
  2  3  1  0
  2  7  1  0
  3  4  1  0
  4  5  1  0
  5  6  1  0
  7  8  2  0
  7 12  1  0
  8  9  1  0
  9 10  1  0
 10 11  1  0
 11 12  2  0
M  END
