
     RDKit          3D

 11 11  0  0  0  0  0  0  0  0999 V2000
    3.0960    0.5370   -0.0810 N   0  0  0  0  0  0  0  0  0  0  0  0
    2.5890   -0.4420    0.8510 C   0  0  0  0  0  0  0  0  0  0  0  0
    1.3650   -1.1250    0.3000 C   0  0  0  0  0  0  0  0  0  0  0  0
    0.3740   -0.1800    0.0620 O   0  0  0  0  0  0  0  0  0  0  0  0
   -0.7820   -0.7200   -0.4440 C   0  0  2  0  0  0  0  0  0  0  0  0
   -1.2570    0.0440   -1.6890 C   0  0  0  0  0  0  0  0  0  0  0  0
   -1.3920    1.3200   -1.1450 O   0  0  0  0  0  0  0  0  0  0  0  0
   -1.9880    1.2000    0.0790 C   0  0  2  0  0  0  0  0  0  0  0  0
   -1.2250    1.9140    1.0280 O   0  0  0  0  0  0  0  0  0  0  0  0
   -1.9180   -0.2620    0.4850 C   0  0  1  0  0  0  0  0  0  0  0  0
   -3.1050   -0.8940    0.1120 O   0  0  0  0  0  0  0  0  0  0  0  0
  1  2  1  0
  2  3  1  0
  3  4  1  0
  5  4  1  1
  5  6  1  0
  5 10  1  0
  6  7  1  0
  7  8  1  0
  8  9  1  1
  8 10  1  0
 10 11  1  6
M  CHG  1   1   1
M  END
