
     RDKit          3D

 11 11  0  0  0  0  0  0  0  0999 V2000
    2.8860    0.5220    0.6600 O   0  0  0  0  0  0  0  0  0  0  0  0
    2.0710   -0.5440    0.3100 C   0  0  0  0  0  0  0  0  0  0  0  0
    0.9970   -0.0070   -0.6130 C   0  0  1  0  0  0  0  0  0  0  0  0
    0.0780   -1.0380   -1.0480 N   0  0  0  0  0  0  0  0  0  0  0  0
   -0.8980   -1.3710   -0.0410 C   0  0  0  0  0  0  0  0  0  0  0  0
   -1.7690   -0.1180    0.1220 C   0  0  2  0  0  0  0  0  0  0  0  0
   -2.1300    0.3980   -1.1230 O   0  0  0  0  0  0  0  0  0  0  0  0
   -0.8780    0.9100    0.7870 C   0  0  1  0  0  0  0  0  0  0  0  0
   -0.5150    0.4580    2.0560 O   0  0  0  0  0  0  0  0  0  0  0  0
    0.3000    1.1940   -0.0790 C   0  0  2  0  0  0  0  0  0  0  0  0
   -0.1050    2.0240   -1.1460 O   0  0  0  0  0  0  0  0  0  0  0  0
  1  2  1  0
  3  2  1  1
  3  4  1  0
  3 10  1  0
  4  5  1  0
  5  6  1  0
  6  7  1  6
  6  8  1  0
  8  9  1  1
  8 10  1  0
 10 11  1  6
M  CHG  1   4   1
M  END
