
     RDKit          3D

 11 11  0  0  0  0  0  0  0  0999 V2000
    1.3940    1.2000   -0.5150 N   0  0  0  0  0  0  0  0  0  0  0  0
    0.9180   -0.1200   -0.2310 C   0  0  1  0  0  0  0  0  0  0  0  0
    1.6140   -0.6870    0.9790 C   0  0  0  0  0  0  0  0  0  0  0  0
    2.9790   -0.7240    0.6930 O   0  0  0  0  0  0  0  0  0  0  0  0
   -0.5690   -0.0930   -0.1110 C   0  0  2  0  0  0  0  0  0  0  0  0
   -1.0850    0.8000    0.9690 C   0  0  0  0  0  0  0  0  0  0  0  0
   -2.4840    0.7170    0.9550 O   0  0  0  0  0  0  0  0  0  0  0  0
   -1.1740   -1.4800    0.0380 C   0  0  0  0  0  0  0  0  0  0  0  0
   -1.0900   -1.9460   -1.2450 O   0  0  0  0  0  0  0  0  0  0  0  0
   -1.1410   -0.9910   -2.0870 O   0  0  0  0  0  0  0  0  0  0  0  0
   -1.1500    0.2270   -1.4730 C   0  0  0  0  0  0  0  0  0  0  0  0
  2  1  1  1
  2  3  1  0
  2  5  1  0
  3  4  1  0
  5  6  1  1
  5  8  1  0
  5 11  1  0
  6  7  1  0
  8  9  1  0
  9 10  1  0
 10 11  1  0
M  CHG  1   1   1
M  END
