
     RDKit          3D

 11 11  0  0  0  0  0  0  0  0999 V2000
   -2.5090   -0.6990    0.3890 N   0  0  0  0  0  0  0  0  0  0  0  0
   -1.6930    0.3440   -0.2500 C   0  0  1  0  0  0  0  0  0  0  0  0
   -1.3290    1.3680    0.7840 C   0  0  0  0  0  0  0  0  0  0  0  0
   -0.2240    2.1110    0.4940 O   0  0  0  0  0  0  0  0  0  0  0  0
    0.8880    1.4130    0.1080 C   0  0  0  0  0  0  0  0  0  0  0  0
    0.6360   -0.0470    0.2540 C   0  0  2  0  0  0  0  0  0  0  0  0
    1.8070   -0.9190   -0.0380 C   0  0  0  0  0  0  0  0  0  0  0  0
    2.8380   -0.5740    0.8570 O   0  0  0  0  0  0  0  0  0  0  0  0
    3.8970   -1.3100    0.6480 O   0  0  0  0  0  0  0  0  0  0  0  0
   -0.4530   -0.3890   -0.7740 C   0  0  2  0  0  0  0  0  0  0  0  0
   -0.0450    0.1260   -1.9930 O   0  0  0  0  0  0  0  0  0  0  0  0
  2  1  1  1
  2  3  1  0
  2 10  1  0
  3  4  1  0
  4  5  1  0
  5  6  1  0
  6  7  1  6
  6 10  1  0
  7  8  1  0
  8  9  1  0
 10 11  1  6
M  CHG  1   1   1
M  END
