
     RDKit          3D

 11 11  0  0  0  0  0  0  0  0999 V2000
   -0.5080   -1.1550   -0.7880 N   0  0  0  0  0  0  0  0  0  0  0  0
   -0.4610   -0.1080    0.1610 C   0  0  2  0  0  0  0  0  0  0  0  0
   -0.8790   -0.6060    1.5280 C   0  0  0  0  0  0  0  0  0  0  0  0
   -2.1620   -1.1020    1.5110 O   0  0  0  0  0  0  0  0  0  0  0  0
   -1.5280    0.9220   -0.2570 C   0  0  0  0  0  0  0  0  0  0  0  0
   -0.6930    1.7420   -1.2340 C   0  0  0  0  0  0  0  0  0  0  0  0
    0.5800    1.7750   -0.7220 O   0  0  0  0  0  0  0  0  0  0  0  0
    0.7300    0.7560    0.1840 C   0  0  2  0  0  0  0  0  0  0  0  0
    2.0520    0.0920   -0.0170 C   0  0  2  0  0  0  0  0  0  0  0  0
    2.2290   -0.4590   -1.2660 O   0  0  0  0  0  0  0  0  0  0  0  0
    2.3350   -0.8200    1.0180 O   0  0  0  0  0  0  0  0  0  0  0  0
  2  1  1  6
  2  3  1  0
  2  5  1  0
  2  8  1  0
  3  4  1  0
  5  6  1  0
  6  7  1  0
  8  7  1  6
  8  9  1  0
  9 10  1  6
  9 11  1  0
M  CHG  1   1   1
M  END
