
     RDKit          3D

 10 10  0  0  0  0  0  0  0  0999 V2000
    2.5560    1.3840    0.8230 O   0  0  0  0  0  0  0  0  0  0  0  0
    2.2990    0.6610   -0.3380 C   0  0  0  0  0  0  0  0  0  0  0  0
    1.2540   -0.3740   -0.0940 C   0  0  2  0  0  0  0  0  0  0  0  0
    1.0470   -1.0600   -1.2990 O   0  0  0  0  0  0  0  0  0  0  0  0
   -0.0420    0.1650    0.4310 C   0  0  2  0  0  0  0  0  0  0  0  0
    0.1980    0.8360    1.6220 O   0  0  0  0  0  0  0  0  0  0  0  0
   -0.9590   -1.0190    0.7000 C   0  0  0  0  0  0  0  0  0  0  0  0
   -2.3050   -0.5040    0.2250 C   0  0  0  0  0  0  0  0  0  0  0  0
   -1.8930    0.1470   -1.0280 N   0  0  0  0  0  0  0  0  0  0  0  0
   -0.8100    0.9960   -0.5180 C   0  0  0  0  0  0  0  0  0  0  0  0
  1  2  1  0
  2  3  1  0
  3  4  1  6
  3  5  1  0
  5  6  1  1
  5  7  1  0
  5 10  1  0
  7  8  1  0
  8  9  1  0
  9 10  1  0
M  CHG  1   9   1
M  END
