
     RDKit          3D

 20 21  0  0  0  0  0  0  0  0999 V2000
   -3.5190    2.0700   -0.6700 C   0  0  0  0  0  0  0  0  0  0  0  0
   -2.6740    0.9340   -0.1480 C   0  0  0  0  0  0  0  0  0  0  0  0
   -3.2230   -0.2030    0.3760 C   0  0  0  0  0  0  0  0  0  0  0  0
   -2.4660   -1.2800    0.8600 C   0  0  0  0  0  0  0  0  0  0  0  0
   -3.1310   -2.4810    1.4150 C   0  0  2  0  0  0  0  0  0  0  0  0
   -2.6160   -2.9050    2.6270 F   0  0  0  0  0  0  0  0  0  0  0  0
   -2.9660   -3.5020    0.4550 F   0  0  0  0  0  0  0  0  0  0  0  0
   -4.4740   -2.2410    1.4910 F   0  0  0  0  0  0  0  0  0  0  0  0
   -1.0850   -1.1230    0.7810 C   0  0  0  0  0  0  0  0  0  0  0  0
   -0.4970    0.0230    0.2530 C   0  0  0  0  0  0  0  0  0  0  0  0
    0.9420    0.1180    0.1510 C   0  0  0  0  0  0  0  0  0  0  0  0
    1.3480    1.2170   -0.4220 O   0  0  0  0  0  0  0  0  0  0  0  0
    1.8750   -0.7440    0.5620 O   0  0  0  0  0  0  0  0  0  0  0  0
    3.2500   -0.5020    0.3420 C   0  0  0  0  0  0  0  0  0  0  0  0
    4.2440   -0.9960    1.0520 C   0  0  0  0  0  0  0  0  0  0  0  0
    5.5260   -0.4970    0.4910 C   0  0  0  0  0  0  0  0  0  0  0  0
    5.1460    0.3240   -0.6130 N   0  0  0  0  0  0  0  0  0  0  0  0
    3.8620    0.3240   -0.7020 C   0  0  0  0  0  0  0  0  0  0  0  0
   -1.2870    1.0410   -0.2070 C   0  0  0  0  0  0  0  0  0  0  0  0
   -0.7550    2.2620   -0.7700 N   0  0  0  0  0  0  0  0  0  0  0  0
  1  2  1  0
  2  3  2  0
  2 19  1  0
  3  4  1  0
  4  5  1  0
  4  9  2  0
  5  6  1  1
  5  7  1  0
  5  8  1  0
  9 10  1  0
 10 11  1  0
 10 19  2  0
 11 12  2  0
 11 13  1  0
 13 14  1  0
 14 15  2  0
 14 18  1  0
 15 16  1  0
 16 17  1  0
 17 18  2  0
 19 20  1  0
M  END
