
     RDKit          3D

 20 21  0  0  0  0  0  0  0  0999 V2000
    0.3700    1.0440   -0.7060 O   0  0  0  0  0  0  0  0  0  0  0  0
    0.2420   -0.1380   -0.3160 C   0  0  0  0  0  0  0  0  0  0  0  0
    1.4180   -0.8890   -0.0530 N   0  0  0  0  0  0  0  0  0  0  0  0
    2.7030   -0.3190   -0.2210 C   0  0  0  0  0  0  0  0  0  0  0  0
    3.5310   -0.8620   -1.0900 C   0  0  0  0  0  0  0  0  0  0  0  0
    3.1160   -2.0690   -1.8910 C   0  0  2  0  0  0  0  0  0  0  0  0
    2.8830   -3.1380   -1.0380 F   0  0  0  0  0  0  0  0  0  0  0  0
    4.1230   -2.4470   -2.7520 F   0  0  0  0  0  0  0  0  0  0  0  0
    1.9290   -1.8280   -2.5640 F   0  0  0  0  0  0  0  0  0  0  0  0
    3.1740    0.8420    0.5160 C   0  0  0  0  0  0  0  0  0  0  0  0
    2.4490    1.5270    1.4680 C   0  0  0  0  0  0  0  0  0  0  0  0
    3.2510    2.5440    1.9130 C   0  0  0  0  0  0  0  0  0  0  0  0
    4.4360    2.4490    1.2210 C   0  0  0  0  0  0  0  0  0  0  0  0
    4.3400    1.4340    0.4140 O   0  0  0  0  0  0  0  0  0  0  0  0
   -1.0450   -0.7140   -0.1430 N   0  0  0  0  0  0  0  0  0  0  0  0
   -2.2590    0.0080   -0.3980 C   0  0  2  0  0  0  0  0  0  0  0  0
   -3.0630    0.0090    0.9080 C   0  0  0  0  0  0  0  0  0  0  0  0
   -4.4080    0.4580    0.4310 C   0  0  0  0  0  0  0  0  0  0  0  0
   -4.5920   -0.2880   -0.8580 C   0  0  0  0  0  0  0  0  0  0  0  0
   -3.2090   -0.7270   -1.3140 C   0  0  0  0  0  0  0  0  0  0  0  0
  1  2  2  0
  2  3  1  0
  2 15  1  0
  3  4  1  0
  4  5  2  3
  4 10  1  0
  5  6  1  0
  6  7  1  1
  6  8  1  0
  6  9  1  0
 10 11  2  0
 10 14  1  0
 11 12  1  0
 12 13  2  0
 13 14  1  0
 16 15  1  1
 16 17  1  0
 16 20  1  0
 17 18  1  0
 18 19  1  0
 19 20  1  0
M  END
