
     RDKit          3D

 14 14  0  0  0  0  0  0  0  0999 V2000
   -4.1550    0.5980    0.2750 O   0  0  0  0  0  0  0  0  0  0  0  0
   -2.8890    0.2180    0.7210 C   0  0  0  0  0  0  0  0  0  0  0  0
   -1.8210    0.7650   -0.2140 C   0  0  0  0  0  0  0  0  0  0  0  0
   -0.4930    0.3840    0.2280 N   0  0  2  0  0  0  0  0  0  0  0  0
    0.3250    1.5320    0.2870 C   0  0  0  0  0  0  0  0  0  0  0  0
    1.7810    1.3370    0.3840 C   0  0  2  0  0  0  0  0  0  0  0  0
    2.4120    2.4210   -0.2740 O   0  0  0  0  0  0  0  0  0  0  0  0
    2.3290    0.0880   -0.1970 C   0  0  1  0  0  0  0  0  0  0  0  0
    3.5960   -0.1750    0.3190 O   0  0  0  0  0  0  0  0  0  0  0  0
    1.3860   -1.0510    0.1290 C   0  0  2  0  0  0  0  0  0  0  0  0
    1.8520   -2.2770   -0.2580 O   0  0  0  0  0  0  0  0  0  0  0  0
    0.0830   -0.6670   -0.5780 C   0  0  1  0  0  0  0  0  0  0  0  0
   -0.8150   -1.8490   -0.7380 C   0  0  0  0  0  0  0  0  0  0  0  0
   -0.1280   -2.7830   -1.5380 O   0  0  0  0  0  0  0  0  0  0  0  0
  1  2  1  0
  2  3  1  0
  4  3  1  6
  4  5  1  0
  4 12  1  0
  5  6  1  0
  6  7  1  6
  6  8  1  0
  8  9  1  1
  8 10  1  0
 10 11  1  6
 10 12  1  0
 12 13  1  1
 13 14  1  0
M  CHG  1   4   1
M  END
