
     RDKit          3D

 20 21  0  0  0  0  0  0  0  0999 V2000
   -3.4320    2.3830   -0.5490 C   0  0  0  0  0  0  0  0  0  0  0  0
   -4.0360    1.0800   -0.1600 C   0  0  0  0  0  0  0  0  0  0  0  0
   -3.3010    0.0560    0.2450 C   0  0  0  0  0  0  0  0  0  0  0  0
   -1.8390    0.2070    0.3160 C   0  0  0  0  0  0  0  0  0  0  0  0
   -1.1920   -0.7280   -0.5710 N   0  0  0  0  0  0  0  0  0  0  0  0
    0.2240   -0.7620   -0.6010 C   0  0  0  0  0  0  0  0  0  0  0  0
    0.8770   -1.6430   -1.4360 C   0  0  0  0  0  0  0  0  0  0  0  0
    2.2610   -1.6900   -1.4780 C   0  0  0  0  0  0  0  0  0  0  0  0
    2.9870   -0.8200   -0.6520 C   0  0  0  0  0  0  0  0  0  0  0  0
    2.3370    0.0620    0.1830 C   0  0  0  0  0  0  0  0  0  0  0  0
    0.9430    0.0910    0.2090 C   0  0  0  0  0  0  0  0  0  0  0  0
    3.1320    0.9140    0.9930 N   0  0  0  0  0  0  0  0  0  0  0  0
    4.5510    0.8700    0.9530 C   0  0  0  0  0  0  0  0  0  0  0  0
    5.2610    1.8390    1.3660 O   0  0  0  0  0  0  0  0  0  0  0  0
    5.1650   -0.3740    0.4000 C   0  0  0  0  0  0  0  0  0  0  0  0
    4.3680   -0.8500   -0.6790 O   0  0  0  0  0  0  0  0  0  0  0  0
   -3.9420   -1.2100    0.6440 C   0  0  2  0  0  0  0  0  0  0  0  0
   -5.3280   -1.1090    0.5430 F   0  0  0  0  0  0  0  0  0  0  0  0
   -3.6060   -1.5520    1.9430 F   0  0  0  0  0  0  0  0  0  0  0  0
   -3.4780   -2.2180   -0.1650 F   0  0  0  0  0  0  0  0  0  0  0  0
  1  2  1  0
  2  3  2  3
  3  4  1  0
  3 17  1  0
  4  5  1  0
  5  6  1  0
  6  7  2  0
  6 11  1  0
  7  8  1  0
  8  9  2  0
  9 10  1  0
  9 16  1  0
 10 11  2  0
 10 12  1  0
 12 13  1  0
 13 14  2  0
 13 15  1  0
 15 16  1  0
 17 18  1  1
 17 19  1  0
 17 20  1  0
M  END
