
     RDKit          3D

 20 21  0  0  0  0  0  0  0  0999 V2000
    0.2030   -1.0950    2.5770 O   0  0  0  0  0  0  0  0  0  0  0  0
    1.3160   -0.8710    2.1450 C   0  0  0  0  0  0  0  0  0  0  0  0
    1.6790   -0.4050    0.8130 C   0  0  0  0  0  0  0  0  0  0  0  0
    3.0450   -0.3300    0.4970 C   0  0  0  0  0  0  0  0  0  0  0  0
    3.4870    0.0580   -0.7280 C   0  0  0  0  0  0  0  0  0  0  0  0
    4.9560    0.1690   -1.0570 C   0  0  1  0  0  0  0  0  0  0  0  0
    5.5740   -1.0800   -1.0580 F   0  0  0  0  0  0  0  0  0  0  0  0
    5.0850    0.7650   -2.2790 F   0  0  0  0  0  0  0  0  0  0  0  0
    5.5660    0.9890   -0.1060 F   0  0  0  0  0  0  0  0  0  0  0  0
    2.5350    0.3800   -1.6640 C   0  0  0  0  0  0  0  0  0  0  0  0
    1.1600    0.3140   -1.3800 C   0  0  0  0  0  0  0  0  0  0  0  0
    0.7210   -0.0780   -0.1380 C   0  0  0  0  0  0  0  0  0  0  0  0
   -0.6350   -0.0510    0.1970 N   0  0  0  0  0  0  0  0  0  0  0  0
   -1.7500   -0.0340   -0.6910 C   0  0  0  0  0  0  0  0  0  0  0  0
   -1.5790   -0.0670   -1.9090 O   0  0  0  0  0  0  0  0  0  0  0  0
   -3.1110    0.0250   -0.1100 C   0  0  0  0  0  0  0  0  0  0  0  0
   -3.6260    1.1770    0.5070 C   0  0  0  0  0  0  0  0  0  0  0  0
   -4.9140    0.9130    0.9340 C   0  0  0  0  0  0  0  0  0  0  0  0
   -5.1860   -0.3620    0.5940 N   0  0  0  0  0  0  0  0  0  0  0  0
   -4.1030   -0.9020   -0.0370 C   0  0  0  0  0  0  0  0  0  0  0  0
  1  2  2  0
  2  3  1  0
  3  4  2  0
  3 12  1  0
  4  5  1  0
  5  6  1  0
  5 10  2  0
  6  7  1  6
  6  8  1  0
  6  9  1  0
 10 11  1  0
 11 12  2  0
 12 13  1  0
 13 14  1  0
 14 15  2  0
 14 16  1  0
 16 17  1  0
 16 20  2  0
 17 18  2  0
 18 19  1  0
 19 20  1  0
M  END
