
     RDKit          3D

 20 21  0  0  0  0  0  0  0  0999 V2000
   -0.6080   -0.8440    2.4720 C   0  0  0  0  0  0  0  0  0  0  0  0
   -1.1380   -0.2170    1.2510 C   0  0  0  0  0  0  0  0  0  0  0  0
   -0.3780    0.3310    0.2130 C   0  0  0  0  0  0  0  0  0  0  0  0
    1.0720    0.4030    0.1110 C   0  0  0  0  0  0  0  0  0  0  0  0
    1.7410   -0.0850    1.0580 O   0  0  0  0  0  0  0  0  0  0  0  0
    1.7510    0.9760   -0.9710 N   0  0  0  0  0  0  0  0  0  0  0  0
    3.1950    1.0640   -1.1120 C   0  0  0  0  0  0  0  0  0  0  0  0
    3.8390   -0.2870   -1.1200 C   0  0  0  0  0  0  0  0  0  0  0  0
    5.2540   -0.2170   -1.2850 N   0  0  0  0  0  0  0  0  0  0  0  0
    5.9970    0.3330   -0.1970 C   0  0  1  0  0  0  0  0  0  0  0  0
    5.7390    1.6450    0.0980 F   0  0  0  0  0  0  0  0  0  0  0  0
    5.8540   -0.4720    0.9460 F   0  0  0  0  0  0  0  0  0  0  0  0
    7.3540    0.2800   -0.5570 F   0  0  0  0  0  0  0  0  0  0  0  0
   -1.2260    0.7760   -0.6650 O   0  0  0  0  0  0  0  0  0  0  0  0
   -2.4680    0.5690   -0.2970 C   0  0  0  0  0  0  0  0  0  0  0  0
   -2.4680   -0.0750    0.9420 C   0  0  0  0  0  0  0  0  0  0  0  0
   -3.7690   -0.4070    1.5450 C   0  0  0  0  0  0  0  0  0  0  0  0
   -4.6110   -1.1110    0.4960 C   0  0  0  0  0  0  0  0  0  0  0  0
   -4.7720   -0.2700   -0.7200 C   0  0  0  0  0  0  0  0  0  0  0  0
   -3.8030    0.8530   -0.8770 C   0  0  0  0  0  0  0  0  0  0  0  0
  1  2  1  0
  2  3  2  0
  2 16  1  0
  3  4  1  0
  3 14  1  0
  4  5  2  0
  4  6  1  0
  6  7  1  0
  7  8  1  0
  8  9  1  0
  9 10  1  0
 10 11  1  1
 10 12  1  0
 10 13  1  0
 14 15  1  0
 15 16  2  0
 15 20  1  0
 16 17  1  0
 17 18  1  0
 18 19  1  0
 19 20  1  0
M  END
