
     RDKit          3D

 20 20  0  0  0  0  0  0  0  0999 V2000
   -4.5350    0.0910   -1.3130 C   0  0  0  0  0  0  0  0  0  0  0  0
   -3.2420    0.4800   -0.6910 C   0  0  0  0  0  0  0  0  0  0  0  0
   -2.7960   -0.0450    0.4380 C   0  0  0  0  0  0  0  0  0  0  0  0
   -3.5890   -1.0540    1.1290 C   0  0  0  0  0  0  0  0  0  0  0  0
   -2.8400   -1.8670    2.1390 C   0  0  0  0  0  0  0  0  0  0  0  0
   -1.6760   -1.1640    2.7580 C   0  0  0  0  0  0  0  0  0  0  0  0
   -1.6100    0.2930    2.4790 C   0  0  0  0  0  0  0  0  0  0  0  0
   -1.4810    0.4320    0.9490 C   0  0  1  0  0  0  0  0  0  0  0  0
   -0.4040   -0.3170    0.4650 N   0  0  0  0  0  0  0  0  0  0  0  0
    0.7080    0.3980   -0.2310 C   0  0  0  0  0  0  0  0  0  0  0  0
    0.6460    1.5910   -0.3650 O   0  0  0  0  0  0  0  0  0  0  0  0
    1.6430   -0.5760   -0.5930 N   0  0  0  0  0  0  0  0  0  0  0  0
    2.8010    0.4880   -1.3040 C   0  0  0  0  0  0  0  0  0  0  0  0
    2.4920    1.6000   -1.2900 O   0  0  0  0  0  0  0  0  0  0  0  0
    3.9580   -0.2150   -1.7910 C   0  0  0  0  0  0  0  0  0  0  0  0
    5.0120    0.6790   -2.3350 C   0  0  0  0  0  0  0  0  0  0  0  0
    5.6120    1.6510   -1.3820 C   0  0  1  0  0  0  0  0  0  0  0  0
    6.5750    2.3750   -2.1130 F   0  0  0  0  0  0  0  0  0  0  0  0
    4.7760    2.5840   -0.8580 F   0  0  0  0  0  0  0  0  0  0  0  0
    6.2390    1.0160   -0.3100 F   0  0  0  0  0  0  0  0  0  0  0  0
  1  2  1  0
  2  3  2  3
  3  4  1  0
  3  8  1  0
  4  5  1  0
  5  6  1  0
  6  7  1  0
  7  8  1  0
  8  9  1  6
  9 10  1  0
 10 11  2  0
 10 12  1  0
 12 13  1  0
 13 14  2  0
 13 15  1  0
 15 16  1  0
 16 17  1  0
 17 18  1  6
 17 19  1  0
 17 20  1  0
M  END
