
     RDKit          3D

 20 21  0  0  0  0  0  0  0  0999 V2000
    0.9690   -0.6050    1.2930 O   0  0  0  0  0  0  0  0  0  0  0  0
    0.7680    0.0180    0.2310 C   0  0  0  0  0  0  0  0  0  0  0  0
   -0.6160    0.2450   -0.1450 N   0  0  0  0  0  0  0  0  0  0  0  0
   -1.6550   -0.2430    0.6960 C   0  0  0  0  0  0  0  0  0  0  0  0
   -2.9980    0.0460    0.2140 C   0  0  0  0  0  0  0  0  0  0  0  0
   -3.2190    0.7250   -0.9430 C   0  0  0  0  0  0  0  0  0  0  0  0
   -4.5440    0.9530   -1.3220 C   0  0  0  0  0  0  0  0  0  0  0  0
   -4.7670    1.6240   -2.4650 F   0  0  0  0  0  0  0  0  0  0  0  0
   -5.6160    0.5200   -0.5730 C   0  0  0  0  0  0  0  0  0  0  0  0
   -5.3800   -0.1630    0.5890 C   0  0  0  0  0  0  0  0  0  0  0  0
   -6.4490   -0.5790    1.3090 F   0  0  0  0  0  0  0  0  0  0  0  0
   -4.1010   -0.3910    0.9680 C   0  0  0  0  0  0  0  0  0  0  0  0
   -3.8760   -1.0660    2.1190 F   0  0  0  0  0  0  0  0  0  0  0  0
    1.8480    0.4760   -0.5590 N   0  0  0  0  0  0  0  0  0  0  0  0
    3.2160    0.2510   -0.1860 C   0  0  0  0  0  0  0  0  0  0  0  0
    3.9910   -0.4300   -0.9960 C   0  0  0  0  0  0  0  0  0  0  0  0
    5.4020   -0.7040   -0.6890 C   0  0  0  0  0  0  0  0  0  0  0  0
    5.7890   -0.1680    0.5200 O   0  0  0  0  0  0  0  0  0  0  0  0
    5.0160    0.5470    1.3940 C   0  0  0  0  0  0  0  0  0  0  0  0
    3.7380    0.7650    1.0620 C   0  0  0  0  0  0  0  0  0  0  0  0
  1  2  2  0
  2  3  1  0
  2 14  1  0
  3  4  1  0
  4  5  1  0
  5  6  2  0
  5 12  1  0
  6  7  1  0
  7  8  1  0
  7  9  2  0
  9 10  1  0
 10 11  1  0
 10 12  2  0
 12 13  1  0
 14 15  1  0
 15 16  2  0
 15 20  1  0
 16 17  1  0
 17 18  1  0
 18 19  1  0
 19 20  2  0
M  END
