
     RDKit          3D

 34 36  0  0  0  0  0  0  0  0999 V2000
   -1.2410    1.1470   -3.3480 C   0  0  0  0  0  0  0  0  0  0  0  0
   -0.1020    0.9050   -2.4250 C   0  0  0  0  0  0  0  0  0  0  0  0
    1.1250    0.5630   -2.9290 N   0  0  0  0  0  0  0  0  0  0  0  0
    2.1830    0.3530   -2.1310 C   0  0  0  0  0  0  0  0  0  0  0  0
    3.3260    0.0350   -2.5830 O   0  0  0  0  0  0  0  0  0  0  0  0
    2.0720    0.4760   -0.7400 C   0  0  0  0  0  0  0  0  0  0  0  0
    3.2700    0.2270    0.0650 C   0  0  0  0  0  0  0  0  0  0  0  0
    3.2810    0.5430    1.2780 O   0  0  0  0  0  0  0  0  0  0  0  0
    4.3940   -0.3500   -0.4760 O   0  0  0  0  0  0  0  0  0  0  0  0
    5.6020   -0.6300    0.1650 C   0  0  0  0  0  0  0  0  0  0  0  0
    6.4720   -1.3380   -0.7990 C   0  0  0  0  0  0  0  0  0  0  0  0
    6.0400   -1.6480   -1.8870 O   0  0  0  0  0  0  0  0  0  0  0  0
    8.1470   -1.7510   -0.4200 S   0  0  0  0  0  0  0  0  0  0  0  0
    8.7100   -1.0050    1.1110 C   0  0  1  0  0  0  0  0  0  0  0  0
   10.1290   -1.4830    1.4370 C   0  0  0  0  0  0  0  0  0  0  0  0
    8.8500    0.5010    0.9310 C   0  0  0  0  0  0  0  0  0  0  0  0
    0.8550    0.8140   -0.2290 C   0  0  0  0  0  0  0  0  0  0  0  0
   -0.2570    1.0350   -1.0680 C   0  0  0  0  0  0  0  0  0  0  0  0
   -1.5390    1.3700   -0.4970 C   0  0  0  0  0  0  0  0  0  0  0  0
   -2.3680    2.0020   -1.1930 O   0  0  0  0  0  0  0  0  0  0  0  0
   -1.9560    1.0250    0.8460 C   0  0  0  0  0  0  0  0  0  0  0  0
   -2.4590   -0.1940    1.2460 C   0  0  0  0  0  0  0  0  0  0  0  0
   -2.8000   -1.6810    0.3350 S   0  0  0  0  0  0  0  0  0  0  0  0
   -4.4950   -1.7650   -0.2930 C   0  0  2  0  0  0  0  0  0  0  0  0
   -4.7150   -0.6920   -1.3060 C   0  0  0  0  0  0  0  0  0  0  0  0
   -5.3950    0.5000   -0.6750 C   0  0  0  0  0  0  0  0  0  0  0  0
   -6.7820    0.1050   -0.2770 C   0  0  0  0  0  0  0  0  0  0  0  0
   -6.8550   -1.2220    0.4140 C   0  0  1  0  0  0  0  0  0  0  0  0
   -7.6460   -2.1600   -0.4600 C   0  0  0  0  0  0  0  0  0  0  0  0
   -5.5060   -1.7660    0.8150 C   0  0  0  0  0  0  0  0  0  0  0  0
   -2.6940   -0.0620    2.5820 N   0  0  0  0  0  0  0  0  0  0  0  0
   -2.3690    1.1400    2.9920 N   0  0  0  0  0  0  0  0  0  0  0  0
   -1.9040    1.8510    1.9390 C   0  0  0  0  0  0  0  0  0  0  0  0
   -1.4430    3.2740    2.0590 C   0  0  0  0  0  0  0  0  0  0  0  0
  1  2  1  0
  2  3  1  0
  2 18  2  0
  3  4  1  0
  4  5  2  0
  4  6  1  0
  6  7  1  0
  6 17  2  0
  7  8  2  0
  7  9  1  0
  9 10  1  0
 10 11  1  0
 11 12  2  0
 11 13  1  0
 13 14  1  0
 14 15  1  6
 14 16  1  0
 17 18  1  0
 18 19  1  0
 19 20  2  0
 19 21  1  0
 21 22  1  0
 21 33  2  0
 22 23  1  0
 22 31  2  0
 24 23  1  1
 24 25  1  0
 24 30  1  0
 25 26  1  0
 26 27  1  0
 27 28  1  0
 28 29  1  6
 28 30  1  0
 31 32  1  0
 32 33  1  0
 33 34  1  0
M  END
