
     RDKit          3D

 35 37  0  0  0  0  0  0  0  0999 V2000
   -6.4560    2.4140    0.4000 C   0  0  0  0  0  0  0  0  0  0  0  0
   -7.4390    1.4020    0.8860 C   0  0  0  0  0  0  0  0  0  0  0  0
   -8.5850    1.7550    1.2120 O   0  0  0  0  0  0  0  0  0  0  0  0
   -7.0560    0.0030    0.9780 C   0  0  0  0  0  0  0  0  0  0  0  0
   -7.9360   -0.9330    1.4240 C   0  0  0  0  0  0  0  0  0  0  0  0
   -7.5770   -2.2420    1.5100 C   0  0  0  0  0  0  0  0  0  0  0  0
   -6.2980   -2.7070    1.1520 C   0  0  0  0  0  0  0  0  0  0  0  0
   -6.0430   -4.1100    1.3200 C   0  0  0  0  0  0  0  0  0  0  0  0
   -4.9690   -4.6880    1.0950 O   0  0  0  0  0  0  0  0  0  0  0  0
   -5.3830   -1.7670    0.6940 C   0  0  0  0  0  0  0  0  0  0  0  0
   -4.1060   -2.1910    0.2870 N   0  0  0  0  0  0  0  0  0  0  0  0
   -3.0630   -1.3070   -0.0490 C   0  0  0  0  0  0  0  0  0  0  0  0
   -3.1540   -0.0920   -0.0200 O   0  0  0  0  0  0  0  0  0  0  0  0
   -1.7580   -1.9100   -0.4690 C   0  0  0  0  0  0  0  0  0  0  0  0
   -0.7820   -0.8870   -0.7890 N   0  0  0  0  0  0  0  0  0  0  0  0
   -0.9830    0.0690   -1.8110 C   0  0  0  0  0  0  0  0  0  0  0  0
   -2.0490    0.0200   -2.4580 O   0  0  0  0  0  0  0  0  0  0  0  0
    0.0460    1.1010   -2.1040 C   0  0  0  0  0  0  0  0  0  0  0  0
   -0.0890    1.9930   -3.0260 C   0  0  0  0  0  0  0  0  0  0  0  0
    1.2610    3.1160   -3.1940 S   0  0  0  0  0  0  0  0  0  0  0  0
    1.6880    3.3110   -4.6210 O   0  0  0  0  0  0  0  0  0  0  0  0
    2.5180    2.3260   -2.2300 C   0  0  0  0  0  0  0  0  0  0  0  0
    3.7790    2.5410   -2.2950 N   0  0  0  0  0  0  0  0  0  0  0  0
    4.7360    1.8760   -1.4950 C   0  0  0  0  0  0  0  0  0  0  0  0
    5.3280    2.5660   -0.4540 C   0  0  0  0  0  0  0  0  0  0  0  0
    6.2780    1.9620    0.3670 C   0  0  0  0  0  0  0  0  0  0  0  0
    6.6620    0.6560    0.1720 C   0  0  0  0  0  0  0  0  0  0  0  0
    7.6600   -0.0520    0.9990 C   0  0  1  0  0  0  0  0  0  0  0  0
    8.1950    0.8810    2.0400 C   0  0  0  0  0  0  0  0  0  0  0  0
    7.0900   -1.2540    1.7170 C   0  0  0  0  0  0  0  0  0  0  0  0
    6.0530   -0.0250   -0.8840 C   0  0  0  0  0  0  0  0  0  0  0  0
    6.4160   -1.3140   -1.0980 F   0  0  0  0  0  0  0  0  0  0  0  0
    5.1120    0.5740   -1.6980 C   0  0  0  0  0  0  0  0  0  0  0  0
    1.5890    1.2040   -1.1940 S   0  0  0  0  0  0  0  0  0  0  0  0
   -5.7880   -0.4390    0.6200 C   0  0  0  0  0  0  0  0  0  0  0  0
  1  2  1  0
  2  3  2  0
  2  4  1  0
  4  5  2  0
  4 35  1  0
  5  6  1  0
  6  7  2  0
  7  8  1  0
  7 10  1  0
  8  9  2  0
 10 11  1  0
 10 35  2  0
 11 12  1  0
 12 13  2  0
 12 14  1  0
 14 15  1  0
 15 16  1  0
 16 17  2  0
 16 18  1  0
 18 19  2  0
 18 34  1  0
 20 19  1  6
 20 21  2  0
 20 22  1  0
 22 23  2  3
 22 34  1  0
 23 24  1  0
 24 25  2  0
 24 33  1  0
 25 26  1  0
 26 27  2  0
 27 28  1  0
 27 31  1  0
 28 29  1  1
 28 30  1  0
 31 32  1  0
 31 33  2  0
M  END
