
     RDKit          3D

 35 37  0  0  0  0  0  0  0  0999 V2000
    2.6670   -3.1270    3.7490 C   0  0  0  0  0  0  0  0  0  0  0  0
    3.1510   -2.1860    2.6790 C   0  0  0  0  0  0  0  0  0  0  0  0
    4.2440   -1.4050    2.9490 C   0  0  0  0  0  0  0  0  0  0  0  0
    4.6890   -0.5450    1.9790 C   0  0  0  0  0  0  0  0  0  0  0  0
    4.0410   -0.4630    0.7290 C   0  0  0  0  0  0  0  0  0  0  0  0
    4.5680    0.4940   -0.2680 C   0  0  0  0  0  0  0  0  0  0  0  0
    2.9580   -1.2250    0.4370 C   0  0  0  0  0  0  0  0  0  0  0  0
    2.2710   -1.2300   -0.7030 O   0  0  0  0  0  0  0  0  0  0  0  0
    1.5890   -0.3480   -1.4550 C   0  0  0  0  0  0  0  0  0  0  0  0
    2.0680    0.1380   -2.6420 C   0  0  0  0  0  0  0  0  0  0  0  0
    3.3660   -0.2920   -3.2350 C   0  0  0  0  0  0  0  0  0  0  0  0
    1.3420    1.0450   -3.3820 C   0  0  0  0  0  0  0  0  0  0  0  0
    0.1240    1.4960   -2.9730 C   0  0  0  0  0  0  0  0  0  0  0  0
   -0.8430    2.6390   -3.8590 S   0  0  1  0  0  0  0  0  0  0  0  0
   -0.4930    4.2640   -3.4150 N   0  0  0  0  0  0  0  0  0  0  0  0
   -0.6240    2.3900   -5.3250 O   0  0  0  0  0  0  0  0  0  0  0  0
   -2.2960    2.3160   -3.5740 O   0  0  0  0  0  0  0  0  0  0  0  0
   -0.3580    1.0070   -1.7810 C   0  0  0  0  0  0  0  0  0  0  0  0
    0.3340    0.1040   -1.0150 C   0  0  0  0  0  0  0  0  0  0  0  0
   -0.1970   -0.4120    0.2960 C   0  0  0  0  0  0  0  0  0  0  0  0
   -1.5120    0.1160    0.5980 N   0  0  0  0  0  0  0  0  0  0  0  0
   -2.7340   -0.1510   -0.0930 C   0  0  0  0  0  0  0  0  0  0  0  0
   -2.9040   -0.9670   -1.1470 C   0  0  0  0  0  0  0  0  0  0  0  0
   -4.2160   -1.1660   -1.7790 C   0  0  0  0  0  0  0  0  0  0  0  0
   -4.7170   -2.8830   -1.7100 S   0  0  2  0  0  0  0  0  0  0  0  0
   -4.3010   -3.4610   -0.3880 O   0  0  0  0  0  0  0  0  0  0  0  0
   -4.0280   -3.5920   -2.8530 O   0  0  0  0  0  0  0  0  0  0  0  0
   -3.7760    0.5900    0.5340 N   0  0  0  0  0  0  0  0  0  0  0  0
   -3.3040    0.8060    1.8900 C   0  0  1  0  0  0  0  0  0  0  0  0
   -3.5750   -0.3290    2.8100 C   0  0  0  0  0  0  0  0  0  0  0  0
   -1.8510    1.0360    1.6540 C   0  0  0  0  0  0  0  0  0  0  0  0
   -1.0310    1.8710    2.2490 C   0  0  0  0  0  0  0  0  0  0  0  0
   -1.4760    2.7910    3.3410 C   0  0  0  0  0  0  0  0  0  0  0  0
   -0.7330    2.4920    4.4860 F   0  0  0  0  0  0  0  0  0  0  0  0
    2.5270   -2.1000    1.4620 C   0  0  0  0  0  0  0  0  0  0  0  0
  1  2  1  0
  2  3  2  0
  2 35  1  0
  3  4  1  0
  4  5  2  0
  5  6  1  0
  5  7  1  0
  7  8  1  0
  7 35  2  0
  8  9  1  0
  9 10  2  0
  9 19  1  0
 10 11  1  0
 10 12  1  0
 12 13  2  0
 13 14  1  0
 13 18  1  0
 14 15  1  1
 14 16  2  0
 14 17  2  0
 18 19  2  0
 19 20  1  0
 20 21  1  0
 21 22  1  0
 21 31  1  0
 22 23  2  3
 22 28  1  0
 23 24  1  0
 25 24  1  1
 25 26  2  0
 25 27  2  0
 28 29  1  0
 29 30  1  1
 29 31  1  0
 31 32  2  3
 32 33  1  0
 33 34  1  0
M  END
