
     RDKit          3D

 35 37  0  0  0  0  0  0  0  0999 V2000
   10.3660    0.0940    0.7940 C   0  0  0  0  0  0  0  0  0  0  0  0
    9.8830   -0.5510   -0.4660 C   0  0  0  0  0  0  0  0  0  0  0  0
    8.6850    0.3300   -1.3590 S   0  0  0  0  0  0  0  0  0  0  0  0
    7.1200    0.6690   -0.6930 C   0  0  0  0  0  0  0  0  0  0  0  0
    6.6410    1.1120    0.3610 N   0  0  0  0  0  0  0  0  0  0  0  0
    5.2620    1.2430    0.5690 C   0  0  0  0  0  0  0  0  0  0  0  0
    4.8160    1.7240    1.6590 O   0  0  0  0  0  0  0  0  0  0  0  0
    4.4350    0.8060   -0.5300 C   0  0  0  0  0  0  0  0  0  0  0  0
    3.0890    0.6110   -0.6810 C   0  0  0  0  0  0  0  0  0  0  0  0
    2.9290    0.1610   -1.9960 O   0  0  0  0  0  0  0  0  0  0  0  0
    2.1210   -0.1390   -2.9600 C   0  0  0  0  0  0  0  0  0  0  0  0
    2.0960    0.8780    0.2960 C   0  0  0  0  0  0  0  0  0  0  0  0
    0.9140    0.6680    0.1230 C   0  0  0  0  0  0  0  0  0  0  0  0
   -0.5060    0.4660    0.0470 C   0  0  0  0  0  0  0  0  0  0  0  0
   -1.0190   -0.0140   -1.1310 C   0  0  0  0  0  0  0  0  0  0  0  0
   -2.4450   -0.1660   -1.1350 C   0  0  0  0  0  0  0  0  0  0  0  0
   -3.1500   -0.5400   -2.3850 C   0  0  2  0  0  0  0  0  0  0  0  0
   -4.5590   -0.1630   -2.4920 C   0  0  0  0  0  0  0  0  0  0  0  0
   -2.8560   -1.9430   -2.8270 C   0  0  0  0  0  0  0  0  0  0  0  0
   -2.8750    0.2130    0.0570 C   0  0  0  0  0  0  0  0  0  0  0  0
   -4.1020    0.2640    0.5270 N   0  0  0  0  0  0  0  0  0  0  0  0
   -5.2010   -0.1470    1.3020 C   0  0  0  0  0  0  0  0  0  0  0  0
   -5.2490    0.5070    2.5400 C   0  0  0  0  0  0  0  0  0  0  0  0
   -6.3620    0.2080    3.4270 C   0  0  0  0  0  0  0  0  0  0  0  0
   -7.3010   -0.6320    3.0810 C   0  0  0  0  0  0  0  0  0  0  0  0
   -7.2880   -1.2940    1.8460 N   0  0  0  0  0  0  0  0  0  0  0  0
   -6.1060   -1.0230    0.8750 C   0  0  0  0  0  0  0  0  0  0  0  0
   -6.0780   -2.1120    0.1100 C   0  0  0  0  0  0  0  0  0  0  0  0
   -4.8820   -2.6230   -0.4690 O   0  0  0  0  0  0  0  0  0  0  0  0
   -7.1580   -2.8380   -0.2000 F   0  0  0  0  0  0  0  0  0  0  0  0
   -1.6850    0.6140    0.8370 C   0  0  0  0  0  0  0  0  0  0  0  0
   -1.7580    1.0440    2.0530 O   0  0  0  0  0  0  0  0  0  0  0  0
    2.5050    1.4540    1.5690 O   0  0  0  0  0  0  0  0  0  0  0  0
    1.9520    2.7980    1.7330 C   0  0  0  0  0  0  0  0  0  0  0  0
    5.6630    0.6050   -1.8240 S   0  0  0  0  0  0  0  0  0  0  0  0
  1  2  1  0
  2  3  1  0
  3  4  1  0
  4  5  2  0
  4 35  1  0
  5  6  1  0
  6  7  2  0
  6  8  1  0
  8  9  2  3
  8 35  1  0
  9 10  1  0
  9 12  1  0
 10 11  1  0
 12 13  2  3
 12 33  1  0
 13 14  1  0
 14 15  2  0
 14 31  1  0
 15 16  1  0
 16 17  1  0
 16 20  2  0
 17 18  1  1
 17 19  1  0
 20 21  1  0
 20 31  1  0
 21 22  1  0
 22 23  2  0
 22 27  1  0
 23 24  1  0
 24 25  2  0
 25 26  1  0
 26 27  1  0
 27 28  2  3
 28 29  1  0
 28 30  1  0
 31 32  2  0
 33 34  1  0
M  END
