
     RDKit          3D

 35 37  0  0  0  0  0  0  0  0999 V2000
   -1.7240    0.0600   -2.7590 C   0  0  0  0  0  0  0  0  0  0  0  0
   -2.1590   -1.0660   -1.8360 C   0  0  0  0  0  0  0  0  0  0  0  0
   -3.4260   -0.7400   -1.2410 N   0  0  0  0  0  0  0  0  0  0  0  0
   -3.5570   -0.1550   -0.0690 C   0  0  0  0  0  0  0  0  0  0  0  0
   -2.4840    0.2000    0.8180 C   0  0  0  0  0  0  0  0  0  0  0  0
   -1.1240   -0.0100    0.4740 N   0  0  0  0  0  0  0  0  0  0  0  0
   -0.2840    0.3290    1.6530 C   0  0  0  0  0  0  0  0  0  0  0  0
    1.1400    0.1170    1.3510 C   0  0  0  0  0  0  0  0  0  0  0  0
    1.8780    1.1420    0.7880 C   0  0  0  0  0  0  0  0  0  0  0  0
    3.2170    0.9370    0.5080 C   0  0  0  0  0  0  0  0  0  0  0  0
    3.7790   -0.3140    0.8090 C   0  0  0  0  0  0  0  0  0  0  0  0
    3.0500   -1.3250    1.3670 C   0  0  0  0  0  0  0  0  0  0  0  0
    3.5940   -2.6280    1.7440 C   0  0  0  0  0  0  0  0  0  0  0  0
    3.8940   -3.2950    0.5730 F   0  0  0  0  0  0  0  0  0  0  0  0
    1.7210   -1.0340    1.6120 N   0  0  0  0  0  0  0  0  0  0  0  0
    5.1090   -0.8780    0.6190 C   0  0  0  0  0  0  0  0  0  0  0  0
    6.1310   -0.6490   -0.2080 C   0  0  0  0  0  0  0  0  0  0  0  0
    7.2440   -1.5420    0.0670 C   0  0  0  0  0  0  0  0  0  0  0  0
    7.2110   -2.4030    0.9730 O   0  0  0  0  0  0  0  0  0  0  0  0
    8.4030   -1.4560   -0.6930 O   0  0  0  0  0  0  0  0  0  0  0  0
    6.3600    0.2780   -1.2990 C   0  0  0  0  0  0  0  0  0  0  0  0
    5.7500    1.2530   -1.9400 C   0  0  0  0  0  0  0  0  0  0  0  0
    4.1850    1.9990   -1.7770 S   0  0  2  0  0  0  0  0  0  0  0  0
    3.1930    1.1350   -2.5210 O   0  0  0  0  0  0  0  0  0  0  0  0
    4.2230    3.3450   -2.4350 O   0  0  0  0  0  0  0  0  0  0  0  0
    3.7260    2.1820   -0.0720 C   0  0  0  0  0  0  0  0  0  0  0  0
   -4.8880    0.1310    0.4000 C   0  0  0  0  0  0  0  0  0  0  0  0
   -5.0560    0.7680    1.6710 C   0  0  0  0  0  0  0  0  0  0  0  0
   -6.0650    1.0730    2.4130 C   0  0  0  0  0  0  0  0  0  0  0  0
   -5.7790    1.9220    4.0280 S   0  0  0  0  0  0  0  0  0  0  0  0
   -5.9550   -0.2110   -0.3810 C   0  0  0  0  0  0  0  0  0  0  0  0
   -7.3730    0.0590   -0.0250 C   0  0  0  0  0  0  0  0  0  0  0  0
   -5.7750   -0.8370   -1.6290 C   0  0  0  0  0  0  0  0  0  0  0  0
   -4.5130   -1.0800   -2.0170 C   0  0  0  0  0  0  0  0  0  0  0  0
   -4.3400   -1.6420   -3.1370 O   0  0  0  0  0  0  0  0  0  0  0  0
  1  2  1  0
  2  3  1  0
  3  4  1  0
  3 34  1  0
  4  5  1  0
  4 27  2  0
  5  6  1  0
  6  7  1  0
  7  8  1  0
  8  9  2  0
  8 15  1  0
  9 10  1  0
 10 11  2  0
 10 26  1  0
 11 12  1  0
 11 16  1  0
 12 13  1  0
 12 15  2  0
 13 14  1  0
 16 17  2  0
 17 18  1  0
 17 21  1  0
 18 19  2  0
 18 20  1  0
 21 22  2  0
 22 23  1  0
 23 24  2  0
 23 25  2  0
 23 26  1  1
 27 28  1  0
 27 31  1  0
 28 29  2  3
 29 30  1  0
 31 32  1  0
 31 33  2  0
 33 34  1  0
 34 35  2  0
M  END
