
     RDKit          3D

 35 37  0  0  0  0  0  0  0  0999 V2000
  -10.1050    0.7410    0.3840 C   0  0  0  0  0  0  0  0  0  0  0  0
   -8.8900    0.3800   -0.1140 C   0  0  0  0  0  0  0  0  0  0  0  0
   -7.7470    0.7160    0.6450 C   0  0  0  0  0  0  0  0  0  0  0  0
   -6.4730    0.5870    0.5380 C   0  0  0  0  0  0  0  0  0  0  0  0
   -5.7580   -0.0130   -0.5370 C   0  0  0  0  0  0  0  0  0  0  0  0
   -4.4520   -0.2400   -0.5700 C   0  0  0  0  0  0  0  0  0  0  0  0
   -3.9130   -0.8530   -1.7160 O   0  0  0  0  0  0  0  0  0  0  0  0
   -3.7980   -2.2550   -1.7230 C   0  0  0  0  0  0  0  0  0  0  0  0
   -3.5180    0.1010    0.4790 C   0  0  0  0  0  0  0  0  0  0  0  0
   -3.8120    0.6880    1.6110 C   0  0  0  0  0  0  0  0  0  0  0  0
   -2.8200    1.0100    2.6510 C   0  0  0  0  0  0  0  0  0  0  0  0
   -1.4170    0.6880    2.2990 C   0  0  0  0  0  0  0  0  0  0  0  0
   -0.9720    1.4250    1.1510 N   0  0  0  0  0  0  0  0  0  0  0  0
    0.4080    1.2610    0.7350 C   0  0  0  0  0  0  0  0  0  0  0  0
    1.0060    0.2120    0.2860 C   0  0  0  0  0  0  0  0  0  0  0  0
    0.2370   -1.0480    0.1400 C   0  0  0  0  0  0  0  0  0  0  0  0
   -0.3750   -2.0490    0.0350 N   0  0  0  0  0  0  0  0  0  0  0  0
    2.4040    0.2930   -0.0010 C   0  0  0  0  0  0  0  0  0  0  0  0
    3.0430   -0.7280   -0.4630 O   0  0  0  0  0  0  0  0  0  0  0  0
    3.0550    1.5420    0.2390 C   0  0  0  0  0  0  0  0  0  0  0  0
    4.2060    2.1040    0.2610 C   0  0  0  0  0  0  0  0  0  0  0  0
    5.5820    1.9700    0.0930 C   0  0  0  0  0  0  0  0  0  0  0  0
    6.2500    3.1440    0.2820 O   0  0  0  0  0  0  0  0  0  0  0  0
    6.4420    0.9220   -0.2240 N   0  0  0  0  0  0  0  0  0  0  0  0
    7.8900    1.2900   -0.3350 C   0  0  0  0  0  0  0  0  0  0  0  0
    8.7790    0.1180   -0.1660 C   0  0  0  0  0  0  0  0  0  0  0  0
    8.1770   -0.9910    0.3770 O   0  0  0  0  0  0  0  0  0  0  0  0
    7.2010   -1.4180   -0.5190 C   0  0  1  0  0  0  0  0  0  0  0  0
    6.6270   -2.7540   -0.0970 C   0  0  0  0  0  0  0  0  0  0  0  0
    7.5610   -3.7600   -0.0280 O   0  0  0  0  0  0  0  0  0  0  0  0
    6.0510   -0.4210   -0.4240 C   0  0  0  0  0  0  0  0  0  0  0  0
    1.5850    2.5840    0.7020 S   0  0  0  0  0  0  0  0  0  0  0  0
   -5.4790    1.1940    1.9270 S   0  0  0  0  0  0  0  0  0  0  0  0
   -8.9350   -0.3320   -1.3830 C   0  0  0  0  0  0  0  0  0  0  0  0
   -8.4270   -1.6220   -1.2960 F   0  0  0  0  0  0  0  0  0  0  0  0
  1  2  2  0
  2  3  1  0
  2 34  1  0
  3  4  2  3
  4  5  1  0
  4 33  1  0
  5  6  2  0
  6  7  1  0
  6  9  1  0
  7  8  1  0
  9 10  2  0
 10 11  1  0
 10 33  1  0
 11 12  1  0
 12 13  1  0
 13 14  1  0
 14 15  2  0
 14 32  1  0
 15 16  1  0
 15 18  1  0
 16 17  3  0
 18 19  2  0
 18 20  1  0
 20 21  2  3
 20 32  1  0
 21 22  1  0
 22 23  2  0
 22 24  1  0
 24 25  1  0
 24 31  1  0
 25 26  1  0
 26 27  1  0
 27 28  1  0
 28 29  1  1
 28 31  1  0
 29 30  1  0
 34 35  1  0
M  END
