
     RDKit          3D

 35 37  0  0  0  0  0  0  0  0999 V2000
    8.8820   -0.2360   -0.2990 C   0  0  0  0  0  0  0  0  0  0  0  0
    7.6540    0.2450   -0.3510 C   0  0  0  0  0  0  0  0  0  0  0  0
    6.9000    1.1000    0.5470 C   0  0  0  0  0  0  0  0  0  0  0  0
    7.4710    1.9730    1.4000 C   0  0  0  0  0  0  0  0  0  0  0  0
    8.8800    2.2420    1.5860 C   0  0  0  0  0  0  0  0  0  0  0  0
    9.3380    1.9150    2.8520 F   0  0  0  0  0  0  0  0  0  0  0  0
    5.4520    1.0170    0.3490 C   0  0  0  0  0  0  0  0  0  0  0  0
    4.4600    1.5910    1.1740 C   0  0  0  0  0  0  0  0  0  0  0  0
    3.1280    1.2820    0.9440 C   0  0  0  0  0  0  0  0  0  0  0  0
    2.1510    1.8020    1.7080 N   0  0  0  0  0  0  0  0  0  0  0  0
    0.8730    1.5150    1.5030 C   0  0  0  0  0  0  0  0  0  0  0  0
   -0.0110    2.0140    2.2300 O   0  0  0  0  0  0  0  0  0  0  0  0
    0.4770    0.6620    0.4890 N   0  0  0  0  0  0  0  0  0  0  0  0
   -0.8830    0.4200    0.3580 N   0  0  0  0  0  0  0  0  0  0  0  0
   -1.5760   -0.3620   -0.5740 C   0  0  0  0  0  0  0  0  0  0  0  0
   -0.9780   -0.9640   -1.4520 O   0  0  0  0  0  0  0  0  0  0  0  0
   -3.0900   -0.4790   -0.5220 C   0  0  1  0  0  0  0  0  0  0  0  0
   -3.5990   -1.6140   -1.3280 C   0  0  0  0  0  0  0  0  0  0  0  0
   -3.2710   -2.9880   -1.0430 C   0  0  2  0  0  0  0  0  0  0  0  0
   -1.9190   -3.5410   -1.0380 C   0  0  0  0  0  0  0  0  0  0  0  0
   -4.0660   -3.8400   -2.0750 C   0  0  0  0  0  0  0  0  0  0  0  0
   -3.6580   -0.4910    1.1700 S   0  0  0  0  0  0  0  0  0  0  0  0
   -5.3940   -0.5890    1.3450 C   0  0  0  0  0  0  0  0  0  0  0  0
   -6.2830    0.5650    1.2910 C   0  0  0  0  0  0  0  0  0  0  0  0
   -6.3500    1.5140    0.1880 C   0  0  1  0  0  0  0  0  0  0  0  0
   -5.0990    2.3000   -0.0180 C   0  0  0  0  0  0  0  0  0  0  0  0
   -6.7270    0.8540   -1.1400 C   0  0  0  0  0  0  0  0  0  0  0  0
    1.4150    0.1300   -0.2860 C   0  0  0  0  0  0  0  0  0  0  0  0
    1.2110   -0.6490   -1.2290 O   0  0  0  0  0  0  0  0  0  0  0  0
    2.7630    0.4330   -0.0690 C   0  0  0  0  0  0  0  0  0  0  0  0
    3.7250   -0.1350   -0.8890 C   0  0  0  0  0  0  0  0  0  0  0  0
    5.0440    0.1870   -0.6440 C   0  0  0  0  0  0  0  0  0  0  0  0
    6.4630   -0.2030   -1.5970 S   0  0  2  0  0  0  0  0  0  0  0  0
    6.5540   -1.6560   -1.8820 O   0  0  0  0  0  0  0  0  0  0  0  0
    6.5940    0.6650   -2.7910 O   0  0  0  0  0  0  0  0  0  0  0  0
  1  2  2  0
  2  3  1  0
 33  2  1  1
  3  4  2  3
  3  7  1  0
  4  5  1  0
  5  6  1  0
  7  8  2  0
  7 32  1  0
  8  9  1  0
  9 10  1  0
  9 30  2  0
 10 11  1  0
 11 12  2  0
 11 13  1  0
 13 14  1  0
 13 28  1  0
 14 15  1  0
 15 16  2  0
 15 17  1  0
 17 18  1  1
 17 22  1  0
 18 19  1  0
 19 20  1  6
 19 21  1  0
 22 23  1  0
 23 24  1  0
 24 25  1  0
 25 26  1  6
 25 27  1  0
 28 29  2  0
 28 30  1  0
 30 31  1  0
 31 32  2  0
 32 33  1  0
 33 34  2  0
 33 35  2  0
M  END
