
     RDKit          3D

 34 38  0  0  0  0  0  0  0  0999 V2000
    2.7070    3.0370    1.9010 O   0  0  0  0  0  0  0  0  0  0  0  0
    2.4060    1.9900    1.3230 C   0  0  0  0  0  0  0  0  0  0  0  0
    0.9700    1.7560    1.0450 C   0  0  0  0  0  0  0  0  0  0  0  0
    0.8320    0.5230    0.3870 O   0  0  0  0  0  0  0  0  0  0  0  0
   -0.4380    0.0990    0.0280 C   0  0  0  0  0  0  0  0  0  0  0  0
   -1.5300    0.8740    0.3140 C   0  0  0  0  0  0  0  0  0  0  0  0
   -2.7900    0.4610   -0.0390 C   0  0  0  0  0  0  0  0  0  0  0  0
   -2.9590   -0.7670   -0.6970 C   0  0  0  0  0  0  0  0  0  0  0  0
   -1.8730   -1.5780   -1.0020 C   0  0  0  0  0  0  0  0  0  0  0  0
   -0.6220   -1.1120   -0.6230 C   0  0  0  0  0  0  0  0  0  0  0  0
    0.6320   -1.8890   -0.8850 C   0  0  0  0  0  0  0  0  0  0  0  0
    0.3190   -3.3610   -1.0630 C   0  0  0  0  0  0  0  0  0  0  0  0
   -0.7440   -3.4580   -2.1080 C   0  0  0  0  0  0  0  0  0  0  0  0
   -2.0720   -2.8710   -1.7050 C   0  0  0  0  0  0  0  0  0  0  0  0
   -4.3000   -1.2000   -1.0590 C   0  0  0  0  0  0  0  0  0  0  0  0
   -4.5140   -2.3630   -1.4280 O   0  0  0  0  0  0  0  0  0  0  0  0
   -5.3850   -0.1940   -0.9640 C   0  0  0  0  0  0  0  0  0  0  0  0
   -5.1680    0.4960    0.3770 C   0  0  2  0  0  0  0  0  0  0  0  0
   -6.3930    1.2190    0.8400 C   0  0  0  0  0  0  0  0  0  0  0  0
   -6.8720    2.2890   -0.0770 C   0  0  0  0  0  0  0  0  0  0  0  0
   -7.2070    1.8570   -1.3360 O   0  0  0  0  0  0  0  0  0  0  0  0
   -3.9450    1.3350    0.2860 C   0  0  0  0  0  0  0  0  0  0  0  0
    3.3690    1.0460    0.9360 N   0  0  0  0  0  0  0  0  0  0  0  0
    4.7720    1.1500    1.1510 C   0  0  0  0  0  0  0  0  0  0  0  0
    5.2790    2.1140    1.9750 C   0  0  0  0  0  0  0  0  0  0  0  0
    6.6180    2.1890    2.2160 C   0  0  0  0  0  0  0  0  0  0  0  0
    7.4470    1.2870    1.6250 C   0  0  0  0  0  0  0  0  0  0  0  0
    6.9800    0.2800    0.7740 C   0  0  0  0  0  0  0  0  0  0  0  0
    7.9480   -0.5410    0.2560 C   0  0  0  0  0  0  0  0  0  0  0  0
    7.7460   -1.5890   -0.6020 C   0  0  0  0  0  0  0  0  0  0  0  0
    8.7180   -2.2780   -1.0130 O   0  0  0  0  0  0  0  0  0  0  0  0
    6.1250   -1.8500   -1.0320 S   0  0  0  0  0  0  0  0  0  0  0  0
    5.0370   -0.7290   -0.2930 C   0  0  0  0  0  0  0  0  0  0  0  0
    5.6220    0.2040    0.5280 C   0  0  0  0  0  0  0  0  0  0  0  0
  1  2  2  0
  2  3  1  0
  2 23  1  0
  3  4  1  0
  4  5  1  0
  5  6  2  0
  5 10  1  0
  6  7  1  0
  7  8  2  0
  7 22  1  0
  8  9  1  0
  8 15  1  0
  9 10  2  0
  9 14  1  0
 10 11  1  0
 11 12  1  0
 12 13  1  0
 13 14  1  0
 15 16  2  0
 15 17  1  0
 17 18  1  0
 18 19  1  6
 18 22  1  0
 19 20  1  0
 20 21  1  0
 23 24  1  0
 24 25  2  0
 24 34  1  0
 25 26  1  0
 26 27  2  0
 27 28  1  0
 28 29  2  0
 28 34  1  0
 29 30  1  0
 30 31  2  0
 30 32  1  0
 32 33  1  0
 33 34  2  0
M  END
