
     RDKit          3D

 34 38  0  0  0  0  0  0  0  0999 V2000
   -1.2710    2.8130   -0.2530 C   0  0  0  0  0  0  0  0  0  0  0  0
   -2.1530    1.7120   -0.4740 O   0  0  0  0  0  0  0  0  0  0  0  0
   -2.5010    0.8290    0.5340 C   0  0  0  0  0  0  0  0  0  0  0  0
   -1.9950    1.0470    1.6680 O   0  0  0  0  0  0  0  0  0  0  0  0
   -3.4110   -0.3230    0.3440 C   0  0  2  0  0  0  0  0  0  0  0  0
   -2.8890   -1.3170   -0.6740 C   0  0  0  0  0  0  0  0  0  0  0  0
   -1.5770   -1.8690   -0.2680 C   0  0  0  0  0  0  0  0  0  0  0  0
   -1.0540   -1.4580    0.7930 O   0  0  0  0  0  0  0  0  0  0  0  0
   -0.9170   -2.8430   -1.0540 N   0  0  0  0  0  0  0  0  0  0  0  0
    0.3480   -3.3590   -0.6420 C   0  0  0  0  0  0  0  0  0  0  0  0
    1.4980   -2.4620   -0.8950 C   0  0  0  0  0  0  0  0  0  0  0  0
    2.0760   -2.3780   -2.1700 C   0  0  0  0  0  0  0  0  0  0  0  0
    3.1500   -1.5630   -2.4450 C   0  0  0  0  0  0  0  0  0  0  0  0
    3.7360   -1.5050   -3.8210 C   0  0  0  0  0  0  0  0  0  0  0  0
    3.6410   -0.8190   -1.3920 C   0  0  0  0  0  0  0  0  0  0  0  0
    4.6430    0.0330   -1.3520 O   0  0  0  0  0  0  0  0  0  0  0  0
    4.7790    0.5300   -0.1360 C   0  0  0  0  0  0  0  0  0  0  0  0
    5.6580    1.4390    0.4100 C   0  0  0  0  0  0  0  0  0  0  0  0
    5.5850    1.8040    1.7640 C   0  0  0  0  0  0  0  0  0  0  0  0
    4.6350    1.2690    2.5940 C   0  0  0  0  0  0  0  0  0  0  0  0
    3.7500    0.3460    2.0220 C   0  0  0  0  0  0  0  0  0  0  0  0
    3.8220   -0.0120    0.6950 C   0  0  0  0  0  0  0  0  0  0  0  0
    3.0990   -0.8760   -0.1240 C   0  0  0  0  0  0  0  0  0  0  0  0
    2.0200   -1.7020    0.1270 C   0  0  0  0  0  0  0  0  0  0  0  0
    4.7690    1.8180    3.9640 C   0  0  0  0  0  0  0  0  0  0  0  0
    5.9560    2.7090    3.9120 C   0  0  0  0  0  0  0  0  0  0  0  0
    6.4650    2.7700    2.4950 C   0  0  0  0  0  0  0  0  0  0  0  0
   -4.8140    0.1100   -0.0200 C   0  0  1  0  0  0  0  0  0  0  0  0
   -4.8830    0.9010   -1.2890 C   0  0  0  0  0  0  0  0  0  0  0  0
   -6.1770    0.7150   -2.0330 C   0  0  0  0  0  0  0  0  0  0  0  0
   -7.5380    0.6970   -0.8280 S   0  0  0  0  0  0  0  0  0  0  0  0
   -8.7920    0.2960   -1.5940 O   0  0  0  0  0  0  0  0  0  0  0  0
   -7.1570   -0.6120    0.3470 C   0  0  0  0  0  0  0  0  0  0  0  0
   -5.7340   -1.0770    0.0190 C   0  0  0  0  0  0  0  0  0  0  0  0
  1  2  1  0
  2  3  1  0
  3  4  2  0
  3  5  1  0
  5  6  1  6
  5 28  1  0
  6  7  1  0
  7  8  2  0
  7  9  1  0
  9 10  1  0
 10 11  1  0
 11 12  2  0
 11 24  1  0
 12 13  1  0
 13 14  1  0
 13 15  2  0
 15 16  1  0
 15 23  1  0
 16 17  1  0
 17 18  2  0
 17 22  1  0
 18 19  1  0
 19 20  2  0
 19 27  1  0
 20 21  1  0
 20 25  1  0
 21 22  2  0
 22 23  1  0
 23 24  2  0
 25 26  1  0
 26 27  1  0
 28 29  1  6
 28 34  1  0
 29 30  1  0
 31 30  1  6
 31 32  2  0
 31 33  1  0
 33 34  1  0
M  END
