
     RDKit          3D

 34 38  0  0  0  0  0  0  0  0999 V2000
    3.2250   -0.1290    3.1680 C   0  0  0  0  0  0  0  0  0  0  0  0
    2.7310   -0.9760    1.9900 C   0  0  0  0  0  0  0  0  0  0  0  0
    3.3500   -0.5990    0.8810 O   0  0  0  0  0  0  0  0  0  0  0  0
    3.6520    0.3550    0.0040 C   0  0  0  0  0  0  0  0  0  0  0  0
    2.8700    1.2520   -0.5740 C   0  0  0  0  0  0  0  0  0  0  0  0
    1.4640    1.3320   -0.3140 C   0  0  0  0  0  0  0  0  0  0  0  0
    0.8130    2.2510   -0.9340 O   0  0  0  0  0  0  0  0  0  0  0  0
    0.6940    0.5650    0.5080 O   0  0  0  0  0  0  0  0  0  0  0  0
   -0.6960    0.7680    0.6660 C   0  0  0  0  0  0  0  0  0  0  0  0
   -1.4580    0.6370   -0.5780 C   0  0  0  0  0  0  0  0  0  0  0  0
   -0.9230    0.3840   -1.6890 O   0  0  0  0  0  0  0  0  0  0  0  0
   -2.9030    0.8090   -0.5470 C   0  0  0  0  0  0  0  0  0  0  0  0
   -3.4850    2.0000   -0.9460 C   0  0  0  0  0  0  0  0  0  0  0  0
   -4.8440    2.1500   -0.8650 C   0  0  0  0  0  0  0  0  0  0  0  0
   -5.6780    1.1560   -0.3980 C   0  0  0  0  0  0  0  0  0  0  0  0
   -5.0820   -0.0170   -0.0090 C   0  0  0  0  0  0  0  0  0  0  0  0
   -5.8910   -1.0450    0.4570 C   0  0  0  0  0  0  0  0  0  0  0  0
   -5.3660   -2.2560    0.8550 C   0  0  0  0  0  0  0  0  0  0  0  0
   -4.0050   -2.4610    0.7930 C   0  0  0  0  0  0  0  0  0  0  0  0
   -3.2220   -1.4250    0.3270 C   0  0  0  0  0  0  0  0  0  0  0  0
   -3.6950   -0.2050   -0.0780 C   0  0  0  0  0  0  0  0  0  0  0  0
   -7.3760   -0.9060    0.5580 C   0  0  2  0  0  0  0  0  0  0  0  0
   -8.2180   -2.4820    0.2490 S   0  0  0  0  0  0  0  0  0  0  0  0
   -7.8310    0.0590   -0.5130 C   0  0  0  0  0  0  0  0  0  0  0  0
   -7.1500    1.3790   -0.3300 C   0  0  0  0  0  0  0  0  0  0  0  0
    3.4840    2.2070   -1.5390 C   0  0  0  0  0  0  0  0  0  0  0  0
    4.6990    2.8170   -1.0530 N   0  0  0  0  0  0  0  0  0  0  0  0
    5.6830    1.8250   -0.6730 C   0  0  0  0  0  0  0  0  0  0  0  0
    5.0910    0.5040   -0.4560 C   0  0  0  0  0  0  0  0  0  0  0  0
    5.8050   -0.5810   -0.6520 C   0  0  0  0  0  0  0  0  0  0  0  0
    5.4330   -2.0170   -0.4940 C   0  0  0  0  0  0  0  0  0  0  0  0
    6.4060   -2.6800   -1.4460 C   0  0  0  0  0  0  0  0  0  0  0  0
    7.5580   -1.9430   -1.2350 O   0  0  0  0  0  0  0  0  0  0  0  0
    7.2220   -0.6200   -1.1000 C   0  0  0  0  0  0  0  0  0  0  0  0
  1  2  1  0
  2  3  1  0
  3  4  1  0
  4  5  2  0
  4 29  1  0
  5  6  1  0
  5 26  1  0
  6  7  2  0
  6  8  1  0
  8  9  1  0
  9 10  1  0
 10 11  2  0
 10 12  1  0
 12 13  2  0
 12 21  1  0
 13 14  1  0
 14 15  2  0
 15 16  1  0
 15 25  1  0
 16 17  2  0
 16 21  1  0
 17 18  1  0
 17 22  1  0
 18 19  2  0
 19 20  1  0
 20 21  2  0
 22 23  1  6
 22 24  1  0
 24 25  1  0
 26 27  1  0
 27 28  1  0
 28 29  1  0
 29 30  2  3
 30 31  1  0
 30 34  1  0
 31 32  1  0
 32 33  1  0
 33 34  1  0
M  END
