
     RDKit          3D

 34 38  0  0  0  0  0  0  0  0999 V2000
   -2.2240    0.8100    2.5750 C   0  0  0  0  0  0  0  0  0  0  0  0
   -1.4710    1.0330    1.2860 C   0  0  0  0  0  0  0  0  0  0  0  0
   -2.0920    1.1310    0.1440 C   0  0  0  0  0  0  0  0  0  0  0  0
   -3.5570    1.0190    0.1270 C   0  0  0  0  0  0  0  0  0  0  0  0
   -4.3670    0.3500   -0.7030 C   0  0  0  0  0  0  0  0  0  0  0  0
   -5.7130    0.4140   -0.5250 C   0  0  0  0  0  0  0  0  0  0  0  0
   -6.1770    1.1640    0.4990 C   0  0  0  0  0  0  0  0  0  0  0  0
   -4.6810    1.8120    1.2530 S   0  0  0  0  0  0  0  0  0  0  0  0
   -7.6660    1.1360    0.5800 C   0  0  0  0  0  0  0  0  0  0  0  0
   -7.8960   -0.2520   -0.0310 C   0  0  2  0  0  0  0  0  0  0  0  0
   -9.3250   -0.4550   -0.4590 C   0  0  0  0  0  0  0  0  0  0  0  0
   -7.4020   -1.2970    0.9100 C   0  0  0  0  0  0  0  0  0  0  0  0
   -6.9540   -0.1550   -1.2020 C   0  0  0  0  0  0  0  0  0  0  0  0
   -1.3550    1.3520   -1.0790 C   0  0  0  0  0  0  0  0  0  0  0  0
   -1.9850    1.4430   -2.1820 O   0  0  0  0  0  0  0  0  0  0  0  0
    0.0130    1.4620   -1.0510 O   0  0  0  0  0  0  0  0  0  0  0  0
    0.7440    1.2310    0.1040 C   0  0  2  0  0  0  0  0  0  0  0  0
    1.6220    0.0100   -0.0290 C   0  0  0  0  0  0  0  0  0  0  0  0
    1.6560   -0.6030   -1.1250 O   0  0  0  0  0  0  0  0  0  0  0  0
    2.4090   -0.4690    1.0390 N   0  0  0  0  0  0  0  0  0  0  0  0
    3.2730   -1.6290    0.9820 C   0  0  0  0  0  0  0  0  0  0  0  0
    4.3780   -1.5140    0.0240 C   0  0  0  0  0  0  0  0  0  0  0  0
    4.3960   -1.9390   -1.2730 C   0  0  0  0  0  0  0  0  0  0  0  0
    5.6300   -1.6260   -1.7920 C   0  0  0  0  0  0  0  0  0  0  0  0
    6.3310   -1.0050   -0.7510 C   0  0  0  0  0  0  0  0  0  0  0  0
    7.6920   -0.5310   -0.9260 C   0  0  0  0  0  0  0  0  0  0  0  0
    8.3570   -0.6520   -2.1360 C   0  0  0  0  0  0  0  0  0  0  0  0
    9.6480   -0.2130   -2.3190 C   0  0  0  0  0  0  0  0  0  0  0  0
   10.3220    0.3720   -1.2730 C   0  0  0  0  0  0  0  0  0  0  0  0
    9.6910    0.5050   -0.0670 C   0  0  0  0  0  0  0  0  0  0  0  0
    8.3720    0.0540    0.1120 C   0  0  0  0  0  0  0  0  0  0  0  0
    7.8500    0.2440    1.3680 O   0  0  0  0  0  0  0  0  0  0  0  0
    5.5530   -0.9700    0.2730 O   0  0  0  0  0  0  0  0  0  0  0  0
    0.0040    1.1340    1.3760 C   0  0  0  0  0  0  0  0  0  0  0  0
  1  2  1  0
  2  3  2  0
  2 34  1  0
  3  4  1  0
  3 14  1  0
  4  5  2  0
  4  8  1  0
  5  6  1  0
  6  7  2  0
  6 13  1  0
  7  8  1  0
  7  9  1  0
  9 10  1  0
 10 11  1  6
 10 12  1  0
 10 13  1  0
 14 15  2  0
 14 16  1  0
 16 17  1  0
 17 18  1  6
 17 34  1  0
 18 19  2  0
 18 20  1  0
 20 21  1  0
 21 22  1  0
 22 23  2  0
 22 33  1  0
 23 24  1  0
 24 25  2  0
 25 26  1  0
 25 33  1  0
 26 27  2  0
 26 31  1  0
 27 28  1  0
 28 29  2  0
 29 30  1  0
 30 31  2  0
 31 32  1  0
M  END
