
     RDKit          3D

 34 38  0  0  0  0  0  0  0  0999 V2000
   -1.0840   -4.7640   -2.4260 C   0  0  0  0  0  0  0  0  0  0  0  0
   -0.8740   -3.4390   -1.9960 O   0  0  0  0  0  0  0  0  0  0  0  0
   -1.9130   -2.7050   -1.4100 C   0  0  0  0  0  0  0  0  0  0  0  0
   -3.1470   -3.2990   -1.2600 C   0  0  0  0  0  0  0  0  0  0  0  0
   -4.1900   -2.6060   -0.6880 C   0  0  0  0  0  0  0  0  0  0  0  0
   -4.0250   -1.3030   -0.2510 C   0  0  0  0  0  0  0  0  0  0  0  0
   -5.0540   -0.6140    0.3260 C   0  0  0  0  0  0  0  0  0  0  0  0
   -4.9110    0.6720    0.7770 C   0  0  0  0  0  0  0  0  0  0  0  0
   -3.6480    1.2710    0.6220 C   0  0  0  0  0  0  0  0  0  0  0  0
   -2.6160    0.5970    0.0480 C   0  0  0  0  0  0  0  0  0  0  0  0
   -1.3600    1.1920   -0.1020 O   0  0  0  0  0  0  0  0  0  0  0  0
   -1.1210    2.5240    0.3390 C   0  0  0  0  0  0  0  0  0  0  0  0
   -2.7600   -0.7060   -0.4100 C   0  0  0  0  0  0  0  0  0  0  0  0
   -1.7330   -1.4100   -0.9820 C   0  0  0  0  0  0  0  0  0  0  0  0
   -0.5060   -0.8390   -1.1420 O   0  0  0  0  0  0  0  0  0  0  0  0
   -0.0430   -0.1810   -2.2770 C   0  0  0  0  0  0  0  0  0  0  0  0
    1.3610    0.3050   -2.0000 C   0  0  0  0  0  0  0  0  0  0  0  0
    1.9790    0.9290   -2.8880 O   0  0  0  0  0  0  0  0  0  0  0  0
    1.9710    0.0630   -0.7640 N   0  0  0  0  0  0  0  0  0  0  0  0
    3.2690    0.4450   -0.3420 C   0  0  0  0  0  0  0  0  0  0  0  0
    4.1650    1.1380   -1.0960 C   0  0  0  0  0  0  0  0  0  0  0  0
    5.4060    1.4460   -0.5570 C   0  0  0  0  0  0  0  0  0  0  0  0
    6.3980    2.2130   -1.3910 C   0  0  0  0  0  0  0  0  0  0  0  0
    5.7990    1.0930    0.7100 C   0  0  0  0  0  0  0  0  0  0  0  0
    4.8850    0.3950    1.4590 C   0  0  0  0  0  0  0  0  0  0  0  0
    3.6390    0.0820    0.9260 C   0  0  0  0  0  0  0  0  0  0  0  0
    5.4750    0.1030    2.8010 C   0  0  0  0  0  0  0  0  0  0  0  0
    6.9550    0.2070    2.5350 C   0  0  0  0  0  0  0  0  0  0  0  0
    7.0730    1.3110    1.4870 C   0  0  0  0  0  0  0  0  0  0  0  0
   -6.0740    1.2540    1.3670 C   0  0  0  0  0  0  0  0  0  0  0  0
   -6.0600    2.2030    2.2360 O   0  0  0  0  0  0  0  0  0  0  0  0
   -7.3630    0.6660    0.8920 C   0  0  2  0  0  0  0  0  0  0  0  0
   -8.4210    0.7060    1.9510 C   0  0  0  0  0  0  0  0  0  0  0  0
   -6.7470   -1.0630    0.6490 S   0  0  0  0  0  0  0  0  0  0  0  0
  1  2  1  0
  2  3  1  0
  3  4  2  0
  3 14  1  0
  4  5  1  0
  5  6  2  0
  6  7  1  0
  6 13  1  0
  7  8  2  0
  7 34  1  0
  8  9  1  0
  8 30  1  0
  9 10  2  0
 10 11  1  0
 10 13  1  0
 11 12  1  0
 13 14  2  0
 14 15  1  0
 15 16  1  0
 16 17  1  0
 17 18  2  0
 17 19  1  0
 19 20  1  0
 20 21  2  0
 20 26  1  0
 21 22  1  0
 22 23  1  0
 22 24  2  0
 24 25  1  0
 24 29  1  0
 25 26  2  0
 25 27  1  0
 27 28  1  0
 28 29  1  0
 30 31  2  0
 30 32  1  0
 32 33  1  1
 32 34  1  0
M  END
