
     RDKit          3D

 35 38  0  0  0  0  0  0  0  0999 V2000
    6.4360   -3.8920   -1.6290 C   0  0  0  0  0  0  0  0  0  0  0  0
    5.7170   -4.2080   -0.3350 C   0  0  0  0  0  0  0  0  0  0  0  0
    5.7180   -5.3730    0.2120 N   0  0  0  0  0  0  0  0  0  0  0  0
    5.2040   -5.7640    1.2470 C   0  0  0  0  0  0  0  0  0  0  0  0
    4.4060   -4.1630    1.8150 S   0  0  0  0  0  0  0  0  0  0  0  0
    4.9980   -3.2120    0.3860 C   0  0  0  0  0  0  0  0  0  0  0  0
    4.7460   -1.8420    0.1830 C   0  0  0  0  0  0  0  0  0  0  0  0
    4.0890   -1.1550    1.2160 C   0  0  0  0  0  0  0  0  0  0  0  0
    3.7840    0.1770    1.0980 C   0  0  0  0  0  0  0  0  0  0  0  0
    4.0940    0.9210   -0.0190 C   0  0  0  0  0  0  0  0  0  0  0  0
    3.7610    2.3620   -0.1470 C   0  0  0  0  0  0  0  0  0  0  0  0
    2.5500    2.5190   -0.9100 N   0  0  0  0  0  0  0  0  0  0  0  0
    1.2520    2.2760   -0.4260 C   0  0  0  0  0  0  0  0  0  0  0  0
    1.0940    1.8880    0.7580 O   0  0  0  0  0  0  0  0  0  0  0  0
    0.0750    2.4850   -1.3340 C   0  0  2  0  0  0  0  0  0  0  0  0
    0.0320    3.9690   -1.6110 C   0  0  0  0  0  0  0  0  0  0  0  0
   -1.3530    4.3630   -1.1680 C   0  0  1  0  0  0  0  0  0  0  0  0
   -2.3180    4.2420   -2.1370 O   0  0  0  0  0  0  0  0  0  0  0  0
   -1.5930    3.4000    0.0040 C   0  0  0  0  0  0  0  0  0  0  0  0
   -1.1680    2.1550   -0.6450 N   0  0  0  0  0  0  0  0  0  0  0  0
   -1.8170    0.9310   -0.6170 C   0  0  0  0  0  0  0  0  0  0  0  0
   -1.2680   -0.0170   -1.3050 O   0  0  0  0  0  0  0  0  0  0  0  0
   -3.0570    0.6780    0.1270 C   0  0  1  0  0  0  0  0  0  0  0  0
   -3.7070   -0.5470   -0.3850 N   0  0  0  0  0  0  0  0  0  0  0  0
   -5.0050   -0.5340   -0.9440 C   0  0  0  0  0  0  0  0  0  0  0  0
   -5.5760    0.6080   -0.9760 O   0  0  0  0  0  0  0  0  0  0  0  0
   -5.6780   -1.7510   -1.4640 C   0  0  2  0  0  0  0  0  0  0  0  0
   -5.4340   -3.0690   -0.8130 C   0  0  0  0  0  0  0  0  0  0  0  0
   -4.8310   -2.8140   -2.1470 C   0  0  0  0  0  0  0  0  0  0  0  0
   -2.8810    0.4610    1.6040 C   0  0  2  0  0  0  0  0  0  0  0  0
   -2.2750    1.5660    2.3840 C   0  0  0  0  0  0  0  0  0  0  0  0
   -2.1550   -0.8410    1.8980 C   0  0  0  0  0  0  0  0  0  0  0  0
   -4.3010    0.2550    2.1620 C   0  0  0  0  0  0  0  0  0  0  0  0
    4.7380    0.2310   -1.0230 C   0  0  0  0  0  0  0  0  0  0  0  0
    5.0520   -1.1210   -0.9120 C   0  0  0  0  0  0  0  0  0  0  0  0
  1  2  1  0
  2  3  1  0
  2  6  2  0
  3  4  2  0
  4  5  1  0
  5  6  1  0
  6  7  1  0
  7  8  2  0
  7 35  1  0
  8  9  1  0
  9 10  2  0
 10 11  1  0
 10 34  1  0
 11 12  1  0
 12 13  1  0
 13 14  2  0
 15 13  1  1
 15 16  1  0
 15 20  1  0
 16 17  1  0
 17 18  1  6
 17 19  1  0
 19 20  1  0
 20 21  1  0
 21 22  2  0
 21 23  1  0
 23 24  1  6
 23 30  1  0
 24 25  1  0
 25 26  2  0
 27 25  1  1
 27 28  1  0
 27 29  1  0
 28 29  1  0
 30 31  1  1
 30 32  1  0
 30 33  1  0
 34 35  2  0
M  END
