
     RDKit          3D

 34 38  0  0  0  0  0  0  0  0999 V2000
    9.3420   -1.7520   -1.2240 C   0  0  0  0  0  0  0  0  0  0  0  0
    8.8700   -2.1160    0.1520 C   0  0  0  0  0  0  0  0  0  0  0  0
    7.8950   -1.1920    0.5670 O   0  0  0  0  0  0  0  0  0  0  0  0
    6.6870   -0.9660   -0.0550 C   0  0  0  0  0  0  0  0  0  0  0  0
    6.2680   -1.6360   -1.1830 C   0  0  0  0  0  0  0  0  0  0  0  0
    5.0390   -1.3390   -1.7370 C   0  0  0  0  0  0  0  0  0  0  0  0
    4.2320   -0.3830   -1.1760 C   0  0  0  0  0  0  0  0  0  0  0  0
    4.6580    0.2990   -0.0280 C   0  0  0  0  0  0  0  0  0  0  0  0
    3.7540    1.2540    0.4870 N   0  0  0  0  0  0  0  0  0  0  0  0
    4.0750    2.2330    1.4310 C   0  0  0  0  0  0  0  0  0  0  0  0
    5.2300    2.3550    1.9020 O   0  0  0  0  0  0  0  0  0  0  0  0
    3.0290    3.1840    1.9130 C   0  0  0  0  0  0  0  0  0  0  0  0
    1.7430    2.8880    1.4620 O   0  0  0  0  0  0  0  0  0  0  0  0
    1.0230    1.7520    1.7590 C   0  0  0  0  0  0  0  0  0  0  0  0
    1.5410    0.8900    2.5060 O   0  0  0  0  0  0  0  0  0  0  0  0
   -0.2990    1.6080    1.1950 C   0  0  0  0  0  0  0  0  0  0  0  0
   -1.4020    0.2300    1.4410 S   0  0  0  0  0  0  0  0  0  0  0  0
   -2.7150    0.8320    0.4550 C   0  0  0  0  0  0  0  0  0  0  0  0
   -2.2710    1.9860    0.0140 C   0  0  0  0  0  0  0  0  0  0  0  0
   -1.0370    2.4290    0.3650 C   0  0  0  0  0  0  0  0  0  0  0  0
   -0.3750    3.7390   -0.0590 C   0  0  0  0  0  0  0  0  0  0  0  0
   -3.3830    2.5190   -0.8350 C   0  0  0  0  0  0  0  0  0  0  0  0
   -3.6020    3.6690   -1.2310 O   0  0  0  0  0  0  0  0  0  0  0  0
   -4.2740    1.3620   -1.1680 C   0  0  0  0  0  0  0  0  0  0  0  0
   -4.0800    0.4390    0.0110 C   0  0  2  0  0  0  0  0  0  0  0  0
   -5.0770    0.7400    1.0780 C   0  0  0  0  0  0  0  0  0  0  0  0
   -6.4290    0.1660    0.8410 C   0  0  0  0  0  0  0  0  0  0  0  0
   -6.5160   -0.7910   -0.2990 C   0  0  0  0  0  0  0  0  0  0  0  0
   -5.3420   -1.7150   -0.2880 C   0  0  2  0  0  0  0  0  0  0  0  0
   -5.5430   -2.8240   -1.3120 C   0  0  0  0  0  0  0  0  0  0  0  0
   -5.9310   -3.7770   -0.1890 C   0  0  0  0  0  0  0  0  0  0  0  0
   -5.3410   -2.7820    0.7780 C   0  0  0  0  0  0  0  0  0  0  0  0
   -4.0410   -0.9960   -0.4050 C   0  0  0  0  0  0  0  0  0  0  0  0
    5.8760    0.0170    0.5360 C   0  0  0  0  0  0  0  0  0  0  0  0
  1  2  1  0
  2  3  1  0
  3  4  1  0
  4  5  2  0
  4 34  1  0
  5  6  1  0
  6  7  2  0
  7  8  1  0
  8  9  1  0
  8 34  2  0
  9 10  1  0
 10 11  2  0
 10 12  1  0
 12 13  1  0
 13 14  1  0
 14 15  2  0
 14 16  1  0
 16 17  1  0
 16 20  2  0
 17 18  1  0
 18 19  2  0
 18 25  1  0
 19 20  1  0
 19 22  1  0
 20 21  1  0
 22 23  2  0
 22 24  1  0
 25 24  1  6
 25 26  1  0
 25 33  1  0
 26 27  1  0
 27 28  1  0
 29 28  1  1
 29 30  1  0
 29 32  1  0
 29 33  1  0
 30 31  1  0
 31 32  1  0
M  END
