
     RDKit          3D

 37 41  0  0  0  0  0  0  0  0999 V2000
   -1.1530   -4.1920   -3.4530 C   0  0  0  0  0  0  0  0  0  0  0  0
   -0.8880   -2.9420   -2.7860 N   0  0  0  0  0  0  0  0  0  0  0  0
   -1.9400   -2.1210   -2.2660 C   0  0  0  0  0  0  0  0  0  0  0  0
   -3.1020   -2.1890   -2.8000 N   0  0  0  0  0  0  0  0  0  0  0  0
   -4.2250   -1.4160   -2.3630 C   0  0  0  0  0  0  0  0  0  0  0  0
   -3.9540   -0.5180   -1.2190 C   0  0  0  0  0  0  0  0  0  0  0  0
   -4.9940    0.2730   -0.7180 C   0  0  0  0  0  0  0  0  0  0  0  0
   -4.7650    1.1160    0.3450 C   0  0  0  0  0  0  0  0  0  0  0  0
   -3.5140    1.2190    0.9560 C   0  0  0  0  0  0  0  0  0  0  0  0
   -3.3040    2.1240    2.0790 C   0  0  0  0  0  0  0  0  0  0  0  0
   -3.6530    3.3690    2.1150 C   0  0  0  0  0  0  0  0  0  0  0  0
   -3.4040    4.1100    3.2320 F   0  0  0  0  0  0  0  0  0  0  0  0
   -4.2890    4.0450    0.9790 C   0  0  1  0  0  0  0  0  0  0  0  0
   -5.6000    4.3060    1.2340 F   0  0  0  0  0  0  0  0  0  0  0  0
   -3.5980    5.2460    0.7090 F   0  0  0  0  0  0  0  0  0  0  0  0
   -2.5190    0.4260    0.4350 C   0  0  0  0  0  0  0  0  0  0  0  0
   -1.2700    0.4640    0.9640 N   0  0  0  0  0  0  0  0  0  0  0  0
   -0.2980   -0.2990    0.4650 C   0  0  0  0  0  0  0  0  0  0  0  0
    1.0270   -0.2500    1.0160 N   0  0  0  0  0  0  0  0  0  0  0  0
    1.3290   -0.8400    2.2720 C   0  0  0  0  0  0  0  0  0  0  0  0
    0.4290   -1.3860    2.9280 O   0  0  0  0  0  0  0  0  0  0  0  0
    2.7000   -0.7930    2.7620 C   0  0  0  0  0  0  0  0  0  0  0  0
    3.3650    0.1370    3.5210 C   0  0  0  0  0  0  0  0  0  0  0  0
    4.6270   -0.3030    3.6910 N   0  0  0  0  0  0  0  0  0  0  0  0
    4.8050   -1.4530    3.0860 N   0  0  0  0  0  0  0  0  0  0  0  0
    3.6490   -1.7910    2.5040 C   0  0  0  0  0  0  0  0  0  0  0  0
    3.3580   -3.0170    1.7000 C   0  0  0  0  0  0  0  0  0  0  0  0
    1.9840    0.4370    0.2250 C   0  0  0  0  0  0  0  0  0  0  0  0
    2.2300    1.7680    0.5000 C   0  0  0  0  0  0  0  0  0  0  0  0
    3.1420    2.4820   -0.2400 C   0  0  0  0  0  0  0  0  0  0  0  0
    3.8240    1.8540   -1.2740 C   0  0  0  0  0  0  0  0  0  0  0  0
    4.8150    2.6010   -2.0880 C   0  0  0  0  0  0  0  0  0  0  0  0
    3.5990    0.5320   -1.5670 C   0  0  0  0  0  0  0  0  0  0  0  0
    2.6730   -0.1500   -0.8010 C   0  0  0  0  0  0  0  0  0  0  0  0
   -0.5030   -1.1480   -0.5890 N   0  0  0  0  0  0  0  0  0  0  0  0
   -1.7200   -1.2200   -1.1450 C   0  0  0  0  0  0  0  0  0  0  0  0
   -2.7180   -0.4360   -0.6360 C   0  0  0  0  0  0  0  0  0  0  0  0
  1  2  1  0
  2  3  1  0
  3  4  2  0
  3 36  1  0
  4  5  1  0
  5  6  1  0
  6  7  1  0
  6 37  2  0
  7  8  2  0
  8  9  1  0
  9 10  1  0
  9 16  2  0
 10 11  2  3
 11 12  1  0
 11 13  1  0
 13 14  1  1
 13 15  1  0
 16 17  1  0
 16 37  1  0
 17 18  2  0
 18 19  1  0
 18 35  1  0
 19 20  1  0
 19 28  1  0
 20 21  2  0
 20 22  1  0
 22 23  1  0
 22 26  2  0
 23 24  2  0
 24 25  1  0
 25 26  1  0
 26 27  1  0
 28 29  2  0
 28 34  1  0
 29 30  1  0
 30 31  2  0
 31 32  1  0
 31 33  1  0
 33 34  2  0
 35 36  2  0
 36 37  1  0
M  END
