
     RDKit          3D

 36 39  0  0  0  0  0  0  0  0999 V2000
    7.7290    4.0170   -0.9630 C   0  0  0  0  0  0  0  0  0  0  0  0
    6.6550    3.1260   -0.4360 C   0  0  0  0  0  0  0  0  0  0  0  0
    5.8430    3.5530    0.5940 C   0  0  0  0  0  0  0  0  0  0  0  0
    4.8230    2.7560    1.1230 C   0  0  0  0  0  0  0  0  0  0  0  0
    4.6240    1.5110    0.6010 C   0  0  0  0  0  0  0  0  0  0  0  0
    5.4390    1.0920   -0.4280 C   0  0  0  0  0  0  0  0  0  0  0  0
    6.4280    1.8930   -0.9240 N   0  0  0  0  0  0  0  0  0  0  0  0
    5.1860   -0.2700   -0.9590 C   0  0  0  0  0  0  0  0  0  0  0  0
    3.7240   -0.5090   -1.1030 C   0  0  0  0  0  0  0  0  0  0  0  0
    2.8810    0.1820   -0.1720 N   0  0  1  0  0  0  0  0  0  0  0  0
    1.7000   -0.6140    0.1170 C   0  0  0  0  0  0  0  0  0  0  0  0
    0.9130   -0.9300   -1.1140 C   0  0  0  0  0  0  0  0  0  0  0  0
   -0.2380   -1.7290   -0.7450 N   0  0  0  0  0  0  0  0  0  0  0  0
   -1.2620   -1.3030    0.1260 C   0  0  0  0  0  0  0  0  0  0  0  0
   -1.1480   -0.1380    0.6020 O   0  0  0  0  0  0  0  0  0  0  0  0
   -2.3950   -2.0580    0.5100 N   0  0  0  0  0  0  0  0  0  0  0  0
   -3.3730   -1.4780    1.4230 C   0  0  0  0  0  0  0  0  0  0  0  0
   -4.3970   -0.7780    0.6190 C   0  0  0  0  0  0  0  0  0  0  0  0
   -4.2910   -0.7780   -0.6280 O   0  0  0  0  0  0  0  0  0  0  0  0
   -5.4890   -0.1110    1.2650 N   0  0  0  0  0  0  0  0  0  0  0  0
   -6.4730    0.5740    0.4620 C   0  0  0  0  0  0  0  0  0  0  0  0
   -5.9200    1.7220   -0.2700 C   0  0  0  0  0  0  0  0  0  0  0  0
   -4.6290    2.1570   -0.1760 C   0  0  0  0  0  0  0  0  0  0  0  0
   -4.2020    3.2780   -0.9020 C   0  0  0  0  0  0  0  0  0  0  0  0
   -5.0730    3.9560   -1.7170 C   0  0  0  0  0  0  0  0  0  0  0  0
   -4.4820    5.3630   -2.6090 Cl  0  0  0  0  0  0  0  0  0  0  0  0
   -6.3640    3.5230   -1.8110 C   0  0  0  0  0  0  0  0  0  0  0  0
   -6.7820    2.4220   -1.0990 C   0  0  0  0  0  0  0  0  0  0  0  0
   -8.4510    1.8980   -1.2490 Cl  0  0  0  0  0  0  0  0  0  0  0  0
   -2.6180   -3.4010    0.0210 C   0  0  0  0  0  0  0  0  0  0  0  0
   -2.0110   -4.4240    0.8900 C   0  0  0  0  0  0  0  0  0  0  0  0
   -0.7600   -4.9640    0.7390 C   0  0  0  0  0  0  0  0  0  0  0  0
   -0.5940   -5.8870    1.7720 C   0  0  0  0  0  0  0  0  0  0  0  0
   -1.7760   -5.8410    2.4880 C   0  0  0  0  0  0  0  0  0  0  0  0
   -2.5870   -4.9630    1.9320 O   0  0  0  0  0  0  0  0  0  0  0  0
    3.5830    0.5450    1.0450 C   0  0  0  0  0  0  0  0  0  0  0  0
  1  2  1  0
  2  3  2  0
  2  7  1  0
  3  4  1  0
  4  5  2  0
  5  6  1  0
  5 36  1  0
  6  7  2  0
  6  8  1  0
  8  9  1  0
  9 10  1  0
 10 11  1  1
 10 36  1  0
 11 12  1  0
 12 13  1  0
 13 14  1  0
 14 15  2  0
 14 16  1  0
 16 17  1  0
 16 30  1  0
 17 18  1  0
 18 19  2  0
 18 20  1  0
 20 21  1  0
 21 22  1  0
 22 23  2  0
 22 28  1  0
 23 24  1  0
 24 25  2  0
 25 26  1  0
 25 27  1  0
 27 28  2  0
 28 29  1  0
 30 31  1  0
 31 32  2  0
 31 35  1  0
 32 33  1  0
 33 34  2  0
 34 35  1  0
M  CHG  2   7   1  10   1
M  END
