
     RDKit          3D

 36 40  0  0  0  0  0  0  0  0999 V2000
    1.8840    1.7840    3.1230 C   0  0  0  0  0  0  0  0  0  0  0  0
    0.8870    1.7880    2.0250 C   0  0  0  0  0  0  0  0  0  0  0  0
    1.1540    1.1830    0.8930 C   0  0  0  0  0  0  0  0  0  0  0  0
    2.4360    0.5080    0.7240 C   0  0  0  0  0  0  0  0  0  0  0  0
    3.2980    0.4790    1.6210 O   0  0  0  0  0  0  0  0  0  0  0  0
    2.7800   -0.1630   -0.4900 N   0  0  0  0  0  0  0  0  0  0  0  0
    4.0320   -0.8190   -0.6630 C   0  0  0  0  0  0  0  0  0  0  0  0
    4.2630   -1.4310   -1.8780 C   0  0  0  0  0  0  0  0  0  0  0  0
    5.4340   -2.0800   -2.1350 C   0  0  0  0  0  0  0  0  0  0  0  0
    6.4030   -2.1140   -1.1340 C   0  0  0  0  0  0  0  0  0  0  0  0
    7.6990   -2.8320   -1.4240 C   0  0  0  0  0  0  0  0  0  0  0  0
    6.1350   -1.4970    0.0540 C   0  0  0  0  0  0  0  0  0  0  0  0
    7.1850   -1.5350    1.1420 C   0  0  1  0  0  0  0  0  0  0  0  0
    7.4860   -2.8160    1.5260 F   0  0  0  0  0  0  0  0  0  0  0  0
    8.3300   -0.9380    0.6680 F   0  0  0  0  0  0  0  0  0  0  0  0
    6.6940   -0.8870    2.2640 F   0  0  0  0  0  0  0  0  0  0  0  0
    4.9690   -0.8640    0.2760 N   0  0  0  0  0  0  0  0  0  0  0  0
    0.1890    1.1530   -0.2450 C   0  0  0  0  0  0  0  0  0  0  0  0
   -1.0330    1.8560    0.0400 N   0  0  0  0  0  0  0  0  0  0  0  0
   -2.0650    1.9260   -0.9440 C   0  0  0  0  0  0  0  0  0  0  0  0
   -3.2080    2.5670   -0.7130 C   0  0  0  0  0  0  0  0  0  0  0  0
   -4.2620    2.6300   -1.7480 C   0  0  0  0  0  0  0  0  0  0  0  0
   -5.5400    1.9490   -1.4600 C   0  0  0  0  0  0  0  0  0  0  0  0
   -5.5000    0.5070   -1.2390 C   0  0  0  0  0  0  0  0  0  0  0  0
   -5.7020   -0.4570   -2.2400 C   0  0  0  0  0  0  0  0  0  0  0  0
   -5.5470   -1.6730   -1.7100 N   0  0  0  0  0  0  0  0  0  0  0  0
   -5.2480   -1.5440   -0.3830 C   0  0  0  0  0  0  0  0  0  0  0  0
   -5.0090   -2.4590    0.6000 C   0  0  0  0  0  0  0  0  0  0  0  0
   -4.7340   -2.1290    1.9090 C   0  0  0  0  0  0  0  0  0  0  0  0
   -4.7140   -0.7660    2.1750 C   0  0  0  0  0  0  0  0  0  0  0  0
   -4.9480    0.1850    1.2140 C   0  0  0  0  0  0  0  0  0  0  0  0
   -5.2200   -0.1930   -0.0940 C   0  0  0  0  0  0  0  0  0  0  0  0
   -3.3780    3.1910    0.5520 N   0  0  0  0  0  0  0  0  0  0  0  0
   -2.5060    3.1680    1.4630 N   0  0  0  0  0  0  0  0  0  0  0  0
   -1.2430    2.4920    1.2910 C   0  0  0  0  0  0  0  0  0  0  0  0
   -0.3710    2.4760    2.2330 N   0  0  0  0  0  0  0  0  0  0  0  0
  1  2  1  0
  2  3  2  0
  2 36  1  0
  3  4  1  0
  3 18  1  0
  4  5  2  0
  4  6  1  0
  6  7  1  0
  7  8  2  0
  7 17  1  0
  8  9  1  0
  9 10  2  0
 10 11  1  0
 10 12  1  0
 12 13  1  0
 12 17  2  0
 13 14  1  1
 13 15  1  0
 13 16  1  0
 18 19  1  0
 19 20  1  0
 19 35  1  0
 20 21  2  0
 21 22  1  0
 21 33  1  0
 22 23  1  0
 23 24  1  0
 24 25  2  0
 24 32  1  0
 25 26  1  0
 26 27  1  0
 27 28  2  0
 27 32  1  0
 28 29  1  0
 29 30  2  0
 30 31  1  0
 31 32  2  0
 33 34  2  0
 34 35  1  0
 35 36  2  0
M  END
