
     RDKit          3D

 37 41  0  0  0  0  0  0  0  0999 V2000
   -5.9330    2.2550    1.8220 C   0  0  0  0  0  0  0  0  0  0  0  0
   -4.8040    1.7400    1.2880 C   0  0  0  0  0  0  0  0  0  0  0  0
   -4.6900    1.4350   -0.1340 C   0  0  0  0  0  0  0  0  0  0  0  0
   -3.4550    0.7760   -0.5000 C   0  0  0  0  0  0  0  0  0  0  0  0
   -3.1840    0.2690   -1.8660 C   0  0  0  0  0  0  0  0  0  0  0  0
   -3.9510    0.3470   -2.9680 C   0  0  0  0  0  0  0  0  0  0  0  0
   -5.2650    0.9930   -3.1070 C   0  0  0  0  0  0  0  0  0  0  0  0
   -3.2830   -0.2920   -3.9850 N   0  0  0  0  0  0  0  0  0  0  0  0
   -2.1370   -0.7580   -3.5490 N   0  0  0  0  0  0  0  0  0  0  0  0
   -1.0550   -1.4440   -3.9340 C   0  0  0  0  0  0  0  0  0  0  0  0
   -0.7000   -2.0280   -5.2630 C   0  0  0  0  0  0  0  0  0  0  0  0
   -0.2580   -1.5500   -2.8580 N   0  0  0  0  0  0  0  0  0  0  0  0
   -0.8720   -0.9200   -1.8110 N   0  0  0  0  0  0  0  0  0  0  0  0
   -0.2700   -0.8470   -0.5340 C   0  0  0  0  0  0  0  0  0  0  0  0
    0.6830    0.1550   -0.2810 C   0  0  0  0  0  0  0  0  0  0  0  0
    1.3540    0.2210    0.8950 C   0  0  0  0  0  0  0  0  0  0  0  0
    1.1060   -0.7220    1.8930 C   0  0  0  0  0  0  0  0  0  0  0  0
    1.9660   -0.6780    3.1470 C   0  0  0  0  0  0  0  0  0  0  0  0
    3.3020   -0.3000    2.6020 N   0  0  0  0  0  0  0  0  0  0  0  0
    4.0410   -1.2920    1.9000 C   0  0  0  0  0  0  0  0  0  0  0  0
    3.5250   -2.4470    1.8280 O   0  0  0  0  0  0  0  0  0  0  0  0
    5.3290   -1.0460    1.2630 C   0  0  0  0  0  0  0  0  0  0  0  0
    6.0540    0.1210    1.1970 C   0  0  0  0  0  0  0  0  0  0  0  0
    7.1690   -0.1000    0.4490 C   0  0  0  0  0  0  0  0  0  0  0  0
    8.2540    0.8580    0.0680 C   0  0  1  0  0  0  0  0  0  0  0  0
    8.2030    0.9830   -1.3200 F   0  0  0  0  0  0  0  0  0  0  0  0
    8.0500    2.0880    0.6120 F   0  0  0  0  0  0  0  0  0  0  0  0
    9.4940    0.3970    0.3710 F   0  0  0  0  0  0  0  0  0  0  0  0
    7.1290   -1.4250    0.0510 C   0  0  0  0  0  0  0  0  0  0  0  0
    6.0220   -1.9760    0.5450 N   0  0  0  0  0  0  0  0  0  0  0  0
    0.1920   -1.7020    1.6920 C   0  0  0  0  0  0  0  0  0  0  0  0
   -0.5030   -1.7620    0.4580 C   0  0  0  0  0  0  0  0  0  0  0  0
   -2.0310   -0.4280   -2.2200 C   0  0  0  0  0  0  0  0  0  0  0  0
   -2.5700    0.5890    0.4030 N   0  0  0  0  0  0  0  0  0  0  0  0
   -2.6220    0.9270    1.7460 C   0  0  0  0  0  0  0  0  0  0  0  0
   -3.7220    1.5040    2.2000 C   0  0  0  0  0  0  0  0  0  0  0  0
   -3.8210    1.8910    3.6550 C   0  0  0  0  0  0  0  0  0  0  0  0
  1  2  2  0
  2  3  1  0
  2 36  1  0
  3  4  1  0
  4  5  1  0
  4 34  2  0
  5  6  1  0
  5 33  2  0
  6  7  1  0
  6  8  2  0
  8  9  1  0
  9 10  1  0
  9 33  1  0
 10 11  1  0
 10 12  2  0
 12 13  1  0
 13 14  1  0
 13 33  1  0
 14 15  2  0
 14 32  1  0
 15 16  1  0
 16 17  2  0
 17 18  1  0
 17 31  1  0
 18 19  1  0
 19 20  1  0
 20 21  2  0
 20 22  1  0
 22 23  2  0
 22 30  1  0
 23 24  1  0
 24 25  1  0
 24 29  2  0
 25 26  1  6
 25 27  1  0
 25 28  1  0
 29 30  1  0
 31 32  2  0
 34 35  1  0
 35 36  2  0
 36 37  1  0
M  END
