
     RDKit          3D

 36 39  0  0  0  0  0  0  0  0999 V2000
    8.4900   -1.7590   -0.0300 C   0  0  0  0  0  0  0  0  0  0  0  0
    7.9210   -1.2780    1.2870 C   0  0  0  0  0  0  0  0  0  0  0  0
    8.5290   -1.5600    2.4180 N   0  0  0  0  0  0  0  0  0  0  0  0
    8.2240   -1.2940    3.5180 C   0  0  0  0  0  0  0  0  0  0  0  0
    6.6260   -0.3540    3.1500 S   0  0  0  0  0  0  0  0  0  0  0  0
    6.7690   -0.5740    1.3800 C   0  0  0  0  0  0  0  0  0  0  0  0
    5.7920   -0.0720    0.4290 C   0  0  0  0  0  0  0  0  0  0  0  0
    5.9240   -0.0710   -0.9230 C   0  0  0  0  0  0  0  0  0  0  0  0
    4.9020    0.3940   -1.7450 C   0  0  0  0  0  0  0  0  0  0  0  0
    3.7060    0.8790   -1.2710 C   0  0  0  0  0  0  0  0  0  0  0  0
    2.6770    1.3200   -2.2260 C   0  0  0  0  0  0  0  0  0  0  0  0
    1.5050    1.9060   -1.6750 N   0  0  0  0  0  0  0  0  0  0  0  0
    0.5280    1.1190   -0.9840 C   0  0  0  0  0  0  0  0  0  0  0  0
    0.7770   -0.0980   -0.8730 O   0  0  0  0  0  0  0  0  0  0  0  0
   -0.6850    1.7840   -0.4610 C   0  0  2  0  0  0  0  0  0  0  0  0
   -0.3240    3.1080    0.2410 C   0  0  0  0  0  0  0  0  0  0  0  0
   -0.6950    2.8750    1.7120 C   0  0  1  0  0  0  0  0  0  0  0  0
   -1.9530    3.3180    2.0170 O   0  0  0  0  0  0  0  0  0  0  0  0
   -0.6100    1.3640    1.7240 C   0  0  0  0  0  0  0  0  0  0  0  0
   -1.3890    1.0010    0.5050 N   0  0  0  0  0  0  0  0  0  0  0  0
   -2.4750    0.1650    0.5170 C   0  0  0  0  0  0  0  0  0  0  0  0
   -2.8100   -0.2460    1.7340 O   0  0  0  0  0  0  0  0  0  0  0  0
   -3.3780   -0.4060   -0.4600 C   0  0  1  0  0  0  0  0  0  0  0  0
   -4.7640   -0.4620    0.0360 N   0  0  0  0  0  0  0  0  0  0  0  0
   -5.1760   -1.4890    0.9060 C   0  0  0  0  0  0  0  0  0  0  0  0
   -4.3430   -2.3330    1.2600 O   0  0  0  0  0  0  0  0  0  0  0  0
   -6.5630   -1.6180    1.4320 C   0  0  2  0  0  0  0  0  0  0  0  0
   -7.5300   -0.8160    0.8500 F   0  0  0  0  0  0  0  0  0  0  0  0
   -6.6250   -1.6700    2.9470 C   0  0  0  0  0  0  0  0  0  0  0  0
   -6.9200   -2.8890    2.1800 C   0  0  0  0  0  0  0  0  0  0  0  0
   -3.3710   -0.1150   -1.8810 C   0  0  2  0  0  0  0  0  0  0  0  0
   -2.0530   -0.4930   -2.5810 C   0  0  0  0  0  0  0  0  0  0  0  0
   -3.8360    1.2430   -2.3240 C   0  0  0  0  0  0  0  0  0  0  0  0
   -4.3840   -1.0960   -2.5280 C   0  0  0  0  0  0  0  0  0  0  0  0
    3.5660    0.8840    0.1050 C   0  0  0  0  0  0  0  0  0  0  0  0
    4.5820    0.4190    0.9270 C   0  0  0  0  0  0  0  0  0  0  0  0
  1  2  1  0
  2  3  1  0
  2  6  2  0
  3  4  2  0
  4  5  1  0
  5  6  1  0
  6  7  1  0
  7  8  2  0
  7 36  1  0
  8  9  1  0
  9 10  2  0
 10 11  1  0
 10 35  1  0
 11 12  1  0
 12 13  1  0
 13 14  2  0
 15 13  1  1
 15 16  1  0
 15 20  1  0
 16 17  1  0
 17 18  1  6
 17 19  1  0
 19 20  1  0
 20 21  1  0
 21 22  2  0
 21 23  1  0
 23 24  1  1
 23 31  1  0
 24 25  1  0
 25 26  2  0
 25 27  1  0
 27 28  1  6
 27 29  1  0
 27 30  1  0
 29 30  1  0
 31 32  1  6
 31 33  1  0
 31 34  1  0
 35 36  2  0
M  END
