
     RDKit          3D

 43 46  0  0  0  0  0  0  0  0999 V2000
   -3.3090   -3.3770   -2.7690 C   0  0  0  0  0  0  0  0  0  0  0  0
   -3.0900   -3.6280   -1.3370 C   0  0  0  0  0  0  0  0  0  0  0  0
   -3.1580   -4.8840   -0.8320 C   0  0  0  0  0  0  0  0  0  0  0  0
   -2.9460   -5.1660    0.5030 C   0  0  0  0  0  0  0  0  0  0  0  0
   -3.0310   -6.4770    1.0030 O   0  0  0  0  0  0  0  0  0  0  0  0
   -2.6590   -4.1170    1.3440 C   0  0  0  0  0  0  0  0  0  0  0  0
   -2.5850   -2.8720    0.8640 C   0  0  0  0  0  0  0  0  0  0  0  0
   -2.7930   -2.5890   -0.4600 C   0  0  0  0  0  0  0  0  0  0  0  0
   -2.8230   -1.2270   -0.9150 C   0  0  1  0  0  0  0  0  0  0  0  0
   -3.7510   -0.4880   -0.1930 O   0  0  0  0  0  0  0  0  0  0  0  0
   -1.5550   -0.4440   -1.0100 C   0  0  0  0  0  0  0  0  0  0  0  0
   -0.2940   -1.1040   -1.0090 C   0  0  0  0  0  0  0  0  0  0  0  0
    0.8310   -0.4230   -1.2850 C   0  0  0  0  0  0  0  0  0  0  0  0
    2.1990   -0.7520   -0.9750 C   0  0  0  0  0  0  0  0  0  0  0  0
    2.6080   -0.0130    0.0750 O   0  0  0  0  0  0  0  0  0  0  0  0
    3.2390   -1.5610   -1.4270 N   0  0  0  0  0  0  0  0  0  0  0  0
    4.5030   -1.3590   -0.7620 N   0  0  0  0  0  0  0  0  0  0  0  0
    4.6150   -1.3760    0.6470 C   0  0  0  0  0  0  0  0  0  0  0  0
    3.6500   -1.6920    1.3600 O   0  0  0  0  0  0  0  0  0  0  0  0
    5.9180   -0.9730    1.3470 C   0  0  0  0  0  0  0  0  0  0  0  0
    6.8240   -0.8140    0.4320 O   0  0  0  0  0  0  0  0  0  0  0  0
    8.0510   -0.3360    0.1410 C   0  0  0  0  0  0  0  0  0  0  0  0
    8.8550    0.3530    1.0260 C   0  0  0  0  0  0  0  0  0  0  0  0
   10.1640    0.8160    0.6390 C   0  0  0  0  0  0  0  0  0  0  0  0
   10.5220    0.5300   -0.6200 C   0  0  0  0  0  0  0  0  0  0  0  0
    9.7650   -0.1410   -1.5320 C   0  0  0  0  0  0  0  0  0  0  0  0
    8.5210   -0.5810   -1.1650 C   0  0  0  0  0  0  0  0  0  0  0  0
    0.7090    0.9960   -1.6130 C   0  0  0  0  0  0  0  0  0  0  0  0
   -0.4850    1.5860   -1.5880 C   0  0  0  0  0  0  0  0  0  0  0  0
   -1.6420    0.8470   -1.2730 C   0  0  0  0  0  0  0  0  0  0  0  0
   -2.6430    1.8260   -0.6300 C   0  0  0  0  0  0  0  0  0  0  0  0
   -3.3110    2.4630   -1.3810 O   0  0  0  0  0  0  0  0  0  0  0  0
   -2.6160    1.9130    0.7600 N   0  0  0  0  0  0  0  0  0  0  0  0
   -3.2700    2.9710    1.5150 C   0  0  1  0  0  0  0  0  0  0  0  0
   -3.1090    2.9300    2.9360 C   0  0  0  0  0  0  0  0  0  0  0  0
   -2.6680    4.1810    0.8760 C   0  0  0  0  0  0  0  0  0  0  0  0
   -2.0850    5.3080    0.2890 N   0  0  0  0  0  0  0  0  0  0  0  0
   -4.6860    3.3690    1.1190 C   0  0  0  0  0  0  0  0  0  0  0  0
   -5.4640    2.6610    0.4260 C   0  0  0  0  0  0  0  0  0  0  0  0
   -6.8500    3.0990   -0.0280 C   0  0  0  0  0  0  0  0  0  0  0  0
   -7.5470    4.3360    1.0250 S   0  0  0  0  0  0  0  0  0  0  0  0
   -6.2260    5.1420    1.8860 C   0  0  0  0  0  0  0  0  0  0  0  0
   -5.0210    4.6300    1.8680 C   0  0  0  0  0  0  0  0  0  0  0  0
  1  2  1  0
  2  3  2  0
  2  8  1  0
  3  4  1  0
  4  5  1  0
  4  6  2  0
  6  7  1  0
  7  8  2  0
  8  9  1  0
  9 10  1  1
  9 11  1  0
 11 12  2  0
 11 30  1  0
 12 13  1  0
 13 14  1  0
 13 28  2  0
 14 15  2  0
 14 16  1  0
 16 17  1  0
 17 18  1  0
 18 19  2  0
 18 20  1  0
 20 21  1  0
 21 22  1  0
 22 23  2  0
 22 27  1  0
 23 24  1  0
 24 25  2  0
 25 26  1  0
 26 27  2  0
 28 29  1  0
 29 30  2  0
 30 31  1  0
 31 32  2  0
 31 33  1  0
 33 34  1  0
 34 35  1  1
 34 36  1  0
 34 38  1  0
 36 37  3  0
 38 39  2  0
 38 43  1  0
 39 40  1  0
 40 41  1  0
 41 42  1  0
 42 43  2  0
M  END
