
     RDKit          3D

 43 45  0  0  0  0  0  0  0  0999 V2000
   -0.8030   -3.4580    4.2490 C   0  0  0  0  0  0  0  0  0  0  0  0
   -1.9490   -2.6310    3.7380 C   0  0  0  0  0  0  0  0  0  0  0  0
   -1.6510   -1.8930    2.5440 N   0  0  0  0  0  0  0  0  0  0  0  0
   -0.6310   -0.9210    2.4680 C   0  0  0  0  0  0  0  0  0  0  0  0
    0.0170   -0.7410    3.5460 O   0  0  0  0  0  0  0  0  0  0  0  0
   -0.3370   -0.1660    1.2250 C   0  0  0  0  0  0  0  0  0  0  0  0
    0.6920    0.6970    1.3510 C   0  0  0  0  0  0  0  0  0  0  0  0
    1.3750    1.6390    0.4870 C   0  0  0  0  0  0  0  0  0  0  0  0
    2.4710    1.1900   -0.1500 C   0  0  0  0  0  0  0  0  0  0  0  0
    3.1510   -0.0760   -0.1660 C   0  0  0  0  0  0  0  0  0  0  0  0
    4.2420   -0.2290   -0.9370 C   0  0  0  0  0  0  0  0  0  0  0  0
    5.0100   -1.4640   -1.0490 C   0  0  0  0  0  0  0  0  0  0  0  0
    4.6190   -2.5170   -0.3660 C   0  0  0  0  0  0  0  0  0  0  0  0
    3.4410   -2.5060    0.4900 C   0  0  1  0  0  0  0  0  0  0  0  0
    3.8670   -2.9630    1.8870 C   0  0  0  0  0  0  0  0  0  0  0  0
    2.8540   -1.1920    0.6490 N   0  0  0  0  0  0  0  0  0  0  0  0
    5.7910   -3.8120   -0.6670 S   0  0  0  0  0  0  0  0  0  0  0  0
    5.3790   -4.5490   -1.9570 O   0  0  0  0  0  0  0  0  0  0  0  0
    7.1330   -2.6470   -1.1700 C   0  0  0  0  0  0  0  0  0  0  0  0
    6.2130   -1.6750   -1.8790 C   0  0  0  0  0  0  0  0  0  0  0  0
    1.1520    3.0780    0.2310 C   0  0  0  0  0  0  0  0  0  0  0  0
    0.2950    3.9500   -0.1950 C   0  0  0  0  0  0  0  0  0  0  0  0
    0.9150    5.4190   -0.1320 C   0  0  0  0  0  0  0  0  0  0  0  0
   -1.0300    4.0110   -0.7740 C   0  0  0  0  0  0  0  0  0  0  0  0
   -1.0390    4.5890   -2.1510 O   0  0  0  0  0  0  0  0  0  0  0  0
   -1.7840    5.7240   -2.4220 C   0  0  0  0  0  0  0  0  0  0  0  0
   -2.2170    3.6560   -0.3230 C   0  0  0  0  0  0  0  0  0  0  0  0
   -2.7950    3.0720    0.8550 C   0  0  0  0  0  0  0  0  0  0  0  0
   -3.2620    1.8310    1.0780 C   0  0  0  0  0  0  0  0  0  0  0  0
   -3.8020    1.5440    2.4250 C   0  0  0  0  0  0  0  0  0  0  0  0
   -3.7480    2.7560    3.3580 C   0  0  0  0  0  0  0  0  0  0  0  0
   -3.3470    0.7360    0.0610 C   0  0  0  0  0  0  0  0  0  0  0  0
   -4.5550    0.3650   -0.1700 O   0  0  0  0  0  0  0  0  0  0  0  0
   -2.2390    0.1280   -0.6160 N   0  0  0  0  0  0  0  0  0  0  0  0
   -2.1700    0.0540   -2.0310 C   0  0  0  0  0  0  0  0  0  0  0  0
   -2.5240   -1.2220   -2.7210 C   0  0  0  0  0  0  0  0  0  0  0  0
   -1.4970   -1.7740   -3.3520 C   0  0  0  0  0  0  0  0  0  0  0  0
   -1.4580   -2.9530   -4.0920 N   0  0  0  0  0  0  0  0  0  0  0  0
   -3.8100   -1.8290   -2.7850 C   0  0  0  0  0  0  0  0  0  0  0  0
   -3.9980   -3.1090   -3.5540 C   0  0  0  0  0  0  0  0  0  0  0  0
   -4.8730   -1.4120   -2.2540 O   0  0  0  0  0  0  0  0  0  0  0  0
   -1.1330   -0.5360    0.0830 C   0  0  0  0  0  0  0  0  0  0  0  0
   -0.8160   -1.7210   -0.4610 O   0  0  0  0  0  0  0  0  0  0  0  0
  1  2  1  0
  2  3  1  0
  3  4  1  0
  4  5  2  0
  4  6  1  0
  6  7  2  0
  6 42  1  0
  7  8  1  0
  8  9  2  3
  8 21  1  0
  9 10  1  0
 10 11  2  0
 10 16  1  0
 11 12  1  0
 12 13  2  0
 12 20  1  0
 13 14  1  0
 13 17  1  0
 14 15  1  1
 14 16  1  0
 17 18  2  0
 17 19  1  6
 19 20  1  0
 21 22  2  0
 22 23  1  0
 22 24  1  0
 24 25  1  0
 24 27  2  0
 25 26  1  0
 27 28  1  0
 28 29  2  0
 29 30  1  0
 29 32  1  0
 30 31  1  0
 32 33  2  0
 32 34  1  0
 34 35  1  0
 34 42  1  0
 35 36  1  0
 36 37  2  3
 36 39  1  0
 37 38  1  0
 39 40  1  0
 39 41  2  0
 42 43  2  0
M  END
