
     RDKit          3D

 43 46  0  0  0  0  0  0  0  0999 V2000
   -3.5680   -4.6820    1.8660 C   0  0  0  0  0  0  0  0  0  0  0  0
   -3.0680   -3.3540    2.1750 N   0  0  0  0  0  0  0  0  0  0  0  0
   -3.4590   -2.2540    1.4140 C   0  0  0  0  0  0  0  0  0  0  0  0
   -4.2870   -2.4900    0.4510 O   0  0  0  0  0  0  0  0  0  0  0  0
   -3.0370   -0.8470    1.5630 C   0  0  0  0  0  0  0  0  0  0  0  0
   -3.2960   -0.0170    0.3430 C   0  0  1  0  0  0  0  0  0  0  0  0
   -2.5000   -0.7360   -0.7730 C   0  0  0  0  0  0  0  0  0  0  0  0
   -1.1120   -0.9000   -0.4200 N   0  0  0  0  0  0  0  0  0  0  0  0
   -0.2010   -1.5430   -1.3190 C   0  0  0  0  0  0  0  0  0  0  0  0
   -0.5710   -1.9360   -2.4300 O   0  0  0  0  0  0  0  0  0  0  0  0
    1.1710   -1.7060   -0.8200 C   0  0  0  0  0  0  0  0  0  0  0  0
    1.4190   -2.9230   -0.1650 C   0  0  0  0  0  0  0  0  0  0  0  0
    2.6560   -3.1740    0.3600 C   0  0  0  0  0  0  0  0  0  0  0  0
    3.6720   -2.2160    0.2420 C   0  0  0  0  0  0  0  0  0  0  0  0
    3.4580   -1.0230   -0.3930 C   0  0  0  0  0  0  0  0  0  0  0  0
    4.4360   -0.0250   -0.5660 N   0  0  0  0  0  0  0  0  0  0  0  0
    5.8280   -0.2340   -0.3890 C   0  0  0  0  0  0  0  0  0  0  0  0
    6.1940   -1.3660   -0.0770 O   0  0  0  0  0  0  0  0  0  0  0  0
    6.8000    0.7710   -0.5440 N   0  0  0  0  0  0  0  0  0  0  0  0
    8.2030    0.6130   -0.3790 C   0  0  0  0  0  0  0  0  0  0  0  0
    8.8160   -0.5680   -0.0950 C   0  0  0  0  0  0  0  0  0  0  0  0
   10.2010   -0.6270    0.0360 C   0  0  0  0  0  0  0  0  0  0  0  0
   11.0020    0.4780   -0.1090 C   0  0  0  0  0  0  0  0  0  0  0  0
   12.4840    0.4080    0.0290 C   0  0  0  0  0  0  0  0  0  0  0  0
   10.4000    1.6690   -0.3940 C   0  0  0  0  0  0  0  0  0  0  0  0
    9.0130    1.7440   -0.5290 C   0  0  0  0  0  0  0  0  0  0  0  0
    8.5130    2.9870   -0.8130 O   0  0  0  0  0  0  0  0  0  0  0  0
    2.1810   -0.7990   -0.9180 C   0  0  0  0  0  0  0  0  0  0  0  0
   -4.7430   -0.0840    0.0230 C   0  0  0  0  0  0  0  0  0  0  0  0
   -5.6970    0.2300    0.9560 C   0  0  0  0  0  0  0  0  0  0  0  0
   -7.0700    0.1620    0.6520 C   0  0  0  0  0  0  0  0  0  0  0  0
   -7.4640   -0.2250   -0.5940 C   0  0  0  0  0  0  0  0  0  0  0  0
   -6.5360   -0.5450   -1.5400 C   0  0  0  0  0  0  0  0  0  0  0  0
   -6.9340   -0.9410   -2.8030 O   0  0  0  0  0  0  0  0  0  0  0  0
   -8.2940   -1.0390   -3.1760 C   0  0  0  0  0  0  0  0  0  0  0  0
   -5.2050   -0.4710   -1.2250 C   0  0  0  0  0  0  0  0  0  0  0  0
   -2.7140    1.3220    0.4130 C   0  0  2  0  0  0  0  0  0  0  0  0
   -3.1090    2.2620    1.4860 C   0  0  0  0  0  0  0  0  0  0  0  0
   -2.4540    3.5380    0.8630 C   0  0  0  0  0  0  0  0  0  0  0  0
   -3.3050    3.7430   -0.4790 S   0  0  0  0  0  0  0  0  0  0  0  0
   -4.7210    4.2170    0.1720 C   0  0  0  0  0  0  0  0  0  0  0  0
   -2.1380    4.9290   -0.8830 O   0  0  0  0  0  0  0  0  0  0  0  0
   -2.9730    2.1300   -0.8820 C   0  0  0  0  0  0  0  0  0  0  0  0
  1  2  1  0
  2  3  1  0
  3  4  2  0
  3  5  1  0
  6  5  1  1
  6  7  1  0
  6 29  1  0
  6 37  1  0
  7  8  1  0
  8  9  1  0
  9 10  2  0
  9 11  1  0
 11 12  2  0
 11 28  1  0
 12 13  1  0
 13 14  2  0
 14 15  1  0
 15 16  1  0
 15 28  2  0
 16 17  1  0
 17 18  2  0
 17 19  1  0
 19 20  1  0
 20 21  2  0
 20 26  1  0
 21 22  1  0
 22 23  2  0
 23 24  1  0
 23 25  1  0
 25 26  2  0
 26 27  1  0
 29 30  2  0
 29 36  1  0
 30 31  1  0
 31 32  2  0
 32 33  1  0
 33 34  1  0
 33 36  2  0
 34 35  1  0
 37 38  1  1
 37 43  1  0
 38 39  1  0
 39 40  1  0
 40 41  1  0
 40 42  2  0
 40 43  1  0
M  END
