
     RDKit          3D

 43 46  0  0  0  0  0  0  0  0999 V2000
   -7.2640   -1.8360   -1.9050 C   0  0  0  0  0  0  0  0  0  0  0  0
   -6.4330   -2.1760   -3.0980 C   0  0  0  0  0  0  0  0  0  0  0  0
   -5.1430   -2.6730   -2.6760 N   0  0  0  0  0  0  0  0  0  0  0  0
   -4.2750   -1.8300   -1.9030 C   0  0  0  0  0  0  0  0  0  0  0  0
   -4.7030   -0.6840   -1.6340 O   0  0  0  0  0  0  0  0  0  0  0  0
   -2.9950   -2.3280   -1.4890 C   0  0  0  0  0  0  0  0  0  0  0  0
   -2.2060   -1.6370   -0.4410 C   0  0  2  0  0  0  0  0  0  0  0  0
   -2.6790   -1.5690    0.9170 C   0  0  0  0  0  0  0  0  0  0  0  0
   -3.9140   -1.0560    1.4420 C   0  0  2  0  0  0  0  0  0  0  0  0
   -5.0270   -1.7920    0.9560 O   0  0  0  0  0  0  0  0  0  0  0  0
   -4.2460    0.3880    1.3940 C   0  0  0  0  0  0  0  0  0  0  0  0
   -3.7900    1.1460    2.6500 C   0  0  0  0  0  0  0  0  0  0  0  0
   -4.8040    0.8260    3.7300 C   0  0  0  0  0  0  0  0  0  0  0  0
   -5.0440   -0.6670    3.6540 C   0  0  2  0  0  0  0  0  0  0  0  0
   -5.1370   -1.2870    5.3370 S   0  0  0  0  0  0  0  0  0  0  0  0
   -4.5360   -0.2440    6.2620 O   0  0  0  0  0  0  0  0  0  0  0  0
   -3.9420   -1.3980    2.9560 C   0  0  0  0  0  0  0  0  0  0  0  0
   -1.5720   -0.4100   -0.9090 N   0  0  0  0  0  0  0  0  0  0  0  0
   -0.4030   -0.3460   -1.6950 C   0  0  0  0  0  0  0  0  0  0  0  0
    0.1520   -1.4200   -2.0410 O   0  0  0  0  0  0  0  0  0  0  0  0
    0.2090    0.9000   -2.1450 C   0  0  0  0  0  0  0  0  0  0  0  0
   -0.2660    1.9740   -1.7000 O   0  0  0  0  0  0  0  0  0  0  0  0
    1.2990    0.9600   -3.0530 N   0  0  0  0  0  0  0  0  0  0  0  0
    1.9060    2.1500   -3.5000 C   0  0  0  0  0  0  0  0  0  0  0  0
    1.2980    2.8510   -4.5280 C   0  0  0  0  0  0  0  0  0  0  0  0
    0.0300    2.3400   -5.0860 C   0  0  0  0  0  0  0  0  0  0  0  0
    1.9050    3.9910   -4.9680 C   0  0  0  0  0  0  0  0  0  0  0  0
    3.0860    4.4660   -4.4360 C   0  0  0  0  0  0  0  0  0  0  0  0
    3.6580    3.7110   -3.3940 C   0  0  0  0  0  0  0  0  0  0  0  0
    3.0750    2.5600   -2.9260 C   0  0  0  0  0  0  0  0  0  0  0  0
    3.6700    1.7480   -1.8810 C   0  0  0  0  0  0  0  0  0  0  0  0
    3.1300    0.6730   -1.4930 O   0  0  0  0  0  0  0  0  0  0  0  0
    4.8850    2.1110   -1.2420 N   0  0  0  0  0  0  0  0  0  0  0  0
    5.5770    1.4110   -0.2360 C   0  0  0  0  0  0  0  0  0  0  0  0
    6.7940    1.9360    0.1880 C   0  0  0  0  0  0  0  0  0  0  0  0
    7.5830    1.3620    1.1490 C   0  0  0  0  0  0  0  0  0  0  0  0
    7.1230    0.1750    1.7310 C   0  0  0  0  0  0  0  0  0  0  0  0
    5.9430   -0.3740    1.3510 C   0  0  0  0  0  0  0  0  0  0  0  0
    5.1850    0.2590    0.3670 C   0  0  0  0  0  0  0  0  0  0  0  0
    5.4510   -1.6470    1.9640 C   0  0  0  0  0  0  0  0  0  0  0  0
    6.0390   -1.7500    3.3500 C   0  0  0  0  0  0  0  0  0  0  0  0
    7.5480   -1.7490    3.2200 C   0  0  0  0  0  0  0  0  0  0  0  0
    8.0170   -0.4050    2.7580 C   0  0  0  0  0  0  0  0  0  0  0  0
  1  2  1  0
  2  3  1  0
  3  4  1  0
  4  5  2  0
  4  6  1  0
  7  6  1  6
  7  8  1  0
  7 18  1  0
  8  9  1  0
  9 10  1  6
  9 11  1  0
  9 17  1  0
 11 12  1  0
 12 13  1  0
 13 14  1  0
 14 15  1  1
 14 17  1  0
 15 16  2  0
 18 19  1  0
 19 20  2  0
 19 21  1  0
 21 22  2  0
 21 23  1  0
 23 24  1  0
 24 25  2  0
 24 30  1  0
 25 26  1  0
 25 27  1  0
 27 28  2  0
 28 29  1  0
 29 30  2  0
 30 31  1  0
 31 32  2  0
 31 33  1  0
 33 34  1  0
 34 35  2  0
 34 39  1  0
 35 36  1  0
 36 37  2  0
 37 38  1  0
 37 43  1  0
 38 39  2  0
 38 40  1  0
 40 41  1  0
 41 42  1  0
 42 43  1  0
M  END
