
     RDKit          3D

 43 46  0  0  0  0  0  0  0  0999 V2000
   -4.7300   -2.2700   -2.9300 C   0  0  0  0  0  0  0  0  0  0  0  0
   -4.6730   -1.2120   -1.8780 C   0  0  1  0  0  0  0  0  0  0  0  0
   -5.9460   -1.3150   -1.0340 C   0  0  0  0  0  0  0  0  0  0  0  0
   -5.6070   -2.3330   -0.0000 C   0  0  2  0  0  0  0  0  0  0  0  0
   -6.0310   -3.7160   -0.4870 C   0  0  0  0  0  0  0  0  0  0  0  0
   -6.3700   -2.1010    1.2920 C   0  0  0  0  0  0  0  0  0  0  0  0
   -4.1370   -2.2390    0.2010 C   0  0  0  0  0  0  0  0  0  0  0  0
   -3.5590   -1.4480   -0.9210 C   0  0  2  0  0  0  0  0  0  0  0  0
   -2.8400   -0.2540   -0.5630 N   0  0  0  0  0  0  0  0  0  0  0  0
   -1.4230   -0.1780   -0.7220 C   0  0  0  0  0  0  0  0  0  0  0  0
   -0.8490    0.8990   -0.4840 O   0  0  0  0  0  0  0  0  0  0  0  0
   -0.6830   -1.3490   -1.1550 C   0  0  0  0  0  0  0  0  0  0  0  0
    0.8370   -1.1040   -1.2930 C   0  0  2  0  0  0  0  0  0  0  0  0
    1.1010   -0.0440   -2.2960 C   0  0  0  0  0  0  0  0  0  0  0  0
    1.3420   -2.3340   -1.8010 O   0  0  0  0  0  0  0  0  0  0  0  0
    1.4590   -0.8960    0.0180 C   0  0  0  0  0  0  0  0  0  0  0  0
    2.8810   -0.8800    0.1030 N   0  0  0  0  0  0  0  0  0  0  0  0
    3.8110    0.0170   -0.4340 C   0  0  0  0  0  0  0  0  0  0  0  0
    3.4460    0.9950   -1.0900 O   0  0  0  0  0  0  0  0  0  0  0  0
    5.2690   -0.1380   -0.2600 C   0  0  0  0  0  0  0  0  0  0  0  0
    5.8620   -1.3000    0.1570 C   0  0  0  0  0  0  0  0  0  0  0  0
    7.2340   -1.4180    0.3180 C   0  0  0  0  0  0  0  0  0  0  0  0
    8.0770   -0.3340    0.0550 C   0  0  0  0  0  0  0  0  0  0  0  0
    9.5220   -0.5010    0.2170 C   0  0  0  0  0  0  0  0  0  0  0  0
   10.3270    0.3610    0.7850 C   0  0  0  0  0  0  0  0  0  0  0  0
   10.0620    1.6290    1.3750 N   0  0  0  0  0  0  0  0  0  0  0  0
   11.2950    2.2030    1.8620 C   0  0  0  0  0  0  0  0  0  0  0  0
   11.3770    3.3060    2.4270 O   0  0  0  0  0  0  0  0  0  0  0  0
   12.3430    1.3020    1.5820 N   0  0  0  0  0  0  0  0  0  0  0  0
   11.7780    0.1910    0.9350 C   0  0  0  0  0  0  0  0  0  0  0  0
   12.4550   -0.8050    0.5480 O   0  0  0  0  0  0  0  0  0  0  0  0
    7.4830    0.8320   -0.3640 C   0  0  0  0  0  0  0  0  0  0  0  0
    6.1170    0.9320   -0.5180 C   0  0  0  0  0  0  0  0  0  0  0  0
   -3.4750    0.9380   -0.1180 C   0  0  0  0  0  0  0  0  0  0  0  0
   -3.3990    2.0750   -0.9550 C   0  0  0  0  0  0  0  0  0  0  0  0
   -3.9700    3.2650   -0.6020 C   0  0  0  0  0  0  0  0  0  0  0  0
   -4.6600    3.4380    0.5920 C   0  0  0  0  0  0  0  0  0  0  0  0
   -5.2480    4.7150    0.9440 C   0  0  0  0  0  0  0  0  0  0  0  0
   -5.1090    5.6910    0.1850 O   0  0  0  0  0  0  0  0  0  0  0  0
   -6.0130    4.8660    2.1980 C   0  0  0  0  0  0  0  0  0  0  0  0
   -6.5910    6.5850    2.3900 S   0  0  0  0  0  0  0  0  0  0  0  0
   -4.7370    2.3350    1.4090 C   0  0  0  0  0  0  0  0  0  0  0  0
   -4.1530    1.1120    1.0540 C   0  0  0  0  0  0  0  0  0  0  0  0
  2  1  1  6
  2  3  1  0
  2  8  1  0
  3  4  1  0
  4  5  1  6
  4  6  1  0
  4  7  1  0
  7  8  1  0
  8  9  1  1
  9 10  1  0
  9 34  1  0
 10 11  2  0
 10 12  1  0
 12 13  1  0
 13 14  1  6
 13 15  1  0
 13 16  1  0
 16 17  1  0
 17 18  1  0
 18 19  2  0
 18 20  1  0
 20 21  2  0
 20 33  1  0
 21 22  1  0
 22 23  2  0
 23 24  1  0
 23 32  1  0
 24 25  2  3
 25 26  1  0
 25 30  1  0
 26 27  1  0
 27 28  2  0
 27 29  1  0
 29 30  1  0
 30 31  2  0
 32 33  2  0
 34 35  2  0
 34 43  1  0
 35 36  1  0
 36 37  2  0
 37 38  1  0
 37 42  1  0
 38 39  2  0
 38 40  1  0
 40 41  1  0
 42 43  2  0
M  END
