
     RDKit          3D

 43 46  0  0  0  0  0  0  0  0999 V2000
  -10.3530    0.4240    1.7080 C   0  0  0  0  0  0  0  0  0  0  0  0
  -10.1590   -0.4480    0.4620 C   0  0  0  0  0  0  0  0  0  0  0  0
   -8.8880   -0.0960   -0.0930 N   0  0  0  0  0  0  0  0  0  0  0  0
   -8.7330    0.9730   -1.0870 C   0  0  0  0  0  0  0  0  0  0  0  0
   -7.7290    0.4980   -2.0810 C   0  0  0  0  0  0  0  0  0  0  0  0
   -6.3240    0.3400   -1.5030 C   0  0  0  0  0  0  0  0  0  0  0  0
   -6.3410   -0.1880   -0.1200 C   0  0  2  0  0  0  0  0  0  0  0  0
   -5.2690   -1.1380    0.2760 C   0  0  0  0  0  0  0  0  0  0  0  0
   -3.8570   -0.6730    0.2470 C   0  0  1  0  0  0  0  0  0  0  0  0
   -3.6690    0.5320    1.1780 C   0  0  0  0  0  0  0  0  0  0  0  0
   -3.1290   -1.7120    0.9060 O   0  0  0  0  0  0  0  0  0  0  0  0
   -3.2290   -0.4510   -1.0740 C   0  0  0  0  0  0  0  0  0  0  0  0
   -1.8550   -0.0660   -0.9560 N   0  0  0  0  0  0  0  0  0  0  0  0
   -0.7800   -0.8030   -0.4590 C   0  0  0  0  0  0  0  0  0  0  0  0
   -0.9270   -1.9810   -0.0480 O   0  0  0  0  0  0  0  0  0  0  0  0
    0.5630   -0.2000   -0.4100 C   0  0  0  0  0  0  0  0  0  0  0  0
    0.7710    1.1540   -0.4420 C   0  0  0  0  0  0  0  0  0  0  0  0
    2.0660    1.6860   -0.4020 C   0  0  0  0  0  0  0  0  0  0  0  0
    3.1650    0.9060   -0.3280 C   0  0  0  0  0  0  0  0  0  0  0  0
    4.4840    1.3750   -0.2880 N   0  0  0  0  0  0  0  0  0  0  0  0
    4.9270    2.7150   -0.2900 C   0  0  0  0  0  0  0  0  0  0  0  0
    4.0670    3.6390   -0.3330 O   0  0  0  0  0  0  0  0  0  0  0  0
    6.3480    3.0200   -0.2440 C   0  0  0  0  0  0  0  0  0  0  0  0
    7.3500    2.1130   -0.0790 C   0  0  0  0  0  0  0  0  0  0  0  0
    8.7090    2.4680   -0.0450 C   0  0  0  0  0  0  0  0  0  0  0  0
    9.7140    1.4770    0.1290 N   0  0  0  0  0  0  0  0  0  0  0  0
    9.0400    3.8030   -0.1870 C   0  0  0  0  0  0  0  0  0  0  0  0
    8.0610    4.7570   -0.3560 C   0  0  0  0  0  0  0  0  0  0  0  0
    8.5500    6.4610   -0.5310 S   0  0  0  0  0  0  0  0  0  0  0  0
    6.7440    4.3600   -0.3820 C   0  0  0  0  0  0  0  0  0  0  0  0
    2.9800   -0.4860   -0.2930 C   0  0  0  0  0  0  0  0  0  0  0  0
    4.0970   -1.3940   -0.2590 C   0  0  0  0  0  0  0  0  0  0  0  0
    4.2240   -2.3150    0.6680 C   0  0  0  0  0  0  0  0  0  0  0  0
    3.3500   -2.6180    1.7990 C   0  0  0  0  0  0  0  0  0  0  0  0
    2.2880   -2.0440    2.1480 O   0  0  0  0  0  0  0  0  0  0  0  0
    3.9300   -3.7010    2.4510 O   0  0  0  0  0  0  0  0  0  0  0  0
    5.0770   -4.0590    1.7940 C   0  0  0  0  0  0  0  0  0  0  0  0
    5.9580   -5.2000    2.2370 C   0  0  0  0  0  0  0  0  0  0  0  0
    5.3210   -3.3110    0.7550 C   0  0  0  0  0  0  0  0  0  0  0  0
    6.4360   -3.3490   -0.2210 C   0  0  0  0  0  0  0  0  0  0  0  0
    1.6940   -0.9990   -0.3350 C   0  0  0  0  0  0  0  0  0  0  0  0
   -7.6640   -0.7480    0.2710 C   0  0  0  0  0  0  0  0  0  0  0  0
   -7.6930   -1.8040    0.9260 O   0  0  0  0  0  0  0  0  0  0  0  0
  1  2  1  0
  2  3  1  0
  3  4  1  0
  3 42  1  0
  4  5  1  0
  5  6  1  0
  6  7  1  0
  7  8  1  6
  7 42  1  0
  8  9  1  0
  9 10  1  1
  9 11  1  0
  9 12  1  0
 12 13  1  0
 13 14  1  0
 14 15  2  0
 14 16  1  0
 16 17  2  0
 16 41  1  0
 17 18  1  0
 18 19  2  0
 19 20  1  0
 19 31  1  0
 20 21  1  0
 21 22  2  0
 21 23  1  0
 23 24  2  0
 23 30  1  0
 24 25  1  0
 25 26  1  0
 25 27  2  0
 27 28  1  0
 28 29  1  0
 28 30  2  0
 31 32  1  0
 31 41  2  0
 32 33  2  3
 33 34  1  0
 33 39  1  0
 34 35  2  0
 34 36  1  0
 36 37  1  0
 37 38  1  0
 37 39  2  0
 39 40  1  0
 42 43  2  0
M  END
