
     RDKit          3D

 43 46  0  0  0  0  0  0  0  0999 V2000
   -3.4500    2.8960   -1.0380 C   0  0  0  0  0  0  0  0  0  0  0  0
   -3.6570    1.5750   -1.7670 C   0  0  0  0  0  0  0  0  0  0  0  0
   -3.5140    0.4890   -0.9050 O   0  0  0  0  0  0  0  0  0  0  0  0
   -4.2870    0.2270    0.2030 C   0  0  0  0  0  0  0  0  0  0  0  0
   -5.3240    1.1170    0.5030 C   0  0  0  0  0  0  0  0  0  0  0  0
   -6.1210    0.8790    1.6130 C   0  0  0  0  0  0  0  0  0  0  0  0
   -7.2110    1.8480    1.8970 C   0  0  0  0  0  0  0  0  0  0  0  0
   -5.9010   -0.2180    2.4150 C   0  0  0  0  0  0  0  0  0  0  0  0
   -6.7940   -0.4000    3.5790 C   0  0  0  0  0  0  0  0  0  0  0  0
   -4.8820   -1.0620    2.0910 C   0  0  0  0  0  0  0  0  0  0  0  0
   -4.0350   -0.8810    0.9800 C   0  0  0  0  0  0  0  0  0  0  0  0
   -2.9600   -1.8030    0.6940 C   0  0  1  0  0  0  0  0  0  0  0  0
   -3.0480   -2.7460   -0.4020 C   0  0  0  0  0  0  0  0  0  0  0  0
   -1.8540   -3.6360   -0.5410 C   0  0  0  0  0  0  0  0  0  0  0  0
   -0.7520   -3.5510    0.3320 N   0  0  0  0  0  0  0  0  0  0  0  0
   -1.7940   -4.5040   -1.4520 O   0  0  0  0  0  0  0  0  0  0  0  0
   -3.9800   -2.9550   -1.2530 C   0  0  0  0  0  0  0  0  0  0  0  0
   -5.2600   -2.2630   -1.3410 C   0  0  0  0  0  0  0  0  0  0  0  0
   -3.7760   -3.9640   -2.2350 O   0  0  0  0  0  0  0  0  0  0  0  0
   -1.6160   -1.1290    0.7280 C   0  0  0  0  0  0  0  0  0  0  0  0
   -1.0350   -0.7360    1.9130 C   0  0  0  0  0  0  0  0  0  0  0  0
    0.2150   -0.1210    1.9400 C   0  0  0  0  0  0  0  0  0  0  0  0
    0.8920    0.1040    0.7530 C   0  0  0  0  0  0  0  0  0  0  0  0
    0.2660   -0.3110   -0.4330 C   0  0  0  0  0  0  0  0  0  0  0  0
   -0.9650   -0.9160   -0.4500 C   0  0  0  0  0  0  0  0  0  0  0  0
    0.7790   -0.1990   -1.7620 N   0  0  0  0  0  0  0  0  0  0  0  0
   -0.1420   -0.3840   -2.8690 C   0  0  0  0  0  0  0  0  0  0  0  0
    2.1370    0.0800   -2.1360 C   0  0  0  0  0  0  0  0  0  0  0  0
    2.3660    0.0180   -3.3740 O   0  0  0  0  0  0  0  0  0  0  0  0
    3.2510    0.4160   -1.2700 C   0  0  0  0  0  0  0  0  0  0  0  0
    4.4500    0.4330   -1.9550 C   0  0  0  0  0  0  0  0  0  0  0  0
    5.6100    0.7360   -1.2780 C   0  0  0  0  0  0  0  0  0  0  0  0
    5.6530    1.0310    0.0710 C   0  0  0  0  0  0  0  0  0  0  0  0
    6.9160    1.3380    0.7080 C   0  0  0  0  0  0  0  0  0  0  0  0
    6.9290    1.6030    1.9290 O   0  0  0  0  0  0  0  0  0  0  0  0
    8.1640    1.3360   -0.0820 C   0  0  0  0  0  0  0  0  0  0  0  0
    9.3200    1.6670    0.7360 N   0  0  0  0  0  0  0  0  0  0  0  0
   10.7890    1.6680   -0.1720 S   0  0  0  0  0  0  0  0  0  0  0  0
   12.0910    0.9230    0.8160 C   0  0  0  0  0  0  0  0  0  0  0  0
   11.1970    3.0900   -0.5170 O   0  0  0  0  0  0  0  0  0  0  0  0
    4.4540    1.0120    0.7480 C   0  0  0  0  0  0  0  0  0  0  0  0
    3.2820    0.7100    0.0850 C   0  0  0  0  0  0  0  0  0  0  0  0
    2.1510    0.7390    0.9470 N   0  0  0  0  0  0  0  0  0  0  0  0
  1  2  1  0
  2  3  1  0
  3  4  1  0
  4  5  2  0
  4 11  1  0
  5  6  1  0
  6  7  1  0
  6  8  2  0
  8  9  1  0
  8 10  1  0
 10 11  2  0
 11 12  1  0
 12 13  1  6
 12 20  1  0
 13 14  1  0
 13 17  2  3
 14 15  1  0
 14 16  2  0
 17 18  1  0
 17 19  1  0
 20 21  2  0
 20 25  1  0
 21 22  1  0
 22 23  2  0
 23 24  1  0
 23 43  1  0
 24 25  2  0
 24 26  1  0
 26 27  1  0
 26 28  1  0
 28 29  2  0
 28 30  1  0
 30 31  2  0
 30 42  1  0
 31 32  1  0
 32 33  2  0
 33 34  1  0
 33 41  1  0
 34 35  2  0
 34 36  1  0
 36 37  1  0
 37 38  1  0
 38 39  1  1
 38 40  2  0
 41 42  2  0
 42 43  1  0
M  END
