
     RDKit          3D

 37 41  0  0  0  0  0  0  0  0999 V2000
   -7.3660   -0.9490   -0.8220 C   0  0  0  0  0  0  0  0  0  0  0  0
   -7.9270    0.3810   -1.2400 C   0  0  0  0  0  0  0  0  0  0  0  0
   -7.2760    0.8390   -2.4720 N   0  0  0  0  0  0  0  0  0  0  0  0
   -7.7670    0.4730   -3.6970 C   0  0  0  0  0  0  0  0  0  0  0  0
   -6.9200    1.0680   -4.6240 C   0  0  0  0  0  0  0  0  0  0  0  0
   -5.9720    1.7550   -3.9700 N   0  0  0  0  0  0  0  0  0  0  0  0
   -6.1960    1.6080   -2.6550 C   0  0  0  0  0  0  0  0  0  0  0  0
   -5.3740    2.1930   -1.5800 C   0  0  0  0  0  0  0  0  0  0  0  0
   -4.2850    1.3390   -1.1340 N   0  0  1  0  0  0  0  0  0  0  0  0
   -3.3310    1.1620   -2.2260 C   0  0  0  0  0  0  0  0  0  0  0  0
   -2.2720    0.1700   -1.7030 C   0  0  0  0  0  0  0  0  0  0  0  0
   -1.6380    0.7150   -0.5850 N   0  0  0  0  0  0  0  0  0  0  0  0
   -0.5290    0.0490   -0.0000 C   0  0  0  0  0  0  0  0  0  0  0  0
    0.7430    0.1670   -0.7220 C   0  0  0  0  0  0  0  0  0  0  0  0
    0.9680    0.7710   -1.9320 C   0  0  0  0  0  0  0  0  0  0  0  0
    2.2430    0.8790   -2.4390 C   0  0  0  0  0  0  0  0  0  0  0  0
    3.3510    0.4310   -1.8310 C   0  0  0  0  0  0  0  0  0  0  0  0
    3.1320   -0.1770   -0.6110 C   0  0  0  0  0  0  0  0  0  0  0  0
    4.3540   -0.6040    0.0510 N   0  0  0  0  0  0  0  0  0  0  0  0
    4.4100   -0.4100    1.4840 C   0  0  0  0  0  0  0  0  0  0  0  0
    3.4560    0.3440    2.0810 C   0  0  0  0  0  0  0  0  0  0  0  0
    3.4090    0.4530    3.4780 C   0  0  0  0  0  0  0  0  0  0  0  0
    4.3550   -0.2110    4.2110 C   0  0  0  0  0  0  0  0  0  0  0  0
    5.3480   -0.9740    3.5860 C   0  0  0  0  0  0  0  0  0  0  0  0
    6.3240   -1.5420    4.3470 C   0  0  0  0  0  0  0  0  0  0  0  0
    7.3820   -2.2220    3.7650 C   0  0  0  0  0  0  0  0  0  0  0  0
    8.5090   -2.5900    4.6500 C   0  0  0  0  0  0  0  0  0  0  0  0
    9.3670   -2.8730    5.3490 N   0  0  0  0  0  0  0  0  0  0  0  0
    7.4440   -2.3380    2.4040 C   0  0  0  0  0  0  0  0  0  0  0  0
    8.5840   -3.0170    1.7800 C   0  0  0  0  0  0  0  0  0  0  0  0
    9.7330   -3.3150    2.6400 N   0  0  0  0  0  0  0  0  0  0  0  0
    8.6700   -3.3550    0.6260 O   0  0  0  0  0  0  0  0  0  0  0  0
    6.4800   -1.7820    1.6320 C   0  0  0  0  0  0  0  0  0  0  0  0
    5.3980   -1.0860    2.1960 C   0  0  0  0  0  0  0  0  0  0  0  0
    1.9000   -0.3420   -0.0160 C   0  0  0  0  0  0  0  0  0  0  0  0
   -2.2740    1.6180    0.2920 C   0  0  0  0  0  0  0  0  0  0  0  0
   -3.6580    1.9800   -0.0230 C   0  0  0  0  0  0  0  0  0  0  0  0
  1  2  1  0
  2  3  1  0
  3  4  1  0
  3  7  1  0
  4  5  2  0
  5  6  1  0
  6  7  2  0
  7  8  1  0
  9  8  1  6
  9 10  1  0
  9 37  1  0
 10 11  1  0
 11 12  1  0
 12 13  1  0
 12 36  1  0
 13 14  1  0
 14 15  2  0
 14 35  1  0
 15 16  1  0
 16 17  2  0
 17 18  1  0
 18 19  1  0
 18 35  2  0
 19 20  1  0
 20 21  2  0
 20 34  1  0
 21 22  1  0
 22 23  2  0
 23 24  1  0
 24 25  2  0
 24 34  1  0
 25 26  1  0
 26 27  1  0
 26 29  2  0
 27 28  3  0
 29 30  1  0
 29 33  1  0
 30 31  1  0
 30 32  2  0
 33 34  2  0
 36 37  1  0
M  CHG  2   6   1   9   1
M  END
