
     RDKit          3D

 37 41  0  0  0  0  0  0  0  0999 V2000
   -4.1520    1.2120   -1.3750 C   0  0  0  0  0  0  0  0  0  0  0  0
   -3.5560    1.8400   -0.1340 C   0  0  0  0  0  0  0  0  0  0  0  0
   -4.2490    1.3320    1.1130 C   0  0  0  0  0  0  0  0  0  0  0  0
   -4.1370   -0.1250    1.2100 C   0  0  0  0  0  0  0  0  0  0  0  0
   -2.9760   -0.6950    1.6770 C   0  0  0  0  0  0  0  0  0  0  0  0
   -1.8350    0.1100    2.0790 C   0  0  0  0  0  0  0  0  0  0  0  0
   -1.8420    0.6900    3.2320 O   0  0  0  0  0  0  0  0  0  0  0  0
   -0.6740    0.3220    1.3100 N   0  0  0  0  0  0  0  0  0  0  0  0
   -0.5120   -0.2860    0.0080 C   0  0  0  0  0  0  0  0  0  0  0  0
    0.7950   -1.0750    0.0730 C   0  0  0  0  0  0  0  0  0  0  0  0
    1.8930   -0.0400    0.2150 C   0  0  2  0  0  0  0  0  0  0  0  0
    3.1960   -0.5700    0.0460 N   0  0  0  0  0  0  0  0  0  0  0  0
    3.8750   -0.3490   -1.1660 C   0  0  2  0  0  0  0  0  0  0  0  0
    5.3510   -0.3080   -0.8440 C   0  0  0  0  0  0  0  0  0  0  0  0
    5.9300    0.3470    0.1780 N   0  0  0  0  0  0  0  0  0  0  0  0
    7.2690    0.1660    0.1610 C   0  0  0  0  0  0  0  0  0  0  0  0
    7.5540   -0.6410   -0.9200 C   0  0  0  0  0  0  0  0  0  0  0  0
    6.3520   -0.9080   -1.5080 N   0  0  0  0  0  0  0  0  0  0  0  0
    8.8530   -0.8600   -0.9960 C   0  0  0  0  0  0  0  0  0  0  0  0
    9.4790   -0.1380    0.1280 C   0  0  0  0  0  0  0  0  0  0  0  0
    8.3490    0.4750    0.7880 N   0  0  0  0  0  0  0  0  0  0  0  0
    3.5420    0.8180   -2.0030 C   0  0  2  0  0  0  0  0  0  0  0  0
    3.7200    2.1540   -1.3310 C   0  0  0  0  0  0  0  0  0  0  0  0
    2.2310    0.7660   -2.7350 C   0  0  0  0  0  0  0  0  0  0  0  0
    1.7490    0.4350    1.6770 C   0  0  0  0  0  0  0  0  0  0  0  0
    0.4060    1.1520    1.7850 C   0  0  0  0  0  0  0  0  0  0  0  0
   -2.9060   -2.0850    1.7330 C   0  0  0  0  0  0  0  0  0  0  0  0
   -3.9640   -2.8650    1.3340 C   0  0  0  0  0  0  0  0  0  0  0  0
   -3.8410   -4.3480    1.4120 C   0  0  0  0  0  0  0  0  0  0  0  0
   -5.0830   -2.2960    0.8850 N   0  0  0  0  0  0  0  0  0  0  0  0
   -5.2140   -0.9260    0.8080 C   0  0  0  0  0  0  0  0  0  0  0  0
   -6.4620   -0.3970    0.3050 C   0  0  0  0  0  0  0  0  0  0  0  0
   -7.2380    0.4380    1.0570 C   0  0  0  0  0  0  0  0  0  0  0  0
   -8.4320    0.9820    0.5920 C   0  0  0  0  0  0  0  0  0  0  0  0
   -8.8130    0.6540   -0.6500 N   0  0  0  0  0  0  0  0  0  0  0  0
   -8.0780   -0.1670   -1.4240 C   0  0  0  0  0  0  0  0  0  0  0  0
   -6.8830   -0.7140   -0.9690 C   0  0  0  0  0  0  0  0  0  0  0  0
  1  2  1  0
  2  3  1  0
  3  4  1  0
  4  5  2  0
  4 31  1  0
  5  6  1  0
  5 27  1  0
  6  7  2  0
  6  8  1  0
  8  9  1  0
  8 26  1  0
  9 10  1  0
 10 11  1  0
 11 12  1  1
 11 25  1  0
 13 12  1  1
 13 14  1  0
 13 22  1  0
 14 15  2  0
 14 18  1  0
 15 16  1  0
 16 17  1  0
 16 21  2  0
 17 18  1  0
 17 19  2  0
 19 20  1  0
 20 21  1  0
 22 23  1  1
 22 24  1  0
 25 26  1  0
 27 28  2  0
 28 29  1  0
 28 30  1  0
 30 31  2  0
 31 32  1  0
 32 33  2  0
 32 37  1  0
 33 34  1  0
 34 35  2  0
 35 36  1  0
 36 37  2  0
M  CHG  2  12   1  21   1
M  END
