
     RDKit          3D

 37 41  0  0  0  0  0  0  0  0999 V2000
    2.8540   -1.8640    0.1760 C   0  0  0  0  0  0  0  0  0  0  0  0
    3.2860   -0.6900    1.0230 C   0  0  0  0  0  0  0  0  0  0  0  0
    2.9220    0.5880    0.5250 N   0  0  0  0  0  0  0  0  0  0  0  0
    1.5610    0.9380    0.5460 C   0  0  0  0  0  0  0  0  0  0  0  0
    0.6190    0.1550   -0.2570 C   0  0  0  0  0  0  0  0  0  0  0  0
   -0.5420   -0.3640    0.3190 C   0  0  0  0  0  0  0  0  0  0  0  0
   -1.4510   -1.0910   -0.4220 C   0  0  0  0  0  0  0  0  0  0  0  0
   -1.2880   -1.3570   -1.7560 C   0  0  0  0  0  0  0  0  0  0  0  0
   -2.1820   -2.0840   -2.5790 N   0  0  0  0  0  0  0  0  0  0  0  0
   -3.4840   -2.4820   -2.1130 C   0  0  0  0  0  0  0  0  0  0  0  0
   -4.0990   -1.5840   -1.4380 N   0  0  0  0  0  0  0  0  0  0  0  0
   -5.3800   -1.7920   -0.9040 C   0  0  0  0  0  0  0  0  0  0  0  0
   -6.0100   -2.9940   -1.1030 C   0  0  0  0  0  0  0  0  0  0  0  0
   -7.2380   -2.8980   -0.4660 C   0  0  0  0  0  0  0  0  0  0  0  0
   -7.3300   -1.6760    0.0920 N   0  0  0  0  0  0  0  0  0  0  0  0
   -6.2140   -1.0220   -0.1750 N   0  0  0  0  0  0  0  0  0  0  0  0
   -5.8970    0.3320    0.2390 C   0  0  2  0  0  0  0  0  0  0  0  0
   -5.6190    0.4090    1.7240 C   0  0  0  0  0  0  0  0  0  0  0  0
   -5.5530    1.8800    2.1130 C   0  0  0  0  0  0  0  0  0  0  0  0
   -6.8490    2.5900    1.8750 C   0  0  0  0  0  0  0  0  0  0  0  0
   -7.7280    1.7390    1.0840 N   0  0  0  0  0  0  0  0  0  0  0  0
   -6.9980    1.3150   -0.0990 C   0  0  0  0  0  0  0  0  0  0  0  0
   -5.3440   -4.0250   -1.8600 C   0  0  0  0  0  0  0  0  0  0  0  0
   -5.9980   -5.1140   -2.0000 O   0  0  0  0  0  0  0  0  0  0  0  0
   -4.0110   -3.8300   -2.4270 C   0  0  0  0  0  0  0  0  0  0  0  0
   -0.1200   -0.8330   -2.3280 C   0  0  0  0  0  0  0  0  0  0  0  0
    0.7940   -0.1060   -1.6000 C   0  0  0  0  0  0  0  0  0  0  0  0
    3.7010    1.6290    1.1530 C   0  0  0  0  0  0  0  0  0  0  0  0
    5.1540    1.5170    0.9290 C   0  0  0  0  0  0  0  0  0  0  0  0
    6.0260    0.9100    1.8110 C   0  0  0  0  0  0  0  0  0  0  0  0
    7.3760    0.8540    1.5180 C   0  0  0  0  0  0  0  0  0  0  0  0
    7.9220    1.3790    0.3720 C   0  0  0  0  0  0  0  0  0  0  0  0
    9.3160    1.3100    0.0930 N   0  0  0  0  0  0  0  0  0  0  0  0
    9.8760    1.8610   -1.1120 C   0  0  0  0  0  0  0  0  0  0  0  0
   10.1940    0.6690    1.0450 C   0  0  0  0  0  0  0  0  0  0  0  0
    7.0580    1.9880   -0.5160 C   0  0  0  0  0  0  0  0  0  0  0  0
    5.7120    2.0490   -0.2330 C   0  0  0  0  0  0  0  0  0  0  0  0
  1  2  1  0
  2  3  1  0
  3  4  1  0
  3 28  1  0
  4  5  1  0
  5  6  2  0
  5 27  1  0
  6  7  1  0
  7  8  2  0
  8  9  1  0
  8 26  1  0
  9 10  1  0
 10 11  2  0
 10 25  1  0
 11 12  1  0
 12 13  2  0
 12 16  1  0
 13 14  1  0
 13 23  1  0
 14 15  2  0
 15 16  1  0
 17 16  1  1
 17 18  1  0
 17 22  1  0
 18 19  1  0
 19 20  1  0
 20 21  1  0
 21 22  1  0
 23 24  2  0
 23 25  1  0
 26 27  2  0
 28 29  1  0
 29 30  2  0
 29 37  1  0
 30 31  1  0
 31 32  2  0
 32 33  1  0
 32 36  1  0
 33 34  1  0
 33 35  1  0
 36 37  2  0
M  CHG  2  15   1  21   1
M  END
