
     RDKit          3D

 37 41  0  0  0  0  0  0  0  0999 V2000
   -6.2880   -0.4290   -1.2540 C   0  0  0  0  0  0  0  0  0  0  0  0
   -6.5830   -0.5560    0.1940 C   0  0  2  0  0  0  0  0  0  0  0  0
   -5.7000   -1.5540    0.8630 C   0  0  0  0  0  0  0  0  0  0  0  0
   -4.2540   -1.3720    0.9060 C   0  0  0  0  0  0  0  0  0  0  0  0
   -3.4920   -1.3130   -0.3020 N   0  0  0  0  0  0  0  0  0  0  0  0
   -2.0330   -1.1650   -0.2160 C   0  0  0  0  0  0  0  0  0  0  0  0
   -1.5550   -1.1150    0.9240 O   0  0  0  0  0  0  0  0  0  0  0  0
   -1.3470   -1.0980   -1.5060 C   0  0  0  0  0  0  0  0  0  0  0  0
    0.1390   -1.1110   -1.3530 C   0  0  0  0  0  0  0  0  0  0  0  0
    0.6350    0.0450   -0.5630 C   0  0  0  0  0  0  0  0  0  0  0  0
    2.0920   -0.0490   -0.5250 N   0  0  0  0  0  0  0  0  0  0  0  0
    2.8950    0.1970   -1.6850 C   0  0  0  0  0  0  0  0  0  0  0  0
    4.0900    1.0760   -1.4090 C   0  0  0  0  0  0  0  0  0  0  0  0
    4.7320    0.7690   -0.1740 N   0  0  0  0  0  0  0  0  0  0  0  0
    6.0620    1.2030    0.1010 C   0  0  0  0  0  0  0  0  0  0  0  0
    6.2630    2.4620    0.6350 C   0  0  0  0  0  0  0  0  0  0  0  0
    7.5440    2.9130    0.9130 C   0  0  0  0  0  0  0  0  0  0  0  0
    8.5990    2.0710    0.6430 C   0  0  0  0  0  0  0  0  0  0  0  0
    8.4130    0.8060    0.1080 C   0  0  0  0  0  0  0  0  0  0  0  0
    9.5600   -0.0440   -0.1630 C   0  0  0  0  0  0  0  0  0  0  0  0
    9.5720   -1.3040   -0.6970 C   0  0  0  0  0  0  0  0  0  0  0  0
   10.8600   -1.7400   -0.7730 N   0  0  0  0  0  0  0  0  0  0  0  0
   11.6590   -0.7890   -0.3010 N   0  0  0  0  0  0  0  0  0  0  0  0
   10.8760    0.2590    0.0780 C   0  0  0  0  0  0  0  0  0  0  0  0
    7.1370    0.4370   -0.1370 N   0  0  0  0  0  0  0  0  0  0  0  0
    4.0570    0.0150    0.8140 C   0  0  0  0  0  0  0  0  0  0  0  0
    4.7140   -0.3490    1.9940 C   0  0  0  0  0  0  0  0  0  0  0  0
    4.0610   -1.0910    2.9480 C   0  0  0  0  0  0  0  0  0  0  0  0
    2.7580   -1.5040    2.7920 C   0  0  0  0  0  0  0  0  0  0  0  0
    2.0870   -1.1620    1.6450 C   0  0  0  0  0  0  0  0  0  0  0  0
    2.7360   -0.4180    0.6870 C   0  0  0  0  0  0  0  0  0  0  0  0
   -7.9990   -1.0850    0.3750 C   0  0  0  0  0  0  0  0  0  0  0  0
   -9.0750   -0.1760   -0.0700 C   0  0  0  0  0  0  0  0  0  0  0  0
   -9.2480    1.0440    0.7950 C   0  0  0  0  0  0  0  0  0  0  0  0
   -8.3810    2.1930    0.3700 C   0  0  0  0  0  0  0  0  0  0  0  0
   -7.0290    1.8380    0.0650 N   0  0  0  0  0  0  0  0  0  0  0  0
   -6.5500    0.7810    0.9150 C   0  0  0  0  0  0  0  0  0  0  0  0
  2  1  1  6
  2  3  1  0
  2 32  1  0
  2 37  1  0
  3  4  1  0
  4  5  1  0
  5  6  1  0
  6  7  2  0
  6  8  1  0
  8  9  1  0
  9 10  1  0
 10 11  1  0
 11 12  1  0
 11 31  1  0
 12 13  1  0
 13 14  1  0
 14 15  1  0
 14 26  1  0
 15 16  2  0
 15 25  1  0
 16 17  1  0
 17 18  2  0
 18 19  1  0
 19 20  1  0
 19 25  2  0
 20 21  1  0
 20 24  2  0
 21 22  2  0
 22 23  1  0
 23 24  1  0
 26 27  2  0
 26 31  1  0
 27 28  1  0
 28 29  2  0
 29 30  1  0
 30 31  2  0
 32 33  1  0
 33 34  1  0
 34 35  1  0
 35 36  1  0
 36 37  1  0
M  CHG  2  25   1  36   1
M  END
