
     RDKit          3D

 36 39  0  0  0  0  0  0  0  0999 V2000
    8.8290    2.0530    0.0850 C   0  0  0  0  0  0  0  0  0  0  0  0
    8.5330    0.7950   -0.6710 C   0  0  0  0  0  0  0  0  0  0  0  0
    9.4790    0.0430   -1.2030 N   0  0  0  0  0  0  0  0  0  0  0  0
    9.4290   -0.9080   -1.7840 C   0  0  0  0  0  0  0  0  0  0  0  0
    7.5670   -1.2030   -1.8290 S   0  0  0  0  0  0  0  0  0  0  0  0
    7.2580    0.3390   -0.8580 C   0  0  0  0  0  0  0  0  0  0  0  0
    5.9280    0.7580   -0.5000 C   0  0  0  0  0  0  0  0  0  0  0  0
    5.6130    1.8760    0.1910 C   0  0  0  0  0  0  0  0  0  0  0  0
    4.2980    2.2120    0.5060 C   0  0  0  0  0  0  0  0  0  0  0  0
    3.2380    1.4230    0.1300 C   0  0  0  0  0  0  0  0  0  0  0  0
    1.8480    1.7920    0.4700 C   0  0  0  0  0  0  0  0  0  0  0  0
    0.8820    0.7650    0.2380 N   0  0  0  0  0  0  0  0  0  0  0  0
    0.7630   -0.3150    1.1120 C   0  0  0  0  0  0  0  0  0  0  0  0
    1.5410   -0.3520    2.1130 O   0  0  0  0  0  0  0  0  0  0  0  0
   -0.1900   -1.4510    1.0040 C   0  0  2  0  0  0  0  0  0  0  0  0
    0.6140   -2.7230    0.9750 C   0  0  0  0  0  0  0  0  0  0  0  0
    0.8940   -2.9200   -0.4920 C   0  0  1  0  0  0  0  0  0  0  0  0
    0.6770   -4.2410   -0.8870 O   0  0  0  0  0  0  0  0  0  0  0  0
   -0.0300   -1.9630   -1.2380 C   0  0  0  0  0  0  0  0  0  0  0  0
   -0.9280   -1.4920   -0.2180 N   0  0  0  0  0  0  0  0  0  0  0  0
   -2.2650   -1.1090   -0.3930 C   0  0  0  0  0  0  0  0  0  0  0  0
   -2.7130   -1.1350   -1.5970 O   0  0  0  0  0  0  0  0  0  0  0  0
   -3.2160   -0.6790    0.6400 C   0  0  1  0  0  0  0  0  0  0  0  0
   -4.2200    0.2120    0.0160 N   0  0  0  0  0  0  0  0  0  0  0  0
   -4.5270    1.4910    0.4990 C   0  0  0  0  0  0  0  0  0  0  0  0
   -3.9110    1.9020    1.5230 O   0  0  0  0  0  0  0  0  0  0  0  0
   -5.5280    2.3970   -0.1110 C   0  0  2  0  0  0  0  0  0  0  0  0
   -5.2250    2.7650   -1.5700 C   0  0  0  0  0  0  0  0  0  0  0  0
   -5.7430    4.1660   -1.2230 C   0  0  0  0  0  0  0  0  0  0  0  0
   -5.2830    3.8710    0.2110 C   0  0  0  0  0  0  0  0  0  0  0  0
   -4.0910   -1.8610    1.1040 C   0  0  2  0  0  0  0  0  0  0  0  0
   -4.8920   -2.4290   -0.0490 C   0  0  0  0  0  0  0  0  0  0  0  0
   -5.0680   -1.3960    2.1530 C   0  0  0  0  0  0  0  0  0  0  0  0
   -3.2220   -2.9750    1.6130 C   0  0  0  0  0  0  0  0  0  0  0  0
    3.5540    0.2830   -0.5740 C   0  0  0  0  0  0  0  0  0  0  0  0
    4.8530   -0.0530   -0.8870 C   0  0  0  0  0  0  0  0  0  0  0  0
  1  2  1  0
  2  3  1  0
  2  6  2  0
  3  4  2  0
  4  5  1  0
  5  6  1  0
  6  7  1  0
  7  8  2  0
  7 36  1  0
  8  9  1  0
  9 10  2  0
 10 11  1  0
 10 35  1  0
 11 12  1  0
 12 13  1  0
 13 14  2  0
 15 13  1  6
 15 16  1  0
 15 20  1  0
 16 17  1  0
 17 18  1  6
 17 19  1  0
 19 20  1  0
 20 21  1  0
 21 22  2  0
 21 23  1  0
 23 24  1  6
 23 31  1  0
 24 25  1  0
 25 26  2  0
 27 25  1  1
 27 28  1  0
 27 30  1  0
 28 29  1  0
 29 30  1  0
 31 32  1  6
 31 33  1  0
 31 34  1  0
 35 36  2  0
M  END
