
     RDKit          3D

 37 41  0  0  0  0  0  0  0  0999 V2000
   -8.2570    3.9340   -2.5560 C   0  0  0  0  0  0  0  0  0  0  0  0
   -7.2340    3.0160   -1.9670 C   0  0  0  0  0  0  0  0  0  0  0  0
   -7.4770    2.3380   -0.7730 C   0  0  0  0  0  0  0  0  0  0  0  0
   -6.4920    1.4940   -0.2560 C   0  0  0  0  0  0  0  0  0  0  0  0
   -5.2890    1.2960   -0.8630 C   0  0  0  0  0  0  0  0  0  0  0  0
   -4.2980    0.4810   -0.3370 N   0  0  0  0  0  0  0  0  0  0  0  0
   -4.3290   -0.2820    0.9000 C   0  0  2  0  0  0  0  0  0  0  0  0
   -4.2050    0.6060    2.0870 C   0  0  0  0  0  0  0  0  0  0  0  0
   -3.2410   -1.2800    0.8610 C   0  0  0  0  0  0  0  0  0  0  0  0
   -3.3830   -2.4190    0.0600 C   0  0  0  0  0  0  0  0  0  0  0  0
   -4.6440   -2.5680   -0.6800 C   0  0  0  0  0  0  0  0  0  0  0  0
   -2.4130   -3.3420   -0.0280 N   0  0  0  0  0  0  0  0  0  0  0  0
   -2.3480   -4.4990   -0.7090 N   0  0  0  0  0  0  0  0  0  0  0  0
   -1.1790   -5.1160   -0.4820 C   0  0  0  0  0  0  0  0  0  0  0  0
   -0.7350   -6.4290   -1.0560 C   0  0  0  0  0  0  0  0  0  0  0  0
   -0.4930   -4.2950    0.3820 C   0  0  0  0  0  0  0  0  0  0  0  0
   -1.2650   -3.1860    0.6630 C   0  0  0  0  0  0  0  0  0  0  0  0
   -1.1100   -2.0930    1.4400 N   0  0  0  0  0  0  0  0  0  0  0  0
    0.1040   -1.8850    2.1680 C   0  0  0  0  0  0  0  0  0  0  0  0
    1.1530   -1.1230    1.4100 C   0  0  0  0  0  0  0  0  0  0  0  0
    2.1160   -1.8070    0.6670 C   0  0  0  0  0  0  0  0  0  0  0  0
    3.1110   -1.1580   -0.0560 C   0  0  0  0  0  0  0  0  0  0  0  0
    3.1630    0.2130   -0.0480 C   0  0  0  0  0  0  0  0  0  0  0  0
    4.2350    0.9110   -0.8200 C   0  0  0  0  0  0  0  0  0  0  0  0
    5.4540    1.0150   -0.1290 N   0  0  0  0  0  0  0  0  0  0  0  0
    5.5120    1.6900    1.1000 C   0  0  0  0  0  0  0  0  0  0  0  0
    6.6030    2.7360    1.1520 C   0  0  0  0  0  0  0  0  0  0  0  0
    7.6700    2.4030    0.2370 N   0  0  1  0  0  0  0  0  0  0  0  0
    8.9150    2.9620    0.7460 C   0  0  0  0  0  0  0  0  0  0  0  0
    7.8190    0.9840    0.1290 C   0  0  0  0  0  0  0  0  0  0  0  0
    6.6260    0.4680   -0.6780 C   0  0  0  0  0  0  0  0  0  0  0  0
    2.2240    0.9190    0.6780 C   0  0  0  0  0  0  0  0  0  0  0  0
    1.2300    0.2480    1.3990 C   0  0  0  0  0  0  0  0  0  0  0  0
   -2.0770   -1.1330    1.5560 C   0  0  0  0  0  0  0  0  0  0  0  0
   -1.8570   -0.1340    2.3090 O   0  0  0  0  0  0  0  0  0  0  0  0
   -5.0790    1.9680   -2.0250 N   0  0  0  0  0  0  0  0  0  0  0  0
   -6.0100    2.7840   -2.5420 C   0  0  0  0  0  0  0  0  0  0  0  0
  1  2  1  0
  2  3  2  0
  2 37  1  0
  3  4  1  0
  4  5  2  0
  5  6  1  0
  5 36  1  0
  6  7  1  0
  7  8  1  1
  7  9  1  0
  9 10  2  0
  9 34  1  0
 10 11  1  0
 10 12  1  0
 12 13  1  0
 12 17  1  0
 13 14  2  0
 14 15  1  0
 14 16  1  0
 16 17  2  0
 17 18  1  0
 18 19  1  0
 18 34  1  0
 19 20  1  0
 20 21  2  0
 20 33  1  0
 21 22  1  0
 22 23  2  0
 23 24  1  0
 23 32  1  0
 24 25  1  0
 25 26  1  0
 25 31  1  0
 26 27  1  0
 27 28  1  0
 28 29  1  1
 28 30  1  0
 30 31  1  0
 32 33  2  0
 34 35  2  0
 36 37  2  0
M  CHG  2  28   1  36   1
M  END
