
     RDKit          3D

 27 27  0  0  0  0  0  0  0  0999 V2000
    0.9170   -5.5140   -0.2690 N   0  0  0  0  0  0  0  0  0  0  0  0
    1.1370   -4.3690    0.5250 C   0  0  0  0  0  0  0  0  0  0  0  0
    2.1600   -4.3100    1.2390 O   0  0  0  0  0  0  0  0  0  0  0  0
    0.2190   -3.2850    0.5260 N   0  0  0  0  0  0  0  0  0  0  0  0
    0.4520   -2.1390    1.3290 C   0  0  0  0  0  0  0  0  0  0  0  0
    1.5150   -2.1500    2.0310 O   0  0  0  0  0  0  0  0  0  0  0  0
   -0.4460   -1.0390    1.3540 N   0  0  0  0  0  0  0  0  0  0  0  0
   -0.4150   -0.1500    0.4280 C   0  0  0  0  0  0  0  0  0  0  0  0
    0.5560   -0.2740   -0.6590 C   0  0  0  0  0  0  0  0  0  0  0  0
    1.5270    0.8820   -0.7620 C   0  0  0  0  0  0  0  0  0  0  0  0
    2.3820    0.5730   -1.8740 O   0  0  0  0  0  0  0  0  0  0  0  0
    3.1110   -0.5990   -1.7720 C   0  0  0  0  0  0  0  0  0  0  0  0
    2.6040   -1.9880   -2.5080 S   0  0  0  0  0  0  0  0  0  0  0  0
    4.3060   -0.6030   -1.0280 N   0  0  0  0  0  0  0  0  0  0  0  0
    4.8430    0.9080   -0.2370 P   0  0  0  0  0  0  0  0  0  0  0  0
    4.4240    2.2220   -1.3210 O   0  0  0  0  0  0  0  0  0  0  0  0
    6.5790    0.9020   -0.0070 O   0  0  0  0  0  0  0  0  0  0  0  0
   -1.3360    0.9780    0.4550 C   0  0  0  0  0  0  0  0  0  0  0  0
   -1.3030    1.8750   -0.4820 N   0  0  0  0  0  0  0  0  0  0  0  0
   -2.2210    2.9470   -0.4020 C   0  0  0  0  0  0  0  0  0  0  0  0
   -2.1300    3.9450   -1.1880 O   0  0  0  0  0  0  0  0  0  0  0  0
   -3.2980    2.8940    0.6130 C   0  0  1  0  0  0  0  0  0  0  0  0
   -4.4670    2.1100    0.0750 C   0  0  0  0  0  0  0  0  0  0  0  0
   -5.4940    2.0870    1.0260 O   0  0  0  0  0  0  0  0  0  0  0  0
   -6.4770    1.3870    0.4880 O   0  0  0  0  0  0  0  0  0  0  0  0
   -2.8270    2.3180    1.7670 O   0  0  0  0  0  0  0  0  0  0  0  0
   -2.3040    1.0630    1.5840 C   0  0  0  0  0  0  0  0  0  0  0  0
  1  2  1  0
  2  3  2  0
  2  4  1  0
  4  5  1  0
  5  6  2  0
  5  7  1  0
  7  8  2  3
  8  9  1  0
  8 18  1  0
  9 10  1  0
 10 11  1  0
 11 12  1  0
 12 13  2  0
 12 14  1  0
 14 15  1  0
 15 16  1  0
 15 17  1  0
 18 19  2  0
 18 27  1  0
 19 20  1  0
 20 21  2  0
 20 22  1  0
 22 23  1  6
 22 26  1  0
 23 24  1  0
 24 25  1  0
 26 27  1  0
M  END
