
     RDKit          3D

 23 22  0  0  0  0  0  0  0  0999 V2000
   -2.7280    3.4140    0.7980 C   0  0  0  0  0  0  0  0  0  0  0  0
   -3.7070    2.5660    0.0450 C   0  0  0  0  0  0  0  0  0  0  0  0
   -3.2770    1.2580   -0.1870 O   0  0  0  0  0  0  0  0  0  0  0  0
   -2.1630    0.8910   -0.8840 C   0  0  0  0  0  0  0  0  0  0  0  0
   -1.4320    1.7780   -1.3750 O   0  0  0  0  0  0  0  0  0  0  0  0
   -1.7650   -0.5000   -1.0930 N   0  0  0  0  0  0  0  0  0  0  0  0
   -2.6310   -1.4570   -0.5110 C   0  0  0  0  0  0  0  0  0  0  0  0
   -2.4920   -1.8900    0.8870 C   0  0  1  0  0  0  0  0  0  0  0  0
   -3.5970   -2.7950    1.1480 O   0  0  0  0  0  0  0  0  0  0  0  0
   -1.4040   -2.6970    1.1940 O   0  0  0  0  0  0  0  0  0  0  0  0
   -2.5880   -0.8780    1.8240 O   0  0  0  0  0  0  0  0  0  0  0  0
   -0.6910   -0.7480   -1.9640 C   0  0  0  0  0  0  0  0  0  0  0  0
    0.7340   -0.6310   -1.4760 C   0  0  2  0  0  0  0  0  0  0  0  0
    1.4930   -0.9100   -2.6780 O   0  0  0  0  0  0  0  0  0  0  0  0
    1.1150   -1.6270   -0.4450 C   0  0  0  0  0  0  0  0  0  0  0  0
    0.9290   -3.0620   -0.9220 C   0  0  0  0  0  0  0  0  0  0  0  0
    1.0300    0.6380   -1.1210 O   0  0  0  0  0  0  0  0  0  0  0  0
    2.2250    1.1140   -0.8160 C   0  0  0  0  0  0  0  0  0  0  0  0
    3.0780    0.5160    0.6960 P   0  0  0  0  0  0  0  0  0  0  0  0
    4.7500   -0.2370    0.2930 C   0  0  0  0  0  0  0  0  0  0  0  0
    3.4330    2.1080    2.1560 P   0  0  0  0  0  0  0  0  0  0  0  0
    3.2180    1.5930    3.7770 O   0  0  0  0  0  0  0  0  0  0  0  0
    2.6210    3.5640    1.7770 O   0  0  0  0  0  0  0  0  0  0  0  0
  1  2  1  0
  2  3  1  0
  3  4  1  0
  4  5  2  0
  4  6  1  0
  6  7  1  0
  6 12  1  0
  7  8  1  0
  8  9  1  1
  8 10  1  0
  8 11  1  0
 12 13  1  0
 13 14  1  6
 13 15  1  0
 13 17  1  0
 15 16  1  0
 17 18  1  0
 18 19  1  0
 19 20  1  0
 19 21  1  0
 21 22  1  0
 21 23  1  0
M  END
