
     RDKit          3D

 23 23  0  0  0  0  0  0  0  0999 V2000
    5.9120    1.1290   -0.6150 C   0  0  0  0  0  0  0  0  0  0  0  0
    5.8400    1.6440    0.6060 C   0  0  0  0  0  0  0  0  0  0  0  0
    4.8150    2.4310    1.0690 O   0  0  0  0  0  0  0  0  0  0  0  0
    3.8610    1.9480    1.9650 C   0  0  0  0  0  0  0  0  0  0  0  0
    3.1190    0.7870    1.3700 C   0  0  0  0  0  0  0  0  0  0  0  0
    2.2200    1.1770   -0.1740 P   0  0  0  0  0  0  0  0  0  0  0  0
    2.0080    2.8630   -0.4530 O   0  0  0  0  0  0  0  0  0  0  0  0
    1.8460    3.5590    0.6350 O   0  0  0  0  0  0  0  0  0  0  0  0
    0.7510    0.2700   -0.2400 O   0  0  0  0  0  0  0  0  0  0  0  0
    0.3990   -0.6120   -1.2400 C   0  0  0  0  0  0  0  0  0  0  0  0
    1.2080   -0.7710   -2.1810 O   0  0  0  0  0  0  0  0  0  0  0  0
   -0.8380   -1.2700   -1.1380 N   0  0  0  0  0  0  0  0  0  0  0  0
   -1.1710   -2.1900   -2.2120 C   0  0  0  0  0  0  0  0  0  0  0  0
   -2.6410   -2.4280   -2.3120 C   0  0  0  0  0  0  0  0  0  0  0  0
   -3.4140   -1.3140   -2.4700 O   0  0  0  0  0  0  0  0  0  0  0  0
   -2.9040   -0.1450   -1.9780 C   0  0  0  0  0  0  0  0  0  0  0  0
   -2.8100   -0.1030   -0.4670 C   0  0  1  0  0  0  0  0  0  0  0  0
   -4.0010   -0.4550    0.1410 O   0  0  0  0  0  0  0  0  0  0  0  0
   -4.4470    0.5440    0.8540 O   0  0  0  0  0  0  0  0  0  0  0  0
   -4.9350    0.0230    2.0600 C   0  0  0  0  0  0  0  0  0  0  0  0
   -3.5760   -0.8480    2.9580 P   0  0  0  0  0  0  0  0  0  0  0  0
   -3.4180   -0.8170    4.4870 O   0  0  0  0  0  0  0  0  0  0  0  0
   -1.6710   -0.9860    0.0080 C   0  0  0  0  0  0  0  0  0  0  0  0
  1  2  2  0
  2  3  1  0
  3  4  1  0
  4  5  1  0
  5  6  1  0
  6  7  1  0
  6  9  1  0
  7  8  1  0
  9 10  1  0
 10 11  2  0
 10 12  1  0
 12 13  1  0
 12 23  1  0
 13 14  1  0
 14 15  1  0
 15 16  1  0
 16 17  1  0
 17 18  1  1
 17 23  1  0
 18 19  1  0
 19 20  1  0
 20 21  1  0
 21 22  2  0
M  END
