
     RDKit          3D

 27 28  0  0  0  0  0  0  0  0999 V2000
    0.0600   -1.4620   -0.1450 N   0  0  0  0  0  0  0  0  0  0  0  0
   -0.9070   -0.6520    0.0540 C   0  0  0  0  0  0  0  0  0  0  0  0
   -2.2390   -1.1020   -0.1210 N   0  0  0  0  0  0  0  0  0  0  0  0
   -3.2360   -0.2920   -0.0380 N   0  0  0  0  0  0  0  0  0  0  0  0
   -4.5460   -0.7290   -0.2090 N   0  0  0  0  0  0  0  0  0  0  0  0
   -5.7080   -0.0750   -0.7760 C   0  0  0  0  0  0  0  0  0  0  0  0
   -6.5960   -1.1770   -1.3040 C   0  0  0  0  0  0  0  0  0  0  0  0
   -6.7380   -2.1300   -0.2970 O   0  0  0  0  0  0  0  0  0  0  0  0
   -5.1340   -2.2860    0.2570 S   0  0  1  0  0  0  0  0  0  0  0  0
   -4.4320   -3.3850   -0.4800 O   0  0  0  0  0  0  0  0  0  0  0  0
   -5.1550   -2.4710    1.7250 O   0  0  0  0  0  0  0  0  0  0  0  0
   -0.6990    0.6900    0.4470 N   0  0  0  0  0  0  0  0  0  0  0  0
   -0.0410    1.5910   -0.4420 C   0  0  0  0  0  0  0  0  0  0  0  0
    1.4070    1.3000   -0.6760 C   0  0  1  0  0  0  0  0  0  0  0  0
    1.9270    2.2660   -1.5710 O   0  0  0  0  0  0  0  0  0  0  0  0
    2.2270    3.0540   -0.4540 C   0  0  0  0  0  0  0  0  0  0  0  0
    2.3850    1.7880    0.3340 C   0  0  2  0  0  0  0  0  0  0  0  0
    3.7310    1.2190    0.1660 C   0  0  0  0  0  0  0  0  0  0  0  0
    4.6800    2.0290   -0.0390 O   0  0  0  0  0  0  0  0  0  0  0  0
    4.0200   -0.1380    0.2180 O   0  0  0  0  0  0  0  0  0  0  0  0
    5.3630   -0.5420    0.0380 C   0  0  0  0  0  0  0  0  0  0  0  0
    5.5390   -2.0240    0.1180 C   0  0  0  0  0  0  0  0  0  0  0  0
    4.7290   -2.6680   -0.9320 C   0  0  0  0  0  0  0  0  0  0  0  0
    4.0550   -2.0130   -1.6940 O   0  0  0  0  0  0  0  0  0  0  0  0
   -1.3000    1.1360    2.0680 P   0  0  0  0  0  0  0  0  0  0  0  0
   -0.6210    0.2130    3.3300 O   0  0  0  0  0  0  0  0  0  0  0  0
   -1.3120    2.8260    2.3480 O   0  0  0  0  0  0  0  0  0  0  0  0
  1  2  2  0
  2  3  1  0
  2 12  1  0
  3  4  2  3
  4  5  1  0
  5  6  1  0
  5  9  1  0
  6  7  1  0
  7  8  1  0
  9  8  1  6
  9 10  2  0
  9 11  2  0
 12 13  1  0
 12 25  1  0
 14 13  1  1
 14 15  1  0
 14 17  1  0
 15 16  1  0
 16 17  1  0
 17 18  1  6
 18 19  2  0
 18 20  1  0
 20 21  1  0
 21 22  1  0
 22 23  1  0
 23 24  2  0
 25 26  1  0
 25 27  1  0
M  END
