
     RDKit          3D

 22 23  0  0  0  0  0  0  0  0999 V2000
   -6.0710    2.2100    0.2070 C   0  0  0  0  0  0  0  0  0  0  0  0
   -4.8690    1.3100    0.2020 C   0  0  0  0  0  0  0  0  0  0  0  0
   -4.3880    1.0800   -1.0760 O   0  0  0  0  0  0  0  0  0  0  0  0
   -3.2240   -0.1900   -1.0260 P   0  0  0  0  0  0  0  0  0  0  0  0
   -4.0240   -1.7440   -1.1250 O   0  0  0  0  0  0  0  0  0  0  0  0
   -1.9340   -0.1460    0.7250 P   0  0  0  0  0  0  0  0  0  0  0  0
   -0.4700    0.9210    0.4400 C   0  0  0  0  0  0  0  0  0  0  0  0
    0.6710    0.1050    0.1650 N   0  0  0  0  0  0  0  0  0  0  0  0
    1.7490    0.7850   -0.5730 C   0  0  0  0  0  0  0  0  0  0  0  0
    1.8430    0.9130   -1.7550 O   0  0  0  0  0  0  0  0  0  0  0  0
    2.7070    1.2710    0.4420 C   0  0  0  0  0  0  0  0  0  0  0  0
    3.3490    2.5720    0.2330 C   0  0  0  0  0  0  0  0  0  0  0  0
    4.4260    2.4810   -0.8800 C   0  0  0  0  0  0  0  0  0  0  0  0
    5.0030    1.2770   -0.4740 O   0  0  0  0  0  0  0  0  0  0  0  0
    6.2000    1.4080   -0.0330 O   0  0  0  0  0  0  0  0  0  0  0  0
    0.8760   -1.1730    0.6770 C   0  0  0  0  0  0  0  0  0  0  0  0
   -0.2500   -2.1510    0.6070 C   0  0  2  0  0  0  0  0  0  0  0  0
    0.1840   -3.2680    1.3680 O   0  0  0  0  0  0  0  0  0  0  0  0
    0.8090   -4.0890    0.4520 C   0  0  0  0  0  0  0  0  0  0  0  0
   -0.1120   -3.9130   -0.7490 C   0  0  0  0  0  0  0  0  0  0  0  0
   -0.4450   -2.5880   -0.6680 O   0  0  0  0  0  0  0  0  0  0  0  0
   -1.4050   -1.7010    1.2410 O   0  0  0  0  0  0  0  0  0  0  0  0
  1  2  1  0
  2  3  1  0
  3  4  1  0
  4  5  1  0
  4  6  1  0
  6  7  1  0
  6 22  1  0
  7  8  1  0
  8  9  1  0
  8 16  1  0
  9 10  2  0
  9 11  1  0
 11 12  1  0
 12 13  1  0
 13 14  1  0
 14 15  1  0
 17 16  1  6
 17 18  1  0
 17 21  1  0
 17 22  1  0
 18 19  1  0
 19 20  1  0
 20 21  1  0
M  END
