
     RDKit          3D

 23 22  0  0  0  0  0  0  0  0999 V2000
   -2.1920   -1.5820   -1.5590 C   0  0  0  0  0  0  0  0  0  0  0  0
   -2.3990   -1.0160   -0.2630 N   0  0  0  0  0  0  0  0  0  0  0  0
   -3.4750   -1.5910    0.5680 C   0  0  0  0  0  0  0  0  0  0  0  0
   -2.8520   -2.7090    1.3690 C   0  0  0  0  0  0  0  0  0  0  0  0
   -3.8480   -3.2800    2.1750 O   0  0  0  0  0  0  0  0  0  0  0  0
   -1.6510    0.0530    0.2940 C   0  0  0  0  0  0  0  0  0  0  0  0
   -1.9000    0.4890    1.4340 O   0  0  0  0  0  0  0  0  0  0  0  0
   -0.5390    0.6960   -0.4660 C   0  0  1  0  0  0  0  0  0  0  0  0
   -0.3510    0.1260   -1.7020 O   0  0  0  0  0  0  0  0  0  0  0  0
   -0.7920    2.1920   -0.5840 C   0  0  0  0  0  0  0  0  0  0  0  0
   -2.3900    2.5310   -1.4680 P   0  0  0  0  0  0  0  0  0  0  0  0
   -2.0770    2.9870   -3.1290 O   0  0  0  0  0  0  0  0  0  0  0  0
   -3.1290    3.9040   -0.7070 O   0  0  0  0  0  0  0  0  0  0  0  0
   -2.4580    4.1230    0.8690 P   0  0  0  0  0  0  0  0  0  0  0  0
   -2.9390    5.3190    1.7350 O   0  0  0  0  0  0  0  0  0  0  0  0
    0.6140    0.5310    0.3270 O   0  0  0  0  0  0  0  0  0  0  0  0
    1.8540    0.9620   -0.0410 C   0  0  0  0  0  0  0  0  0  0  0  0
    2.0410    1.5330   -1.1280 O   0  0  0  0  0  0  0  0  0  0  0  0
    3.0650    0.7760    0.8370 C   0  0  0  0  0  0  0  0  0  0  0  0
    3.8350   -0.3950    0.3090 C   0  0  2  0  0  0  0  0  0  0  0  0
    2.9250   -1.6040    0.3670 C   0  0  0  0  0  0  0  0  0  0  0  0
    5.0410   -0.6150    1.1960 C   0  0  0  0  0  0  0  0  0  0  0  0
    4.1870   -0.1650   -1.0200 O   0  0  0  0  0  0  0  0  0  0  0  0
  1  2  1  0
  2  3  1  0
  2  6  1  0
  3  4  1  0
  4  5  1  0
  6  7  2  0
  6  8  1  0
  8  9  1  6
  8 10  1  0
  8 16  1  0
 10 11  1  0
 11 12  1  0
 11 13  1  0
 13 14  1  0
 14 15  2  0
 16 17  1  0
 17 18  2  0
 17 19  1  0
 19 20  1  0
 20 21  1  6
 20 22  1  0
 20 23  1  0
M  END
