
     RDKit          3D

 23 24  0  0  0  0  0  0  0  0999 V2000
    0.1870   -1.7000   -0.2410 O   0  0  0  0  0  0  0  0  0  0  0  0
    0.1630   -0.4820    0.0210 C   0  0  0  0  0  0  0  0  0  0  0  0
    1.3990    0.1970    0.4410 C   0  0  0  0  0  0  0  0  0  0  0  0
    2.4310   -0.7400    0.4920 O   0  0  0  0  0  0  0  0  0  0  0  0
    3.9290   -0.0640    0.9730 P   0  0  0  0  0  0  0  0  0  0  0  0
    3.8390    0.7440    2.5030 O   0  0  0  0  0  0  0  0  0  0  0  0
    4.5970    1.1080   -0.2940 C   0  0  0  0  0  0  0  0  0  0  0  0
    6.1030    0.4140   -1.1360 P   0  0  0  0  0  0  0  0  0  0  0  0
    6.6180   -1.0530   -0.4030 O   0  0  0  0  0  0  0  0  0  0  0  0
    5.8830    0.2730   -2.8360 O   0  0  0  0  0  0  0  0  0  0  0  0
   -1.0580    0.2190   -0.0930 N   0  0  0  0  0  0  0  0  0  0  0  0
   -0.9650    1.6770    0.2220 C   0  0  0  0  0  0  0  0  0  0  0  0
   -1.2120    1.7760    1.5880 O   0  0  0  0  0  0  0  0  0  0  0  0
   -1.1560    3.0850    2.0180 C   0  0  0  0  0  0  0  0  0  0  0  0
    0.1340    3.5580    1.7360 O   0  0  0  0  0  0  0  0  0  0  0  0
   -2.3190   -0.2250   -0.4310 C   0  0  2  0  0  0  0  0  0  0  0  0
   -2.5130   -0.9740   -1.7780 C   0  0  0  0  0  0  0  0  0  0  0  0
   -3.0980   -1.4000   -0.4800 C   0  0  1  0  0  0  0  0  0  0  0  0
   -3.0670   -2.7130    0.0470 C   0  0  0  0  0  0  0  0  0  0  0  0
   -2.2290   -3.1380    0.8050 O   0  0  0  0  0  0  0  0  0  0  0  0
   -4.1480   -3.6980   -0.3390 C   0  0  0  0  0  0  0  0  0  0  0  0
   -5.0540   -3.0980   -1.2120 O   0  0  0  0  0  0  0  0  0  0  0  0
   -3.5400   -0.2320    0.3960 C   0  0  0  0  0  0  0  0  0  0  0  0
  1  2  2  0
  2  3  1  0
  2 11  1  0
  3  4  1  0
  4  5  1  0
  5  6  1  0
  5  7  1  0
  7  8  1  0
  8  9  1  0
  8 10  1  0
 11 12  1  0
 16 11  1  1
 12 13  1  0
 13 14  1  0
 14 15  1  0
 16 17  1  0
 16 18  1  0
 16 23  1  0
 17 18  1  0
 18 19  1  1
 18 23  1  0
 19 20  2  0
 19 21  1  0
 21 22  1  0
M  END
