
     RDKit          3D

 27 27  0  0  0  0  0  0  0  0999 V2000
   -2.1220   -4.3430   -1.7410 N   0  0  0  0  0  0  0  0  0  0  0  0
   -1.2390   -3.2290   -1.5860 C   0  0  0  0  0  0  0  0  0  0  0  0
   -0.1360   -3.2130   -2.2060 O   0  0  0  0  0  0  0  0  0  0  0  0
   -1.5790   -2.1350   -0.7430 N   0  0  0  0  0  0  0  0  0  0  0  0
   -0.6910   -1.0540   -0.6090 C   0  0  0  0  0  0  0  0  0  0  0  0
    0.3970   -1.1250   -1.2720 O   0  0  0  0  0  0  0  0  0  0  0  0
   -0.9090    0.1080    0.2040 C   0  0  0  0  0  0  0  0  0  0  0  0
   -1.8920    0.3410    0.9030 N   0  0  0  0  0  0  0  0  0  0  0  0
   -3.0740   -0.2850    1.2060 C   0  0  0  0  0  0  0  0  0  0  0  0
   -4.1990   -0.0440    0.5100 C   0  0  0  0  0  0  0  0  0  0  0  0
   -4.2050    0.8940   -0.5950 C   0  0  0  0  0  0  0  0  0  0  0  0
   -5.2360    1.1390   -1.2620 O   0  0  0  0  0  0  0  0  0  0  0  0
   -3.0350    1.5500   -0.9390 O   0  0  0  0  0  0  0  0  0  0  0  0
   -3.0230    2.4270   -1.9650 O   0  0  0  0  0  0  0  0  0  0  0  0
   -3.2150   -1.2690    2.3470 C   0  0  0  0  0  0  0  0  0  0  0  0
   -4.5130   -1.7410    2.4520 O   0  0  0  0  0  0  0  0  0  0  0  0
    0.2050    1.1710    0.1970 C   0  0  0  0  0  0  0  0  0  0  0  0
    1.2130    1.3830   -0.2520 N   0  0  0  0  0  0  0  0  0  0  0  0
    2.0220    2.4040   -0.1090 C   0  0  0  0  0  0  0  0  0  0  0  0
    3.3740    2.6190   -0.7540 C   0  0  0  0  0  0  0  0  0  0  0  0
    4.4530    2.0470    0.1190 C   0  0  0  0  0  0  0  0  0  0  0  0
    4.2750    0.6910    0.3130 O   0  0  0  0  0  0  0  0  0  0  0  0
    5.5330    0.0540    1.3230 P   0  0  0  0  0  0  0  0  0  0  0  0
    5.9880   -1.5040    0.7530 O   0  0  0  0  0  0  0  0  0  0  0  0
    6.8820    1.1420    1.2420 O   0  0  0  0  0  0  0  0  0  0  0  0
    1.5540    3.3680    0.7290 N   0  0  0  0  0  0  0  0  0  0  0  0
   -0.0770    2.6970    1.2630 S   0  0  0  0  0  0  0  0  0  0  0  0
  1  2  1  0
  2  3  2  0
  2  4  1  0
  4  5  1  0
  5  6  2  0
  5  7  1  0
  7  8  2  3
  7 17  1  0
  8  9  1  0
  9 10  2  3
  9 15  1  0
 10 11  1  0
 11 12  2  0
 11 13  1  0
 13 14  1  0
 15 16  1  0
 17 18  2  0
 17 27  1  0
 18 19  1  0
 19 20  1  0
 19 26  2  0
 20 21  1  0
 21 22  1  0
 22 23  1  0
 23 24  1  0
 23 25  1  0
 26 27  1  0
M  END
