
     RDKit          3D

 23 23  0  0  0  0  0  0  0  0999 V2000
    5.3370   -1.1620   -0.9530 C   0  0  0  0  0  0  0  0  0  0  0  0
    3.8610   -1.2110   -1.3300 C   0  0  2  0  0  0  0  0  0  0  0  0
    3.0400   -1.1060   -0.2320 O   0  0  0  0  0  0  0  0  0  0  0  0
    2.1810   -0.0910   -0.2990 O   0  0  0  0  0  0  0  0  0  0  0  0
    0.8290   -0.2050   -0.4840 C   0  0  0  0  0  0  0  0  0  0  0  0
    0.3460   -1.3630   -0.6020 O   0  0  0  0  0  0  0  0  0  0  0  0
   -0.0590    0.9030   -0.5510 N   0  0  0  0  0  0  0  0  0  0  0  0
   -1.4730    0.7760   -0.7470 C   0  0  0  0  0  0  0  0  0  0  0  0
   -2.2380    0.6610    0.5140 C   0  0  0  0  0  0  0  0  0  0  0  0
   -1.7200    0.6710    1.6600 O   0  0  0  0  0  0  0  0  0  0  0  0
   -3.6120    0.5340    0.4360 O   0  0  0  0  0  0  0  0  0  0  0  0
   -4.4730    0.4150    1.5330 C   0  0  2  0  0  0  0  0  0  0  0  0
   -5.7800    0.3100    1.0230 O   0  0  0  0  0  0  0  0  0  0  0  0
   -4.4520    1.4830    2.3970 O   0  0  0  0  0  0  0  0  0  0  0  0
   -4.1620   -1.1320    2.5120 P   0  0  0  0  0  0  0  0  0  0  0  0
   -4.4260   -2.6300    1.4210 C   0  0  0  0  0  0  0  0  0  0  0  0
   -5.3820   -1.2060    3.7570 O   0  0  0  0  0  0  0  0  0  0  0  0
    0.4530    2.2520   -0.4180 C   0  0  2  0  0  0  0  0  0  0  0  0
    1.5090    2.4860   -1.4820 C   0  0  0  0  0  0  0  0  0  0  0  0
    2.4590    2.9150   -0.4000 C   0  0  0  0  0  0  0  0  0  0  0  0
    1.5000    2.4420    0.6430 C   0  0  0  0  0  0  0  0  0  0  0  0
    3.5740   -2.8780   -2.1200 P   0  0  0  0  0  0  0  0  0  0  0  0
    5.0810   -3.6260   -2.5580 O   0  0  0  0  0  0  0  0  0  0  0  0
  2  1  1  1
  2  3  1  0
  2 22  1  0
  3  4  1  0
  4  5  1  0
  5  6  2  0
  5  7  1  0
  7  8  1  0
 18  7  1  6
  8  9  1  0
  9 10  2  0
  9 11  1  0
 11 12  1  0
 12 13  1  6
 12 14  1  0
 12 15  1  0
 15 16  1  0
 15 17  1  0
 18 19  1  0
 18 21  1  0
 19 20  1  0
 20 21  1  0
 22 23  1  0
M  END
