
     RDKit          3D

 27 27  0  0  0  0  0  0  0  0999 V2000
   -2.6890   -1.1780    1.5580 N   0  0  0  0  0  0  0  0  0  0  0  0
   -3.1880   -0.9100    0.4090 C   0  0  0  0  0  0  0  0  0  0  0  0
   -2.6620    0.1500   -0.3450 N   0  0  0  0  0  0  0  0  0  0  0  0
   -1.5610    0.9460   -0.0520 N   0  0  0  0  0  0  0  0  0  0  0  0
   -0.1800    0.5390   -0.1200 C   0  0  0  0  0  0  0  0  0  0  0  0
    0.4550    0.0850    1.1400 C   0  0  0  0  0  0  0  0  0  0  0  0
    1.8150   -0.2960    0.9930 O   0  0  0  0  0  0  0  0  0  0  0  0
    2.7530    0.5920    0.5760 C   0  0  0  0  0  0  0  0  0  0  0  0
    2.4520    1.7700    0.3130 O   0  0  0  0  0  0  0  0  0  0  0  0
    4.1680    0.1710    0.4250 C   0  0  0  0  0  0  0  0  0  0  0  0
    4.3230   -0.5340   -1.2520 S   0  0  0  0  0  0  0  0  0  0  0  0
    6.0110   -1.0030   -1.5400 C   0  0  0  0  0  0  0  0  0  0  0  0
    6.3090   -1.5480   -2.5760 O   0  0  0  0  0  0  0  0  0  0  0  0
    7.0350   -0.7290   -0.5120 C   0  0  0  0  0  0  0  0  0  0  0  0
    8.3030   -1.1650   -0.8960 O   0  0  0  0  0  0  0  0  0  0  0  0
    9.1600   -0.8690    0.0540 O   0  0  0  0  0  0  0  0  0  0  0  0
   -1.7990    2.3400    0.2660 C   0  0  0  0  0  0  0  0  0  0  0  0
   -0.8540    3.0780    0.5560 O   0  0  0  0  0  0  0  0  0  0  0  0
   -3.1520    2.8800    0.2410 C   0  0  0  0  0  0  0  0  0  0  0  0
   -4.2560    2.1740   -0.0590 N   0  0  0  0  0  0  0  0  0  0  0  0
   -5.3190    2.9870    0.0120 C   0  0  0  0  0  0  0  0  0  0  0  0
   -4.8360    4.2180    0.3640 C   0  0  0  0  0  0  0  0  0  0  0  0
   -3.5380    4.1010    0.4890 O   0  0  0  0  0  0  0  0  0  0  0  0
   -4.2860   -1.7030   -0.0640 N   0  0  0  0  0  0  0  0  0  0  0  0
   -4.5630   -3.3370    0.6130 P   0  0  0  0  0  0  0  0  0  0  0  0
   -6.1800   -3.8620    0.2310 O   0  0  0  0  0  0  0  0  0  0  0  0
   -3.4710   -4.4210   -0.1560 O   0  0  0  0  0  0  0  0  0  0  0  0
  1  2  2  0
  2  3  1  0
  2 24  1  0
  3  4  1  0
  4  5  1  0
  4 17  1  0
  5  6  1  0
  6  7  1  0
  7  8  1  0
  8  9  2  0
  8 10  1  0
 10 11  1  0
 11 12  1  0
 12 13  2  0
 12 14  1  0
 14 15  1  0
 15 16  1  0
 17 18  2  0
 17 19  1  0
 19 20  2  0
 19 23  1  0
 20 21  1  0
 21 22  2  0
 22 23  1  0
 24 25  1  0
 25 26  1  0
 25 27  1  0
M  END
