
     RDKit          3D

 20 20  0  0  0  0  0  0  0  0999 V2000
   -2.4000   -2.0910   -1.0300 C   0  0  0  0  0  0  0  0  0  0  0  0
   -2.5260   -0.5790   -1.1860 C   0  0  2  0  0  0  0  0  0  0  0  0
   -3.9930   -0.3020   -1.4490 C   0  0  0  0  0  0  0  0  0  0  0  0
   -1.7760   -0.2120   -2.4410 C   0  0  0  0  0  0  0  0  0  0  0  0
   -2.0820    0.1350    0.0280 C   0  0  1  0  0  0  0  0  0  0  0  0
   -2.8700   -0.2550    1.1730 N   0  0  0  0  0  0  0  0  0  0  0  0
   -0.6140    0.0540    0.3470 C   0  0  2  0  0  0  0  0  0  0  0  0
   -0.1770   -1.1780    0.7030 O   0  0  0  0  0  0  0  0  0  0  0  0
    0.9360   -1.6880    0.1300 C   0  0  0  0  0  0  0  0  0  0  0  0
    2.2330   -1.0010    0.3320 C   0  0  1  0  0  0  0  0  0  0  0  0
    3.2810   -1.8310   -0.4320 C   0  0  0  0  0  0  0  0  0  0  0  0
    4.6620   -1.3100   -0.2010 C   0  0  0  0  0  0  0  0  0  0  0  0
    4.5590    0.0790    0.3680 C   0  0  0  0  0  0  0  0  0  0  0  0
    3.4450    0.8700   -0.2770 C   0  0  0  0  0  0  0  0  0  0  0  0
    2.2080    0.2740   -0.1480 O   0  0  0  0  0  0  0  0  0  0  0  0
   -0.4410    0.9390    1.5650 C   0  0  0  0  0  0  0  0  0  0  0  0
    0.0320    0.4940    2.6400 O   0  0  0  0  0  0  0  0  0  0  0  0
   -0.7990    2.2740    1.5300 O   0  0  0  0  0  0  0  0  0  0  0  0
   -0.6610    3.1530    2.6340 C   0  0  0  0  0  0  0  0  0  0  0  0
   -1.1520    4.4560    2.1740 N   0  0  0  0  0  0  0  0  0  0  0  0
  2  1  1  1
  2  3  1  0
  2  4  1  0
  2  5  1  0
  5  6  1  1
  5  7  1  0
  7  8  1  1
  7 16  1  0
  8  9  1  0
 10  9  1  6
 10 11  1  0
 10 15  1  0
 11 12  1  0
 12 13  1  0
 13 14  1  0
 14 15  1  0
 16 17  2  0
 16 18  1  0
 18 19  1  0
 19 20  1  0
M  CHG  1   6   1
M  END
