
     RDKit          3D

 20 20  0  0  0  0  0  0  0  0999 V2000
   -3.1100   -0.4770    1.8310 C   0  0  0  0  0  0  0  0  0  0  0  0
   -2.5810    0.8130    1.2930 C   0  0  0  0  0  0  0  0  0  0  0  0
   -2.0030    0.6680   -0.1040 C   0  0  2  0  0  0  0  0  0  0  0  0
   -3.1170    0.1760   -1.0040 C   0  0  0  0  0  0  0  0  0  0  0  0
   -4.2620    1.1650   -1.0150 C   0  0  0  0  0  0  0  0  0  0  0  0
   -0.9010   -0.1490   -0.1270 O   0  0  0  0  0  0  0  0  0  0  0  0
    0.2600    0.4880   -0.5670 C   0  0  2  0  0  0  0  0  0  0  0  0
    0.7090   -0.2660   -1.7800 C   0  0  0  0  0  0  0  0  0  0  0  0
    1.0380   -1.5220   -1.5760 C   0  0  0  0  0  0  0  0  0  0  0  0
    1.4850   -2.3420   -2.6810 C   0  0  0  0  0  0  0  0  0  0  0  0
    1.8020   -3.5600   -2.4760 O   0  0  0  0  0  0  0  0  0  0  0  0
    1.5950   -1.8790   -3.9800 O   0  0  0  0  0  0  0  0  0  0  0  0
    0.9430   -2.0800   -0.2140 C   0  0  0  0  0  0  0  0  0  0  0  0
    1.6040   -1.1170    0.7380 C   0  0  2  0  0  0  0  0  0  0  0  0
    1.2980   -1.4760    2.1300 N   0  0  0  0  0  0  0  0  0  0  0  0
    1.3060    0.3200    0.4800 C   0  0  1  0  0  0  0  0  0  0  0  0
    2.5300    1.0180    0.2400 N   0  0  0  0  0  0  0  0  0  0  0  0
    3.0650    2.0430    1.0470 C   0  0  0  0  0  0  0  0  0  0  0  0
    4.3490    2.6590    0.6490 C   0  0  0  0  0  0  0  0  0  0  0  0
    2.4110    2.3760    2.0690 O   0  0  0  0  0  0  0  0  0  0  0  0
  1  2  1  0
  3  2  1  1
  3  4  1  0
  3  6  1  0
  4  5  1  0
  7  6  1  1
  7  8  1  0
  7 16  1  0
  8  9  2  0
  9 10  1  0
  9 13  1  0
 10 11  2  0
 10 12  1  0
 13 14  1  0
 14 15  1  1
 14 16  1  0
 16 17  1  6
 17 18  1  0
 18 19  1  0
 18 20  2  0
M  CHG  1  15   1
M  END
