
     RDKit          3D

 20 20  0  0  0  0  0  0  0  0999 V2000
    0.3420   -1.0780   -2.2620 C   0  0  0  0  0  0  0  0  0  0  0  0
    0.4540   -1.3670   -0.7890 C   0  0  2  0  0  0  0  0  0  0  0  0
    1.2020   -2.6540   -0.5570 C   0  0  0  0  0  0  0  0  0  0  0  0
   -0.9150   -1.5330   -0.2580 C   0  0  0  0  0  0  0  0  0  0  0  0
   -1.3710   -2.5560    0.2970 O   0  0  0  0  0  0  0  0  0  0  0  0
   -1.7540   -0.4450   -0.3960 O   0  0  0  0  0  0  0  0  0  0  0  0
   -3.0700   -0.3630    0.0210 C   0  0  1  0  0  0  0  0  0  0  0  0
   -3.3300    0.7010    1.0550 C   0  0  0  0  0  0  0  0  0  0  0  0
   -4.4130    1.6490    0.5960 C   0  0  0  0  0  0  0  0  0  0  0  0
   -5.6240    0.9540    0.0640 C   0  0  0  0  0  0  0  0  0  0  0  0
   -5.3280   -0.2660   -0.5440 O   0  0  0  0  0  0  0  0  0  0  0  0
   -4.0570   -0.1500   -1.1060 C   0  0  0  0  0  0  0  0  0  0  0  0
    1.1680   -0.1780   -0.1490 C   0  0  1  0  0  0  0  0  0  0  0  0
    1.3280   -0.3410    1.2410 N   0  0  0  0  0  0  0  0  0  0  0  0
    2.3810    0.0590   -0.9690 C   0  0  0  0  0  0  0  0  0  0  0  0
    3.2980    1.1600   -0.6270 C   0  0  0  0  0  0  0  0  0  0  0  0
    4.0140    1.0710    0.6720 C   0  0  2  0  0  0  0  0  0  0  0  0
    4.8650    2.2910    0.8360 N   0  0  0  0  0  0  0  0  0  0  0  0
    4.9630   -0.1000    0.6270 C   0  0  0  0  0  0  0  0  0  0  0  0
    4.5340   -1.2110    0.5030 O   0  0  0  0  0  0  0  0  0  0  0  0
  2  1  1  6
  2  3  1  0
  2  4  1  0
  2 13  1  0
  4  5  2  0
  4  6  1  0
  7  6  1  6
  7  8  1  0
  7 12  1  0
  8  9  1  0
  9 10  1  0
 10 11  1  0
 11 12  1  0
 13 14  1  1
 13 15  1  0
 15 16  1  0
 16 17  1  0
 17 18  1  6
 17 19  1  0
 19 20  2  0
M  CHG  1  14   1
M  END
