
     RDKit          3D

 20 20  0  0  0  0  0  0  0  0999 V2000
   -4.5050   -3.1840    0.0580 C   0  0  0  0  0  0  0  0  0  0  0  0
   -4.5360   -1.9920   -0.8540 C   0  0  0  0  0  0  0  0  0  0  0  0
   -3.3590   -1.2260   -0.8190 O   0  0  0  0  0  0  0  0  0  0  0  0
   -2.8640   -0.6100    0.3190 C   0  0  0  0  0  0  0  0  0  0  0  0
   -3.5490   -0.7720    1.3810 O   0  0  0  0  0  0  0  0  0  0  0  0
   -1.6150    0.1930    0.3160 C   0  0  2  0  0  0  0  0  0  0  0  0
   -0.4970   -0.6550   -0.0980 C   0  0  0  0  0  0  0  0  0  0  0  0
   -0.7270   -1.8580   -0.3740 O   0  0  0  0  0  0  0  0  0  0  0  0
    0.8440   -0.2290   -0.2150 N   0  0  0  0  0  0  0  0  0  0  0  0
    1.9220   -1.1110   -0.6300 C   0  0  0  0  0  0  0  0  0  0  0  0
    3.2440   -0.4140   -0.6730 C   0  0  1  0  0  0  0  0  0  0  0  0
    3.5590    0.1090    0.7160 C   0  0  0  0  0  0  0  0  0  0  0  0
    4.2390   -1.3730   -1.1150 N   0  0  0  0  0  0  0  0  0  0  0  0
    3.2290    0.7470   -1.6180 C   0  0  0  0  0  0  0  0  0  0  0  0
    4.5840    1.4080   -1.6190 C   0  0  0  0  0  0  0  0  0  0  0  0
   -1.3910    0.9010    1.6230 C   0  0  0  0  0  0  0  0  0  0  0  0
   -1.5850    2.3740    1.3330 C   0  0  0  0  0  0  0  0  0  0  0  0
   -2.5260    2.3440    0.1510 C   0  0  1  0  0  0  0  0  0  0  0  0
   -2.6540    3.5570   -0.4770 O   0  0  0  0  0  0  0  0  0  0  0  0
   -1.8430    1.2960   -0.7280 C   0  0  0  0  0  0  0  0  0  0  0  0
  1  2  1  0
  2  3  1  0
  3  4  1  0
  4  5  2  0
  6  4  1  1
  6  7  1  0
  6 16  1  0
  6 20  1  0
  7  8  2  0
  7  9  1  0
  9 10  1  0
 10 11  1  0
 11 12  1  1
 11 13  1  0
 11 14  1  0
 14 15  1  0
 16 17  1  0
 17 18  1  0
 18 19  1  6
 18 20  1  0
M  CHG  1  13   1
M  END
