
     RDKit          3D

 20 21  0  0  0  0  0  0  0  0999 V2000
    5.5280   -1.6750    0.6100 C   0  0  0  0  0  0  0  0  0  0  0  0
    4.5080   -0.7720    0.3960 O   0  0  0  0  0  0  0  0  0  0  0  0
    3.2740   -1.4330    0.1900 C   0  0  0  0  0  0  0  0  0  0  0  0
    2.2600   -0.2930   -0.0110 C   0  0  1  0  0  0  0  0  0  0  0  0
    2.8890    0.5870   -1.0880 C   0  0  0  0  0  0  0  0  0  0  0  0
    2.1940    1.8280   -1.2670 N   0  0  0  0  0  0  0  0  0  0  0  0
    0.9290   -0.7530   -0.4160 C   0  0  0  0  0  0  0  0  0  0  0  0
   -0.2560   -0.3870    0.4220 C   0  0  2  0  0  0  0  0  0  0  0  0
   -0.9300   -1.5440    0.7430 O   0  0  0  0  0  0  0  0  0  0  0  0
   -1.1720    0.5350   -0.3480 C   0  0  0  0  0  0  0  0  0  0  0  0
   -2.3740    0.9200    0.2880 N   0  0  0  0  0  0  0  0  0  0  0  0
   -2.7870    2.2530   -0.2810 C   0  0  0  0  0  0  0  0  0  0  0  0
   -3.4100    1.9140   -1.6100 C   0  0  0  0  0  0  0  0  0  0  0  0
   -3.8970    0.4900   -1.4740 C   0  0  0  0  0  0  0  0  0  0  0  0
   -3.5710    0.2160    0.0020 C   0  0  1  0  0  0  0  0  0  0  0  0
   -3.7040   -1.2160    0.3150 C   0  0  0  0  0  0  0  0  0  0  0  0
   -5.0620   -1.5470   -0.0340 O   0  0  0  0  0  0  0  0  0  0  0  0
    0.0780    0.2870    1.7360 C   0  0  0  0  0  0  0  0  0  0  0  0
    1.4650   -0.1540    2.1360 C   0  0  0  0  0  0  0  0  0  0  0  0
    2.3090    0.4400    1.1670 O   0  0  0  0  0  0  0  0  0  0  0  0
  1  2  1  0
  2  3  1  0
  4  3  1  1
  4  5  1  0
  4  7  1  0
  4 20  1  0
  5  6  1  0
  7  8  1  0
  8  9  1  1
  8 10  1  0
  8 18  1  0
 10 11  1  0
 11 12  1  0
 11 15  1  0
 12 13  1  0
 13 14  1  0
 14 15  1  0
 15 16  1  6
 16 17  1  0
 18 19  1  0
 19 20  1  0
M  CHG  1   6   1
M  END
