
     RDKit          3D

 20 20  0  0  0  0  0  0  0  0999 V2000
   -4.5670    1.6990    1.5690 C   0  0  0  0  0  0  0  0  0  0  0  0
   -5.1960    0.3750    1.2960 C   0  0  0  0  0  0  0  0  0  0  0  0
   -4.6120   -0.3010    0.1160 C   0  0  0  0  0  0  0  0  0  0  0  0
   -3.1770   -0.6340    0.1510 C   0  0  2  0  0  0  0  0  0  0  0  0
   -2.7810   -1.5400    1.2970 C   0  0  0  0  0  0  0  0  0  0  0  0
   -1.5640   -2.1890    0.9540 N   0  0  0  0  0  0  0  0  0  0  0  0
   -0.5080   -1.3520    0.5180 C   0  0  0  0  0  0  0  0  0  0  0  0
   -0.8560   -0.1770   -0.3090 C   0  0  2  0  0  0  0  0  0  0  0  0
   -1.0240   -0.5570   -1.7810 C   0  0  0  0  0  0  0  0  0  0  0  0
    0.1480    0.8110   -0.2680 O   0  0  0  0  0  0  0  0  0  0  0  0
    1.4560    0.5640   -0.6970 C   0  0  0  0  0  0  0  0  0  0  0  0
    1.6760   -0.5900   -1.1200 O   0  0  0  0  0  0  0  0  0  0  0  0
    2.4560    1.5460   -0.6540 N   0  0  0  0  0  0  0  0  0  0  0  0
    3.8050    1.3930   -1.0370 C   0  0  0  0  0  0  0  0  0  0  0  0
    4.7230    0.5280   -0.2640 C   0  0  2  0  0  0  0  0  0  0  0  0
    4.9880    1.2340    1.0860 C   0  0  0  0  0  0  0  0  0  0  0  0
    5.9990    0.5520   -0.9080 O   0  0  0  0  0  0  0  0  0  0  0  0
    4.3140   -0.8750   -0.0180 C   0  0  0  0  0  0  0  0  0  0  0  0
    5.3530   -1.4700    0.7680 O   0  0  0  0  0  0  0  0  0  0  0  0
   -2.1910    0.4870    0.1040 C   0  0  0  0  0  0  0  0  0  0  0  0
  1  2  1  0
  2  3  1  0
  4  3  1  1
  4  5  1  0
  4 20  1  0
  5  6  1  0
  6  7  1  0
  7  8  1  0
  8  9  1  6
  8 10  1  0
  8 20  1  0
 10 11  1  0
 11 12  2  0
 11 13  1  0
 13 14  1  0
 14 15  1  0
 15 16  1  1
 15 17  1  0
 15 18  1  0
 18 19  1  0
M  CHG  1   6   1
M  END
