
     RDKit          3D

 23 24  0  0  0  0  0  0  0  0999 V2000
   -3.9440    2.4310    2.1050 C   0  0  0  0  0  0  0  0  0  0  0  0
   -2.8890    1.5180    2.1040 O   0  0  0  0  0  0  0  0  0  0  0  0
   -2.7240    0.5080    1.1730 C   0  0  0  0  0  0  0  0  0  0  0  0
   -3.6070    0.3070    0.1370 C   0  0  0  0  0  0  0  0  0  0  0  0
   -3.4110   -0.7250   -0.7890 C   0  0  0  0  0  0  0  0  0  0  0  0
   -4.3110   -0.9040   -1.8160 O   0  0  0  0  0  0  0  0  0  0  0  0
   -2.3300   -1.5620   -0.6830 C   0  0  0  0  0  0  0  0  0  0  0  0
   -1.4230   -1.3770    0.3570 C   0  0  0  0  0  0  0  0  0  0  0  0
   -0.0700   -2.4680    0.5040 S   0  0  1  0  0  0  0  0  0  0  0  0
    0.5050   -2.4240    1.9000 O   0  0  0  0  0  0  0  0  0  0  0  0
   -0.5610   -3.8770    0.2370 O   0  0  0  0  0  0  0  0  0  0  0  0
    1.1750   -2.0500   -0.5900 N   0  0  0  0  0  0  0  0  0  0  0  0
    1.8940   -0.8210   -0.6120 C   0  0  0  0  0  0  0  0  0  0  0  0
    3.2810   -0.9410   -0.6270 C   0  0  0  0  0  0  0  0  0  0  0  0
    4.0810    0.1670   -0.6330 C   0  0  0  0  0  0  0  0  0  0  0  0
    5.5260    0.0350   -0.6490 N   0  0  0  0  0  0  0  0  0  0  0  0
    3.5080    1.4180   -0.6230 C   0  0  0  0  0  0  0  0  0  0  0  0
    4.3610    2.5680   -0.6290 N   0  0  0  0  0  0  0  0  0  0  0  0
    5.4360    2.6090   -0.0220 O   0  0  0  0  0  0  0  0  0  0  0  0
    2.1400    1.5260   -0.6080 C   0  0  0  0  0  0  0  0  0  0  0  0
    1.4240    3.1440   -0.5950 Cl  0  0  0  0  0  0  0  0  0  0  0  0
    1.3190    0.4210   -0.6020 C   0  0  0  0  0  0  0  0  0  0  0  0
   -1.6450   -0.3380    1.2660 C   0  0  0  0  0  0  0  0  0  0  0  0
  1  2  1  0
  2  3  1  0
  3  4  2  0
  3 23  1  0
  4  5  1  0
  5  6  1  0
  5  7  2  0
  7  8  1  0
  8  9  1  0
  8 23  2  0
  9 10  2  0
  9 11  2  0
  9 12  1  6
 12 13  1  0
 13 14  2  0
 13 22  1  0
 14 15  1  0
 15 16  1  0
 15 17  2  0
 17 18  1  0
 17 20  1  0
 18 19  2  0
 20 21  1  0
 20 22  2  0
M  END
