
     RDKit          3D

 23 24  0  0  0  0  0  0  0  0999 V2000
   -0.2440   -0.3770    1.0780 O   0  0  0  0  0  0  0  0  0  0  0  0
    0.4050    0.5770    0.5090 C   0  0  0  0  0  0  0  0  0  0  0  0
    1.7430    0.3510   -0.0110 C   0  0  0  0  0  0  0  0  0  0  0  0
    2.8780   -0.4750    1.1560 S   0  0  0  0  0  0  0  0  0  0  0  0
    4.3610   -0.7920    0.1840 C   0  0  0  0  0  0  0  0  0  0  0  0
    5.3710    0.1290    0.0800 C   0  0  0  0  0  0  0  0  0  0  0  0
    6.4960   -0.1590   -0.6990 C   0  0  0  0  0  0  0  0  0  0  0  0
    6.6340   -1.3180   -1.3620 N   0  0  0  0  0  0  0  0  0  0  0  0
    7.7610   -1.5980   -2.1370 O   0  0  0  0  0  0  0  0  0  0  0  0
    5.6510   -2.2230   -1.2670 C   0  0  0  0  0  0  0  0  0  0  0  0
    4.5090   -1.9870   -0.5040 C   0  0  0  0  0  0  0  0  0  0  0  0
   -0.2450    1.8250    0.4150 N   0  0  0  0  0  0  0  0  0  0  0  0
   -1.6170    1.9640    0.9210 C   0  0  0  0  0  0  0  0  0  0  0  0
   -2.5010    1.0280    0.1470 C   0  0  0  0  0  0  0  0  0  0  0  0
   -1.9600    0.3040   -0.7260 O   0  0  0  0  0  0  0  0  0  0  0  0
   -3.8820    0.9840    0.4120 N   0  0  0  0  0  0  0  0  0  0  0  0
   -4.7360    0.0850   -0.3140 C   0  0  0  0  0  0  0  0  0  0  0  0
   -4.3900   -0.9320   -1.1710 C   0  0  0  0  0  0  0  0  0  0  0  0
   -5.5030   -1.5280   -1.6100 O   0  0  0  0  0  0  0  0  0  0  0  0
   -6.5320   -0.9340   -1.0670 C   0  0  0  0  0  0  0  0  0  0  0  0
   -8.2340   -1.3510   -1.3290 Cl  0  0  0  0  0  0  0  0  0  0  0  0
   -6.1220    0.0930   -0.2400 C   0  0  0  0  0  0  0  0  0  0  0  0
   -6.8610    0.9750    0.5210 O   0  0  0  0  0  0  0  0  0  0  0  0
  1  2  2  0
  2  3  1  0
  2 12  1  0
  3  4  1  0
  4  5  1  0
  5  6  2  0
  5 11  1  0
  6  7  1  0
  7  8  2  0
  8  9  1  0
  8 10  1  0
 10 11  2  0
 12 13  1  0
 13 14  1  0
 14 15  2  0
 14 16  1  0
 16 17  1  0
 17 18  2  0
 17 22  1  0
 18 19  1  0
 19 20  1  0
 20 21  1  0
 20 22  2  0
 22 23  1  0
M  CHG  2   8   1   9  -1
M  END
