
     RDKit          3D

 22 23  0  0  0  0  0  0  0  0999 V2000
   -5.0160    1.7290   -0.6140 C   0  0  0  0  0  0  0  0  0  0  0  0
   -4.0300    0.6310   -0.4670 C   0  0  0  0  0  0  0  0  0  0  0  0
   -2.7070    0.8050   -0.7260 N   0  0  0  0  0  0  0  0  0  0  0  0
   -1.8330   -0.2030   -0.5850 C   0  0  0  0  0  0  0  0  0  0  0  0
   -0.1190    0.1100   -0.9450 S   0  0  0  0  0  0  0  0  0  0  0  0
    0.6850    0.6690    0.5960 C   0  0  0  0  0  0  0  0  0  0  0  0
    2.1440    0.9440    0.3190 C   0  0  0  0  0  0  0  0  0  0  0  0
    2.4500    2.0980   -0.0470 O   0  0  0  0  0  0  0  0  0  0  0  0
    3.0270   -0.1330    0.5000 N   0  0  0  0  0  0  0  0  0  0  0  0
    4.4080   -0.0420    0.2850 C   0  0  0  0  0  0  0  0  0  0  0  0
    5.0740    1.0760   -0.1250 C   0  0  0  0  0  0  0  0  0  0  0  0
    6.4610    1.0680   -0.3130 C   0  0  0  0  0  0  0  0  0  0  0  0
    7.0690    2.1140   -0.6950 O   0  0  0  0  0  0  0  0  0  0  0  0
    7.1330   -0.0090   -0.0990 O   0  0  0  0  0  0  0  0  0  0  0  0
    6.5340   -1.1150    0.2990 C   0  0  0  0  0  0  0  0  0  0  0  0
    5.2010   -1.1690    0.4970 C   0  0  0  0  0  0  0  0  0  0  0  0
    4.4200   -2.6330    1.0220 Cl  0  0  0  0  0  0  0  0  0  0  0  0
   -2.2270   -1.4210   -0.1850 N   0  0  0  0  0  0  0  0  0  0  0  0
   -3.5370   -1.6770    0.0950 C   0  0  0  0  0  0  0  0  0  0  0  0
   -3.9590   -2.7870    0.4710 O   0  0  0  0  0  0  0  0  0  0  0  0
   -4.4220   -0.6260   -0.0560 C   0  0  0  0  0  0  0  0  0  0  0  0
   -5.8600   -0.8570    0.2380 C   0  0  0  0  0  0  0  0  0  0  0  0
  1  2  1  0
  2  3  1  0
  2 21  2  0
  3  4  2  0
  4  5  1  0
  4 18  1  0
  5  6  1  0
  6  7  1  0
  7  8  2  0
  7  9  1  0
  9 10  1  0
 10 11  2  0
 10 16  1  0
 11 12  1  0
 12 13  2  0
 12 14  1  0
 14 15  1  0
 15 16  2  0
 16 17  1  0
 18 19  1  0
 19 20  2  0
 19 21  1  0
 21 22  1  0
M  END
