
     RDKit          3D

 22 22  0  0  0  0  0  0  0  0999 V2000
    5.2360   -0.6540   -1.1600 C   0  0  0  0  0  0  0  0  0  0  0  0
    5.1720    0.6550   -0.3840 C   0  0  1  0  0  0  0  0  0  0  0  0
    5.4830    0.2910    1.0570 C   0  0  0  0  0  0  0  0  0  0  0  0
    6.2210    1.6160   -0.8560 C   0  0  0  0  0  0  0  0  0  0  0  0
    3.8490    1.1470   -0.5150 O   0  0  0  0  0  0  0  0  0  0  0  0
    2.7680    0.4330   -0.0480 C   0  0  0  0  0  0  0  0  0  0  0  0
    2.9790   -0.6690    0.5080 O   0  0  0  0  0  0  0  0  0  0  0  0
    1.4040    0.8540   -0.1440 N   0  0  0  0  0  0  0  0  0  0  0  0
    0.3810    0.0250    0.3850 N   0  0  0  0  0  0  0  0  0  0  0  0
    0.2300   -1.2700   -0.1490 C   0  0  0  0  0  0  0  0  0  0  0  0
    0.9910   -1.7000   -1.0850 O   0  0  0  0  0  0  0  0  0  0  0  0
   -1.0050   -2.4280    0.4030 S   0  0  0  0  0  0  0  0  0  0  0  0
   -2.1710   -1.6810    1.5300 C   0  0  0  0  0  0  0  0  0  0  0  0
   -3.1210   -0.7590    0.8800 C   0  0  0  0  0  0  0  0  0  0  0  0
   -2.8040    0.3780    0.4980 O   0  0  0  0  0  0  0  0  0  0  0  0
   -4.4570   -1.2120    0.6970 N   0  0  0  0  0  0  0  0  0  0  0  0
   -5.4340   -0.3930    0.0880 C   0  0  0  0  0  0  0  0  0  0  0  0
   -6.1220   -0.6910   -0.9820 C   0  0  0  0  0  0  0  0  0  0  0  0
   -7.0240    0.4350   -1.2710 C   0  0  0  0  0  0  0  0  0  0  0  0
   -6.7280    1.4140   -0.2020 C   0  0  0  0  0  0  0  0  0  0  0  0
   -7.5410    2.9620   -0.0900 Cl  0  0  0  0  0  0  0  0  0  0  0  0
   -5.7890    0.9210    0.6000 C   0  0  0  0  0  0  0  0  0  0  0  0
  2  1  1  6
  2  3  1  0
  2  4  1  0
  2  5  1  0
  5  6  1  0
  6  7  2  0
  6  8  1  0
  8  9  1  0
  9 10  1  0
 10 11  2  0
 10 12  1  0
 12 13  1  0
 13 14  1  0
 14 15  2  0
 14 16  1  0
 16 17  1  0
 17 18  2  0
 17 22  1  0
 18 19  1  0
 19 20  1  0
 20 21  1  0
 20 22  2  0
M  END
