
     RDKit          3D

 22 23  0  0  0  0  0  0  0  0999 V2000
    1.3340    0.4680    0.1260 O   0  0  0  0  0  0  0  0  0  0  0  0
    1.6680   -0.7210   -0.1490 C   0  0  0  0  0  0  0  0  0  0  0  0
    0.7130   -1.8500   -0.1910 C   0  0  0  0  0  0  0  0  0  0  0  0
   -0.6370   -1.4420    0.1120 N   0  0  0  0  0  0  0  0  0  0  0  0
   -1.0290   -0.8590    1.3330 C   0  0  0  0  0  0  0  0  0  0  0  0
   -0.1360   -0.7030    2.1970 O   0  0  0  0  0  0  0  0  0  0  0  0
   -2.4480   -0.4380    1.6110 C   0  0  0  0  0  0  0  0  0  0  0  0
   -2.8100   -0.3080    2.9490 C   0  0  0  0  0  0  0  0  0  0  0  0
   -4.5180    0.1270    2.8610 S   0  0  0  0  0  0  0  0  0  0  0  0
   -4.6670    0.1150    1.1040 C   0  0  0  0  0  0  0  0  0  0  0  0
   -3.4000   -0.2200    0.6860 C   0  0  0  0  0  0  0  0  0  0  0  0
   -3.4610   -0.2170   -0.8500 C   0  0  0  0  0  0  0  0  0  0  0  0
   -4.6100    0.7610   -1.1170 C   0  0  0  0  0  0  0  0  0  0  0  0
   -5.5840    0.3190   -0.0490 C   0  0  0  0  0  0  0  0  0  0  0  0
    3.0410   -0.9550   -0.4300 N   0  0  0  0  0  0  0  0  0  0  0  0
    3.9970    0.1360   -0.4010 C   0  0  0  0  0  0  0  0  0  0  0  0
    4.9700    0.0120    0.4440 C   0  0  0  0  0  0  0  0  0  0  0  0
    5.9480    0.9640    0.5860 O   0  0  0  0  0  0  0  0  0  0  0  0
    3.8600    1.2800   -1.2970 C   0  0  0  0  0  0  0  0  0  0  0  0
    4.9520    2.2000   -1.1890 N   0  0  0  0  0  0  0  0  0  0  0  0
    4.8410    3.3310   -0.6370 O   0  0  0  0  0  0  0  0  0  0  0  0
    6.2360    1.9450   -1.6740 O   0  0  0  0  0  0  0  0  0  0  0  0
  1  2  2  0
  2  3  1  0
  2 15  1  0
  3  4  1  0
  4  5  1  0
  5  6  2  0
  5  7  1  0
  7  8  2  0
  7 11  1  0
  8  9  1  0
  9 10  1  0
 10 11  2  0
 10 14  1  0
 11 12  1  0
 12 13  1  0
 13 14  1  0
 15 16  1  0
 16 17  2  3
 16 19  1  0
 17 18  1  0
 19 20  1  0
 20 21  2  0
 20 22  1  0
M  CHG  2  20   1  22  -1
M  END
