
     RDKit          3D

 22 23  0  0  0  0  0  0  0  0999 V2000
   -4.8170   -0.4520   -4.2510 C   0  0  0  0  0  0  0  0  0  0  0  0
   -4.5980   -0.5370   -2.9730 C   0  0  0  0  0  0  0  0  0  0  0  0
   -3.5180    0.3110   -2.3640 C   0  0  0  0  0  0  0  0  0  0  0  0
   -3.3020    1.6050   -2.8690 C   0  0  0  0  0  0  0  0  0  0  0  0
   -4.1750    2.5140   -4.1390 Cl  0  0  0  0  0  0  0  0  0  0  0  0
   -1.9110    2.1720   -1.9140 S   0  0  0  0  0  0  0  0  0  0  0  0
   -1.7140    0.7110   -0.9460 C   0  0  0  0  0  0  0  0  0  0  0  0
   -0.6790    0.4360   -0.0470 N   0  0  0  0  0  0  0  0  0  0  0  0
    0.3920    1.2700   -0.0620 C   0  0  0  0  0  0  0  0  0  0  0  0
    0.3710    2.2980   -0.8750 O   0  0  0  0  0  0  0  0  0  0  0  0
    1.5400    1.2650    0.6130 N   0  0  0  0  0  0  0  0  0  0  0  0
    2.7430    1.3920    1.2030 C   0  0  0  0  0  0  0  0  0  0  0  0
    3.3330    2.4420    0.7250 O   0  0  0  0  0  0  0  0  0  0  0  0
    3.3760    0.6510    2.1380 N   0  0  0  0  0  0  0  0  0  0  0  0
    4.6630    1.0130    2.6190 C   0  0  2  0  0  0  0  0  0  0  0  0
    5.8160    0.0760    2.4980 C   0  0  0  0  0  0  0  0  0  0  0  0
    5.1110    0.1920    3.8010 C   0  0  0  0  0  0  0  0  0  0  0  0
   -2.7180   -0.1300   -1.3990 C   0  0  0  0  0  0  0  0  0  0  0  0
   -2.8140   -1.4700   -0.7620 C   0  0  0  0  0  0  0  0  0  0  0  0
   -3.6910   -2.3030   -1.1420 O   0  0  0  0  0  0  0  0  0  0  0  0
   -1.9840   -1.8530    0.2370 O   0  0  0  0  0  0  0  0  0  0  0  0
   -2.0290   -3.1020    0.8920 C   0  0  0  0  0  0  0  0  0  0  0  0
  1  2  2  0
  2  3  1  0
  3  4  2  0
  3 18  1  0
  4  5  1  0
  4  6  1  0
  6  7  1  0
  7  8  1  0
  7 18  2  0
  8  9  1  0
  9 10  2  0
  9 11  1  0
 11 12  1  0
 12 13  2  0
 12 14  1  0
 15 14  1  6
 15 16  1  0
 15 17  1  0
 16 17  1  0
 18 19  1  0
 19 20  2  0
 19 21  1  0
 21 22  1  0
M  END
