
     RDKit          3D

 22 23  0  0  0  0  0  0  0  0999 V2000
    7.0880    0.5860    0.0050 N   0  0  0  0  0  0  0  0  0  0  0  0
    5.9450    0.3570   -0.8040 C   0  0  0  0  0  0  0  0  0  0  0  0
    6.1260   -0.0710   -1.9700 O   0  0  0  0  0  0  0  0  0  0  0  0
    4.5720    0.6100   -0.3050 C   0  0  0  0  0  0  0  0  0  0  0  0
    3.6210    0.3110   -1.2810 O   0  0  0  0  0  0  0  0  0  0  0  0
    2.2740    0.4690   -1.0430 C   0  0  0  0  0  0  0  0  0  0  0  0
    1.4900    1.6900   -1.7760 S   0  0  0  0  0  0  0  0  0  0  0  0
    1.6160   -0.4280   -0.1760 N   0  0  0  0  0  0  0  0  0  0  0  0
    0.2040   -0.3080    0.1080 C   0  0  0  0  0  0  0  0  0  0  0  0
   -0.7010   -0.3250   -0.8550 C   0  0  0  0  0  0  0  0  0  0  0  0
   -2.1170   -0.2020   -0.5260 C   0  0  0  0  0  0  0  0  0  0  0  0
   -3.0720   -0.2200   -1.5410 C   0  0  0  0  0  0  0  0  0  0  0  0
   -4.4310   -0.1030   -1.2420 C   0  0  0  0  0  0  0  0  0  0  0  0
   -4.8420    0.0320    0.0680 C   0  0  0  0  0  0  0  0  0  0  0  0
   -6.2410    0.1510    0.3580 N   0  0  0  0  0  0  0  0  0  0  0  0
   -7.0820    0.1330   -0.5620 O   0  0  0  0  0  0  0  0  0  0  0  0
   -6.6950    0.2870    1.6380 O   0  0  0  0  0  0  0  0  0  0  0  0
   -3.9150    0.0510    1.0640 C   0  0  0  0  0  0  0  0  0  0  0  0
   -2.5580   -0.0660    0.7730 C   0  0  0  0  0  0  0  0  0  0  0  0
   -1.6250   -0.0360    1.9100 C   0  0  0  0  0  0  0  0  0  0  0  0
   -0.2290   -0.1670    1.4690 C   0  0  0  0  0  0  0  0  0  0  0  0
    0.6660   -0.1540    2.3760 O   0  0  0  0  0  0  0  0  0  0  0  0
  1  2  1  0
  2  3  2  0
  2  4  1  0
  4  5  1  0
  5  6  1  0
  6  7  2  0
  6  8  1  0
  8  9  1  0
  9 10  2  0
  9 21  1  0
 10 11  1  0
 11 12  2  0
 11 19  1  0
 12 13  1  0
 13 14  2  0
 14 15  1  0
 14 18  1  0
 15 16  2  0
 15 17  1  0
 18 19  2  0
 19 20  1  0
 20 21  1  0
 21 22  2  0
M  CHG  2  15   1  17  -1
M  END
