
     RDKit          3D

 21 22  0  0  0  0  0  0  0  0999 V2000
   -5.7380    1.3920    0.1570 N   0  0  0  0  0  0  0  0  0  0  0  0
   -4.3250    1.3100    0.0920 C   0  0  0  0  0  0  0  0  0  0  0  0
   -3.6420    2.3310    0.1880 O   0  0  0  0  0  0  0  0  0  0  0  0
   -3.6180   -0.0070   -0.0950 C   0  0  0  0  0  0  0  0  0  0  0  0
   -4.3060   -1.1520   -0.2060 C   0  0  0  0  0  0  0  0  0  0  0  0
   -6.2480   -1.3110   -0.1490 Br  0  0  0  0  0  0  0  0  0  0  0  0
   -3.5420   -2.3220   -0.3780 C   0  0  0  0  0  0  0  0  0  0  0  0
   -1.8900   -1.7650   -0.3750 S   0  0  0  0  0  0  0  0  0  0  0  0
   -2.2450   -0.0260   -0.1510 C   0  0  0  0  0  0  0  0  0  0  0  0
   -1.2570    0.9670   -0.0700 N   0  0  0  0  0  0  0  0  0  0  0  0
    0.1090    0.6040   -0.1680 C   0  0  0  0  0  0  0  0  0  0  0  0
    0.3920   -0.6060   -0.3250 O   0  0  0  0  0  0  0  0  0  0  0  0
    1.2120    1.6020   -0.0900 C   0  0  0  0  0  0  0  0  0  0  0  0
    2.4750    0.9890   -0.2140 O   0  0  0  0  0  0  0  0  0  0  0  0
    2.9390    0.0320    0.6470 C   0  0  0  0  0  0  0  0  0  0  0  0
    2.2310   -0.3370    1.6020 O   0  0  0  0  0  0  0  0  0  0  0  0
    4.3050   -0.6020    0.4770 C   0  0  0  0  0  0  0  0  0  0  0  0
    5.1370   -0.2740   -0.5130 C   0  0  0  0  0  0  0  0  0  0  0  0
    6.3790   -0.8710   -0.6430 C   0  0  0  0  0  0  0  0  0  0  0  0
    6.3730   -2.0300    0.8000 S   0  0  0  0  0  0  0  0  0  0  0  0
    4.7070   -1.5690    1.3970 C   0  0  0  0  0  0  0  0  0  0  0  0
  1  2  1  0
  2  3  2  0
  2  4  1  0
  4  5  1  0
  4  9  2  0
  5  6  1  0
  5  7  2  0
  7  8  1  0
  8  9  1  0
  9 10  1  0
 10 11  1  0
 11 12  2  0
 11 13  1  0
 13 14  1  0
 14 15  1  0
 15 16  2  0
 15 17  1  0
 17 18  1  0
 17 21  2  0
 18 19  2  0
 19 20  1  0
 20 21  1  0
M  END
