
     RDKit          3D

 21 22  0  0  0  0  0  0  0  0999 V2000
   -4.6090   -1.9090   -1.4810 C   0  0  0  0  0  0  0  0  0  0  0  0
   -4.8630   -0.7020   -0.8280 O   0  0  0  0  0  0  0  0  0  0  0  0
   -3.9070    0.1380   -0.3040 C   0  0  0  0  0  0  0  0  0  0  0  0
   -2.5450   -0.1110   -0.3580 C   0  0  0  0  0  0  0  0  0  0  0  0
   -1.6210    0.7630    0.1830 C   0  0  0  0  0  0  0  0  0  0  0  0
    0.0990    0.3130    0.0400 S   0  0  0  0  0  0  0  0  0  0  0  0
    1.1620    1.5780    0.8040 C   0  0  0  0  0  0  0  0  0  0  0  0
    2.5720    1.1480    0.6530 C   0  0  0  0  0  0  0  0  0  0  0  0
    3.5450    1.8010    1.0470 O   0  0  0  0  0  0  0  0  0  0  0  0
    2.8800   -0.0720    0.0260 N   0  0  0  0  0  0  0  0  0  0  0  0
    4.1970   -0.5100   -0.0590 C   0  0  0  0  0  0  0  0  0  0  0  0
    4.5120   -1.3290   -0.8970 N   0  0  0  0  0  0  0  0  0  0  0  0
    5.8430   -1.7140   -0.9560 C   0  0  0  0  0  0  0  0  0  0  0  0
    6.5960   -1.7230   -1.9390 O   0  0  0  0  0  0  0  0  0  0  0  0
    6.2980   -2.1400    0.4290 C   0  0  0  0  0  0  0  0  0  0  0  0
    5.6070   -0.5500    1.1170 S   0  0  0  0  0  0  0  0  0  0  0  0
   -2.0430    1.9150    0.7950 C   0  0  0  0  0  0  0  0  0  0  0  0
   -3.3920    2.1850    0.8620 C   0  0  0  0  0  0  0  0  0  0  0  0
   -4.0040    3.7790    1.7060 Br  0  0  0  0  0  0  0  0  0  0  0  0
   -4.3100    1.3010    0.3150 C   0  0  0  0  0  0  0  0  0  0  0  0
   -5.6510    1.6170    0.4070 O   0  0  0  0  0  0  0  0  0  0  0  0
  1  2  1  0
  2  3  1  0
  3  4  2  0
  3 20  1  0
  4  5  1  0
  5  6  1  0
  5 17  2  0
  6  7  1  0
  7  8  1  0
  8  9  2  0
  8 10  1  0
 10 11  1  0
 11 12  2  0
 11 16  1  0
 12 13  1  0
 13 14  2  0
 13 15  1  0
 15 16  1  0
 17 18  1  0
 18 19  1  0
 18 20  2  0
 20 21  1  0
M  END
