
     RDKit          3D

 21 22  0  0  0  0  0  0  0  0999 V2000
    5.0860    0.7090   -1.7300 C   0  0  0  0  0  0  0  0  0  0  0  0
    4.1560    0.4640   -0.5470 C   0  0  0  0  0  0  0  0  0  0  0  0
    4.2050    1.2450    0.5070 C   0  0  0  0  0  0  0  0  0  0  0  0
    5.3200    2.7420    0.8390 Br  0  0  0  0  0  0  0  0  0  0  0  0
    2.9940    0.6120    1.5930 S   0  0  1  0  0  0  0  0  0  0  0  0
    3.6230    0.0550    2.8420 O   0  0  0  0  0  0  0  0  0  0  0  0
    1.9410    1.6110    1.8910 O   0  0  0  0  0  0  0  0  0  0  0  0
    2.4660   -0.6990    0.5630 C   0  0  0  0  0  0  0  0  0  0  0  0
    1.2180   -1.8850    0.9060 S   0  0  1  0  0  0  0  0  0  0  0  0
    1.6290   -3.1600    0.2370 O   0  0  0  0  0  0  0  0  0  0  0  0
    1.1420   -2.1110    2.4050 O   0  0  0  0  0  0  0  0  0  0  0  0
   -0.2960   -1.4250    0.3370 N   0  0  0  0  0  0  0  0  0  0  0  0
   -0.8640   -0.2340    0.8650 C   0  0  0  0  0  0  0  0  0  0  0  0
   -2.1810   -0.0450    0.2210 C   0  0  0  0  0  0  0  0  0  0  0  0
   -3.3040   -0.5860    0.7900 C   0  0  0  0  0  0  0  0  0  0  0  0
   -4.5540   -0.4140    0.1920 C   0  0  0  0  0  0  0  0  0  0  0  0
   -4.6510    0.3060   -0.9790 C   0  0  0  0  0  0  0  0  0  0  0  0
   -5.9520    0.4740   -1.5840 N   0  0  0  0  0  0  0  0  0  0  0  0
   -3.5260    0.8480   -1.5490 C   0  0  0  0  0  0  0  0  0  0  0  0
   -2.2750    0.6720   -0.9430 C   0  0  0  0  0  0  0  0  0  0  0  0
    3.2110   -0.5980   -0.5230 C   0  0  0  0  0  0  0  0  0  0  0  0
  1  2  1  0
  2  3  2  0
  2 21  1  0
  3  4  1  0
  5  3  1  6
  5  6  2  0
  5  7  2  0
  5  8  1  0
  8  9  1  0
  8 21  2  0
  9 10  2  0
  9 11  2  0
  9 12  1  6
 12 13  1  0
 13 14  1  0
 14 15  2  0
 14 20  1  0
 15 16  1  0
 16 17  2  0
 17 18  1  0
 17 19  1  0
 19 20  2  0
M  END
