
     RDKit          3D

 21 22  0  0  0  0  0  0  0  0999 V2000
    1.5420   -0.7180   -0.4590 O   0  0  0  0  0  0  0  0  0  0  0  0
    1.1510    0.3800   -0.0710 C   0  0  0  0  0  0  0  0  0  0  0  0
    2.1510    1.3740    0.2040 N   0  0  0  0  0  0  0  0  0  0  0  0
    3.5320    1.1040    0.0380 C   0  0  0  0  0  0  0  0  0  0  0  0
    4.6510    2.2440    0.3550 S   0  0  0  0  0  0  0  0  0  0  0  0
    4.1060   -0.4890   -0.5250 S   0  0  0  0  0  0  0  0  0  0  0  0
    5.9020   -0.5550   -0.6290 C   0  0  0  0  0  0  0  0  0  0  0  0
    6.5480   -0.4490    0.7450 C   0  0  0  0  0  0  0  0  0  0  0  0
    5.9520   -1.9190    1.8720 Br  0  0  0  0  0  0  0  0  0  0  0  0
   -0.2210    0.6470    0.0960 N   0  0  0  0  0  0  0  0  0  0  0  0
   -1.2860   -0.2530   -0.1440 C   0  0  0  0  0  0  0  0  0  0  0  0
   -1.1370   -1.5420   -0.6000 C   0  0  0  0  0  0  0  0  0  0  0  0
   -2.2650   -2.3490   -0.8040 C   0  0  0  0  0  0  0  0  0  0  0  0
   -3.5210   -1.8570   -0.5520 C   0  0  0  0  0  0  0  0  0  0  0  0
   -4.6360   -2.6310   -0.7460 O   0  0  0  0  0  0  0  0  0  0  0  0
   -3.6750   -0.5680   -0.0960 C   0  0  0  0  0  0  0  0  0  0  0  0
   -2.5880    0.2230    0.1060 C   0  0  0  0  0  0  0  0  0  0  0  0
   -2.7380    1.5210    0.5650 O   0  0  0  0  0  0  0  0  0  0  0  0
   -4.0060    2.1040    0.7630 C   0  0  0  0  0  0  0  0  0  0  0  0
   -5.0960    1.0860    1.0300 C   0  0  0  0  0  0  0  0  0  0  0  0
   -4.9460   -0.0430    0.1690 O   0  0  0  0  0  0  0  0  0  0  0  0
  1  2  2  0
  2  3  1  0
  2 10  1  0
  3  4  1  0
  4  5  2  0
  4  6  1  0
  6  7  1  0
  7  8  1  0
  8  9  1  0
 10 11  1  0
 11 12  2  0
 11 17  1  0
 12 13  1  0
 13 14  2  0
 14 15  1  0
 14 16  1  0
 16 17  2  0
 16 21  1  0
 17 18  1  0
 18 19  1  0
 19 20  1  0
 20 21  1  0
M  END
