
     RDKit          3D

 21 22  0  0  0  0  0  0  0  0999 V2000
   -4.7860   -1.5140    0.6190 C   0  0  0  0  0  0  0  0  0  0  0  0
   -3.4090   -1.1050    0.1510 C   0  0  0  0  0  0  0  0  0  0  0  0
   -2.8290   -1.4220   -1.0580 C   0  0  0  0  0  0  0  0  0  0  0  0
   -1.5750   -0.8620   -1.0940 C   0  0  0  0  0  0  0  0  0  0  0  0
   -0.3050   -1.0140   -2.5030 Br  0  0  0  0  0  0  0  0  0  0  0  0
   -1.4230   -0.1990    0.1290 C   0  0  0  0  0  0  0  0  0  0  0  0
   -0.2530    0.5550    0.5580 C   0  0  0  0  0  0  0  0  0  0  0  0
    0.2000    1.6600    0.0320 C   0  0  0  0  0  0  0  0  0  0  0  0
    1.3750    2.3070    0.5380 N   0  0  0  0  0  0  0  0  0  0  0  0
    2.5000    1.5220    1.5660 S   0  0  2  0  0  0  0  0  0  0  0  0
    1.8860    1.1290    2.8720 O   0  0  0  0  0  0  0  0  0  0  0  0
    3.6500    2.4450    1.9140 O   0  0  0  0  0  0  0  0  0  0  0  0
    3.2180    0.1450    0.7660 C   0  0  0  0  0  0  0  0  0  0  0  0
    3.2630   -1.1630    1.0120 C   0  0  0  0  0  0  0  0  0  0  0  0
    3.9160   -1.9880    0.1820 C   0  0  0  0  0  0  0  0  0  0  0  0
    4.5310   -1.4410   -0.9190 C   0  0  0  0  0  0  0  0  0  0  0  0
    4.1790    0.2690   -0.7790 S   0  0  0  0  0  0  0  0  0  0  0  0
   -0.5130    2.3490   -1.0290 C   0  0  0  0  0  0  0  0  0  0  0  0
   -1.7600    1.8910   -1.5230 N   0  0  0  0  0  0  0  0  0  0  0  0
    0.0080    3.4140   -1.5260 O   0  0  0  0  0  0  0  0  0  0  0  0
   -2.5350   -0.3890    0.8000 O   0  0  0  0  0  0  0  0  0  0  0  0
  1  2  1  0
  2  3  2  0
  2 21  1  0
  3  4  1  0
  4  5  1  0
  4  6  2  0
  6  7  1  0
  6 21  1  0
  7  8  2  3
  8  9  1  0
  8 18  1  0
 10  9  1  6
 10 11  2  0
 10 12  2  0
 10 13  1  0
 13 14  2  0
 13 17  1  0
 14 15  1  0
 15 16  2  0
 16 17  1  0
 18 19  1  0
 18 20  2  0
M  END
