
     RDKit          3D

 20 21  0  0  0  0  0  0  0  0999 V2000
    5.8110    0.5360   -0.2710 N   0  0  0  0  0  0  0  0  0  0  0  0
    4.4350    1.2370    0.4810 S   0  0  2  0  0  0  0  0  0  0  0  0
    4.3780    2.6820    0.1120 O   0  0  0  0  0  0  0  0  0  0  0  0
    4.6440    1.1420    1.9730 O   0  0  0  0  0  0  0  0  0  0  0  0
    2.9560    0.4260    0.0340 C   0  0  0  0  0  0  0  0  0  0  0  0
    2.4450   -0.6360    0.7320 C   0  0  0  0  0  0  0  0  0  0  0  0
    1.2570   -1.2370    0.3190 C   0  0  0  0  0  0  0  0  0  0  0  0
    0.5840   -0.7760   -0.7910 C   0  0  0  0  0  0  0  0  0  0  0  0
   -0.6810   -1.3980   -1.2520 C   0  0  0  0  0  0  0  0  0  0  0  0
   -1.8770   -0.7660   -0.6320 C   0  0  0  0  0  0  0  0  0  0  0  0
   -2.3610   -1.2690    0.5580 C   0  0  0  0  0  0  0  0  0  0  0  0
   -3.4540   -0.7300    1.1730 C   0  0  0  0  0  0  0  0  0  0  0  0
   -4.1160    0.3610    0.5960 C   0  0  0  0  0  0  0  0  0  0  0  0
   -5.2440    0.9250    1.2210 N   0  0  0  0  0  0  0  0  0  0  0  0
   -5.8160    1.8910    0.6950 O   0  0  0  0  0  0  0  0  0  0  0  0
   -5.7190    0.4270    2.3960 O   0  0  0  0  0  0  0  0  0  0  0  0
   -3.6100    0.8440   -0.5950 C   0  0  0  0  0  0  0  0  0  0  0  0
   -2.5060    0.3080   -1.2260 C   0  0  0  0  0  0  0  0  0  0  0  0
    1.0900    0.3040   -1.5150 C   0  0  0  0  0  0  0  0  0  0  0  0
    2.2600    0.8720   -1.0810 C   0  0  0  0  0  0  0  0  0  0  0  0
  2  1  1  6
  2  3  2  0
  2  4  2  0
  2  5  1  0
  5  6  2  0
  5 20  1  0
  6  7  1  0
  7  8  2  0
  8  9  1  0
  8 19  1  0
  9 10  1  0
 10 11  2  0
 10 18  1  0
 11 12  1  0
 12 13  2  0
 13 14  1  0
 13 17  1  0
 14 15  2  0
 14 16  1  0
 17 18  2  0
 19 20  2  0
M  CHG  2  14   1  16  -1
M  END
