
     RDKit          3D

 11 11  0  0  0  0  0  0  0  0999 V2000
   -1.9440   -0.8460   -0.4100 N   0  0  0  0  0  0  0  0  0  0  0  0
   -0.6770   -0.2190   -0.0530 C   0  0  1  0  0  0  0  0  0  0  0  0
   -1.1120    1.0540    0.6960 C   0  0  0  0  0  0  0  0  0  0  0  0
   -1.8800    1.8690   -0.1200 O   0  0  0  0  0  0  0  0  0  0  0  0
    0.1010   -1.0910    0.8300 C   0  0  0  0  0  0  0  0  0  0  0  0
    1.3310   -0.9090    1.1990 O   0  0  0  0  0  0  0  0  0  0  0  0
    2.3570   -0.4430    0.5070 C   0  0  0  0  0  0  0  0  0  0  0  0
    2.0210    0.8680   -0.1090 C   0  0  0  0  0  0  0  0  0  0  0  0
    2.6700    1.8890    0.3070 O   0  0  0  0  0  0  0  0  0  0  0  0
    1.0640    1.0560   -1.0900 O   0  0  0  0  0  0  0  0  0  0  0  0
   -0.0670    0.2460   -1.3160 C   0  0  0  0  0  0  0  0  0  0  0  0
  2  1  1  6
  2  3  1  0
  2  5  1  0
  2 11  1  0
  3  4  1  0
  5  6  1  0
  6  7  1  0
  7  8  1  0
  8  9  2  0
  8 10  1  0
 10 11  1  0
M  END
