
     RDKit          3D

 11 11  0  0  0  0  0  0  0  0999 V2000
    3.3050    0.5780    0.3410 O   0  0  0  0  0  0  0  0  0  0  0  0
    2.7440   -0.6390    0.7480 C   0  0  0  0  0  0  0  0  0  0  0  0
    1.4400   -0.7860    0.0070 C   0  0  2  0  0  0  0  0  0  0  0  0
    1.6480   -0.7910   -1.3680 O   0  0  0  0  0  0  0  0  0  0  0  0
    0.5470    0.4000    0.3330 C   0  0  0  0  0  0  0  0  0  0  0  0
   -0.6690    0.2180   -0.3780 N   0  0  0  0  0  0  0  0  0  0  0  0
   -1.4840   -0.8740    0.0650 C   0  0  0  0  0  0  0  0  0  0  0  0
   -2.8820   -0.3700   -0.2190 C   0  0  0  0  0  0  0  0  0  0  0  0
   -2.6850    0.7770   -0.9850 O   0  0  0  0  0  0  0  0  0  0  0  0
   -1.5780    1.3330   -0.3280 C   0  0  2  0  0  0  0  0  0  0  0  0
   -1.1170    2.4910   -0.8910 O   0  0  0  0  0  0  0  0  0  0  0  0
  1  2  1  0
  2  3  1  0
  3  4  1  6
  3  5  1  0
  5  6  1  0
  6  7  1  0
  6 10  1  0
  7  8  1  0
  8  9  1  0
  9 10  1  0
 10 11  1  6
M  END
