
     RDKit          3D

 11 11  0  0  0  0  0  0  0  0999 V2000
    2.6350    1.6230    0.9490 O   0  0  0  0  0  0  0  0  0  0  0  0
    1.8230    0.7790    0.4790 C   0  0  0  0  0  0  0  0  0  0  0  0
    2.0120   -0.6440    0.8520 C   0  0  0  0  0  0  0  0  0  0  0  0
    0.7870   -1.2100    1.1250 O   0  0  0  0  0  0  0  0  0  0  0  0
    0.1830   -1.5140   -0.0960 C   0  0  0  0  0  0  0  0  0  0  0  0
   -0.8620   -0.5040   -0.4130 C   0  0  1  0  0  0  0  0  0  0  0  0
   -1.7220   -0.3040    0.8160 C   0  0  0  0  0  0  0  0  0  0  0  0
   -2.7120    0.6510    0.5180 O   0  0  0  0  0  0  0  0  0  0  0  0
   -0.3640    0.7770   -0.9660 C   0  0  2  0  0  0  0  0  0  0  0  0
   -0.1510    0.6380   -2.3360 O   0  0  0  0  0  0  0  0  0  0  0  0
    0.8160    1.2950   -0.3580 N   0  0  0  0  0  0  0  0  0  0  0  0
  1  2  2  0
  2  3  1  0
  2 11  1  0
  3  4  1  0
  4  5  1  0
  5  6  1  0
  6  7  1  1
  6  9  1  0
  7  8  1  0
  9 10  1  6
  9 11  1  0
M  END
