
     RDKit          3D

 12 13  0  0  0  0  0  0  0  0999 V2000
    0.4540   -2.7550    0.1570 O   0  0  0  0  0  0  0  0  0  0  0  0
    0.5430   -1.5090    0.0700 C   0  0  0  0  0  0  0  0  0  0  0  0
    1.7260   -0.8770   -0.0360 N   0  0  0  0  0  0  0  0  0  0  0  0
    1.8160    0.4630   -0.1290 C   0  0  0  0  0  0  0  0  0  0  0  0
    3.2590    1.2370   -0.2570 S   0  0  0  0  0  0  0  0  0  0  0  0
    0.7050    1.2490   -0.1200 N   0  0  0  0  0  0  0  0  0  0  0  0
   -0.4980    0.6800   -0.0180 C   0  0  0  0  0  0  0  0  0  0  0  0
   -1.8020    1.1850    0.0190 C   0  0  0  0  0  0  0  0  0  0  0  0
   -2.1400    2.9050   -0.0760 Cl  0  0  0  0  0  0  0  0  0  0  0  0
   -2.5970    0.1790    0.1280 O   0  0  0  0  0  0  0  0  0  0  0  0
   -1.9360   -0.9660    0.1680 C   0  0  0  0  0  0  0  0  0  0  0  0
   -0.5810   -0.6980    0.0770 C   0  0  0  0  0  0  0  0  0  0  0  0
  1  2  2  0
  2  3  1  0
  2 12  1  0
  3  4  1  0
  4  5  2  0
  4  6  1  0
  6  7  1  0
  7  8  2  0
  7 12  1  0
  8  9  1  0
  8 10  1  0
 10 11  1  0
 11 12  2  0
M  END
