
     RDKit          3D

 11 11  0  0  0  0  0  0  0  0999 V2000
    3.5240   -0.1380    0.0360 O   0  0  0  0  0  0  0  0  0  0  0  0
    2.3260   -0.8270   -0.1460 C   0  0  0  0  0  0  0  0  0  0  0  0
    1.2330   -0.1520    0.6700 C   0  0  1  0  0  0  0  0  0  0  0  0
    1.0500    1.2850    0.2280 C   0  0  0  0  0  0  0  0  0  0  0  0
   -0.2710    1.1950   -0.5250 C   0  0  0  0  0  0  0  0  0  0  0  0
   -0.9940    0.2900    0.3490 N   0  0  0  0  0  0  0  0  0  0  0  0
   -2.2790   -0.0910   -0.1840 C   0  0  1  0  0  0  0  0  0  0  0  0
   -3.0910    1.0040   -0.3790 O   0  0  0  0  0  0  0  0  0  0  0  0
   -2.1260   -0.8660   -1.3460 O   0  0  0  0  0  0  0  0  0  0  0  0
   -2.8920   -0.9090    0.7650 O   0  0  0  0  0  0  0  0  0  0  0  0
   -0.0920   -0.8500    0.3350 C   0  0  0  0  0  0  0  0  0  0  0  0
  1  2  1  0
  3  2  1  6
  3  4  1  0
  3 11  1  0
  4  5  1  0
  5  6  1  0
  6  7  1  0
  6 11  1  0
  7  8  1  6
  7  9  1  0
  7 10  1  0
M  END
