
     RDKit          3D

 13 12  0  0  0  0  0  0  0  0999 V2000
   -4.6520    0.1210    0.2980 N   0  0  0  0  0  0  0  0  0  0  0  0
   -3.3660   -0.3220   -0.0830 C   0  0  0  0  0  0  0  0  0  0  0  0
   -3.1350   -1.5940   -1.0900 S   0  0  0  0  0  0  0  0  0  0  0  0
   -2.1920    0.3860    0.4440 C   0  0  0  0  0  0  0  0  0  0  0  0
   -0.9750   -0.1650   -0.0210 O   0  0  0  0  0  0  0  0  0  0  0  0
    0.2160    0.3970    0.3910 C   0  0  0  0  0  0  0  0  0  0  0  0
    0.1630    1.4000    1.1810 O   0  0  0  0  0  0  0  0  0  0  0  0
    1.4990   -0.1240   -0.0520 C   0  0  0  0  0  0  0  0  0  0  0  0
    1.5180   -1.2390   -0.9290 N   0  0  0  0  0  0  0  0  0  0  0  0
    2.6190    0.4270    0.3530 C   0  0  0  0  0  0  0  0  0  0  0  0
    2.5600    1.8150    1.4460 Cl  0  0  0  0  0  0  0  0  0  0  0  0
    3.9620   -0.0390   -0.0480 C   0  0  0  0  0  0  0  0  0  0  0  0
    4.8730    1.2480   -0.8970 Cl  0  0  0  0  0  0  0  0  0  0  0  0
  1  2  1  0
  2  3  2  0
  2  4  1  0
  4  5  1  0
  5  6  1  0
  6  7  2  0
  6  8  1  0
  8  9  1  0
  8 10  2  3
 10 11  1  0
 10 12  1  0
 12 13  1  0
M  END
