
     RDKit          3D

 11 11  0  0  0  0  0  0  0  0999 V2000
    4.3710   -0.6530   -0.1470 O   0  0  0  0  0  0  0  0  0  0  0  0
    3.3230    0.0960    0.3870 C   0  0  0  0  0  0  0  0  0  0  0  0
    2.0190   -0.3550   -0.2510 C   0  0  0  0  0  0  0  0  0  0  0  0
    1.0050    0.3990    0.2930 O   0  0  0  0  0  0  0  0  0  0  0  0
   -0.2500    0.1070   -0.1870 C   0  0  2  0  0  0  0  0  0  0  0  0
   -0.9360    1.2740   -0.8330 C   0  0  0  0  0  0  0  0  0  0  0  0
   -2.1320    0.7750   -1.4020 O   0  0  0  0  0  0  0  0  0  0  0  0
   -2.9900    0.3840   -0.4440 N   0  0  0  0  0  0  0  0  0  0  0  0
   -2.4730   -0.7990    0.2070 C   0  0  2  0  0  0  0  0  0  0  0  0
   -3.3930   -1.3490    1.0910 O   0  0  0  0  0  0  0  0  0  0  0  0
   -1.1840   -0.4100    0.9060 C   0  0  0  0  0  0  0  0  0  0  0  0
  1  2  1  0
  2  3  1  0
  3  4  1  0
  5  4  1  1
  5  6  1  0
  5 11  1  0
  6  7  1  0
  7  8  1  0
  8  9  1  0
  9 10  1  1
  9 11  1  0
M  END
