
     RDKit          3D

 11 11  0  0  0  0  0  0  0  0999 V2000
   -1.7170    1.2380    0.6140 N   0  0  0  0  0  0  0  0  0  0  0  0
   -0.8320    1.0780   -0.5300 C   0  0  1  0  0  0  0  0  0  0  0  0
    0.4130    1.9260   -0.3570 C   0  0  0  0  0  0  0  0  0  0  0  0
    1.4590    1.0860   -0.0890 O   0  0  0  0  0  0  0  0  0  0  0  0
    0.9680   -0.1360    0.3100 C   0  0  2  0  0  0  0  0  0  0  0  0
    1.9890   -1.1920    0.0970 C   0  0  0  0  0  0  0  0  0  0  0  0
    1.7400   -2.3690    0.3940 O   0  0  0  0  0  0  0  0  0  0  0  0
    3.2170   -0.8620   -0.4350 O   0  0  0  0  0  0  0  0  0  0  0  0
   -0.2410   -0.3070   -0.5620 C   0  0  1  0  0  0  0  0  0  0  0  0
   -1.1820   -1.3700   -0.0950 C   0  0  0  0  0  0  0  0  0  0  0  0
   -1.6110   -1.1860    1.2130 O   0  0  0  0  0  0  0  0  0  0  0  0
  2  1  1  1
  2  3  1  0
  2  9  1  0
  3  4  1  0
  4  5  1  0
  5  6  1  6
  5  9  1  0
  6  7  2  0
  6  8  1  0
  9 10  1  1
 10 11  1  0
M  END
