
     RDKit          3D

 22 23  0  0  0  0  0  0  0  0999 V2000
    6.7160    1.5360    0.8540 C   0  0  0  0  0  0  0  0  0  0  0  0
    5.3900    1.1090    0.5820 O   0  0  0  0  0  0  0  0  0  0  0  0
    5.0820    0.0390   -0.2080 C   0  0  0  0  0  0  0  0  0  0  0  0
    5.9810   -0.6310   -0.7400 O   0  0  0  0  0  0  0  0  0  0  0  0
    3.6600   -0.3270   -0.4320 C   0  0  0  0  0  0  0  0  0  0  0  0
    3.4850   -1.4400   -1.2580 N   0  0  0  0  0  0  0  0  0  0  0  0
    2.7600    0.3820    0.1300 C   0  0  0  0  0  0  0  0  0  0  0  0
    1.3640    0.2560    0.0850 N   0  0  0  0  0  0  0  0  0  0  0  0
    0.5320   -0.6510   -0.5650 C   0  0  0  0  0  0  0  0  0  0  0  0
    1.0010   -1.5590   -1.2600 O   0  0  0  0  0  0  0  0  0  0  0  0
   -0.9350   -0.6030   -0.4770 C   0  0  0  0  0  0  0  0  0  0  0  0
   -1.6110    0.3360    0.2480 C   0  0  0  0  0  0  0  0  0  0  0  0
   -3.0170    0.3390    0.3000 C   0  0  0  0  0  0  0  0  0  0  0  0
   -3.6700    1.3890    1.1090 C   0  0  0  0  0  0  0  0  0  0  0  0
   -3.6850   -0.6120   -0.3870 C   0  0  0  0  0  0  0  0  0  0  0  0
   -3.0130   -1.5630   -1.1220 C   0  0  0  0  0  0  0  0  0  0  0  0
   -1.6730   -1.5310   -1.1450 N   0  0  0  0  0  0  0  0  0  0  0  0
   -4.0220   -2.4720   -1.7730 C   0  0  0  0  0  0  0  0  0  0  0  0
   -5.2040   -2.3530   -0.8780 C   0  0  0  0  0  0  0  0  0  0  0  0
   -5.1630   -0.8690   -0.5200 C   0  0  0  0  0  0  0  0  0  0  0  0
    3.3080    1.8030    1.1740 S   0  0  0  0  0  0  0  0  0  0  0  0
    1.8990    2.6630    1.8640 C   0  0  0  0  0  0  0  0  0  0  0  0
  1  2  1  0
  2  3  1  0
  3  4  2  0
  3  5  1  0
  5  6  1  0
  5  7  2  3
  7  8  1  0
  7 21  1  0
  8  9  1  0
  9 10  2  0
  9 11  1  0
 11 12  2  0
 11 17  1  0
 12 13  1  0
 13 14  1  0
 13 15  2  0
 15 16  1  0
 15 20  1  0
 16 17  2  0
 16 18  1  0
 18 19  1  0
 19 20  1  0
 21 22  1  0
M  END
