
     RDKit          3D

 22 23  0  0  0  0  0  0  0  0999 V2000
   -2.5380   -2.6250   -0.5360 C   0  0  0  0  0  0  0  0  0  0  0  0
   -2.7080   -1.1610   -0.6320 N   0  0  0  0  0  0  0  0  0  0  0  0
   -1.7650   -0.3660   -1.3460 C   0  0  0  0  0  0  0  0  0  0  0  0
   -0.4400   -0.3060   -0.6720 C   0  0  0  0  0  0  0  0  0  0  0  0
   -0.2940   -0.9330    0.3970 O   0  0  0  0  0  0  0  0  0  0  0  0
    0.6380    0.4290   -1.2030 N   0  0  0  0  0  0  0  0  0  0  0  0
    1.9340    0.5520   -0.6530 C   0  0  0  0  0  0  0  0  0  0  0  0
    2.4370   -0.1330    0.4160 C   0  0  0  0  0  0  0  0  0  0  0  0
    3.7350    0.0730    0.8860 C   0  0  0  0  0  0  0  0  0  0  0  0
    4.5600    0.9720    0.2920 C   0  0  0  0  0  0  0  0  0  0  0  0
    6.1720    1.2280    0.8740 S   0  0  2  0  0  0  0  0  0  0  0  0
    7.2740    0.1390    0.0770 N   0  0  0  0  0  0  0  0  0  0  0  0
    6.3060    0.9570    2.3580 O   0  0  0  0  0  0  0  0  0  0  0  0
    6.5730    2.6610    0.6280 O   0  0  0  0  0  0  0  0  0  0  0  0
    4.0690    1.6720   -0.7870 C   0  0  0  0  0  0  0  0  0  0  0  0
    2.7940    1.4710   -1.2500 C   0  0  0  0  0  0  0  0  0  0  0  0
   -3.8250   -0.5740    0.0070 C   0  0  0  0  0  0  0  0  0  0  0  0
   -4.7150   -1.4070    0.6610 C   0  0  0  0  0  0  0  0  0  0  0  0
   -5.8230   -0.9560    1.3150 C   0  0  0  0  0  0  0  0  0  0  0  0
   -6.0760    0.3950    1.3290 C   0  0  0  0  0  0  0  0  0  0  0  0
   -5.2060    1.2450    0.6860 C   0  0  0  0  0  0  0  0  0  0  0  0
   -4.0820    0.7760    0.0250 C   0  0  0  0  0  0  0  0  0  0  0  0
  1  2  1  0
  2  3  1  0
  2 17  1  0
  3  4  1  0
  4  5  2  0
  4  6  1  0
  6  7  1  0
  7  8  2  0
  7 16  1  0
  8  9  1  0
  9 10  2  0
 10 11  1  0
 10 15  1  0
 11 12  1  6
 11 13  2  0
 11 14  2  0
 15 16  2  0
 17 18  2  0
 17 22  1  0
 18 19  1  0
 19 20  2  0
 20 21  1  0
 21 22  2  0
M  END
