
     RDKit          3D

 21 22  0  0  0  0  0  0  0  0999 V2000
   -5.8270   -0.0150   -0.3500 C   0  0  0  0  0  0  0  0  0  0  0  0
   -4.9330    0.6200    0.6820 C   0  0  0  0  0  0  0  0  0  0  0  0
   -3.5070    0.2420    0.5310 C   0  0  0  0  0  0  0  0  0  0  0  0
   -2.6250    1.1620   -0.0190 C   0  0  0  0  0  0  0  0  0  0  0  0
   -1.2930    0.8590   -0.1760 C   0  0  0  0  0  0  0  0  0  0  0  0
   -0.4350    1.7500   -0.7100 N   0  0  0  0  0  0  0  0  0  0  0  0
    0.8690    1.4530   -0.8650 C   0  0  0  0  0  0  0  0  0  0  0  0
    1.9190    2.5390   -1.5170 S   0  0  0  0  0  0  0  0  0  0  0  0
    1.2900    0.2400   -0.4710 N   0  0  0  0  0  0  0  0  0  0  0  0
    2.6710   -0.0690   -0.6420 C   0  0  0  0  0  0  0  0  0  0  0  0
    3.5480    0.3020    0.5270 C   0  0  0  0  0  0  0  0  0  0  0  0
    4.9510   -0.0710    0.2110 C   0  0  0  0  0  0  0  0  0  0  0  0
    5.2360   -0.6220   -0.9080 O   0  0  0  0  0  0  0  0  0  0  0  0
    6.0100    0.1450    1.0770 O   0  0  0  0  0  0  0  0  0  0  0  0
    7.3260   -0.2380    0.7060 C   0  0  0  0  0  0  0  0  0  0  0  0
    0.4650   -0.6740    0.0650 C   0  0  0  0  0  0  0  0  0  0  0  0
    0.8480   -1.8260    0.4440 O   0  0  0  0  0  0  0  0  0  0  0  0
   -0.8830   -0.3920    0.2360 C   0  0  0  0  0  0  0  0  0  0  0  0
   -1.7530   -1.3110    0.7820 C   0  0  0  0  0  0  0  0  0  0  0  0
   -3.0970   -1.0090    0.9420 C   0  0  0  0  0  0  0  0  0  0  0  0
   -3.9940   -1.9600    1.5070 N   0  0  0  0  0  0  0  0  0  0  0  0
  1  2  1  0
  2  3  1  0
  3  4  2  0
  3 20  1  0
  4  5  1  0
  5  6  1  0
  5 18  2  0
  6  7  1  0
  7  8  2  0
  7  9  1  0
  9 10  1  0
  9 16  1  0
 10 11  1  0
 11 12  1  0
 12 13  2  0
 12 14  1  0
 14 15  1  0
 16 17  2  0
 16 18  1  0
 18 19  1  0
 19 20  2  0
 20 21  1  0
M  END
