
     RDKit          3D

 22 22  0  0  0  0  0  0  0  0999 V2000
    7.7680    1.1530    0.9070 C   0  0  0  0  0  0  0  0  0  0  0  0
    6.8860    0.6220   -0.1870 C   0  0  0  0  0  0  0  0  0  0  0  0
    6.5150   -0.8180    0.1380 C   0  0  0  0  0  0  0  0  0  0  0  0
    5.5870   -1.2970   -0.9910 C   0  0  0  0  0  0  0  0  0  0  0  0
    4.4710   -0.4050   -1.1030 N   0  0  0  0  0  0  0  0  0  0  0  0
    3.4670   -0.1640   -0.1300 C   0  0  0  0  0  0  0  0  0  0  0  0
    3.5020   -0.8180    0.9180 O   0  0  0  0  0  0  0  0  0  0  0  0
    2.1980    1.0650   -0.3920 S   0  0  0  0  0  0  0  0  0  0  0  0
    0.9620    0.9650    0.8840 C   0  0  0  0  0  0  0  0  0  0  0  0
   -0.3810    0.5950    0.3530 C   0  0  0  0  0  0  0  0  0  0  0  0
   -0.5910    0.3090   -0.8470 O   0  0  0  0  0  0  0  0  0  0  0  0
   -1.4710    0.5860    1.2470 N   0  0  0  0  0  0  0  0  0  0  0  0
   -2.8020    0.3070    0.7640 N   0  0  0  0  0  0  0  0  0  0  0  0
   -3.2880    1.2760   -0.1410 C   0  0  0  0  0  0  0  0  0  0  0  0
   -2.3970    2.2660   -0.3910 O   0  0  0  0  0  0  0  0  0  0  0  0
   -4.5200    1.3930   -0.8130 C   0  0  0  0  0  0  0  0  0  0  0  0
   -5.6530    0.9120   -0.9950 C   0  0  0  0  0  0  0  0  0  0  0  0
   -6.4290   -0.2000   -0.5340 C   0  0  0  0  0  0  0  0  0  0  0  0
   -7.6950   -0.4800   -0.9610 C   0  0  0  0  0  0  0  0  0  0  0  0
   -8.2250   -1.6740   -0.3070 C   0  0  0  0  0  0  0  0  0  0  0  0
   -7.1500   -2.0780    0.5960 C   0  0  0  0  0  0  0  0  0  0  0  0
   -6.1200   -1.2330    0.4550 C   0  0  0  0  0  0  0  0  0  0  0  0
  1  2  1  0
  2  3  1  0
  3  4  1  0
  4  5  1  0
  5  6  1  0
  6  7  2  0
  6  8  1  0
  8  9  1  0
  9 10  1  0
 10 11  2  0
 10 12  1  0
 12 13  1  0
 13 14  1  0
 14 15  2  0
 14 16  1  0
 16 17  2  3
 17 18  1  0
 18 19  2  0
 18 22  1  0
 19 20  1  0
 20 21  1  0
 21 22  2  0
M  END
