
     RDKit          3D

 22 23  0  0  0  0  0  0  0  0999 V2000
   -7.3280   -0.2700   -1.0900 N   0  0  0  0  0  0  0  0  0  0  0  0
   -5.9200   -0.1590   -0.8400 C   0  0  0  0  0  0  0  0  0  0  0  0
   -5.4730    0.6100    0.2030 C   0  0  0  0  0  0  0  0  0  0  0  0
   -4.0800    0.6940    0.4160 C   0  0  0  0  0  0  0  0  0  0  0  0
   -3.1850    0.0340   -0.3820 C   0  0  0  0  0  0  0  0  0  0  0  0
   -1.8020    0.1070   -0.1550 N   0  0  0  0  0  0  0  0  0  0  0  0
   -1.1050    0.5900    0.9620 C   0  0  0  0  0  0  0  0  0  0  0  0
   -1.7710    1.0270    1.9290 O   0  0  0  0  0  0  0  0  0  0  0  0
    0.3510    0.6130    1.0660 C   0  0  0  0  0  0  0  0  0  0  0  0
    1.1680    0.1920    0.1400 C   0  0  0  0  0  0  0  0  0  0  0  0
    2.6150    0.2680    0.3630 C   0  0  0  0  0  0  0  0  0  0  0  0
    3.2530    0.7570    1.4940 C   0  0  0  0  0  0  0  0  0  0  0  0
    4.5930    0.6480    1.2920 C   0  0  0  0  0  0  0  0  0  0  0  0
    4.7560    0.0940    0.0440 C   0  0  0  0  0  0  0  0  0  0  0  0
    6.0590   -0.1780   -0.5260 C   0  0  0  0  0  0  0  0  0  0  0  0
    6.8500    1.0090   -1.2930 S   0  0  0  0  0  0  0  0  0  0  0  0
    6.6500   -1.4550   -0.4260 N   0  0  0  0  0  0  0  0  0  0  0  0
    5.9970   -2.5480    0.2420 C   0  0  0  0  0  0  0  0  0  0  0  0
    4.8630   -2.3340    0.7450 O   0  0  0  0  0  0  0  0  0  0  0  0
    3.5640   -0.1110   -0.4600 O   0  0  0  0  0  0  0  0  0  0  0  0
   -3.6620   -0.7450   -1.4410 C   0  0  0  0  0  0  0  0  0  0  0  0
   -5.0090   -0.8170   -1.6360 C   0  0  0  0  0  0  0  0  0  0  0  0
  1  2  1  0
  2  3  2  0
  2 22  1  0
  3  4  1  0
  4  5  2  0
  5  6  1  0
  5 21  1  0
  6  7  1  0
  7  8  2  0
  7  9  1  0
  9 10  2  3
 10 11  1  0
 11 12  2  0
 11 20  1  0
 12 13  1  0
 13 14  2  0
 14 15  1  0
 14 20  1  0
 15 16  2  0
 15 17  1  0
 17 18  1  0
 18 19  2  0
 21 22  2  0
M  END
