
     RDKit          3D

 22 23  0  0  0  0  0  0  0  0999 V2000
    4.3480    2.1740   -2.3020 C   0  0  0  0  0  0  0  0  0  0  0  0
    3.1660    1.7170   -1.5610 C   0  0  0  0  0  0  0  0  0  0  0  0
    1.9380    2.2760   -1.8380 C   0  0  0  0  0  0  0  0  0  0  0  0
    0.8410    1.8040   -1.1030 C   0  0  0  0  0  0  0  0  0  0  0  0
    1.0100    0.8240   -0.1530 C   0  0  0  0  0  0  0  0  0  0  0  0
    2.2580    0.2740    0.1090 C   0  0  0  0  0  0  0  0  0  0  0  0
    3.3270    0.7240   -0.5970 C   0  0  0  0  0  0  0  0  0  0  0  0
    4.6230    0.2280   -0.3710 N   0  0  0  0  0  0  0  0  0  0  0  0
    4.9580   -0.8700    0.5020 C   0  0  0  0  0  0  0  0  0  0  0  0
    4.5300   -2.2070   -0.0060 C   0  0  0  0  0  0  0  0  0  0  0  0
    4.9900   -3.5090    1.1650 S   0  0  0  0  0  0  0  0  0  0  0  0
   -0.1570    0.3700    0.5780 C   0  0  0  0  0  0  0  0  0  0  0  0
   -1.3610    0.8470    0.3780 C   0  0  0  0  0  0  0  0  0  0  0  0
   -2.4940    0.3560    1.1400 N   0  0  0  0  0  0  0  0  0  0  0  0
   -3.5890   -0.2570    0.4740 C   0  0  0  0  0  0  0  0  0  0  0  0
   -3.5430   -0.3570   -0.7710 O   0  0  0  0  0  0  0  0  0  0  0  0
   -4.7330   -0.7580    1.1750 N   0  0  0  0  0  0  0  0  0  0  0  0
   -5.7860   -1.3620    0.3810 C   0  0  0  0  0  0  0  0  0  0  0  0
   -6.9300   -1.8500    1.2090 C   0  0  0  0  0  0  0  0  0  0  0  0
   -7.5060   -0.8220    1.9180 O   0  0  0  0  0  0  0  0  0  0  0  0
   -1.5840    1.8990   -0.6250 C   0  0  0  0  0  0  0  0  0  0  0  0
   -0.4260    2.2890   -1.2960 O   0  0  0  0  0  0  0  0  0  0  0  0
  1  2  1  0
  2  3  2  0
  2  7  1  0
  3  4  1  0
  4  5  2  0
  4 22  1  0
  5  6  1  0
  5 12  1  0
  6  7  2  0
  7  8  1  0
  8  9  1  0
  9 10  1  0
 10 11  1  0
 12 13  2  0
 13 14  1  0
 13 21  1  0
 14 15  1  0
 15 16  2  0
 15 17  1  0
 17 18  1  0
 18 19  1  0
 19 20  1  0
 21 22  1  0
M  END
