
     RDKit          3D

 21 21  0  0  0  0  0  0  0  0999 V2000
   -5.3670    0.8420   -2.4290 C   0  0  0  0  0  0  0  0  0  0  0  0
   -4.1700    0.5750   -1.7410 O   0  0  0  0  0  0  0  0  0  0  0  0
   -4.1360   -0.5270   -0.8870 C   0  0  0  0  0  0  0  0  0  0  0  0
   -5.1100   -1.4390   -0.5840 C   0  0  0  0  0  0  0  0  0  0  0  0
   -4.6330   -2.3370    0.2940 N   0  0  0  0  0  0  0  0  0  0  0  0
   -3.3480   -1.9890    0.5470 C   0  0  0  0  0  0  0  0  0  0  0  0
   -3.0080   -0.8760   -0.1650 C   0  0  0  0  0  0  0  0  0  0  0  0
   -1.7590   -0.2200   -0.1620 N   0  0  0  0  0  0  0  0  0  0  0  0
   -0.6190   -0.5920    0.5840 C   0  0  0  0  0  0  0  0  0  0  0  0
   -0.6960   -1.6020    1.3270 O   0  0  0  0  0  0  0  0  0  0  0  0
    0.6110    0.1650    0.5010 N   0  0  0  0  0  0  0  0  0  0  0  0
    1.7120   -0.2270    1.2470 C   0  0  0  0  0  0  0  0  0  0  0  0
    1.5580   -1.5660    2.2120 S   0  0  0  0  0  0  0  0  0  0  0  0
    2.9650    0.3950    1.2750 N   0  0  0  0  0  0  0  0  0  0  0  0
    3.2730    1.5350    0.5240 C   0  0  0  0  0  0  0  0  0  0  0  0
    2.4770    2.1130   -0.2390 O   0  0  0  0  0  0  0  0  0  0  0  0
    4.6450    2.1450    0.6090 C   0  0  0  0  0  0  0  0  0  0  0  0
    5.7070    1.1910    1.7200 S   0  0  0  0  0  0  0  0  0  0  0  0
    5.9900   -0.4150    0.9610 C   0  0  0  0  0  0  0  0  0  0  0  0
    5.4370   -0.7550   -0.2950 N   0  0  0  0  0  0  0  0  0  0  0  0
    6.7060   -1.2270    1.6020 O   0  0  0  0  0  0  0  0  0  0  0  0
  1  2  1  0
  2  3  1  0
  3  4  2  0
  3  7  1  0
  4  5  1  0
  5  6  1  0
  6  7  2  0
  7  8  1  0
  8  9  1  0
  9 10  2  0
  9 11  1  0
 11 12  1  0
 12 13  2  0
 12 14  1  0
 14 15  1  0
 15 16  2  0
 15 17  1  0
 17 18  1  0
 18 19  1  0
 19 20  1  0
 19 21  2  0
M  END
