
     RDKit          3D

 21 22  0  0  0  0  0  0  0  0999 V2000
   -6.4470    2.1030    1.0160 C   0  0  0  0  0  0  0  0  0  0  0  0
   -6.0330    1.2500   -0.1660 C   0  0  0  0  0  0  0  0  0  0  0  0
   -6.9090    1.2050   -1.2890 N   0  0  0  0  0  0  0  0  0  0  0  0
   -6.0120    0.0840   -2.4230 S   0  0  0  0  0  0  0  0  0  0  0  0
   -4.5850   -0.1750   -1.2440 C   0  0  0  0  0  0  0  0  0  0  0  0
   -3.4500   -0.9100   -1.3400 C   0  0  0  0  0  0  0  0  0  0  0  0
   -2.6200   -0.8770   -0.2920 C   0  0  0  0  0  0  0  0  0  0  0  0
   -1.3210   -1.5340   -0.0360 C   0  0  0  0  0  0  0  0  0  0  0  0
   -0.2090   -0.7270   -0.5020 N   0  0  0  0  0  0  0  0  0  0  0  0
    1.1400   -1.1270   -0.3740 C   0  0  0  0  0  0  0  0  0  0  0  0
    1.3480   -2.2410    0.1740 O   0  0  0  0  0  0  0  0  0  0  0  0
    2.2640   -0.3880   -0.8050 N   0  0  0  0  0  0  0  0  0  0  0  0
    3.5760   -0.8730   -0.6330 N   0  0  0  0  0  0  0  0  0  0  0  0
    4.6780   -0.0190   -0.4450 C   0  0  0  0  0  0  0  0  0  0  0  0
    4.4900    1.2100   -0.4310 O   0  0  0  0  0  0  0  0  0  0  0  0
    5.9870   -0.5990   -0.2760 N   0  0  0  0  0  0  0  0  0  0  0  0
    7.0980    0.2110   -0.0880 N   0  0  0  0  0  0  0  0  0  0  0  0
    7.1360    1.1230    0.9990 C   0  0  0  0  0  0  0  0  0  0  0  0
    6.2050    1.2490    1.8260 O   0  0  0  0  0  0  0  0  0  0  0  0
   -3.4610    0.2180    0.8570 S   0  0  0  0  0  0  0  0  0  0  0  0
   -4.9420    0.5120   -0.3210 C   0  0  0  0  0  0  0  0  0  0  0  0
  1  2  1  0
  2  3  2  0
  2 21  1  0
  3  4  1  0
  4  5  1  0
  5  6  1  0
  5 21  2  0
  6  7  2  0
  7  8  1  0
  7 20  1  0
  8  9  1  0
  9 10  1  0
 10 11  2  0
 10 12  1  0
 12 13  1  0
 13 14  1  0
 14 15  2  0
 14 16  1  0
 16 17  1  0
 17 18  1  0
 18 19  2  0
 20 21  1  0
M  END
