
     RDKit          3D

 20 21  0  0  0  0  0  0  0  0999 V2000
   -4.1300   -3.1120    0.2500 N   0  0  0  0  0  0  0  0  0  0  0  0
   -3.6780   -1.7770    0.2240 C   0  0  0  0  0  0  0  0  0  0  0  0
   -4.7870   -0.5930    0.1840 S   0  0  0  0  0  0  0  0  0  0  0  0
   -2.2860   -1.5300    0.2330 N   0  0  0  0  0  0  0  0  0  0  0  0
   -1.7400   -0.2070    0.2080 C   0  0  0  0  0  0  0  0  0  0  0  0
   -2.5580    0.7130    0.1780 O   0  0  0  0  0  0  0  0  0  0  0  0
   -0.2760    0.0120    0.2180 C   0  0  0  0  0  0  0  0  0  0  0  0
    0.6170   -0.9800    0.2510 N   0  0  0  0  0  0  0  0  0  0  0  0
    1.7660   -0.9580    0.2620 C   0  0  0  0  0  0  0  0  0  0  0  0
    2.8890   -1.9570    0.2980 C   0  0  0  0  0  0  0  0  0  0  0  0
    3.2990   -2.3420   -1.1140 C   0  0  0  0  0  0  0  0  0  0  0  0
    4.3440   -3.2700   -0.9700 O   0  0  0  0  0  0  0  0  0  0  0  0
    2.1270    0.8460    0.2240 S   0  0  0  0  0  0  0  0  0  0  0  0
    0.2610    1.2570    0.1950 C   0  0  0  0  0  0  0  0  0  0  0  0
   -0.1450    2.5890    0.1590 C   0  0  0  0  0  0  0  0  0  0  0  0
    0.5280    3.7820    0.1380 C   0  0  0  0  0  0  0  0  0  0  0  0
   -0.0760    4.9160    0.1050 N   0  0  0  0  0  0  0  0  0  0  0  0
   -1.4130    4.9920    0.0890 C   0  0  0  0  0  0  0  0  0  0  0  0
   -2.2450    5.9640    0.0580 O   0  0  0  0  0  0  0  0  0  0  0  0
   -1.8840    3.2230    0.1260 S   0  0  0  0  0  0  0  0  0  0  0  0
  1  2  1  0
  2  3  2  0
  2  4  1  0
  4  5  1  0
  5  6  2  0
  5  7  1  0
  7  8  1  0
  7 14  2  0
  8  9  2  0
  9 10  1  0
  9 13  1  0
 10 11  1  0
 11 12  1  0
 13 14  1  0
 14 15  1  0
 15 16  2  0
 15 20  1  0
 16 17  1  0
 17 18  1  0
 18 19  2  0
 18 20  1  0
M  END
