
     RDKit          3D

 21 22  0  0  0  0  0  0  0  0999 V2000
    7.3140   -1.3800    0.6440 C   0  0  0  0  0  0  0  0  0  0  0  0
    5.9080   -0.9990    0.3750 C   0  0  0  0  0  0  0  0  0  0  0  0
    5.2600   -0.0580    1.1820 C   0  0  0  0  0  0  0  0  0  0  0  0
    3.9390    0.2890    0.9150 C   0  0  0  0  0  0  0  0  0  0  0  0
    2.7960    1.3840    1.6500 S   0  0  0  0  0  0  0  0  0  0  0  0
    1.4300    1.0130    0.4900 C   0  0  0  0  0  0  0  0  0  0  0  0
    0.1430    1.6300    0.5690 N   0  0  0  0  0  0  0  0  0  0  0  0
   -0.8080    1.2500   -0.3870 C   0  0  0  0  0  0  0  0  0  0  0  0
   -0.4850    0.1530   -1.5520 S   0  0  0  0  0  0  0  0  0  0  0  0
   -2.1130    1.8170   -0.3770 N   0  0  0  0  0  0  0  0  0  0  0  0
   -3.2810    1.3480   -1.5540 S   0  0  1  0  0  0  0  0  0  0  0  0
   -4.2260    2.5180   -1.7470 O   0  0  0  0  0  0  0  0  0  0  0  0
   -2.6360    1.0100   -2.8740 O   0  0  0  0  0  0  0  0  0  0  0  0
   -4.2190    0.0130   -1.0480 N   0  0  0  0  0  0  0  0  0  0  0  0
   -5.3960    0.4720   -0.3420 C   0  0  0  0  0  0  0  0  0  0  0  0
   -6.2420   -0.6920    0.1160 C   0  0  0  0  0  0  0  0  0  0  0  0
   -7.3520   -0.2280    0.7830 O   0  0  0  0  0  0  0  0  0  0  0  0
    1.9900    0.1630   -0.2520 N   0  0  0  0  0  0  0  0  0  0  0  0
    3.2100   -0.2420   -0.1090 C   0  0  0  0  0  0  0  0  0  0  0  0
    3.9010   -1.1840   -0.8930 C   0  0  0  0  0  0  0  0  0  0  0  0
    5.1550   -1.4940   -0.6190 N   0  0  0  0  0  0  0  0  0  0  0  0
  1  2  1  0
  2  3  2  0
  2 21  1  0
  3  4  1  0
  4  5  1  0
  4 19  2  0
  5  6  1  0
  6  7  1  0
  6 18  2  0
  7  8  1  0
  8  9  2  0
  8 10  1  0
 11 10  1  1
 11 12  2  0
 11 13  2  0
 11 14  1  0
 14 15  1  0
 15 16  1  0
 16 17  1  0
 18 19  1  0
 19 20  1  0
 20 21  2  0
M  END
