
     RDKit          3D

 21 22  0  0  0  0  0  0  0  0999 V2000
   -6.4910    1.5520   -0.6150 C   0  0  0  0  0  0  0  0  0  0  0  0
   -5.2620    0.8030   -0.1910 C   0  0  0  0  0  0  0  0  0  0  0  0
   -4.1940    1.2830    0.5230 C   0  0  0  0  0  0  0  0  0  0  0  0
   -3.2820    0.2590    0.6950 C   0  0  0  0  0  0  0  0  0  0  0  0
   -1.7370    0.3480    1.5520 S   0  0  2  0  0  0  0  0  0  0  0  0
   -1.4680   -0.9050    2.3150 O   0  0  0  0  0  0  0  0  0  0  0  0
   -1.9120    1.4770    2.5630 O   0  0  0  0  0  0  0  0  0  0  0  0
   -0.4490    0.7570    0.4920 N   0  0  0  0  0  0  0  0  0  0  0  0
    0.1880   -0.4070   -0.0190 N   0  0  0  0  0  0  0  0  0  0  0  0
    1.5160   -0.7210    0.3650 C   0  0  0  0  0  0  0  0  0  0  0  0
    2.0950    0.0600    1.1660 O   0  0  0  0  0  0  0  0  0  0  0  0
    2.2390   -1.8620   -0.0960 N   0  0  0  0  0  0  0  0  0  0  0  0
    3.6110   -2.0900    0.3660 C   0  0  0  0  0  0  0  0  0  0  0  0
    4.5300   -1.1270   -0.3520 C   0  0  0  0  0  0  0  0  0  0  0  0
    5.1780   -1.5390   -1.5100 C   0  0  0  0  0  0  0  0  0  0  0  0
    6.1010   -0.0870   -1.9600 S   0  0  0  0  0  0  0  0  0  0  0  0
    5.4710    0.9040   -0.4850 C   0  0  0  0  0  0  0  0  0  0  0  0
    5.9190    2.2570   -0.3310 N   0  0  0  0  0  0  0  0  0  0  0  0
    4.7790    0.0980    0.0170 N   0  0  0  0  0  0  0  0  0  0  0  0
   -3.8080   -0.8460    0.0790 C   0  0  0  0  0  0  0  0  0  0  0  0
   -5.0000   -0.5010   -0.4490 N   0  0  0  0  0  0  0  0  0  0  0  0
  1  2  1  0
  2  3  2  0
  2 21  1  0
  3  4  1  0
  4  5  1  0
  4 20  2  0
  5  6  2  0
  5  7  2  0
  5  8  1  6
  8  9  1  0
  9 10  1  0
 10 11  2  0
 10 12  1  0
 12 13  1  0
 13 14  1  0
 14 15  2  0
 14 19  1  0
 15 16  1  0
 16 17  1  0
 17 18  1  0
 17 19  2  0
 20 21  1  0
M  END
