
     RDKit          3D

 21 22  0  0  0  0  0  0  0  0999 V2000
   -0.1070   -0.6040   -0.4420 O   0  0  0  0  0  0  0  0  0  0  0  0
   -0.6170    0.3400    0.1820 C   0  0  0  0  0  0  0  0  0  0  0  0
   -2.0420    0.4170    0.2810 N   0  0  0  0  0  0  0  0  0  0  0  0
   -2.8450   -0.6190   -0.3570 C   0  0  0  0  0  0  0  0  0  0  0  0
   -4.3050   -0.3590   -0.1390 C   0  0  2  0  0  0  0  0  0  0  0  0
   -5.2310   -1.3820   -0.7650 C   0  0  0  0  0  0  0  0  0  0  0  0
   -5.0580   -1.4430   -2.1570 O   0  0  0  0  0  0  0  0  0  0  0  0
   -4.8330    1.0160   -0.0090 C   0  0  0  0  0  0  0  0  0  0  0  0
   -4.7520    0.1900    1.2010 C   0  0  0  0  0  0  0  0  0  0  0  0
    0.2320    1.3090    0.7750 N   0  0  0  0  0  0  0  0  0  0  0  0
    1.6360    1.3240    0.7360 C   0  0  0  0  0  0  0  0  0  0  0  0
    2.3710    2.5860    1.5220 S   0  0  0  0  0  0  0  0  0  0  0  0
    2.4740    0.3900    0.1080 N   0  0  0  0  0  0  0  0  0  0  0  0
    3.8900    0.5420    0.1560 C   0  0  0  0  0  0  0  0  0  0  0  0
    4.3950    1.5160    0.7650 O   0  0  0  0  0  0  0  0  0  0  0  0
    4.7840   -0.3590   -0.4530 N   0  0  0  0  0  0  0  0  0  0  0  0
    6.2230   -0.1330   -0.3580 C   0  0  0  0  0  0  0  0  0  0  0  0
    7.0120    0.5800    0.0730 N   0  0  0  0  0  0  0  0  0  0  0  0
    8.3260    0.4370   -0.0650 N   0  0  0  0  0  0  0  0  0  0  0  0
    8.8250   -0.4070   -0.6240 C   0  0  0  0  0  0  0  0  0  0  0  0
    7.3340   -1.4040   -1.2130 S   0  0  0  0  0  0  0  0  0  0  0  0
  1  2  2  0
  2  3  1  0
  2 10  1  0
  3  4  1  0
  5  4  1  1
  5  6  1  0
  5  8  1  0
  5  9  1  0
  6  7  1  0
  8  9  1  0
 10 11  1  0
 11 12  2  0
 11 13  1  0
 13 14  1  0
 14 15  2  0
 14 16  1  0
 16 17  1  0
 17 18  2  0
 17 21  1  0
 18 19  1  0
 19 20  2  0
 20 21  1  0
M  END
