
     RDKit          3D

 21 22  0  0  0  0  0  0  0  0999 V2000
   -0.3670   -0.8590    0.9200 O   0  0  0  0  0  0  0  0  0  0  0  0
   -0.8090    0.2640    0.4820 C   0  0  0  0  0  0  0  0  0  0  0  0
   -2.2400    0.5050    0.7650 C   0  0  0  0  0  0  0  0  0  0  0  0
   -3.1290   -0.2570   -0.6480 S   0  0  0  0  0  0  0  0  0  0  0  0
   -4.8970   -0.2420   -0.4060 C   0  0  0  0  0  0  0  0  0  0  0  0
   -5.5940   -1.2650    0.1760 N   0  0  0  0  0  0  0  0  0  0  0  0
   -6.8970   -0.9440    0.1900 C   0  0  0  0  0  0  0  0  0  0  0  0
   -8.1380   -1.8520    0.7870 S   0  0  0  0  0  0  0  0  0  0  0  0
   -7.0410    0.2670   -0.3730 N   0  0  0  0  0  0  0  0  0  0  0  0
   -5.8210    0.6870   -0.7330 N   0  0  0  0  0  0  0  0  0  0  0  0
    0.0670    1.1310   -0.2090 N   0  0  0  0  0  0  0  0  0  0  0  0
    1.3840    0.6860   -0.3830 N   0  0  0  0  0  0  0  0  0  0  0  0
    2.3550    0.6400    0.6770 C   0  0  0  0  0  0  0  0  0  0  0  0
    2.0220    1.0420    1.8210 O   0  0  0  0  0  0  0  0  0  0  0  0
    3.6870    0.1330    0.4020 C   0  0  0  0  0  0  0  0  0  0  0  0
    4.8100    0.6310    0.9810 C   0  0  0  0  0  0  0  0  0  0  0  0
    6.0160    0.0140    0.6350 C   0  0  0  0  0  0  0  0  0  0  0  0
    6.1150   -1.0130   -0.2130 N   0  0  0  0  0  0  0  0  0  0  0  0
    5.0150   -1.5160   -0.7920 C   0  0  0  0  0  0  0  0  0  0  0  0
    5.0540   -2.4830   -1.5960 O   0  0  0  0  0  0  0  0  0  0  0  0
    3.8150   -0.9410   -0.4810 C   0  0  0  0  0  0  0  0  0  0  0  0
  1  2  2  0
  2  3  1  0
  2 11  1  0
  3  4  1  0
  4  5  1  0
  5  6  2  0
  5 10  1  0
  6  7  1  0
  7  8  2  0
  7  9  1  0
  9 10  1  0
 11 12  1  0
 12 13  1  0
 13 14  2  0
 13 15  1  0
 15 16  1  0
 15 21  2  0
 16 17  2  0
 17 18  1  0
 18 19  1  0
 19 20  2  0
 19 21  1  0
M  END
