
     RDKit          3D

 21 22  0  0  0  0  0  0  0  0999 V2000
    7.1450    0.4660   -1.7830 N   0  0  0  0  0  0  0  0  0  0  0  0
    5.9560   -0.0950   -1.1870 C   0  0  0  0  0  0  0  0  0  0  0  0
    4.9410   -0.5590   -1.4760 N   0  0  0  0  0  0  0  0  0  0  0  0
    4.0400   -0.9920   -0.6390 N   0  0  0  0  0  0  0  0  0  0  0  0
    4.1090   -0.9820    0.5080 C   0  0  0  0  0  0  0  0  0  0  0  0
    3.2100   -1.4280    2.0170 S   0  0  0  0  0  0  0  0  0  0  0  0
    2.1700   -0.0800    2.5920 C   0  0  0  0  0  0  0  0  0  0  0  0
    1.0540    0.2240    1.6330 C   0  0  0  0  0  0  0  0  0  0  0  0
    1.2210    1.0970    0.7490 O   0  0  0  0  0  0  0  0  0  0  0  0
   -0.1650   -0.4730    1.7370 N   0  0  0  0  0  0  0  0  0  0  0  0
   -1.2990   -0.2780    0.8990 C   0  0  0  0  0  0  0  0  0  0  0  0
   -2.3340   -1.2310    0.9510 C   0  0  0  0  0  0  0  0  0  0  0  0
   -3.4540   -1.0970    0.1850 C   0  0  0  0  0  0  0  0  0  0  0  0
   -3.6080   -0.0200   -0.6670 C   0  0  0  0  0  0  0  0  0  0  0  0
   -5.0650    0.1110   -1.6320 S   0  0  1  0  0  0  0  0  0  0  0  0
   -6.2770    0.9810   -0.7700 N   0  0  0  0  0  0  0  0  0  0  0  0
   -4.7510    0.9100   -2.8840 O   0  0  0  0  0  0  0  0  0  0  0  0
   -5.5550   -1.2420   -2.0160 O   0  0  0  0  0  0  0  0  0  0  0  0
   -2.6260    0.9180   -0.7400 C   0  0  0  0  0  0  0  0  0  0  0  0
   -1.4850    0.7730    0.0460 C   0  0  0  0  0  0  0  0  0  0  0  0
    5.8470   -0.1820    0.7060 S   0  0  0  0  0  0  0  0  0  0  0  0
  1  2  1  0
  2  3  2  0
  2 21  1  0
  3  4  1  0
  4  5  2  0
  5  6  1  0
  5 21  1  0
  6  7  1  0
  7  8  1  0
  8  9  2  0
  8 10  1  0
 10 11  1  0
 11 12  2  0
 11 20  1  0
 12 13  1  0
 13 14  2  0
 14 15  1  0
 14 19  1  0
 15 16  1  1
 15 17  2  0
 15 18  2  0
 19 20  2  0
M  END
