
     RDKit          3D

 21 22  0  0  0  0  0  0  0  0999 V2000
    5.8470    1.1470    1.0630 N   0  0  0  0  0  0  0  0  0  0  0  0
    4.8940    0.1380    0.7770 C   0  0  0  0  0  0  0  0  0  0  0  0
    5.3150   -0.9800    0.4130 O   0  0  0  0  0  0  0  0  0  0  0  0
    3.5200    0.4500    0.9180 N   0  0  0  0  0  0  0  0  0  0  0  0
    2.4990   -0.5140    0.6460 C   0  0  0  0  0  0  0  0  0  0  0  0
    2.5490   -0.9940   -0.7950 C   0  0  0  0  0  0  0  0  0  0  0  0
    1.5510   -1.9490   -1.1030 N   0  0  0  0  0  0  0  0  0  0  0  0
    0.1590   -1.5230   -0.9460 C   0  0  0  0  0  0  0  0  0  0  0  0
   -0.3670   -0.4690   -0.5890 N   0  0  0  0  0  0  0  0  0  0  0  0
   -1.6620   -0.2630   -0.5060 C   0  0  0  0  0  0  0  0  0  0  0  0
   -2.2490    1.0550   -0.0240 C   0  0  0  0  0  0  0  0  0  0  0  0
   -1.5960    2.1760    0.3000 C   0  0  0  0  0  0  0  0  0  0  0  0
   -2.3130    3.2510    0.7100 C   0  0  0  0  0  0  0  0  0  0  0  0
   -3.6380    3.1540    0.7740 C   0  0  0  0  0  0  0  0  0  0  0  0
   -3.9100    1.4280    0.2200 S   0  0  0  0  0  0  0  0  0  0  0  0
   -2.4850   -1.2760   -0.8340 C   0  0  0  0  0  0  0  0  0  0  0  0
   -4.1720   -1.5430   -0.9340 S   0  0  1  0  0  0  0  0  0  0  0  0
   -4.8730   -2.0120    0.5610 N   0  0  0  0  0  0  0  0  0  0  0  0
   -4.8760   -0.4070   -1.5920 O   0  0  0  0  0  0  0  0  0  0  0  0
   -4.3910   -2.7380   -1.8720 O   0  0  0  0  0  0  0  0  0  0  0  0
   -1.2250   -2.5830   -1.2820 S   0  0  0  0  0  0  0  0  0  0  0  0
  1  2  1  0
  2  3  2  0
  2  4  1  0
  4  5  1  0
  5  6  1  0
  6  7  1  0
  7  8  1  0
  8  9  2  0
  8 21  1  0
  9 10  1  0
 10 11  1  0
 10 16  2  0
 11 12  2  0
 11 15  1  0
 12 13  1  0
 13 14  2  0
 14 15  1  0
 16 17  1  0
 16 21  1  0
 17 18  1  1
 17 19  2  0
 17 20  2  0
M  END
