
     RDKit          3D

 12 12  0  0  0  0  0  0  0  0999 V2000
    3.2530    0.5510    0.6360 C   0  0  0  0  0  0  0  0  0  0  0  0
    2.4610   -0.4940    1.2040 O   0  0  0  0  0  0  0  0  0  0  0  0
    1.2540   -0.8980    0.5850 C   0  0  0  0  0  0  0  0  0  0  0  0
    0.8840   -0.4190   -0.4970 N   0  0  0  0  0  0  0  0  0  0  0  0
   -0.3210   -0.8290   -1.1040 C   0  0  2  0  0  0  0  0  0  0  0  0
   -1.2530    0.3450   -1.3060 C   0  0  2  0  0  0  0  0  0  0  0  0
   -0.6090    1.2700   -2.1310 O   0  0  0  0  0  0  0  0  0  0  0  0
   -1.6880    0.9630   -0.0320 C   0  0  0  0  0  0  0  0  0  0  0  0
   -2.3860    0.2570    0.9840 N   0  0  0  0  0  0  0  0  0  0  0  0
   -1.4390    2.1410    0.1610 O   0  0  0  0  0  0  0  0  0  0  0  0
   -0.9560   -2.0070    0.1270 S   0  0  0  0  0  0  0  0  0  0  0  0
    0.4380   -1.8690    1.1980 N   0  0  0  0  0  0  0  0  0  0  0  0
  1  2  1  0
  2  3  1  0
  3  4  2  0
  3 12  1  0
  4  5  1  0
  5  6  1  0
  5 11  1  1
  6  7  1  6
  6  8  1  0
  8  9  1  0
  8 10  2  0
 11 12  1  0
M  CHG  1   9   1
M  END
