
     RDKit          3D

 12 12  0  0  0  0  0  0  0  0999 V2000
    2.7540    1.1310    0.4460 N   0  0  0  0  0  0  0  0  0  0  0  0
    1.4770    0.8570    0.0080 N   0  0  0  0  0  0  0  0  0  0  0  0
    0.7710   -0.1490    0.3250 C   0  0  0  0  0  0  0  0  0  0  0  0
    1.1690   -1.1610    1.1820 O   0  0  0  0  0  0  0  0  0  0  0  0
    0.2440   -2.1810    1.1860 C   0  0  0  0  0  0  0  0  0  0  0  0
    0.2510   -3.2730    1.8370 O   0  0  0  0  0  0  0  0  0  0  0  0
   -0.8010   -1.8270    0.3000 N   0  0  0  0  0  0  0  0  0  0  0  0
   -0.5800   -0.4640   -0.1230 C   0  0  2  0  0  0  0  0  0  0  0  0
   -0.6220   -0.4180   -1.6350 C   0  0  0  0  0  0  0  0  0  0  0  0
   -0.4170    0.8620   -2.1150 O   0  0  0  0  0  0  0  0  0  0  0  0
   -1.6440    0.4310    0.4510 C   0  0  0  0  0  0  0  0  0  0  0  0
   -1.4260    2.1540    0.0460 S   0  0  0  0  0  0  0  0  0  0  0  0
  1  2  1  0
  2  3  2  3
  3  4  1  0
  3  8  1  0
  4  5  1  0
  5  6  2  0
  5  7  1  0
  7  8  1  0
  8  9  1  6
  8 11  1  0
  9 10  1  0
 11 12  1  0
M  CHG  1   1   1
M  END
