
     RDKit          3D

 12 12  0  0  0  0  0  0  0  0999 V2000
   -3.6130    0.0580   -0.3010 N   0  0  0  0  0  0  0  0  0  0  0  0
   -2.4900   -0.6060    0.3010 C   0  0  0  0  0  0  0  0  0  0  0  0
   -1.2260    0.0130   -0.1580 C   0  0  0  0  0  0  0  0  0  0  0  0
   -1.2650    0.9670   -0.9540 O   0  0  0  0  0  0  0  0  0  0  0  0
    0.0230   -0.4320    0.2670 O   0  0  0  0  0  0  0  0  0  0  0  0
    1.1780    0.1940   -0.2030 C   0  0  2  0  0  0  0  0  0  0  0  0
    2.0440   -0.8080   -0.7960 N   0  0  0  0  0  0  0  0  0  0  0  0
    3.3700   -0.3070   -0.6470 C   0  0  0  0  0  0  0  0  0  0  0  0
    4.6670   -0.7710   -1.5210 S   0  0  0  0  0  0  0  0  0  0  0  0
    3.3680    0.6740    0.4020 N   0  0  0  0  0  0  0  0  0  0  0  0
    2.0290    0.7540    0.8790 C   0  0  0  0  0  0  0  0  0  0  0  0
    1.6440    1.2110    1.9980 O   0  0  0  0  0  0  0  0  0  0  0  0
  1  2  1  0
  2  3  1  0
  3  4  2  0
  3  5  1  0
  6  5  1  1
  6  7  1  0
  6 11  1  0
  7  8  1  0
  8  9  2  0
  8 10  1  0
 10 11  1  0
 11 12  2  0
M  CHG  1   1   1
M  END
