
     RDKit          3D

 12 12  0  0  0  0  0  0  0  0999 V2000
    3.9150   -0.8580   -0.7650 N   0  0  0  0  0  0  0  0  0  0  0  0
    2.8950    0.0230   -0.3000 C   0  0  0  0  0  0  0  0  0  0  0  0
    3.2130    1.6140   -0.2730 S   0  0  0  0  0  0  0  0  0  0  0  0
    1.6240   -0.5090    0.1300 C   0  0  0  0  0  0  0  0  0  0  0  0
    1.3750   -1.8730    0.0970 O   0  0  0  0  0  0  0  0  0  0  0  0
    0.6980    0.2840    0.5510 N   0  0  0  0  0  0  0  0  0  0  0  0
   -0.5870   -0.2120    0.9890 C   0  0  2  0  0  0  0  0  0  0  0  0
   -1.3760   -0.7310   -0.1990 C   0  0  0  0  0  0  0  0  0  0  0  0
   -2.7170   -0.3460   -0.1330 O   0  0  0  0  0  0  0  0  0  0  0  0
   -2.8680    0.9910   -0.1350 N   0  0  0  0  0  0  0  0  0  0  0  0
   -1.7760    1.6690    0.5320 C   0  0  0  0  0  0  0  0  0  0  0  0
   -1.3250    0.8180    1.5540 O   0  0  0  0  0  0  0  0  0  0  0  0
  1  2  1  0
  2  3  2  0
  2  4  1  0
  4  5  1  0
  4  6  2  3
  7  6  1  6
  7  8  1  0
  7 12  1  0
  8  9  1  0
  9 10  1  0
 10 11  1  0
 11 12  1  0
M  CHG  1  10   1
M  END
