
     RDKit          3D

 12 12  0  0  0  0  0  0  0  0999 V2000
    0.8230    1.2410   -0.7620 C   0  0  0  0  0  0  0  0  0  0  0  0
    0.5100    0.0080    0.0390 C   0  0  2  0  0  0  0  0  0  0  0  0
    1.6610   -0.1550    1.0410 C   0  0  0  0  0  0  0  0  0  0  0  0
    2.8750   -0.2020    0.3590 O   0  0  0  0  0  0  0  0  0  0  0  0
    0.4830   -1.1130   -0.8970 N   0  0  0  0  0  0  0  0  0  0  0  0
   -0.7380   -1.0050   -1.6210 C   0  0  0  0  0  0  0  0  0  0  0  0
   -0.9110   -1.8190   -2.5700 O   0  0  0  0  0  0  0  0  0  0  0  0
   -1.7430   -0.0570   -1.3410 N   0  0  0  0  0  0  0  0  0  0  0  0
   -1.7920    0.6630   -0.1240 N   0  0  0  0  0  0  0  0  0  0  0  0
   -0.8000    0.0470    0.7410 C   0  0  2  0  0  0  0  0  0  0  0  0
   -0.7490    0.7730    2.3760 S   0  0  0  0  0  0  0  0  0  0  0  0
   -2.3420    0.7320    3.0290 O   0  0  0  0  0  0  0  0  0  0  0  0
  2  1  1  6
  2  3  1  0
  2  5  1  0
  2 10  1  0
  3  4  1  0
  5  6  1  0
  6  7  2  0
  6  8  1  0
  8  9  1  0
  9 10  1  0
 10 11  1  1
 11 12  1  0
M  CHG  1   5   1
M  END
