
     RDKit          3D

 11 11  0  0  0  0  0  0  0  0999 V2000
    4.0210    0.3900    0.4250 C   0  0  0  0  0  0  0  0  0  0  0  0
    2.7440   -0.2380    0.4730 O   0  0  0  0  0  0  0  0  0  0  0  0
    1.7090    0.1130   -0.3660 C   0  0  0  0  0  0  0  0  0  0  0  0
    1.8640    1.0220   -1.2210 O   0  0  0  0  0  0  0  0  0  0  0  0
    0.4210   -0.5680   -0.2690 C   0  0  1  0  0  0  0  0  0  0  0  0
    0.4700   -1.5590    0.7650 N   0  0  0  0  0  0  0  0  0  0  0  0
   -0.6920    0.3870    0.0370 C   0  0  2  0  0  0  0  0  0  0  0  0
   -2.0130   -0.3810    0.1260 C   0  0  0  0  0  0  0  0  0  0  0  0
   -3.0540    0.6150   -0.1340 N   0  0  0  0  0  0  0  0  0  0  0  0
   -2.8580    1.0600   -1.4480 N   0  0  0  0  0  0  0  0  0  0  0  0
   -1.1080    1.4270   -1.4210 S   0  0  0  0  0  0  0  0  0  0  0  0
  1  2  1  0
  2  3  1  0
  3  4  2  0
  3  5  1  0
  5  6  1  1
  5  7  1  0
  7  8  1  6
  7 11  1  0
  8  9  1  0
  9 10  1  0
 10 11  1  0
M  CHG  1   9   1
M  END
