
     RDKit          3D

 12 12  0  0  0  0  0  0  0  0999 V2000
   -1.9280   -0.1960   -2.4640 O   0  0  0  0  0  0  0  0  0  0  0  0
   -2.0440   -0.2400   -1.2070 C   0  0  0  0  0  0  0  0  0  0  0  0
   -2.6660    0.7700   -0.4180 N   0  0  0  0  0  0  0  0  0  0  0  0
   -2.7730    0.2320    0.8670 N   0  0  0  0  0  0  0  0  0  0  0  0
   -1.5850   -0.5890    0.9460 C   0  0  2  0  0  0  0  0  0  0  0  0
   -0.3890    0.2640    0.9660 C   0  0  0  0  0  0  0  0  0  0  0  0
   -0.4990    1.4610    0.9180 O   0  0  0  0  0  0  0  0  0  0  0  0
    0.9480   -0.2830    1.0420 N   0  0  0  0  0  0  0  0  0  0  0  0
    1.4160   -0.4690   -0.2970 C   0  0  0  0  0  0  0  0  0  0  0  0
    2.8860   -0.1530   -0.4590 C   0  0  0  0  0  0  0  0  0  0  0  0
    3.2460    1.5660   -0.0200 S   0  0  0  0  0  0  0  0  0  0  0  0
   -1.6140   -1.2390   -0.3300 O   0  0  0  0  0  0  0  0  0  0  0  0
  1  2  2  0
  2  3  1  0
  2 12  1  0
  3  4  1  0
  4  5  1  0
  5  6  1  6
  5 12  1  0
  6  7  2  0
  6  8  1  0
  8  9  1  0
  9 10  1  0
 10 11  1  0
M  CHG  1   8   1
M  END
