
     RDKit          3D

 10 11  0  0  0  0  0  0  0  0999 V2000
    3.1100   -0.1830   -0.1150 N   0  0  0  0  0  0  0  0  0  0  0  0
    1.7210    0.1290   -0.1730 C   0  0  0  0  0  0  0  0  0  0  0  0
    0.8000   -0.8600    0.1020 C   0  0  0  0  0  0  0  0  0  0  0  0
   -0.5440   -0.5290    0.0380 C   0  0  0  0  0  0  0  0  0  0  0  0
   -0.9720    0.7400   -0.2860 C   0  0  0  0  0  0  0  0  0  0  0  0
    0.0020    1.6980   -0.5530 C   0  0  0  0  0  0  0  0  0  0  0  0
    1.2870    1.3580   -0.4860 N   0  0  0  0  0  0  0  0  0  0  0  0
   -2.3580    0.8130   -0.2820 O   0  0  0  0  0  0  0  0  0  0  0  0
   -2.8020   -0.5400   -0.2680 C   0  0  0  0  0  0  0  0  0  0  0  0
   -1.6920   -1.2790    0.2530 O   0  0  0  0  0  0  0  0  0  0  0  0
  1  2  1  0
  2  3  2  0
  2  7  1  0
  3  4  1  0
  4  5  2  0
  4 10  1  0
  5  6  1  0
  5  8  1  0
  6  7  2  0
  8  9  1  0
  9 10  1  0
M  END
