
     RDKit          3D

 10 10  0  0  0  0  0  0  0  0999 V2000
    2.7090   -1.0420    0.7350 N   0  0  0  0  0  0  0  0  0  0  0  0
    1.9460    0.3750    0.1610 S   0  0  2  0  0  0  0  0  0  0  0  0
    2.3800    0.6450   -1.2700 O   0  0  0  0  0  0  0  0  0  0  0  0
    2.3720    1.6070    0.9460 O   0  0  0  0  0  0  0  0  0  0  0  0
    0.2050    0.2500    0.1450 C   0  0  0  0  0  0  0  0  0  0  0  0
   -0.4930    0.6360    1.2630 C   0  0  0  0  0  0  0  0  0  0  0  0
   -1.8780    0.5400    1.2600 C   0  0  0  0  0  0  0  0  0  0  0  0
   -2.5120    0.0590    0.1320 C   0  0  0  0  0  0  0  0  0  0  0  0
   -1.7980   -0.3290   -0.9970 C   0  0  0  0  0  0  0  0  0  0  0  0
   -0.4250   -0.2300   -0.9830 C   0  0  0  0  0  0  0  0  0  0  0  0
  2  1  1  1
  2  3  2  0
  2  4  2  0
  2  5  1  0
  5  6  2  0
  5 10  1  0
  6  7  1  0
  7  8  2  0
  8  9  1  0
  9 10  2  0
M  END
