
     RDKit          3D

 10 10  0  0  0  0  0  0  0  0999 V2000
    2.9620    0.0040    1.0350 O   0  0  0  0  0  0  0  0  0  0  0  0
    2.7200    0.5120   -0.2410 C   0  0  0  0  0  0  0  0  0  0  0  0
    1.3630    1.1000   -0.3810 C   0  0  0  0  0  0  0  0  0  0  0  0
    0.2880    0.0710   -0.1110 C   0  0  0  0  0  0  0  0  0  0  0  0
    0.6400   -1.2260    0.2160 C   0  0  0  0  0  0  0  0  0  0  0  0
   -1.0020   -2.0500    0.4390 S   0  0  0  0  0  0  0  0  0  0  0  0
   -1.8970   -0.4310    0.0340 C   0  0  0  0  0  0  0  0  0  0  0  0
   -3.4310   -0.4950    0.0630 C   0  0  0  0  0  0  0  0  0  0  0  0
   -3.9040    0.7730   -0.2570 O   0  0  0  0  0  0  0  0  0  0  0  0
   -1.0150    0.2550   -0.1480 N   0  0  0  0  0  0  0  0  0  0  0  0
  1  2  1  0
  2  3  1  0
  3  4  1  0
  4  5  2  0
  4 10  1  0
  5  6  1  0
  6  7  1  0
  7  8  1  0
  7 10  2  0
  8  9  1  0
M  END
