
     RDKit          3D

 10 10  0  0  0  0  0  0  0  0999 V2000
    0.4710    2.8760    0.0500 O   0  0  0  0  0  0  0  0  0  0  0  0
    0.3610    1.6250    0.0350 C   0  0  0  0  0  0  0  0  0  0  0  0
   -0.9330    1.1270   -0.1650 C   0  0  0  0  0  0  0  0  0  0  0  0
   -1.3560   -0.1750   -0.2210 C   0  0  0  0  0  0  0  0  0  0  0  0
   -2.7210   -0.4070   -0.3220 O   0  0  0  0  0  0  0  0  0  0  0  0
   -0.5830   -1.3180   -0.1880 C   0  0  0  0  0  0  0  0  0  0  0  0
    0.8070   -1.4450   -0.1060 C   0  0  0  0  0  0  0  0  0  0  0  0
    1.7120   -0.4250    0.1260 C   0  0  0  0  0  0  0  0  0  0  0  0
    3.2560   -0.9120    0.3230 S   0  0  0  0  0  0  0  0  0  0  0  0
    1.5070    0.9110    0.2140 N   0  0  0  0  0  0  0  0  0  0  0  0
  1  2  2  0
  2  3  1  0
  2 10  1  0
  3  4  2  0
  4  5  1  0
  4  6  1  0
  6  7  2  0
  7  8  1  0
  8  9  2  0
  8 10  1  0
M  END
