
     RDKit          3D

  9  9  0  0  0  0  0  0  0  0999 V2000
    3.5780    0.1470   -0.1310 N   0  0  0  0  0  0  0  0  0  0  0  0
    2.2270    0.5670   -0.2590 C   0  0  0  0  0  0  0  0  0  0  0  0
    1.9220    1.6100   -0.8810 O   0  0  0  0  0  0  0  0  0  0  0  0
    1.1770   -0.2530    0.3580 C   0  0  0  0  0  0  0  0  0  0  0  0
   -0.2020    0.2780    0.1630 C   0  0  2  0  0  0  0  0  0  0  0  0
   -1.1710   -0.6760    0.8550 C   0  0  0  0  0  0  0  0  0  0  0  0
   -2.4620   -0.3910    0.0850 C   0  0  0  0  0  0  0  0  0  0  0  0
   -2.0010    0.4540   -1.0880 C   0  0  0  0  0  0  0  0  0  0  0  0
   -0.6120    0.2990   -1.1570 O   0  0  0  0  0  0  0  0  0  0  0  0
  1  2  1  0
  2  3  2  0
  2  4  1  0
  5  4  1  6
  5  6  1  0
  5  9  1  0
  6  7  1  0
  7  8  1  0
  8  9  1  0
M  END
