
     RDKit          3D

 10 10  0  0  0  0  0  0  0  0999 V2000
    2.9840    0.4870   -0.1360 C   0  0  0  0  0  0  0  0  0  0  0  0
    1.5410    0.7120    0.2210 C   0  0  0  0  0  0  0  0  0  0  0  0
    1.2900    1.7220    0.9000 O   0  0  0  0  0  0  0  0  0  0  0  0
    0.5260   -0.1570   -0.1800 N   0  0  0  0  0  0  0  0  0  0  0  0
   -0.8420    0.0340    0.1440 C   0  0  0  0  0  0  0  0  0  0  0  0
   -1.2580    1.0950    0.8790 C   0  0  0  0  0  0  0  0  0  0  0  0
   -3.0910    0.8190    0.9760 S   0  0  0  0  0  0  0  0  0  0  0  0
   -3.0720   -0.5680    0.0930 C   0  0  0  0  0  0  0  0  0  0  0  0
   -1.8260   -0.8300   -0.2590 C   0  0  0  0  0  0  0  0  0  0  0  0
   -1.5670   -1.9910   -1.0340 O   0  0  0  0  0  0  0  0  0  0  0  0
  1  2  1  0
  2  3  2  0
  2  4  1  0
  4  5  1  0
  5  6  2  0
  5  9  1  0
  6  7  1  0
  7  8  1  0
  8  9  2  0
  9 10  1  0
M  END
