
     RDKit          3D

 10 10  0  0  0  0  0  0  0  0999 V2000
   -3.5100    0.2190   -0.1590 C   0  0  0  0  0  0  0  0  0  0  0  0
   -2.0240    0.1290   -0.0800 C   0  0  0  0  0  0  0  0  0  0  0  0
   -1.2280   -0.9840   -0.1060 C   0  0  0  0  0  0  0  0  0  0  0  0
    0.0930   -0.8290   -0.0200 C   0  0  0  0  0  0  0  0  0  0  0  0
    0.6020    0.4220    0.0900 C   0  0  0  0  0  0  0  0  0  0  0  0
    1.9180    0.9370    0.1990 N   0  0  0  0  0  0  0  0  0  0  0  0
    3.0470    0.0960    0.2090 C   0  0  0  0  0  0  0  0  0  0  0  0
    2.9530   -1.1490    0.1240 O   0  0  0  0  0  0  0  0  0  0  0  0
    4.3260    0.6450    0.3180 O   0  0  0  0  0  0  0  0  0  0  0  0
   -0.8790    1.4290    0.0700 S   0  0  0  0  0  0  0  0  0  0  0  0
  1  2  1  0
  2  3  2  0
  2 10  1  0
  3  4  1  0
  4  5  2  0
  5  6  1  0
  5 10  1  0
  6  7  1  0
  7  8  2  0
  7  9  1  0
M  END
