
     RDKit          3D

 32 36  0  0  0  0  0  0  0  0999 V2000
   -5.2040    2.1860    3.2090 C   0  0  0  0  0  0  0  0  0  0  0  0
   -4.6390    1.1770    2.4030 O   0  0  0  0  0  0  0  0  0  0  0  0
   -5.1940    0.9020    1.1660 C   0  0  0  0  0  0  0  0  0  0  0  0
   -6.2820    1.5990    0.7230 C   0  0  0  0  0  0  0  0  0  0  0  0
   -6.8240    1.3080   -0.5200 C   0  0  0  0  0  0  0  0  0  0  0  0
   -6.3030    0.3300   -1.3400 C   0  0  0  0  0  0  0  0  0  0  0  0
   -6.8640   -0.0010   -2.6750 C   0  0  0  0  0  0  0  0  0  0  0  0
   -5.1880   -0.3790   -0.8770 C   0  0  0  0  0  0  0  0  0  0  0  0
   -4.6570   -0.0860    0.3540 C   0  0  0  0  0  0  0  0  0  0  0  0
   -3.5620   -0.7730    0.8220 O   0  0  0  0  0  0  0  0  0  0  0  0
   -2.9230   -1.7860    0.1160 C   0  0  2  0  0  0  0  0  0  0  0  0
   -1.4460   -1.5910    0.0160 C   0  0  0  0  0  0  0  0  0  0  0  0
   -0.8040   -2.4630   -0.6050 O   0  0  0  0  0  0  0  0  0  0  0  0
   -0.7820   -0.4880    0.5840 N   0  0  0  0  0  0  0  0  0  0  0  0
    0.6170   -0.2150    0.5390 C   0  0  0  0  0  0  0  0  0  0  0  0
    1.0690    0.8710    1.3080 C   0  0  0  0  0  0  0  0  0  0  0  0
    2.3840    1.2330    1.3390 C   0  0  0  0  0  0  0  0  0  0  0  0
    2.7990    2.3890    2.1690 C   0  0  0  0  0  0  0  0  0  0  0  0
    3.2890    0.5090    0.5940 C   0  0  0  0  0  0  0  0  0  0  0  0
    4.5880    0.8310    0.5970 N   0  0  0  0  0  0  0  0  0  0  0  0
    5.4860    0.1080   -0.1470 C   0  0  0  0  0  0  0  0  0  0  0  0
    5.1140   -0.9320   -0.8940 N   0  0  0  0  0  0  0  0  0  0  0  0
    3.7900   -1.2850   -0.9170 C   0  0  0  0  0  0  0  0  0  0  0  0
    3.3840   -2.2430   -1.5930 O   0  0  0  0  0  0  0  0  0  0  0  0
    2.8850   -0.5630   -0.1730 C   0  0  0  0  0  0  0  0  0  0  0  0
    1.5380   -0.9080   -0.1850 C   0  0  0  0  0  0  0  0  0  0  0  0
    6.0350   -1.7370   -1.7020 C   0  0  0  0  0  0  0  0  0  0  0  0
    7.3440   -1.0070   -1.8260 C   0  0  0  0  0  0  0  0  0  0  0  0
    7.8020   -0.5860   -0.4280 C   0  0  0  0  0  0  0  0  0  0  0  0
    6.9190    0.5770   -0.0590 C   0  0  0  0  0  0  0  0  0  0  0  0
   -3.5220   -2.0770   -1.2090 C   0  0  0  0  0  0  0  0  0  0  0  0
   -4.5740   -1.4230   -1.6690 C   0  0  0  0  0  0  0  0  0  0  0  0
  1  2  1  0
  2  3  1  0
  3  4  2  0
  3  9  1  0
  4  5  1  0
  5  6  2  0
  6  7  1  0
  6  8  1  0
  8  9  2  0
  8 32  1  0
  9 10  1  0
 10 11  1  0
 11 12  1  6
 11 31  1  0
 12 13  2  0
 12 14  1  0
 14 15  1  0
 15 16  2  0
 15 26  1  0
 16 17  1  0
 17 18  1  0
 17 19  2  0
 19 20  1  0
 19 25  1  0
 20 21  2  0
 21 22  1  0
 21 30  1  0
 22 23  1  0
 22 27  1  0
 23 24  2  0
 23 25  1  0
 25 26  2  0
 27 28  1  0
 28 29  1  0
 29 30  1  0
 31 32  2  0
M  END
