
     RDKit          3D

 32 37  0  0  0  0  0  0  0  0999 V2000
   -1.4230    2.3900    1.0090 O   0  0  0  0  0  0  0  0  0  0  0  0
   -2.5010    1.7560    0.7790 C   0  0  0  0  0  0  0  0  0  0  0  0
   -3.6570    2.1860    1.2770 N   0  0  0  0  0  0  0  0  0  0  0  0
   -4.7840    1.5030    1.0230 C   0  0  0  0  0  0  0  0  0  0  0  0
   -5.9810    1.9430    1.5350 C   0  0  0  0  0  0  0  0  0  0  0  0
   -7.1210    1.2000    1.2430 C   0  0  0  0  0  0  0  0  0  0  0  0
   -7.0690    0.0630    0.4710 C   0  0  0  0  0  0  0  0  0  0  0  0
   -8.3150   -0.7190    0.1720 C   0  0  2  0  0  0  0  0  0  0  0  0
   -8.1740   -2.1600   -0.1750 C   0  0  0  0  0  0  0  0  0  0  0  0
   -8.4430   -1.1260   -1.3020 C   0  0  0  0  0  0  0  0  0  0  0  0
   -5.8850   -0.3450   -0.0170 N   0  0  0  0  0  0  0  0  0  0  0  0
   -4.7460    0.3540    0.2460 C   0  0  0  0  0  0  0  0  0  0  0  0
   -3.5270   -0.0530   -0.2480 C   0  0  0  0  0  0  0  0  0  0  0  0
   -3.4350   -1.0890   -0.9590 O   0  0  0  0  0  0  0  0  0  0  0  0
   -2.4200    0.6510    0.0230 N   0  0  0  0  0  0  0  0  0  0  0  0
   -1.1500    0.2130   -0.5000 C   0  0  0  0  0  0  0  0  0  0  0  0
   -1.0440   -0.1450   -1.8220 C   0  0  0  0  0  0  0  0  0  0  0  0
    0.2030   -0.5630   -2.2910 C   0  0  0  0  0  0  0  0  0  0  0  0
    1.2900   -0.6160   -1.4510 C   0  0  0  0  0  0  0  0  0  0  0  0
    2.5080   -1.0300   -1.9300 C   0  0  0  0  0  0  0  0  0  0  0  0
    3.6210   -1.0890   -1.0910 C   0  0  0  0  0  0  0  0  0  0  0  0
    3.5590   -0.7410    0.2330 C   0  0  0  0  0  0  0  0  0  0  0  0
    4.5670   -0.7580    1.1220 O   0  0  0  0  0  0  0  0  0  0  0  0
    5.8830   -1.0980    0.9030 C   0  0  0  0  0  0  0  0  0  0  0  0
    6.6300   -0.2180   -0.0310 C   0  0  2  0  0  0  0  0  0  0  0  0
    8.1400   -0.5320    0.0990 C   0  0  0  0  0  0  0  0  0  0  0  0
    8.7110    0.6830   -0.6120 C   0  0  0  0  0  0  0  0  0  0  0  0
    7.6810    1.7370   -0.2820 C   0  0  0  0  0  0  0  0  0  0  0  0
    6.6610    1.1130    0.4140 O   0  0  0  0  0  0  0  0  0  0  0  0
    2.2980   -0.3220    0.6900 C   0  0  0  0  0  0  0  0  0  0  0  0
    1.1980   -0.2600   -0.1220 C   0  0  0  0  0  0  0  0  0  0  0  0
   -0.0450    0.1520    0.3220 C   0  0  0  0  0  0  0  0  0  0  0  0
  1  2  2  0
  2  3  1  0
  2 15  1  0
  3  4  1  0
  4  5  2  0
  4 12  1  0
  5  6  1  0
  6  7  2  0
  8  7  1  6
  7 11  1  0
  8  9  1  0
  8 10  1  0
  9 10  1  0
 11 12  2  0
 12 13  1  0
 13 14  2  0
 13 15  1  0
 15 16  1  0
 16 17  2  0
 16 32  1  0
 17 18  1  0
 18 19  2  0
 19 20  1  0
 19 31  1  0
 20 21  2  0
 21 22  1  0
 22 23  1  0
 22 30  2  0
 23 24  1  0
 25 24  1  1
 25 26  1  0
 25 29  1  0
 26 27  1  0
 27 28  1  0
 28 29  1  0
 30 31  1  0
 31 32  2  0
M  END
