
     RDKit          3D

 33 37  0  0  0  0  0  0  0  0999 V2000
   -0.1040   -1.0430   -0.7420 C   0  0  0  0  0  0  0  0  0  0  0  0
    0.7750    0.0370   -0.4170 N   0  0  0  0  0  0  0  0  0  0  0  0
    0.4010    1.3420   -0.1490 C   0  0  0  0  0  0  0  0  0  0  0  0
    1.3930    2.1920   -0.0140 O   0  0  0  0  0  0  0  0  0  0  0  0
   -0.9180    1.9380    0.0090 C   0  0  0  0  0  0  0  0  0  0  0  0
   -2.0940    1.2430    0.1090 C   0  0  0  0  0  0  0  0  0  0  0  0
   -3.3210    1.8750    0.2840 C   0  0  0  0  0  0  0  0  0  0  0  0
   -4.6420    1.4140    0.4110 C   0  0  0  0  0  0  0  0  0  0  0  0
   -4.9950    0.0340    0.3800 C   0  0  0  0  0  0  0  0  0  0  0  0
   -4.0640   -0.8350    0.2070 O   0  0  0  0  0  0  0  0  0  0  0  0
   -6.2930   -0.5100    0.5230 N   0  0  0  0  0  0  0  0  0  0  0  0
   -7.5150    0.1690    0.7430 C   0  0  0  0  0  0  0  0  0  0  0  0
   -8.5760   -0.9080    0.9430 C   0  0  0  0  0  0  0  0  0  0  0  0
   -7.7500   -2.1660    1.2510 C   0  0  0  0  0  0  0  0  0  0  0  0
   -6.5240   -1.9580    0.4330 C   0  0  0  0  0  0  0  0  0  0  0  0
   -5.4330    2.4900    0.5590 N   0  0  0  0  0  0  0  0  0  0  0  0
   -4.6670    3.5740    0.5300 N   0  0  0  0  0  0  0  0  0  0  0  0
   -3.3860    3.2370    0.3650 C   0  0  0  0  0  0  0  0  0  0  0  0
   -2.2190    3.9740    0.2700 C   0  0  0  0  0  0  0  0  0  0  0  0
   -1.0250    3.3370    0.0980 C   0  0  0  0  0  0  0  0  0  0  0  0
    0.1360    4.1020    0.0050 O   0  0  0  0  0  0  0  0  0  0  0  0
    2.1950   -0.2710   -0.4060 C   0  0  0  0  0  0  0  0  0  0  0  0
    2.8610   -0.5270    0.7640 C   0  0  0  0  0  0  0  0  0  0  0  0
    4.1940   -0.8150    0.8330 C   0  0  0  0  0  0  0  0  0  0  0  0
    4.9370   -0.8540   -0.3460 C   0  0  0  0  0  0  0  0  0  0  0  0
    6.3300   -1.1360   -0.2960 N   0  0  0  0  0  0  0  0  0  0  0  0
    7.1090   -1.3900   -1.4460 C   0  0  0  0  0  0  0  0  0  0  0  0
    8.4830   -0.7500   -1.3940 C   0  0  0  0  0  0  0  0  0  0  0  0
    8.8460   -0.4200   -0.0930 O   0  0  0  0  0  0  0  0  0  0  0  0
    8.4220   -1.3580    0.8320 C   0  0  0  0  0  0  0  0  0  0  0  0
    6.9420   -1.1420    1.0540 C   0  0  0  0  0  0  0  0  0  0  0  0
    4.3120   -0.6050   -1.5270 C   0  0  0  0  0  0  0  0  0  0  0  0
    2.9420   -0.3150   -1.5570 C   0  0  0  0  0  0  0  0  0  0  0  0
  1  2  1  0
  2  3  1  0
  2 22  1  0
  3  4  2  0
  3  5  1  0
  5  6  2  0
  5 20  1  0
  6  7  1  0
  7  8  2  0
  7 18  1  0
  8  9  1  0
  8 16  1  0
  9 10  2  0
  9 11  1  0
 11 12  1  0
 11 15  1  0
 12 13  1  0
 13 14  1  0
 14 15  1  0
 16 17  1  0
 17 18  2  0
 18 19  1  0
 19 20  2  0
 20 21  1  0
 22 23  2  0
 22 33  1  0
 23 24  1  0
 24 25  2  0
 25 26  1  0
 25 32  1  0
 26 27  1  0
 26 31  1  0
 27 28  1  0
 28 29  1  0
 29 30  1  0
 30 31  1  0
 32 33  2  0
M  END
