
     RDKit          3D

 32 36  0  0  0  0  0  0  0  0999 V2000
    7.8540    1.2590    0.7040 C   0  0  0  0  0  0  0  0  0  0  0  0
    7.2180    0.0580    0.4600 O   0  0  0  0  0  0  0  0  0  0  0  0
    6.9800   -0.2050   -0.8640 C   0  0  0  0  0  0  0  0  0  0  0  0
    6.0990    0.7940   -1.5650 C   0  0  0  0  0  0  0  0  0  0  0  0
    4.7620    0.9030   -0.9720 C   0  0  0  0  0  0  0  0  0  0  0  0
    3.6900    0.1080   -1.3770 C   0  0  0  0  0  0  0  0  0  0  0  0
    2.4530    0.2340   -0.8130 C   0  0  0  0  0  0  0  0  0  0  0  0
    1.3090   -0.5790   -1.2070 C   0  0  0  0  0  0  0  0  0  0  0  0
    1.4000   -1.5440   -2.1780 C   0  0  0  0  0  0  0  0  0  0  0  0
    0.3250   -2.3390   -2.5810 C   0  0  0  0  0  0  0  0  0  0  0  0
   -0.8820   -2.1260   -1.9580 C   0  0  0  0  0  0  0  0  0  0  0  0
   -0.9700   -1.1470   -0.9720 C   0  0  0  0  0  0  0  0  0  0  0  0
    0.0930   -0.4070   -0.6190 N   0  0  0  0  0  0  0  0  0  0  0  0
   -2.2220   -0.9080   -0.2210 C   0  0  0  0  0  0  0  0  0  0  0  0
   -2.1620   -0.1520    0.8570 C   0  0  0  0  0  0  0  0  0  0  0  0
   -3.3660    0.1050    1.6210 C   0  0  0  0  0  0  0  0  0  0  0  0
   -3.4310    0.1740    3.0200 C   0  0  0  0  0  0  0  0  0  0  0  0
   -4.7420    0.4360    3.3730 C   0  0  0  0  0  0  0  0  0  0  0  0
   -5.4180    0.5150    2.1770 C   0  0  0  0  0  0  0  0  0  0  0  0
   -6.8650    0.7800    1.9840 C   0  0  1  0  0  0  0  0  0  0  0  0
   -7.2960    1.3740    0.6340 C   0  0  0  0  0  0  0  0  0  0  0  0
   -7.5970   -0.0480    0.9340 C   0  0  0  0  0  0  0  0  0  0  0  0
   -4.5770    0.3170    1.2200 O   0  0  0  0  0  0  0  0  0  0  0  0
   -3.4700   -1.5330   -0.6940 C   0  0  1  0  0  0  0  0  0  0  0  0
   -4.3720   -0.5730   -1.1810 O   0  0  0  0  0  0  0  0  0  0  0  0
   -3.2220   -2.5420   -1.7320 C   0  0  0  0  0  0  0  0  0  0  0  0
   -2.0960   -2.8290   -2.3130 C   0  0  0  0  0  0  0  0  0  0  0  0
    2.3260    1.1890    0.1750 C   0  0  0  0  0  0  0  0  0  0  0  0
    1.2320    1.3870    0.7590 O   0  0  0  0  0  0  0  0  0  0  0  0
    3.3590    1.9590    0.5700 N   0  0  0  0  0  0  0  0  0  0  0  0
    3.2440    2.9650    1.6080 C   0  0  0  0  0  0  0  0  0  0  0  0
    4.5320    1.7980   -0.0060 N   0  0  0  0  0  0  0  0  0  0  0  0
  1  2  1  0
  2  3  1  0
  3  4  1  0
  4  5  1  0
  5  6  1  0
  5 32  2  0
  6  7  2  0
  7  8  1  0
  7 28  1  0
  8  9  2  0
  8 13  1  0
  9 10  1  0
 10 11  2  0
 11 12  1  0
 11 27  1  0
 12 13  2  0
 12 14  1  0
 14 15  2  3
 14 24  1  0
 15 16  1  0
 16 17  2  0
 16 23  1  0
 17 18  1  0
 18 19  2  0
 20 19  1  6
 19 23  1  0
 20 21  1  0
 20 22  1  0
 21 22  1  0
 24 25  1  6
 24 26  1  0
 26 27  2  0
 28 29  2  0
 28 30  1  0
 30 31  1  0
 30 32  1  0
M  END
