
     RDKit          3D

 33 37  0  0  0  0  0  0  0  0999 V2000
   -6.6800    1.2930    1.2260 C   0  0  0  0  0  0  0  0  0  0  0  0
   -5.8360    0.2120    0.6610 C   0  0  0  0  0  0  0  0  0  0  0  0
   -4.9010   -0.5310    1.2390 N   0  0  0  0  0  0  0  0  0  0  0  0
   -4.3700   -1.3980    0.3880 N   0  0  0  0  0  0  0  0  0  0  0  0
   -3.3430   -2.3670    0.6220 C   0  0  0  0  0  0  0  0  0  0  0  0
   -2.0070   -1.7470    0.3430 C   0  0  0  0  0  0  0  0  0  0  0  0
   -1.9320   -0.5430   -0.0350 O   0  0  0  0  0  0  0  0  0  0  0  0
   -0.7960   -2.4580    0.4850 N   0  0  0  0  0  0  0  0  0  0  0  0
    0.4730   -1.8630    0.2180 C   0  0  0  0  0  0  0  0  0  0  0  0
    0.7190   -0.6550    1.1240 C   0  0  0  0  0  0  0  0  0  0  0  0
   -0.1720   -0.3770    1.9200 O   0  0  0  0  0  0  0  0  0  0  0  0
    1.9240    0.0710    1.0130 N   0  0  0  0  0  0  0  0  0  0  0  0
    2.2560    1.1880    1.7850 C   0  0  0  0  0  0  0  0  0  0  0  0
    1.4390    1.6960    2.7360 C   0  0  0  0  0  0  0  0  0  0  0  0
    1.8120    2.8050    3.4750 C   0  0  0  0  0  0  0  0  0  0  0  0
    3.0310    3.3930    3.2340 C   0  0  0  0  0  0  0  0  0  0  0  0
    3.8610    2.8690    2.2610 C   0  0  0  0  0  0  0  0  0  0  0  0
    3.5080    1.7690    1.5170 C   0  0  0  0  0  0  0  0  0  0  0  0
    4.4180    1.2270    0.4790 C   0  0  0  0  0  0  0  0  0  0  0  0
    4.5050    0.3400   -0.3510 N   0  0  0  0  0  0  0  0  0  0  0  0
    5.4900    0.1150   -1.1590 C   0  0  0  0  0  0  0  0  0  0  0  0
    6.5670    0.9450   -1.1000 C   0  0  0  0  0  0  0  0  0  0  0  0
    6.0040    2.0440    0.2110 S   0  0  0  0  0  0  0  0  0  0  0  0
    7.6310    0.6170   -2.0460 C   0  0  0  0  0  0  0  0  0  0  0  0
    7.2040   -0.6560   -2.5640 N   0  0  0  0  0  0  0  0  0  0  0  0
    5.8600   -0.8510   -2.2320 C   0  0  0  0  0  0  0  0  0  0  0  0
    5.1180   -1.7050   -2.7670 O   0  0  0  0  0  0  0  0  0  0  0  0
   -4.9890   -1.2060   -0.7950 C   0  0  0  0  0  0  0  0  0  0  0  0
   -4.8880   -1.7850   -2.0540 C   0  0  0  0  0  0  0  0  0  0  0  0
   -5.6690   -1.3790   -3.1110 C   0  0  0  0  0  0  0  0  0  0  0  0
   -6.5930   -0.3710   -2.9550 C   0  0  0  0  0  0  0  0  0  0  0  0
   -6.7200    0.2290   -1.7110 C   0  0  0  0  0  0  0  0  0  0  0  0
   -5.9230   -0.1970   -0.6660 C   0  0  0  0  0  0  0  0  0  0  0  0
  1  2  1  0
  2  3  2  0
  2 33  1  0
  3  4  1  0
  4  5  1  0
  4 28  1  0
  5  6  1  0
  6  7  2  0
  6  8  1  0
  8  9  1  0
  9 10  1  0
 10 11  2  0
 10 12  1  0
 12 13  1  0
 13 14  2  0
 13 18  1  0
 14 15  1  0
 15 16  2  0
 16 17  1  0
 17 18  2  0
 18 19  1  0
 19 20  2  0
 19 23  1  0
 20 21  1  0
 21 22  2  0
 21 26  1  0
 22 23  1  0
 22 24  1  0
 24 25  1  0
 25 26  1  0
 26 27  2  0
 28 29  2  0
 28 33  1  0
 29 30  1  0
 30 31  2  0
 31 32  1  0
 32 33  2  0
M  CHG  1  25   1
M  END
