
     RDKit          3D

 32 36  0  0  0  0  0  0  0  0999 V2000
    2.2010    1.5550    3.1940 O   0  0  0  0  0  0  0  0  0  0  0  0
    1.5190    0.9130    2.2980 C   0  0  0  0  0  0  0  0  0  0  0  0
    2.1640   -0.2230    1.7880 N   0  0  0  0  0  0  0  0  0  0  0  0
    3.4640   -0.6020    2.2380 N   0  0  0  0  0  0  0  0  0  0  0  0
    3.6650   -1.9870    1.8640 C   0  0  0  0  0  0  0  0  0  0  0  0
    5.0910   -2.1590    1.4280 C   0  0  0  0  0  0  0  0  0  0  0  0
    6.0240   -1.1990    2.1050 C   0  0  0  0  0  0  0  0  0  0  0  0
    5.6550    0.1070    1.8850 O   0  0  0  0  0  0  0  0  0  0  0  0
    4.3700    0.1920    1.4000 C   0  0  0  0  0  0  0  0  0  0  0  0
    0.2240    1.4450    1.9610 C   0  0  0  0  0  0  0  0  0  0  0  0
   -0.2050    2.6380    2.5620 C   0  0  0  0  0  0  0  0  0  0  0  0
   -1.4050    3.2210    2.2520 C   0  0  0  0  0  0  0  0  0  0  0  0
   -2.2410    2.6450    1.3250 C   0  0  0  0  0  0  0  0  0  0  0  0
   -1.8280    1.4690    0.7280 C   0  0  0  0  0  0  0  0  0  0  0  0
   -0.6040    0.8580    1.0360 C   0  0  0  0  0  0  0  0  0  0  0  0
   -0.2420   -0.3290    0.4070 O   0  0  0  0  0  0  0  0  0  0  0  0
   -1.2680   -1.1930   -0.0370 C   0  0  2  0  0  0  0  0  0  0  0  0
   -0.7870   -2.3860   -0.7260 C   0  0  0  0  0  0  0  0  0  0  0  0
   -1.4560   -3.5790   -0.5700 C   0  0  0  0  0  0  0  0  0  0  0  0
   -0.9900   -4.7270   -1.1990 C   0  0  0  0  0  0  0  0  0  0  0  0
    0.1320   -4.6980   -1.9790 C   0  0  0  0  0  0  0  0  0  0  0  0
    0.8170   -3.5060   -2.1460 C   0  0  0  0  0  0  0  0  0  0  0  0
    0.3500   -2.3670   -1.5200 C   0  0  0  0  0  0  0  0  0  0  0  0
   -2.1900   -0.3590   -0.8450 C   0  0  0  0  0  0  0  0  0  0  0  0
   -2.5330   -0.6940   -1.9830 O   0  0  0  0  0  0  0  0  0  0  0  0
   -2.6670    0.8540   -0.2470 N   0  0  0  0  0  0  0  0  0  0  0  0
   -3.9320    1.4300   -0.6280 C   0  0  0  0  0  0  0  0  0  0  0  0
   -3.7730    2.3850   -1.7680 C   0  0  0  0  0  0  0  0  0  0  0  0
   -2.7090    2.7540   -2.4290 C   0  0  0  0  0  0  0  0  0  0  0  0
   -3.0630    3.7390   -3.4920 C   0  0  0  0  0  0  0  0  0  0  0  0
   -4.5250    3.8900   -3.3480 C   0  0  0  0  0  0  0  0  0  0  0  0
   -4.9070    3.1060   -2.3570 C   0  0  0  0  0  0  0  0  0  0  0  0
  1  2  2  0
  2  3  1  0
  2 10  1  0
  3  4  1  0
  4  5  1  0
  4  9  1  0
  5  6  1  0
  6  7  1  0
  7  8  1  0
  8  9  1  0
 10 11  2  0
 10 15  1  0
 11 12  1  0
 12 13  2  0
 13 14  1  0
 14 15  2  0
 14 26  1  0
 15 16  1  0
 16 17  1  0
 17 18  1  6
 17 24  1  0
 18 19  2  0
 18 23  1  0
 19 20  1  0
 20 21  2  0
 21 22  1  0
 22 23  2  0
 24 25  2  0
 24 26  1  0
 26 27  1  0
 27 28  1  0
 28 29  2  0
 28 32  1  0
 29 30  1  0
 30 31  1  0
 31 32  2  0
M  END
