
     RDKit          3D

 20 20  0  0  0  0  0  0  0  0999 V2000
    5.3030    0.6760   -1.0840 C   0  0  0  0  0  0  0  0  0  0  0  0
    4.2860    0.2620   -0.0640 C   0  0  2  0  0  0  0  0  0  0  0  0
    3.9120   -1.2090   -0.1990 C   0  0  0  0  0  0  0  0  0  0  0  0
    3.0000   -1.5440    0.9540 C   0  0  0  0  0  0  0  0  0  0  0  0
    2.5040   -0.4160    1.5880 O   0  0  0  0  0  0  0  0  0  0  0  0
    1.9580    0.5100    0.7130 C   0  0  2  0  0  0  0  0  0  0  0  0
    1.5200    1.7010    1.5450 C   0  0  0  0  0  0  0  0  0  0  0  0
    0.8380    0.0260    0.0270 O   0  0  0  0  0  0  0  0  0  0  0  0
   -0.3190   -0.4070    0.6160 C   0  0  0  0  0  0  0  0  0  0  0  0
   -0.4150   -0.3800    1.8660 O   0  0  0  0  0  0  0  0  0  0  0  0
   -1.4990   -0.9230   -0.2230 C   0  0  2  0  0  0  0  0  0  0  0  0
   -1.8280    0.2740   -1.0690 C   0  0  0  0  0  0  0  0  0  0  0  0
   -2.9070    0.9850   -0.9780 C   0  0  0  0  0  0  0  0  0  0  0  0
   -3.1030    2.1340   -1.8760 C   0  0  0  0  0  0  0  0  0  0  0  0
   -4.2960    2.9290   -1.7840 N   0  0  0  0  0  0  0  0  0  0  0  0
   -2.2270    2.4130   -2.7200 O   0  0  0  0  0  0  0  0  0  0  0  0
   -2.6260   -1.2490    0.6960 C   0  0  0  0  0  0  0  0  0  0  0  0
   -3.7850   -1.8260   -0.0580 C   0  0  0  0  0  0  0  0  0  0  0  0
   -4.9050   -2.1170    0.8440 N   0  0  0  0  0  0  0  0  0  0  0  0
    2.9800    1.0300   -0.2780 C   0  0  0  0  0  0  0  0  0  0  0  0
  2  1  1  6
  2  3  1  0
  2 20  1  0
  3  4  1  0
  4  5  1  0
  5  6  1  0
  6  7  1  1
  6  8  1  0
  6 20  1  0
  8  9  1  0
  9 10  2  0
  9 11  1  0
 11 12  1  0
 11 17  1  1
 12 13  2  3
 13 14  1  0
 14 15  1  0
 14 16  2  0
 17 18  1  0
 18 19  1  0
M  CHG  1  19   1
M  END
