
     RDKit          3D

 20 20  0  0  0  0  0  0  0  0999 V2000
   -4.4660    2.7550    1.6320 C   0  0  0  0  0  0  0  0  0  0  0  0
   -3.4810    2.0320    0.7750 C   0  0  0  0  0  0  0  0  0  0  0  0
   -3.9770    0.6340    0.4000 C   0  0  0  0  0  0  0  0  0  0  0  0
   -2.9520   -0.0740   -0.4720 C   0  0  2  0  0  0  0  0  0  0  0  0
   -3.4600   -1.4260   -0.8210 C   0  0  0  0  0  0  0  0  0  0  0  0
   -3.0000   -2.5100   -0.0410 N   0  0  0  0  0  0  0  0  0  0  0  0
   -1.6920   -2.4370    0.4980 C   0  0  0  0  0  0  0  0  0  0  0  0
   -0.8320   -1.3210   -0.1140 C   0  0  2  0  0  0  0  0  0  0  0  0
   -0.6500   -1.5320   -1.5890 C   0  0  0  0  0  0  0  0  0  0  0  0
    0.3950   -1.3850    0.5400 O   0  0  0  0  0  0  0  0  0  0  0  0
    1.4530   -0.5030    0.2420 C   0  0  0  0  0  0  0  0  0  0  0  0
    1.2130    0.3190   -0.6280 O   0  0  0  0  0  0  0  0  0  0  0  0
    2.6900   -0.5520    0.8860 N   0  0  0  0  0  0  0  0  0  0  0  0
    3.8390    0.2530    0.6880 C   0  0  0  0  0  0  0  0  0  0  0  0
    4.5440    0.2250   -0.6130 C   0  0  2  0  0  0  0  0  0  0  0  0
    3.8160    0.9260   -1.7040 C   0  0  0  0  0  0  0  0  0  0  0  0
    4.9730   -1.0530   -0.9780 O   0  0  0  0  0  0  0  0  0  0  0  0
    5.8990    1.0030   -0.4630 C   0  0  0  0  0  0  0  0  0  0  0  0
    5.6580    2.3070   -0.0990 O   0  0  0  0  0  0  0  0  0  0  0  0
   -1.5850   -0.0440    0.1240 C   0  0  0  0  0  0  0  0  0  0  0  0
  1  2  1  0
  2  3  1  0
  4  3  1  1
  4  5  1  0
  4 20  1  0
  5  6  1  0
  6  7  1  0
  7  8  1  0
  8  9  1  6
  8 10  1  0
  8 20  1  0
 10 11  1  0
 11 12  2  0
 11 13  1  0
 13 14  1  0
 14 15  1  0
 15 16  1  6
 15 17  1  0
 15 18  1  0
 18 19  1  0
M  CHG  1   6   1
M  END
