
     RDKit          3D

 20 20  0  0  0  0  0  0  0  0999 V2000
   -2.0390   -4.2220    0.0390 C   0  0  0  0  0  0  0  0  0  0  0  0
   -2.5970   -2.8810    0.5010 C   0  0  0  0  0  0  0  0  0  0  0  0
   -2.0490   -1.7580   -0.3970 C   0  0  2  0  0  0  0  0  0  0  0  0
   -2.5360   -2.1270   -1.8070 C   0  0  0  0  0  0  0  0  0  0  0  0
   -0.5790   -1.7610   -0.3770 C   0  0  0  0  0  0  0  0  0  0  0  0
    0.0790   -0.4170   -0.7070 C   0  0  2  0  0  0  0  0  0  0  0  0
    0.5590   -0.5790   -2.0340 O   0  0  0  0  0  0  0  0  0  0  0  0
    1.2550   -0.2670    0.2040 C   0  0  0  0  0  0  0  0  0  0  0  0
    2.1700    0.7820   -0.0590 N   0  0  0  0  0  0  0  0  0  0  0  0
    3.4790    0.5140    0.5910 C   0  0  0  0  0  0  0  0  0  0  0  0
    4.3380    1.7710    0.3990 C   0  0  0  0  0  0  0  0  0  0  0  0
    5.5760    1.5930    0.9810 O   0  0  0  0  0  0  0  0  0  0  0  0
   -0.8850    0.6940   -0.5920 C   0  0  2  0  0  0  0  0  0  0  0  0
   -0.3990    2.0630   -0.5590 C   0  0  0  0  0  0  0  0  0  0  0  0
    0.2950    2.6380   -1.6120 O   0  0  0  0  0  0  0  0  0  0  0  0
   -0.5950    2.8340    0.4740 N   0  0  0  0  0  0  0  0  0  0  0  0
   -0.1400    4.1890    0.5640 C   0  0  0  0  0  0  0  0  0  0  0  0
   -1.9840    0.4310    0.4230 C   0  0  2  0  0  0  0  0  0  0  0  0
   -1.5680    0.3820    1.8350 C   0  0  0  0  0  0  0  0  0  0  0  0
   -2.7060   -0.6300   -0.0290 O   0  0  0  0  0  0  0  0  0  0  0  0
  1  2  1  0
  2  3  1  0
  3  4  1  6
  3  5  1  0
  3 20  1  0
  5  6  1  0
  6  7  1  6
  6  8  1  0
  6 13  1  0
  8  9  1  0
  9 10  1  0
 10 11  1  0
 11 12  1  0
 13 14  1  1
 13 18  1  0
 14 15  1  0
 14 16  2  3
 16 17  1  0
 18 19  1  1
 18 20  1  0
M  CHG  1   9   1
M  END
