
     RDKit          3D

 20 20  0  0  0  0  0  0  0  0999 V2000
   -3.8780    0.0600    0.0630 C   0  0  0  0  0  0  0  0  0  0  0  0
   -2.9430   -1.1110    0.0360 C   0  0  1  0  0  0  0  0  0  0  0  0
   -3.5330   -2.1520    1.0140 C   0  0  0  0  0  0  0  0  0  0  0  0
   -3.1140   -1.7750   -1.3140 C   0  0  0  0  0  0  0  0  0  0  0  0
   -1.5540   -0.8570    0.4250 C   0  0  1  0  0  0  0  0  0  0  0  0
   -0.8500   -2.1960    0.3550 N   0  0  0  0  0  0  0  0  0  0  0  0
   -0.7050    0.0820   -0.3590 C   0  0  2  0  0  0  0  0  0  0  0  0
    0.5680   -0.0100    0.3210 O   0  0  0  0  0  0  0  0  0  0  0  0
    1.5330   -0.3440   -0.5850 C   0  0  0  0  0  0  0  0  0  0  0  0
    2.8880   -0.4660    0.0660 C   0  0  1  0  0  0  0  0  0  0  0  0
    3.8780   -0.8350   -1.0210 C   0  0  0  0  0  0  0  0  0  0  0  0
    5.1010    0.0310   -1.0040 C   0  0  0  0  0  0  0  0  0  0  0  0
    5.5740    0.3970    0.3650 C   0  0  0  0  0  0  0  0  0  0  0  0
    4.4370    0.5460    1.3570 C   0  0  0  0  0  0  0  0  0  0  0  0
    3.2540    0.7600    0.6610 O   0  0  0  0  0  0  0  0  0  0  0  0
   -1.0190    1.5310   -0.2040 C   0  0  0  0  0  0  0  0  0  0  0  0
   -0.3220    2.2990    0.5660 O   0  0  0  0  0  0  0  0  0  0  0  0
   -2.0310    2.2150   -0.8270 O   0  0  0  0  0  0  0  0  0  0  0  0
   -2.3080    3.5750   -0.6750 C   0  0  0  0  0  0  0  0  0  0  0  0
   -2.6080    3.9130    0.6840 N   0  0  0  0  0  0  0  0  0  0  0  0
  2  1  1  6
  2  3  1  0
  2  4  1  0
  2  5  1  0
  5  6  1  6
  5  7  1  0
  7  8  1  1
  7 16  1  0
  8  9  1  0
 10  9  1  6
 10 11  1  0
 10 15  1  0
 11 12  1  0
 12 13  1  0
 13 14  1  0
 14 15  1  0
 16 17  2  0
 16 18  1  0
 18 19  1  0
 19 20  1  0
M  CHG  1   6   1
M  END
