
     RDKit          3D

 20 20  0  0  0  0  0  0  0  0999 V2000
    4.3930    3.1480   -0.6780 C   0  0  0  0  0  0  0  0  0  0  0  0
    2.9140    3.2650   -0.9280 C   0  0  0  0  0  0  0  0  0  0  0  0
    2.2920    1.9940   -0.9780 O   0  0  0  0  0  0  0  0  0  0  0  0
    2.3160    1.1050    0.0930 C   0  0  0  0  0  0  0  0  0  0  0  0
    2.9270    1.4990    1.1220 O   0  0  0  0  0  0  0  0  0  0  0  0
    1.6510   -0.2140   -0.0060 C   0  0  2  0  0  0  0  0  0  0  0  0
    0.1860   -0.0890   -0.2700 C   0  0  0  0  0  0  0  0  0  0  0  0
   -0.2590   -0.6010   -1.3140 O   0  0  0  0  0  0  0  0  0  0  0  0
   -0.6820    0.5770    0.6110 N   0  0  0  0  0  0  0  0  0  0  0  0
   -2.0770    0.7420    0.4700 C   0  0  0  0  0  0  0  0  0  0  0  0
   -2.9800   -0.4190    0.4900 C   0  0  1  0  0  0  0  0  0  0  0  0
   -2.8410   -1.4810   -0.5450 C   0  0  0  0  0  0  0  0  0  0  0  0
   -2.9510   -1.0380    1.8450 N   0  0  0  0  0  0  0  0  0  0  0  0
   -4.4330    0.0910    0.3690 C   0  0  0  0  0  0  0  0  0  0  0  0
   -4.6500    0.8500   -0.8940 C   0  0  0  0  0  0  0  0  0  0  0  0
    1.9090   -0.9780    1.2770 C   0  0  0  0  0  0  0  0  0  0  0  0
    2.9250   -2.0270    0.9450 C   0  0  0  0  0  0  0  0  0  0  0  0
    2.6080   -2.3760   -0.4960 C   0  0  1  0  0  0  0  0  0  0  0  0
    1.5540   -3.2700   -0.5260 O   0  0  0  0  0  0  0  0  0  0  0  0
    2.2760   -1.0410   -1.0950 C   0  0  0  0  0  0  0  0  0  0  0  0
  1  2  1  0
  2  3  1  0
  3  4  1  0
  4  5  2  0
  6  4  1  1
  6  7  1  0
  6 16  1  0
  6 20  1  0
  7  8  2  0
  7  9  1  0
  9 10  1  0
 10 11  1  0
 11 12  1  6
 11 13  1  0
 11 14  1  0
 14 15  1  0
 16 17  1  0
 17 18  1  0
 18 19  1  1
 18 20  1  0
M  CHG  1  13   1
M  END
