
     RDKit          3D

 19 19  0  0  0  0  0  0  0  0999 V2000
   -4.6330    0.8320   -0.3850 C   0  0  0  0  0  0  0  0  0  0  0  0
   -3.4430    0.2580    0.4490 C   0  0  1  0  0  0  0  0  0  0  0  0
   -3.8760   -1.2020    0.6240 C   0  0  0  0  0  0  0  0  0  0  0  0
   -2.2140    0.4240   -0.4090 C   0  0  2  0  0  0  0  0  0  0  0  0
   -2.2150    1.9600   -0.6800 C   0  0  0  0  0  0  0  0  0  0  0  0
   -2.2820   -0.2920   -1.5860 O   0  0  0  0  0  0  0  0  0  0  0  0
   -0.8960    0.1560    0.2690 C   0  0  1  0  0  0  0  0  0  0  0  0
   -0.7550    1.1510    1.3890 C   0  0  0  0  0  0  0  0  0  0  0  0
   -0.8100   -1.2030    0.9520 C   0  0  0  0  0  0  0  0  0  0  0  0
   -0.9700   -2.2780    0.1410 O   0  0  0  0  0  0  0  0  0  0  0  0
    0.1850    0.2600   -0.7430 C   0  0  0  0  0  0  0  0  0  0  0  0
    1.5310    0.0230   -0.3490 N   0  0  0  0  0  0  0  0  0  0  0  0
    2.2100    0.9370    0.4280 C   0  0  0  0  0  0  0  0  0  0  0  0
    3.5550    1.4070   -0.0370 C   0  0  0  0  0  0  0  0  0  0  0  0
    3.9890    0.8260   -1.2110 O   0  0  0  0  0  0  0  0  0  0  0  0
    4.5600   -0.4210   -1.0430 C   0  0  0  0  0  0  0  0  0  0  0  0
    3.4810   -1.4160   -0.6360 C   0  0  1  0  0  0  0  0  0  0  0  0
    3.5200   -1.7290    0.7560 N   0  0  0  0  0  0  0  0  0  0  0  0
    2.1760   -0.9190   -1.1560 C   0  0  0  0  0  0  0  0  0  0  0  0
  2  1  1  6
  2  3  1  0
  2  4  1  0
  4  5  1  6
  4  6  1  0
  4  7  1  0
  7  8  1  1
  7  9  1  0
  7 11  1  0
  9 10  1  0
 11 12  1  0
 12 13  1  0
 12 19  1  0
 13 14  1  0
 14 15  1  0
 15 16  1  0
 16 17  1  0
 17 18  1  1
 17 19  1  0
M  CHG  1  18   1
M  END
