
     RDKit          3D

 20 20  0  0  0  0  0  0  0  0999 V2000
   -3.8350   -2.2700    0.8650 C   0  0  0  0  0  0  0  0  0  0  0  0
   -4.6810   -1.0490    0.6030 C   0  0  1  0  0  0  0  0  0  0  0  0
   -5.9650   -1.3910   -0.1360 C   0  0  0  0  0  0  0  0  0  0  0  0
   -5.0800   -0.4230    1.9150 C   0  0  0  0  0  0  0  0  0  0  0  0
   -4.0040   -0.0760   -0.1650 O   0  0  0  0  0  0  0  0  0  0  0  0
   -2.8170    0.5280    0.2500 C   0  0  0  0  0  0  0  0  0  0  0  0
   -2.3720    0.1570    1.3590 O   0  0  0  0  0  0  0  0  0  0  0  0
   -2.1680    1.5050   -0.5600 N   0  0  0  0  0  0  0  0  0  0  0  0
   -0.9530    2.1420   -0.1760 C   0  0  0  0  0  0  0  0  0  0  0  0
    0.1270    1.0450   -0.0360 C   0  0  1  0  0  0  0  0  0  0  0  0
    0.1900    0.4300   -1.4020 C   0  0  0  0  0  0  0  0  0  0  0  0
    0.5470    1.4340   -2.3070 O   0  0  0  0  0  0  0  0  0  0  0  0
    1.3500    1.7980    0.3970 C   0  0  0  0  0  0  0  0  0  0  0  0
    2.4820    1.1550    0.6290 O   0  0  0  0  0  0  0  0  0  0  0  0
    3.2170    0.4670   -0.2220 C   0  0  2  0  0  0  0  0  0  0  0  0
    3.1220   -1.0190    0.1940 C   0  0  0  0  0  0  0  0  0  0  0  0
    4.2640   -1.2610    1.1210 C   0  0  0  0  0  0  0  0  0  0  0  0
    5.0570    0.0290    1.1650 C   0  0  0  0  0  0  0  0  0  0  0  0
    4.7090    0.6430   -0.1600 C   0  0  1  0  0  0  0  0  0  0  0  0
    5.2710   -0.1140   -1.2670 N   0  0  0  0  0  0  0  0  0  0  0  0
  2  1  1  1
  2  3  1  0
  2  4  1  0
  2  5  1  0
  5  6  1  0
  6  7  2  0
  6  8  1  0
  8  9  1  0
 10  9  1  6
 10 11  1  0
 10 13  1  0
 11 12  1  0
 13 14  1  0
 15 14  1  1
 15 16  1  0
 15 19  1  0
 16 17  1  0
 17 18  1  0
 18 19  1  0
 19 20  1  6
M  CHG  1  20   1
M  END
