
     RDKit          3D

 20 20  0  0  0  0  0  0  0  0999 V2000
   -0.4640   -1.4430    1.6260 C   0  0  0  0  0  0  0  0  0  0  0  0
   -0.3870   -1.0820    0.1510 C   0  0  2  0  0  0  0  0  0  0  0  0
   -0.2910   -2.3560   -0.6260 C   0  0  0  0  0  0  0  0  0  0  0  0
    0.8200   -0.2520   -0.0300 C   0  0  0  0  0  0  0  0  0  0  0  0
    0.7050    0.9160   -0.4750 O   0  0  0  0  0  0  0  0  0  0  0  0
    2.0990   -0.6980    0.2700 O   0  0  0  0  0  0  0  0  0  0  0  0
    3.1820    0.1450    0.0710 C   0  0  1  0  0  0  0  0  0  0  0  0
    3.9480    0.4430    1.3490 C   0  0  0  0  0  0  0  0  0  0  0  0
    4.8900    1.5870    0.9970 C   0  0  0  0  0  0  0  0  0  0  0  0
    5.8160    1.0320   -0.0940 C   0  0  0  0  0  0  0  0  0  0  0  0
    5.0860    0.6440   -1.1960 O   0  0  0  0  0  0  0  0  0  0  0  0
    4.1930   -0.3900   -0.9200 C   0  0  0  0  0  0  0  0  0  0  0  0
   -1.6010   -0.2400   -0.2640 C   0  0  1  0  0  0  0  0  0  0  0  0
   -1.4330    0.0480   -1.6710 N   0  0  0  0  0  0  0  0  0  0  0  0
   -2.8500   -0.9690    0.0310 C   0  0  0  0  0  0  0  0  0  0  0  0
   -4.1270   -0.3690   -0.3150 C   0  0  0  0  0  0  0  0  0  0  0  0
   -4.6140    0.9050    0.2460 C   0  0  2  0  0  0  0  0  0  0  0  0
   -5.9870    1.0420   -0.4070 N   0  0  0  0  0  0  0  0  0  0  0  0
   -3.9560    2.1510   -0.1840 C   0  0  0  0  0  0  0  0  0  0  0  0
   -3.0660    2.6380    0.4600 O   0  0  0  0  0  0  0  0  0  0  0  0
  2  1  1  1
  2  3  1  0
  2  4  1  0
  2 13  1  0
  4  5  2  0
  4  6  1  0
  7  6  1  1
  7  8  1  0
  7 12  1  0
  8  9  1  0
  9 10  1  0
 10 11  1  0
 11 12  1  0
 13 14  1  6
 13 15  1  0
 15 16  1  0
 16 17  1  0
 17 18  1  6
 17 19  1  0
 19 20  2  0
M  CHG  1  14   1
M  END
