
     RDKit          3D

 20 20  0  0  0  0  0  0  0  0999 V2000
   -3.3420    2.2560    0.6960 C   0  0  0  0  0  0  0  0  0  0  0  0
   -4.4690    1.3710    0.2690 C   0  0  0  0  0  0  0  0  0  0  0  0
   -4.3220   -0.0740    0.5440 C   0  0  0  0  0  0  0  0  0  0  0  0
   -3.2320   -0.8370   -0.1010 C   0  0  2  0  0  0  0  0  0  0  0  0
   -3.3360   -2.3280    0.3520 C   0  0  0  0  0  0  0  0  0  0  0  0
   -2.6040   -3.0780   -0.6480 N   0  0  0  0  0  0  0  0  0  0  0  0
   -1.1980   -2.7570   -0.4950 C   0  0  0  0  0  0  0  0  0  0  0  0
   -0.9280   -1.2940   -0.7340 C   0  0  2  0  0  0  0  0  0  0  0  0
   -1.1140   -0.9180   -2.1900 C   0  0  0  0  0  0  0  0  0  0  0  0
    0.4360   -1.0940   -0.4230 O   0  0  0  0  0  0  0  0  0  0  0  0
    1.1250    0.0820   -0.5000 C   0  0  0  0  0  0  0  0  0  0  0  0
    0.4660    1.1050   -0.8960 O   0  0  0  0  0  0  0  0  0  0  0  0
    2.5000    0.1890   -0.1630 N   0  0  0  0  0  0  0  0  0  0  0  0
    3.2310    1.4310   -0.2440 C   0  0  0  0  0  0  0  0  0  0  0  0
    4.6770    1.2150    0.1820 C   0  0  2  0  0  0  0  0  0  0  0  0
    5.3980    2.5440    0.0690 C   0  0  0  0  0  0  0  0  0  0  0  0
    5.3020    0.2820   -0.6410 O   0  0  0  0  0  0  0  0  0  0  0  0
    4.7410    0.7710    1.6190 C   0  0  0  0  0  0  0  0  0  0  0  0
    6.0440    0.6350    2.0330 O   0  0  0  0  0  0  0  0  0  0  0  0
   -1.8300   -0.4600    0.1680 C   0  0  0  0  0  0  0  0  0  0  0  0
  1  2  1  0
  2  3  1  0
  4  3  1  1
  4  5  1  0
  4 20  1  0
  5  6  1  0
  6  7  1  0
  7  8  1  0
  8  9  1  6
  8 10  1  0
  8 20  1  0
 10 11  1  0
 11 12  2  0
 11 13  1  0
 13 14  1  0
 14 15  1  0
 15 16  1  1
 15 17  1  0
 15 18  1  0
 18 19  1  0
M  CHG  1   6   1
M  END
