
     RDKit          3D

 20 20  0  0  0  0  0  0  0  0999 V2000
    0.4730   -1.6030    2.5550 C   0  0  0  0  0  0  0  0  0  0  0  0
   -0.3320   -0.9210    1.4300 C   0  0  2  0  0  0  0  0  0  0  0  0
   -0.9710   -2.0350    0.6690 C   0  0  0  0  0  0  0  0  0  0  0  0
    0.5910   -0.2180    0.5080 C   0  0  0  0  0  0  0  0  0  0  0  0
    0.4990    1.0230    0.3950 O   0  0  0  0  0  0  0  0  0  0  0  0
    1.5420   -0.8780   -0.2260 O   0  0  0  0  0  0  0  0  0  0  0  0
    2.4140   -0.2250   -1.0950 C   0  0  1  0  0  0  0  0  0  0  0  0
    3.8410   -0.3680   -0.6380 C   0  0  0  0  0  0  0  0  0  0  0  0
    4.7050   -0.3920   -1.8990 C   0  0  0  0  0  0  0  0  0  0  0  0
    4.1340    0.6550   -2.8290 C   0  0  0  0  0  0  0  0  0  0  0  0
    2.8910    0.3090   -3.3240 O   0  0  0  0  0  0  0  0  0  0  0  0
    2.2520   -0.6470   -2.5360 C   0  0  0  0  0  0  0  0  0  0  0  0
   -1.2380    0.0460    2.0880 C   0  0  1  0  0  0  0  0  0  0  0  0
   -0.4800    1.0450    2.8650 N   0  0  0  0  0  0  0  0  0  0  0  0
   -2.2120    0.7980    1.2690 C   0  0  0  0  0  0  0  0  0  0  0  0
   -3.2250   -0.0050    0.5030 C   0  0  0  0  0  0  0  0  0  0  0  0
   -4.1530    0.9930   -0.2240 C   0  0  2  0  0  0  0  0  0  0  0  0
   -5.1340    0.1670   -0.9520 N   0  0  0  0  0  0  0  0  0  0  0  0
   -3.3250    1.7010   -1.2240 C   0  0  0  0  0  0  0  0  0  0  0  0
   -3.5090    1.4710   -2.4070 O   0  0  0  0  0  0  0  0  0  0  0  0
  2  1  1  1
  2  3  1  0
  2  4  1  0
  2 13  1  0
  4  5  2  0
  4  6  1  0
  7  6  1  1
  7  8  1  0
  7 12  1  0
  8  9  1  0
  9 10  1  0
 10 11  1  0
 11 12  1  0
 13 14  1  6
 13 15  1  0
 15 16  1  0
 16 17  1  0
 17 18  1  6
 17 19  1  0
 19 20  2  0
M  CHG  1  14   1
M  END
