
     RDKit          3D

 20 20  0  0  0  0  0  0  0  0999 V2000
    2.9150    2.7540   -1.2960 C   0  0  0  0  0  0  0  0  0  0  0  0
    1.9300    1.6310   -1.6340 C   0  0  0  0  0  0  0  0  0  0  0  0
    1.8400    0.7660   -0.3880 C   0  0  2  0  0  0  0  0  0  0  0  0
    3.2450    0.2660   -0.1450 C   0  0  0  0  0  0  0  0  0  0  0  0
    3.3110   -0.6060    1.0670 C   0  0  0  0  0  0  0  0  0  0  0  0
    1.0110   -0.3110   -0.5470 O   0  0  0  0  0  0  0  0  0  0  0  0
   -0.0320   -0.4250    0.3100 C   0  0  2  0  0  0  0  0  0  0  0  0
    0.0330   -1.6340    1.1470 C   0  0  0  0  0  0  0  0  0  0  0  0
   -0.9290   -1.7500    2.0660 C   0  0  0  0  0  0  0  0  0  0  0  0
   -0.9810   -2.8930    2.9550 C   0  0  0  0  0  0  0  0  0  0  0  0
   -0.1260   -3.8060    2.8890 O   0  0  0  0  0  0  0  0  0  0  0  0
   -1.9930   -2.9740    3.8920 O   0  0  0  0  0  0  0  0  0  0  0  0
   -1.9120   -0.6430    2.1060 C   0  0  0  0  0  0  0  0  0  0  0  0
   -2.4530   -0.4260    0.7030 C   0  0  2  0  0  0  0  0  0  0  0  0
   -3.2640   -1.6230    0.4240 N   0  0  0  0  0  0  0  0  0  0  0  0
   -1.4020   -0.2750   -0.3380 C   0  0  1  0  0  0  0  0  0  0  0  0
   -1.4540    0.9250   -1.0980 N   0  0  0  0  0  0  0  0  0  0  0  0
   -1.5700    0.8950   -2.5010 C   0  0  0  0  0  0  0  0  0  0  0  0
   -1.6310    2.0870   -3.3640 C   0  0  0  0  0  0  0  0  0  0  0  0
   -1.6250   -0.2310   -3.0560 O   0  0  0  0  0  0  0  0  0  0  0  0
  1  2  1  0
  3  2  1  6
  3  4  1  0
  3  6  1  0
  4  5  1  0
  7  6  1  6
  7  8  1  0
  7 16  1  0
  8  9  2  0
  9 10  1  0
  9 13  1  0
 10 11  2  0
 10 12  1  0
 13 14  1  0
 14 15  1  6
 14 16  1  0
 16 17  1  1
 17 18  1  0
 18 19  1  0
 18 20  2  0
M  CHG  1  15   1
M  END
