
     RDKit          3D

 20 20  0  0  0  0  0  0  0  0999 V2000
   -3.6980   -1.8530    1.4150 C   0  0  0  0  0  0  0  0  0  0  0  0
   -2.3810   -1.1650    1.6790 C   0  0  0  0  0  0  0  0  0  0  0  0
   -1.5070   -1.1670    0.4150 C   0  0  2  0  0  0  0  0  0  0  0  0
   -1.3010   -2.6290    0.0820 C   0  0  0  0  0  0  0  0  0  0  0  0
   -0.2420   -0.4680    0.7960 C   0  0  0  0  0  0  0  0  0  0  0  0
    0.5710    0.0060   -0.3770 C   0  0  2  0  0  0  0  0  0  0  0  0
    1.1040   -1.1400   -1.0170 O   0  0  0  0  0  0  0  0  0  0  0  0
    1.7290    0.8190    0.0740 C   0  0  0  0  0  0  0  0  0  0  0  0
    2.5080   -0.0190    1.0020 N   0  0  0  0  0  0  0  0  0  0  0  0
    3.8770    0.3850    1.0560 C   0  0  0  0  0  0  0  0  0  0  0  0
    4.7570   -0.5580    0.2360 C   0  0  0  0  0  0  0  0  0  0  0  0
    6.0790   -0.1700    0.2870 O   0  0  0  0  0  0  0  0  0  0  0  0
   -0.3240    0.6670   -1.3710 C   0  0  2  0  0  0  0  0  0  0  0  0
   -0.9200    1.9260   -0.9250 C   0  0  0  0  0  0  0  0  0  0  0  0
   -1.7630    2.5970   -1.8010 O   0  0  0  0  0  0  0  0  0  0  0  0
   -0.7280    2.4680    0.2210 N   0  0  0  0  0  0  0  0  0  0  0  0
   -1.3140    3.6970    0.6510 C   0  0  0  0  0  0  0  0  0  0  0  0
   -1.3970   -0.3800   -1.7020 C   0  0  2  0  0  0  0  0  0  0  0  0
   -2.1350   -0.0350   -2.9650 C   0  0  0  0  0  0  0  0  0  0  0  0
   -2.2100   -0.5320   -0.6080 O   0  0  0  0  0  0  0  0  0  0  0  0
  1  2  1  0
  2  3  1  0
  3  4  1  6
  3  5  1  0
  3 20  1  0
  5  6  1  0
  6  7  1  6
  6  8  1  0
  6 13  1  0
  8  9  1  0
  9 10  1  0
 10 11  1  0
 11 12  1  0
 13 14  1  1
 13 18  1  0
 14 15  1  0
 14 16  2  3
 16 17  1  0
 18 19  1  6
 18 20  1  0
M  CHG  1   9   1
M  END
