
     RDKit          3D

 20 20  0  0  0  0  0  0  0  0999 V2000
    4.8970    1.5420   -1.6920 C   0  0  0  0  0  0  0  0  0  0  0  0
    4.7020    0.0490   -1.5360 C   0  0  0  0  0  0  0  0  0  0  0  0
    3.6970   -0.2350   -0.5850 O   0  0  0  0  0  0  0  0  0  0  0  0
    2.3860    0.1950   -0.7140 C   0  0  0  0  0  0  0  0  0  0  0  0
    2.1050    0.8680   -1.7390 O   0  0  0  0  0  0  0  0  0  0  0  0
    1.4050   -0.1540    0.3390 C   0  0  2  0  0  0  0  0  0  0  0  0
    0.0870    0.4280   -0.0500 C   0  0  0  0  0  0  0  0  0  0  0  0
    0.0160    1.0700   -1.1170 O   0  0  0  0  0  0  0  0  0  0  0  0
   -1.0760    0.2870    0.7310 N   0  0  0  0  0  0  0  0  0  0  0  0
   -2.3810    0.7520    0.5060 C   0  0  0  0  0  0  0  0  0  0  0  0
   -3.2090    0.2900   -0.6070 C   0  0  1  0  0  0  0  0  0  0  0  0
   -2.6960    0.5450   -1.9720 C   0  0  0  0  0  0  0  0  0  0  0  0
   -3.5540   -1.1330   -0.5200 N   0  0  0  0  0  0  0  0  0  0  0  0
   -4.5380    1.0860   -0.4960 C   0  0  0  0  0  0  0  0  0  0  0  0
   -5.2030    0.8040    0.8310 C   0  0  0  0  0  0  0  0  0  0  0  0
    1.8750    0.3060    1.6780 C   0  0  0  0  0  0  0  0  0  0  0  0
    2.8900   -0.7370    2.0870 C   0  0  0  0  0  0  0  0  0  0  0  0
    2.5290   -1.9780    1.2950 C   0  0  1  0  0  0  0  0  0  0  0  0
    2.2620   -3.0080    2.2180 O   0  0  0  0  0  0  0  0  0  0  0  0
    1.2900   -1.6510    0.5180 C   0  0  0  0  0  0  0  0  0  0  0  0
  1  2  1  0
  2  3  1  0
  3  4  1  0
  4  5  2  0
  6  4  1  6
  6  7  1  0
  6 16  1  0
  6 20  1  0
  7  8  2  0
  7  9  1  0
  9 10  1  0
 10 11  1  0
 11 12  1  6
 11 13  1  0
 11 14  1  0
 14 15  1  0
 16 17  1  0
 17 18  1  0
 18 19  1  1
 18 20  1  0
M  CHG  1  13   1
M  END
