
     RDKit          3D

 20 20  0  0  0  0  0  0  0  0999 V2000
   -4.9220   -0.8370   -1.0730 C   0  0  0  0  0  0  0  0  0  0  0  0
   -3.8640   -0.2220   -0.2030 C   0  0  2  0  0  0  0  0  0  0  0  0
   -4.0670    1.2620   -0.0010 C   0  0  0  0  0  0  0  0  0  0  0  0
   -2.6630    1.8450    0.1940 C   0  0  0  0  0  0  0  0  0  0  0  0
   -1.8770    1.0240    0.9820 O   0  0  0  0  0  0  0  0  0  0  0  0
   -1.5280   -0.1640    0.3690 C   0  0  2  0  0  0  0  0  0  0  0  0
   -1.7300   -1.2920    1.3770 C   0  0  0  0  0  0  0  0  0  0  0  0
   -0.1820   -0.1510    0.0190 O   0  0  0  0  0  0  0  0  0  0  0  0
    0.7580    0.0050    1.0210 C   0  0  0  0  0  0  0  0  0  0  0  0
    0.3310    0.1260    2.1970 O   0  0  0  0  0  0  0  0  0  0  0  0
    2.2020    0.0350    0.7720 C   0  0  2  0  0  0  0  0  0  0  0  0
    2.5450    1.1520   -0.1340 C   0  0  0  0  0  0  0  0  0  0  0  0
    3.3010    2.1600    0.2520 C   0  0  0  0  0  0  0  0  0  0  0  0
    3.6290    3.2440   -0.6390 C   0  0  0  0  0  0  0  0  0  0  0  0
    4.4380    4.3070   -0.2030 N   0  0  0  0  0  0  0  0  0  0  0  0
    3.1700    3.2120   -1.8240 O   0  0  0  0  0  0  0  0  0  0  0  0
    2.7310   -1.2290    0.1440 C   0  0  0  0  0  0  0  0  0  0  0  0
    2.5040   -2.4520    0.9760 C   0  0  0  0  0  0  0  0  0  0  0  0
    3.0630   -3.5800    0.2460 N   0  0  0  0  0  0  0  0  0  0  0  0
   -2.4700   -0.4060   -0.7670 C   0  0  0  0  0  0  0  0  0  0  0  0
  2  1  1  6
  2  3  1  0
  2 20  1  0
  3  4  1  0
  4  5  1  0
  5  6  1  0
  6  7  1  1
  6  8  1  0
  6 20  1  0
  8  9  1  0
  9 10  2  0
  9 11  1  0
 11 12  1  0
 11 17  1  6
 12 13  2  3
 13 14  1  0
 14 15  1  0
 14 16  2  0
 17 18  1  0
 18 19  1  0
M  CHG  1  19   1
M  END
