
     RDKit          3D

 20 21  0  0  0  0  0  0  0  0999 V2000
   -4.9790    0.8830   -0.1090 C   0  0  0  0  0  0  0  0  0  0  0  0
   -4.5370    0.0490   -1.1090 O   0  0  0  0  0  0  0  0  0  0  0  0
   -3.1930    0.0860   -1.3800 C   0  0  0  0  0  0  0  0  0  0  0  0
   -2.2610   -0.3220   -0.2810 C   0  0  1  0  0  0  0  0  0  0  0  0
   -2.7180   -1.7500    0.1220 C   0  0  0  0  0  0  0  0  0  0  0  0
   -1.8190   -2.3030    1.1160 N   0  0  0  0  0  0  0  0  0  0  0  0
   -0.8620   -0.4350   -0.8630 C   0  0  0  0  0  0  0  0  0  0  0  0
    0.0080    0.7680   -0.6290 C   0  0  2  0  0  0  0  0  0  0  0  0
    0.6300    1.0640   -1.8300 O   0  0  0  0  0  0  0  0  0  0  0  0
    0.9570    0.5600    0.5280 C   0  0  0  0  0  0  0  0  0  0  0  0
    1.9090   -0.5090    0.3450 N   0  0  0  0  0  0  0  0  0  0  0  0
    2.5960   -0.6300    1.6500 C   0  0  0  0  0  0  0  0  0  0  0  0
    3.5180    0.5630    1.7360 C   0  0  0  0  0  0  0  0  0  0  0  0
    3.9310    0.7560    0.3020 C   0  0  0  0  0  0  0  0  0  0  0  0
    3.0110   -0.1300   -0.5140 C   0  0  1  0  0  0  0  0  0  0  0  0
    3.7460   -1.4060   -0.8970 C   0  0  0  0  0  0  0  0  0  0  0  0
    4.8260   -1.1150   -1.7380 O   0  0  0  0  0  0  0  0  0  0  0  0
   -0.8250    1.9970   -0.2380 C   0  0  0  0  0  0  0  0  0  0  0  0
   -1.8250    1.6900    0.8230 C   0  0  0  0  0  0  0  0  0  0  0  0
   -2.2950    0.4080    0.8590 O   0  0  0  0  0  0  0  0  0  0  0  0
  1  2  1  0
  2  3  1  0
  4  3  1  6
  4  5  1  0
  4  7  1  0
  4 20  1  0
  5  6  1  0
  7  8  1  0
  8  9  1  6
  8 10  1  0
  8 18  1  0
 10 11  1  0
 11 12  1  0
 11 15  1  0
 12 13  1  0
 13 14  1  0
 14 15  1  0
 15 16  1  1
 16 17  1  0
 18 19  1  0
 19 20  1  0
M  CHG  1   6   1
M  END
