
     RDKit          3D

 20 20  0  0  0  0  0  0  0  0999 V2000
    6.5000    0.1640   -0.5320 C   0  0  0  0  0  0  0  0  0  0  0  0
    5.2020    0.7860   -0.0200 C   0  0  2  0  0  0  0  0  0  0  0  0
    4.9210    2.0930   -0.6960 C   0  0  0  0  0  0  0  0  0  0  0  0
    5.3550    0.9230    1.4860 C   0  0  0  0  0  0  0  0  0  0  0  0
    4.1670   -0.1710   -0.2730 O   0  0  0  0  0  0  0  0  0  0  0  0
    2.8470    0.0760    0.0720 C   0  0  0  0  0  0  0  0  0  0  0  0
    2.5120    1.1430    0.6150 O   0  0  0  0  0  0  0  0  0  0  0  0
    1.8120   -0.8910   -0.1860 N   0  0  0  0  0  0  0  0  0  0  0  0
    0.4400   -0.6300    0.1740 C   0  0  0  0  0  0  0  0  0  0  0  0
   -0.4830   -1.7470   -0.1520 C   0  0  1  0  0  0  0  0  0  0  0  0
   -0.1260   -3.0150    0.5740 C   0  0  0  0  0  0  0  0  0  0  0  0
    1.1180   -3.5200    0.3180 O   0  0  0  0  0  0  0  0  0  0  0  0
   -1.9230   -1.4410    0.1990 C   0  0  0  0  0  0  0  0  0  0  0  0
   -2.4210   -0.3490   -0.4570 O   0  0  0  0  0  0  0  0  0  0  0  0
   -3.7370   -0.1510   -0.0730 C   0  0  2  0  0  0  0  0  0  0  0  0
   -4.6980   -0.2730   -1.2330 C   0  0  0  0  0  0  0  0  0  0  0  0
   -4.8880    1.1260   -1.7430 C   0  0  0  0  0  0  0  0  0  0  0  0
   -4.8060    1.9860   -0.5020 C   0  0  0  0  0  0  0  0  0  0  0  0
   -3.9720    1.2270    0.4990 C   0  0  1  0  0  0  0  0  0  0  0  0
   -4.7440    1.0800    1.7140 N   0  0  0  0  0  0  0  0  0  0  0  0
  2  1  1  6
  2  3  1  0
  2  4  1  0
  2  5  1  0
  5  6  1  0
  6  7  2  0
  6  8  1  0
  8  9  1  0
 10  9  1  1
 10 11  1  0
 10 13  1  0
 11 12  1  0
 13 14  1  0
 15 14  1  6
 15 16  1  0
 15 19  1  0
 16 17  1  0
 17 18  1  0
 18 19  1  0
 19 20  1  1
M  CHG  1  20   1
M  END
