
     RDKit          3D

 20 20  0  0  0  0  0  0  0  0999 V2000
   -4.3690   -1.0390    2.9730 C   0  0  0  0  0  0  0  0  0  0  0  0
   -4.2580    0.3640    2.4140 C   0  0  0  0  0  0  0  0  0  0  0  0
   -3.5110    0.3870    1.2270 O   0  0  0  0  0  0  0  0  0  0  0  0
   -2.2020   -0.0210    1.1230 C   0  0  0  0  0  0  0  0  0  0  0  0
   -1.6050   -0.4460    2.1410 O   0  0  0  0  0  0  0  0  0  0  0  0
   -1.4610    0.0250   -0.1570 C   0  0  2  0  0  0  0  0  0  0  0  0
   -0.0610   -0.4720    0.0130 C   0  0  0  0  0  0  0  0  0  0  0  0
    0.2750   -0.8360    1.1500 O   0  0  0  0  0  0  0  0  0  0  0  0
    0.8440   -0.5300   -1.0560 N   0  0  0  0  0  0  0  0  0  0  0  0
    2.1960   -0.9470   -1.0490 C   0  0  0  0  0  0  0  0  0  0  0  0
    3.2310   -0.1590   -0.3590 C   0  0  1  0  0  0  0  0  0  0  0  0
    4.5870   -0.8750   -0.5060 C   0  0  0  0  0  0  0  0  0  0  0  0
    3.4270    1.1430   -1.0510 N   0  0  0  0  0  0  0  0  0  0  0  0
    3.0060    0.1460    1.0590 C   0  0  0  0  0  0  0  0  0  0  0  0
    4.2330    0.9400    1.5720 C   0  0  0  0  0  0  0  0  0  0  0  0
   -1.5260    1.4190   -0.6810 C   0  0  0  0  0  0  0  0  0  0  0  0
   -2.1680    1.3010   -2.0440 C   0  0  0  0  0  0  0  0  0  0  0  0
   -3.1160    0.1430   -1.8110 C   0  0  1  0  0  0  0  0  0  0  0  0
   -3.6630   -0.3270   -2.9970 O   0  0  0  0  0  0  0  0  0  0  0  0
   -2.1860   -0.8630   -1.1720 C   0  0  0  0  0  0  0  0  0  0  0  0
  1  2  1  0
  2  3  1  0
  3  4  1  0
  4  5  2  0
  6  4  1  1
  6  7  1  0
  6 16  1  0
  6 20  1  0
  7  8  2  0
  7  9  1  0
  9 10  1  0
 10 11  1  0
 11 12  1  1
 11 13  1  0
 11 14  1  0
 14 15  1  0
 16 17  1  0
 17 18  1  0
 18 19  1  6
 18 20  1  0
M  CHG  1  13   1
M  END
