
     RDKit          3D

 20 20  0  0  0  0  0  0  0  0999 V2000
   -3.4540   -2.2770   -0.0210 C   0  0  0  0  0  0  0  0  0  0  0  0
   -2.2120   -1.4700   -0.4010 C   0  0  1  0  0  0  0  0  0  0  0  0
   -1.0230   -2.3560   -0.2890 C   0  0  0  0  0  0  0  0  0  0  0  0
   -2.4090   -1.0980   -1.8600 C   0  0  0  0  0  0  0  0  0  0  0  0
   -2.1430   -0.2330    0.4280 C   0  0  1  0  0  0  0  0  0  0  0  0
   -2.0700   -0.5430    1.8460 N   0  0  0  0  0  0  0  0  0  0  0  0
   -1.0410    0.7130    0.1130 C   0  0  2  0  0  0  0  0  0  0  0  0
    0.1780    0.1180    0.4180 O   0  0  0  0  0  0  0  0  0  0  0  0
    1.0280    0.1850   -0.6590 C   0  0  0  0  0  0  0  0  0  0  0  0
    2.3780   -0.4570   -0.3710 C   0  0  1  0  0  0  0  0  0  0  0  0
    3.1010   -0.5310   -1.6700 C   0  0  0  0  0  0  0  0  0  0  0  0
    4.5490   -0.8960   -1.5660 C   0  0  0  0  0  0  0  0  0  0  0  0
    5.0250   -1.0050   -0.1390 C   0  0  0  0  0  0  0  0  0  0  0  0
    4.3950    0.0930    0.6470 C   0  0  0  0  0  0  0  0  0  0  0  0
    3.0380    0.1220    0.6590 O   0  0  0  0  0  0  0  0  0  0  0  0
   -1.2690    1.9180    0.9970 C   0  0  0  0  0  0  0  0  0  0  0  0
   -0.4410    2.2840    1.8680 O   0  0  0  0  0  0  0  0  0  0  0  0
   -2.4250    2.6720    0.8700 O   0  0  0  0  0  0  0  0  0  0  0  0
   -2.7130    3.8060    1.6540 C   0  0  0  0  0  0  0  0  0  0  0  0
   -1.7520    4.8590    1.5310 N   0  0  0  0  0  0  0  0  0  0  0  0
  2  1  1  1
  2  3  1  0
  2  4  1  0
  2  5  1  0
  5  6  1  1
  5  7  1  0
  7  8  1  1
  7 16  1  0
  8  9  1  0
 10  9  1  6
 10 11  1  0
 10 15  1  0
 11 12  1  0
 12 13  1  0
 13 14  1  0
 14 15  1  0
 16 17  2  0
 16 18  1  0
 18 19  1  0
 19 20  1  0
M  CHG  1   6   1
M  END
