
     RDKit          3D

 20 20  0  0  0  0  0  0  0  0999 V2000
   -0.4540    1.4290    1.3590 C   0  0  0  0  0  0  0  0  0  0  0  0
   -0.4680   -0.0570    1.0850 C   0  0  2  0  0  0  0  0  0  0  0  0
   -0.9380   -0.7760    2.3370 C   0  0  0  0  0  0  0  0  0  0  0  0
    0.9490   -0.4610    0.8650 C   0  0  0  0  0  0  0  0  0  0  0  0
    1.4600   -1.3200    1.6150 O   0  0  0  0  0  0  0  0  0  0  0  0
    1.7420    0.0660   -0.1370 O   0  0  0  0  0  0  0  0  0  0  0  0
    3.0730   -0.2970   -0.3640 C   0  0  1  0  0  0  0  0  0  0  0  0
    3.3170   -0.9090   -1.7120 C   0  0  0  0  0  0  0  0  0  0  0  0
    4.7480   -1.3310   -1.7940 C   0  0  0  0  0  0  0  0  0  0  0  0
    5.7210   -0.3310   -1.2630 C   0  0  0  0  0  0  0  0  0  0  0  0
    5.3230    0.2590   -0.0710 O   0  0  0  0  0  0  0  0  0  0  0  0
    4.0470    0.8410   -0.1860 C   0  0  0  0  0  0  0  0  0  0  0  0
   -1.2060   -0.4780   -0.1310 C   0  0  1  0  0  0  0  0  0  0  0  0
   -1.0510   -1.9580   -0.1820 N   0  0  0  0  0  0  0  0  0  0  0  0
   -2.6460   -0.2280   -0.2460 C   0  0  0  0  0  0  0  0  0  0  0  0
   -3.1350    1.1790   -0.1960 C   0  0  0  0  0  0  0  0  0  0  0  0
   -4.6720    1.1460   -0.3650 C   0  0  2  0  0  0  0  0  0  0  0  0
   -4.9910    0.5410   -1.6380 N   0  0  0  0  0  0  0  0  0  0  0  0
   -5.2250    2.5160   -0.2690 C   0  0  0  0  0  0  0  0  0  0  0  0
   -5.0850    3.2250    0.7120 O   0  0  0  0  0  0  0  0  0  0  0  0
  2  1  1  1
  2  3  1  0
  2  4  1  0
  2 13  1  0
  4  5  2  0
  4  6  1  0
  7  6  1  6
  7  8  1  0
  7 12  1  0
  8  9  1  0
  9 10  1  0
 10 11  1  0
 11 12  1  0
 13 14  1  1
 13 15  1  0
 15 16  1  0
 16 17  1  0
 17 18  1  6
 17 19  1  0
 19 20  2  0
M  CHG  1  14   1
M  END
