
     RDKit          3D

 20 20  0  0  0  0  0  0  0  0999 V2000
   -4.4750   -0.7470   -0.4900 C   0  0  0  0  0  0  0  0  0  0  0  0
   -3.4580   -0.4250    0.6110 C   0  0  2  0  0  0  0  0  0  0  0  0
   -3.6620    0.9600    1.1330 C   0  0  0  0  0  0  0  0  0  0  0  0
   -2.7410    1.9830    0.5880 C   0  0  0  0  0  0  0  0  0  0  0  0
   -1.4330    1.6410    0.4880 O   0  0  0  0  0  0  0  0  0  0  0  0
   -1.1370    0.3160    0.7440 C   0  0  2  0  0  0  0  0  0  0  0  0
   -1.2030    0.0790    2.2440 C   0  0  0  0  0  0  0  0  0  0  0  0
    0.1770    0.0520    0.3420 O   0  0  0  0  0  0  0  0  0  0  0  0
    0.6810    0.1870   -0.9350 C   0  0  0  0  0  0  0  0  0  0  0  0
   -0.1030    0.5830   -1.8280 O   0  0  0  0  0  0  0  0  0  0  0  0
    2.0920   -0.1190   -1.2750 C   0  0  2  0  0  0  0  0  0  0  0  0
    2.3850   -1.5350   -0.9370 C   0  0  0  0  0  0  0  0  0  0  0  0
    3.4000   -1.8610   -0.1800 C   0  0  0  0  0  0  0  0  0  0  0  0
    3.6740   -3.2760    0.1430 C   0  0  0  0  0  0  0  0  0  0  0  0
    2.8140   -4.2520   -0.3870 N   0  0  0  0  0  0  0  0  0  0  0  0
    4.6240   -3.6330    0.8560 O   0  0  0  0  0  0  0  0  0  0  0  0
    3.1120    0.7520   -0.6470 C   0  0  0  0  0  0  0  0  0  0  0  0
    3.0590    2.2070   -0.9440 C   0  0  0  0  0  0  0  0  0  0  0  0
    1.8450    2.8390   -0.5210 N   0  0  0  0  0  0  0  0  0  0  0  0
   -2.0860   -0.5510   -0.0140 C   0  0  0  0  0  0  0  0  0  0  0  0
  2  1  1  6
  2  3  1  0
  2 20  1  0
  3  4  1  0
  4  5  1  0
  5  6  1  0
  6  7  1  1
  6  8  1  0
  6 20  1  0
  8  9  1  0
  9 10  2  0
  9 11  1  0
 11 12  1  0
 11 17  1  1
 12 13  2  3
 13 14  1  0
 14 15  1  0
 14 16  2  0
 17 18  1  0
 18 19  1  0
M  CHG  1  19   1
M  END
