
     RDKit          3D

 20 20  0  0  0  0  0  0  0  0999 V2000
   -3.8340    0.8830   -1.3640 C   0  0  0  0  0  0  0  0  0  0  0  0
   -2.5400    1.1990   -0.6460 C   0  0  0  0  0  0  0  0  0  0  0  0
   -1.9940   -0.0220    0.0570 C   0  0  2  0  0  0  0  0  0  0  0  0
   -3.0540   -0.4650    1.0620 C   0  0  0  0  0  0  0  0  0  0  0  0
   -3.3530    0.5970    2.0680 C   0  0  0  0  0  0  0  0  0  0  0  0
   -0.8300    0.2080    0.7300 O   0  0  0  0  0  0  0  0  0  0  0  0
    0.2070   -0.6480    0.3920 C   0  0  2  0  0  0  0  0  0  0  0  0
    0.6840   -1.4590    1.5160 C   0  0  0  0  0  0  0  0  0  0  0  0
    1.9460   -1.8050    1.6280 C   0  0  0  0  0  0  0  0  0  0  0  0
    2.3540   -2.6140    2.7740 C   0  0  0  0  0  0  0  0  0  0  0  0
    1.5160   -2.9820    3.6490 O   0  0  0  0  0  0  0  0  0  0  0  0
    3.6640   -3.0200    2.9660 O   0  0  0  0  0  0  0  0  0  0  0  0
    2.9920   -1.4170    0.6470 C   0  0  0  0  0  0  0  0  0  0  0  0
    2.3480   -0.9530   -0.6670 C   0  0  2  0  0  0  0  0  0  0  0  0
    3.3930   -0.4480   -1.5020 N   0  0  0  0  0  0  0  0  0  0  0  0
    1.3460    0.1130   -0.2610 C   0  0  1  0  0  0  0  0  0  0  0  0
    0.8420    0.8440   -1.3990 N   0  0  0  0  0  0  0  0  0  0  0  0
    0.9720    2.2540   -1.5470 C   0  0  0  0  0  0  0  0  0  0  0  0
    0.4480    2.9950   -2.7260 C   0  0  0  0  0  0  0  0  0  0  0  0
    1.5660    2.8610   -0.6120 O   0  0  0  0  0  0  0  0  0  0  0  0
  1  2  1  0
  3  2  1  1
  3  4  1  0
  3  6  1  0
  4  5  1  0
  7  6  1  1
  7  8  1  0
  7 16  1  0
  8  9  2  0
  9 10  1  0
  9 13  1  0
 10 11  2  0
 10 12  1  0
 13 14  1  0
 14 15  1  6
 14 16  1  0
 16 17  1  6
 17 18  1  0
 18 19  1  0
 18 20  2  0
M  CHG  1  15   1
M  END
