
     RDKit          3D

 20 20  0  0  0  0  0  0  0  0999 V2000
   -2.4700   -2.6490    1.4370 C   0  0  0  0  0  0  0  0  0  0  0  0
   -2.2210   -1.4220    0.4940 C   0  0  1  0  0  0  0  0  0  0  0  0
   -1.9570   -2.0190   -0.8550 C   0  0  0  0  0  0  0  0  0  0  0  0
   -3.5520   -0.7310    0.4500 C   0  0  0  0  0  0  0  0  0  0  0  0
   -1.0720   -0.6730    1.0640 C   0  0  1  0  0  0  0  0  0  0  0  0
    0.0610   -1.6670    1.1180 N   0  0  0  0  0  0  0  0  0  0  0  0
   -0.5700    0.5380    0.3670 C   0  0  2  0  0  0  0  0  0  0  0  0
    0.5630    1.0620    1.0330 O   0  0  0  0  0  0  0  0  0  0  0  0
    1.5630    1.4880    0.2210 C   0  0  0  0  0  0  0  0  0  0  0  0
    2.1930    0.3900   -0.5690 C   0  0  1  0  0  0  0  0  0  0  0  0
    3.3030    0.9640   -1.4460 C   0  0  0  0  0  0  0  0  0  0  0  0
    3.7550   -0.1960   -2.3410 C   0  0  0  0  0  0  0  0  0  0  0  0
    4.3340   -1.2390   -1.4210 C   0  0  0  0  0  0  0  0  0  0  0  0
    3.3590   -1.5910   -0.3480 C   0  0  0  0  0  0  0  0  0  0  0  0
    2.8100   -0.5020    0.3020 O   0  0  0  0  0  0  0  0  0  0  0  0
   -1.5360    1.7130    0.4210 C   0  0  0  0  0  0  0  0  0  0  0  0
   -2.5720    1.7810   -0.2340 O   0  0  0  0  0  0  0  0  0  0  0  0
   -1.2530    2.7950    1.2580 O   0  0  0  0  0  0  0  0  0  0  0  0
   -2.1380    3.9120    1.3330 C   0  0  0  0  0  0  0  0  0  0  0  0
   -2.2970    4.5580    0.0460 N   0  0  0  0  0  0  0  0  0  0  0  0
  2  1  1  1
  2  3  1  0
  2  4  1  0
  2  5  1  0
  5  6  1  6
  5  7  1  0
  7  8  1  1
  7 16  1  0
  8  9  1  0
 10  9  1  1
 10 11  1  0
 10 15  1  0
 11 12  1  0
 12 13  1  0
 13 14  1  0
 14 15  1  0
 16 17  2  0
 16 18  1  0
 18 19  1  0
 19 20  1  0
M  CHG  1   6   1
M  END
