
     RDKit          3D

 20 20  0  0  0  0  0  0  0  0999 V2000
    5.8320    0.4290    1.7630 C   0  0  0  0  0  0  0  0  0  0  0  0
    5.7540    0.2250    0.2640 C   0  0  1  0  0  0  0  0  0  0  0  0
    6.6770    1.2280   -0.3860 C   0  0  0  0  0  0  0  0  0  0  0  0
    6.1780   -1.1710   -0.1300 C   0  0  0  0  0  0  0  0  0  0  0  0
    4.4390    0.5300   -0.1600 O   0  0  0  0  0  0  0  0  0  0  0  0
    3.3110   -0.1230    0.2880 C   0  0  0  0  0  0  0  0  0  0  0  0
    3.4520   -1.0440    1.1220 O   0  0  0  0  0  0  0  0  0  0  0  0
    2.0020    0.2120   -0.1620 N   0  0  0  0  0  0  0  0  0  0  0  0
    0.8250   -0.4840    0.3180 C   0  0  0  0  0  0  0  0  0  0  0  0
   -0.3780    0.1130   -0.3520 C   0  0  1  0  0  0  0  0  0  0  0  0
   -0.3250   -0.0110   -1.8520 C   0  0  0  0  0  0  0  0  0  0  0  0
   -1.4810    0.5720   -2.3690 O   0  0  0  0  0  0  0  0  0  0  0  0
   -1.6710   -0.5150    0.1220 C   0  0  0  0  0  0  0  0  0  0  0  0
   -2.7070    0.1070   -0.5560 O   0  0  0  0  0  0  0  0  0  0  0  0
   -3.9480   -0.3470   -0.2420 C   0  0  2  0  0  0  0  0  0  0  0  0
   -4.7340   -0.9000   -1.4020 C   0  0  0  0  0  0  0  0  0  0  0  0
   -6.1280   -1.0200   -0.7880 C   0  0  0  0  0  0  0  0  0  0  0  0
   -6.1900   -0.0430    0.3390 C   0  0  0  0  0  0  0  0  0  0  0  0
   -4.8920    0.7310    0.2600 C   0  0  1  0  0  0  0  0  0  0  0  0
   -4.4860    1.2630    1.5380 N   0  0  0  0  0  0  0  0  0  0  0  0
  2  1  1  1
  2  3  1  0
  2  4  1  0
  2  5  1  0
  5  6  1  0
  6  7  2  0
  6  8  1  0
  8  9  1  0
 10  9  1  1
 10 11  1  0
 10 13  1  0
 11 12  1  0
 13 14  1  0
 15 14  1  6
 15 16  1  0
 15 19  1  0
 16 17  1  0
 17 18  1  0
 18 19  1  0
 19 20  1  1
M  CHG  1  20   1
M  END
