
     RDKit          3D

 20 20  0  0  0  0  0  0  0  0999 V2000
    6.3070   -0.9330   -0.8700 C   0  0  0  0  0  0  0  0  0  0  0  0
    4.9620   -0.9630   -0.4100 O   0  0  0  0  0  0  0  0  0  0  0  0
    4.2700    0.1940   -0.1840 C   0  0  0  0  0  0  0  0  0  0  0  0
    4.8670    1.3020   -0.3980 O   0  0  0  0  0  0  0  0  0  0  0  0
    2.8640    0.2550    0.2960 C   0  0  2  0  0  0  0  0  0  0  0  0
    2.4000   -1.0940    0.4660 N   0  0  0  0  0  0  0  0  0  0  0  0
    2.0840    1.0280   -0.7320 C   0  0  0  0  0  0  0  0  0  0  0  0
    0.5980    1.1480   -0.3230 C   0  0  2  0  0  0  0  0  0  0  0  0
   -0.0340    1.9510   -1.4640 C   0  0  0  0  0  0  0  0  0  0  0  0
    0.6060    2.0490    0.8710 C   0  0  0  0  0  0  0  0  0  0  0  0
    0.1530   -0.0830   -0.1770 O   0  0  0  0  0  0  0  0  0  0  0  0
   -1.0400   -0.5060    0.1640 C   0  0  1  0  0  0  0  0  0  0  0  0
   -0.9550   -2.0500    0.1620 C   0  0  0  0  0  0  0  0  0  0  0  0
   -1.5650   -0.1660    1.5400 C   0  0  0  0  0  0  0  0  0  0  0  0
   -2.9290   -0.8680    1.5010 C   0  0  0  0  0  0  0  0  0  0  0  0
   -3.4440   -0.6080    0.1150 C   0  0  1  0  0  0  0  0  0  0  0  0
   -4.1430   -1.7050   -0.4640 N   0  0  0  0  0  0  0  0  0  0  0  0
   -4.4510    0.5430    0.2180 C   0  0  0  0  0  0  0  0  0  0  0  0
   -4.9180    0.8650   -1.0540 O   0  0  0  0  0  0  0  0  0  0  0  0
   -2.2250   -0.1770   -0.6990 C   0  0  0  0  0  0  0  0  0  0  0  0
  1  2  1  0
  2  3  1  0
  3  4  2  0
  3  5  1  0
  5  6  1  6
  5  7  1  0
  7  8  1  0
  8  9  1  6
  8 10  1  0
  8 11  1  0
 11 12  1  0
 12 13  1  1
 12 14  1  0
 12 20  1  0
 14 15  1  0
 15 16  1  0
 16 17  1  6
 16 18  1  0
 16 20  1  0
 18 19  1  0
M  CHG  1   6   1
M  END
