
     RDKit          3D

 20 20  0  0  0  0  0  0  0  0999 V2000
   -5.6220    2.0640    0.4700 C   0  0  0  0  0  0  0  0  0  0  0  0
   -4.4800    1.5690    1.3140 C   0  0  0  0  0  0  0  0  0  0  0  0
   -3.1920    1.4490    0.5690 C   0  0  0  0  0  0  0  0  0  0  0  0
   -3.2730    0.4920   -0.5960 C   0  0  2  0  0  0  0  0  0  0  0  0
   -3.6350   -0.9010   -0.2000 C   0  0  0  0  0  0  0  0  0  0  0  0
   -2.6730   -1.5900    0.5830 N   0  0  0  0  0  0  0  0  0  0  0  0
   -1.3130   -1.2500    0.3600 C   0  0  0  0  0  0  0  0  0  0  0  0
   -1.0040   -0.5690   -0.9360 C   0  0  2  0  0  0  0  0  0  0  0  0
   -0.9420   -1.6730   -2.0010 C   0  0  0  0  0  0  0  0  0  0  0  0
    0.2500    0.0860   -0.8320 O   0  0  0  0  0  0  0  0  0  0  0  0
    1.4470   -0.5350   -0.5640 C   0  0  0  0  0  0  0  0  0  0  0  0
    1.4170   -1.7810   -0.3990 O   0  0  0  0  0  0  0  0  0  0  0  0
    2.6870    0.1940   -0.4720 N   0  0  0  0  0  0  0  0  0  0  0  0
    3.8660   -0.5630   -0.1870 C   0  0  0  0  0  0  0  0  0  0  0  0
    5.1080    0.2740   -0.1090 C   0  0  2  0  0  0  0  0  0  0  0  0
    5.0150    1.3220    0.9770 C   0  0  0  0  0  0  0  0  0  0  0  0
    5.3670    0.9490   -1.3000 O   0  0  0  0  0  0  0  0  0  0  0  0
    6.3060   -0.6330    0.1380 C   0  0  0  0  0  0  0  0  0  0  0  0
    6.1710   -1.3700    1.3070 O   0  0  0  0  0  0  0  0  0  0  0  0
   -1.9940    0.4540   -1.3800 C   0  0  0  0  0  0  0  0  0  0  0  0
  1  2  1  0
  2  3  1  0
  4  3  1  1
  4  5  1  0
  4 20  1  0
  5  6  1  0
  6  7  1  0
  7  8  1  0
  8  9  1  6
  8 10  1  0
  8 20  1  0
 10 11  1  0
 11 12  2  0
 11 13  1  0
 13 14  1  0
 14 15  1  0
 15 16  1  1
 15 17  1  0
 15 18  1  0
 18 19  1  0
M  CHG  1   6   1
M  END
