
     RDKit          3D

 20 21  0  0  0  0  0  0  0  0999 V2000
    5.4770    0.2660    0.5510 C   0  0  0  0  0  0  0  0  0  0  0  0
    4.6320    0.3510    1.5940 O   0  0  0  0  0  0  0  0  0  0  0  0
    3.4270   -0.2650    1.5950 C   0  0  0  0  0  0  0  0  0  0  0  0
    2.4320    0.1040    0.5550 C   0  0  1  0  0  0  0  0  0  0  0  0
    2.6980   -0.3040   -0.8450 C   0  0  0  0  0  0  0  0  0  0  0  0
    2.9730   -1.7040   -1.0130 N   0  0  0  0  0  0  0  0  0  0  0  0
    1.1070   -0.5930    0.9300 C   0  0  0  0  0  0  0  0  0  0  0  0
   -0.1140    0.1250    0.4980 C   0  0  2  0  0  0  0  0  0  0  0  0
   -0.8020    0.4880    1.6840 O   0  0  0  0  0  0  0  0  0  0  0  0
   -0.9930   -0.8550   -0.2500 C   0  0  0  0  0  0  0  0  0  0  0  0
   -2.2370   -0.3740   -0.6180 N   0  0  0  0  0  0  0  0  0  0  0  0
   -3.0510   -1.2450   -1.4200 C   0  0  0  0  0  0  0  0  0  0  0  0
   -4.2670   -0.3910   -1.7000 C   0  0  0  0  0  0  0  0  0  0  0  0
   -4.1950    0.7620   -0.7100 C   0  0  0  0  0  0  0  0  0  0  0  0
   -3.0730    0.3300    0.2670 C   0  0  1  0  0  0  0  0  0  0  0  0
   -3.7770   -0.4600    1.3260 C   0  0  0  0  0  0  0  0  0  0  0  0
   -4.6250   -1.4390    0.8020 O   0  0  0  0  0  0  0  0  0  0  0  0
    0.0650    1.3590   -0.3100 C   0  0  0  0  0  0  0  0  0  0  0  0
    1.4250    1.9490   -0.3720 C   0  0  0  0  0  0  0  0  0  0  0  0
    2.2090    1.4770    0.6480 O   0  0  0  0  0  0  0  0  0  0  0  0
  1  2  1  0
  2  3  1  0
  4  3  1  1
  4  5  1  0
  4  7  1  0
  4 20  1  0
  5  6  1  0
  7  8  1  0
  8  9  1  1
  8 10  1  0
  8 18  1  0
 10 11  1  0
 11 12  1  0
 11 15  1  0
 12 13  1  0
 13 14  1  0
 14 15  1  0
 15 16  1  1
 16 17  1  0
 18 19  1  0
 19 20  1  0
M  CHG  1   6   1
M  END
