
     RDKit          3D

 20 20  0  0  0  0  0  0  0  0999 V2000
    3.4370    1.8360    1.1040 C   0  0  0  0  0  0  0  0  0  0  0  0
    2.4990    1.2130    0.1080 C   0  0  0  0  0  0  0  0  0  0  0  0
    2.0200   -0.1600    0.3780 C   0  0  2  0  0  0  0  0  0  0  0  0
    3.0330   -1.2250    0.4480 C   0  0  0  0  0  0  0  0  0  0  0  0
    4.0460   -1.0630    1.5310 C   0  0  0  0  0  0  0  0  0  0  0  0
    0.9250   -0.4600   -0.4140 O   0  0  0  0  0  0  0  0  0  0  0  0
   -0.2710   -0.6490    0.2030 C   0  0  2  0  0  0  0  0  0  0  0  0
   -0.7560   -2.0780    0.0150 C   0  0  0  0  0  0  0  0  0  0  0  0
   -2.0400   -2.3730   -0.0580 C   0  0  0  0  0  0  0  0  0  0  0  0
   -2.4140   -3.7650   -0.2390 C   0  0  0  0  0  0  0  0  0  0  0  0
   -3.6080   -4.0930   -0.3130 O   0  0  0  0  0  0  0  0  0  0  0  0
   -1.4620   -4.7740   -0.3350 O   0  0  0  0  0  0  0  0  0  0  0  0
   -3.1190   -1.3660    0.0350 C   0  0  0  0  0  0  0  0  0  0  0  0
   -2.5990    0.0170    0.3460 C   0  0  2  0  0  0  0  0  0  0  0  0
   -3.5540    1.0440    0.0310 N   0  0  0  0  0  0  0  0  0  0  0  0
   -1.3180    0.1860   -0.4710 C   0  0  1  0  0  0  0  0  0  0  0  0
   -1.0180    1.5700   -0.6150 N   0  0  0  0  0  0  0  0  0  0  0  0
   -0.9690    2.2600   -1.8510 C   0  0  0  0  0  0  0  0  0  0  0  0
   -0.6510    3.7130   -1.9640 C   0  0  0  0  0  0  0  0  0  0  0  0
   -1.2070    1.6100   -2.8980 O   0  0  0  0  0  0  0  0  0  0  0  0
  1  2  1  0
  3  2  1  6
  3  4  1  0
  3  6  1  0
  4  5  1  0
  7  6  1  6
  7  8  1  0
  7 16  1  0
  8  9  2  0
  9 10  1  0
  9 13  1  0
 10 11  2  0
 10 12  1  0
 13 14  1  0
 14 15  1  6
 14 16  1  0
 16 17  1  1
 17 18  1  0
 18 19  1  0
 18 20  2  0
M  CHG  1  15   1
M  END
