
     RDKit          3D

 20 20  0  0  0  0  0  0  0  0999 V2000
   -4.7650   -1.0070    1.3660 C   0  0  0  0  0  0  0  0  0  0  0  0
   -3.9980   -0.1090    0.4150 C   0  0  2  0  0  0  0  0  0  0  0  0
   -4.0850   -0.6060   -0.9910 C   0  0  0  0  0  0  0  0  0  0  0  0
   -2.8780   -0.3230   -1.8290 C   0  0  0  0  0  0  0  0  0  0  0  0
   -1.6870   -0.4140   -1.1580 O   0  0  0  0  0  0  0  0  0  0  0  0
   -1.5890    0.4130   -0.0710 C   0  0  2  0  0  0  0  0  0  0  0  0
   -1.7410    1.8750   -0.4100 C   0  0  0  0  0  0  0  0  0  0  0  0
   -0.3040    0.2280    0.5020 O   0  0  0  0  0  0  0  0  0  0  0  0
    0.8210    0.4930   -0.2730 C   0  0  0  0  0  0  0  0  0  0  0  0
    0.6540    0.8890   -1.4560 O   0  0  0  0  0  0  0  0  0  0  0  0
    2.2040    0.3120    0.2890 C   0  0  2  0  0  0  0  0  0  0  0  0
    3.2010    0.6470   -0.6930 C   0  0  0  0  0  0  0  0  0  0  0  0
    4.0800    1.5880   -0.6490 C   0  0  0  0  0  0  0  0  0  0  0  0
    4.2840    2.5460    0.4010 C   0  0  0  0  0  0  0  0  0  0  0  0
    5.3190    3.5490    0.3040 N   0  0  0  0  0  0  0  0  0  0  0  0
    3.6080    2.5920    1.4480 O   0  0  0  0  0  0  0  0  0  0  0  0
    2.3400   -1.1050    0.8310 C   0  0  0  0  0  0  0  0  0  0  0  0
    2.1230   -2.1380   -0.2390 C   0  0  0  0  0  0  0  0  0  0  0  0
    2.2750   -3.4410    0.3820 N   0  0  0  0  0  0  0  0  0  0  0  0
   -2.6070    0.0330    0.9420 C   0  0  0  0  0  0  0  0  0  0  0  0
  2  1  1  1
  2  3  1  0
  2 20  1  0
  3  4  1  0
  4  5  1  0
  5  6  1  0
  6  7  1  6
  6  8  1  0
  6 20  1  0
  8  9  1  0
  9 10  2  0
  9 11  1  0
 11 12  1  0
 11 17  1  6
 12 13  2  3
 13 14  1  0
 14 15  1  0
 14 16  2  0
 17 18  1  0
 18 19  1  0
M  CHG  1  19   1
M  END
