
     RDKit          3D

 20 20  0  0  0  0  0  0  0  0999 V2000
   -1.2540   -3.6820    0.6550 C   0  0  0  0  0  0  0  0  0  0  0  0
   -2.2400   -2.5210    0.5570 C   0  0  0  0  0  0  0  0  0  0  0  0
   -1.7630   -1.4900   -0.4420 C   0  0  2  0  0  0  0  0  0  0  0  0
   -1.6500   -2.2010   -1.7980 C   0  0  0  0  0  0  0  0  0  0  0  0
   -0.4010   -1.0250   -0.0100 C   0  0  0  0  0  0  0  0  0  0  0  0
    0.0690    0.1890   -0.7810 C   0  0  2  0  0  0  0  0  0  0  0  0
    0.4840   -0.3170   -2.0390 O   0  0  0  0  0  0  0  0  0  0  0  0
    1.2930    0.7280   -0.0940 C   0  0  0  0  0  0  0  0  0  0  0  0
    2.2620   -0.3670    0.0740 N   0  0  0  0  0  0  0  0  0  0  0  0
    3.5080    0.0980    0.5900 C   0  0  0  0  0  0  0  0  0  0  0  0
    4.2510   -0.9590    1.3790 C   0  0  0  0  0  0  0  0  0  0  0  0
    4.5420   -2.0750    0.6180 O   0  0  0  0  0  0  0  0  0  0  0  0
   -1.0130    1.1750   -1.0340 C   0  0  2  0  0  0  0  0  0  0  0  0
   -0.6860    2.5780   -0.7500 C   0  0  0  0  0  0  0  0  0  0  0  0
    0.3460    3.2090   -1.4190 O   0  0  0  0  0  0  0  0  0  0  0  0
   -1.3400    3.2620    0.1170 N   0  0  0  0  0  0  0  0  0  0  0  0
   -1.0950    4.6220    0.4570 C   0  0  0  0  0  0  0  0  0  0  0  0
   -2.2960    0.7750   -0.2930 C   0  0  2  0  0  0  0  0  0  0  0  0
   -2.2510    1.0970    1.1620 C   0  0  0  0  0  0  0  0  0  0  0  0
   -2.6910   -0.5050   -0.5800 O   0  0  0  0  0  0  0  0  0  0  0  0
  1  2  1  0
  2  3  1  0
  3  4  1  6
  3  5  1  0
  3 20  1  0
  5  6  1  0
  6  7  1  6
  6  8  1  0
  6 13  1  0
  8  9  1  0
  9 10  1  0
 10 11  1  0
 11 12  1  0
 13 14  1  1
 13 18  1  0
 14 15  1  0
 14 16  2  3
 16 17  1  0
 18 19  1  1
 18 20  1  0
M  CHG  1   9   1
M  END
