
     RDKit          3D

 26 29  0  0  0  0  0  0  0  0999 V2000
   -1.6050    2.7040   -0.9490 C   0  0  0  0  0  0  0  0  0  0  0  0
   -0.7370    1.5500   -0.5960 C   0  0  0  0  0  0  0  0  0  0  0  0
    0.6120    1.7420   -0.4240 C   0  0  0  0  0  0  0  0  0  0  0  0
    1.4610    0.6750   -0.0910 C   0  0  0  0  0  0  0  0  0  0  0  0
    2.8880    0.9510    0.0910 C   0  0  0  0  0  0  0  0  0  0  0  0
    3.5270    2.1660   -0.0830 C   0  0  0  0  0  0  0  0  0  0  0  0
    4.8280    1.9380    0.1930 N   0  0  0  0  0  0  0  0  0  0  0  0
    5.0210    0.6870    0.5170 N   0  0  0  0  0  0  0  0  0  0  0  0
    6.2210   -0.0230    0.8880 C   0  0  0  0  0  0  0  0  0  0  0  0
    3.8290    0.1050    0.4490 N   0  0  0  0  0  0  0  0  0  0  0  0
    0.8740   -0.5490    0.0500 C   0  0  0  0  0  0  0  0  0  0  0  0
   -0.4930   -0.7230   -0.1260 C   0  0  0  0  0  0  0  0  0  0  0  0
   -1.3350    0.3190   -0.4540 C   0  0  0  0  0  0  0  0  0  0  0  0
   -2.7720    0.1870   -0.6490 C   0  0  0  0  0  0  0  0  0  0  0  0
   -3.3650   -0.0980   -1.8800 C   0  0  0  0  0  0  0  0  0  0  0  0
   -4.7020   -0.1540   -1.7290 N   0  0  0  0  0  0  0  0  0  0  0  0
   -4.9780    0.0870   -0.4330 C   0  0  0  0  0  0  0  0  0  0  0  0
   -3.7880    0.3010    0.2540 C   0  0  0  0  0  0  0  0  0  0  0  0
   -3.5980    0.6010    1.6910 C   0  0  1  0  0  0  0  0  0  0  0  0
   -2.8280   -0.3550    2.3220 F   0  0  0  0  0  0  0  0  0  0  0  0
   -3.0890    1.8750    1.8560 F   0  0  0  0  0  0  0  0  0  0  0  0
   -4.8560    0.6060    2.2820 F   0  0  0  0  0  0  0  0  0  0  0  0
   -1.0660   -2.0560    0.0600 C   0  0  0  0  0  0  0  0  0  0  0  0
   -0.2640   -3.1260   -0.4140 N   0  0  0  0  0  0  0  0  0  0  0  0
    1.1110   -2.8390   -0.5980 C   0  0  0  0  0  0  0  0  0  0  0  0
    1.6450   -1.7580    0.3750 C   0  0  0  0  0  0  0  0  0  0  0  0
  1  2  1  0
  2  3  2  0
  2 13  1  0
  3  4  1  0
  4  5  1  0
  4 11  2  0
  5  6  1  0
  5 10  2  0
  6  7  2  0
  7  8  1  0
  8  9  1  0
  8 10  1  0
 11 12  1  0
 11 26  1  0
 12 13  2  0
 12 23  1  0
 13 14  1  0
 14 15  2  0
 14 18  1  0
 15 16  1  0
 16 17  1  0
 17 18  2  0
 18 19  1  0
 19 20  1  1
 19 21  1  0
 19 22  1  0
 23 24  1  0
 24 25  1  0
 25 26  1  0
M  END
