
     RDKit          3D

 26 29  0  0  0  0  0  0  0  0999 V2000
   -0.2150    0.7010    2.3010 C   0  0  0  0  0  0  0  0  0  0  0  0
    0.5080    0.4780    1.0230 C   0  0  0  0  0  0  0  0  0  0  0  0
    1.8240    0.3250    1.0100 N   0  0  0  0  0  0  0  0  0  0  0  0
    2.5580    0.1210   -0.0960 C   0  0  0  0  0  0  0  0  0  0  0  0
    3.9540   -0.0220    0.0580 N   0  0  0  0  0  0  0  0  0  0  0  0
    4.8810   -0.2650   -1.0230 C   0  0  0  0  0  0  0  0  0  0  0  0
    6.0840    0.5500   -0.5300 C   0  0  0  0  0  0  0  0  0  0  0  0
    6.1580    0.0670    0.9190 C   0  0  0  0  0  0  0  0  0  0  0  0
    4.6850    0.0500    1.2950 C   0  0  0  0  0  0  0  0  0  0  0  0
    1.9260    0.0670   -1.2650 N   0  0  0  0  0  0  0  0  0  0  0  0
    0.5810    0.2170   -1.3140 C   0  0  0  0  0  0  0  0  0  0  0  0
   -0.1740    0.4240   -0.1950 C   0  0  0  0  0  0  0  0  0  0  0  0
   -1.6130    0.6250   -0.1430 C   0  0  0  0  0  0  0  0  0  0  0  0
   -2.1440    1.7720    0.3130 N   0  0  0  0  0  0  0  0  0  0  0  0
   -3.4450    2.0320    0.4290 C   0  0  0  0  0  0  0  0  0  0  0  0
   -4.3130    1.0350    0.0490 C   0  0  0  0  0  0  0  0  0  0  0  0
   -5.7760    1.2800    0.1700 C   0  0  1  0  0  0  0  0  0  0  0  0
   -6.3660    0.3810    1.0380 F   0  0  0  0  0  0  0  0  0  0  0  0
   -5.9860    2.5460    0.6760 F   0  0  0  0  0  0  0  0  0  0  0  0
   -6.3930    1.2540   -1.0730 F   0  0  0  0  0  0  0  0  0  0  0  0
   -3.8160   -0.1760   -0.4300 C   0  0  0  0  0  0  0  0  0  0  0  0
   -2.4640   -0.4070   -0.5370 C   0  0  0  0  0  0  0  0  0  0  0  0
   -1.9600   -1.6680   -1.0620 C   0  0  0  0  0  0  0  0  0  0  0  0
   -2.9870   -2.6490   -1.2580 N   0  0  0  0  0  0  0  0  0  0  0  0
   -4.3660   -2.3960   -1.1550 C   0  0  0  0  0  0  0  0  0  0  0  0
   -4.8010   -1.2250   -0.7600 C   0  0  0  0  0  0  0  0  0  0  0  0
  1  2  1  0
  2  3  2  0
  2 12  1  0
  3  4  1  0
  4  5  1  0
  4 10  2  0
  5  6  1  0
  5  9  1  0
  6  7  1  0
  7  8  1  0
  8  9  1  0
 10 11  1  0
 11 12  2  0
 12 13  1  0
 13 14  2  0
 13 22  1  0
 14 15  1  0
 15 16  2  0
 16 17  1  0
 16 21  1  0
 17 18  1  1
 17 19  1  0
 17 20  1  0
 21 22  2  0
 21 26  1  0
 22 23  1  0
 23 24  1  0
 24 25  1  0
 25 26  2  0
M  END
