
     RDKit          3D

 26 28  0  0  0  0  0  0  0  0999 V2000
   -3.5340    0.8230    3.2370 C   0  0  0  0  0  0  0  0  0  0  0  0
   -3.2830   -0.0130    2.2750 C   0  0  0  0  0  0  0  0  0  0  0  0
   -3.9540   -1.3300    2.2430 C   0  0  0  0  0  0  0  0  0  0  0  0
   -3.2140   -2.2580    1.3390 C   0  0  0  0  0  0  0  0  0  0  0  0
   -1.7070   -2.0110    1.5070 C   0  0  0  0  0  0  0  0  0  0  0  0
   -1.3670   -0.7280    0.8610 N   0  0  0  0  0  0  0  0  0  0  0  0
   -0.2430   -0.5660    0.0170 C   0  0  0  0  0  0  0  0  0  0  0  0
    1.0800   -0.7480    0.6700 C   0  0  0  0  0  0  0  0  0  0  0  0
    1.3190   -1.0310    1.9520 N   0  0  0  0  0  0  0  0  0  0  0  0
    2.6310   -1.0980    2.1000 N   0  0  0  0  0  0  0  0  0  0  0  0
    3.2560   -0.8640    0.9380 C   0  0  0  0  0  0  0  0  0  0  0  0
    4.7210   -0.8550    0.7140 C   0  0  0  0  0  0  0  0  0  0  0  0
    2.2860   -0.6300   -0.0300 C   0  0  0  0  0  0  0  0  0  0  0  0
    2.4640   -0.3320   -1.4360 C   0  0  0  0  0  0  0  0  0  0  0  0
    2.5740    0.9790   -1.8430 C   0  0  0  0  0  0  0  0  0  0  0  0
    2.7440    1.3250   -3.1620 C   0  0  0  0  0  0  0  0  0  0  0  0
    2.8620    2.7250   -3.6060 C   0  0  0  0  0  0  0  0  0  0  0  0
    2.8000    0.3330   -4.0590 N   0  0  0  0  0  0  0  0  0  0  0  0
    2.6960   -0.9610   -3.7030 C   0  0  0  0  0  0  0  0  0  0  0  0
    2.5310   -1.2610   -2.3990 N   0  0  0  0  0  0  0  0  0  0  0  0
   -2.3320    0.3030    1.2100 C   0  0  0  0  0  0  0  0  0  0  0  0
   -2.3730    1.4320    0.5950 C   0  0  0  0  0  0  0  0  0  0  0  0
   -3.2900    2.5660    0.7820 C   0  0  1  0  0  0  0  0  0  0  0  0
   -3.4920    3.1040   -0.5170 F   0  0  0  0  0  0  0  0  0  0  0  0
   -4.5550    2.2180    1.1890 F   0  0  0  0  0  0  0  0  0  0  0  0
   -2.7470    3.6230    1.4870 F   0  0  0  0  0  0  0  0  0  0  0  0
  1  2  2  0
  2  3  1  0
  2 21  1  0
  3  4  1  0
  4  5  1  0
  5  6  1  0
  6  7  1  0
  6 21  1  0
  7  8  1  0
  8  9  1  0
  8 13  2  0
  9 10  1  0
 10 11  2  0
 11 12  1  0
 11 13  1  0
 13 14  1  0
 14 15  2  0
 14 20  1  0
 15 16  1  0
 16 17  1  0
 16 18  2  0
 18 19  1  0
 19 20  2  0
 21 22  2  3
 22 23  1  0
 23 24  1  6
 23 25  1  0
 23 26  1  0
M  END
