
     RDKit          3D

 26 29  0  0  0  0  0  0  0  0999 V2000
   -4.6310   -2.2650   -1.0650 C   0  0  0  0  0  0  0  0  0  0  0  0
   -4.9760   -1.6930    0.3100 C   0  0  0  0  0  0  0  0  0  0  0  0
   -4.3170   -0.3330    0.4170 C   0  0  0  0  0  0  0  0  0  0  0  0
   -2.8650   -0.4910    0.2730 N   0  0  0  0  0  0  0  0  0  0  0  0
   -2.0840    0.6790    0.3460 C   0  0  0  0  0  0  0  0  0  0  0  0
   -2.6380    1.8860    0.5390 N   0  0  0  0  0  0  0  0  0  0  0  0
   -1.9250    3.0260    0.6150 C   0  0  0  0  0  0  0  0  0  0  0  0
   -0.5490    2.9960    0.4930 C   0  0  0  0  0  0  0  0  0  0  0  0
    0.2450    4.2470    0.5760 C   0  0  2  0  0  0  0  0  0  0  0  0
   -0.5680    5.3430    0.7780 F   0  0  0  0  0  0  0  0  0  0  0  0
    0.8900    4.4030   -0.6560 F   0  0  0  0  0  0  0  0  0  0  0  0
    1.1860    4.1180    1.5880 F   0  0  0  0  0  0  0  0  0  0  0  0
    0.0500    1.7750    0.2950 C   0  0  0  0  0  0  0  0  0  0  0  0
    1.3900    1.7700    0.1790 N   0  0  0  0  0  0  0  0  0  0  0  0
    2.0380    0.6190   -0.0160 C   0  0  0  0  0  0  0  0  0  0  0  0
    3.4290    0.5700   -0.1420 C   0  0  0  0  0  0  0  0  0  0  0  0
    4.1110   -0.6090   -0.3420 C   0  0  0  0  0  0  0  0  0  0  0  0
    5.4850   -0.6460   -0.4650 C   0  0  0  0  0  0  0  0  0  0  0  0
    6.1400   -1.8440   -0.6660 C   0  0  0  0  0  0  0  0  0  0  0  0
    5.3690   -2.9870   -0.7370 C   0  0  0  0  0  0  0  0  0  0  0  0
    4.0320   -2.9230   -0.6140 N   0  0  0  0  0  0  0  0  0  0  0  0
    3.3620   -1.7630   -0.4170 C   0  0  0  0  0  0  0  0  0  0  0  0
    2.0220   -1.7250   -0.2970 N   0  0  0  0  0  0  0  0  0  0  0  0
    1.3520   -0.5680   -0.1000 C   0  0  0  0  0  0  0  0  0  0  0  0
   -0.0290   -0.5490    0.0210 C   0  0  0  0  0  0  0  0  0  0  0  0
   -0.7200    0.6080    0.2200 C   0  0  0  0  0  0  0  0  0  0  0  0
  1  2  1  0
  2  3  1  0
  3  4  1  0
  4  5  1  0
  5  6  2  0
  5 26  1  0
  6  7  1  0
  7  8  2  0
  8  9  1  0
  8 13  1  0
  9 10  1  1
  9 11  1  0
  9 12  1  0
 13 14  2  0
 13 26  1  0
 14 15  1  0
 15 16  2  0
 15 24  1  0
 16 17  1  0
 17 18  2  0
 17 22  1  0
 18 19  1  0
 19 20  2  0
 20 21  1  0
 21 22  2  0
 22 23  1  0
 23 24  2  0
 24 25  1  0
 25 26  2  0
M  END
