
     RDKit          3D

 27 30  0  0  0  0  0  0  0  0999 V2000
   -3.2800    2.9280   -0.7240 C   0  0  0  0  0  0  0  0  0  0  0  0
   -3.7660    1.5460   -0.4330 C   0  0  0  0  0  0  0  0  0  0  0  0
   -5.0780    1.2030   -0.4270 C   0  0  0  0  0  0  0  0  0  0  0  0
   -5.4980   -0.0950   -0.1510 C   0  0  0  0  0  0  0  0  0  0  0  0
   -4.5970   -1.0930    0.1290 C   0  0  0  0  0  0  0  0  0  0  0  0
   -3.2400   -0.7360    0.1230 C   0  0  0  0  0  0  0  0  0  0  0  0
   -2.8190    0.5420   -0.1480 C   0  0  0  0  0  0  0  0  0  0  0  0
   -1.4220    0.9700   -0.1680 C   0  0  0  0  0  0  0  0  0  0  0  0
   -0.4740   -0.0330    0.1160 N   0  0  0  0  0  0  0  0  0  0  0  0
    0.9550    0.2550    0.1300 C   0  0  0  0  0  0  0  0  0  0  0  0
    1.4180    1.5220   -0.1330 C   0  0  0  0  0  0  0  0  0  0  0  0
    2.7880    1.7720   -0.1140 C   0  0  0  0  0  0  0  0  0  0  0  0
    3.7010    0.7790    0.1650 C   0  0  0  0  0  0  0  0  0  0  0  0
    5.0780    1.0340    0.1840 C   0  0  0  0  0  0  0  0  0  0  0  0
    5.9940    0.0460    0.4620 C   0  0  0  0  0  0  0  0  0  0  0  0
    7.4280    0.2940    0.4850 C   0  0  0  0  0  0  0  0  0  0  0  0
    7.9570    1.4370    0.2540 N   0  0  0  0  0  0  0  0  0  0  0  0
    5.5170   -1.2400    0.7290 C   0  0  0  0  0  0  0  0  0  0  0  0
    6.4760   -2.2510    1.0140 N   0  0  0  0  0  0  0  0  0  0  0  0
    4.1570   -1.4640    0.7040 C   0  0  0  0  0  0  0  0  0  0  0  0
    3.2350   -0.4900    0.4290 C   0  0  0  0  0  0  0  0  0  0  0  0
    1.8630   -0.7290    0.4070 C   0  0  0  0  0  0  0  0  0  0  0  0
   -5.3010   -2.3650    0.3830 C   0  0  2  0  0  0  0  0  0  0  0  0
   -4.9180   -3.3660   -0.5080 O   0  0  0  0  0  0  0  0  0  0  0  0
   -6.7230   -2.0240    0.2250 C   0  0  0  0  0  0  0  0  0  0  0  0
   -7.6970   -2.8240    0.3550 O   0  0  0  0  0  0  0  0  0  0  0  0
   -6.8130   -0.6470   -0.0980 N   0  0  0  0  0  0  0  0  0  0  0  0
  1  2  1  0
  2  3  2  0
  2  7  1  0
  3  4  1  0
  4  5  2  0
  4 27  1  0
  5  6  1  0
  5 23  1  0
  6  7  2  0
  7  8  1  0
  8  9  1  0
  9 10  1  0
 10 11  2  0
 10 22  1  0
 11 12  1  0
 12 13  2  0
 13 14  1  0
 13 21  1  0
 14 15  2  0
 15 16  1  0
 15 18  1  0
 16 17  2  0
 18 19  1  0
 18 20  2  0
 20 21  1  0
 21 22  2  0
 23 24  1  6
 23 25  1  0
 25 26  2  0
 25 27  1  0
M  END
