
     RDKit          3D

 26 29  0  0  0  0  0  0  0  0999 V2000
   -2.1640    5.8480    0.3230 F   0  0  0  0  0  0  0  0  0  0  0  0
   -1.8880    4.5970   -0.1660 C   0  0  1  0  0  0  0  0  0  0  0  0
   -3.0260    4.1220   -0.7980 F   0  0  0  0  0  0  0  0  0  0  0  0
   -0.7940    4.6120   -1.0160 F   0  0  0  0  0  0  0  0  0  0  0  0
   -1.5460    3.6960    0.9910 C   0  0  0  0  0  0  0  0  0  0  0  0
   -1.2450    2.3450    0.4910 N   0  0  0  0  0  0  0  0  0  0  0  0
   -0.0530    1.9120    0.1330 N   0  0  0  0  0  0  0  0  0  0  0  0
   -0.1570    0.6260   -0.2730 C   0  0  0  0  0  0  0  0  0  0  0  0
    0.9500   -0.1760   -0.7230 N   0  0  0  0  0  0  0  0  0  0  0  0
    2.2870    0.3480   -0.7990 C   0  0  2  0  0  0  0  0  0  0  0  0
    3.2220   -0.7020   -1.2970 C   0  0  0  0  0  0  0  0  0  0  0  0
    3.9090   -1.3380   -0.1050 C   0  0  0  0  0  0  0  0  0  0  0  0
    4.8560   -0.3150    0.4830 C   0  0  0  0  0  0  0  0  0  0  0  0
    4.2480    1.0860    0.4420 C   0  0  0  0  0  0  0  0  0  0  0  0
    2.7400    0.9690    0.5010 C   0  0  0  0  0  0  0  0  0  0  0  0
   -1.4730    0.2620   -0.1570 C   0  0  0  0  0  0  0  0  0  0  0  0
   -2.0600   -1.0440   -0.4750 C   0  0  0  0  0  0  0  0  0  0  0  0
   -1.7710   -1.6780   -1.6630 C   0  0  0  0  0  0  0  0  0  0  0  0
   -2.3390   -2.9060   -1.9150 C   0  0  0  0  0  0  0  0  0  0  0  0
   -3.1830   -3.5180   -1.0220 C   0  0  0  0  0  0  0  0  0  0  0  0
   -3.4450   -2.8440    0.1600 C   0  0  0  0  0  0  0  0  0  0  0  0
   -4.2430   -3.2190    1.2170 C   0  0  0  0  0  0  0  0  0  0  0  0
   -4.1720   -2.2050    2.1480 C   0  0  0  0  0  0  0  0  0  0  0  0
   -3.3310   -1.2460    1.6220 C   0  0  0  0  0  0  0  0  0  0  0  0
   -2.8870   -1.6430    0.4010 N   0  0  0  0  0  0  0  0  0  0  0  0
   -2.1000    1.3540    0.3170 N   0  0  0  0  0  0  0  0  0  0  0  0
  2  1  1  1
  2  3  1  0
  2  4  1  0
  2  5  1  0
  5  6  1  0
  6  7  1  0
  6 26  1  0
  7  8  2  0
  8  9  1  0
  8 16  1  0
 10  9  1  1
 10 11  1  0
 10 15  1  0
 11 12  1  0
 12 13  1  0
 13 14  1  0
 14 15  1  0
 16 17  1  0
 16 26  2  0
 17 18  2  0
 17 25  1  0
 18 19  1  0
 19 20  2  0
 20 21  1  0
 21 22  2  0
 21 25  1  0
 22 23  1  0
 23 24  2  0
 24 25  1  0
M  END
