
     RDKit          3D

 16 16  0  0  0  0  0  0  0  0999 V2000
   -2.2270   -1.8890   -0.6000 C   0  0  0  0  0  0  0  0  0  0  0  0
   -2.2340   -0.4230   -0.3520 C   0  0  0  0  0  0  0  0  0  0  0  0
   -3.0800    0.4970   -0.8450 N   0  0  0  0  0  0  0  0  0  0  0  0
   -2.7640    1.7170   -0.3900 C   0  0  0  0  0  0  0  0  0  0  0  0
   -1.6440    1.5300    0.4410 C   0  0  0  0  0  0  0  0  0  0  0  0
   -0.9820    2.5620    1.1390 N   0  0  0  0  0  0  0  0  0  0  0  0
   -0.0170    2.3140    1.8580 O   0  0  0  0  0  0  0  0  0  0  0  0
   -1.4200    3.8460    1.0230 O   0  0  0  0  0  0  0  0  0  0  0  0
   -1.3360    0.2210    0.4510 N   0  0  0  0  0  0  0  0  0  0  0  0
   -0.2700   -0.4500    1.1360 C   0  0  0  0  0  0  0  0  0  0  0  0
    0.9930   -0.6030    0.3500 C   0  0  0  0  0  0  0  0  0  0  0  0
    1.5750    0.5570   -0.0670 O   0  0  0  0  0  0  0  0  0  0  0  0
    2.9700    0.3580   -0.9350 S   0  0  2  0  0  0  0  0  0  0  0  0
    3.5790   -1.2480   -0.8950 N   0  0  0  0  0  0  0  0  0  0  0  0
    4.0730    1.2730   -0.4800 O   0  0  0  0  0  0  0  0  0  0  0  0
    2.6770    0.7020   -2.3780 O   0  0  0  0  0  0  0  0  0  0  0  0
  1  2  1  0
  2  3  2  0
  2  9  1  0
  3  4  1  0
  4  5  2  0
  5  6  1  0
  5  9  1  0
  6  7  2  0
  6  8  1  0
  9 10  1  0
 10 11  1  0
 11 12  1  0
 12 13  1  0
 13 14  1  6
 13 15  2  0
 13 16  2  0
M  CHG  2   6   1   8  -1
M  END
