
     RDKit          3D

 26 29  0  0  0  0  0  0  0  0999 V2000
    1.6490   -2.6380   -1.5310 C   0  0  0  0  0  0  0  0  0  0  0  0
    2.6500   -2.0550   -0.9500 C   0  0  0  0  0  0  0  0  0  0  0  0
    2.6660   -0.9020   -0.0750 C   0  0  0  0  0  0  0  0  0  0  0  0
    3.8560   -0.5070    0.3930 C   0  0  0  0  0  0  0  0  0  0  0  0
    5.1180   -1.1910    0.0590 C   0  0  1  0  0  0  0  0  0  0  0  0
    5.1450   -2.5080    0.4710 F   0  0  0  0  0  0  0  0  0  0  0  0
    5.4100   -1.1770   -1.2960 F   0  0  0  0  0  0  0  0  0  0  0  0
    6.1810   -0.5890    0.7630 F   0  0  0  0  0  0  0  0  0  0  0  0
    1.4570   -0.1620    0.2780 C   0  0  0  0  0  0  0  0  0  0  0  0
    0.3540   -0.5860   -0.2520 N   0  0  0  0  0  0  0  0  0  0  0  0
   -1.0150   -0.2230   -0.2210 C   0  0  0  0  0  0  0  0  0  0  0  0
   -1.9600   -1.1780   -0.5330 C   0  0  0  0  0  0  0  0  0  0  0  0
   -3.1990   -0.5440   -0.4210 C   0  0  0  0  0  0  0  0  0  0  0  0
   -2.9420    0.7260   -0.0570 N   0  0  0  0  0  0  0  0  0  0  0  0
   -1.6560    0.9440    0.0680 N   0  0  0  0  0  0  0  0  0  0  0  0
   -1.1760    2.2280    0.4480 C   0  0  0  0  0  0  0  0  0  0  0  0
   -2.2210    3.0660    0.1530 C   0  0  0  0  0  0  0  0  0  0  0  0
   -2.0830    4.4140    0.4040 C   0  0  0  0  0  0  0  0  0  0  0  0
   -0.9570    4.9250    0.9270 N   0  0  0  0  0  0  0  0  0  0  0  0
    0.0480    4.0870    1.2060 C   0  0  0  0  0  0  0  0  0  0  0  0
   -0.0090    2.7070    0.9830 C   0  0  0  0  0  0  0  0  0  0  0  0
    1.3080    2.2740    1.4490 C   0  0  0  0  0  0  0  0  0  0  0  0
    1.6700    0.9190    1.1900 N   0  0  0  0  0  0  0  0  0  0  0  0
   -4.2780   -1.5310   -0.7490 C   0  0  0  0  0  0  0  0  0  0  0  0
   -3.5820   -2.8400   -0.3600 C   0  0  0  0  0  0  0  0  0  0  0  0
   -2.1960   -2.5890   -0.9350 C   0  0  0  0  0  0  0  0  0  0  0  0
  1  2  2  0
  2  3  1  0
  3  4  2  3
  3  9  1  0
  4  5  1  0
  5  6  1  1
  5  7  1  0
  5  8  1  0
  9 10  2  0
  9 23  1  0
 10 11  1  0
 11 12  2  0
 11 15  1  0
 12 13  1  0
 12 26  1  0
 13 14  2  0
 13 24  1  0
 14 15  1  0
 15 16  1  0
 16 17  2  0
 16 21  1  0
 17 18  1  0
 18 19  2  0
 19 20  1  0
 20 21  2  0
 21 22  1  0
 22 23  1  0
 24 25  1  0
 25 26  1  0
M  END
