
     RDKit          3D

 19 20  0  0  0  0  0  0  0  0999 V2000
    3.3340    1.9830   -1.1660 O   0  0  0  0  0  0  0  0  0  0  0  0
    2.6540    1.6480   -0.1540 C   0  0  0  0  0  0  0  0  0  0  0  0
    1.3210    2.2670   -0.0330 C   0  0  0  0  0  0  0  0  0  0  0  0
    0.4370    1.5500    1.3620 S   0  0  0  0  0  0  0  0  0  0  0  0
    0.0290   -0.1680    0.9660 C   0  0  0  0  0  0  0  0  0  0  0  0
   -0.9840   -0.1000   -0.1900 C   0  0  2  0  0  0  0  0  0  0  0  0
   -2.0850    0.6130    0.2750 O   0  0  0  0  0  0  0  0  0  0  0  0
   -3.4030    0.2230    0.1880 C   0  0  0  0  0  0  0  0  0  0  0  0
   -4.5300    0.8480    0.4960 C   0  0  0  0  0  0  0  0  0  0  0  0
   -5.6790   -0.0450    0.1990 C   0  0  0  0  0  0  0  0  0  0  0  0
   -5.0090   -1.2540   -0.3190 C   0  0  0  0  0  0  0  0  0  0  0  0
   -3.6910   -1.1080   -0.3290 C   0  0  0  0  0  0  0  0  0  0  0  0
   -2.6180   -1.9430   -0.7190 N   0  0  0  0  0  0  0  0  0  0  0  0
   -1.2900   -1.4890   -0.6070 C   0  0  0  0  0  0  0  0  0  0  0  0
   -0.2890   -2.2300   -0.8530 O   0  0  0  0  0  0  0  0  0  0  0  0
    3.1610    0.7290    0.8000 N   0  0  0  0  0  0  0  0  0  0  0  0
    4.4630    0.1230    0.6680 C   0  0  0  0  0  0  0  0  0  0  0  0
    4.5760   -0.6780   -0.5840 C   0  0  0  0  0  0  0  0  0  0  0  0
    5.8550   -1.2370   -0.6540 O   0  0  0  0  0  0  0  0  0  0  0  0
  1  2  2  0
  2  3  1  0
  2 16  1  0
  3  4  1  0
  4  5  1  0
  6  5  1  1
  6  7  1  0
  6 14  1  0
  7  8  1  0
  8  9  2  0
  8 12  1  0
  9 10  1  0
 10 11  1  0
 11 12  2  0
 12 13  1  0
 13 14  1  0
 14 15  2  0
 16 17  1  0
 17 18  1  0
 18 19  1  0
M  END
