
     RDKit          3D

 26 28  0  0  0  0  0  0  0  0999 V2000
   -7.8990   -0.1540   -0.3300 C   0  0  0  0  0  0  0  0  0  0  0  0
   -7.3480    1.0270   -0.3660 C   0  0  0  0  0  0  0  0  0  0  0  0
   -5.8780    1.1590   -0.2110 C   0  0  0  0  0  0  0  0  0  0  0  0
   -5.3560    2.3600   -0.2530 C   0  0  0  0  0  0  0  0  0  0  0  0
   -5.0580   -0.0550   -0.0120 C   0  0  0  0  0  0  0  0  0  0  0  0
   -3.6490    0.1500    0.1310 N   0  0  1  0  0  0  0  0  0  0  0  0
   -3.0250   -0.9590    0.8700 C   0  0  0  0  0  0  0  0  0  0  0  0
   -1.5210   -0.8250    0.8430 C   0  0  0  0  0  0  0  0  0  0  0  0
   -1.0670    0.3660    0.2310 N   0  0  0  0  0  0  0  0  0  0  0  0
    0.2060    0.8630    0.5720 C   0  0  0  0  0  0  0  0  0  0  0  0
    1.3270    0.0060    0.1010 C   0  0  0  0  0  0  0  0  0  0  0  0
    1.0850   -1.0480   -0.5350 O   0  0  0  0  0  0  0  0  0  0  0  0
    2.6890    0.3560    0.3570 N   0  0  0  0  0  0  0  0  0  0  0  0
    2.9930    1.5690    1.0880 C   0  0  0  0  0  0  0  0  0  0  0  0
    4.3970    1.6350    1.5840 C   0  0  0  0  0  0  0  0  0  0  0  0
    4.9700    0.2730    1.9150 C   0  0  0  0  0  0  0  0  0  0  0  0
    4.9320   -0.5230    0.6580 C   0  0  0  0  0  0  0  0  0  0  0  0
    3.7720   -0.4500   -0.0850 C   0  0  0  0  0  0  0  0  0  0  0  0
    3.8930   -1.2000   -1.1500 O   0  0  0  0  0  0  0  0  0  0  0  0
    5.0780   -1.7570   -1.1330 C   0  0  0  0  0  0  0  0  0  0  0  0
    5.6720   -2.6960   -2.1420 C   0  0  0  0  0  0  0  0  0  0  0  0
    5.7750   -1.3620   -0.0120 C   0  0  0  0  0  0  0  0  0  0  0  0
    7.1090   -1.7230    0.4140 C   0  0  0  0  0  0  0  0  0  0  0  0
    7.5880   -1.2570    1.4830 O   0  0  0  0  0  0  0  0  0  0  0  0
   -1.6080    0.7090   -1.0320 C   0  0  0  0  0  0  0  0  0  0  0  0
   -3.0540    0.2720   -1.1740 C   0  0  0  0  0  0  0  0  0  0  0  0
  1  2  2  0
  2  3  1  0
  3  4  2  0
  3  5  1  0
  6  5  1  6
  6  7  1  0
  6 26  1  0
  7  8  1  0
  8  9  1  0
  9 10  1  0
  9 25  1  0
 10 11  1  0
 11 12  2  0
 11 13  1  0
 13 14  1  0
 13 18  1  0
 14 15  1  0
 15 16  1  0
 16 17  1  0
 17 18  2  0
 17 22  1  0
 18 19  1  0
 19 20  1  0
 20 21  1  0
 20 22  2  0
 22 23  1  0
 23 24  2  0
 25 26  1  0
M  CHG  1   6   1
M  END
