
     RDKit          3D

 19 20  0  0  0  0  0  0  0  0999 V2000
   -5.0800    1.2270   -0.6550 C   0  0  0  0  0  0  0  0  0  0  0  0
   -4.0120    0.6660    0.2230 C   0  0  1  0  0  0  0  0  0  0  0  0
   -4.5160   -0.5110    1.0560 C   0  0  0  0  0  0  0  0  0  0  0  0
   -3.1890   -1.1210    1.5010 C   0  0  0  0  0  0  0  0  0  0  0  0
   -2.2090   -0.5490    0.4990 C   0  0  1  0  0  0  0  0  0  0  0  0
   -1.3410   -1.6440   -0.0660 C   0  0  0  0  0  0  0  0  0  0  0  0
   -0.4140   -1.1760   -1.0590 N   0  0  0  0  0  0  0  0  0  0  0  0
    0.5590   -0.1980   -0.7400 C   0  0  0  0  0  0  0  0  0  0  0  0
    0.6700    0.3110    0.4160 O   0  0  0  0  0  0  0  0  0  0  0  0
    1.4970    0.2900   -1.7060 N   0  0  0  0  0  0  0  0  0  0  0  0
    2.4870    1.2900   -1.3650 C   0  0  0  0  0  0  0  0  0  0  0  0
    3.3660    0.7390   -0.2550 C   0  0  0  0  0  0  0  0  0  0  0  0
    3.4660    1.3100    0.8950 C   0  0  0  0  0  0  0  0  0  0  0  0
    4.3590    0.6730    1.8960 C   0  0  0  0  0  0  0  0  0  0  0  0
    5.3540   -0.3510    0.8350 S   0  0  2  0  0  0  0  0  0  0  0  0
    5.5980   -1.6650    1.4750 O   0  0  0  0  0  0  0  0  0  0  0  0
    6.5850    0.3360    0.3760 O   0  0  0  0  0  0  0  0  0  0  0  0
    4.1390   -0.4880   -0.4880 C   0  0  0  0  0  0  0  0  0  0  0  0
   -2.9750    0.0740   -0.4790 O   0  0  0  0  0  0  0  0  0  0  0  0
  2  1  1  6
  2  3  1  0
  2 19  1  0
  3  4  1  0
  4  5  1  0
  5  6  1  6
  5 19  1  0
  6  7  1  0
  7  8  1  0
  8  9  2  0
  8 10  1  0
 10 11  1  0
 11 12  1  0
 12 13  2  0
 12 18  1  0
 13 14  1  0
 15 14  1  1
 15 16  2  0
 15 17  2  0
 15 18  1  0
M  END
