
     RDKit          3D

 26 28  0  0  0  0  0  0  0  0999 V2000
    6.3250    3.0020   -0.0850 C   0  0  0  0  0  0  0  0  0  0  0  0
    5.2890    2.3310    0.6380 O   0  0  0  0  0  0  0  0  0  0  0  0
    4.9130    1.0400    0.3000 C   0  0  0  0  0  0  0  0  0  0  0  0
    5.4540    0.4060   -0.6410 O   0  0  0  0  0  0  0  0  0  0  0  0
    3.8370    0.3640    1.0610 C   0  0  0  0  0  0  0  0  0  0  0  0
    3.5840   -0.9550    0.5750 N   0  0  0  0  0  0  0  0  0  0  0  0
    4.2090   -2.0780    1.0260 C   0  0  0  0  0  0  0  0  0  0  0  0
    3.7180   -3.1570    0.3370 C   0  0  0  0  0  0  0  0  0  0  0  0
    2.7770   -2.6690   -0.5490 C   0  0  0  0  0  0  0  0  0  0  0  0
    2.6990   -1.2940   -0.3940 C   0  0  0  0  0  0  0  0  0  0  0  0
    1.8150   -0.4030   -1.1510 C   0  0  0  0  0  0  0  0  0  0  0  0
    0.5160   -0.2070   -0.5150 N   0  0  1  0  0  0  0  0  0  0  0  0
   -0.2540    0.6120   -1.4140 C   0  0  0  0  0  0  0  0  0  0  0  0
   -1.6880    0.1910   -1.3520 C   0  0  0  0  0  0  0  0  0  0  0  0
   -2.0500   -0.0290    0.1520 C   0  0  1  0  0  0  0  0  0  0  0  0
   -3.4180    0.3280    0.3350 C   0  0  0  0  0  0  0  0  0  0  0  0
   -4.3240   -0.5330    0.7430 C   0  0  0  0  0  0  0  0  0  0  0  0
   -3.9900   -1.9170    1.0470 C   0  0  0  0  0  0  0  0  0  0  0  0
   -5.7830   -0.1880    0.8820 C   0  0  0  0  0  0  0  0  0  0  0  0
   -6.4950    0.7570    0.3120 C   0  0  0  0  0  0  0  0  0  0  0  0
   -5.9780    1.7110   -0.6180 O   0  0  0  0  0  0  0  0  0  0  0  0
   -4.7230    2.3410   -0.3870 N   0  0  0  0  0  0  0  0  0  0  0  0
   -3.6410    1.7860    0.0130 C   0  0  0  0  0  0  0  0  0  0  0  0
   -2.4950    2.6820    0.2210 C   0  0  0  0  0  0  0  0  0  0  0  0
   -1.4590   -1.3740    0.3640 C   0  0  0  0  0  0  0  0  0  0  0  0
   -0.0630   -1.4850   -0.3020 C   0  0  0  0  0  0  0  0  0  0  0  0
  1  2  1  0
  2  3  1  0
  3  4  2  0
  3  5  1  0
  5  6  1  0
  6  7  1  0
  6 10  1  0
  7  8  2  0
  8  9  1  0
  9 10  2  0
 10 11  1  0
 12 11  1  6
 12 13  1  0
 12 26  1  0
 13 14  1  0
 14 15  1  0
 15 16  1  6
 15 25  1  0
 16 17  2  0
 16 23  1  0
 17 18  1  0
 17 19  1  0
 19 20  2  0
 20 21  1  0
 21 22  1  0
 22 23  2  0
 23 24  1  0
 25 26  1  0
M  CHG  1  12   1
M  END
