
     RDKit          3D

 26 28  0  0  0  0  0  0  0  0999 V2000
    9.6090   -0.5380   -0.1110 C   0  0  0  0  0  0  0  0  0  0  0  0
    8.2840   -0.5410   -0.2830 C   0  0  0  0  0  0  0  0  0  0  0  0
    7.4990   -1.3710   -1.1990 C   0  0  0  0  0  0  0  0  0  0  0  0
    6.0920   -0.9340   -0.9500 C   0  0  0  0  0  0  0  0  0  0  0  0
    6.0810   -0.0120   -0.0470 C   0  0  0  0  0  0  0  0  0  0  0  0
    4.9590    0.7110    0.5190 C   0  0  0  0  0  0  0  0  0  0  0  0
    5.2350    1.6090    1.4250 O   0  0  0  0  0  0  0  0  0  0  0  0
    3.6260    0.5590    0.2070 N   0  0  0  0  0  0  0  0  0  0  0  0
    2.6370    1.4240    0.9010 C   0  0  0  0  0  0  0  0  0  0  0  0
    1.5850    0.5390    1.5040 C   0  0  0  0  0  0  0  0  0  0  0  0
    1.2120   -0.5530    0.6800 N   0  0  1  0  0  0  0  0  0  0  0  0
   -0.1460   -1.0030    0.8710 C   0  0  0  0  0  0  0  0  0  0  0  0
   -1.1600   -0.0540    0.3000 C   0  0  0  0  0  0  0  0  0  0  0  0
   -2.5460   -0.5960    0.5400 C   0  0  0  0  0  0  0  0  0  0  0  0
   -2.6670   -1.6870    1.1360 O   0  0  0  0  0  0  0  0  0  0  0  0
   -3.6950    0.0990    0.1100 N   0  0  0  0  0  0  0  0  0  0  0  0
   -3.9470    1.3410   -0.5830 C   0  0  0  0  0  0  0  0  0  0  0  0
   -5.3490    0.8960   -0.8470 C   0  0  2  0  0  0  0  0  0  0  0  0
   -5.6050    0.3030   -2.2060 C   0  0  0  0  0  0  0  0  0  0  0  0
   -6.3430    1.9710   -0.4720 C   0  0  0  0  0  0  0  0  0  0  0  0
   -5.1090   -0.1500    0.1870 C   0  0  1  0  0  0  0  0  0  0  0  0
   -5.4160   -1.5550   -0.2740 C   0  0  0  0  0  0  0  0  0  0  0  0
   -5.7300    0.0920    1.5430 C   0  0  0  0  0  0  0  0  0  0  0  0
    1.5210   -0.2740   -0.6950 C   0  0  0  0  0  0  0  0  0  0  0  0
    3.0840   -0.3850   -0.7470 C   0  0  0  0  0  0  0  0  0  0  0  0
    7.4030    0.2570    0.3870 O   0  0  0  0  0  0  0  0  0  0  0  0
  1  2  2  0
  2  3  1  0
  2 26  1  0
  3  4  1  0
  4  5  2  0
  5  6  1  0
  5 26  1  0
  6  7  2  0
  6  8  1  0
  8  9  1  0
  8 25  1  0
  9 10  1  0
 10 11  1  0
 11 12  1  6
 11 24  1  0
 12 13  1  0
 13 14  1  0
 14 15  2  0
 14 16  1  0
 16 17  1  0
 16 21  1  0
 17 18  1  0
 18 19  1  6
 18 20  1  0
 18 21  1  0
 21 22  1  6
 21 23  1  0
 24 25  1  0
M  CHG  1  11   1
M  END
