
     RDKit          3D

 24 27  0  0  0  0  0  0  0  0999 V2000
    5.3360    0.8930   -0.7030 C   0  0  0  0  0  0  0  0  0  0  0  0
    4.1070    1.3560   -0.0010 C   0  0  0  0  0  0  0  0  0  0  0  0
    2.9920    0.6530    0.1690 C   0  0  0  0  0  0  0  0  0  0  0  0
    2.4540   -0.5590   -0.1110 N   0  0  0  0  0  0  0  0  0  0  0  0
    1.1840   -0.6380    0.3830 C   0  0  0  0  0  0  0  0  0  0  0  0
    0.3250   -1.8230    0.2860 C   0  0  0  0  0  0  0  0  0  0  0  0
   -0.9210   -1.9090   -0.0910 C   0  0  0  0  0  0  0  0  0  0  0  0
   -1.8080   -0.8430   -0.5250 C   0  0  0  0  0  0  0  0  0  0  0  0
   -1.4740    0.3660   -0.6130 O   0  0  0  0  0  0  0  0  0  0  0  0
   -3.1210   -1.1150   -0.8780 O   0  0  0  0  0  0  0  0  0  0  0  0
   -3.9630   -0.0890   -1.2910 C   0  0  0  0  0  0  0  0  0  0  0  0
   -4.1620    0.9780   -0.2900 C   0  0  0  0  0  0  0  0  0  0  0  0
   -3.5790    2.2230   -0.3150 C   0  0  0  0  0  0  0  0  0  0  0  0
   -4.0250    2.9180    0.8100 C   0  0  0  0  0  0  0  0  0  0  0  0
   -4.8240    2.1190    1.4530 O   0  0  0  0  0  0  0  0  0  0  0  0
   -4.9410    0.9500    0.8430 C   0  0  0  0  0  0  0  0  0  0  0  0
   -1.3730   -3.3410   -0.0190 C   0  0  0  0  0  0  0  0  0  0  0  0
   -0.1530   -4.1540    0.2350 C   0  0  0  0  0  0  0  0  0  0  0  0
    0.8410   -3.1650    0.6390 C   0  0  0  0  0  0  0  0  0  0  0  0
    1.9400   -3.4250    1.1910 O   0  0  0  0  0  0  0  0  0  0  0  0
    0.9500    0.5750    0.9850 C   0  0  0  0  0  0  0  0  0  0  0  0
    2.0760    1.3980    0.8600 C   0  0  0  0  0  0  0  0  0  0  0  0
    2.5420    2.5910    1.1620 C   0  0  0  0  0  0  0  0  0  0  0  0
    3.9130    2.6820    0.6310 C   0  0  0  0  0  0  0  0  0  0  0  0
  1  2  1  0
  2  3  2  0
  2 24  1  0
  3  4  1  0
  3 22  1  0
  4  5  1  0
  5  6  1  0
  5 21  2  0
  6  7  2  0
  6 19  1  0
  7  8  1  0
  7 17  1  0
  8  9  2  0
  8 10  1  0
 10 11  1  0
 11 12  1  0
 12 13  1  0
 12 16  2  0
 13 14  2  0
 14 15  1  0
 15 16  1  0
 17 18  1  0
 18 19  1  0
 19 20  2  0
 21 22  1  0
 22 23  2  0
 23 24  1  0
M  END
