
     RDKit          3D

 24 27  0  0  0  0  0  0  0  0999 V2000
    6.3550    1.8400   -0.2480 C   0  0  0  0  0  0  0  0  0  0  0  0
    5.3140    0.8930    0.2730 C   0  0  0  0  0  0  0  0  0  0  0  0
    5.4270   -0.0600    1.2470 C   0  0  0  0  0  0  0  0  0  0  0  0
    4.1800   -0.6460    1.3360 C   0  0  0  0  0  0  0  0  0  0  0  0
    3.3530   -0.0390    0.4200 C   0  0  0  0  0  0  0  0  0  0  0  0
    1.9370   -0.3110    0.1290 C   0  0  0  0  0  0  0  0  0  0  0  0
    1.5190   -1.4850   -0.2260 C   0  0  0  0  0  0  0  0  0  0  0  0
    2.3930   -2.6690   -0.3910 C   0  0  0  0  0  0  0  0  0  0  0  0
    3.6440   -2.7620   -0.2140 O   0  0  0  0  0  0  0  0  0  0  0  0
    1.5410   -3.6850   -0.7940 O   0  0  0  0  0  0  0  0  0  0  0  0
    0.2960   -3.2190   -0.8760 N   0  0  0  0  0  0  0  0  0  0  0  0
    0.1950   -1.9490   -0.5600 C   0  0  0  0  0  0  0  0  0  0  0  0
   -1.0690   -1.2500   -0.6360 C   0  0  0  0  0  0  0  0  0  0  0  0
   -2.1260   -1.8470   -1.3660 C   0  0  0  0  0  0  0  0  0  0  0  0
   -3.3720   -1.3100   -1.4630 C   0  0  0  0  0  0  0  0  0  0  0  0
   -3.6120   -0.1190   -0.8120 C   0  0  0  0  0  0  0  0  0  0  0  0
   -2.6220    0.5050   -0.0870 C   0  0  0  0  0  0  0  0  0  0  0  0
   -1.3530   -0.0710   -0.0050 C   0  0  0  0  0  0  0  0  0  0  0  0
   -2.9340    1.7680    0.5880 C   0  0  0  0  0  0  0  0  0  0  0  0
   -2.0010    2.5550    0.8140 O   0  0  0  0  0  0  0  0  0  0  0  0
   -4.3290    2.1030    0.9930 C   0  0  0  0  0  0  0  0  0  0  0  0
   -5.2720    1.0130    0.5330 C   0  0  0  0  0  0  0  0  0  0  0  0
   -4.9440    0.5460   -0.8650 C   0  0  0  0  0  0  0  0  0  0  0  0
    4.0980    0.8760   -0.1840 O   0  0  0  0  0  0  0  0  0  0  0  0
  1  2  1  0
  2  3  2  0
  2 24  1  0
  3  4  1  0
  4  5  2  0
  5  6  1  0
  5 24  1  0
  6  7  2  3
  7  8  1  0
  7 12  1  0
  8  9  2  0
  8 10  1  0
 10 11  1  0
 11 12  2  0
 12 13  1  0
 13 14  2  0
 13 18  1  0
 14 15  1  0
 15 16  2  0
 16 17  1  0
 16 23  1  0
 17 18  2  0
 17 19  1  0
 19 20  2  0
 19 21  1  0
 21 22  1  0
 22 23  1  0
M  END
