
     RDKit          3D

 24 27  0  0  0  0  0  0  0  0999 V2000
   -4.2070   -1.5390   -0.5760 C   0  0  0  0  0  0  0  0  0  0  0  0
   -4.6460   -0.1660   -0.2040 C   0  0  0  0  0  0  0  0  0  0  0  0
   -5.9200    0.2540   -0.5200 C   0  0  0  0  0  0  0  0  0  0  0  0
   -6.2790    1.5380   -0.1530 C   0  0  0  0  0  0  0  0  0  0  0  0
   -5.4100    2.3780    0.5040 C   0  0  0  0  0  0  0  0  0  0  0  0
   -4.1340    1.9110    0.8040 C   0  0  0  0  0  0  0  0  0  0  0  0
   -3.7400    0.6370    0.4530 C   0  0  0  0  0  0  0  0  0  0  0  0
   -2.4540    0.2420    0.7840 O   0  0  0  0  0  0  0  0  0  0  0  0
   -1.3690    0.4300   -0.0610 C   0  0  0  0  0  0  0  0  0  0  0  0
   -1.5810    0.9800   -1.1640 O   0  0  0  0  0  0  0  0  0  0  0  0
   -0.0680   -0.0190    0.3830 C   0  0  0  0  0  0  0  0  0  0  0  0
    0.1160   -0.6190    1.6060 C   0  0  0  0  0  0  0  0  0  0  0  0
    1.3660   -1.0490    2.0270 C   0  0  0  0  0  0  0  0  0  0  0  0
    2.4510   -0.8600    1.1790 C   0  0  0  0  0  0  0  0  0  0  0  0
    3.7580   -1.1490    1.2750 N   0  0  0  0  0  0  0  0  0  0  0  0
    4.4360   -0.7640    0.1680 C   0  0  0  0  0  0  0  0  0  0  0  0
    3.5240   -0.1990   -0.6850 C   0  0  0  0  0  0  0  0  0  0  0  0
    2.2920   -0.2650   -0.0420 C   0  0  0  0  0  0  0  0  0  0  0  0
    1.0160    0.1600   -0.4440 C   0  0  0  0  0  0  0  0  0  0  0  0
    3.9070    0.3480   -1.9930 C   0  0  0  0  0  0  0  0  0  0  0  0
    3.0680    0.8500   -2.7420 O   0  0  0  0  0  0  0  0  0  0  0  0
    5.2850    0.2370   -2.2840 O   0  0  0  0  0  0  0  0  0  0  0  0
    6.1930    0.2670   -1.1600 C   0  0  0  0  0  0  0  0  0  0  0  0
    5.8730   -0.8660   -0.2220 C   0  0  0  0  0  0  0  0  0  0  0  0
  1  2  1  0
  2  3  2  0
  2  7  1  0
  3  4  1  0
  4  5  2  0
  5  6  1  0
  6  7  2  0
  7  8  1  0
  8  9  1  0
  9 10  2  0
  9 11  1  0
 11 12  2  0
 11 19  1  0
 12 13  1  0
 13 14  2  0
 14 15  1  0
 14 18  1  0
 15 16  1  0
 16 17  2  0
 16 24  1  0
 17 18  1  0
 17 20  1  0
 18 19  2  0
 20 21  2  0
 20 22  1  0
 22 23  1  0
 23 24  1  0
M  END
