
     RDKit          3D

 23 25  0  0  0  0  0  0  0  0999 V2000
    6.8490   -1.0320    0.1810 C   0  0  0  0  0  0  0  0  0  0  0  0
    5.7690   -0.2160    0.7450 C   0  0  0  0  0  0  0  0  0  0  0  0
    6.0440    0.6400    1.6220 O   0  0  0  0  0  0  0  0  0  0  0  0
    4.3920   -0.4070    0.2840 C   0  0  0  0  0  0  0  0  0  0  0  0
    4.1160   -1.3140   -0.6430 C   0  0  0  0  0  0  0  0  0  0  0  0
    2.7600   -1.5360   -1.1300 C   0  0  0  0  0  0  0  0  0  0  0  0
    1.7450   -0.8170   -0.6460 C   0  0  0  0  0  0  0  0  0  0  0  0
    2.0020    0.1840    0.3660 C   0  0  0  0  0  0  0  0  0  0  0  0
    1.0640    0.9500    0.9110 C   0  0  0  0  0  0  0  0  0  0  0  0
    1.5180    1.9490    1.9620 C   0  0  0  0  0  0  0  0  0  0  0  0
   -0.3370    0.9370    0.6150 C   0  0  0  0  0  0  0  0  0  0  0  0
   -1.0910    1.7570    1.2490 O   0  0  0  0  0  0  0  0  0  0  0  0
   -1.0030    0.1350   -0.2890 O   0  0  0  0  0  0  0  0  0  0  0  0
   -2.3740    0.2380   -0.4680 C   0  0  0  0  0  0  0  0  0  0  0  0
   -2.9530    1.0820   -1.3870 C   0  0  0  0  0  0  0  0  0  0  0  0
   -4.3120    1.1870   -1.5670 C   0  0  0  0  0  0  0  0  0  0  0  0
   -5.1160    0.3890   -0.7690 C   0  0  0  0  0  0  0  0  0  0  0  0
   -6.4560    0.2750   -0.7180 N   0  0  0  0  0  0  0  0  0  0  0  0
   -6.7860   -0.6250    0.2120 C   0  0  0  0  0  0  0  0  0  0  0  0
   -5.6150   -1.1110    0.7850 C   0  0  0  0  0  0  0  0  0  0  0  0
   -4.5730   -0.4650    0.1580 C   0  0  0  0  0  0  0  0  0  0  0  0
   -3.2110   -0.5500    0.3180 C   0  0  0  0  0  0  0  0  0  0  0  0
    3.3420    0.3310    0.7790 O   0  0  0  0  0  0  0  0  0  0  0  0
  1  2  1  0
  2  3  2  0
  2  4  1  0
  4  5  2  0
  4 23  1  0
  5  6  1  0
  6  7  2  0
  7  8  1  0
  8  9  2  3
  8 23  1  0
  9 10  1  0
  9 11  1  0
 11 12  2  0
 11 13  1  0
 13 14  1  0
 14 15  2  0
 14 22  1  0
 15 16  1  0
 16 17  2  0
 17 18  1  0
 17 21  1  0
 18 19  1  0
 19 20  2  0
 20 21  1  0
 21 22  2  0
M  END
