
     RDKit          3D

 25 28  0  0  0  0  0  0  0  0999 V2000
    3.3070    2.1190   -0.2980 O   0  0  0  0  0  0  0  0  0  0  0  0
    2.3440    2.1870    0.4670 C   0  0  0  0  0  0  0  0  0  0  0  0
    0.9670    1.9850    0.0260 C   0  0  0  0  0  0  0  0  0  0  0  0
    0.1860    3.0350   -0.4260 C   0  0  0  0  0  0  0  0  0  0  0  0
   -1.1140    2.8640   -0.8320 C   0  0  0  0  0  0  0  0  0  0  0  0
   -1.6730    1.5990   -0.7930 C   0  0  0  0  0  0  0  0  0  0  0  0
   -2.9840    1.3910   -1.1960 O   0  0  0  0  0  0  0  0  0  0  0  0
   -0.9380    0.5050   -0.3490 C   0  0  0  0  0  0  0  0  0  0  0  0
   -1.5370   -0.8060   -0.3140 C   0  0  0  0  0  0  0  0  0  0  0  0
   -2.6450   -1.0310    0.4620 C   0  0  0  0  0  0  0  0  0  0  0  0
   -3.2350   -2.3010    0.5000 C   0  0  0  0  0  0  0  0  0  0  0  0
   -2.7070   -3.3350   -0.2410 C   0  0  0  0  0  0  0  0  0  0  0  0
   -1.5740   -3.1000   -1.0310 C   0  0  0  0  0  0  0  0  0  0  0  0
   -1.0180   -1.8380   -1.0470 C   0  0  0  0  0  0  0  0  0  0  0  0
    0.3620    0.7300    0.0480 C   0  0  0  0  0  0  0  0  0  0  0  0
    1.1490   -0.4070    0.5240 C   0  0  0  0  0  0  0  0  0  0  0  0
    0.8560   -1.0900    1.6980 C   0  0  0  0  0  0  0  0  0  0  0  0
    1.6190   -2.1630    2.1200 C   0  0  0  0  0  0  0  0  0  0  0  0
    2.7030   -2.6010    1.3930 C   0  0  0  0  0  0  0  0  0  0  0  0
    3.0120   -1.9370    0.2250 C   0  0  0  0  0  0  0  0  0  0  0  0
    4.1090   -2.3660   -0.5270 O   0  0  0  0  0  0  0  0  0  0  0  0
    2.2360   -0.8510   -0.1990 C   0  0  0  0  0  0  0  0  0  0  0  0
   -1.6510    4.0820   -1.2320 O   0  0  0  0  0  0  0  0  0  0  0  0
   -0.5640    4.9930   -1.2460 C   0  0  0  0  0  0  0  0  0  0  0  0
    0.4950    4.3770   -0.5630 O   0  0  0  0  0  0  0  0  0  0  0  0
  1  2  2  0
  2  3  1  0
  3  4  2  0
  3 15  1  0
  4  5  1  0
  4 25  1  0
  5  6  2  0
  5 23  1  0
  6  7  1  0
  6  8  1  0
  8  9  1  0
  8 15  2  0
  9 10  2  0
  9 14  1  0
 10 11  1  0
 11 12  2  0
 12 13  1  0
 13 14  2  0
 15 16  1  0
 16 17  2  0
 16 22  1  0
 17 18  1  0
 18 19  2  0
 19 20  1  0
 20 21  1  0
 20 22  2  0
 23 24  1  0
 24 25  1  0
M  END
