
     RDKit          3D

 25 27  0  0  0  0  0  0  0  0999 V2000
    6.2420    1.1000   -0.7990 C   0  0  0  0  0  0  0  0  0  0  0  0
    4.8790    0.3970   -0.7710 C   0  0  0  0  0  0  0  0  0  0  0  0
    3.8640    1.4810   -0.4690 C   0  0  0  0  0  0  0  0  0  0  0  0
    2.5490    1.0370   -0.4010 O   0  0  0  0  0  0  0  0  0  0  0  0
    2.0110    0.1120    0.4460 C   0  0  0  0  0  0  0  0  0  0  0  0
    2.9490   -0.3390    1.2460 O   0  0  0  0  0  0  0  0  0  0  0  0
    0.6620   -0.3960    0.5570 C   0  0  0  0  0  0  0  0  0  0  0  0
    0.4860   -1.3960    1.4880 C   0  0  0  0  0  0  0  0  0  0  0  0
    1.5050   -1.9830    2.3550 C   0  0  0  0  0  0  0  0  0  0  0  0
   -0.9100   -1.7980    1.4830 C   0  0  0  0  0  0  0  0  0  0  0  0
   -1.5220   -1.0590    0.6000 C   0  0  0  0  0  0  0  0  0  0  0  0
   -2.9120   -1.1230    0.2770 C   0  0  0  0  0  0  0  0  0  0  0  0
   -3.4750   -0.1600   -0.4780 C   0  0  0  0  0  0  0  0  0  0  0  0
   -4.9100   -0.2790   -0.7820 C   0  0  0  0  0  0  0  0  0  0  0  0
   -2.5880    0.9010   -0.9240 C   0  0  0  0  0  0  0  0  0  0  0  0
   -3.1500    2.0430   -1.6940 C   0  0  0  0  0  0  0  0  0  0  0  0
   -1.2490    0.9570   -0.6540 C   0  0  0  0  0  0  0  0  0  0  0  0
   -0.5840    2.1280   -1.1770 C   0  0  0  0  0  0  0  0  0  0  0  0
    0.6210    2.3250   -0.9950 O   0  0  0  0  0  0  0  0  0  0  0  0
   -1.1730    3.1570   -1.9270 O   0  0  0  0  0  0  0  0  0  0  0  0
   -0.5550   -0.1800   -0.1270 C   0  0  1  0  0  0  0  0  0  0  0  0
   -3.7010   -2.1220    0.9950 C   0  0  0  0  0  0  0  0  0  0  0  0
   -4.9100   -2.2460    0.7700 O   0  0  0  0  0  0  0  0  0  0  0  0
   -2.9950   -2.9640    1.9890 C   0  0  0  0  0  0  0  0  0  0  0  0
   -1.7060   -2.7850    2.1900 C   0  0  0  0  0  0  0  0  0  0  0  0
  1  2  1  0
  2  3  1  0
  3  4  1  0
  4  5  1  0
  5  6  2  0
  5  7  1  0
  7  8  2  0
 21  7  1  1
  8  9  1  0
  8 10  1  0
 10 11  2  0
 10 25  1  0
 11 12  1  0
 11 21  1  0
 12 13  2  0
 12 22  1  0
 13 14  1  0
 13 15  1  0
 15 16  1  0
 15 17  2  0
 17 18  1  0
 17 21  1  0
 18 19  2  0
 18 20  1  0
 22 23  2  0
 22 24  1  0
 24 25  2  0
M  END
