
     RDKit          3D

 25 28  0  0  0  0  0  0  0  0999 V2000
    8.1110   -0.5310   -0.6660 C   0  0  0  0  0  0  0  0  0  0  0  0
    6.9530   -0.7480    0.1080 O   0  0  0  0  0  0  0  0  0  0  0  0
    5.7610   -0.1690   -0.3100 C   0  0  0  0  0  0  0  0  0  0  0  0
    5.6960    0.6020   -1.4530 C   0  0  0  0  0  0  0  0  0  0  0  0
    4.4650    1.1300   -1.7810 C   0  0  0  0  0  0  0  0  0  0  0  0
    3.3590    0.9010   -1.0090 C   0  0  0  0  0  0  0  0  0  0  0  0
    3.4160    0.1290    0.1400 C   0  0  0  0  0  0  0  0  0  0  0  0
    4.6400   -0.4060    0.4800 C   0  0  0  0  0  0  0  0  0  0  0  0
    2.3790   -0.1940    1.0280 O   0  0  0  0  0  0  0  0  0  0  0  0
    0.9890   -0.0730    0.8540 C   0  0  0  0  0  0  0  0  0  0  0  0
    0.2370   -0.8410    1.6920 C   0  0  0  0  0  0  0  0  0  0  0  0
   -1.1580   -0.8150    1.6200 C   0  0  0  0  0  0  0  0  0  0  0  0
   -1.8100   -0.0180    0.7070 C   0  0  0  0  0  0  0  0  0  0  0  0
   -3.2790    0.0620    0.5390 C   0  0  1  0  0  0  0  0  0  0  0  0
   -3.5830    1.4020    0.3360 O   0  0  0  0  0  0  0  0  0  0  0  0
   -3.6570   -0.6930   -0.7560 C   0  0  0  0  0  0  0  0  0  0  0  0
   -5.0130   -0.1700   -1.1600 C   0  0  0  0  0  0  0  0  0  0  0  0
   -5.9410   -0.0190    0.0080 C   0  0  0  0  0  0  0  0  0  0  0  0
   -5.5000   -0.7620    1.2300 C   0  0  0  0  0  0  0  0  0  0  0  0
   -4.0740   -0.5480    1.6330 C   0  0  0  0  0  0  0  0  0  0  0  0
   -1.0130    0.7470   -0.1260 C   0  0  0  0  0  0  0  0  0  0  0  0
    0.3670    0.7430   -0.0810 C   0  0  0  0  0  0  0  0  0  0  0  0
    0.9810    1.6250   -1.0650 C   0  0  0  0  0  0  0  0  0  0  0  0
    0.2640    2.5530   -1.4880 O   0  0  0  0  0  0  0  0  0  0  0  0
    2.2590    1.5600   -1.5860 O   0  0  0  0  0  0  0  0  0  0  0  0
  1  2  1  0
  2  3  1  0
  3  4  2  0
  3  8  1  0
  4  5  1  0
  5  6  2  0
  6  7  1  0
  6 25  1  0
  7  8  2  0
  7  9  1  0
  9 10  1  0
 10 11  2  0
 10 22  1  0
 11 12  1  0
 12 13  2  0
 13 14  1  0
 13 21  1  0
 14 15  1  6
 14 16  1  0
 14 20  1  0
 16 17  1  0
 17 18  1  0
 18 19  1  0
 19 20  1  0
 21 22  2  0
 22 23  1  0
 23 24  2  0
 23 25  1  0
M  END
