
     RDKit          3D

 20 21  0  0  0  0  0  0  0  0999 V2000
    2.4990    0.1000   -0.3830 C   0  0  0  0  0  0  0  0  0  0  0  0
    2.5950   -0.4610   -1.7700 C   0  0  0  0  0  0  0  0  0  0  0  0
    1.5540    0.1000   -2.6550 C   0  0  0  0  0  0  0  0  0  0  0  0
   -0.1480   -0.2260   -2.2660 S   0  0  0  0  0  0  0  0  0  0  0  0
   -0.6570    0.4750   -0.7230 C   0  0  0  0  0  0  0  0  0  0  0  0
   -0.9940    1.7960   -0.5710 C   0  0  0  0  0  0  0  0  0  0  0  0
   -1.4290    2.3000    0.6520 C   0  0  0  0  0  0  0  0  0  0  0  0
   -1.7680    3.7000    0.7490 C   0  0  0  0  0  0  0  0  0  0  0  0
   -1.6890    4.4960   -0.2240 O   0  0  0  0  0  0  0  0  0  0  0  0
   -2.2000    4.2050    1.9630 O   0  0  0  0  0  0  0  0  0  0  0  0
   -1.5400    1.4920    1.7620 C   0  0  0  0  0  0  0  0  0  0  0  0
   -1.9770    2.0190    2.9700 O   0  0  0  0  0  0  0  0  0  0  0  0
   -1.2030    0.1640    1.6080 C   0  0  0  0  0  0  0  0  0  0  0  0
   -1.3960   -1.0630    3.3340 I   0  0  0  0  0  0  0  0  0  0  0  0
   -0.7700   -0.3430    0.3950 C   0  0  0  0  0  0  0  0  0  0  0  0
   -0.4770   -1.7210    0.3090 N   0  0  0  0  0  0  0  0  0  0  0  0
   -0.9530   -2.4860   -0.6850 C   0  0  0  0  0  0  0  0  0  0  0  0
   -0.5190   -3.7820   -0.5160 C   0  0  0  0  0  0  0  0  0  0  0  0
    0.2420   -3.7590    0.6300 C   0  0  0  0  0  0  0  0  0  0  0  0
    0.2570   -2.4770    1.1260 C   0  0  0  0  0  0  0  0  0  0  0  0
  1  2  1  0
  2  3  1  0
  3  4  1  0
  4  5  1  0
  5  6  2  0
  5 15  1  0
  6  7  1  0
  7  8  1  0
  7 11  2  0
  8  9  2  0
  8 10  1  0
 11 12  1  0
 11 13  1  0
 13 14  1  0
 13 15  2  0
 15 16  1  0
 16 17  1  0
 16 20  1  0
 17 18  2  0
 18 19  1  0
 19 20  2  0
M  END
