
     RDKit          3D

 24 27  0  0  0  0  0  0  0  0999 V2000
    4.8110    2.4910   -1.1370 C   0  0  0  0  0  0  0  0  0  0  0  0
    4.0930    1.2810   -0.6590 C   0  0  1  0  0  0  0  0  0  0  0  0
    4.8030    0.6230    0.5330 C   0  0  0  0  0  0  0  0  0  0  0  0
    4.2050   -0.7020    0.6700 C   0  0  0  0  0  0  0  0  0  0  0  0
    4.8310   -1.7650    0.8490 O   0  0  0  0  0  0  0  0  0  0  0  0
    2.7120   -0.8140    0.5910 C   0  0  0  0  0  0  0  0  0  0  0  0
    2.0580    0.2400    0.2020 C   0  0  0  0  0  0  0  0  0  0  0  0
    0.5740    0.1660    0.1090 C   0  0  0  0  0  0  0  0  0  0  0  0
   -0.0420   -0.9510    0.4150 C   0  0  0  0  0  0  0  0  0  0  0  0
   -1.5370   -1.0150    0.3200 C   0  0  0  0  0  0  0  0  0  0  0  0
   -2.2330    0.0990   -0.1050 C   0  0  0  0  0  0  0  0  0  0  0  0
   -3.6130    0.0500   -0.1920 C   0  0  0  0  0  0  0  0  0  0  0  0
   -4.3660    1.1400   -0.6130 C   0  0  0  0  0  0  0  0  0  0  0  0
   -5.7440    1.0800   -0.6960 C   0  0  0  0  0  0  0  0  0  0  0  0
   -6.4700    2.1690   -1.1150 O   0  0  0  0  0  0  0  0  0  0  0  0
   -6.3830   -0.1030   -0.3490 C   0  0  0  0  0  0  0  0  0  0  0  0
   -5.6330   -1.1720    0.0650 C   0  0  0  0  0  0  0  0  0  0  0  0
   -4.2430   -1.1230    0.1530 C   0  0  0  0  0  0  0  0  0  0  0  0
   -3.5500   -2.1520    0.5490 O   0  0  0  0  0  0  0  0  0  0  0  0
   -2.2230   -2.1470    0.6470 C   0  0  0  0  0  0  0  0  0  0  0  0
   -1.6450   -3.1840    1.0380 O   0  0  0  0  0  0  0  0  0  0  0  0
    0.6410   -2.1780    0.8380 C   0  0  0  0  0  0  0  0  0  0  0  0
    2.0970   -2.0760    0.9640 C   0  0  0  0  0  0  0  0  0  0  0  0
    2.6980    1.5610   -0.1660 C   0  0  0  0  0  0  0  0  0  0  0  0
  2  1  1  1
  2  3  1  0
  2 24  1  0
  3  4  1  0
  4  5  2  0
  4  6  1  0
  6  7  2  0
  6 23  1  0
  7  8  1  0
  7 24  1  0
  8  9  2  0
  9 10  1  0
  9 22  1  0
 10 11  2  0
 10 20  1  0
 11 12  1  0
 12 13  2  0
 12 18  1  0
 13 14  1  0
 14 15  1  0
 14 16  2  0
 16 17  1  0
 17 18  2  0
 18 19  1  0
 19 20  1  0
 20 21  2  0
 22 23  1  0
M  END
