
     RDKit          3D

 25 28  0  0  0  0  0  0  0  0999 V2000
    6.9380    0.6380   -0.9250 C   0  0  0  0  0  0  0  0  0  0  0  0
    6.1780   -0.1570   -0.1790 C   0  0  0  0  0  0  0  0  0  0  0  0
    6.5740   -1.0420    0.8930 C   0  0  0  0  0  0  0  0  0  0  0  0
    7.7580   -1.1910    1.2910 O   0  0  0  0  0  0  0  0  0  0  0  0
    5.4090   -1.6420    1.3390 O   0  0  0  0  0  0  0  0  0  0  0  0
    4.3060   -1.1840    0.6090 C   0  0  0  0  0  0  0  0  0  0  0  0
    2.9560   -1.4610    0.6560 C   0  0  0  0  0  0  0  0  0  0  0  0
    2.0550   -0.8460   -0.2110 C   0  0  0  0  0  0  0  0  0  0  0  0
    2.4810    0.0610   -1.1470 C   0  0  0  0  0  0  0  0  0  0  0  0
    1.5240    0.7410   -2.0910 C   0  0  0  0  0  0  0  0  0  0  0  0
    0.2330    0.5780   -1.5960 O   0  0  0  0  0  0  0  0  0  0  0  0
   -0.2070    1.0310   -0.3770 C   0  0  0  0  0  0  0  0  0  0  0  0
    0.5710    1.6410    0.3800 O   0  0  0  0  0  0  0  0  0  0  0  0
   -1.5770    0.8030    0.0340 C   0  0  0  0  0  0  0  0  0  0  0  0
   -2.0560    1.2470    1.2590 C   0  0  0  0  0  0  0  0  0  0  0  0
   -3.3690    0.9990    1.5950 C   0  0  0  0  0  0  0  0  0  0  0  0
   -4.2150    0.3170    0.7320 C   0  0  0  0  0  0  0  0  0  0  0  0
   -3.7170   -0.1050   -0.4600 C   0  0  0  0  0  0  0  0  0  0  0  0
   -2.4110    0.1300   -0.8170 C   0  0  0  0  0  0  0  0  0  0  0  0
   -4.8340   -0.7980   -1.1820 C   0  0  0  0  0  0  0  0  0  0  0  0
   -5.6490   -1.3320   -0.0260 C   0  0  0  0  0  0  0  0  0  0  0  0
   -5.6650   -0.0780    0.8640 C   0  0  2  0  0  0  0  0  0  0  0  0
   -6.4560    0.8510    0.2270 O   0  0  0  0  0  0  0  0  0  0  0  0
    3.8330    0.3460   -1.2040 C   0  0  0  0  0  0  0  0  0  0  0  0
    4.7110   -0.2690   -0.3400 C   0  0  0  0  0  0  0  0  0  0  0  0
  1  2  2  0
  2  3  1  0
  2 25  1  0
  3  4  2  0
  3  5  1  0
  5  6  1  0
  6  7  2  0
  6 25  1  0
  7  8  1  0
  8  9  2  0
  9 10  1  0
  9 24  1  0
 10 11  1  0
 11 12  1  0
 12 13  2  0
 12 14  1  0
 14 15  2  0
 14 19  1  0
 15 16  1  0
 16 17  2  0
 17 18  1  0
 17 22  1  0
 18 19  2  0
 18 20  1  0
 20 21  1  0
 21 22  1  0
 22 23  1  6
 24 25  2  0
M  END
