
     RDKit          3D

  6  5  0  0  0  0  0  0  0  0999 V2000
    2.3230    0.7070   -0.2100 C   0  0  0  0  0  0  0  0  0  0  0  0
    1.0690    0.3030    0.4830 C   0  0  0  0  0  0  0  0  0  0  0  0
    0.2730   -0.6480   -0.0000 C   0  0  0  0  0  0  0  0  0  0  0  0
   -0.8760   -0.9550    0.7180 O   0  0  0  0  0  0  0  0  0  0  0  0
   -2.0050   -0.1550    0.4810 C   0  0  0  0  0  0  0  0  0  0  0  0
   -3.1070   -0.5230    1.2330 O   0  0  0  0  0  0  0  0  0  0  0  0
  1  2  1  0
  2  3  2  3
  3  4  1  0
  4  5  1  0
  5  6  1  0
M  END
