
     RDKit          3D

 32 35  0  0  0  0  0  0  0  0999 V2000
    8.2350   -0.5680    0.2510 C   0  0  0  0  0  0  0  0  0  0  0  0
    6.8710   -0.4060    0.0350 O   0  0  0  0  0  0  0  0  0  0  0  0
    5.8310   -1.0110    0.7110 C   0  0  0  0  0  0  0  0  0  0  0  0
    6.0910   -1.7730    1.6460 O   0  0  0  0  0  0  0  0  0  0  0  0
    4.4250   -0.7600    0.3310 C   0  0  1  0  0  0  0  0  0  0  0  0
    3.5120   -0.2000    1.3600 C   0  0  0  0  0  0  0  0  0  0  0  0
    2.5440    0.6090    0.4790 C   0  0  2  0  0  0  0  0  0  0  0  0
    1.2110    0.4350    0.8810 N   0  0  0  0  0  0  0  0  0  0  0  0
    0.2920    0.2160   -0.1580 C   0  0  0  0  0  0  0  0  0  0  0  0
   -1.1340    0.3910    0.0940 C   0  0  0  0  0  0  0  0  0  0  0  0
   -1.8770   -0.7970    0.0250 C   0  0  0  0  0  0  0  0  0  0  0  0
   -3.2830   -0.7430   -0.0060 C   0  0  0  0  0  0  0  0  0  0  0  0
   -4.1190   -1.8550   -0.0790 C   0  0  0  0  0  0  0  0  0  0  0  0
   -5.4480   -1.6920   -0.1160 C   0  0  0  0  0  0  0  0  0  0  0  0
   -6.0030   -0.4180   -0.0870 C   0  0  0  0  0  0  0  0  0  0  0  0
   -5.2530    0.7090   -0.0210 C   0  0  0  0  0  0  0  0  0  0  0  0
   -5.7390    1.9080    0.0080 O   0  0  0  0  0  0  0  0  0  0  0  0
   -6.8290    2.7100   -0.0070 C   0  0  0  0  0  0  0  0  0  0  0  0
   -3.8220    0.5040    0.0270 C   0  0  0  0  0  0  0  0  0  0  0  0
   -3.1260    1.6340    0.1030 O   0  0  0  0  0  0  0  0  0  0  0  0
   -1.7890    1.5760    0.1400 C   0  0  0  0  0  0  0  0  0  0  0  0
   -1.1510    2.6930    0.2260 N   0  0  0  0  0  0  0  0  0  0  0  0
   -1.7480    3.9940    0.2760 C   0  0  0  0  0  0  0  0  0  0  0  0
   -3.4620    3.9760    0.5320 Cl  0  0  0  0  0  0  0  0  0  0  0  0
   -3.7340   -3.1840   -0.1180 O   0  0  0  0  0  0  0  0  0  0  0  0
   -2.5150   -3.7290   -0.4980 C   0  0  0  0  0  0  0  0  0  0  0  0
   -1.3260   -3.2510    0.2660 C   0  0  0  0  0  0  0  0  0  0  0  0
   -1.0630   -1.9130    0.0050 O   0  0  0  0  0  0  0  0  0  0  0  0
    2.9680    0.2650   -0.8910 C   0  0  1  0  0  0  0  0  0  0  0  0
    2.5870   -1.0630   -1.4650 C   0  0  0  0  0  0  0  0  0  0  0  0
    2.7010    1.3490   -1.7900 N   0  0  0  0  0  0  0  0  0  0  0  0
    4.3910    0.2150   -0.7200 O   0  0  0  0  0  0  0  0  0  0  0  0
  1  2  1  0
  2  3  1  0
  3  4  2  0
  5  3  1  1
  5  6  1  0
  5 32  1  0
  6  7  1  0
  7  8  1  6
  7 29  1  0
  8  9  1  0
  9 10  1  0
 10 11  2  0
 10 21  1  0
 11 12  1  0
 11 28  1  0
 12 13  1  0
 12 19  2  0
 13 14  2  0
 13 25  1  0
 14 15  1  0
 15 16  2  0
 16 17  1  0
 16 19  1  0
 17 18  1  0
 19 20  1  0
 20 21  1  0
 21 22  2  3
 22 23  1  0
 23 24  1  0
 25 26  1  0
 26 27  1  0
 27 28  1  0
 29 30  1  6
 29 31  1  0
 29 32  1  0
M  CHG  2   8   1  22   1
M  END
