
     RDKit          3D

 33 37  0  0  0  0  0  0  0  0999 V2000
    1.6870    0.0270    2.2010 O   0  0  0  0  0  0  0  0  0  0  0  0
    0.9190    0.8780    1.1730 S   0  0  1  0  0  0  0  0  0  0  0  0
    1.7580    0.7210   -0.3490 C   0  0  0  0  0  0  0  0  0  0  0  0
    1.6670   -0.6380   -0.9760 C   0  0  2  0  0  0  0  0  0  0  0  0
    2.2310   -1.7240   -0.1500 C   0  0  0  0  0  0  0  0  0  0  0  0
    3.7420   -1.7820   -0.1730 C   0  0  0  0  0  0  0  0  0  0  0  0
    4.0880   -2.1280   -1.6300 C   0  0  0  0  0  0  0  0  0  0  0  0
    3.6950   -0.9060   -2.4290 C   0  0  0  0  0  0  0  0  0  0  0  0
    2.2220   -0.6280   -2.3900 C   0  0  0  0  0  0  0  0  0  0  0  0
   -0.5340    0.3310    1.1490 N   0  0  0  0  0  0  0  0  0  0  0  0
   -0.9210   -0.6540    1.9780 N   0  0  0  0  0  0  0  0  0  0  0  0
   -1.7660   -1.5980    1.7590 C   0  0  0  0  0  0  0  0  0  0  0  0
   -2.1070   -2.5630    2.6420 N   0  0  0  0  0  0  0  0  0  0  0  0
   -2.9780   -3.4000    2.0970 C   0  0  0  0  0  0  0  0  0  0  0  0
   -3.2430   -3.0170    0.8380 C   0  0  0  0  0  0  0  0  0  0  0  0
   -2.4630   -1.8440    0.6060 C   0  0  0  0  0  0  0  0  0  0  0  0
   -2.4400   -1.0520   -0.6200 C   0  0  0  0  0  0  0  0  0  0  0  0
   -2.7980    0.1790   -0.9140 C   0  0  0  0  0  0  0  0  0  0  0  0
   -3.3570    1.2600   -0.1590 C   0  0  0  0  0  0  0  0  0  0  0  0
   -2.8800    2.4020    0.3010 C   0  0  0  0  0  0  0  0  0  0  0  0
   -1.6480    3.0210    0.2320 N   0  0  0  0  0  0  0  0  0  0  0  0
   -0.7170    3.3230   -0.5320 C   0  0  0  0  0  0  0  0  0  0  0  0
    0.4690    4.0630   -0.0040 C   0  0  0  0  0  0  0  0  0  0  0  0
    0.8410    5.2630   -0.6340 C   0  0  0  0  0  0  0  0  0  0  0  0
    1.8710    6.0610   -0.2060 C   0  0  0  0  0  0  0  0  0  0  0  0
    2.5870    5.6820    0.8960 C   0  0  0  0  0  0  0  0  0  0  0  0
    2.2440    4.5180    1.5240 C   0  0  0  0  0  0  0  0  0  0  0  0
    1.1880    3.6830    1.0960 C   0  0  0  0  0  0  0  0  0  0  0  0
    1.0090    2.4940    1.8420 N   0  0  0  0  0  0  0  0  0  0  0  0
   -4.1790   -3.7970   -0.0130 C   0  0  0  0  0  0  0  0  0  0  0  0
   -4.7450   -4.9260    0.6710 N   0  0  0  0  0  0  0  0  0  0  0  0
   -4.4840   -5.2550    1.8680 C   0  0  0  0  0  0  0  0  0  0  0  0
   -3.5690   -4.4630    2.6000 N   0  0  0  0  0  0  0  0  0  0  0  0
  1  2  2  0
  2  3  1  6
  2 10  2  0
  2 29  1  0
  4  3  1  1
  4  5  1  0
  4  9  1  0
  5  6  1  0
  6  7  1  0
  7  8  1  0
  8  9  1  0
 10 11  1  0
 11 12  2  0
 12 13  1  0
 12 16  1  0
 13 14  1  0
 14 15  1  0
 14 33  2  0
 15 16  2  0
 15 30  1  0
 16 17  1  0
 17 18  2  0
 18 19  1  0
 19 20  2  0
 20 21  1  0
 21 22  2  0
 22 23  1  0
 23 24  2  0
 23 28  1  0
 24 25  1  0
 25 26  2  0
 26 27  1  0
 27 28  2  0
 28 29  1  0
 30 31  1  0
 31 32  2  0
 32 33  1  0
M  CHG  1  31   1
M  END
