
     RDKit          3D

 33 33  0  0  0  0  0  0  0  0999 V2000
    7.2830    1.3810    0.3560 C   0  0  0  0  0  0  0  0  0  0  0  0
    6.2500    0.4970    0.1680 O   0  0  0  0  0  0  0  0  0  0  0  0
    5.0530    0.8190    0.7330 C   0  0  2  0  0  0  0  0  0  0  0  0
    4.5880   -0.0260    1.8670 C   0  0  0  0  0  0  0  0  0  0  0  0
    4.4020   -1.4500    1.6000 C   0  0  0  0  0  0  0  0  0  0  0  0
    5.3790   -2.2440    1.5570 O   0  0  0  0  0  0  0  0  0  0  0  0
    3.1140   -1.9770    1.3830 O   0  0  0  0  0  0  0  0  0  0  0  0
    3.9450    1.1500   -0.2800 C   0  0  1  0  0  0  0  0  0  0  0  0
    4.4740    2.3770   -1.0250 C   0  0  0  0  0  0  0  0  0  0  0  0
    3.7860   -0.0010   -1.1740 C   0  0  0  0  0  0  0  0  0  0  0  0
    4.5950   -0.9170   -1.0870 O   0  0  0  0  0  0  0  0  0  0  0  0
    2.7090   -0.1760   -2.2110 C   0  0  2  0  0  0  0  0  0  0  0  0
    2.8220    0.8870   -3.2170 C   0  0  0  0  0  0  0  0  0  0  0  0
    1.4550   -0.4480   -1.5390 C   0  0  0  0  0  0  0  0  0  0  0  0
    0.2650    0.0760   -1.6560 C   0  0  0  0  0  0  0  0  0  0  0  0
    0.0280    1.1630   -2.6320 C   0  0  0  0  0  0  0  0  0  0  0  0
   -0.9010   -0.4070   -0.7990 C   0  0  1  0  0  0  0  0  0  0  0  0
   -0.4520   -1.4410    0.0200 O   0  0  0  0  0  0  0  0  0  0  0  0
   -1.1600   -2.2360    0.8620 C   0  0  0  0  0  0  0  0  0  0  0  0
   -0.7380   -2.4460    2.0290 O   0  0  0  0  0  0  0  0  0  0  0  0
   -2.4360   -2.8880    0.4730 C   0  0  2  0  0  0  0  0  0  0  0  0
   -2.7870   -2.6790   -0.8380 O   0  0  0  0  0  0  0  0  0  0  0  0
   -3.4870   -2.4090    1.4670 C   0  0  2  0  0  0  0  0  0  0  0  0
   -3.3330   -3.1380    2.6690 O   0  0  0  0  0  0  0  0  0  0  0  0
   -4.8310   -2.7140    0.9060 C   0  0  0  0  0  0  0  0  0  0  0  0
   -5.7960   -1.8230    0.7280 C   0  0  0  0  0  0  0  0  0  0  0  0
   -5.6130   -0.3760    1.0880 C   0  0  2  0  0  0  0  0  0  0  0  0
   -6.9650    0.2710    1.3170 C   0  0  0  0  0  0  0  0  0  0  0  0
   -4.9380    0.3690   -0.0180 C   0  0  0  0  0  0  0  0  0  0  0  0
   -3.8580    1.3170    0.4290 C   0  0  0  0  0  0  0  0  0  0  0  0
   -2.6850    1.3110   -0.5590 C   0  0  0  0  0  0  0  0  0  0  0  0
   -1.4370    0.7260    0.0480 C   0  0  2  0  0  0  0  0  0  0  0  0
   -0.4070    1.7630    0.3450 C   0  0  0  0  0  0  0  0  0  0  0  0
  1  2  1  0
  2  3  1  0
  3  4  1  6
  3  8  1  0
  4  5  1  0
  5  6  2  0
  5  7  1  0
  8  9  1  6
  8 10  1  0
 10 11  2  0
 10 12  1  0
 12 13  1  1
 12 14  1  0
 14 15  2  3
 15 16  1  0
 17 15  1  1
 17 18  1  0
 17 32  1  0
 18 19  1  0
 19 20  2  0
 19 21  1  0
 21 22  1  6
 21 23  1  0
 23 24  1  1
 23 25  1  0
 25 26  2  0
 26 27  1  0
 27 28  1  6
 27 29  1  0
 29 30  1  0
 30 31  1  0
 31 32  1  0
 32 33  1  6
M  END
