
     RDKit          3D

 33 37  0  0  0  0  0  0  0  0999 V2000
   -6.6240   -1.0980    1.2180 C   0  0  0  0  0  0  0  0  0  0  0  0
   -5.5120   -0.8910    0.2680 C   0  0  0  0  0  0  0  0  0  0  0  0
   -5.5860    0.4280   -0.4890 C   0  0  2  0  0  0  0  0  0  0  0  0
   -5.6090    1.5560    0.4620 C   0  0  0  0  0  0  0  0  0  0  0  0
   -5.6350    2.4610    1.2020 N   0  0  0  0  0  0  0  0  0  0  0  0
   -6.6780    0.4780   -1.4350 C   0  0  0  0  0  0  0  0  0  0  0  0
   -8.1110    0.4560   -0.8870 C   0  0  0  0  0  0  0  0  0  0  0  0
   -6.5830    0.5840   -2.7590 C   0  0  0  0  0  0  0  0  0  0  0  0
   -5.3030    0.6710   -3.3400 N   0  0  0  0  0  0  0  0  0  0  0  0
   -4.1340    0.6550   -2.5060 C   0  0  0  0  0  0  0  0  0  0  0  0
   -2.8700    0.7620   -3.0470 C   0  0  0  0  0  0  0  0  0  0  0  0
   -1.7220    0.7750   -2.2420 C   0  0  0  0  0  0  0  0  0  0  0  0
   -1.8240    0.6820   -0.8690 C   0  0  0  0  0  0  0  0  0  0  0  0
   -0.6340    0.7040   -0.0210 C   0  0  0  0  0  0  0  0  0  0  0  0
    0.5980    0.8240   -0.4840 C   0  0  0  0  0  0  0  0  0  0  0  0
    1.7410    0.8320    0.5020 C   0  0  0  0  0  0  0  0  0  0  0  0
    1.5780   -0.3620    1.2900 N   0  0  0  0  0  0  0  0  0  0  0  0
    2.1130   -1.7760    0.8250 S   0  0  1  0  0  0  0  0  0  0  0  0
    1.3910   -2.9410    1.0450 O   0  0  0  0  0  0  0  0  0  0  0  0
    2.4110   -1.6830   -0.8640 N   0  0  0  0  0  0  0  0  0  0  0  0
    3.7740   -1.7790   -0.9550 N   0  0  0  0  0  0  0  0  0  0  0  0
    4.5130   -1.9140    0.2060 C   0  0  0  0  0  0  0  0  0  0  0  0
    6.0210   -2.0300    0.1950 C   0  0  0  0  0  0  0  0  0  0  0  0
    6.5820   -0.8500   -0.4480 N   0  0  1  0  0  0  0  0  0  0  0  0
    6.0660    0.3990    0.0220 C   0  0  0  0  0  0  0  0  0  0  0  0
    7.4750    0.9340    0.1550 C   0  0  1  0  0  0  0  0  0  0  0  0
    7.7380    1.6360    1.4770 C   0  0  0  0  0  0  0  0  0  0  0  0
    7.8610   -0.5290    0.1460 C   0  0  0  0  0  0  0  0  0  0  0  0
    3.8460   -1.9370    1.2670 N   0  0  0  0  0  0  0  0  0  0  0  0
    0.3470   -0.3290    2.0220 C   0  0  0  0  0  0  0  0  0  0  0  0
   -0.7050    0.5890    1.4750 C   0  0  0  0  0  0  0  0  0  0  0  0
   -3.0930    0.5770   -0.3540 C   0  0  0  0  0  0  0  0  0  0  0  0
   -4.2460    0.5630   -1.1700 C   0  0  0  0  0  0  0  0  0  0  0  0
  1  2  1  0
  3  2  1  1
  3  4  1  0
  3  6  1  0
  3 33  1  0
  4  5  3  0
  6  7  1  0
  6  8  2  0
  8  9  1  0
  9 10  1  0
 10 11  2  0
 10 33  1  0
 11 12  1  0
 12 13  2  0
 13 14  1  0
 13 32  1  0
 14 15  2  0
 14 31  1  0
 15 16  1  0
 16 17  1  0
 18 17  1  1
 17 30  1  0
 18 19  2  0
 18 20  2  0
 18 29  1  0
 20 21  1  0
 21 22  1  0
 22 23  1  0
 22 29  2  0
 24 23  1  1
 24 25  1  0
 24 28  1  0
 25 26  1  0
 26 27  1  1
 26 28  1  0
 30 31  1  0
 32 33  2  0
M  CHG  1  24   1
M  END
