
     RDKit          3D

 32 34  0  0  0  0  0  0  0  0999 V2000
   10.0750    1.8560    0.6540 C   0  0  0  0  0  0  0  0  0  0  0  0
    9.0100    0.8900    0.2230 C   0  0  0  0  0  0  0  0  0  0  0  0
    9.2650   -0.3490   -0.3570 C   0  0  0  0  0  0  0  0  0  0  0  0
    8.0190   -0.8850   -0.5860 C   0  0  0  0  0  0  0  0  0  0  0  0
    7.0680    0.0130   -0.1530 C   0  0  0  0  0  0  0  0  0  0  0  0
    5.5890   -0.1180   -0.1900 C   0  0  0  0  0  0  0  0  0  0  0  0
    4.8220    0.8340    0.2640 C   0  0  0  0  0  0  0  0  0  0  0  0
    3.4220    0.8340    0.2870 N   0  0  0  0  0  0  0  0  0  0  0  0
    2.5750   -0.1850   -0.1730 C   0  0  0  0  0  0  0  0  0  0  0  0
    3.0500   -1.2240   -0.6630 O   0  0  0  0  0  0  0  0  0  0  0  0
    1.1840   -0.1120   -0.1170 O   0  0  0  0  0  0  0  0  0  0  0  0
    0.3900   -1.1790   -0.6000 C   0  0  0  0  0  0  0  0  0  0  0  0
   -1.0790   -0.8070   -0.4040 C   0  0  2  0  0  0  0  0  0  0  0  0
   -1.2790   -0.6100    0.9580 O   0  0  0  0  0  0  0  0  0  0  0  0
   -2.0300    0.4050    1.5290 C   0  0  0  0  0  0  0  0  0  0  0  0
   -2.5360    0.2050    2.6650 O   0  0  0  0  0  0  0  0  0  0  0  0
   -2.2180    1.6550    0.8250 C   0  0  2  0  0  0  0  0  0  0  0  0
   -2.1710    2.8860    1.7190 C   0  0  0  0  0  0  0  0  0  0  0  0
   -2.7490    3.9990    0.8290 C   0  0  0  0  0  0  0  0  0  0  0  0
   -2.5150    3.7320   -0.5170 O   0  0  0  0  0  0  0  0  0  0  0  0
   -3.3420    2.7270   -1.0150 C   0  0  0  0  0  0  0  0  0  0  0  0
   -3.5830    1.7610    0.1300 C   0  0  1  0  0  0  0  0  0  0  0  0
   -4.0550    0.5440   -0.2650 O   0  0  0  0  0  0  0  0  0  0  0  0
   -5.1360    0.1930    0.5410 C   0  0  0  0  0  0  0  0  0  0  0  0
   -5.3070   -1.2820    0.7010 C   0  0  1  0  0  0  0  0  0  0  0  0
   -6.6610   -1.5010    1.0510 O   0  0  0  0  0  0  0  0  0  0  0  0
   -4.9870   -2.0380   -0.5520 C   0  0  0  0  0  0  0  0  0  0  0  0
   -4.0080   -3.0730   -0.3490 N   0  0  0  0  0  0  0  0  0  0  0  0
   -2.7290   -2.5730    0.0800 C   0  0  0  0  0  0  0  0  0  0  0  0
   -1.9650   -1.8770   -0.9970 C   0  0  2  0  0  0  0  0  0  0  0  0
   -1.1910   -2.8330   -1.7970 N   0  0  0  0  0  0  0  0  0  0  0  0
    7.7280    1.0350    0.3110 O   0  0  0  0  0  0  0  0  0  0  0  0
  1  2  1  0
  2  3  2  0
  2 32  1  0
  3  4  1  0
  4  5  2  0
  5  6  1  0
  5 32  1  0
  6  7  2  3
  7  8  1  0
  8  9  1  0
  9 10  2  0
  9 11  1  0
 11 12  1  0
 13 12  1  1
 13 14  1  0
 13 30  1  0
 14 15  1  0
 15 16  2  0
 15 17  1  0
 17 18  1  1
 17 22  1  0
 18 19  1  0
 19 20  1  0
 20 21  1  0
 22 21  1  6
 22 23  1  0
 23 24  1  0
 24 25  1  0
 25 26  1  6
 25 27  1  0
 27 28  1  0
 28 29  1  0
 29 30  1  0
 30 31  1  1
M  CHG  2  28   1  31   1
M  END
