
     RDKit          3D

 33 37  0  0  0  0  0  0  0  0999 V2000
   -7.9100    0.9910   -0.3450 C   0  0  0  0  0  0  0  0  0  0  0  0
   -6.7730    1.4500   -1.1820 C   0  0  0  0  0  0  0  0  0  0  0  0
   -5.7760    0.4120   -1.5020 C   0  0  0  0  0  0  0  0  0  0  0  0
   -5.0590   -0.2070   -0.4310 N   0  0  0  0  0  0  0  0  0  0  0  0
   -3.6710    0.1670   -0.2410 C   0  0  0  0  0  0  0  0  0  0  0  0
   -2.9760   -0.1020    0.8330 C   0  0  0  0  0  0  0  0  0  0  0  0
   -1.5620    0.3340    0.9110 C   0  0  0  0  0  0  0  0  0  0  0  0
   -0.9870    0.0080    2.0260 N   0  0  0  0  0  0  0  0  0  0  0  0
    0.3090    0.2170    2.5160 C   0  0  0  0  0  0  0  0  0  0  0  0
    0.3370    0.2980    3.8300 O   0  0  0  0  0  0  0  0  0  0  0  0
    1.5740    0.3600    1.8790 C   0  0  0  0  0  0  0  0  0  0  0  0
    2.3710    2.0370    1.7700 S   0  0  0  0  0  0  0  0  0  0  0  0
    3.8110    1.4030    0.8690 C   0  0  0  0  0  0  0  0  0  0  0  0
    3.5850    0.0980    0.7490 C   0  0  0  0  0  0  0  0  0  0  0  0
    2.4430   -0.4870    1.2530 C   0  0  0  0  0  0  0  0  0  0  0  0
    2.1360   -1.9360    1.1960 C   0  0  0  0  0  0  0  0  0  0  0  0
    1.1540   -2.6490    0.7760 C   0  0  0  0  0  0  0  0  0  0  0  0
   -0.1220   -2.4250    0.1580 C   0  0  0  0  0  0  0  0  0  0  0  0
   -0.4730   -1.5700   -0.7710 C   0  0  0  0  0  0  0  0  0  0  0  0
    0.3890   -0.5770   -1.4470 C   0  0  0  0  0  0  0  0  0  0  0  0
    0.1030    0.8320   -1.0270 C   0  0  0  0  0  0  0  0  0  0  0  0
   -1.0270    1.0350   -0.1690 N   0  0  0  0  0  0  0  0  0  0  0  0
    4.7990   -0.6090    0.0820 C   0  0  0  0  0  0  0  0  0  0  0  0
    5.5670    0.2160   -0.7160 N   0  0  2  0  0  0  0  0  0  0  0  0
    6.9610   -0.2960   -0.6410 C   0  0  0  0  0  0  0  0  0  0  0  0
    7.8490    0.8560   -1.0390 C   0  0  0  0  0  0  0  0  0  0  0  0
    6.9640    2.0880   -1.0970 C   0  0  0  0  0  0  0  0  0  0  0  0
    5.7530    1.5690   -0.4050 C   0  0  0  0  0  0  0  0  0  0  0  0
    4.8900    2.1570    0.3080 N   0  0  0  0  0  0  0  0  0  0  0  0
   -3.6460   -0.8160    1.9190 C   0  0  0  0  0  0  0  0  0  0  0  0
   -3.0020   -1.0790    2.9410 O   0  0  0  0  0  0  0  0  0  0  0  0
   -4.9990   -1.1750    1.7480 N   0  0  0  0  0  0  0  0  0  0  0  0
   -5.6730   -1.1550    0.4470 C   0  0  0  0  0  0  0  0  0  0  0  0
  1  2  1  0
  2  3  1  0
  3  4  1  0
  4  5  1  0
  4 33  1  0
  5  6  2  0
  6  7  1  0
  6 30  1  0
  7  8  2  0
  7 22  1  0
  8  9  1  0
  9 10  2  0
  9 11  1  0
 11 12  1  0
 11 15  2  0
 12 13  1  0
 13 14  2  0
 13 29  1  0
 14 15  1  0
 14 23  1  0
 15 16  1  0
 16 17  2  0
 17 18  1  0
 18 19  2  0
 19 20  1  0
 20 21  1  0
 21 22  1  0
 24 23  1  1
 24 25  1  0
 24 28  1  0
 25 26  1  0
 26 27  1  0
 27 28  1  0
 28 29  2  0
 30 31  2  0
 30 32  1  0
 32 33  1  0
M  CHG  1  24   1
M  END
