
     RDKit          3D

 24 27  0  0  0  0  0  0  0  0999 V2000
   -2.7310    2.6610    0.8610 C   0  0  0  0  0  0  0  0  0  0  0  0
   -2.5560    1.2510    0.3770 C   0  0  0  0  0  0  0  0  0  0  0  0
   -1.3080    0.6900    0.5170 C   0  0  0  0  0  0  0  0  0  0  0  0
   -1.0960   -0.5980    0.0750 C   0  0  0  0  0  0  0  0  0  0  0  0
    0.1480   -1.1750    0.2010 C   0  0  0  0  0  0  0  0  0  0  0  0
    1.2180   -0.4350    0.8200 C   0  0  0  0  0  0  0  0  0  0  0  0
    2.4550   -0.4150    0.3770 C   0  0  0  0  0  0  0  0  0  0  0  0
    2.8730   -1.1310   -0.7730 O   0  0  0  0  0  0  0  0  0  0  0  0
    3.9750   -0.4560   -1.4300 C   0  0  0  0  0  0  0  0  0  0  0  0
    5.1110   -0.3650   -0.4750 C   0  0  0  0  0  0  0  0  0  0  0  0
    4.7740    0.4790    0.7350 C   0  0  0  0  0  0  0  0  0  0  0  0
    5.5860    1.2470    1.4470 C   0  0  0  0  0  0  0  0  0  0  0  0
    5.1070    1.9400    2.5410 C   0  0  0  0  0  0  0  0  0  0  0  0
    3.3450    1.4160    2.5050 S   0  0  0  0  0  0  0  0  0  0  0  0
    3.4360    0.3890    1.1140 C   0  0  0  0  0  0  0  0  0  0  0  0
    0.3310   -2.4270   -0.2410 N   0  0  0  0  0  0  0  0  0  0  0  0
   -0.6770   -3.1310   -0.8060 C   0  0  0  0  0  0  0  0  0  0  0  0
   -0.4990   -4.3030   -1.2170 O   0  0  0  0  0  0  0  0  0  0  0  0
   -1.9220   -2.6060   -0.9510 N   0  0  0  0  0  0  0  0  0  0  0  0
   -2.1220   -1.3540   -0.5150 C   0  0  0  0  0  0  0  0  0  0  0  0
   -3.3710   -0.7550   -0.6400 C   0  0  0  0  0  0  0  0  0  0  0  0
   -4.5100   -1.4710   -1.2620 C   0  0  0  0  0  0  0  0  0  0  0  0
   -3.5850    0.5330   -0.1980 C   0  0  0  0  0  0  0  0  0  0  0  0
   -4.8880    1.2430   -0.2760 C   0  0  0  0  0  0  0  0  0  0  0  0
  1  2  1  0
  2  3  2  0
  2 23  1  0
  3  4  1  0
  4  5  1  0
  4 20  2  0
  5  6  1  0
  5 16  2  0
  6  7  2  3
  7  8  1  0
  7 15  1  0
  8  9  1  0
  9 10  1  0
 10 11  1  0
 11 12  1  0
 11 15  2  0
 12 13  2  0
 13 14  1  0
 14 15  1  0
 16 17  1  0
 17 18  2  0
 17 19  1  0
 19 20  1  0
 20 21  1  0
 21 22  1  0
 21 23  2  0
 23 24  1  0
M  END
