
     RDKit          3D

 24 27  0  0  0  0  0  0  0  0999 V2000
    5.9280   -1.4260   -0.8170 C   0  0  0  0  0  0  0  0  0  0  0  0
    4.9340   -0.5090   -0.1840 C   0  0  0  0  0  0  0  0  0  0  0  0
    5.2830    0.5260    0.6440 C   0  0  0  0  0  0  0  0  0  0  0  0
    4.0910    1.1110    1.0010 C   0  0  0  0  0  0  0  0  0  0  0  0
    3.8930    2.1740    1.8170 C   0  0  0  0  0  0  0  0  0  0  0  0
    2.6130    2.5960    2.0510 C   0  0  0  0  0  0  0  0  0  0  0  0
    1.5560    1.9230    1.4440 C   0  0  0  0  0  0  0  0  0  0  0  0
    1.7160    0.8400    0.6080 C   0  0  0  0  0  0  0  0  0  0  0  0
    0.6490    0.1950   -0.0490 N   0  0  0  0  0  0  0  0  0  0  0  0
   -0.7140    0.4160    0.2850 C   0  0  0  0  0  0  0  0  0  0  0  0
   -1.0370    1.1870    1.1820 O   0  0  0  0  0  0  0  0  0  0  0  0
   -1.7690   -0.2640   -0.4240 N   0  0  0  0  0  0  0  0  0  0  0  0
   -3.1410   -0.1350   -0.2000 C   0  0  0  0  0  0  0  0  0  0  0  0
   -3.7460    0.7970    0.5920 C   0  0  0  0  0  0  0  0  0  0  0  0
   -5.1370    0.8590    0.7870 C   0  0  0  0  0  0  0  0  0  0  0  0
   -5.9030   -0.0760    0.1350 C   0  0  0  0  0  0  0  0  0  0  0  0
   -7.2620   -0.3250    0.0830 C   0  0  0  0  0  0  0  0  0  0  0  0
   -7.4630   -1.4080   -0.7430 C   0  0  0  0  0  0  0  0  0  0  0  0
   -6.2950   -1.8030   -1.1750 O   0  0  0  0  0  0  0  0  0  0  0  0
   -5.3310   -1.0330   -0.6740 C   0  0  0  0  0  0  0  0  0  0  0  0
   -3.9680   -1.0630   -0.8400 C   0  0  0  0  0  0  0  0  0  0  0  0
    3.0370    0.4300    0.3880 C   0  0  0  0  0  0  0  0  0  0  0  0
    3.5760   -0.5440   -0.3200 N   0  0  0  0  0  0  0  0  0  0  0  0
    2.9150   -1.5310   -1.1130 C   0  0  0  0  0  0  0  0  0  0  0  0
  1  2  1  0
  2  3  2  0
  2 23  1  0
  3  4  1  0
  4  5  2  0
  4 22  1  0
  5  6  1  0
  6  7  2  0
  7  8  1  0
  8  9  1  0
  8 22  2  0
  9 10  1  0
 10 11  2  0
 10 12  1  0
 12 13  1  0
 13 14  2  0
 13 21  1  0
 14 15  1  0
 15 16  2  0
 16 17  1  0
 16 20  1  0
 17 18  2  0
 18 19  1  0
 19 20  1  0
 20 21  2  0
 22 23  1  0
 23 24  1  0
M  END
