
     RDKit          3D

 24 27  0  0  0  0  0  0  0  0999 V2000
    6.8810    0.5000   -0.8680 C   0  0  0  0  0  0  0  0  0  0  0  0
    5.4720    0.7560   -0.3790 C   0  0  0  0  0  0  0  0  0  0  0  0
    4.5790   -0.7750   -0.4720 S   0  0  1  0  0  0  0  0  0  0  0  0
    4.5730   -1.2020   -1.9170 O   0  0  0  0  0  0  0  0  0  0  0  0
    5.2440   -1.8000    0.3950 O   0  0  0  0  0  0  0  0  0  0  0  0
    2.9310   -0.5820    0.0740 C   0  0  0  0  0  0  0  0  0  0  0  0
    1.8980   -0.2440   -0.7660 C   0  0  0  0  0  0  0  0  0  0  0  0
    0.6160   -0.1040   -0.2830 C   0  0  0  0  0  0  0  0  0  0  0  0
    0.3270   -0.3000    1.0640 C   0  0  0  0  0  0  0  0  0  0  0  0
   -0.9780   -0.1590    1.5650 N   0  0  0  0  0  0  0  0  0  0  0  0
   -2.1030    0.1830    0.7890 C   0  0  0  0  0  0  0  0  0  0  0  0
   -2.8860   -0.7690    0.1810 C   0  0  0  0  0  0  0  0  0  0  0  0
   -3.9970   -0.4210   -0.5850 C   0  0  0  0  0  0  0  0  0  0  0  0
   -4.3150    0.9260   -0.7330 C   0  0  0  0  0  0  0  0  0  0  0  0
   -3.5300    1.8780   -0.1230 C   0  0  0  0  0  0  0  0  0  0  0  0
   -3.5940    3.2480   -0.0900 C   0  0  0  0  0  0  0  0  0  0  0  0
   -2.5430    3.6810    0.6790 C   0  0  0  0  0  0  0  0  0  0  0  0
   -1.8590    2.6210    1.1020 N   0  0  0  0  0  0  0  0  0  0  0  0
   -2.4350    1.5050    0.6300 C   0  0  0  0  0  0  0  0  0  0  0  0
   -4.6430   -1.6480   -1.1110 C   0  0  0  0  0  0  0  0  0  0  0  0
   -3.6230   -2.7270   -0.9190 C   0  0  0  0  0  0  0  0  0  0  0  0
   -2.7210   -2.2500    0.2120 C   0  0  0  0  0  0  0  0  0  0  0  0
    1.3660   -0.6380    1.8980 C   0  0  0  0  0  0  0  0  0  0  0  0
    2.6740   -0.7840    1.4240 C   0  0  0  0  0  0  0  0  0  0  0  0
  1  2  1  0
  3  2  1  6
  3  4  2  0
  3  5  2  0
  3  6  1  0
  6  7  2  0
  6 24  1  0
  7  8  1  0
  8  9  2  0
  9 10  1  0
  9 23  1  0
 10 11  1  0
 11 12  2  0
 11 19  1  0
 12 13  1  0
 12 22  1  0
 13 14  2  0
 13 20  1  0
 14 15  1  0
 15 16  1  0
 15 19  2  0
 16 17  2  0
 17 18  1  0
 18 19  1  0
 20 21  1  0
 21 22  1  0
 23 24  2  0
M  END
