
     RDKit          3D

 24 26  0  0  0  0  0  0  0  0999 V2000
    3.9890    1.6990    1.3740 C   0  0  0  0  0  0  0  0  0  0  0  0
    4.2750    0.4290    1.1700 C   0  0  0  0  0  0  0  0  0  0  0  0
    3.7790   -0.2820   -0.0350 C   0  0  0  0  0  0  0  0  0  0  0  0
    2.9650   -1.3770    0.4040 N   0  0  0  0  0  0  0  0  0  0  0  0
    2.3050   -2.3120   -0.8660 S   0  0  2  0  0  0  0  0  0  0  0  0
    1.4120   -3.3610   -0.2170 O   0  0  0  0  0  0  0  0  0  0  0  0
    3.3270   -3.0140   -1.6720 O   0  0  0  0  0  0  0  0  0  0  0  0
    1.2720   -1.2980   -1.8390 C   0  0  0  0  0  0  0  0  0  0  0  0
    1.4060   -0.9630   -3.1700 C   0  0  0  0  0  0  0  0  0  0  0  0
    0.3890   -0.1550   -3.4960 N   0  0  0  0  0  0  0  0  0  0  0  0
   -0.4060    0.0460   -2.4110 C   0  0  0  0  0  0  0  0  0  0  0  0
   -1.5590    0.7730   -2.2110 C   0  0  0  0  0  0  0  0  0  0  0  0
   -2.1240    0.7500   -0.9570 C   0  0  0  0  0  0  0  0  0  0  0  0
   -1.5860    0.0300    0.0870 C   0  0  0  0  0  0  0  0  0  0  0  0
   -0.4210   -0.7020   -0.0930 C   0  0  0  0  0  0  0  0  0  0  0  0
    0.1380   -0.6740   -1.3460 C   0  0  0  0  0  0  0  0  0  0  0  0
   -1.9640   -0.2390    1.4710 C   0  0  0  0  0  0  0  0  0  0  0  0
   -1.7910   -1.5720    1.9180 C   0  0  0  0  0  0  0  0  0  0  0  0
   -1.4390   -2.6450    1.3020 C   0  0  0  0  0  0  0  0  0  0  0  0
   -2.4680    0.5960    2.4010 C   0  0  0  0  0  0  0  0  0  0  0  0
   -2.8260    2.0340    2.3760 C   0  0  0  0  0  0  0  0  0  0  0  0
   -3.3150    2.7740    1.3950 C   0  0  0  0  0  0  0  0  0  0  0  0
   -3.6920    2.5140   -0.0110 C   0  0  0  0  0  0  0  0  0  0  0  0
   -3.2380    1.7080   -0.9880 C   0  0  0  0  0  0  0  0  0  0  0  0
  1  2  2  0
  2  3  1  0
  3  4  1  0
  5  4  1  1
  5  6  2  0
  5  7  2  0
  5  8  1  0
  8  9  2  0
  8 16  1  0
  9 10  1  0
 10 11  1  0
 11 12  2  0
 11 16  1  0
 12 13  1  0
 13 14  2  0
 13 24  1  0
 14 15  1  0
 14 17  1  0
 15 16  2  0
 17 18  1  0
 17 20  2  0
 18 19  2  0
 20 21  1  0
 21 22  2  0
 22 23  1  0
 23 24  2  0
M  END
