
     RDKit          3D

 24 27  0  0  0  0  0  0  0  0999 V2000
    7.9120    0.4840    0.2210 C   0  0  0  0  0  0  0  0  0  0  0  0
    6.5020    0.3250   -0.0630 N   0  0  0  0  0  0  0  0  0  0  0  0
    5.7170   -0.6360    0.6150 C   0  0  0  0  0  0  0  0  0  0  0  0
    4.4260   -0.6170    0.5340 C   0  0  0  0  0  0  0  0  0  0  0  0
    3.4400    0.5600   -0.3970 S   0  0  0  0  0  0  0  0  0  0  0  0
    1.8550   -0.1460    0.0490 C   0  0  0  0  0  0  0  0  0  0  0  0
    0.5870    0.4000   -0.4250 C   0  0  0  0  0  0  0  0  0  0  0  0
    0.5310    1.4950   -1.2470 C   0  0  0  0  0  0  0  0  0  0  0  0
   -0.6710    2.0040   -1.6900 C   0  0  0  0  0  0  0  0  0  0  0  0
   -1.8650    1.3930   -1.2940 C   0  0  0  0  0  0  0  0  0  0  0  0
   -1.8070    0.2790   -0.4580 C   0  0  0  0  0  0  0  0  0  0  0  0
   -0.6120   -0.2100   -0.0300 C   0  0  0  0  0  0  0  0  0  0  0  0
   -3.0550   -0.3660   -0.0400 C   0  0  0  0  0  0  0  0  0  0  0  0
   -3.0690   -1.4770    0.7910 C   0  0  0  0  0  0  0  0  0  0  0  0
   -4.2780   -2.0300    1.1420 C   0  0  0  0  0  0  0  0  0  0  0  0
   -4.2910   -3.1310    1.9650 O   0  0  0  0  0  0  0  0  0  0  0  0
   -5.4760   -1.5180    0.6960 C   0  0  0  0  0  0  0  0  0  0  0  0
   -5.4210   -0.4260   -0.1180 C   0  0  0  0  0  0  0  0  0  0  0  0
   -4.2290    0.1850   -0.5140 C   0  0  0  0  0  0  0  0  0  0  0  0
   -4.3590    1.3450   -1.3880 C   0  0  0  0  0  0  0  0  0  0  0  0
   -3.0970    1.9950   -1.8080 C   0  0  0  0  0  0  0  0  0  0  0  0
    2.0930   -1.1290    0.7970 N   0  0  0  0  0  0  0  0  0  0  0  0
    3.3970   -1.4600    1.1120 C   0  0  0  0  0  0  0  0  0  0  0  0
    3.6990   -2.4510    1.8690 O   0  0  0  0  0  0  0  0  0  0  0  0
  1  2  1  0
  2  3  1  0
  3  4  2  3
  4  5  1  0
  4 23  1  0
  5  6  1  0
  6  7  1  0
  6 22  2  0
  7  8  2  0
  7 12  1  0
  8  9  1  0
  9 10  2  0
 10 11  1  0
 10 21  1  0
 11 12  2  0
 11 13  1  0
 13 14  2  0
 13 19  1  0
 14 15  1  0
 15 16  1  0
 15 17  2  0
 17 18  1  0
 18 19  2  0
 19 20  1  0
 20 21  1  0
 22 23  1  0
 23 24  2  0
M  END
