
     RDKit          3D

 24 27  0  0  0  0  0  0  0  0999 V2000
   -3.2140    3.0120    0.8670 C   0  0  0  0  0  0  0  0  0  0  0  0
   -3.0690    1.7540    0.1320 C   0  0  0  0  0  0  0  0  0  0  0  0
   -3.8500    1.5430   -0.9990 C   0  0  0  0  0  0  0  0  0  0  0  0
   -3.7120    0.3640   -1.6860 C   0  0  0  0  0  0  0  0  0  0  0  0
   -2.8150   -0.5880   -1.2580 C   0  0  0  0  0  0  0  0  0  0  0  0
   -2.6960   -1.7510   -1.9470 C   0  0  0  0  0  0  0  0  0  0  0  0
   -1.8180   -2.7380   -1.5570 C   0  0  0  0  0  0  0  0  0  0  0  0
   -1.0710   -2.4970   -0.4450 C   0  0  0  0  0  0  0  0  0  0  0  0
   -1.1530   -1.3240    0.2960 C   0  0  0  0  0  0  0  0  0  0  0  0
   -2.0320   -0.3660   -0.1180 C   0  0  0  0  0  0  0  0  0  0  0  0
   -2.1630    0.8160    0.5800 C   0  0  0  0  0  0  0  0  0  0  0  0
   -1.4090    1.1090    1.7410 N   0  0  0  0  0  0  0  0  0  0  0  0
    0.0910    1.9210    1.7280 S   0  0  2  0  0  0  0  0  0  0  0  0
    0.6200    2.0010    3.1440 O   0  0  0  0  0  0  0  0  0  0  0  0
   -0.0630    3.3140    1.1790 O   0  0  0  0  0  0  0  0  0  0  0  0
    1.2650    1.0030    0.8180 C   0  0  0  0  0  0  0  0  0  0  0  0
    1.4070    1.2190   -0.5450 C   0  0  0  0  0  0  0  0  0  0  0  0
    2.3490    0.4800   -1.2690 C   0  0  0  0  0  0  0  0  0  0  0  0
    3.1410   -0.4620   -0.6470 C   0  0  0  0  0  0  0  0  0  0  0  0
    3.0080   -0.6850    0.7070 C   0  0  0  0  0  0  0  0  0  0  0  0
    2.0700    0.0600    1.3890 C   0  0  0  0  0  0  0  0  0  0  0  0
    3.9730   -1.7340    1.0770 C   0  0  0  0  0  0  0  0  0  0  0  0
    4.9970   -1.6680   -0.0340 C   0  0  0  0  0  0  0  0  0  0  0  0
    4.1530   -1.3200   -1.1740 N   0  0  0  0  0  0  0  0  0  0  0  0
  1  2  1  0
  2  3  2  0
  2 11  1  0
  3  4  1  0
  4  5  2  0
  5  6  1  0
  5 10  1  0
  6  7  2  0
  7  8  1  0
  8  9  2  0
  9 10  1  0
 10 11  2  0
 11 12  1  0
 13 12  1  1
 13 14  2  0
 13 15  2  0
 13 16  1  0
 16 17  2  0
 16 21  1  0
 17 18  1  0
 18 19  2  0
 19 20  1  0
 19 24  1  0
 20 21  2  0
 20 22  1  0
 22 23  1  0
 23 24  1  0
M  END
