
     RDKit          3D

 24 27  0  0  0  0  0  0  0  0999 V2000
   -2.7510    3.9660    1.1320 C   0  0  0  0  0  0  0  0  0  0  0  0
   -3.3630    2.7530    0.8340 O   0  0  0  0  0  0  0  0  0  0  0  0
   -2.6560    1.5970    0.5060 C   0  0  0  0  0  0  0  0  0  0  0  0
   -3.3240    0.4280    0.2210 C   0  0  0  0  0  0  0  0  0  0  0  0
   -2.6710   -0.7310   -0.1050 C   0  0  0  0  0  0  0  0  0  0  0  0
   -3.4390   -1.9670   -0.4050 C   0  0  0  0  0  0  0  0  0  0  0  0
   -4.8030   -1.9870   -0.3640 C   0  0  0  0  0  0  0  0  0  0  0  0
   -5.1640   -3.7240   -0.8080 S   0  0  0  0  0  0  0  0  0  0  0  0
   -3.3330   -4.0890   -0.9660 C   0  0  0  0  0  0  0  0  0  0  0  0
   -2.8710   -3.1120   -0.7250 N   0  0  0  0  0  0  0  0  0  0  0  0
   -1.2940   -0.6830   -0.1390 C   0  0  0  0  0  0  0  0  0  0  0  0
   -0.5480    0.4360    0.1300 C   0  0  0  0  0  0  0  0  0  0  0  0
    0.9150    0.4590    0.0870 C   0  0  0  0  0  0  0  0  0  0  0  0
    1.5930    1.6200    0.3690 C   0  0  0  0  0  0  0  0  0  0  0  0
    2.9870    1.6460    0.3290 C   0  0  0  0  0  0  0  0  0  0  0  0
    3.6330    2.6880    0.5810 O   0  0  0  0  0  0  0  0  0  0  0  0
    3.6650    0.4940    0.0040 C   0  0  0  0  0  0  0  0  0  0  0  0
    5.0470    0.4410   -0.0570 C   0  0  0  0  0  0  0  0  0  0  0  0
    5.7140   -0.7240   -0.3850 C   0  0  0  0  0  0  0  0  0  0  0  0
    5.0090   -1.8770   -0.6650 C   0  0  0  0  0  0  0  0  0  0  0  0
    3.6360   -1.8090   -0.6010 C   0  0  0  0  0  0  0  0  0  0  0  0
    2.9430   -0.6390   -0.2700 C   0  0  0  0  0  0  0  0  0  0  0  0
    1.5920   -0.6380   -0.2240 N   0  0  0  0  0  0  0  0  0  0  0  0
   -1.2600    1.5720    0.4520 C   0  0  0  0  0  0  0  0  0  0  0  0
  1  2  1  0
  2  3  1  0
  3  4  2  0
  3 24  1  0
  4  5  1  0
  5  6  1  0
  5 11  2  0
  6  7  2  0
  6 10  1  0
  7  8  1  0
  8  9  1  0
  9 10  2  0
 11 12  1  0
 12 13  1  0
 12 24  2  0
 13 14  2  0
 13 23  1  0
 14 15  1  0
 15 16  2  0
 15 17  1  0
 17 18  2  0
 17 22  1  0
 18 19  1  0
 19 20  2  0
 20 21  1  0
 21 22  2  0
 22 23  1  0
M  END
