
     RDKit          3D

 24 27  0  0  0  0  0  0  0  0999 V2000
   -4.0310    3.3550    0.0160 C   0  0  0  0  0  0  0  0  0  0  0  0
   -4.7220    2.1160    0.0290 O   0  0  0  0  0  0  0  0  0  0  0  0
   -4.0530    0.9200    0.0100 C   0  0  0  0  0  0  0  0  0  0  0  0
   -4.7670   -0.2580    0.0230 C   0  0  0  0  0  0  0  0  0  0  0  0
   -4.0670   -1.4430    0.0040 C   0  0  0  0  0  0  0  0  0  0  0  0
   -2.6780   -1.4360   -0.0270 C   0  0  0  0  0  0  0  0  0  0  0  0
   -1.9930   -2.6240   -0.0460 O   0  0  0  0  0  0  0  0  0  0  0  0
   -2.6250   -3.8930   -0.0350 C   0  0  0  0  0  0  0  0  0  0  0  0
   -1.9550   -0.2630   -0.0410 C   0  0  0  0  0  0  0  0  0  0  0  0
   -0.4910   -0.2480   -0.0740 C   0  0  0  0  0  0  0  0  0  0  0  0
    0.2470   -1.0740    0.7390 C   0  0  0  0  0  0  0  0  0  0  0  0
    1.6140   -1.0400    0.6880 C   0  0  0  0  0  0  0  0  0  0  0  0
    2.2970   -0.1960   -0.1580 C   0  0  0  0  0  0  0  0  0  0  0  0
    3.7800   -0.2480   -0.1230 C   0  0  0  0  0  0  0  0  0  0  0  0
    4.3720   -1.5290   -0.1420 C   0  0  0  0  0  0  0  0  0  0  0  0
    6.1020   -1.1880   -0.0970 S   0  0  0  0  0  0  0  0  0  0  0  0
    5.9650    0.5740   -0.0570 C   0  0  0  0  0  0  0  0  0  0  0  0
    6.6320    1.7750   -0.0140 N   0  0  0  0  0  0  0  0  0  0  0  0
    5.7320    2.7230   -0.0100 N   0  0  0  0  0  0  0  0  0  0  0  0
    4.5160    2.2070   -0.0480 C   0  0  0  0  0  0  0  0  0  0  0  0
    4.6170    0.7980   -0.0800 C   0  0  0  0  0  0  0  0  0  0  0  0
    1.5930    0.6300   -0.9710 C   0  0  0  0  0  0  0  0  0  0  0  0
    0.2140    0.6010   -0.9270 C   0  0  0  0  0  0  0  0  0  0  0  0
   -2.6650    0.9130   -0.0210 C   0  0  0  0  0  0  0  0  0  0  0  0
  1  2  1  0
  2  3  1  0
  3  4  2  0
  3 24  1  0
  4  5  1  0
  5  6  2  0
  6  7  1  0
  6  9  1  0
  7  8  1  0
  9 10  1  0
  9 24  2  0
 10 11  2  0
 10 23  1  0
 11 12  1  0
 12 13  2  0
 13 14  1  0
 13 22  1  0
 14 15  2  0
 14 21  1  0
 15 16  1  0
 16 17  1  0
 17 18  1  0
 17 21  2  0
 18 19  1  0
 19 20  2  0
 20 21  1  0
 22 23  2  0
M  END
