
     RDKit          3D

 24 27  0  0  0  0  0  0  0  0999 V2000
    4.2910    1.8390    1.0900 C   0  0  0  0  0  0  0  0  0  0  0  0
    4.4060    0.8090   -0.3650 S   0  0  2  0  0  0  0  0  0  0  0  0
    5.4830   -0.2300   -0.2220 O   0  0  0  0  0  0  0  0  0  0  0  0
    4.7880    1.6830   -1.5110 O   0  0  0  0  0  0  0  0  0  0  0  0
    2.8610    0.0780   -0.5890 N   0  0  0  0  0  0  0  0  0  0  0  0
    2.2630   -0.7860    0.3370 C   0  0  0  0  0  0  0  0  0  0  0  0
    3.0410   -1.2080    1.4010 C   0  0  0  0  0  0  0  0  0  0  0  0
    2.5330   -2.0360    2.3860 C   0  0  0  0  0  0  0  0  0  0  0  0
    1.2270   -2.4320    2.2800 C   0  0  0  0  0  0  0  0  0  0  0  0
    0.4640   -2.0140    1.2290 C   0  0  0  0  0  0  0  0  0  0  0  0
    0.9620   -1.1780    0.2240 C   0  0  0  0  0  0  0  0  0  0  0  0
    0.0900   -0.8200   -0.8780 C   0  0  0  0  0  0  0  0  0  0  0  0
    0.4320   -1.0440   -2.1830 C   0  0  0  0  0  0  0  0  0  0  0  0
   -0.4210   -0.7260   -3.2360 C   0  0  0  0  0  0  0  0  0  0  0  0
   -1.6460   -0.1740   -2.9910 C   0  0  0  0  0  0  0  0  0  0  0  0
   -2.0070    0.0570   -1.6880 C   0  0  0  0  0  0  0  0  0  0  0  0
   -1.1660   -0.2550   -0.6400 C   0  0  0  0  0  0  0  0  0  0  0  0
   -1.8130    0.0910    0.4900 N   0  0  0  0  0  0  0  0  0  0  0  0
   -3.0280    0.6100    0.2060 C   0  0  0  0  0  0  0  0  0  0  0  0
   -4.0660    1.1090    0.9740 C   0  0  0  0  0  0  0  0  0  0  0  0
   -5.2340    1.5930    0.4280 C   0  0  0  0  0  0  0  0  0  0  0  0
   -5.3400    1.5640   -0.9470 C   0  0  0  0  0  0  0  0  0  0  0  0
   -4.3220    1.0730   -1.7330 C   0  0  0  0  0  0  0  0  0  0  0  0
   -3.1530    0.5900   -1.1540 C   0  0  0  0  0  0  0  0  0  0  0  0
  2  1  1  1
  2  3  2  0
  2  4  2  0
  2  5  1  0
  5  6  1  0
  6  7  2  0
  6 11  1  0
  7  8  1  0
  8  9  2  0
  9 10  1  0
 10 11  2  0
 11 12  1  0
 12 13  2  0
 12 17  1  0
 13 14  1  0
 14 15  2  0
 15 16  1  0
 16 17  2  0
 16 24  1  0
 17 18  1  0
 18 19  1  0
 19 20  2  0
 19 24  1  0
 20 21  1  0
 21 22  2  0
 22 23  1  0
 23 24  2  0
M  END
