
     RDKit          3D

 24 27  0  0  0  0  0  0  0  0999 V2000
   -4.0340   -3.2580   -0.4130 C   0  0  0  0  0  0  0  0  0  0  0  0
   -2.9170   -2.7140   -0.8460 C   0  0  0  0  0  0  0  0  0  0  0  0
   -2.8500   -1.3430   -1.4120 C   0  0  0  0  0  0  0  0  0  0  0  0
   -1.9290   -0.4350   -0.6870 C   0  0  0  0  0  0  0  0  0  0  0  0
   -0.5420   -0.4960   -0.8570 C   0  0  0  0  0  0  0  0  0  0  0  0
    0.2460    0.3850   -0.1360 C   0  0  0  0  0  0  0  0  0  0  0  0
   -0.2790    1.3120    0.7380 C   0  0  0  0  0  0  0  0  0  0  0  0
   -1.6650    1.3860    0.9190 C   0  0  0  0  0  0  0  0  0  0  0  0
   -2.3510    2.1900    1.7020 N   0  0  0  0  0  0  0  0  0  0  0  0
   -3.4880    2.2620    1.8660 C   0  0  0  0  0  0  0  0  0  0  0  0
   -4.5030    3.0210    2.6390 C   0  0  0  0  0  0  0  0  0  0  0  0
   -4.0810    0.9220    0.7130 S   0  0  0  0  0  0  0  0  0  0  0  0
   -2.4070    0.5090    0.1960 C   0  0  0  0  0  0  0  0  0  0  0  0
    1.7310    0.4120   -0.2930 C   0  0  0  0  0  0  0  0  0  0  0  0
    2.2530   -0.6900   -1.0950 C   0  0  0  0  0  0  0  0  0  0  0  0
    3.5560   -0.8870   -1.1290 C   0  0  0  0  0  0  0  0  0  0  0  0
    4.4280   -0.0020   -0.3710 C   0  0  0  0  0  0  0  0  0  0  0  0
    5.5560   -0.3480    0.3600 C   0  0  0  0  0  0  0  0  0  0  0  0
    6.0290    0.8290    0.8870 C   0  0  0  0  0  0  0  0  0  0  0  0
    5.1820    1.8240    0.4600 C   0  0  0  0  0  0  0  0  0  0  0  0
    4.2350    1.3010   -0.2890 O   0  0  0  0  0  0  0  0  0  0  0  0
    1.4050   -1.5950   -1.8510 C   0  0  0  0  0  0  0  0  0  0  0  0
    1.8720   -2.4780   -2.6250 O   0  0  0  0  0  0  0  0  0  0  0  0
    0.0050   -1.4830   -1.7160 N   0  0  0  0  0  0  0  0  0  0  0  0
  1  2  2  0
  2  3  1  0
  3  4  1  0
  4  5  2  0
  4 13  1  0
  5  6  1  0
  5 24  1  0
  6  7  2  0
  6 14  1  0
  7  8  1  0
  8  9  1  0
  8 13  2  0
  9 10  2  0
 10 11  1  0
 10 12  1  0
 12 13  1  0
 14 15  1  0
 15 16  2  3
 15 22  1  0
 16 17  1  0
 17 18  2  0
 17 21  1  0
 18 19  1  0
 19 20  2  0
 20 21  1  0
 22 23  2  0
 22 24  1  0
M  END
