
     RDKit          3D

 15 16  0  0  0  0  0  0  0  0999 V2000
    3.9140   -1.1860   -1.2930 O   0  0  0  0  0  0  0  0  0  0  0  0
    3.1720   -0.3950   -0.6660 C   0  0  0  0  0  0  0  0  0  0  0  0
    2.4090   -0.8430    0.4730 N   0  0  0  0  0  0  0  0  0  0  0  0
    1.6460    0.2000    1.1450 C   0  0  0  0  0  0  0  0  0  0  0  0
    0.8370    0.8990    0.0610 C   0  0  2  0  0  0  0  0  0  0  0  0
    0.1850    0.0010   -0.8180 N   0  0  0  0  0  0  0  0  0  0  0  0
   -1.1650   -0.3120   -0.5210 C   0  0  1  0  0  0  0  0  0  0  0  0
   -1.3150   -1.3190    0.6200 C   0  0  0  0  0  0  0  0  0  0  0  0
   -2.7760   -1.7830    0.5330 C   0  0  0  0  0  0  0  0  0  0  0  0
   -3.5490   -0.6160    0.8480 O   0  0  0  0  0  0  0  0  0  0  0  0
   -3.1290    0.6050    0.4160 N   0  0  0  0  0  0  0  0  0  0  0  0
   -2.0340    0.8220   -0.2250 C   0  0  0  0  0  0  0  0  0  0  0  0
   -1.7650    2.1300   -0.5880 O   0  0  0  0  0  0  0  0  0  0  0  0
    1.8610    1.6920   -0.7640 C   0  0  0  0  0  0  0  0  0  0  0  0
    3.0200    0.9450   -0.9970 O   0  0  0  0  0  0  0  0  0  0  0  0
  1  2  2  0
  2  3  1  0
  2 15  1  0
  3  4  1  0
  4  5  1  0
  5  6  1  6
  5 14  1  0
  7  6  1  1
  7  8  1  0
  7 12  1  0
  8  9  1  0
  9 10  1  0
 10 11  1  0
 11 12  2  0
 12 13  1  0
 14 15  1  0
M  CHG  1   6   1
M  END
