
     RDKit          3D

 15 16  0  0  0  0  0  0  0  0999 V2000
    4.9060    0.7170    1.7740 O   0  0  0  0  0  0  0  0  0  0  0  0
    4.0340    0.2690    0.9860 C   0  0  0  0  0  0  0  0  0  0  0  0
    3.9970    0.6400   -0.4010 N   0  0  0  0  0  0  0  0  0  0  0  0
    2.8940   -0.0510   -0.9680 C   0  0  0  0  0  0  0  0  0  0  0  0
    2.5510    0.0330   -2.1750 O   0  0  0  0  0  0  0  0  0  0  0  0
    2.2160   -0.8830    0.0860 C   0  0  2  0  0  0  0  0  0  0  0  0
    0.8840   -0.4260    0.1480 O   0  0  0  0  0  0  0  0  0  0  0  0
   -0.2120   -1.1800   -0.1780 C   0  0  0  0  0  0  0  0  0  0  0  0
    0.0210   -2.3700   -0.5590 O   0  0  0  0  0  0  0  0  0  0  0  0
   -1.6080   -0.7130   -0.1170 C   0  0  1  0  0  0  0  0  0  0  0  0
   -2.0410   -0.2840    1.2540 C   0  0  0  0  0  0  0  0  0  0  0  0
   -3.2530    0.5770    0.9220 C   0  0  0  0  0  0  0  0  0  0  0  0
   -2.8860    1.2840   -0.2750 N   0  0  0  0  0  0  0  0  0  0  0  0
   -1.8020    0.5950   -0.8970 C   0  0  0  0  0  0  0  0  0  0  0  0
    2.9750   -0.6340    1.2650 N   0  0  0  0  0  0  0  0  0  0  0  0
  1  2  2  0
  2  3  1  0
  2 15  1  0
  3  4  1  0
  4  5  2  0
  4  6  1  0
  6  7  1  1
  6 15  1  0
  7  8  1  0
  8  9  2  0
 10  8  1  1
 10 11  1  0
 10 14  1  0
 11 12  1  0
 12 13  1  0
 13 14  1  0
M  CHG  1  13   1
M  END
