
     RDKit          3D

 15 16  0  0  0  0  0  0  0  0999 V2000
    1.2150   -2.6580   -0.3630 O   0  0  0  0  0  0  0  0  0  0  0  0
    0.2040   -1.9660   -0.0620 C   0  0  0  0  0  0  0  0  0  0  0  0
   -1.0470   -2.6380   -0.0530 N   0  0  0  0  0  0  0  0  0  0  0  0
   -2.1610   -1.9310   -0.5220 N   0  0  0  0  0  0  0  0  0  0  0  0
   -1.9380   -0.6040   -0.9660 C   0  0  0  0  0  0  0  0  0  0  0  0
   -2.6160   -0.1370   -1.9190 O   0  0  0  0  0  0  0  0  0  0  0  0
   -0.9140    0.2180   -0.3060 C   0  0  2  0  0  0  0  0  0  0  0  0
   -1.5970    1.0710    0.7470 C   0  0  0  0  0  0  0  0  0  0  0  0
   -1.1740    2.4170    0.4440 N   0  0  0  0  0  0  0  0  0  0  0  0
   -0.5560    2.4530   -0.6800 C   0  0  0  0  0  0  0  0  0  0  0  0
   -0.4900    1.1930   -1.2430 O   0  0  0  0  0  0  0  0  0  0  0  0
    0.2420   -0.5500    0.2690 C   0  0  2  0  0  0  0  0  0  0  0  0
    1.5030    0.1640   -0.0720 C   0  0  0  0  0  0  0  0  0  0  0  0
    2.7390   -0.3410    0.5760 C   0  0  0  0  0  0  0  0  0  0  0  0
    3.8020    0.4740    0.1170 O   0  0  0  0  0  0  0  0  0  0  0  0
  1  2  2  0
  2  3  1  0
  2 12  1  0
  3  4  1  0
  4  5  1  0
  5  6  2  0
  5  7  1  0
  7  8  1  1
  7 11  1  0
  7 12  1  0
  8  9  1  0
  9 10  2  0
 10 11  1  0
 12 13  1  6
 13 14  1  0
 14 15  1  0
M  CHG  1   9   1
M  END
