
     RDKit          3D

 15 16  0  0  0  0  0  0  0  0999 V2000
    2.1600   -1.5810   -1.6850 N   0  0  0  0  0  0  0  0  0  0  0  0
    1.1760   -1.1400   -0.6920 C   0  0  2  0  0  0  0  0  0  0  0  0
    0.0940   -0.4480   -1.4360 C   0  0  0  0  0  0  0  0  0  0  0  0
   -0.9860    0.0670   -0.6290 N   0  0  0  0  0  0  0  0  0  0  0  0
   -2.1730   -0.6930   -0.2860 C   0  0  0  0  0  0  0  0  0  0  0  0
   -3.2530    0.2380    0.2230 C   0  0  0  0  0  0  0  0  0  0  0  0
   -2.7220    0.9360    1.4490 C   0  0  0  0  0  0  0  0  0  0  0  0
   -1.5900    1.7090    1.0490 O   0  0  0  0  0  0  0  0  0  0  0  0
   -0.8950    1.3950   -0.1330 C   0  0  0  0  0  0  0  0  0  0  0  0
   -0.2060    2.2900   -0.7340 O   0  0  0  0  0  0  0  0  0  0  0  0
    1.8340   -0.3870    0.3990 C   0  0  1  0  0  0  0  0  0  0  0  0
    2.6060    0.7520   -0.0060 N   0  0  0  0  0  0  0  0  0  0  0  0
    2.3540    1.7240    0.9000 O   0  0  0  0  0  0  0  0  0  0  0  0
    1.8510    1.0510    1.9940 C   0  0  0  0  0  0  0  0  0  0  0  0
    1.0160    0.0800    1.3900 O   0  0  0  0  0  0  0  0  0  0  0  0
  2  1  1  6
  2  3  1  0
  2 11  1  0
  3  4  1  0
  4  5  1  0
  4  9  1  0
  5  6  1  0
  6  7  1  0
  7  8  1  0
  8  9  1  0
  9 10  2  0
 11 12  1  6
 11 15  1  0
 12 13  1  0
 13 14  1  0
 14 15  1  0
M  CHG  1   1   1
M  END
