
     RDKit          3D

 15 15  0  0  0  0  0  0  0  0999 V2000
   -3.0580    3.1090    0.1600 C   0  0  0  0  0  0  0  0  0  0  0  0
   -2.2360    1.9990    0.4960 O   0  0  0  0  0  0  0  0  0  0  0  0
   -0.9730    1.8160   -0.0170 C   0  0  0  0  0  0  0  0  0  0  0  0
   -0.5400    2.6830   -0.8210 O   0  0  0  0  0  0  0  0  0  0  0  0
   -0.1450    0.6200    0.3730 C   0  0  2  0  0  0  0  0  0  0  0  0
    1.0850    0.6530   -0.2690 O   0  0  0  0  0  0  0  0  0  0  0  0
    1.8730   -0.3810    0.1750 C   0  0  2  0  0  0  0  0  0  0  0  0
    3.2820   -0.3200   -0.3270 C   0  0  0  0  0  0  0  0  0  0  0  0
    3.9860    0.8740    0.0600 N   0  0  0  0  0  0  0  0  0  0  0  0
    1.3150   -1.6990   -0.3810 C   0  0  0  0  0  0  0  0  0  0  0  0
   -0.1020   -1.7590   -0.2960 N   0  0  0  0  0  0  0  0  0  0  0  0
   -0.8850   -0.6390    0.0710 C   0  0  0  0  0  0  0  0  0  0  0  0
   -2.1490   -0.6620    0.1510 N   0  0  0  0  0  0  0  0  0  0  0  0
   -2.9950   -1.7850   -0.1050 C   0  0  0  0  0  0  0  0  0  0  0  0
   -3.1960   -2.5660    1.0320 O   0  0  0  0  0  0  0  0  0  0  0  0
  1  2  1  0
  2  3  1  0
  3  4  2  0
  5  3  1  6
  5  6  1  0
  5 12  1  0
  6  7  1  0
  7  8  1  6
  7 10  1  0
  8  9  1  0
 10 11  1  0
 11 12  1  0
 12 13  2  3
 13 14  1  0
 14 15  1  0
M  CHG  1   9   1
M  END
