
     RDKit          3D

 15 16  0  0  0  0  0  0  0  0999 V2000
   -3.2300   -0.1700    1.2480 C   0  0  0  0  0  0  0  0  0  0  0  0
   -2.1280    0.3160    0.3030 C   0  0  2  0  0  0  0  0  0  0  0  0
   -2.7070    0.4630   -1.0070 N   0  0  0  0  0  0  0  0  0  0  0  0
   -0.9940   -0.6670    0.3350 C   0  0  0  0  0  0  0  0  0  0  0  0
    0.1410   -0.2730   -0.5680 C   0  0  2  0  0  0  0  0  0  0  0  0
    1.1790   -1.1980   -0.5230 O   0  0  0  0  0  0  0  0  0  0  0  0
    2.0360   -0.7720    0.4910 C   0  0  1  0  0  0  0  0  0  0  0  0
    3.4480   -1.1400    0.2650 C   0  0  0  0  0  0  0  0  0  0  0  0
    3.8540   -2.2460   -0.1310 O   0  0  0  0  0  0  0  0  0  0  0  0
    4.2500   -0.0180    0.5770 N   0  0  0  0  0  0  0  0  0  0  0  0
    3.3930    1.1280    0.5970 C   0  0  0  0  0  0  0  0  0  0  0  0
    3.7040    2.3040    0.8300 O   0  0  0  0  0  0  0  0  0  0  0  0
    2.0780    0.6890    0.2970 N   0  0  0  0  0  0  0  0  0  0  0  0
    0.7710    1.0130   -0.1140 C   0  0  0  0  0  0  0  0  0  0  0  0
    0.2660    2.1540   -0.0930 O   0  0  0  0  0  0  0  0  0  0  0  0
  2  1  1  1
  2  3  1  0
  2  4  1  0
  5  4  1  1
  5  6  1  0
  5 14  1  0
  7  6  1  6
  7  8  1  0
  7 13  1  0
  8  9  2  0
  8 10  1  0
 10 11  1  0
 11 12  2  0
 11 13  1  0
 13 14  1  0
 14 15  2  0
M  CHG  1   3   1
M  END
