
     RDKit          3D

 15 16  0  0  0  0  0  0  0  0999 V2000
   -4.4110    0.6610    0.4200 N   0  0  0  0  0  0  0  0  0  0  0  0
   -3.2320   -0.0420    0.0810 C   0  0  0  0  0  0  0  0  0  0  0  0
   -2.8360   -1.1240    0.6200 N   0  0  0  0  0  0  0  0  0  0  0  0
   -1.6580   -1.5170    0.0430 O   0  0  0  0  0  0  0  0  0  0  0  0
   -1.4350   -0.8330   -1.1510 C   0  0  2  0  0  0  0  0  0  0  0  0
   -0.0020   -0.3720   -1.1830 C   0  0  0  0  0  0  0  0  0  0  0  0
    0.4460    0.2720   -2.1640 O   0  0  0  0  0  0  0  0  0  0  0  0
    0.8880   -0.6470   -0.1140 N   0  0  0  0  0  0  0  0  0  0  0  0
    2.2810   -0.2150   -0.1150 C   0  0  2  0  0  0  0  0  0  0  0  0
    3.1370   -1.4610    0.0210 C   0  0  0  0  0  0  0  0  0  0  0  0
    4.3090   -0.9570    0.6300 O   0  0  0  0  0  0  0  0  0  0  0  0
    4.0570    0.1880    1.3470 C   0  0  0  0  0  0  0  0  0  0  0  0
    4.8710    0.8210    2.0530 O   0  0  0  0  0  0  0  0  0  0  0  0
    2.6250    0.5450    1.1310 C   0  0  0  0  0  0  0  0  0  0  0  0
   -2.2860    0.4100   -0.9740 C   0  0  0  0  0  0  0  0  0  0  0  0
  1  2  1  0
  2  3  2  0
  2 15  1  0
  3  4  1  0
  4  5  1  0
  5  6  1  1
  5 15  1  0
  6  7  2  0
  6  8  1  0
  9  8  1  1
  9 10  1  0
  9 14  1  0
 10 11  1  0
 11 12  1  0
 12 13  2  0
 12 14  1  0
M  CHG  1   1   1
M  END
