
     RDKit          3D

 15 16  0  0  0  0  0  0  0  0999 V2000
   -4.8110   -0.5360   -0.7810 C   0  0  0  0  0  0  0  0  0  0  0  0
   -3.4060   -0.7690   -0.5860 O   0  0  0  0  0  0  0  0  0  0  0  0
   -2.6610    0.0950    0.2040 C   0  0  0  0  0  0  0  0  0  0  0  0
   -3.2510    0.6200    1.2140 N   0  0  0  0  0  0  0  0  0  0  0  0
   -1.2470    0.4220   -0.0700 C   0  0  0  0  0  0  0  0  0  0  0  0
   -0.3950   -0.7510   -0.0500 N   0  0  0  0  0  0  0  0  0  0  0  0
    0.8400   -0.5050   -0.7260 C   0  0  0  0  0  0  0  0  0  0  0  0
    1.9600   -0.1100    0.2050 C   0  0  1  0  0  0  0  0  0  0  0  0
    2.6060   -1.1920    0.9000 N   0  0  0  0  0  0  0  0  0  0  0  0
    3.9490   -0.7520    1.1410 C   0  0  0  0  0  0  0  0  0  0  0  0
    4.8320   -1.2910    1.8570 O   0  0  0  0  0  0  0  0  0  0  0  0
    4.1690    0.4390    0.4270 O   0  0  0  0  0  0  0  0  0  0  0  0
    3.1110    0.5930   -0.4630 C   0  0  2  0  0  0  0  0  0  0  0  0
    2.2410    1.7770   -0.1310 C   0  0  0  0  0  0  0  0  0  0  0  0
    1.7350    1.0420    0.9400 O   0  0  0  0  0  0  0  0  0  0  0  0
  1  2  1  0
  2  3  1  0
  3  4  2  0
  3  5  1  0
  5  6  1  0
  6  7  1  0
  8  7  1  6
  8  9  1  0
  8 13  1  0
  8 15  1  0
  9 10  1  0
 10 11  2  0
 10 12  1  0
 12 13  1  0
 13 14  1  1
 14 15  1  0
M  CHG  1   6   1
M  END
