
     RDKit          3D

 15 16  0  0  0  0  0  0  0  0999 V2000
   -3.7560    2.4920    0.6150 O   0  0  0  0  0  0  0  0  0  0  0  0
   -3.2530    1.3610    0.5870 C   0  0  0  0  0  0  0  0  0  0  0  0
   -3.6290    0.4280   -0.4360 N   0  0  0  0  0  0  0  0  0  0  0  0
   -3.0000   -0.8520   -0.3900 C   0  0  0  0  0  0  0  0  0  0  0  0
   -3.5640   -1.8420   -0.9050 O   0  0  0  0  0  0  0  0  0  0  0  0
   -1.6800   -1.0640    0.2530 C   0  0  1  0  0  0  0  0  0  0  0  0
   -0.6020   -1.0970   -0.7850 C   0  0  0  0  0  0  0  0  0  0  0  0
    0.3570   -0.0850   -0.4760 N   0  0  2  0  0  0  0  0  0  0  0  0
    1.5820   -0.6330    0.1190 C   0  0  0  0  0  0  0  0  0  0  0  0
    2.6590    0.4190   -0.1310 C   0  0  0  0  0  0  0  0  0  0  0  0
    3.8830   -0.0830    0.4400 N   0  0  0  0  0  0  0  0  0  0  0  0
    4.9020    0.7790    0.2710 O   0  0  0  0  0  0  0  0  0  0  0  0
   -0.2120    0.8230    0.4680 C   0  0  0  0  0  0  0  0  0  0  0  0
   -1.2750    0.0400    1.1690 C   0  0  1  0  0  0  0  0  0  0  0  0
   -2.3200    0.9190    1.5090 O   0  0  0  0  0  0  0  0  0  0  0  0
  1  2  2  0
  2  3  1  0
  2 15  1  0
  3  4  1  0
  4  5  2  0
  4  6  1  0
  6  7  1  6
  6 14  1  0
  7  8  1  0
  8  9  1  1
  8 13  1  0
  9 10  1  0
 10 11  1  0
 11 12  1  0
 14 13  1  6
 14 15  1  0
M  CHG  1   8   1
M  END
