
     RDKit          3D

 31 34  0  0  0  0  0  0  0  0999 V2000
    6.1210   -3.6530   -1.2940 C   0  0  0  0  0  0  0  0  0  0  0  0
    5.5390   -2.4660   -1.1880 O   0  0  0  0  0  0  0  0  0  0  0  0
    5.6080   -1.2800   -0.6010 C   0  0  0  0  0  0  0  0  0  0  0  0
    6.5110   -0.8100    0.3430 C   0  0  0  0  0  0  0  0  0  0  0  0
    6.4860    0.4570    0.8980 C   0  0  0  0  0  0  0  0  0  0  0  0
    7.4310    0.8980    1.9570 C   0  0  0  0  0  0  0  0  0  0  0  0
    5.4910    1.3490    0.4880 C   0  0  0  0  0  0  0  0  0  0  0  0
    5.4230    2.7520    0.9540 C   0  0  0  0  0  0  0  0  0  0  0  0
    4.5590    0.8800   -0.4730 C   0  0  0  0  0  0  0  0  0  0  0  0
    4.6140   -0.3350   -0.9650 C   0  0  0  0  0  0  0  0  0  0  0  0
    3.5760   -0.7860   -2.0340 C   0  0  0  0  0  0  0  0  0  0  0  0
    2.4450   -0.9290   -1.3720 O   0  0  0  0  0  0  0  0  0  0  0  0
    1.3900   -0.7430   -0.6420 C   0  0  0  0  0  0  0  0  0  0  0  0
    0.5270   -1.8450   -0.4720 C   0  0  0  0  0  0  0  0  0  0  0  0
   -0.5810   -1.7320    0.3460 C   0  0  0  0  0  0  0  0  0  0  0  0
   -0.9040   -0.6020    0.9990 C   0  0  0  0  0  0  0  0  0  0  0  0
   -1.9180   -0.4590    2.0490 C   0  0  0  0  0  0  0  0  0  0  0  0
   -3.3510   -0.5410    1.6750 C   0  0  2  0  0  0  0  0  0  0  0  0
   -3.6850   -1.9450    1.1690 C   0  0  0  0  0  0  0  0  0  0  0  0
   -5.2140   -2.0010    0.9910 C   0  0  0  0  0  0  0  0  0  0  0  0
   -5.5690   -0.9720   -0.0720 C   0  0  0  0  0  0  0  0  0  0  0  0
   -5.1590    0.3780    0.4760 C   0  0  2  0  0  0  0  0  0  0  0  0
   -5.6700    1.4630   -0.3530 C   0  0  0  0  0  0  0  0  0  0  0  0
   -5.6390    2.7780    0.0180 C   0  0  0  0  0  0  0  0  0  0  0  0
   -6.1440    3.8000   -0.7990 C   0  0  0  0  0  0  0  0  0  0  0  0
   -6.6790    3.4890   -1.9940 N   0  0  0  0  0  0  0  0  0  0  0  0
   -6.7200    2.2090   -2.4030 C   0  0  0  0  0  0  0  0  0  0  0  0
   -6.2240    1.1850   -1.6010 C   0  0  0  0  0  0  0  0  0  0  0  0
   -3.7470    0.4410    0.6730 N   0  0  0  0  0  0  0  0  0  0  0  0
   -0.0520    0.5260    0.8230 C   0  0  0  0  0  0  0  0  0  0  0  0
    1.0300    0.3930    0.0220 C   0  0  0  0  0  0  0  0  0  0  0  0
  1  2  1  0
  2  3  1  0
  3  4  2  0
  3 10  1  0
  4  5  1  0
  5  6  1  0
  5  7  2  0
  7  8  1  0
  7  9  1  0
  9 10  2  0
 10 11  1  0
 11 12  1  0
 12 13  1  0
 13 14  2  0
 13 31  1  0
 14 15  1  0
 15 16  2  0
 16 17  1  0
 16 30  1  0
 18 17  1  6
 18 19  1  0
 18 29  1  0
 19 20  1  0
 20 21  1  0
 21 22  1  0
 22 23  1  6
 22 29  1  0
 23 24  2  0
 23 28  1  0
 24 25  1  0
 25 26  2  0
 26 27  1  0
 27 28  2  0
 30 31  2  0
M  CHG  1  26   1
M  END
