
     RDKit          3D

 30 33  0  0  0  0  0  0  0  0999 V2000
   -5.1600    2.1440   -0.9670 C   0  0  0  0  0  0  0  0  0  0  0  0
   -4.3310    2.2490    0.3030 C   0  0  0  0  0  0  0  0  0  0  0  0
   -4.2030    0.9670    0.9520 N   0  0  0  0  0  0  0  0  0  0  0  0
   -5.1390    0.6490    1.8930 C   0  0  0  0  0  0  0  0  0  0  0  0
   -6.0770    1.4400    2.1850 O   0  0  0  0  0  0  0  0  0  0  0  0
   -5.0430   -0.5580    2.5240 C   0  0  0  0  0  0  0  0  0  0  0  0
   -5.9110   -0.8460    3.3930 O   0  0  0  0  0  0  0  0  0  0  0  0
   -4.0740   -1.4520    2.2670 N   0  0  0  0  0  0  0  0  0  0  0  0
   -3.1480   -1.1180    1.3250 C   0  0  0  0  0  0  0  0  0  0  0  0
   -2.1490   -2.0100    1.0360 C   0  0  0  0  0  0  0  0  0  0  0  0
   -1.1510   -1.7540    0.0750 C   0  0  0  0  0  0  0  0  0  0  0  0
   -0.1120   -2.7460   -0.1430 C   0  0  0  0  0  0  0  0  0  0  0  0
   -0.1700   -3.7230    0.7260 O   0  0  0  0  0  0  0  0  0  0  0  0
    0.9050   -2.8550   -1.0740 N   0  0  0  0  0  0  0  0  0  0  0  0
    1.7750   -4.0710   -0.8690 C   0  0  0  0  0  0  0  0  0  0  0  0
    1.1770   -2.0080   -2.1630 C   0  0  0  0  0  0  0  0  0  0  0  0
    2.0600   -0.8540   -1.8940 C   0  0  0  0  0  0  0  0  0  0  0  0
    2.4310    0.0810   -2.8350 C   0  0  0  0  0  0  0  0  0  0  0  0
    3.2330    0.9820   -2.2430 N   0  0  0  0  0  0  0  0  0  0  0  0
    3.3950    0.6640   -0.9500 N   0  0  0  0  0  0  0  0  0  0  0  0
    4.1900    1.4290   -0.0600 C   0  0  0  0  0  0  0  0  0  0  0  0
    5.1820    2.2740   -0.5460 C   0  0  0  0  0  0  0  0  0  0  0  0
    5.9720    3.0310    0.2820 C   0  0  0  0  0  0  0  0  0  0  0  0
    5.8140    2.9840    1.6430 C   0  0  0  0  0  0  0  0  0  0  0  0
    4.8280    2.1440    2.1430 C   0  0  0  0  0  0  0  0  0  0  0  0
    4.0450    1.3940    1.3110 C   0  0  0  0  0  0  0  0  0  0  0  0
    2.6870   -0.4480   -0.7310 C   0  0  0  0  0  0  0  0  0  0  0  0
   -1.2620   -0.5410   -0.5460 C   0  0  0  0  0  0  0  0  0  0  0  0
   -2.2680    0.3790   -0.2690 C   0  0  0  0  0  0  0  0  0  0  0  0
   -3.2210    0.0920    0.6750 C   0  0  0  0  0  0  0  0  0  0  0  0
  1  2  1  0
  2  3  1  0
  3  4  1  0
  3 30  1  0
  4  5  2  0
  4  6  1  0
  6  7  2  0
  6  8  1  0
  8  9  1  0
  9 10  2  0
  9 30  1  0
 10 11  1  0
 11 12  1  0
 11 28  2  0
 12 13  2  0
 12 14  1  0
 14 15  1  0
 14 16  1  0
 16 17  1  0
 17 18  1  0
 17 27  2  0
 18 19  2  0
 19 20  1  0
 20 21  1  0
 20 27  1  0
 21 22  2  0
 21 26  1  0
 22 23  1  0
 23 24  2  0
 24 25  1  0
 25 26  2  0
 28 29  1  0
 29 30  2  0
M  END
