
     RDKit          3D

 30 33  0  0  0  0  0  0  0  0999 V2000
    6.2150    0.3390    0.2130 C   0  0  0  0  0  0  0  0  0  0  0  0
    5.0170    0.9990   -0.4120 C   0  0  1  0  0  0  0  0  0  0  0  0
    4.7020    0.3830   -1.7520 C   0  0  0  0  0  0  0  0  0  0  0  0
    3.3020    0.7170   -2.1820 C   0  0  0  0  0  0  0  0  0  0  0  0
    2.2370    0.2300   -1.2270 C   0  0  0  0  0  0  0  0  0  0  0  0
    2.9100   -0.2040    0.0380 C   0  0  2  0  0  0  0  0  0  0  0  0
    2.0230   -0.7230    1.0960 C   0  0  1  0  0  0  0  0  0  0  0  0
    0.9240   -0.0410    1.7570 C   0  0  1  0  0  0  0  0  0  0  0  0
    0.5070    1.3470    1.4900 C   0  0  0  0  0  0  0  0  0  0  0  0
    1.1560    2.2360    2.1570 O   0  0  0  0  0  0  0  0  0  0  0  0
   -0.4590    1.7950    0.6440 O   0  0  0  0  0  0  0  0  0  0  0  0
   -1.8010    1.3880    0.5260 C   0  0  1  0  0  0  0  0  0  0  0  0
   -2.5490    1.4110    1.8120 C   0  0  0  0  0  0  0  0  0  0  0  0
   -3.7780    0.6050    1.8370 C   0  0  0  0  0  0  0  0  0  0  0  0
   -3.7940   -0.7280    1.8570 C   0  0  0  0  0  0  0  0  0  0  0  0
   -2.6240   -1.5870    1.8570 C   0  0  0  0  0  0  0  0  0  0  0  0
   -2.4170   -2.5870    0.8060 C   0  0  1  0  0  0  0  0  0  0  0  0
   -2.6190   -2.2810   -0.6140 C   0  0  0  0  0  0  0  0  0  0  0  0
   -3.8060   -1.5760   -1.1090 C   0  0  0  0  0  0  0  0  0  0  0  0
   -3.3500   -0.7310   -2.2910 C   0  0  0  0  0  0  0  0  0  0  0  0
   -3.2750    0.5640   -2.3200 C   0  0  0  0  0  0  0  0  0  0  0  0
   -2.8300    1.1180   -3.5100 F   0  0  0  0  0  0  0  0  0  0  0  0
   -3.6170    1.5100   -1.2150 C   0  0  0  0  0  0  0  0  0  0  0  0
   -2.4250    2.1800   -0.5920 C   0  0  2  0  0  0  0  0  0  0  0  0
   -1.4650    2.3990   -1.5740 O   0  0  0  0  0  0  0  0  0  0  0  0
   -1.0580   -3.0280    0.9080 O   0  0  0  0  0  0  0  0  0  0  0  0
    0.0600   -2.3520    1.2580 C   0  0  0  0  0  0  0  0  0  0  0  0
    0.7990   -2.9410    2.1440 O   0  0  0  0  0  0  0  0  0  0  0  0
    0.5570   -1.0480    0.7750 C   0  0  2  0  0  0  0  0  0  0  0  0
    3.8290    0.8750    0.5240 C   0  0  0  0  0  0  0  0  0  0  0  0
  2  1  1  1
  2  3  1  0
  2 30  1  0
  3  4  1  0
  4  5  1  0
  6  5  1  6
  7  6  1  6
  6 30  1  0
  7  8  1  0
  7 29  1  0
  8  9  1  6
  8 29  1  0
  9 10  2  0
  9 11  1  0
 12 11  1  1
 12 13  1  0
 12 24  1  0
 13 14  1  0
 14 15  2  0
 15 16  1  0
 16 17  1  0
 17 18  1  6
 17 26  1  0
 18 19  1  0
 19 20  1  0
 20 21  2  0
 21 22  1  0
 21 23  1  0
 23 24  1  0
 24 25  1  6
 26 27  1  0
 27 28  2  0
 29 27  1  1
M  END
