
     RDKit          3D

 30 33  0  0  0  0  0  0  0  0999 V2000
    5.4220    0.8460   -0.5960 C   0  0  0  0  0  0  0  0  0  0  0  0
    4.4980   -0.3060   -0.7230 C   0  0  0  0  0  0  0  0  0  0  0  0
    4.9740   -1.2710   -1.4900 C   0  0  0  0  0  0  0  0  0  0  0  0
    6.2130   -1.0790   -2.0430 F   0  0  0  0  0  0  0  0  0  0  0  0
    4.3340   -2.4690   -1.7930 O   0  0  0  0  0  0  0  0  0  0  0  0
    3.3230   -3.0950   -1.0890 C   0  0  0  0  0  0  0  0  0  0  0  0
    3.3380   -4.3600   -1.1440 O   0  0  0  0  0  0  0  0  0  0  0  0
    2.2420   -2.4600   -0.2920 C   0  0  0  0  0  0  0  0  0  0  0  0
    2.1040   -0.9860   -0.5680 C   0  0  1  0  0  0  0  0  0  0  0  0
    0.8570   -0.4960    0.1740 C   0  0  1  0  0  0  0  0  0  0  0  0
    0.6180    0.9450   -0.0680 C   0  0  0  0  0  0  0  0  0  0  0  0
   -0.7660    1.4350   -0.2070 C   0  0  2  0  0  0  0  0  0  0  0  0
   -0.9630    2.6720    0.6420 C   0  0  0  0  0  0  0  0  0  0  0  0
   -0.0800    3.8210    0.3020 C   0  0  1  0  0  0  0  0  0  0  0  0
   -0.2110    4.3520   -1.0810 C   0  0  0  0  0  0  0  0  0  0  0  0
   -1.0710    5.5900   -0.8750 C   0  0  0  0  0  0  0  0  0  0  0  0
   -0.7390    6.0650    0.3660 O   0  0  0  0  0  0  0  0  0  0  0  0
   -0.3800    5.0200    1.1710 C   0  0  0  0  0  0  0  0  0  0  0  0
   -1.8630    0.4530    0.0320 C   0  0  2  0  0  0  0  0  0  0  0  0
   -2.8860    1.1100    0.7540 O   0  0  0  0  0  0  0  0  0  0  0  0
   -1.4450   -0.7260    0.8220 C   0  0  1  0  0  0  0  0  0  0  0  0
   -0.8240   -0.2720    1.9940 O   0  0  0  0  0  0  0  0  0  0  0  0
   -2.4870   -1.6880    1.1890 C   0  0  0  0  0  0  0  0  0  0  0  0
   -3.2300   -2.3470    0.0780 C   0  0  2  0  0  0  0  0  0  0  0  0
   -4.2740   -3.3110    0.6000 C   0  0  0  0  0  0  0  0  0  0  0  0
   -3.3910   -4.4910    1.0040 C   0  0  0  0  0  0  0  0  0  0  0  0
   -2.2850   -4.3820   -0.0170 C   0  0  0  0  0  0  0  0  0  0  0  0
   -2.4280   -3.1920   -0.6860 O   0  0  0  0  0  0  0  0  0  0  0  0
   -0.3300   -1.3960   -0.0020 C   0  0  0  0  0  0  0  0  0  0  0  0
    3.2480   -0.1870    0.0010 C   0  0  0  0  0  0  0  0  0  0  0  0
  1  2  1  0
  2  3  2  0
  2 30  1  0
  3  4  1  0
  3  5  1  0
  5  6  1  0
  6  7  2  0
  6  8  1  0
  9  8  1  1
  9 10  1  0
  9 30  1  0
 10 11  1  6
 10 29  1  0
 11 12  1  0
 12 13  1  1
 12 19  1  0
 14 13  1  6
 14 15  1  0
 14 18  1  0
 15 16  1  0
 16 17  1  0
 17 18  1  0
 19 20  1  1
 19 21  1  0
 21 22  1  1
 21 23  1  0
 21 29  1  0
 24 23  1  1
 24 25  1  0
 24 28  1  0
 25 26  1  0
 26 27  1  0
 27 28  1  0
M  END
