
     RDKit          3D

 31 34  0  0  0  0  0  0  0  0999 V2000
    0.0290   -1.8660    2.3730 O   0  0  0  0  0  0  0  0  0  0  0  0
    0.3520   -2.9090    1.4120 C   0  0  0  0  0  0  0  0  0  0  0  0
   -0.5090   -2.6190    0.2810 C   0  0  0  0  0  0  0  0  0  0  0  0
   -0.8230   -1.2840    0.2030 O   0  0  0  0  0  0  0  0  0  0  0  0
   -1.4140   -0.8400   -0.9520 C   0  0  1  0  0  0  0  0  0  0  0  0
   -2.8890   -0.5300   -0.6600 C   0  0  1  0  0  0  0  0  0  0  0  0
   -3.3740   -1.1030    0.6330 C   0  0  0  0  0  0  0  0  0  0  0  0
   -4.2960   -0.1630    1.3940 C   0  0  0  0  0  0  0  0  0  0  0  0
   -3.6280    1.1640    1.6880 C   0  0  0  0  0  0  0  0  0  0  0  0
   -2.2510    1.1280    1.0280 C   0  0  2  0  0  0  0  0  0  0  0  0
   -1.5500    2.4530    1.1930 C   0  0  0  0  0  0  0  0  0  0  0  0
   -0.3200    2.4650    0.3140 C   0  0  0  0  0  0  0  0  0  0  0  0
   -0.0140    1.0860   -0.2180 C   0  0  2  0  0  0  0  0  0  0  0  0
    1.2710    1.0840   -0.9730 C   0  0  0  0  0  0  0  0  0  0  0  0
    2.4790    1.3050   -0.0700 C   0  0  0  0  0  0  0  0  0  0  0  0
    3.4690    0.1350   -0.1510 C   0  0  0  0  0  0  0  0  0  0  0  0
    4.4720    0.2610    0.8260 O   0  0  0  0  0  0  0  0  0  0  0  0
    5.0590   -0.9430    1.1010 C   0  0  1  0  0  0  0  0  0  0  0  0
    6.2470   -0.8710    2.0400 C   0  0  0  0  0  0  0  0  0  0  0  0
    5.9780   -0.3850    3.2820 O   0  0  0  0  0  0  0  0  0  0  0  0
    4.1930   -2.0190    1.3170 C   0  0  0  0  0  0  0  0  0  0  0  0
    3.5020   -2.8820    1.5030 C   0  0  0  0  0  0  0  0  0  0  0  0
    2.6390   -3.9680    1.7570 C   0  0  0  0  0  0  0  0  0  0  0  0
    1.2640   -3.6720    1.9000 O   0  0  0  0  0  0  0  0  0  0  0  0
   -1.1860    0.6560   -1.1530 C   0  0  1  0  0  0  0  0  0  0  0  0
   -0.8930    1.1370   -2.4880 C   0  0  0  0  0  0  0  0  0  0  0  0
   -1.6840    1.0380   -3.6970 C   0  0  0  0  0  0  0  0  0  0  0  0
   -3.0250    1.6970   -3.7850 C   0  0  0  0  0  0  0  0  0  0  0  0
   -3.5130    1.5120   -5.1350 F   0  0  0  0  0  0  0  0  0  0  0  0
   -2.4730    0.9030   -0.4450 C   0  0  1  0  0  0  0  0  0  0  0  0
   -3.3550    1.8110   -0.9530 O   0  0  0  0  0  0  0  0  0  0  0  0
  1  2  2  0
  2  3  1  0
  2 24  1  0
  3  4  1  0
  5  4  1  1
  5  6  1  0
  5 25  1  0
  6  7  1  1
  6 30  1  0
  7  8  1  0
  8  9  1  0
 10  9  1  1
 10 11  1  0
 10 30  1  0
 11 12  1  0
 13 12  1  6
 13 14  1  0
 13 25  1  0
 14 15  1  0
 15 16  1  0
 16 17  1  0
 17 18  1  0
 18 19  1  1
 18 21  1  0
 19 20  1  0
 21 22  3  0
 22 23  1  0
 23 24  1  0
 25 26  1  6
 25 30  1  0
 26 27  1  0
 27 28  1  0
 28 29  1  0
 30 31  1  6
M  END
