
     RDKit          3D

 31 35  0  0  0  0  0  0  0  0999 V2000
   -0.8270    2.8930    2.0730 O   0  0  0  0  0  0  0  0  0  0  0  0
   -1.1100    1.8170    1.4790 C   0  0  0  0  0  0  0  0  0  0  0  0
   -0.1970    0.8290    1.1650 O   0  0  0  0  0  0  0  0  0  0  0  0
   -0.4300    0.0820   -0.0300 C   0  0  1  0  0  0  0  0  0  0  0  0
    0.6790   -0.9300   -0.2420 C   0  0  1  0  0  0  0  0  0  0  0  0
    0.4480   -1.6520   -1.5290 C   0  0  0  0  0  0  0  0  0  0  0  0
    0.7030   -0.6080   -2.4420 O   0  0  0  0  0  0  0  0  0  0  0  0
    1.9600   -0.1290   -2.0170 C   0  0  0  0  0  0  0  0  0  0  0  0
    1.9920   -0.2120   -0.5240 C   0  0  2  0  0  0  0  0  0  0  0  0
    3.1020   -1.0620    0.0350 C   0  0  2  0  0  0  0  0  0  0  0  0
    2.7630   -1.1820    1.4270 O   0  0  0  0  0  0  0  0  0  0  0  0
    4.4510   -0.3840    0.0890 C   0  0  1  0  0  0  0  0  0  0  0  0
    5.4160   -1.4300    0.6700 C   0  0  0  0  0  0  0  0  0  0  0  0
    6.6580   -0.6920    1.0890 C   0  0  0  0  0  0  0  0  0  0  0  0
    6.6830    0.7150    0.5230 C   0  0  0  0  0  0  0  0  0  0  0  0
    6.3540    0.7570   -0.9340 C   0  0  0  0  0  0  0  0  0  0  0  0
    5.0190    0.0890   -1.1790 C   0  0  0  0  0  0  0  0  0  0  0  0
   -1.7840   -0.5620    0.1500 C   0  0  0  0  0  0  0  0  0  0  0  0
   -2.7920    0.4850    0.4780 C   0  0  0  0  0  0  0  0  0  0  0  0
   -2.5100    1.6170    1.1010 C   0  0  0  0  0  0  0  0  0  0  0  0
   -3.3520    2.7790    1.5190 C   0  0  0  0  0  0  0  0  0  0  0  0
   -4.5100    2.7570    0.7460 O   0  0  0  0  0  0  0  0  0  0  0  0
   -4.1850    2.4770   -0.5610 C   0  0  2  0  0  0  0  0  0  0  0  0
   -4.7090    3.4430   -1.4330 F   0  0  0  0  0  0  0  0  0  0  0  0
   -4.5910    1.0950   -1.0190 C   0  0  0  0  0  0  0  0  0  0  0  0
   -4.1770    0.1070    0.0250 C   0  0  2  0  0  0  0  0  0  0  0  0
   -5.1510    0.1860    1.1780 C   0  0  0  0  0  0  0  0  0  0  0  0
   -5.4170   -1.1900    1.7860 C   0  0  0  0  0  0  0  0  0  0  0  0
   -6.0680   -2.0250    0.8920 O   0  0  0  0  0  0  0  0  0  0  0  0
   -5.6870   -1.7520   -0.4090 C   0  0  0  0  0  0  0  0  0  0  0  0
   -4.2160   -1.3220   -0.4720 C   0  0  0  0  0  0  0  0  0  0  0  0
  1  2  2  0
  2  3  1  0
  2 20  1  0
  3  4  1  0
  4  5  1  0
  4 18  1  1
  5  6  1  6
  5  9  1  0
  6  7  1  0
  7  8  1  0
  9  8  1  6
  9 10  1  0
 10 11  1  1
 10 12  1  0
 12 13  1  6
 12 17  1  0
 13 14  1  0
 14 15  1  0
 15 16  1  0
 16 17  1  0
 18 19  1  0
 19 20  2  0
 19 26  1  0
 20 21  1  0
 21 22  1  0
 22 23  1  0
 23 24  1  6
 23 25  1  0
 26 25  1  6
 26 27  1  0
 26 31  1  0
 27 28  1  0
 28 29  1  0
 29 30  1  0
 30 31  1  0
M  END
