
     RDKit          3D

 30 33  0  0  0  0  0  0  0  0999 V2000
    4.7500    0.8000    0.7830 C   0  0  0  0  0  0  0  0  0  0  0  0
    3.3360    0.5010    0.2210 C   0  0  1  0  0  0  0  0  0  0  0  0
    2.8260   -0.7820    0.6740 C   0  0  0  0  0  0  0  0  0  0  0  0
    2.7850   -1.9610   -0.2580 C   0  0  1  0  0  0  0  0  0  0  0  0
    3.9110   -2.0870   -1.2010 C   0  0  0  0  0  0  0  0  0  0  0  0
    2.8270   -3.2320    0.6230 C   0  0  0  0  0  0  0  0  0  0  0  0
    1.4640   -2.0980   -1.0170 C   0  0  0  0  0  0  0  0  0  0  0  0
    0.4040   -1.6800   -0.3290 O   0  0  0  0  0  0  0  0  0  0  0  0
   -0.9040   -1.8550   -0.8560 C   0  0  0  0  0  0  0  0  0  0  0  0
   -1.6490   -0.7660   -0.1460 C   0  0  2  0  0  0  0  0  0  0  0  0
   -1.4750   -1.1230    1.3210 C   0  0  0  0  0  0  0  0  0  0  0  0
   -1.9600   -0.0560    2.1940 C   0  0  0  0  0  0  0  0  0  0  0  0
   -1.6050    1.2970    1.7100 C   0  0  0  0  0  0  0  0  0  0  0  0
   -1.4400    1.4920    0.2590 C   0  0  1  0  0  0  0  0  0  0  0  0
   -2.8260    1.3480   -0.2930 C   0  0  0  0  0  0  0  0  0  0  0  0
   -2.9510   -0.2210   -0.4570 C   0  0  1  0  0  0  0  0  0  0  0  0
   -3.6470   -0.5430   -1.7110 C   0  0  0  0  0  0  0  0  0  0  0  0
   -3.9240   -2.0130   -1.8660 C   0  0  0  0  0  0  0  0  0  0  0  0
   -4.7740   -2.5330   -0.7460 C   0  0  0  0  0  0  0  0  0  0  0  0
   -5.7790   -1.8810   -0.4110 O   0  0  0  0  0  0  0  0  0  0  0  0
   -4.4870   -3.7130   -0.0530 O   0  0  0  0  0  0  0  0  0  0  0  0
   -0.5770    2.6350   -0.0550 C   0  0  1  0  0  0  0  0  0  0  0  0
   -1.1770    3.9030    0.0550 O   0  0  0  0  0  0  0  0  0  0  0  0
   -0.1420    4.7930   -0.2470 C   0  0  0  0  0  0  0  0  0  0  0  0
    1.1710    4.0970    0.0970 C   0  0  0  0  0  0  0  0  0  0  0  0
    0.5890    2.8590    0.8030 C   0  0  2  0  0  0  0  0  0  0  0  0
    1.6470    1.9220    1.1290 C   0  0  0  0  0  0  0  0  0  0  0  0
    2.6860    1.6660    0.3190 O   0  0  0  0  0  0  0  0  0  0  0  0
   -0.8800    0.4240   -0.6140 C   0  0  1  0  0  0  0  0  0  0  0  0
    0.3650    0.3740   -0.9400 O   0  0  0  0  0  0  0  0  0  0  0  0
  2  1  1  1
  2  3  1  0
  2 28  1  0
  3  4  1  0
  4  5  1  6
  4  6  1  0
  4  7  1  0
  7  8  1  0
  8  9  1  0
 10  9  1  6
 10 11  1  0
 10 16  1  0
 10 29  1  0
 11 12  1  0
 12 13  1  0
 14 13  1  1
 14 15  1  0
 14 22  1  0
 14 29  1  0
 15 16  1  0
 16 17  1  6
 17 18  1  0
 18 19  1  0
 19 20  2  0
 19 21  1  0
 22 23  1  1
 22 26  1  0
 23 24  1  0
 24 25  1  0
 26 25  1  6
 26 27  1  0
 27 28  1  0
 29 30  1  1
M  END
