
     RDKit          3D

 12 11  0  0  0  0  0  0  0  0999 V2000
   -4.5080    0.6570    0.4980 O   0  0  0  0  0  0  0  0  0  0  0  0
   -4.0140   -0.1950    1.4920 C   0  0  0  0  0  0  0  0  0  0  0  0
   -2.8740   -0.8590    1.0730 O   0  0  0  0  0  0  0  0  0  0  0  0
   -1.8670    0.0330    0.7500 C   0  0  0  0  0  0  0  0  0  0  0  0
   -0.6480   -0.7640    0.2990 C   0  0  1  0  0  0  0  0  0  0  0  0
   -0.9750   -1.5390   -0.8220 O   0  0  0  0  0  0  0  0  0  0  0  0
    0.4250    0.2520   -0.0320 C   0  0  0  0  0  0  0  0  0  0  0  0
    1.5940   -0.3640   -0.4720 O   0  0  0  0  0  0  0  0  0  0  0  0
    2.5900    0.5250   -0.7820 C   0  0  2  0  0  0  0  0  0  0  0  0
    3.0970    0.3660   -2.0680 O   0  0  0  0  0  0  0  0  0  0  0  0
    3.7580    0.2690    0.1740 C   0  0  0  0  0  0  0  0  0  0  0  0
    4.1920   -1.0550   -0.0080 O   0  0  0  0  0  0  0  0  0  0  0  0
  1  2  1  0
  2  3  1  0
  3  4  1  0
  4  5  1  0
  5  6  1  6
  5  7  1  0
  7  8  1  0
  8  9  1  0
  9 10  1  6
  9 11  1  0
 11 12  1  0
M  END
