
     RDKit          3D

  9  9  0  0  0  0  0  0  0  0999 V2000
    2.8980    0.0510   -0.8390 N   0  0  0  0  0  0  0  0  0  0  0  0
    1.9500   -0.8070    0.2950 S   0  0  1  0  0  0  0  0  0  0  0  0
    2.0420   -2.2860   -0.0460 O   0  0  0  0  0  0  0  0  0  0  0  0
    2.6290   -0.6650    1.6480 O   0  0  0  0  0  0  0  0  0  0  0  0
    0.3010   -0.2740    0.3620 C   0  0  0  0  0  0  0  0  0  0  0  0
   -0.7140   -0.7100   -0.3420 C   0  0  0  0  0  0  0  0  0  0  0  0
   -2.0060   -0.1040   -0.1030 C   0  0  0  0  0  0  0  0  0  0  0  0
   -1.9000    1.2470    0.5110 C   0  0  0  0  0  0  0  0  0  0  0  0
   -0.3190    1.0150    1.4360 S   0  0  0  0  0  0  0  0  0  0  0  0
  2  1  1  6
  2  3  2  0
  2  4  2  0
  2  5  1  0
  5  6  2  0
  5  9  1  0
  6  7  1  0
  7  8  1  0
  8  9  1  0
M  END
