
     RDKit          3D

 11 11  0  0  0  0  0  0  0  0999 V2000
   -2.5900    0.9360   -0.8990 O   0  0  0  0  0  0  0  0  0  0  0  0
   -2.0040    0.0500   -0.2290 C   0  0  0  0  0  0  0  0  0  0  0  0
   -2.3740   -1.2580   -0.3830 O   0  0  0  0  0  0  0  0  0  0  0  0
   -0.9400    0.4830    0.6940 C   0  0  1  0  0  0  0  0  0  0  0  0
   -0.3430   -0.5270    1.3930 O   0  0  0  0  0  0  0  0  0  0  0  0
    0.4090   -1.3990    0.6630 C   0  0  0  0  0  0  0  0  0  0  0  0
    1.4220   -0.8010   -0.2360 C   0  0  2  0  0  0  0  0  0  0  0  0
    2.7060   -0.8540    0.3560 O   0  0  0  0  0  0  0  0  0  0  0  0
    1.1350    0.5760   -0.7200 C   0  0  0  0  0  0  0  0  0  0  0  0
    0.0910    1.3250    0.0110 C   0  0  1  0  0  0  0  0  0  0  0  0
   -0.6010    2.1810   -0.8710 O   0  0  0  0  0  0  0  0  0  0  0  0
  1  2  2  0
  2  3  1  0
  4  2  1  6
  4  5  1  0
  4 10  1  0
  5  6  1  0
  6  7  1  0
  7  8  1  1
  7  9  1  0
  9 10  1  0
 10 11  1  6
M  END
