
     RDKit          3D

 12 11  0  0  0  0  0  0  0  0999 V2000
    3.7810   -0.1700   -0.3610 O   0  0  0  0  0  0  0  0  0  0  0  0
    2.6240    0.0590    0.3820 C   0  0  0  0  0  0  0  0  0  0  0  0
    1.4490    0.4140   -0.5200 C   0  0  2  0  0  0  0  0  0  0  0  0
    1.8080    1.5760   -1.2160 O   0  0  0  0  0  0  0  0  0  0  0  0
    0.3710    0.7050    0.2590 O   0  0  0  0  0  0  0  0  0  0  0  0
   -0.7660   -0.0050    0.0310 C   0  0  2  0  0  0  0  0  0  0  0  0
   -1.8060    0.5120    1.0260 C   0  0  0  0  0  0  0  0  0  0  0  0
   -1.3470    0.3120    2.3390 O   0  0  0  0  0  0  0  0  0  0  0  0
   -0.6150   -1.4980    0.3470 C   0  0  0  0  0  0  0  0  0  0  0  0
   -1.8160   -2.1310    0.0840 O   0  0  0  0  0  0  0  0  0  0  0  0
   -1.3560    0.1910   -1.3410 C   0  0  0  0  0  0  0  0  0  0  0  0
   -1.6510    1.5630   -1.4560 O   0  0  0  0  0  0  0  0  0  0  0  0
  1  2  1  0
  2  3  1  0
  3  4  1  1
  3  5  1  0
  5  6  1  0
  6  7  1  1
  6  9  1  0
  6 11  1  0
  7  8  1  0
  9 10  1  0
 11 12  1  0
M  END
