
     RDKit          3D

 37 37  0  0  0  0  0  0  0  0999 V2000
   -4.6150   -4.1740   -1.5570 C   0  0  0  0  0  0  0  0  0  0  0  0
   -5.7290   -3.6770   -0.9350 O   0  0  0  0  0  0  0  0  0  0  0  0
   -5.5190   -2.8770    0.1510 C   0  0  0  0  0  0  0  0  0  0  0  0
   -4.7520   -1.6290   -0.1280 C   0  0  0  0  0  0  0  0  0  0  0  0
   -4.3530   -1.3030   -1.2760 O   0  0  0  0  0  0  0  0  0  0  0  0
   -4.4430   -0.7560    0.9030 O   0  0  0  0  0  0  0  0  0  0  0  0
   -3.7190    0.4220    0.6450 C   0  0  2  0  0  0  0  0  0  0  0  0
   -2.4170    0.3980    1.3050 N   0  0  0  0  0  0  0  0  0  0  0  0
   -1.2120    0.5260    0.5690 C   0  0  0  0  0  0  0  0  0  0  0  0
   -1.3080    0.6670   -0.6780 O   0  0  0  0  0  0  0  0  0  0  0  0
    0.0710    0.4890    1.2950 C   0  0  1  0  0  0  0  0  0  0  0  0
    0.2140   -0.9450    1.8260 C   0  0  0  0  0  0  0  0  0  0  0  0
    1.2720   -0.9560    2.7030 O   0  0  0  0  0  0  0  0  0  0  0  0
    2.4370   -0.6470    1.9820 C   0  0  0  0  0  0  0  0  0  0  0  0
    2.3030    0.6520    1.2490 C   0  0  1  0  0  0  0  0  0  0  0  0
    3.4930    0.8720    0.3690 C   0  0  0  0  0  0  0  0  0  0  0  0
    4.7400    0.8660    1.0670 N   0  0  0  0  0  0  0  0  0  0  0  0
    6.0820    1.1250    0.0130 S   0  0  2  0  0  0  0  0  0  0  0  0
    7.3650    1.1590    0.7940 O   0  0  0  0  0  0  0  0  0  0  0  0
    5.8410    2.4400   -0.6820 O   0  0  0  0  0  0  0  0  0  0  0  0
    6.1540   -0.1530   -1.1540 C   0  0  0  0  0  0  0  0  0  0  0  0
    6.8690   -1.2340   -0.8670 C   0  0  0  0  0  0  0  0  0  0  0  0
    7.7410   -1.3940    0.6690 S   0  0  0  0  0  0  0  0  0  0  0  0
    9.5310   -1.1060    0.4070 C   0  0  0  0  0  0  0  0  0  0  0  0
    5.4550   -0.0770   -2.4430 C   0  0  0  0  0  0  0  0  0  0  0  0
    4.7750    0.9210   -2.7460 O   0  0  0  0  0  0  0  0  0  0  0  0
    5.5300   -1.1100   -3.3570 O   0  0  0  0  0  0  0  0  0  0  0  0
    4.8530   -1.0310   -4.5980 C   0  0  0  0  0  0  0  0  0  0  0  0
    1.1550    0.6790    0.4410 O   0  0  0  0  0  0  0  0  0  0  0  0
   -4.5020    1.6110    1.0560 C   0  0  0  0  0  0  0  0  0  0  0  0
   -4.0640    2.4360    1.8860 O   0  0  0  0  0  0  0  0  0  0  0  0
   -5.7510    1.8200    0.5100 O   0  0  0  0  0  0  0  0  0  0  0  0
   -6.5800    2.9220    0.8320 C   0  0  2  0  0  0  0  0  0  0  0  0
   -7.8590    2.3830    1.4380 C   0  0  0  0  0  0  0  0  0  0  0  0
   -6.8290    3.6820   -0.4110 C   0  0  0  0  0  0  0  0  0  0  0  0
   -6.3280    3.3080   -1.4850 O   0  0  0  0  0  0  0  0  0  0  0  0
   -7.6190    4.8130   -0.3910 O   0  0  0  0  0  0  0  0  0  0  0  0
  1  2  1  0
  2  3  1  0
  3  4  1  0
  4  5  2  0
  4  6  1  0
  6  7  1  0
  7  8  1  1
  7 30  1  0
  8  9  1  0
  9 10  2  0
 11  9  1  6
 11 12  1  0
 11 29  1  0
 12 13  1  0
 13 14  1  0
 14 15  1  0
 15 16  1  6
 15 29  1  0
 16 17  1  0
 18 17  1  1
 18 19  2  0
 18 20  2  0
 18 21  1  0
 21 22  2  3
 21 25  1  0
 22 23  1  0
 23 24  1  0
 25 26  2  0
 25 27  1  0
 27 28  1  0
 30 31  2  0
 30 32  1  0
 32 33  1  0
 33 34  1  6
 33 35  1  0
 35 36  2  0
 35 37  1  0
M  END
