
     RDKit          3D

 36 40  0  0  0  0  0  0  0  0999 V2000
    9.5140    2.5780    2.4480 N   0  0  0  0  0  0  0  0  0  0  0  0
    9.9090    1.2550    2.6770 C   0  0  0  0  0  0  0  0  0  0  0  0
   10.8910    1.0600    3.4110 O   0  0  0  0  0  0  0  0  0  0  0  0
    9.1800    0.0860    2.0630 C   0  0  0  0  0  0  0  0  0  0  0  0
    9.6870   -1.2250    2.3480 C   0  0  0  0  0  0  0  0  0  0  0  0
    8.5510   -2.2740    1.4410 S   0  0  0  0  0  0  0  0  0  0  0  0
    7.5240   -0.9740    0.7720 C   0  0  0  0  0  0  0  0  0  0  0  0
    8.1160    0.1790    1.2860 C   0  0  0  0  0  0  0  0  0  0  0  0
    7.3400    1.4030    0.7970 C   0  0  0  0  0  0  0  0  0  0  0  0
    5.8770    1.1710    1.1760 C   0  0  0  0  0  0  0  0  0  0  0  0
    5.3940    0.0770    0.3330 N   0  0  0  0  0  0  0  0  0  0  0  0
    4.0540   -0.0030   -0.0790 C   0  0  0  0  0  0  0  0  0  0  0  0
    3.2460    0.8980    0.2890 O   0  0  0  0  0  0  0  0  0  0  0  0
    3.5990   -1.1260   -0.9310 C   0  0  0  0  0  0  0  0  0  0  0  0
    2.1400   -0.9360   -1.1940 C   0  0  0  0  0  0  0  0  0  0  0  0
    1.6880   -0.2980   -2.3290 C   0  0  0  0  0  0  0  0  0  0  0  0
    0.3530   -0.1090   -2.5810 C   0  0  0  0  0  0  0  0  0  0  0  0
   -0.6430   -0.5550   -1.6970 C   0  0  0  0  0  0  0  0  0  0  0  0
   -2.0070   -0.3440   -2.0110 N   0  0  0  0  0  0  0  0  0  0  0  0
   -3.1020   -0.4180   -1.1320 C   0  0  0  0  0  0  0  0  0  0  0  0
   -2.9120   -0.6930    0.0700 O   0  0  0  0  0  0  0  0  0  0  0  0
   -4.5060   -0.1780   -1.5770 C   0  0  0  0  0  0  0  0  0  0  0  0
   -5.4010   -0.3120   -0.4300 N   0  0  0  0  0  0  0  0  0  0  0  0
   -6.7980   -0.0820   -0.5640 C   0  0  0  0  0  0  0  0  0  0  0  0
   -7.7420   -0.1760    0.4370 C   0  0  0  0  0  0  0  0  0  0  0  0
   -8.9660    0.1360   -0.1170 C   0  0  0  0  0  0  0  0  0  0  0  0
  -10.2450    0.1610    0.6050 C   0  0  0  0  0  0  0  0  0  0  0  0
  -11.4210    0.4620    0.0970 C   0  0  0  0  0  0  0  0  0  0  0  0
  -12.4820    0.3770    1.1430 C   0  0  0  0  0  0  0  0  0  0  0  0
  -11.7370   -0.0110    2.2950 N   0  0  0  0  0  0  0  0  0  0  0  0
  -10.4720   -0.1390    2.0130 C   0  0  0  0  0  0  0  0  0  0  0  0
   -8.7240    0.3990   -1.4020 N   0  0  0  0  0  0  0  0  0  0  0  0
   -7.4370    0.2760   -1.6940 N   0  0  0  0  0  0  0  0  0  0  0  0
   -0.1890   -1.1910   -0.5650 C   0  0  0  0  0  0  0  0  0  0  0  0
    1.1800   -1.3760   -0.3210 C   0  0  0  0  0  0  0  0  0  0  0  0
    6.3410   -0.9550   -0.0860 C   0  0  0  0  0  0  0  0  0  0  0  0
  1  2  1  0
  2  3  2  0
  2  4  1  0
  4  5  2  0
  4  8  1  0
  5  6  1  0
  6  7  1  0
  7  8  2  0
  7 36  1  0
  8  9  1  0
  9 10  1  0
 10 11  1  0
 11 12  1  0
 11 36  1  0
 12 13  2  0
 12 14  1  0
 14 15  1  0
 15 16  2  0
 15 35  1  0
 16 17  1  0
 17 18  2  0
 18 19  1  0
 18 34  1  0
 19 20  1  0
 20 21  2  0
 20 22  1  0
 22 23  1  0
 23 24  1  0
 24 25  2  0
 24 33  1  0
 25 26  1  0
 26 27  1  0
 26 32  2  0
 27 28  2  0
 27 31  1  0
 28 29  1  0
 29 30  1  0
 30 31  2  0
 32 33  1  0
 34 35  2  0
M  END
