
     RDKit          3D

 37 37  0  0  0  0  0  0  0  0999 V2000
   -5.5840    4.2580   -0.5070 C   0  0  0  0  0  0  0  0  0  0  0  0
   -5.2880    3.3950   -1.5420 O   0  0  0  0  0  0  0  0  0  0  0  0
   -5.7620    2.1270   -1.3570 C   0  0  0  0  0  0  0  0  0  0  0  0
   -5.1970    1.4760   -0.1330 C   0  0  0  0  0  0  0  0  0  0  0  0
   -3.7920    1.3970   -0.2180 O   0  0  0  0  0  0  0  0  0  0  0  0
   -3.2170    0.6750   -1.2410 C   0  0  0  0  0  0  0  0  0  0  0  0
   -3.8470    0.0650   -2.1230 O   0  0  0  0  0  0  0  0  0  0  0  0
   -1.7110    0.6430   -1.2600 C   0  0  2  0  0  0  0  0  0  0  0  0
   -1.2460   -0.1010   -2.3190 O   0  0  0  0  0  0  0  0  0  0  0  0
   -1.2060    0.2210    0.0860 C   0  0  1  0  0  0  0  0  0  0  0  0
   -1.7320   -1.1160    0.4740 C   0  0  0  0  0  0  0  0  0  0  0  0
   -0.9460   -2.0180    0.8720 O   0  0  0  0  0  0  0  0  0  0  0  0
   -3.0730   -1.4460    0.4270 O   0  0  0  0  0  0  0  0  0  0  0  0
   -3.6040   -2.6820    0.7820 C   0  0  1  0  0  0  0  0  0  0  0  0
   -4.5870   -2.6430    1.9000 C   0  0  0  0  0  0  0  0  0  0  0  0
   -4.1890   -3.4120   -0.3950 C   0  0  0  0  0  0  0  0  0  0  0  0
   -4.1940   -2.9620   -1.5530 O   0  0  0  0  0  0  0  0  0  0  0  0
   -4.7560   -4.6610   -0.1820 O   0  0  0  0  0  0  0  0  0  0  0  0
   -5.3330   -5.4170   -1.2490 C   0  0  0  0  0  0  0  0  0  0  0  0
    0.2310    0.2840    0.2190 N   0  0  0  0  0  0  0  0  0  0  0  0
    0.8500    1.1580    1.1630 C   0  0  0  0  0  0  0  0  0  0  0  0
    0.0620    1.8730    1.8700 O   0  0  0  0  0  0  0  0  0  0  0  0
    2.2270    1.2790    1.3600 N   0  0  0  0  0  0  0  0  0  0  0  0
    3.1510    1.2970    0.2420 C   0  0  1  0  0  0  0  0  0  0  0  0
    4.8650    1.1160    0.8090 S   0  0  0  0  0  0  0  0  0  0  0  0
    5.9620    1.1570   -0.6320 C   0  0  1  0  0  0  0  0  0  0  0  0
    5.9750    2.4960   -1.3190 C   0  0  0  0  0  0  0  0  0  0  0  0
    7.3370    0.6920   -0.3130 C   0  0  0  0  0  0  0  0  0  0  0  0
    8.3040    1.4820   -0.4750 O   0  0  0  0  0  0  0  0  0  0  0  0
    7.6190   -0.5690    0.1530 O   0  0  0  0  0  0  0  0  0  0  0  0
    8.8810   -1.0730    0.4720 C   0  0  0  0  0  0  0  0  0  0  0  0
    9.5530   -0.2970    1.5470 C   0  0  0  0  0  0  0  0  0  0  0  0
    8.9570    0.6910    2.0470 O   0  0  0  0  0  0  0  0  0  0  0  0
   10.8150   -0.6490    1.9970 O   0  0  0  0  0  0  0  0  0  0  0  0
    2.7890   -0.1370   -0.8020 S   0  0  0  0  0  0  0  0  0  0  0  0
    1.0640   -0.5390   -0.5980 C   0  0  0  0  0  0  0  0  0  0  0  0
    0.6300   -1.5430   -1.1840 O   0  0  0  0  0  0  0  0  0  0  0  0
  1  2  1  0
  2  3  1  0
  3  4  1  0
  4  5  1  0
  5  6  1  0
  6  7  2  0
  6  8  1  0
  8  9  1  6
  8 10  1  0
 10 11  1  0
 10 20  1  6
 11 12  2  0
 11 13  1  0
 13 14  1  0
 14 15  1  1
 14 16  1  0
 16 17  2  0
 16 18  1  0
 18 19  1  0
 20 21  1  0
 20 36  1  0
 21 22  2  0
 21 23  1  0
 23 24  1  0
 24 25  1  1
 24 35  1  0
 25 26  1  0
 26 27  1  1
 26 28  1  0
 28 29  2  0
 28 30  1  0
 30 31  1  0
 31 32  1  0
 32 33  2  0
 32 34  1  0
 35 36  1  0
 36 37  2  0
M  END
