
     RDKit          3D

 37 37  0  0  0  0  0  0  0  0999 V2000
   -6.1510    3.5530   -0.8610 C   0  0  0  0  0  0  0  0  0  0  0  0
   -5.4710    2.3010   -0.3830 C   0  0  2  0  0  0  0  0  0  0  0  0
   -5.8260    1.9550    1.0380 C   0  0  0  0  0  0  0  0  0  0  0  0
   -7.2000    1.8050    1.1240 O   0  0  0  0  0  0  0  0  0  0  0  0
   -4.0750    2.4710   -0.5530 O   0  0  0  0  0  0  0  0  0  0  0  0
   -3.3870    1.6610   -1.4280 C   0  0  0  0  0  0  0  0  0  0  0  0
   -4.0080    0.7920   -2.0530 O   0  0  0  0  0  0  0  0  0  0  0  0
   -1.9340    1.8670   -1.5780 C   0  0  0  0  0  0  0  0  0  0  0  0
   -1.2970    0.9260   -2.5570 C   0  0  1  0  0  0  0  0  0  0  0  0
   -1.8680    1.0490   -3.9420 C   0  0  0  0  0  0  0  0  0  0  0  0
    0.4750    1.4090   -2.6260 S   0  0  0  0  0  0  0  0  0  0  0  0
    1.1410    0.9300   -0.9840 C   0  0  2  0  0  0  0  0  0  0  0  0
    2.3670    0.3500   -1.1950 O   0  0  0  0  0  0  0  0  0  0  0  0
    3.3440    1.1600   -0.6160 C   0  0  2  0  0  0  0  0  0  0  0  0
    4.3480    1.6670   -1.6150 C   0  0  0  0  0  0  0  0  0  0  0  0
    4.0210    0.4350    0.5170 C   0  0  0  0  0  0  0  0  0  0  0  0
    3.7270   -0.7180    0.8610 O   0  0  0  0  0  0  0  0  0  0  0  0
    5.0470    1.1130    1.2220 N   0  0  0  0  0  0  0  0  0  0  0  0
    5.7410    0.4770    2.3230 C   0  0  0  0  0  0  0  0  0  0  0  0
    6.7520    1.3840    2.8810 C   0  0  0  0  0  0  0  0  0  0  0  0
    6.8950    2.5350    2.3770 O   0  0  0  0  0  0  0  0  0  0  0  0
    7.5750    1.0440    3.9500 O   0  0  0  0  0  0  0  0  0  0  0  0
    8.7390    2.1520    4.5570 S   0  0  0  0  0  0  0  0  0  0  0  0
    8.8560    3.3690    3.6490 O   0  0  0  0  0  0  0  0  0  0  0  0
    0.2390    0.1500   -0.3040 O   0  0  0  0  0  0  0  0  0  0  0  0
   -0.3190   -0.8230   -1.0720 N   0  0  0  0  0  0  0  0  0  0  0  0
    0.1130   -2.1650   -0.8350 C   0  0  0  0  0  0  0  0  0  0  0  0
   -0.6860   -2.8790    0.1730 C   0  0  0  0  0  0  0  0  0  0  0  0
   -1.6450   -2.2830    0.7260 O   0  0  0  0  0  0  0  0  0  0  0  0
   -0.4460   -4.1860    0.5580 O   0  0  0  0  0  0  0  0  0  0  0  0
   -1.1950   -4.8790    1.5140 C   0  0  2  0  0  0  0  0  0  0  0  0
   -0.3810   -5.2820    2.7210 C   0  0  0  0  0  0  0  0  0  0  0  0
   -1.9110   -6.0510    0.9260 C   0  0  0  0  0  0  0  0  0  0  0  0
   -1.7510   -6.2510   -0.3090 O   0  0  0  0  0  0  0  0  0  0  0  0
   -2.7090   -6.8860    1.6590 O   0  0  0  0  0  0  0  0  0  0  0  0
   -1.3010   -0.4810   -2.0710 C   0  0  0  0  0  0  0  0  0  0  0  0
   -2.0770   -1.3620   -2.4590 O   0  0  0  0  0  0  0  0  0  0  0  0
  2  1  1  1
  2  3  1  0
  2  5  1  0
  3  4  1  0
  5  6  1  0
  6  7  2  0
  6  8  1  0
  8  9  1  0
  9 10  1  6
  9 11  1  0
  9 36  1  0
 11 12  1  0
 12 13  1  6
 12 25  1  0
 13 14  1  0
 14 15  1  6
 14 16  1  0
 16 17  2  0
 16 18  1  0
 18 19  1  0
 19 20  1  0
 20 21  2  0
 20 22  1  0
 22 23  1  0
 23 24  2  0
 25 26  1  0
 26 27  1  0
 26 36  1  0
 27 28  1  0
 28 29  2  0
 28 30  1  0
 30 31  1  0
 31 32  1  1
 31 33  1  0
 33 34  2  0
 33 35  1  0
 36 37  2  0
M  END
