
     RDKit          3D

 10  9  0  0  0  0  0  0  0  0999 V2000
   -2.0750   -1.2270   -0.7950 C   0  0  0  0  0  0  0  0  0  0  0  0
   -1.8330   -0.3950    0.2840 O   0  0  0  0  0  0  0  0  0  0  0  0
   -0.5350    0.1480    0.2560 C   0  0  1  0  0  0  0  0  0  0  0  0
   -0.7180    1.6320    0.1590 C   0  0  0  0  0  0  0  0  0  0  0  0
   -1.4250    1.8810   -1.0420 O   0  0  0  0  0  0  0  0  0  0  0  0
    0.1870   -0.1840    1.3690 O   0  0  0  0  0  0  0  0  0  0  0  0
    1.2690   -0.9870    1.1960 C   0  0  0  0  0  0  0  0  0  0  0  0
    2.3410   -0.5280    0.3280 C   0  0  0  0  0  0  0  0  0  0  0  0
    3.3630   -1.2890    0.1720 O   0  0  0  0  0  0  0  0  0  0  0  0
    2.3590    0.6700   -0.3530 O   0  0  0  0  0  0  0  0  0  0  0  0
  1  2  1  0
  2  3  1  0
  3  4  1  1
  3  6  1  0
  4  5  1  0
  6  7  1  0
  7  8  1  0
  8  9  2  0
  8 10  1  0
M  END
