
     RDKit          3D

 11 10  0  0  0  0  0  0  0  0999 V2000
    4.4460    0.3120    0.5810 C   0  0  0  0  0  0  0  0  0  0  0  0
    3.4680   -0.2240   -0.2560 O   0  0  0  0  0  0  0  0  0  0  0  0
    2.1320   -0.2260    0.1350 C   0  0  0  0  0  0  0  0  0  0  0  0
    1.7530    0.2460    1.2370 O   0  0  0  0  0  0  0  0  0  0  0  0
    1.1310   -0.7430   -0.6560 O   0  0  0  0  0  0  0  0  0  0  0  0
   -0.2390   -0.7690   -0.3060 C   0  0  2  0  0  0  0  0  0  0  0  0
   -0.7490   -2.0170   -0.1180 O   0  0  0  0  0  0  0  0  0  0  0  0
   -1.0480    0.1150   -1.1970 C   0  0  0  0  0  0  0  0  0  0  0  0
   -2.5050    0.1710   -0.9400 C   0  0  0  0  0  0  0  0  0  0  0  0
   -2.8990    0.6600    0.4300 C   0  0  0  0  0  0  0  0  0  0  0  0
   -2.4170   -0.1320    1.4580 O   0  0  0  0  0  0  0  0  0  0  0  0
  1  2  1  0
  2  3  1  0
  3  4  2  0
  3  5  1  0
  5  6  1  0
  6  7  1  6
  6  8  1  0
  8  9  1  0
  9 10  1  0
 10 11  1  0
M  END
