
     RDKit          3D

 11 10  0  0  0  0  0  0  0  0999 V2000
    3.4090   -0.1150   -0.6790 O   0  0  0  0  0  0  0  0  0  0  0  0
    2.9940   -1.3450   -0.2390 C   0  0  0  0  0  0  0  0  0  0  0  0
    1.5300   -1.5890   -0.2170 C   0  0  0  0  0  0  0  0  0  0  0  0
    0.7570   -0.7870    0.5550 O   0  0  0  0  0  0  0  0  0  0  0  0
    0.7550    0.5510    0.2900 C   0  0  0  0  0  0  0  0  0  0  0  0
   -0.1640    1.2990    1.2010 C   0  0  0  0  0  0  0  0  0  0  0  0
   -1.4810    0.9490    1.1500 O   0  0  0  0  0  0  0  0  0  0  0  0
   -2.1350    1.1290   -0.0330 C   0  0  2  0  0  0  0  0  0  0  0  0
   -3.1230    2.1380    0.0700 O   0  0  0  0  0  0  0  0  0  0  0  0
   -2.7860   -0.0960   -0.6020 C   0  0  0  0  0  0  0  0  0  0  0  0
   -1.8940   -1.0940   -0.8670 O   0  0  0  0  0  0  0  0  0  0  0  0
  1  2  1  0
  2  3  1  0
  3  4  1  0
  4  5  1  0
  5  6  1  0
  6  7  1  0
  7  8  1  0
  8  9  1  1
  8 10  1  0
 10 11  1  0
M  END
