
     RDKit          3D

 11 10  0  0  0  0  0  0  0  0999 V2000
    4.1680   -0.1700    0.2100 C   0  0  0  0  0  0  0  0  0  0  0  0
    2.7890    0.3460    0.6300 C   0  0  0  0  0  0  0  0  0  0  0  0
    1.8890   -0.0690   -0.3670 O   0  0  0  0  0  0  0  0  0  0  0  0
    0.5190    0.2230   -0.3240 C   0  0  0  0  0  0  0  0  0  0  0  0
    0.1640    0.8840    0.6760 O   0  0  0  0  0  0  0  0  0  0  0  0
   -0.3410   -0.2560   -1.4160 C   0  0  0  0  0  0  0  0  0  0  0  0
   -1.6400    0.0880   -1.2440 O   0  0  0  0  0  0  0  0  0  0  0  0
   -2.1530   -0.4450   -0.0780 C   0  0  2  0  0  0  0  0  0  0  0  0
   -3.0490   -1.4830   -0.5080 O   0  0  0  0  0  0  0  0  0  0  0  0
   -2.9580    0.5350    0.7080 C   0  0  0  0  0  0  0  0  0  0  0  0
   -4.0260    0.9310   -0.1280 O   0  0  0  0  0  0  0  0  0  0  0  0
  1  2  1  0
  2  3  1  0
  3  4  1  0
  4  5  2  0
  4  6  1  0
  6  7  1  0
  7  8  1  0
  8  9  1  6
  8 10  1  0
 10 11  1  0
M  END
