
     RDKit          3D

 11 10  0  0  0  0  0  0  0  0999 V2000
    4.1330    0.0260   -0.1110 C   0  0  0  0  0  0  0  0  0  0  0  0
    2.8250    0.6590    0.3530 C   0  0  0  0  0  0  0  0  0  0  0  0
    1.7790   -0.2290   -0.0230 O   0  0  0  0  0  0  0  0  0  0  0  0
    0.4460    0.0870    0.2740 C   0  0  0  0  0  0  0  0  0  0  0  0
    0.1540    1.1440    0.8680 O   0  0  0  0  0  0  0  0  0  0  0  0
   -0.6500   -0.8370   -0.1180 C   0  0  2  0  0  0  0  0  0  0  0  0
   -0.0700   -1.9750   -0.7640 O   0  0  0  0  0  0  0  0  0  0  0  0
   -1.5140   -0.2770   -1.0430 O   0  0  0  0  0  0  0  0  0  0  0  0
   -2.8140   -0.3980   -0.6470 C   0  0  0  0  0  0  0  0  0  0  0  0
   -3.1010    0.3410    0.6310 C   0  0  0  0  0  0  0  0  0  0  0  0
   -2.8320    1.7090    0.4440 O   0  0  0  0  0  0  0  0  0  0  0  0
  1  2  1  0
  2  3  1  0
  3  4  1  0
  4  5  2  0
  4  6  1  0
  6  7  1  6
  6  8  1  0
  8  9  1  0
  9 10  1  0
 10 11  1  0
M  END
