
     RDKit          3D

 11 10  0  0  0  0  0  0  0  0999 V2000
   -2.0170   -0.9440   -0.0230 O   0  0  0  0  0  0  0  0  0  0  0  0
   -2.5350    0.1860    0.0910 C   0  0  0  0  0  0  0  0  0  0  0  0
   -4.0210    0.2890    0.2560 C   0  0  0  0  0  0  0  0  0  0  0  0
   -4.5870   -0.9600    0.2510 O   0  0  0  0  0  0  0  0  0  0  0  0
   -1.7300    1.3010    0.0640 O   0  0  0  0  0  0  0  0  0  0  0  0
   -0.3330    1.1250   -0.0910 C   0  0  0  0  0  0  0  0  0  0  0  0
    0.3200    0.3550    0.9950 C   0  0  0  0  0  0  0  0  0  0  0  0
    1.6720    0.2400    0.7760 O   0  0  0  0  0  0  0  0  0  0  0  0
    2.0320   -0.4210   -0.3740 C   0  0  0  0  0  0  0  0  0  0  0  0
    3.5800   -0.4500   -0.3640 C   0  0  0  0  0  0  0  0  0  0  0  0
    3.9870   -1.1290    0.7810 O   0  0  0  0  0  0  0  0  0  0  0  0
  1  2  2  0
  2  3  1  0
  2  5  1  0
  3  4  1  0
  5  6  1  0
  6  7  1  0
  7  8  1  0
  8  9  1  0
  9 10  1  0
 10 11  1  0
M  END
