
     RDKit          3D

 11 10  0  0  0  0  0  0  0  0999 V2000
    2.0790   -1.4710   -0.3570 C   0  0  0  0  0  0  0  0  0  0  0  0
    0.7660   -1.0790   -0.4720 O   0  0  0  0  0  0  0  0  0  0  0  0
    0.4960    0.2150   -0.0610 C   0  0  2  0  0  0  0  0  0  0  0  0
    1.2220    1.1860   -1.0120 C   0  0  0  0  0  0  0  0  0  0  0  0
    0.7960    1.0260   -2.3200 O   0  0  0  0  0  0  0  0  0  0  0  0
    1.0360    0.5080    1.3120 C   0  0  0  0  0  0  0  0  0  0  0  0
    0.5360   -0.3120    2.3090 O   0  0  0  0  0  0  0  0  0  0  0  0
   -0.8400    0.4560   -0.2340 O   0  0  0  0  0  0  0  0  0  0  0  0
   -1.7120   -0.3430    0.4420 C   0  0  0  0  0  0  0  0  0  0  0  0
   -3.1580    0.0670    0.1230 C   0  0  0  0  0  0  0  0  0  0  0  0
   -3.4220   -0.0500   -1.2390 O   0  0  0  0  0  0  0  0  0  0  0  0
  1  2  1  0
  2  3  1  0
  3  4  1  6
  3  6  1  0
  3  8  1  0
  4  5  1  0
  6  7  1  0
  8  9  1  0
  9 10  1  0
 10 11  1  0
M  END
