
     RDKit          3D

 11 10  0  0  0  0  0  0  0  0999 V2000
   -2.4940    1.2670    0.9310 O   0  0  0  0  0  0  0  0  0  0  0  0
   -2.2530    0.4490   -0.0170 C   0  0  0  0  0  0  0  0  0  0  0  0
   -2.6430    0.8000   -1.2870 O   0  0  0  0  0  0  0  0  0  0  0  0
   -1.5780   -0.8040    0.3190 C   0  0  0  0  0  0  0  0  0  0  0  0
   -0.5400   -1.2750   -0.6360 C   0  0  0  0  0  0  0  0  0  0  0  0
    0.6010   -0.3680   -0.9020 C   0  0  0  0  0  0  0  0  0  0  0  0
    1.3760   -0.0500    0.3130 C   0  0  0  0  0  0  0  0  0  0  0  0
    1.0450   -0.5880    1.3910 O   0  0  0  0  0  0  0  0  0  0  0  0
    2.4950    0.8640    0.2480 C   0  0  0  0  0  0  0  0  0  0  0  0
    2.8020    1.3960   -0.8420 O   0  0  0  0  0  0  0  0  0  0  0  0
    3.2560    1.1870    1.3540 O   0  0  0  0  0  0  0  0  0  0  0  0
  1  2  2  0
  2  3  1  0
  2  4  1  0
  4  5  1  0
  5  6  1  0
  6  7  1  0
  7  8  2  0
  7  9  1  0
  9 10  2  0
  9 11  1  0
M  END
