
     RDKit          3D

 11 10  0  0  0  0  0  0  0  0999 V2000
   -1.2330   -0.8840    1.4160 O   0  0  0  0  0  0  0  0  0  0  0  0
   -0.6840   -0.2400    0.4860 C   0  0  0  0  0  0  0  0  0  0  0  0
    0.7900   -0.4490    0.3230 C   0  0  0  0  0  0  0  0  0  0  0  0
    1.3100    0.2830   -0.7030 O   0  0  0  0  0  0  0  0  0  0  0  0
    2.6590    0.0730   -0.8810 C   0  0  0  0  0  0  0  0  0  0  0  0
    3.5010    0.4320    0.3100 C   0  0  0  0  0  0  0  0  0  0  0  0
    4.8500    0.1910    0.0250 O   0  0  0  0  0  0  0  0  0  0  0  0
   -1.4520    0.5810   -0.2870 O   0  0  0  0  0  0  0  0  0  0  0  0
   -2.8210    0.7910   -0.1560 C   0  0  0  0  0  0  0  0  0  0  0  0
   -3.6380   -0.4710   -0.3210 C   0  0  0  0  0  0  0  0  0  0  0  0
   -4.9930   -0.1760   -0.1770 O   0  0  0  0  0  0  0  0  0  0  0  0
  1  2  2  0
  2  3  1  0
  2  8  1  0
  3  4  1  0
  4  5  1  0
  5  6  1  0
  6  7  1  0
  8  9  1  0
  9 10  1  0
 10 11  1  0
M  END
