
     RDKit          3D

 43 47  0  0  0  0  0  0  0  0999 V2000
    7.6860    2.9100   -3.2560 O   0  0  0  0  0  0  0  0  0  0  0  0
    7.1360    2.1620   -2.3550 C   0  0  0  0  0  0  0  0  0  0  0  0
    6.1200    2.7240   -1.4840 C   0  0  0  0  0  0  0  0  0  0  0  0
    5.5500    1.9870   -0.5710 C   0  0  0  0  0  0  0  0  0  0  0  0
    5.9070    0.5890   -0.3910 C   0  0  0  0  0  0  0  0  0  0  0  0
    6.8060    0.0680   -1.1500 C   0  0  0  0  0  0  0  0  0  0  0  0
    7.5500    0.7630   -2.2320 C   0  0  0  0  0  0  0  0  0  0  0  0
    7.1600   -1.2910   -0.9840 O   0  0  0  0  0  0  0  0  0  0  0  0
    6.5770   -2.0950   -0.0300 C   0  0  0  0  0  0  0  0  0  0  0  0
    6.9530   -3.4250    0.1000 C   0  0  0  0  0  0  0  0  0  0  0  0
    6.3690   -4.2140    1.0480 C   0  0  0  0  0  0  0  0  0  0  0  0
    6.6960   -5.5530    1.2350 O   0  0  0  0  0  0  0  0  0  0  0  0
    5.4090   -3.6770    1.8660 C   0  0  0  0  0  0  0  0  0  0  0  0
    5.0130   -2.3670    1.7650 C   0  0  0  0  0  0  0  0  0  0  0  0
    5.6140   -1.5760    0.7990 C   0  0  0  0  0  0  0  0  0  0  0  0
    5.1950   -0.1690    0.6860 C   0  0  2  0  0  0  0  0  0  0  0  0
    3.7460   -0.1270    0.4160 C   0  0  0  0  0  0  0  0  0  0  0  0
    3.3430   -0.4630   -0.8880 C   0  0  0  0  0  0  0  0  0  0  0  0
    2.0250   -0.4600   -1.2890 C   0  0  0  0  0  0  0  0  0  0  0  0
    1.0590   -0.1180   -0.3940 C   0  0  0  0  0  0  0  0  0  0  0  0
   -0.3440   -0.0350   -0.7030 N   0  0  0  0  0  0  0  0  0  0  0  0
   -0.8040    0.3910   -1.9560 C   0  0  0  0  0  0  0  0  0  0  0  0
    0.2380    0.8700   -3.1620 S   0  0  0  0  0  0  0  0  0  0  0  0
   -2.1970    0.4580   -2.2180 N   0  0  0  0  0  0  0  0  0  0  0  0
   -3.1760    0.1400   -1.2260 C   0  0  0  0  0  0  0  0  0  0  0  0
   -3.2760    1.2200   -0.1780 C   0  0  0  0  0  0  0  0  0  0  0  0
   -4.2280    0.8970    0.7820 O   0  0  0  0  0  0  0  0  0  0  0  0
   -5.5220    0.7950    0.2920 C   0  0  1  0  0  0  0  0  0  0  0  0
   -5.9390   -0.5150    0.4850 O   0  0  0  0  0  0  0  0  0  0  0  0
   -7.2940   -0.6910    0.2420 C   0  0  2  0  0  0  0  0  0  0  0  0
   -7.6460   -0.4910   -1.2160 C   0  0  0  0  0  0  0  0  0  0  0  0
   -9.0140   -0.6790   -1.3900 O   0  0  0  0  0  0  0  0  0  0  0  0
   -8.1470    0.1670    1.1500 C   0  0  2  0  0  0  0  0  0  0  0  0
   -9.0370    0.9560    0.4610 O   0  0  0  0  0  0  0  0  0  0  0  0
   -7.2590    1.1150    1.9710 C   0  0  2  0  0  0  0  0  0  0  0  0
   -8.0480    2.0270    2.6510 O   0  0  0  0  0  0  0  0  0  0  0  0
   -6.3680    1.8100    0.9730 C   0  0  1  0  0  0  0  0  0  0  0  0
   -5.5590    2.7760    1.5800 O   0  0  0  0  0  0  0  0  0  0  0  0
    1.4220    0.2150    0.8900 C   0  0  0  0  0  0  0  0  0  0  0  0
    2.7680    0.2120    1.2990 C   0  0  0  0  0  0  0  0  0  0  0  0
    3.0530    0.5750    2.6640 C   0  0  0  0  0  0  0  0  0  0  0  0
    2.0590    0.9030    3.4110 O   0  0  0  0  0  0  0  0  0  0  0  0
    4.2780    0.6050    3.2470 O   0  0  0  0  0  0  0  0  0  0  0  0
  1  2  2  0
  2  3  1  0
  2  7  1  0
  3  4  2  0
  4  5  1  0
  5  6  2  0
  5 16  1  0
  6  7  1  0
  6  8  1  0
  8  9  1  0
  9 10  2  0
  9 15  1  0
 10 11  1  0
 11 12  1  0
 11 13  2  0
 13 14  1  0
 14 15  2  0
 15 16  1  0
 16 17  1  6
 17 18  2  0
 17 40  1  0
 18 19  1  0
 19 20  2  0
 20 21  1  0
 20 39  1  0
 21 22  1  0
 22 23  2  0
 22 24  1  0
 24 25  1  0
 25 26  1  0
 26 27  1  0
 28 27  1  1
 28 29  1  0
 28 37  1  0
 29 30  1  0
 30 31  1  6
 30 33  1  0
 31 32  1  0
 33 34  1  6
 33 35  1  0
 35 36  1  6
 35 37  1  0
 37 38  1  1
 39 40  2  0
 40 41  1  0
 41 42  2  0
 41 43  1  0
M  END
