
     RDKit          3D

 39 43  0  0  0  0  0  0  0  0999 V2000
    6.9750    1.5350   -2.3420 C   0  0  0  0  0  0  0  0  0  0  0  0
    6.1360    0.8820   -3.2970 N   0  0  0  0  0  0  0  0  0  0  0  0
    5.9870   -0.8080   -3.0820 S   0  0  1  0  0  0  0  0  0  0  0  0
    5.0020   -1.3590   -4.1070 O   0  0  0  0  0  0  0  0  0  0  0  0
    7.2280   -1.5750   -3.2200 O   0  0  0  0  0  0  0  0  0  0  0  0
    5.2460   -1.0640   -1.4680 C   0  0  0  0  0  0  0  0  0  0  0  0
    3.9630   -1.1170   -1.4640 C   0  0  0  0  0  0  0  0  0  0  0  0
    3.0250   -1.3190   -0.3980 C   0  0  0  0  0  0  0  0  0  0  0  0
    2.9830   -2.5250    0.3080 C   0  0  0  0  0  0  0  0  0  0  0  0
    2.0720   -2.7100    1.3020 C   0  0  0  0  0  0  0  0  0  0  0  0
    1.1950   -1.6880    1.5980 C   0  0  0  0  0  0  0  0  0  0  0  0
    1.2060   -0.5130    0.9400 N   0  0  0  0  0  0  0  0  0  0  0  0
    0.2320    0.5360    1.3070 C   0  0  0  0  0  0  0  0  0  0  0  0
   -0.9840    0.2640    0.4020 C   0  0  0  0  0  0  0  0  0  0  0  0
   -2.0490    1.1820    0.6390 N   0  0  2  0  0  0  0  0  0  0  0  0
   -3.1140    0.5640    1.3870 C   0  0  0  0  0  0  0  0  0  0  0  0
   -3.8700   -0.4830    0.7120 C   0  0  0  0  0  0  0  0  0  0  0  0
   -3.5390   -0.9150   -0.5430 C   0  0  0  0  0  0  0  0  0  0  0  0
   -4.3370   -1.9200   -1.0960 C   0  0  0  0  0  0  0  0  0  0  0  0
   -5.4130   -2.4710   -0.4290 C   0  0  0  0  0  0  0  0  0  0  0  0
   -5.7470   -2.0390    0.8340 C   0  0  0  0  0  0  0  0  0  0  0  0
   -4.9690   -1.0520    1.3810 C   0  0  0  0  0  0  0  0  0  0  0  0
   -6.9430   -2.8100    1.3190 C   0  0  0  0  0  0  0  0  0  0  0  0
   -6.7710   -4.1110    0.5130 C   0  0  0  0  0  0  0  0  0  0  0  0
   -6.3810   -3.5220   -0.8230 C   0  0  0  0  0  0  0  0  0  0  0  0
   -2.5360    1.8800   -0.5220 C   0  0  0  0  0  0  0  0  0  0  0  0
   -2.5920    3.3700   -0.2890 C   0  0  0  0  0  0  0  0  0  0  0  0
   -1.6120    4.2790   -0.5880 C   0  0  0  0  0  0  0  0  0  0  0  0
   -2.0930    5.5140   -0.2080 C   0  0  0  0  0  0  0  0  0  0  0  0
   -3.3570    5.3100    0.3130 C   0  0  0  0  0  0  0  0  0  0  0  0
   -4.2800    6.3500    0.8580 C   0  0  0  0  0  0  0  0  0  0  0  0
   -3.5870    4.0350    0.2360 O   0  0  0  0  0  0  0  0  0  0  0  0
    2.1030   -0.3400   -0.0340 C   0  0  0  0  0  0  0  0  0  0  0  0
    2.1450    0.7500   -0.6740 O   0  0  0  0  0  0  0  0  0  0  0  0
    6.1740   -1.0680   -0.3020 C   0  0  0  0  0  0  0  0  0  0  0  0
    7.4880   -1.0580   -0.4600 C   0  0  0  0  0  0  0  0  0  0  0  0
    8.2180   -1.0820    1.2010 S   0  0  0  0  0  0  0  0  0  0  0  0
    6.6750   -1.7980    1.9700 C   0  0  0  0  0  0  0  0  0  0  0  0
    5.7520   -0.9160    1.0980 C   0  0  0  0  0  0  0  0  0  0  0  0
  1  2  1  0
  3  2  1  6
  3  4  2  0
  3  5  2  0
  3  6  1  0
  6  7  2  3
  6 35  1  0
  7  8  1  0
  8  9  2  0
  8 33  1  0
  9 10  1  0
 10 11  2  0
 11 12  1  0
 12 13  1  0
 12 33  1  0
 13 14  1  0
 15 14  1  6
 15 16  1  0
 15 26  1  0
 16 17  1  0
 17 18  2  0
 17 22  1  0
 18 19  1  0
 19 20  2  0
 20 21  1  0
 20 25  1  0
 21 22  2  0
 21 23  1  0
 23 24  1  0
 24 25  1  0
 26 27  1  0
 27 28  2  0
 27 32  1  0
 28 29  1  0
 29 30  2  0
 30 31  1  0
 30 32  1  0
 33 34  2  0
 35 36  2  0
 35 39  1  0
 36 37  1  0
 37 38  1  0
 38 39  1  0
M  CHG  1  15   1
M  END
