
     RDKit          3D

 39 43  0  0  0  0  0  0  0  0999 V2000
   -1.8670    0.4260   -1.4420 O   0  0  0  0  0  0  0  0  0  0  0  0
   -1.1910   -0.1340   -0.5040 C   0  0  0  0  0  0  0  0  0  0  0  0
    0.2200   -0.3440   -0.7860 C   0  0  0  0  0  0  0  0  0  0  0  0
    0.9100   -0.8500    0.3220 O   0  0  0  0  0  0  0  0  0  0  0  0
    2.2730   -1.1700    0.2390 C   0  0  0  0  0  0  0  0  0  0  0  0
    2.7950   -0.9750   -0.8830 O   0  0  0  0  0  0  0  0  0  0  0  0
    3.0180   -1.6850    1.3490 C   0  0  0  0  0  0  0  0  0  0  0  0
    2.3910   -1.6400    2.6030 C   0  0  0  0  0  0  0  0  0  0  0  0
    3.0450   -2.1040    3.7100 C   0  0  0  0  0  0  0  0  0  0  0  0
    4.3260   -2.6190    3.5790 C   0  0  0  0  0  0  0  0  0  0  0  0
    4.9090   -2.6490    2.3540 C   0  0  0  0  0  0  0  0  0  0  0  0
    4.2720   -2.1820    1.1940 C   0  0  0  0  0  0  0  0  0  0  0  0
    5.1130   -2.2890   -0.3000 S   0  0  0  0  0  0  0  0  0  0  0  0
    4.4290   -2.8400   -1.4770 O   0  0  0  0  0  0  0  0  0  0  0  0
    6.1980   -0.9640   -0.6850 C   0  0  0  0  0  0  0  0  0  0  0  0
    5.9070    0.0570   -1.5670 C   0  0  0  0  0  0  0  0  0  0  0  0
    6.8090    1.0860   -1.8240 C   0  0  0  0  0  0  0  0  0  0  0  0
    8.0370    1.1140   -1.1960 C   0  0  0  0  0  0  0  0  0  0  0  0
    8.9350    2.1280   -1.4520 C   0  0  0  0  0  0  0  0  0  0  0  0
   10.1860    2.1580   -0.8180 C   0  0  0  0  0  0  0  0  0  0  0  0
   10.5230    1.1670    0.0700 C   0  0  0  0  0  0  0  0  0  0  0  0
    9.6030    0.1680    0.3020 C   0  0  0  0  0  0  0  0  0  0  0  0
    8.3620    0.1170   -0.3140 C   0  0  0  0  0  0  0  0  0  0  0  0
    7.4640   -0.8940   -0.0670 C   0  0  0  0  0  0  0  0  0  0  0  0
   -1.8920   -0.4900    0.6980 C   0  0  0  0  0  0  0  0  0  0  0  0
   -3.1850   -0.2840    0.9140 C   0  0  0  0  0  0  0  0  0  0  0  0
   -4.1060    0.3150    0.0210 N   0  0  0  0  0  0  0  0  0  0  0  0
   -4.2690    1.7440    0.2810 C   0  0  0  0  0  0  0  0  0  0  0  0
   -5.6780    2.1850   -0.0880 C   0  0  0  0  0  0  0  0  0  0  0  0
   -5.9940    1.7960   -1.5170 C   0  0  0  0  0  0  0  0  0  0  0  0
   -6.7110    0.5660   -1.6420 N   0  0  2  0  0  0  0  0  0  0  0  0
   -8.1130    0.6830   -1.3900 C   0  0  0  0  0  0  0  0  0  0  0  0
   -8.6030    2.1080   -1.5190 C   0  0  0  0  0  0  0  0  0  0  0  0
  -10.4020    2.0730   -1.1570 S   0  0  0  0  0  0  0  0  0  0  0  0
   -6.1970   -0.5100   -0.8040 C   0  0  0  0  0  0  0  0  0  0  0  0
   -4.7020   -0.5520   -0.9450 C   0  0  0  0  0  0  0  0  0  0  0  0
   -3.5540   -0.7750    2.2190 N   0  0  0  0  0  0  0  0  0  0  0  0
   -2.5190   -1.6690    2.6720 C   0  0  0  0  0  0  0  0  0  0  0  0
   -1.3200   -1.1320    1.9110 C   0  0  0  0  0  0  0  0  0  0  0  0
  1  2  2  0
  2  3  1  0
  2 25  1  0
  3  4  1  0
  4  5  1  0
  5  6  2  0
  5  7  1  0
  7  8  2  0
  7 12  1  0
  8  9  1  0
  9 10  2  0
 10 11  1  0
 11 12  2  0
 13 12  1  1
 13 14  2  0
 13 15  1  0
 15 16  2  0
 15 24  1  0
 16 17  1  0
 17 18  2  0
 18 19  1  0
 18 23  1  0
 19 20  2  0
 20 21  1  0
 21 22  2  0
 22 23  1  0
 23 24  2  0
 25 26  2  0
 25 39  1  0
 26 27  1  0
 26 37  1  0
 27 28  1  0
 27 36  1  0
 28 29  1  0
 29 30  1  0
 30 31  1  0
 31 32  1  1
 31 35  1  0
 32 33  1  0
 33 34  1  0
 35 36  1  0
 37 38  1  0
 38 39  1  0
M  CHG  1  31   1
M  END
