
     RDKit          3D

 39 43  0  0  0  0  0  0  0  0999 V2000
   -8.1920   -1.1480   -0.2790 C   0  0  0  0  0  0  0  0  0  0  0  0
   -7.3040   -0.0370    0.1800 C   0  0  0  0  0  0  0  0  0  0  0  0
   -5.8860   -0.3690    0.4250 C   0  0  2  0  0  0  0  0  0  0  0  0
   -5.1510    0.9000    0.9410 C   0  0  0  0  0  0  0  0  0  0  0  0
   -4.7430    1.6340   -0.2940 C   0  0  0  0  0  0  0  0  0  0  0  0
   -4.8410    0.6130   -1.3920 C   0  0  0  0  0  0  0  0  0  0  0  0
   -5.0440   -0.6520   -0.7060 N   0  0  2  0  0  0  0  0  0  0  0  0
   -5.3740   -1.7020   -1.5710 C   0  0  0  0  0  0  0  0  0  0  0  0
   -4.7940   -3.0450   -1.2970 C   0  0  0  0  0  0  0  0  0  0  0  0
   -3.3720   -3.3040   -1.4050 C   0  0  0  0  0  0  0  0  0  0  0  0
   -2.3760   -2.5730   -0.6170 C   0  0  0  0  0  0  0  0  0  0  0  0
   -1.6120   -1.4780   -0.9850 C   0  0  0  0  0  0  0  0  0  0  0  0
   -0.7540   -0.9730   -0.0780 C   0  0  0  0  0  0  0  0  0  0  0  0
    0.1200    0.2090   -0.3660 C   0  0  0  0  0  0  0  0  0  0  0  0
   -0.2010    0.9530   -1.2920 O   0  0  0  0  0  0  0  0  0  0  0  0
    1.2540    0.4380    0.3990 N   0  0  0  0  0  0  0  0  0  0  0  0
    2.1750    1.5310    0.2330 C   0  0  0  0  0  0  0  0  0  0  0  0
    1.9340    2.6290   -0.5480 C   0  0  0  0  0  0  0  0  0  0  0  0
    2.9020    3.6250   -0.6610 C   0  0  0  0  0  0  0  0  0  0  0  0
    4.1130    3.5470   -0.0090 C   0  0  0  0  0  0  0  0  0  0  0  0
    4.3710    2.4440    0.7830 C   0  0  0  0  0  0  0  0  0  0  0  0
    3.4070    1.4720    0.8870 C   0  0  0  0  0  0  0  0  0  0  0  0
    5.5430    2.4550    1.5970 N   0  0  0  0  0  0  0  0  0  0  0  0
    5.8760    1.4590    2.4950 C   0  0  0  0  0  0  0  0  0  0  0  0
    5.7960    0.1850    2.4590 C   0  0  0  0  0  0  0  0  0  0  0  0
    6.2250   -0.6000    3.6460 C   0  0  0  0  0  0  0  0  0  0  0  0
    6.1930   -1.8310    3.7270 O   0  0  0  0  0  0  0  0  0  0  0  0
    5.6230   -0.6130    1.2580 C   0  0  0  0  0  0  0  0  0  0  0  0
    5.3160   -1.8910    1.0540 C   0  0  0  0  0  0  0  0  0  0  0  0
    5.3230   -2.4220   -0.1790 C   0  0  0  0  0  0  0  0  0  0  0  0
    5.6600   -1.5860   -1.2170 C   0  0  0  0  0  0  0  0  0  0  0  0
    5.7610   -1.8670   -2.6950 C   0  0  0  0  0  0  0  0  0  0  0  0
    5.9710   -0.0210   -0.4130 S   0  0  0  0  0  0  0  0  0  0  0  0
    6.3860    3.6530    1.5680 C   0  0  0  0  0  0  0  0  0  0  0  0
    7.0980    3.9210    2.5650 O   0  0  0  0  0  0  0  0  0  0  0  0
    6.3500    4.4810    0.3620 C   0  0  0  0  0  0  0  0  0  0  0  0
    5.0370    4.5760   -0.1660 O   0  0  0  0  0  0  0  0  0  0  0  0
   -0.6770   -1.5590    1.1530 C   0  0  0  0  0  0  0  0  0  0  0  0
   -1.8860   -2.8950    1.0100 S   0  0  0  0  0  0  0  0  0  0  0  0
  1  2  1  0
  3  2  1  6
  3  4  1  0
  3  7  1  0
  4  5  1  0
  5  6  1  0
  6  7  1  0
  7  8  1  6
  8  9  1  0
  9 10  1  0
 10 11  1  0
 11 12  2  0
 11 39  1  0
 12 13  1  0
 13 14  1  0
 13 38  2  0
 14 15  2  0
 14 16  1  0
 16 17  1  0
 17 18  2  0
 17 22  1  0
 18 19  1  0
 19 20  2  0
 20 21  1  0
 20 37  1  0
 21 22  2  0
 21 23  1  0
 23 24  1  0
 23 34  1  0
 24 25  2  3
 25 26  1  0
 25 28  1  0
 26 27  2  0
 28 29  2  0
 28 33  1  0
 29 30  1  0
 30 31  2  0
 31 32  1  0
 31 33  1  0
 34 35  2  0
 34 36  1  0
 36 37  1  0
 38 39  1  0
M  CHG  1   7   1
M  END
