
     RDKit          3D

 39 43  0  0  0  0  0  0  0  0999 V2000
   -0.7720    4.7980    4.0350 C   0  0  0  0  0  0  0  0  0  0  0  0
    0.7940    4.0520    3.6010 S   0  0  0  0  0  0  0  0  0  0  0  0
    0.6250    2.8250    2.2550 C   0  0  0  0  0  0  0  0  0  0  0  0
    1.6340    2.0190    2.1310 C   0  0  0  0  0  0  0  0  0  0  0  0
    1.8120    0.9710    1.1690 C   0  0  0  0  0  0  0  0  0  0  0  0
    2.8650    0.2290    1.2450 O   0  0  0  0  0  0  0  0  0  0  0  0
    0.9540    0.6750    0.1350 O   0  0  0  0  0  0  0  0  0  0  0  0
    1.2160   -0.3700   -0.7760 C   0  0  0  0  0  0  0  0  0  0  0  0
    2.4820   -0.1900   -1.5150 C   0  0  0  0  0  0  0  0  0  0  0  0
    2.5480    0.7890   -2.4830 C   0  0  0  0  0  0  0  0  0  0  0  0
    3.7130    1.0060   -3.2150 C   0  0  0  0  0  0  0  0  0  0  0  0
    4.7830    0.2010   -2.9250 C   0  0  0  0  0  0  0  0  0  0  0  0
    4.7390   -0.7760   -1.9690 C   0  0  0  0  0  0  0  0  0  0  0  0
    5.9490   -1.5910   -1.7320 C   0  0  0  0  0  0  0  0  0  0  0  0
    5.7340   -2.6330   -0.7560 N   0  0  1  0  0  0  0  0  0  0  0  0
    6.9180   -3.3940   -0.4670 C   0  0  0  0  0  0  0  0  0  0  0  0
    7.1660   -2.5570    0.7540 C   0  0  0  0  0  0  0  0  0  0  0  0
    5.7440   -2.1270    0.5970 C   0  0  0  0  0  0  0  0  0  0  0  0
    3.5640   -0.9770   -1.2470 C   0  0  0  0  0  0  0  0  0  0  0  0
   -0.6710    2.7250    1.6270 C   0  0  0  0  0  0  0  0  0  0  0  0
   -1.3970    3.8990    1.3340 C   0  0  0  0  0  0  0  0  0  0  0  0
   -2.6740    3.8480    0.8400 C   0  0  0  0  0  0  0  0  0  0  0  0
   -3.3370    2.6700    0.5940 C   0  0  0  0  0  0  0  0  0  0  0  0
   -4.7200    2.6180    0.0600 C   0  0  0  0  0  0  0  0  0  0  0  0
   -5.1290    1.2050   -0.1370 N   0  0  0  0  0  0  0  0  0  0  0  0
   -4.6660    0.4630   -1.2240 C   0  0  0  0  0  0  0  0  0  0  0  0
   -3.8740    1.1690   -1.9830 O   0  0  0  0  0  0  0  0  0  0  0  0
   -4.9350   -0.9220   -1.6040 C   0  0  0  0  0  0  0  0  0  0  0  0
   -4.3410   -1.3630   -2.7220 C   0  0  0  0  0  0  0  0  0  0  0  0
   -4.8220   -3.0350   -2.9510 S   0  0  0  0  0  0  0  0  0  0  0  0
   -3.6510   -4.0010   -2.8920 O   0  0  0  0  0  0  0  0  0  0  0  0
   -5.8350   -3.1360   -1.5090 C   0  0  0  0  0  0  0  0  0  0  0  0
   -6.5610   -4.2050   -1.0300 C   0  0  0  0  0  0  0  0  0  0  0  0
   -7.2620   -4.0730    0.0810 N   0  0  0  0  0  0  0  0  0  0  0  0
   -7.2380   -2.9050    0.6940 C   0  0  0  0  0  0  0  0  0  0  0  0
   -6.5200   -1.7970    0.2480 C   0  0  0  0  0  0  0  0  0  0  0  0
   -5.7560   -1.8900   -0.9330 C   0  0  0  0  0  0  0  0  0  0  0  0
   -2.6490    1.5170    0.8730 C   0  0  0  0  0  0  0  0  0  0  0  0
   -1.3470    1.5520    1.3780 C   0  0  0  0  0  0  0  0  0  0  0  0
  1  2  1  0
  2  3  1  0
  3  4  2  3
  3 20  1  0
  4  5  1  0
  5  6  2  0
  5  7  1  0
  7  8  1  0
  8  9  1  0
  9 10  2  0
  9 19  1  0
 10 11  1  0
 11 12  2  0
 12 13  1  0
 13 14  1  0
 13 19  2  0
 15 14  1  6
 15 16  1  0
 15 18  1  0
 16 17  1  0
 17 18  1  0
 20 21  2  0
 20 39  1  0
 21 22  1  0
 22 23  2  0
 23 24  1  0
 23 38  1  0
 24 25  1  0
 25 26  1  0
 26 27  2  0
 26 28  1  0
 28 29  2  0
 28 37  1  0
 30 29  1  1
 30 31  2  0
 30 32  1  0
 32 33  2  0
 32 37  1  0
 33 34  1  0
 34 35  2  0
 35 36  1  0
 36 37  2  0
 38 39  2  0
M  CHG  1  15   1
M  END
