
     RDKit          3D

 43 46  0  0  0  0  0  0  0  0999 V2000
    6.8380   -0.1760    1.0300 C   0  0  0  0  0  0  0  0  0  0  0  0
    5.3940   -0.0450    1.2560 N   0  0  1  0  0  0  0  0  0  0  0  0
    4.9780    1.1570    0.6270 C   0  0  0  0  0  0  0  0  0  0  0  0
    5.2890    2.3980    1.4900 C   0  0  0  0  0  0  0  0  0  0  0  0
    5.8410    2.2420    2.7150 C   0  0  0  0  0  0  0  0  0  0  0  0
    5.9550    3.9680    3.2820 S   0  0  0  0  0  0  0  0  0  0  0  0
    5.2730    4.6910    1.8560 C   0  0  0  0  0  0  0  0  0  0  0  0
    5.0020    3.6550    1.0580 C   0  0  0  0  0  0  0  0  0  0  0  0
    4.3920    4.2550   -0.2120 C   0  0  0  0  0  0  0  0  0  0  0  0
    5.0480    5.6250   -0.2320 C   0  0  0  0  0  0  0  0  0  0  0  0
    4.9100    6.0090    1.2320 C   0  0  0  0  0  0  0  0  0  0  0  0
    4.6280   -1.1740    0.8100 C   0  0  2  0  0  0  0  0  0  0  0  0
    5.5010   -2.3410    0.5540 C   0  0  0  0  0  0  0  0  0  0  0  0
    6.4610   -2.2460   -0.4030 O   0  0  0  0  0  0  0  0  0  0  0  0
    3.5820   -0.8220   -0.1600 C   0  0  0  0  0  0  0  0  0  0  0  0
    2.7920   -1.9810   -0.7130 C   0  0  0  0  0  0  0  0  0  0  0  0
    3.1250   -3.1390   -0.5190 O   0  0  0  0  0  0  0  0  0  0  0  0
    1.6360   -1.7300   -1.4760 N   0  0  0  0  0  0  0  0  0  0  0  0
    0.7060   -2.5650   -2.1240 C   0  0  0  0  0  0  0  0  0  0  0  0
   -0.0150   -3.5040   -1.2910 C   0  0  0  0  0  0  0  0  0  0  0  0
   -1.3020   -3.3290   -0.9500 C   0  0  0  0  0  0  0  0  0  0  0  0
   -1.8810   -2.1480   -1.4650 N   0  0  0  0  0  0  0  0  0  0  0  0
   -3.2510   -1.7700   -1.2120 C   0  0  0  0  0  0  0  0  0  0  0  0
   -3.9820   -2.4720   -0.5270 O   0  0  0  0  0  0  0  0  0  0  0  0
   -3.7730   -0.5930   -1.7410 O   0  0  0  0  0  0  0  0  0  0  0  0
   -5.1080   -0.1690   -1.4940 C   0  0  0  0  0  0  0  0  0  0  0  0
   -5.2200    0.1170   -0.0140 C   0  0  1  0  0  0  0  0  0  0  0  0
   -4.2560    1.2910    0.2930 C   0  0  0  0  0  0  0  0  0  0  0  0
   -4.7390    2.3800   -0.3920 O   0  0  0  0  0  0  0  0  0  0  0  0
   -4.0550    3.5490   -0.2780 C   0  0  1  0  0  0  0  0  0  0  0  0
   -3.5990    4.1230   -1.6270 C   0  0  0  0  0  0  0  0  0  0  0  0
   -4.8550    4.8630   -2.0420 C   0  0  0  0  0  0  0  0  0  0  0  0
   -5.6970    4.9280   -0.9640 O   0  0  0  0  0  0  0  0  0  0  0  0
   -4.9150    4.7060    0.1960 C   0  0  0  0  0  0  0  0  0  0  0  0
   -6.5100    0.4850    0.3810 O   0  0  0  0  0  0  0  0  0  0  0  0
   -6.9690   -0.4380    1.3400 C   0  0  0  0  0  0  0  0  0  0  0  0
   -8.3610   -0.1010    1.7980 C   0  0  0  0  0  0  0  0  0  0  0  0
   -8.8430   -0.9860    2.7400 O   0  0  0  0  0  0  0  0  0  0  0  0
   -2.1370   -4.2170   -0.1300 C   0  0  0  0  0  0  0  0  0  0  0  0
   -1.5870   -5.5550    0.2160 C   0  0  0  0  0  0  0  0  0  0  0  0
   -0.4200   -5.6030    1.1330 C   0  0  0  0  0  0  0  0  0  0  0  0
    0.7920   -4.9900    0.5280 C   0  0  0  0  0  0  0  0  0  0  0  0
    0.7260   -4.7510   -0.9220 C   0  0  0  0  0  0  0  0  0  0  0  0
  2  1  1  6
  2  3  1  0
  2 12  1  0
  3  4  1  0
  4  5  2  0
  4  8  1  0
  5  6  1  0
  6  7  1  0
  7  8  2  0
  7 11  1  0
  8  9  1  0
  9 10  1  0
 10 11  1  0
 12 13  1  6
 12 15  1  0
 13 14  1  0
 15 16  1  0
 16 17  2  0
 16 18  1  0
 18 19  1  0
 19 20  1  0
 20 21  2  0
 20 43  1  0
 21 22  1  0
 21 39  1  0
 22 23  1  0
 23 24  2  0
 23 25  1  0
 25 26  1  0
 27 26  1  6
 27 28  1  0
 27 35  1  0
 28 29  1  0
 30 29  1  6
 30 31  1  0
 30 34  1  0
 31 32  1  0
 32 33  1  0
 33 34  1  0
 35 36  1  0
 36 37  1  0
 37 38  1  0
 39 40  1  0
 40 41  1  0
 41 42  1  0
 42 43  1  0
M  CHG  1   2   1
M  END
