
     RDKit          3D

 24 26  0  0  0  0  0  0  0  0999 V2000
   -4.1300   -2.6110   -2.3740 C   0  0  0  0  0  0  0  0  0  0  0  0
   -4.4280   -2.2450   -1.1720 O   0  0  0  0  0  0  0  0  0  0  0  0
   -4.7540   -1.8970    0.0110 C   0  0  0  0  0  0  0  0  0  0  0  0
   -6.0380   -2.1550    0.5320 C   0  0  0  0  0  0  0  0  0  0  0  0
   -6.3450   -1.7660    1.8030 C   0  0  0  0  0  0  0  0  0  0  0  0
   -5.4320   -1.1230    2.6000 C   0  0  0  0  0  0  0  0  0  0  0  0
   -4.1470   -0.8470    2.1210 C   0  0  0  0  0  0  0  0  0  0  0  0
   -3.8440   -1.2380    0.8520 C   0  0  0  0  0  0  0  0  0  0  0  0
   -2.5690   -0.9950    0.2980 N   0  0  0  0  0  0  0  0  0  0  0  0
   -1.4660   -0.3630    0.8920 C   0  0  0  0  0  0  0  0  0  0  0  0
   -1.5330    0.0680    2.0490 O   0  0  0  0  0  0  0  0  0  0  0  0
   -0.1920   -0.1950    0.1500 C   0  0  0  0  0  0  0  0  0  0  0  0
   -0.0780   -0.6110   -1.0090 O   0  0  0  0  0  0  0  0  0  0  0  0
    0.8660    0.4420    0.7960 N   0  0  0  0  0  0  0  0  0  0  0  0
    2.1710    0.6640    0.1610 C   0  0  0  0  0  0  0  0  0  0  0  0
    2.6350    0.3550   -1.0470 C   0  0  0  0  0  0  0  0  0  0  0  0
    3.9070    0.7050   -1.3280 C   0  0  0  0  0  0  0  0  0  0  0  0
    4.6170    1.3310   -0.3890 C   0  0  0  0  0  0  0  0  0  0  0  0
    6.0400    1.8270   -0.4390 C   0  0  0  0  0  0  0  0  0  0  0  0
    6.6680    2.4400    0.5440 C   0  0  0  0  0  0  0  0  0  0  0  0
    8.0120    2.7400    0.0710 C   0  0  0  0  0  0  0  0  0  0  0  0
    8.0290    2.3330   -1.1890 C   0  0  0  0  0  0  0  0  0  0  0  0
    6.9230    1.7060   -1.5640 C   0  0  0  0  0  0  0  0  0  0  0  0
    3.5230    1.4610    0.9440 S   0  0  0  0  0  0  0  0  0  0  0  0
  1  2  1  0
  2  3  1  0
  3  4  2  0
  3  8  1  0
  4  5  1  0
  5  6  2  0
  6  7  1  0
  7  8  2  0
  8  9  1  0
  9 10  1  0
 10 11  2  0
 10 12  1  0
 12 13  2  0
 12 14  1  0
 14 15  1  0
 15 16  2  0
 15 24  1  0
 16 17  1  0
 17 18  2  0
 18 19  1  0
 18 24  1  0
 19 20  2  0
 19 23  1  0
 20 21  1  0
 21 22  2  0
 22 23  2  0
M  END
