
     RDKit          3D

  6  6  0  0  0  0  0  0  0  0999 V2000
   -0.8070    2.3120   -0.7950 O   0  0  0  0  0  0  0  0  0  0  0  0
   -0.3440    1.1990   -0.4500 C   0  0  0  0  0  0  0  0  0  0  0  0
   -1.1460   -0.0490   -0.3550 C   0  0  0  0  0  0  0  0  0  0  0  0
   -0.3090   -0.8320    0.6680 C   0  0  0  0  0  0  0  0  0  0  0  0
    1.0940   -0.5060    0.1420 C   0  0  0  0  0  0  0  0  0  0  0  0
    1.0020    0.9060   -0.0890 N   0  0  0  0  0  0  0  0  0  0  0  0
  1  2  2  0
  2  3  1  0
  2  6  1  0
  3  4  1  0
  4  5  1  0
  5  6  1  0
M  END
