
     RDKit          3D

 24 26  0  0  0  0  0  0  0  0999 V2000
    3.5980   -1.5930    1.3310 C   0  0  0  0  0  0  0  0  0  0  0  0
    4.4800   -0.7120    0.5600 C   0  0  0  0  0  0  0  0  0  0  0  0
    3.9690    0.1710   -0.2710 C   0  0  0  0  0  0  0  0  0  0  0  0
    2.5520    0.2400   -0.3910 N   0  0  0  0  0  0  0  0  0  0  0  0
    1.9960    1.2150   -1.2880 C   0  0  0  0  0  0  0  0  0  0  0  0
    0.5420    1.2800   -1.3910 C   0  0  0  0  0  0  0  0  0  0  0  0
    0.0820    2.1650   -2.2030 O   0  0  0  0  0  0  0  0  0  0  0  0
   -0.3500    0.4670   -0.6860 N   0  0  0  0  0  0  0  0  0  0  0  0
   -1.7550    0.5130   -0.7620 C   0  0  0  0  0  0  0  0  0  0  0  0
   -2.5020    1.5320   -1.3090 C   0  0  0  0  0  0  0  0  0  0  0  0
   -3.9060    1.4960   -1.3670 C   0  0  0  0  0  0  0  0  0  0  0  0
   -4.5450    0.3910   -0.8490 C   0  0  0  0  0  0  0  0  0  0  0  0
   -3.8350   -0.6540   -0.2890 C   0  0  0  0  0  0  0  0  0  0  0  0
   -2.4620   -0.5880   -0.2490 C   0  0  0  0  0  0  0  0  0  0  0  0
   -4.6180   -1.7980    0.2410 C   0  0  0  0  0  0  0  0  0  0  0  0
   -5.6760   -1.2280    1.1620 C   0  0  0  0  0  0  0  0  0  0  0  0
   -6.4310   -0.0780    0.5890 C   0  0  0  0  0  0  0  0  0  0  0  0
   -6.0240    0.2440   -0.8540 C   0  0  0  0  0  0  0  0  0  0  0  0
    4.7970    1.0630   -1.0560 C   0  0  0  0  0  0  0  0  0  0  0  0
    6.0930    1.0990   -1.0370 C   0  0  0  0  0  0  0  0  0  0  0  0
    7.0260    0.2820   -0.2510 C   0  0  0  0  0  0  0  0  0  0  0  0
    6.1920   -0.8670    0.7740 S   0  0  1  0  0  0  0  0  0  0  0  0
    6.5910   -0.6830    2.2190 O   0  0  0  0  0  0  0  0  0  0  0  0
    6.5420   -2.2920    0.3460 O   0  0  0  0  0  0  0  0  0  0  0  0
  1  2  1  0
  2  3  2  0
  2 22  1  0
  3  4  1  0
  3 19  1  0
  4  5  1  0
  5  6  1  0
  6  7  2  0
  6  8  1  0
  8  9  1  0
  9 10  2  0
  9 14  1  0
 10 11  1  0
 11 12  2  0
 12 13  1  0
 12 18  1  0
 13 14  2  0
 13 15  1  0
 15 16  1  0
 16 17  1  0
 17 18  1  0
 19 20  2  0
 20 21  1  0
 22 21  1  6
 22 23  2  0
 22 24  2  0
M  END
