
     RDKit          3D

 23 25  0  0  0  0  0  0  0  0999 V2000
    8.1420    0.7470   -0.9410 C   0  0  0  0  0  0  0  0  0  0  0  0
    6.7470    0.4080   -0.5730 N   0  0  0  0  0  0  0  0  0  0  0  0
    6.4180    0.2040    0.7820 C   0  0  0  0  0  0  0  0  0  0  0  0
    7.3960    0.3360    1.6140 O   0  0  0  0  0  0  0  0  0  0  0  0
    5.1200   -0.1210    1.2370 C   0  0  0  0  0  0  0  0  0  0  0  0
    4.0460   -0.2810    0.5240 C   0  0  0  0  0  0  0  0  0  0  0  0
    2.7000   -0.6160    0.9800 C   0  0  0  0  0  0  0  0  0  0  0  0
    1.7120   -0.2380    0.2130 C   0  0  0  0  0  0  0  0  0  0  0  0
    0.2910   -0.5300    0.5890 C   0  0  0  0  0  0  0  0  0  0  0  0
    0.0630   -1.1370    1.6490 O   0  0  0  0  0  0  0  0  0  0  0  0
   -0.7760   -0.1290   -0.2340 N   0  0  0  0  0  0  0  0  0  0  0  0
   -2.1510   -0.3340   -0.0060 C   0  0  0  0  0  0  0  0  0  0  0  0
   -2.7130   -1.0690    1.0030 C   0  0  0  0  0  0  0  0  0  0  0  0
   -4.0770   -1.1800    1.1170 C   0  0  0  0  0  0  0  0  0  0  0  0
   -4.9290   -0.5560    0.2200 C   0  0  0  0  0  0  0  0  0  0  0  0
   -4.3870    0.1770   -0.7890 C   0  0  0  0  0  0  0  0  0  0  0  0
   -3.0240    0.2770   -0.8870 C   0  0  0  0  0  0  0  0  0  0  0  0
   -5.4610    0.7710   -1.6530 C   0  0  0  0  0  0  0  0  0  0  0  0
   -6.6800    0.6520   -0.7990 C   0  0  0  0  0  0  0  0  0  0  0  0
   -6.4280   -0.5200    0.1260 C   0  0  0  0  0  0  0  0  0  0  0  0
    2.0850    0.4590   -0.9990 C   0  0  0  0  0  0  0  0  0  0  0  0
    1.4820    1.2470   -1.7000 O   0  0  0  0  0  0  0  0  0  0  0  0
    3.7770   -0.1390   -1.2690 S   0  0  0  0  0  0  0  0  0  0  0  0
  1  2  1  0
  2  3  1  0
  3  4  2  0
  3  5  1  0
  5  6  2  3
  6  7  1  0
  6 23  1  0
  7  8  2  0
  8  9  1  0
  8 21  1  0
  9 10  2  0
  9 11  1  0
 11 12  1  0
 12 13  2  0
 12 17  1  0
 13 14  1  0
 14 15  2  0
 15 16  1  0
 15 20  1  0
 16 17  2  0
 16 18  1  0
 18 19  1  0
 19 20  1  0
 21 22  2  0
 21 23  1  0
M  END
