
     RDKit          3D

 15 15  0  0  0  0  0  0  0  0999 V2000
    5.2460    0.0670    0.7030 C   0  0  0  0  0  0  0  0  0  0  0  0
    4.0160    0.1610   -0.0060 O   0  0  0  0  0  0  0  0  0  0  0  0
    2.7880   -0.0250    0.6120 C   0  0  0  0  0  0  0  0  0  0  0  0
    2.7840   -0.2850    1.8420 O   0  0  0  0  0  0  0  0  0  0  0  0
    1.4980    0.0710   -0.1140 C   0  0  2  0  0  0  0  0  0  0  0  0
    1.4010    1.3960   -0.8420 C   0  0  0  0  0  0  0  0  0  0  0  0
    0.4400   -0.1620    0.7580 O   0  0  0  0  0  0  0  0  0  0  0  0
   -0.9020   -0.1400    0.3680 C   0  0  0  0  0  0  0  0  0  0  0  0
   -1.4470   -1.2760    0.0020 C   0  0  0  0  0  0  0  0  0  0  0  0
   -0.5580   -2.4820    0.0460 C   0  0  0  0  0  0  0  0  0  0  0  0
   -3.1450   -1.4170   -0.5220 S   0  0  0  0  0  0  0  0  0  0  0  0
   -3.8840    0.2210   -0.4430 C   0  0  1  0  0  0  0  0  0  0  0  0
   -5.0480    0.1250    0.4230 N   0  0  0  0  0  0  0  0  0  0  0  0
   -2.9270    1.2370    0.0220 C   0  0  0  0  0  0  0  0  0  0  0  0
   -1.6750    1.0830    0.3620 C   0  0  0  0  0  0  0  0  0  0  0  0
  1  2  1  0
  2  3  1  0
  3  4  2  0
  3  5  1  0
  5  6  1  1
  5  7  1  0
  7  8  1  0
  8  9  2  0
  8 15  1  0
  9 10  1  0
  9 11  1  0
 11 12  1  0
 12 13  1  1
 12 14  1  0
 14 15  2  0
M  END
