
     RDKit          3D

 24 26  0  0  0  0  0  0  0  0999 V2000
   -6.5290   -0.1000    2.1550 C   0  0  0  0  0  0  0  0  0  0  0  0
   -5.7510   -0.1800    0.9010 C   0  0  0  0  0  0  0  0  0  0  0  0
   -6.0840   -0.0610   -0.4110 C   0  0  0  0  0  0  0  0  0  0  0  0
   -5.1360   -0.1290   -1.3540 C   0  0  0  0  0  0  0  0  0  0  0  0
   -3.8610   -0.3180   -0.9950 C   0  0  0  0  0  0  0  0  0  0  0  0
   -2.6160   -0.2960   -1.7750 C   0  0  0  0  0  0  0  0  0  0  0  0
   -2.8840    0.0560   -3.0330 O   0  0  0  0  0  0  0  0  0  0  0  0
   -1.3170   -0.5520   -1.4270 N   0  0  0  0  0  0  0  0  0  0  0  0
   -0.8040   -1.0440   -0.2160 C   0  0  0  0  0  0  0  0  0  0  0  0
    0.7400   -1.2980   -0.3210 C   0  0  0  0  0  0  0  0  0  0  0  0
    1.3620   -0.1170   -0.6750 N   0  0  0  0  0  0  0  0  0  0  0  0
    2.7130    0.1130   -0.5970 C   0  0  0  0  0  0  0  0  0  0  0  0
    3.3220   -0.1000    0.7560 C   0  0  0  0  0  0  0  0  0  0  0  0
    4.4530   -0.9380    0.9090 C   0  0  0  0  0  0  0  0  0  0  0  0
    5.1960   -0.9790    2.0620 C   0  0  0  0  0  0  0  0  0  0  0  0
    6.3060   -1.8070    2.1980 O   0  0  0  0  0  0  0  0  0  0  0  0
    4.8070   -0.1690    3.1040 C   0  0  0  0  0  0  0  0  0  0  0  0
    3.6940    0.6570    2.9660 C   0  0  0  0  0  0  0  0  0  0  0  0
    2.9560    0.6970    1.8070 C   0  0  0  0  0  0  0  0  0  0  0  0
    1.8540    1.5480    1.7430 O   0  0  0  0  0  0  0  0  0  0  0  0
    0.6520    0.6840   -1.6410 C   0  0  1  0  0  0  0  0  0  0  0  0
    1.4760    1.5710   -2.5020 C   0  0  0  0  0  0  0  0  0  0  0  0
   -0.2980   -0.2090   -2.4640 C   0  0  0  0  0  0  0  0  0  0  0  0
   -3.9240   -0.4210    0.8270 S   0  0  0  0  0  0  0  0  0  0  0  0
  1  2  1  0
  2  3  2  0
  2 24  1  0
  3  4  1  0
  4  5  2  0
  5  6  1  0
  5 24  1  0
  6  7  2  0
  6  8  1  0
  8  9  1  0
  8 23  1  0
  9 10  1  0
 10 11  1  0
 11 12  1  0
 11 21  1  0
 12 13  1  0
 13 14  2  0
 13 19  1  0
 14 15  1  0
 15 16  1  0
 15 17  2  0
 17 18  1  0
 18 19  2  0
 19 20  1  0
 21 22  1  6
 21 23  1  0
M  END
