
     RDKit          3D

 24 26  0  0  0  0  0  0  0  0999 V2000
   -7.0810   -0.9220   -0.7810 C   0  0  0  0  0  0  0  0  0  0  0  0
   -6.2210    0.2850   -0.9000 C   0  0  0  0  0  0  0  0  0  0  0  0
   -4.7700    0.0580   -0.6790 C   0  0  0  0  0  0  0  0  0  0  0  0
   -3.9850    1.2050   -0.7840 C   0  0  0  0  0  0  0  0  0  0  0  0
   -4.5960    2.5150   -1.0930 C   0  0  0  0  0  0  0  0  0  0  0  0
   -2.3030    1.0520   -0.5470 S   0  0  0  0  0  0  0  0  0  0  0  0
   -1.8320   -0.5470   -0.2040 C   0  0  0  0  0  0  0  0  0  0  0  0
   -0.4970   -0.9460    0.0350 N   0  0  0  0  0  0  0  0  0  0  0  0
    0.5920   -0.0400    0.0120 C   0  0  0  0  0  0  0  0  0  0  0  0
    0.3000    1.1750   -0.2420 O   0  0  0  0  0  0  0  0  0  0  0  0
    1.9660   -0.4520    0.2600 C   0  0  0  0  0  0  0  0  0  0  0  0
    2.9330    0.4270    0.2280 C   0  0  0  0  0  0  0  0  0  0  0  0
    2.9140    1.8780   -0.0320 C   0  0  0  0  0  0  0  0  0  0  0  0
    4.1870    2.2990    0.4120 O   0  0  0  0  0  0  0  0  0  0  0  0
    5.0520    1.2300    0.5730 C   0  0  0  0  0  0  0  0  0  0  0  0
    6.4250    1.1540    0.8040 C   0  0  0  0  0  0  0  0  0  0  0  0
    7.0670   -0.0660    0.9290 C   0  0  0  0  0  0  0  0  0  0  0  0
    6.3570   -1.2420    0.8260 C   0  0  0  0  0  0  0  0  0  0  0  0
    7.0380   -2.4820    0.9580 N   0  0  0  0  0  0  0  0  0  0  0  0
    5.0050   -1.1640    0.5980 C   0  0  0  0  0  0  0  0  0  0  0  0
    4.3440    0.0520    0.4700 C   0  0  0  0  0  0  0  0  0  0  0  0
   -2.8780   -1.4320   -0.1780 C   0  0  0  0  0  0  0  0  0  0  0  0
   -4.2030   -1.1570   -0.3930 C   0  0  0  0  0  0  0  0  0  0  0  0
   -5.0020   -2.1770   -0.3120 O   0  0  0  0  0  0  0  0  0  0  0  0
  1  2  1  0
  2  3  1  0
  3  4  2  0
  3 23  1  0
  4  5  1  0
  4  6  1  0
  6  7  1  0
  7  8  1  0
  7 22  2  0
  8  9  1  0
  9 10  2  0
  9 11  1  0
 11 12  2  3
 12 13  1  0
 12 21  1  0
 13 14  1  0
 14 15  1  0
 15 16  2  0
 15 21  1  0
 16 17  1  0
 17 18  2  0
 18 19  1  0
 18 20  1  0
 20 21  2  0
 22 23  1  0
 23 24  2  0
M  END
