
     RDKit          3D

 10 10  0  0  0  0  0  0  0  0999 V2000
   -0.0510   -1.0850    1.7350 C   0  0  0  0  0  0  0  0  0  0  0  0
    0.3740   -0.6160    0.3590 C   0  0  2  0  0  0  0  0  0  0  0  0
    1.6420    0.0130    0.4740 N   0  0  0  0  0  0  0  0  0  0  0  0
    2.0510    0.7740   -0.6720 C   0  0  0  0  0  0  0  0  0  0  0  0
    1.1880    0.5410   -1.8480 C   0  0  0  0  0  0  0  0  0  0  0  0
    1.6410    0.3290   -3.0040 O   0  0  0  0  0  0  0  0  0  0  0  0
   -0.1960    0.5720   -1.5900 O   0  0  0  0  0  0  0  0  0  0  0  0
   -0.6810    0.1800   -0.3320 C   0  0  2  0  0  0  0  0  0  0  0  0
   -1.1930    1.3500    0.4230 C   0  0  0  0  0  0  0  0  0  0  0  0
   -1.8640   -0.7560   -0.6000 C   0  0  0  0  0  0  0  0  0  0  0  0
  2  1  1  1
  2  3  1  0
  2  8  1  0
  3  4  1  0
  4  5  1  0
  5  6  2  0
  5  7  1  0
  7  8  1  0
  8  9  1  1
  8 10  1  0
M  END
