
     RDKit          3D

 10 10  0  0  0  0  0  0  0  0999 V2000
   -0.5680    2.0050   -0.7340 C   0  0  0  0  0  0  0  0  0  0  0  0
   -0.3320    0.7370    0.1040 C   0  0  1  0  0  0  0  0  0  0  0  0
   -1.5560    0.5960    0.9510 C   0  0  0  0  0  0  0  0  0  0  0  0
   -2.4890   -0.3110    0.4920 O   0  0  0  0  0  0  0  0  0  0  0  0
   -1.7950   -1.5410    0.4690 C   0  0  0  0  0  0  0  0  0  0  0  0
   -0.9030   -1.4560   -0.7290 C   0  0  0  0  0  0  0  0  0  0  0  0
    0.0380   -0.3710   -0.6950 N   0  0  0  0  0  0  0  0  0  0  0  0
    1.3320   -0.9400   -0.4520 C   0  0  0  0  0  0  0  0  0  0  0  0
    2.5070   -0.0720   -0.6880 C   0  0  0  0  0  0  0  0  0  0  0  0
    2.5770    1.0640    0.0820 O   0  0  0  0  0  0  0  0  0  0  0  0
  2  1  1  6
  2  3  1  0
  2  7  1  0
  3  4  1  0
  4  5  1  0
  5  6  1  0
  6  7  1  0
  7  8  1  0
  8  9  1  0
  9 10  1  0
M  END
