
     RDKit          3D

 10 10  0  0  0  0  0  0  0  0999 V2000
   -1.7040    1.1080    0.7710 C   0  0  0  0  0  0  0  0  0  0  0  0
   -1.4370   -0.3420    0.4470 C   0  0  1  0  0  0  0  0  0  0  0  0
   -2.3080   -0.7360   -0.7140 C   0  0  0  0  0  0  0  0  0  0  0  0
    0.0110   -0.5810    0.0900 C   0  0  2  0  0  0  0  0  0  0  0  0
    0.8930   -0.2140    1.1850 N   0  0  0  0  0  0  0  0  0  0  0  0
    2.2430   -0.4910    0.7660 C   0  0  0  0  0  0  0  0  0  0  0  0
    2.7030    0.5060   -0.2800 C   0  0  0  0  0  0  0  0  0  0  0  0
    1.6750    0.6670   -1.2420 O   0  0  0  0  0  0  0  0  0  0  0  0
    0.4210    0.1430   -1.1260 C   0  0  0  0  0  0  0  0  0  0  0  0
   -0.4030    0.2740   -2.0600 O   0  0  0  0  0  0  0  0  0  0  0  0
  2  1  1  6
  2  3  1  0
  2  4  1  0
  4  5  1  1
  4  9  1  0
  5  6  1  0
  6  7  1  0
  7  8  1  0
  8  9  1  0
  9 10  2  0
M  END
