
     RDKit          3D

 10 10  0  0  0  0  0  0  0  0999 V2000
   -0.3960   -1.0140   -1.6840 C   0  0  0  0  0  0  0  0  0  0  0  0
   -0.5380    0.0350   -0.6730 N   0  0  0  0  0  0  0  0  0  0  0  0
   -1.9020    0.2880   -0.4290 C   0  0  0  0  0  0  0  0  0  0  0  0
   -2.4080    0.0310    0.9360 C   0  0  0  0  0  0  0  0  0  0  0  0
   -1.5360   -0.6950    1.7390 O   0  0  0  0  0  0  0  0  0  0  0  0
   -0.3490    0.0220    1.7790 C   0  0  0  0  0  0  0  0  0  0  0  0
    0.3180   -0.1340    0.4320 C   0  0  2  0  0  0  0  0  0  0  0  0
    1.5170    0.8060    0.4280 C   0  0  0  0  0  0  0  0  0  0  0  0
    2.3710    0.6010   -0.8040 C   0  0  0  0  0  0  0  0  0  0  0  0
    2.8300   -0.7070   -0.8280 O   0  0  0  0  0  0  0  0  0  0  0  0
  1  2  1  0
  2  3  1  0
  2  7  1  0
  3  4  1  0
  4  5  1  0
  5  6  1  0
  6  7  1  0
  7  8  1  6
  8  9  1  0
  9 10  1  0
M  END
