
     RDKit          3D

 10 10  0  0  0  0  0  0  0  0999 V2000
    4.0550   -1.4000    1.3640 O   0  0  0  0  0  0  0  0  0  0  0  0
    3.5380   -0.4360    0.7570 C   0  0  0  0  0  0  0  0  0  0  0  0
    4.3110    0.7150    0.5200 O   0  0  0  0  0  0  0  0  0  0  0  0
    2.1840   -0.4860    0.3050 C   0  0  0  0  0  0  0  0  0  0  0  0
    1.0400   -0.5220   -0.0830 C   0  0  0  0  0  0  0  0  0  0  0  0
   -0.3320   -0.5790   -0.5280 C   0  0  1  0  0  0  0  0  0  0  0  0
   -1.2790   -0.5300    0.6330 C   0  0  0  0  0  0  0  0  0  0  0  0
   -2.2610    0.5790    0.2570 C   0  0  0  0  0  0  0  0  0  0  0  0
   -2.1490    0.5180   -1.2640 C   0  0  0  0  0  0  0  0  0  0  0  0
   -0.6820    0.5550   -1.3910 N   0  0  0  0  0  0  0  0  0  0  0  0
  1  2  2  0
  2  3  1  0
  2  4  1  0
  4  5  3  0
  6  5  1  1
  6  7  1  0
  6 10  1  0
  7  8  1  0
  8  9  1  0
  9 10  1  0
M  END
