
     RDKit          3D

 10 10  0  0  0  0  0  0  0  0999 V2000
    3.0530   -0.8660   -0.2710 C   0  0  0  0  0  0  0  0  0  0  0  0
    2.2940    0.3610    0.0360 C   0  0  0  0  0  0  0  0  0  0  0  0
    1.0280    0.2940    0.3130 C   0  0  0  0  0  0  0  0  0  0  0  0
    0.3760   -0.9400    0.3220 O   0  0  0  0  0  0  0  0  0  0  0  0
   -0.9960   -1.0920    0.0840 C   0  0  0  0  0  0  0  0  0  0  0  0
   -1.7890    0.1530    0.2020 C   0  0  1  0  0  0  0  0  0  0  0  0
   -3.0870   -0.1490    0.9170 C   0  0  0  0  0  0  0  0  0  0  0  0
   -1.1360    1.1850    0.8980 O   0  0  0  0  0  0  0  0  0  0  0  0
    0.2140    1.4540    0.6240 C   0  0  0  0  0  0  0  0  0  0  0  0
    0.6820    2.6380    0.6510 N   0  0  0  0  0  0  0  0  0  0  0  0
  1  2  1  0
  2  3  2  3
  3  4  1  0
  3  9  1  0
  4  5  1  0
  5  6  1  0
  6  7  1  1
  6  8  1  0
  8  9  1  0
  9 10  2  0
M  END
