
     RDKit          3D

 10 10  0  0  0  0  0  0  0  0999 V2000
    3.4160    0.7180    0.3250 C   0  0  0  0  0  0  0  0  0  0  0  0
    2.0560    0.5290    0.4410 O   0  0  0  0  0  0  0  0  0  0  0  0
    1.2850   -0.1030   -0.4560 C   0  0  0  0  0  0  0  0  0  0  0  0
    1.7590   -0.6270   -1.5160 O   0  0  0  0  0  0  0  0  0  0  0  0
   -0.1770   -0.2490   -0.2470 C   0  0  2  0  0  0  0  0  0  0  0  0
   -0.5710   -1.5270   -1.0420 C   0  0  0  0  0  0  0  0  0  0  0  0
   -0.9640    0.9300   -0.6460 C   0  0  0  0  0  0  0  0  0  0  0  0
   -2.2870    0.6430    0.0680 C   0  0  0  0  0  0  0  0  0  0  0  0
   -1.7440    0.1530    1.4200 C   0  0  0  0  0  0  0  0  0  0  0  0
   -0.5070   -0.5430    1.1300 N   0  0  0  0  0  0  0  0  0  0  0  0
  1  2  1  0
  2  3  1  0
  3  4  2  0
  3  5  1  0
  5  6  1  6
  5  7  1  0
  5 10  1  0
  7  8  1  0
  8  9  1  0
  9 10  1  0
M  END
