
     RDKit          3D

 10 10  0  0  0  0  0  0  0  0999 V2000
    3.3940    0.7640    0.0240 C   0  0  0  0  0  0  0  0  0  0  0  0
    2.0500    0.2850   -0.0590 O   0  0  0  0  0  0  0  0  0  0  0  0
    1.7620   -1.0020   -0.5100 C   0  0  0  0  0  0  0  0  0  0  0  0
    2.7580   -1.6970   -0.8320 O   0  0  0  0  0  0  0  0  0  0  0  0
    0.4050   -1.5210   -0.6070 C   0  0  0  0  0  0  0  0  0  0  0  0
   -0.6450   -0.7690   -0.2610 C   0  0  0  0  0  0  0  0  0  0  0  0
   -0.6040    0.6270    0.2450 C   0  0  0  0  0  0  0  0  0  0  0  0
   -2.0400    1.0830    0.3450 C   0  0  0  0  0  0  0  0  0  0  0  0
   -2.8610    0.0500   -0.3960 C   0  0  0  0  0  0  0  0  0  0  0  0
   -2.0170   -1.1380   -0.3010 N   0  0  0  0  0  0  0  0  0  0  0  0
  1  2  1  0
  2  3  1  0
  3  4  2  0
  3  5  1  0
  5  6  2  3
  6  7  1  0
  6 10  1  0
  7  8  1  0
  8  9  1  0
  9 10  1  0
M  END
