
     RDKit          3D

 13 14  0  0  0  0  0  0  0  0999 V2000
   -2.5250   -2.5190    0.3680 O   0  0  0  0  0  0  0  0  0  0  0  0
   -2.0840   -1.3430    0.3370 C   0  0  0  0  0  0  0  0  0  0  0  0
   -2.9870   -0.3030    0.4190 C   0  0  0  0  0  0  0  0  0  0  0  0
   -2.5000    0.9820    0.3850 C   0  0  0  0  0  0  0  0  0  0  0  0
   -1.1630    1.2320    0.2740 C   0  0  0  0  0  0  0  0  0  0  0  0
   -0.4770    2.8810    0.2250 S   0  0  0  0  0  0  0  0  0  0  0  0
   -0.2680    0.1750    0.1930 C   0  0  0  0  0  0  0  0  0  0  0  0
   -0.7590   -1.0740    0.2270 N   0  0  0  0  0  0  0  0  0  0  0  0
    0.3340   -2.0660    0.1130 C   0  0  0  0  0  0  0  0  0  0  0  0
    1.3770   -1.2220   -0.6510 C   0  0  0  0  0  0  0  0  0  0  0  0
    1.1780    0.0820    0.0840 C   0  0  1  0  0  0  0  0  0  0  0  0
    1.9490    1.2110   -0.4520 C   0  0  0  0  0  0  0  0  0  0  0  0
    3.3180    0.8340   -0.4440 O   0  0  0  0  0  0  0  0  0  0  0  0
  1  2  2  0
  2  3  1  0
  2  8  1  0
  3  4  2  0
  4  5  1  0
  5  6  1  0
  5  7  2  0
  7  8  1  0
  7 11  1  0
  8  9  1  0
  9 10  1  0
 10 11  1  0
 11 12  1  6
 12 13  1  0
M  END
