
     RDKit          3D

 28 31  0  0  0  0  0  0  0  0999 V2000
   -1.6020    2.8710   -3.9040 C   0  0  0  0  0  0  0  0  0  0  0  0
   -0.9870    1.9920   -2.8560 C   0  0  0  0  0  0  0  0  0  0  0  0
    0.2960    1.9580   -2.8020 N   0  0  0  0  0  0  0  0  0  0  0  0
    0.9160    1.1530   -1.8400 C   0  0  0  0  0  0  0  0  0  0  0  0
    2.1520    1.0880   -1.7510 O   0  0  0  0  0  0  0  0  0  0  0  0
    0.0340    0.3730   -0.9260 C   0  0  0  0  0  0  0  0  0  0  0  0
    0.6300   -0.2930    0.0190 C   0  0  0  0  0  0  0  0  0  0  0  0
    2.0710   -0.2800    0.1660 N   0  0  0  0  0  0  0  0  0  0  0  0
    2.5840    0.5520    1.2060 C   0  0  0  0  0  0  0  0  0  0  0  0
    4.0750    0.4530    1.4150 C   0  0  1  0  0  0  0  0  0  0  0  0
    4.5100   -0.9340    1.7760 C   0  0  0  0  0  0  0  0  0  0  0  0
    5.6530   -1.4200    1.0420 N   0  0  0  0  0  0  0  0  0  0  0  0
    5.7440   -1.0970   -0.3460 C   0  0  0  0  0  0  0  0  0  0  0  0
    6.2430   -1.9070   -1.1790 O   0  0  0  0  0  0  0  0  0  0  0  0
    5.2500    0.1720   -0.7390 N   0  0  0  0  0  0  0  0  0  0  0  0
    4.8290    1.0870    0.2910 C   0  0  0  0  0  0  0  0  0  0  0  0
   -1.3960    0.4520   -1.0450 C   0  0  0  0  0  0  0  0  0  0  0  0
   -2.3730   -0.2180   -0.2170 C   0  0  0  0  0  0  0  0  0  0  0  0
   -3.6210    0.4260   -0.1410 C   0  0  0  0  0  0  0  0  0  0  0  0
   -4.6980   -0.0650    0.5090 C   0  0  0  0  0  0  0  0  0  0  0  0
   -5.9840    0.7020    0.5290 C   0  0  0  0  0  0  0  0  0  0  0  0
   -4.5860   -1.2830    1.1480 C   0  0  0  0  0  0  0  0  0  0  0  0
   -3.3830   -1.9490    1.0980 C   0  0  0  0  0  0  0  0  0  0  0  0
   -2.2840   -1.4080    0.4100 C   0  0  0  0  0  0  0  0  0  0  0  0
   -3.5440   -3.1270    1.8090 O   0  0  0  0  0  0  0  0  0  0  0  0
   -4.9140   -3.2230    2.2280 C   0  0  0  0  0  0  0  0  0  0  0  0
   -5.5140   -1.9940    1.8690 O   0  0  0  0  0  0  0  0  0  0  0  0
   -1.8310    1.2590   -2.0010 N   0  0  0  0  0  0  0  0  0  0  0  0
  1  2  1  0
  2  3  2  0
  2 28  1  0
  3  4  1  0
  4  5  2  0
  4  6  1  0
  6  7  2  3
  6 17  1  0
  7  8  1  0
  8  9  1  0
 10  9  1  6
 10 11  1  0
 10 16  1  0
 11 12  1  0
 12 13  1  0
 13 14  2  0
 13 15  1  0
 15 16  1  0
 17 18  1  0
 17 28  2  0
 18 19  2  0
 18 24  1  0
 19 20  1  0
 20 21  1  0
 20 22  2  0
 22 23  1  0
 22 27  1  0
 23 24  2  0
 23 25  1  0
 25 26  1  0
 26 27  1  0
M  END
