
     RDKit          3D

  8  8  0  0  0  0  0  0  0  0999 V2000
    2.5800    1.0010   -0.0560 O   0  0  0  0  0  0  0  0  0  0  0  0
    1.3830    0.6170   -0.0430 C   0  0  0  0  0  0  0  0  0  0  0  0
    1.0970   -0.7760   -0.3720 C   0  0  0  0  0  0  0  0  0  0  0  0
   -0.3140   -1.1900   -0.2710 C   0  0  0  0  0  0  0  0  0  0  0  0
   -1.3400   -0.1340   -0.2200 C   0  0  0  0  0  0  0  0  0  0  0  0
   -0.9430    1.1190    0.4260 C   0  0  0  0  0  0  0  0  0  0  0  0
   -1.7900    1.8010    1.1010 O   0  0  0  0  0  0  0  0  0  0  0  0
    0.3920    1.5700    0.2930 N   0  0  0  0  0  0  0  0  0  0  0  0
  1  2  2  0
  2  3  1  0
  2  8  1  0
  3  4  1  0
  4  5  1  0
  5  6  1  0
  6  7  2  0
  6  8  1  0
M  END
