
     RDKit          3D

 28 31  0  0  0  0  0  0  0  0999 V2000
   -4.0900    1.3360    2.4440 C   0  0  0  0  0  0  0  0  0  0  0  0
   -5.1280    0.6850    1.6230 C   0  0  0  0  0  0  0  0  0  0  0  0
   -5.0250    0.8700    0.1190 C   0  0  2  0  0  0  0  0  0  0  0  0
   -6.2110    0.1200   -0.4320 C   0  0  0  0  0  0  0  0  0  0  0  0
   -5.6480   -0.9380   -1.2040 N   0  0  0  0  0  0  0  0  0  0  0  0
   -4.3570   -0.8910   -1.2090 C   0  0  0  0  0  0  0  0  0  0  0  0
   -3.3700   -1.6970   -1.8190 N   0  0  0  0  0  0  0  0  0  0  0  0
   -1.9450   -1.4510   -1.7070 C   0  0  0  0  0  0  0  0  0  0  0  0
   -1.4760   -0.4330   -1.0120 C   0  0  0  0  0  0  0  0  0  0  0  0
   -2.4630    0.4210   -0.3670 C   0  0  0  0  0  0  0  0  0  0  0  0
   -2.0830    1.4040    0.3050 O   0  0  0  0  0  0  0  0  0  0  0  0
   -3.8920    0.2000   -0.4570 N   0  0  0  0  0  0  0  0  0  0  0  0
   -0.0040   -0.1340   -0.8770 C   0  0  1  0  0  0  0  0  0  0  0  0
    0.4220    0.5480    0.3280 C   0  0  0  0  0  0  0  0  0  0  0  0
    1.8280    0.7690    0.4420 N   0  0  0  0  0  0  0  0  0  0  0  0
    2.8700   -0.1350    0.6610 C   0  0  0  0  0  0  0  0  0  0  0  0
    2.6050   -1.3500    0.8210 O   0  0  0  0  0  0  0  0  0  0  0  0
    4.2870    0.2780    0.7130 C   0  0  0  0  0  0  0  0  0  0  0  0
    4.7310    1.5510    0.5550 C   0  0  0  0  0  0  0  0  0  0  0  0
    6.0740    1.8030    0.6260 N   0  0  0  0  0  0  0  0  0  0  0  0
    6.9670    0.8290    0.8470 C   0  0  0  0  0  0  0  0  0  0  0  0
    8.4170    1.1120    0.9220 C   0  0  0  0  0  0  0  0  0  0  0  0
    6.4600   -0.4450    1.0000 C   0  0  0  0  0  0  0  0  0  0  0  0
    7.3110   -1.3690    1.2100 O   0  0  0  0  0  0  0  0  0  0  0  0
    5.1920   -0.6660    0.9310 O   0  0  0  0  0  0  0  0  0  0  0  0
    0.8040   -1.2700   -1.3500 C   0  0  0  0  0  0  0  0  0  0  0  0
    0.2400   -1.7470   -2.7270 C   0  0  0  0  0  0  0  0  0  0  0  0
   -1.0620   -2.4200   -2.4140 C   0  0  0  0  0  0  0  0  0  0  0  0
  1  2  1  0
  3  2  1  1
  3  4  1  0
  3 12  1  0
  4  5  1  0
  5  6  2  0
  6  7  1  0
  6 12  1  0
  7  8  1  0
  8  9  2  0
  8 28  1  0
  9 10  1  0
  9 13  1  0
 10 11  2  0
 10 12  1  0
 13 14  1  1
 13 26  1  0
 14 15  1  0
 15 16  1  0
 16 17  2  0
 16 18  1  0
 18 19  2  0
 18 25  1  0
 19 20  1  0
 20 21  2  0
 21 22  1  0
 21 23  1  0
 23 24  2  0
 23 25  1  0
 26 27  1  0
 27 28  1  0
M  END
