
     RDKit          3D

 28 31  0  0  0  0  0  0  0  0999 V2000
    4.5490   -1.3550    1.0130 O   0  0  0  0  0  0  0  0  0  0  0  0
    3.8340   -1.6220    0.0180 C   0  0  0  0  0  0  0  0  0  0  0  0
    4.4790   -1.6840   -1.2480 N   0  0  0  0  0  0  0  0  0  0  0  0
    5.8850   -1.4630   -1.4580 C   0  0  0  0  0  0  0  0  0  0  0  0
    6.1700   -0.0100   -1.3900 C   0  0  0  0  0  0  0  0  0  0  0  0
    6.1560    0.8640   -2.4800 C   0  0  0  0  0  0  0  0  0  0  0  0
    6.4600    2.0680   -2.0130 N   0  0  0  0  0  0  0  0  0  0  0  0
    6.6740    2.0540   -0.6970 N   0  0  0  0  0  0  0  0  0  0  0  0
    6.4970    0.7860   -0.3140 C   0  0  0  0  0  0  0  0  0  0  0  0
    2.3970   -1.8520    0.2140 C   0  0  2  0  0  0  0  0  0  0  0  0
    1.5290   -1.1000   -0.7570 C   0  0  0  0  0  0  0  0  0  0  0  0
    0.5590   -0.3670    0.1490 N   0  0  0  0  0  0  0  0  0  0  0  0
   -0.7930   -0.6020    0.0130 C   0  0  0  0  0  0  0  0  0  0  0  0
   -1.0700   -1.4270   -0.9830 O   0  0  0  0  0  0  0  0  0  0  0  0
   -1.9400   -0.1720    0.6850 N   0  0  0  0  0  0  0  0  0  0  0  0
   -2.0670    0.6790    1.8320 C   0  0  0  0  0  0  0  0  0  0  0  0
   -2.8670   -0.0580    2.9060 C   0  0  0  0  0  0  0  0  0  0  0  0
   -4.0820   -0.4140    2.3450 O   0  0  0  0  0  0  0  0  0  0  0  0
   -3.8920   -1.3830    1.3320 C   0  0  0  0  0  0  0  0  0  0  0  0
   -3.2820   -0.6210    0.1810 C   0  0  1  0  0  0  0  0  0  0  0  0
   -4.1570    0.5520   -0.1110 C   0  0  1  0  0  0  0  0  0  0  0  0
   -3.5810    1.4830   -1.1460 C   0  0  0  0  0  0  0  0  0  0  0  0
   -4.8060    2.2590   -1.5890 C   0  0  0  0  0  0  0  0  0  0  0  0
   -5.9880    1.3230   -1.3680 C   0  0  0  0  0  0  0  0  0  0  0  0
   -5.3830    0.0320   -0.8610 C   0  0  0  0  0  0  0  0  0  0  0  0
    1.2980    0.4980    1.0280 C   0  0  0  0  0  0  0  0  0  0  0  0
    1.9780   -0.4460    2.0310 C   0  0  0  0  0  0  0  0  0  0  0  0
    2.0580   -1.7240    1.5320 O   0  0  0  0  0  0  0  0  0  0  0  0
  1  2  2  0
  2  3  1  0
 10  2  1  1
  3  4  1  0
  4  5  1  0
  5  6  1  0
  5  9  2  0
  6  7  2  0
  7  8  1  0
  8  9  1  0
 10 11  1  0
 10 28  1  0
 11 12  1  0
 12 13  1  0
 12 26  1  0
 13 14  2  0
 13 15  1  0
 15 16  1  0
 15 20  1  0
 16 17  1  0
 17 18  1  0
 18 19  1  0
 20 19  1  1
 20 21  1  0
 21 22  1  6
 21 25  1  0
 22 23  1  0
 23 24  1  0
 24 25  1  0
 26 27  1  0
 27 28  1  0
M  END
