
     RDKit          3D

 28 31  0  0  0  0  0  0  0  0999 V2000
    3.1260    0.2760   -3.5430 C   0  0  0  0  0  0  0  0  0  0  0  0
    3.3820   -0.0960   -2.1100 C   0  0  0  0  0  0  0  0  0  0  0  0
    4.5750   -0.3230   -1.5250 N   0  0  0  0  0  0  0  0  0  0  0  0
    4.4200   -0.6300   -0.2440 N   0  0  0  0  0  0  0  0  0  0  0  0
    5.4810   -0.9420    0.7230 C   0  0  1  0  0  0  0  0  0  0  0  0
    6.5230   -1.7320   -0.0340 C   0  0  0  0  0  0  0  0  0  0  0  0
    6.0750    0.3780    1.2220 C   0  0  0  0  0  0  0  0  0  0  0  0
    3.1070   -0.6130    0.0520 C   0  0  0  0  0  0  0  0  0  0  0  0
    2.3620   -0.8330    1.1510 N   0  0  0  0  0  0  0  0  0  0  0  0
    1.0180   -0.7280    1.1020 C   0  0  0  0  0  0  0  0  0  0  0  0
    0.3390   -0.9380    2.1360 O   0  0  0  0  0  0  0  0  0  0  0  0
    0.3490   -0.4030   -0.0250 N   0  0  0  0  0  0  0  0  0  0  0  0
   -1.0860   -0.3200   -0.0090 C   0  0  0  0  0  0  0  0  0  0  0  0
   -1.6170    1.0400    0.3800 C   0  0  1  0  0  0  0  0  0  0  0  0
   -1.2000    2.1040   -0.4900 N   0  0  0  0  0  0  0  0  0  0  0  0
   -2.1760    2.9480   -1.0580 C   0  0  0  0  0  0  0  0  0  0  0  0
   -2.1500    3.2780   -2.2910 O   0  0  0  0  0  0  0  0  0  0  0  0
   -3.2570    3.4610   -0.1880 C   0  0  0  0  0  0  0  0  0  0  0  0
   -3.5760    2.4310    0.8740 C   0  0  0  0  0  0  0  0  0  0  0  0
   -3.1200    1.0510    0.4520 C   0  0  2  0  0  0  0  0  0  0  0  0
   -3.6290    0.0540    1.2460 O   0  0  0  0  0  0  0  0  0  0  0  0
   -4.4400   -0.8500    0.5920 C   0  0  1  0  0  0  0  0  0  0  0  0
   -4.1300   -2.3060    0.8920 C   0  0  0  0  0  0  0  0  0  0  0  0
   -5.5980   -2.5600    1.1710 C   0  0  0  0  0  0  0  0  0  0  0  0
   -5.8070   -1.0610    1.2130 C   0  0  0  0  0  0  0  0  0  0  0  0
    1.0550   -0.1770   -1.1350 C   0  0  0  0  0  0  0  0  0  0  0  0
    0.5190    0.1270   -2.2220 O   0  0  0  0  0  0  0  0  0  0  0  0
    2.4470   -0.2790   -1.1140 C   0  0  0  0  0  0  0  0  0  0  0  0
  1  2  1  0
  2  3  2  0
  2 28  1  0
  3  4  1  0
  4  5  1  0
  4  8  1  0
  5  6  1  6
  5  7  1  0
  8  9  1  0
  8 28  2  0
  9 10  1  0
 10 11  2  0
 10 12  1  0
 12 13  1  0
 12 26  1  0
 14 13  1  6
 14 15  1  0
 14 20  1  0
 15 16  1  0
 16 17  2  0
 16 18  1  0
 18 19  1  0
 19 20  1  0
 20 21  1  1
 22 21  1  1
 22 23  1  0
 22 25  1  0
 23 24  1  0
 24 25  1  0
 26 27  2  0
 26 28  1  0
M  END
