
     RDKit          3D

 28 31  0  0  0  0  0  0  0  0999 V2000
    7.1970    2.2180   -0.5580 C   0  0  0  0  0  0  0  0  0  0  0  0
    6.1950    1.3740   -0.7900 C   0  0  0  0  0  0  0  0  0  0  0  0
    5.3990    0.6450    0.1850 C   0  0  0  0  0  0  0  0  0  0  0  0
    4.5210   -0.0690   -0.5200 C   0  0  0  0  0  0  0  0  0  0  0  0
    4.7140    0.1630   -1.8600 C   0  0  0  0  0  0  0  0  0  0  0  0
    3.7790   -0.6030   -2.5300 C   0  0  0  0  0  0  0  0  0  0  0  0
    3.0380   -1.2820   -1.5900 C   0  0  0  0  0  0  0  0  0  0  0  0
    3.5070   -0.9440   -0.3580 N   0  0  0  0  0  0  0  0  0  0  0  0
    3.0240   -1.4200    0.9060 C   0  0  0  0  0  0  0  0  0  0  0  0
    1.9350   -0.5650    1.4680 C   0  0  0  0  0  0  0  0  0  0  0  0
    1.5000    0.4530    0.8910 O   0  0  0  0  0  0  0  0  0  0  0  0
    1.4060   -0.9420    2.6820 O   0  0  0  0  0  0  0  0  0  0  0  0
    0.3830   -0.2380    3.3050 C   0  0  0  0  0  0  0  0  0  0  0  0
   -0.8920   -0.2090    2.6380 C   0  0  0  0  0  0  0  0  0  0  0  0
   -1.9130    0.4450    3.0790 O   0  0  0  0  0  0  0  0  0  0  0  0
   -1.2280   -0.8790    1.4360 N   0  0  0  0  0  0  0  0  0  0  0  0
   -2.5230   -0.6020    0.9520 C   0  0  0  0  0  0  0  0  0  0  0  0
   -3.1940   -1.6540    0.8590 N   0  0  0  0  0  0  0  0  0  0  0  0
   -4.5460   -1.7260    0.4410 C   0  0  0  0  0  0  0  0  0  0  0  0
   -5.3640   -0.9200   -0.1950 C   0  0  0  0  0  0  0  0  0  0  0  0
   -6.7300   -1.3970   -0.4350 C   0  0  0  0  0  0  0  0  0  0  0  0
   -5.0410    0.4050   -0.6580 N   0  0  0  0  0  0  0  0  0  0  0  0
   -3.7250    0.9650   -0.6960 C   0  0  0  0  0  0  0  0  0  0  0  0
   -2.7090    0.5390   -0.0300 C   0  0  0  0  0  0  0  0  0  0  0  0
   -1.5140    1.3090   -0.5140 C   0  0  0  0  0  0  0  0  0  0  0  0
   -1.9310    1.7920   -1.7560 O   0  0  0  0  0  0  0  0  0  0  0  0
   -3.2980    2.1110   -1.5690 C   0  0  0  0  0  0  0  0  0  0  0  0
    5.6780    0.9960   -2.0600 N   0  0  0  0  0  0  0  0  0  0  0  0
  1  2  2  0
  2  3  1  0
  2 28  1  0
  3  4  2  0
  4  5  1  0
  4  8  1  0
  5  6  1  0
  5 28  2  0
  6  7  2  0
  7  8  1  0
  8  9  1  0
  9 10  1  0
 10 11  2  0
 10 12  1  0
 12 13  1  0
 13 14  1  0
 14 15  2  0
 14 16  1  0
 16 17  1  0
 17 18  2  0
 17 24  1  0
 18 19  1  0
 19 20  2  0
 20 21  1  0
 20 22  1  0
 22 23  1  0
 23 24  2  0
 23 27  1  0
 24 25  1  0
 25 26  1  0
 26 27  1  0
M  END
