
     RDKit          3D

 28 31  0  0  0  0  0  0  0  0999 V2000
    5.8900    2.4160    0.5220 C   0  0  0  0  0  0  0  0  0  0  0  0
    5.9210    0.9670    0.8870 C   0  0  2  0  0  0  0  0  0  0  0  0
    7.2660    0.3990    0.4570 C   0  0  0  0  0  0  0  0  0  0  0  0
    4.8720    0.1760    0.0910 C   0  0  0  0  0  0  0  0  0  0  0  0
    3.5230    0.6750    0.3440 C   0  0  0  0  0  0  0  0  0  0  0  0
    3.2910    1.9180    0.1390 O   0  0  0  0  0  0  0  0  0  0  0  0
    2.4480   -0.1070    0.8010 N   0  0  0  0  0  0  0  0  0  0  0  0
    2.4810   -1.5150    1.1200 C   0  0  0  0  0  0  0  0  0  0  0  0
    1.5650   -2.2900    0.2510 C   0  0  0  0  0  0  0  0  0  0  0  0
    0.3420   -1.5780   -0.0630 N   0  0  0  0  0  0  0  0  0  0  0  0
    0.1030   -0.2970    0.2540 C   0  0  0  0  0  0  0  0  0  0  0  0
   -1.1110    0.0860   -0.1750 N   0  0  0  0  0  0  0  0  0  0  0  0
   -1.6980   -0.9670   -0.7950 C   0  0  0  0  0  0  0  0  0  0  0  0
   -0.7750   -1.9880   -0.7100 C   0  0  0  0  0  0  0  0  0  0  0  0
   -1.1430   -3.1940   -1.2750 C   0  0  0  0  0  0  0  0  0  0  0  0
   -0.3010   -4.1340   -1.2010 O   0  0  0  0  0  0  0  0  0  0  0  0
   -2.3460   -3.3470   -1.8740 N   0  0  0  0  0  0  0  0  0  0  0  0
   -3.2290   -2.3420   -1.9460 C   0  0  0  0  0  0  0  0  0  0  0  0
   -4.3610   -2.4990   -2.5130 O   0  0  0  0  0  0  0  0  0  0  0  0
   -2.8900   -1.1550   -1.4010 N   0  0  0  0  0  0  0  0  0  0  0  0
   -3.7940   -0.0690   -1.4920 C   0  0  0  0  0  0  0  0  0  0  0  0
   -4.8020    0.1240   -0.4450 C   0  0  1  0  0  0  0  0  0  0  0  0
   -4.3530    0.3490    0.9500 C   0  0  0  0  0  0  0  0  0  0  0  0
   -5.5510    1.1420    1.5000 C   0  0  0  0  0  0  0  0  0  0  0  0
   -6.2580    1.6090    0.4160 O   0  0  0  0  0  0  0  0  0  0  0  0
   -5.4870    1.4770   -0.7250 C   0  0  1  0  0  0  0  0  0  0  0  0
   -4.5050    2.6040   -0.7840 C   0  0  0  0  0  0  0  0  0  0  0  0
    1.1200    0.5210    1.0000 C   0  0  0  0  0  0  0  0  0  0  0  0
  2  1  1  6
  2  3  1  0
  2  4  1  0
  4  5  1  0
  5  6  2  0
  5  7  1  0
  7  8  1  0
  7 28  1  0
  8  9  1  0
  9 10  1  0
 10 11  1  0
 10 14  1  0
 11 12  2  0
 11 28  1  0
 12 13  1  0
 13 14  2  0
 13 20  1  0
 14 15  1  0
 15 16  2  0
 15 17  1  0
 17 18  1  0
 18 19  2  0
 18 20  1  0
 20 21  1  0
 22 21  1  6
 22 23  1  0
 22 26  1  0
 23 24  1  0
 24 25  1  0
 25 26  1  0
 26 27  1  1
M  END
