
     RDKit          3D

 15 15  0  0  0  0  0  0  0  0999 V2000
    5.0280    0.6860    0.8030 C   0  0  0  0  0  0  0  0  0  0  0  0
    3.5400    0.7270    0.6810 C   0  0  0  0  0  0  0  0  0  0  0  0
    2.9780   -0.5400    0.0680 C   0  0  1  0  0  0  0  0  0  0  0  0
    3.3390   -1.7360    0.9260 C   0  0  0  0  0  0  0  0  0  0  0  0
    1.6120   -0.4820   -0.0140 O   0  0  0  0  0  0  0  0  0  0  0  0
    1.1180   -0.6220   -1.3020 C   0  0  0  0  0  0  0  0  0  0  0  0
   -0.3980   -0.5330   -1.2030 C   0  0  0  0  0  0  0  0  0  0  0  0
   -0.8300    0.7830   -0.6300 C   0  0  0  0  0  0  0  0  0  0  0  0
   -2.3190    0.8560   -0.5400 C   0  0  0  0  0  0  0  0  0  0  0  0
   -3.0500    1.7630   -1.1680 C   0  0  0  0  0  0  0  0  0  0  0  0
   -4.4740    1.5340   -0.8510 C   0  0  0  0  0  0  0  0  0  0  0  0
   -4.4690    0.3780    0.0450 C   0  0  0  0  0  0  0  0  0  0  0  0
   -5.5570   -0.2670    0.6540 O   0  0  0  0  0  0  0  0  0  0  0  0
   -3.2150   -0.0050    0.2160 C   0  0  0  0  0  0  0  0  0  0  0  0
   -2.7850   -1.1660    1.0790 C   0  0  0  0  0  0  0  0  0  0  0  0
  1  2  1  0
  2  3  1  0
  3  4  1  1
  3  5  1  0
  5  6  1  0
  6  7  1  0
  7  8  1  0
  8  9  1  0
  9 10  2  0
  9 14  1  0
 10 11  1  0
 11 12  1  0
 12 13  1  0
 12 14  2  0
 14 15  1  0
M  END
