
     RDKit          3D

 19 21  0  0  0  0  0  0  0  0999 V2000
    7.6380   -0.3320   -0.4250 N   0  0  0  0  0  0  0  0  0  0  0  0
    6.5830   -0.6390   -0.0630 C   0  0  0  0  0  0  0  0  0  0  0  0
    5.2590   -1.0100    0.4120 C   0  0  0  0  0  0  0  0  0  0  0  0
    4.1920   -0.2450   -0.3020 C   0  0  0  0  0  0  0  0  0  0  0  0
    2.8920   -0.6190    0.1750 N   0  0  0  0  0  0  0  0  0  0  0  0
    1.6920   -0.0470   -0.3320 C   0  0  0  0  0  0  0  0  0  0  0  0
    1.7750    0.9190   -1.3340 C   0  0  0  0  0  0  0  0  0  0  0  0
    0.6360    1.4950   -1.8500 C   0  0  0  0  0  0  0  0  0  0  0  0
   -0.5910    1.0940   -1.3510 C   0  0  0  0  0  0  0  0  0  0  0  0
   -1.8740    1.4520   -1.6310 N   0  0  0  0  0  0  0  0  0  0  0  0
   -2.7400    0.7670   -0.8640 C   0  0  0  0  0  0  0  0  0  0  0  0
   -4.1280    0.7600   -0.7600 C   0  0  0  0  0  0  0  0  0  0  0  0
   -4.7760   -0.0620    0.1330 C   0  0  0  0  0  0  0  0  0  0  0  0
   -6.1900   -0.0540    0.2230 N   0  0  0  0  0  0  0  0  0  0  0  0
   -4.0290   -0.8890    0.9350 C   0  0  0  0  0  0  0  0  0  0  0  0
   -2.6420   -0.9210    0.8710 C   0  0  0  0  0  0  0  0  0  0  0  0
   -2.0180   -0.0880   -0.0320 C   0  0  0  0  0  0  0  0  0  0  0  0
   -0.6980    0.1400   -0.3590 C   0  0  0  0  0  0  0  0  0  0  0  0
    0.4560   -0.4270    0.1450 C   0  0  0  0  0  0  0  0  0  0  0  0
  1  2  3  0
  2  3  1  0
  3  4  1  0
  4  5  1  0
  5  6  1  0
  6  7  2  0
  6 19  1  0
  7  8  1  0
  8  9  2  0
  9 10  1  0
  9 18  1  0
 10 11  1  0
 11 12  2  0
 11 17  1  0
 12 13  1  0
 13 14  1  0
 13 15  2  0
 15 16  1  0
 16 17  2  0
 17 18  1  0
 18 19  2  0
M  END
