
     RDKit          3D

 15 14  0  0  0  0  0  0  0  0999 V2000
   -2.4460    3.1370    1.3460 C   0  0  0  0  0  0  0  0  0  0  0  0
   -2.5160    3.0170   -0.1460 C   0  0  0  0  0  0  0  0  0  0  0  0
   -1.4750    2.2530   -0.6410 O   0  0  0  0  0  0  0  0  0  0  0  0
   -1.5770    0.9720   -0.0570 C   0  0  0  0  0  0  0  0  0  0  0  0
   -0.4230    0.1710   -0.6250 C   0  0  2  0  0  0  0  0  0  0  0  0
   -0.3990   -1.1670    0.0720 C   0  0  0  0  0  0  0  0  0  0  0  0
   -1.6530   -1.9660   -0.1100 C   0  0  2  0  0  0  0  0  0  0  0  0
   -1.4560   -3.2800    0.6540 C   0  0  0  0  0  0  0  0  0  0  0  0
   -1.8220   -2.2600   -1.5820 C   0  0  0  0  0  0  0  0  0  0  0  0
    0.7440    0.8590   -0.2430 O   0  0  0  0  0  0  0  0  0  0  0  0
    2.0310    0.4770   -0.5490 C   0  0  0  0  0  0  0  0  0  0  0  0
    2.5530    0.3310   -1.9160 C   0  0  0  0  0  0  0  0  0  0  0  0
    2.8360    0.2300    0.4600 C   0  0  0  0  0  0  0  0  0  0  0  0
    4.2300   -0.1850    0.1880 C   0  0  0  0  0  0  0  0  0  0  0  0
    2.4190    0.3440    1.8820 C   0  0  0  0  0  0  0  0  0  0  0  0
  1  2  1  0
  2  3  1  0
  3  4  1  0
  5  4  1  1
  5  6  1  0
  5 10  1  0
  6  7  1  0
  7  8  1  1
  7  9  1  0
 10 11  1  0
 11 12  1  0
 11 13  2  3
 13 14  1  0
 13 15  1  0
M  END
