
     RDKit          3D

  7  7  0  0  0  0  0  0  0  0999 V2000
   -1.7200    1.6950    0.3300 O   0  0  0  0  0  0  0  0  0  0  0  0
   -0.7980    0.8820    0.0420 C   0  0  0  0  0  0  0  0  0  0  0  0
   -0.8930   -0.5060   -0.4660 C   0  0  0  0  0  0  0  0  0  0  0  0
    0.2120   -1.1470    0.2640 N   0  0  0  0  0  0  0  0  0  0  0  0
    1.2260   -0.1470    0.2870 C   0  0  0  0  0  0  0  0  0  0  0  0
    2.4740   -0.3760    0.4120 O   0  0  0  0  0  0  0  0  0  0  0  0
    0.6040    1.1360    0.1480 N   0  0  0  0  0  0  0  0  0  0  0  0
  1  2  2  0
  2  3  1  0
  2  7  1  0
  3  4  1  0
  4  5  1  0
  5  6  2  0
  5  7  1  0
M  END
