
     RDKit          3D

 19 21  0  0  0  0  0  0  0  0999 V2000
    6.4160    0.8670   -0.2290 N   0  0  0  0  0  0  0  0  0  0  0  0
    5.8260   -0.3860    0.1340 C   0  0  0  0  0  0  0  0  0  0  0  0
    6.3830   -1.4830    0.4530 N   0  0  0  0  0  0  0  0  0  0  0  0
    5.4370   -2.4590    0.7350 N   0  0  0  0  0  0  0  0  0  0  0  0
    4.2390   -2.0110    0.6030 C   0  0  0  0  0  0  0  0  0  0  0  0
    4.3890   -0.6090    0.1960 C   0  0  0  0  0  0  0  0  0  0  0  0
    3.4110    0.2440   -0.0540 C   0  0  0  0  0  0  0  0  0  0  0  0
    2.0190   -0.1820    0.0680 C   0  0  0  0  0  0  0  0  0  0  0  0
    1.0480    0.6610   -0.1790 C   0  0  0  0  0  0  0  0  0  0  0  0
   -0.3810    0.3160   -0.0810 C   0  0  0  0  0  0  0  0  0  0  0  0
   -0.8400   -0.9260    0.2790 C   0  0  0  0  0  0  0  0  0  0  0  0
   -2.2160   -1.1840    0.3510 C   0  0  0  0  0  0  0  0  0  0  0  0
   -2.6470   -2.4770    0.7260 N   0  0  0  0  0  0  0  0  0  0  0  0
   -3.1550   -0.2070    0.0660 C   0  0  0  0  0  0  0  0  0  0  0  0
   -2.7040    1.0300   -0.2920 C   0  0  0  0  0  0  0  0  0  0  0  0
   -1.3320    1.2770   -0.3620 C   0  0  0  0  0  0  0  0  0  0  0  0
   -3.8780    1.8930   -0.5440 C   0  0  0  0  0  0  0  0  0  0  0  0
   -5.0180    0.9380   -0.6910 C   0  0  0  0  0  0  0  0  0  0  0  0
   -4.6370   -0.3010    0.0900 C   0  0  0  0  0  0  0  0  0  0  0  0
  1  2  1  0
  2  3  2  0
  2  6  1  0
  3  4  1  0
  4  5  2  0
  5  6  1  0
  6  7  2  3
  7  8  1  0
  8  9  2  3
  9 10  1  0
 10 11  2  0
 10 16  1  0
 11 12  1  0
 12 13  1  0
 12 14  2  0
 14 15  1  0
 14 19  1  0
 15 16  2  0
 15 17  1  0
 17 18  1  0
 18 19  1  0
M  END
