
     RDKit          3D

 19 21  0  0  0  0  0  0  0  0999 V2000
   -3.7680   -2.6210    0.1650 C   0  0  0  0  0  0  0  0  0  0  0  0
   -2.6990   -1.8690    0.0670 C   0  0  0  0  0  0  0  0  0  0  0  0
   -1.4120   -2.2850    0.0290 N   0  0  0  0  0  0  0  0  0  0  0  0
   -0.6220   -1.2170   -0.0740 C   0  0  0  0  0  0  0  0  0  0  0  0
    0.7540   -1.1590   -0.1460 C   0  0  0  0  0  0  0  0  0  0  0  0
    1.3610    0.0670   -0.2490 C   0  0  0  0  0  0  0  0  0  0  0  0
    2.8280    0.2460   -0.3330 C   0  0  0  0  0  0  0  0  0  0  0  0
    3.6650   -0.8400   -0.3090 C   0  0  0  0  0  0  0  0  0  0  0  0
    5.0430   -0.6380   -0.3900 C   0  0  0  0  0  0  0  0  0  0  0  0
    5.4920    0.6560   -0.4890 C   0  0  0  0  0  0  0  0  0  0  0  0
    4.6360    1.6910   -0.5090 N   0  0  0  0  0  0  0  0  0  0  0  0
    3.3430    1.4950   -0.4330 N   0  0  0  0  0  0  0  0  0  0  0  0
    0.6090    1.2420   -0.2830 C   0  0  0  0  0  0  0  0  0  0  0  0
    1.2100    2.5160   -0.3890 N   0  0  0  0  0  0  0  0  0  0  0  0
   -0.7680    1.1060   -0.2060 C   0  0  0  0  0  0  0  0  0  0  0  0
   -1.4310   -0.0900   -0.1020 C   0  0  0  0  0  0  0  0  0  0  0  0
   -2.7470   -0.4700   -0.0140 C   0  0  0  0  0  0  0  0  0  0  0  0
   -3.8410    0.2510   -0.0030 C   0  0  0  0  0  0  0  0  0  0  0  0
   -3.8820    1.7110   -0.0880 C   0  0  0  0  0  0  0  0  0  0  0  0
  1  2  2  0
  2  3  1  0
  2 17  1  0
  3  4  1  0
  4  5  2  0
  4 16  1  0
  5  6  1  0
  6  7  1  0
  6 13  2  0
  7  8  2  0
  7 12  1  0
  8  9  1  0
  9 10  2  0
 10 11  1  0
 11 12  2  0
 13 14  1  0
 13 15  1  0
 15 16  2  0
 16 17  1  0
 17 18  2  3
 18 19  1  0
M  END
