
     RDKit          3D

 19 21  0  0  0  0  0  0  0  0999 V2000
    4.4220    1.3690   -1.5050 N   0  0  0  0  0  0  0  0  0  0  0  0
    3.3620    0.6960   -0.7890 C   0  0  0  0  0  0  0  0  0  0  0  0
    2.9800   -0.5710   -1.1640 C   0  0  0  0  0  0  0  0  0  0  0  0
    1.9530   -1.2150   -0.4670 C   0  0  0  0  0  0  0  0  0  0  0  0
    1.3150   -0.6030    0.5910 C   0  0  0  0  0  0  0  0  0  0  0  0
    0.2470   -1.3590    1.2690 C   0  0  0  0  0  0  0  0  0  0  0  0
    0.4090   -2.4950    1.9890 N   0  0  0  0  0  0  0  0  0  0  0  0
   -0.7500   -2.9000    2.4440 N   0  0  0  0  0  0  0  0  0  0  0  0
   -1.6980   -2.0730    2.0560 C   0  0  0  0  0  0  0  0  0  0  0  0
   -1.1010   -1.0780    1.3050 C   0  0  0  0  0  0  0  0  0  0  0  0
   -1.7710    0.0400    0.6880 C   0  0  0  0  0  0  0  0  0  0  0  0
   -1.6910    1.2910    1.2290 C   0  0  0  0  0  0  0  0  0  0  0  0
   -2.3270    2.3520    0.6270 C   0  0  0  0  0  0  0  0  0  0  0  0
   -3.0460    2.1440   -0.5250 C   0  0  0  0  0  0  0  0  0  0  0  0
   -3.1530    0.8970   -1.1040 C   0  0  0  0  0  0  0  0  0  0  0  0
   -2.4960   -0.1450   -0.4640 C   0  0  0  0  0  0  0  0  0  0  0  0
   -2.6240   -1.4270   -1.0890 N   0  0  0  0  0  0  0  0  0  0  0  0
    1.7010    0.6610    0.9620 C   0  0  0  0  0  0  0  0  0  0  0  0
    2.7200    1.2940    0.2660 C   0  0  0  0  0  0  0  0  0  0  0  0
  1  2  1  0
  2  3  2  0
  2 19  1  0
  3  4  1  0
  4  5  2  0
  5  6  1  0
  5 18  1  0
  6  7  1  0
  6 10  2  0
  7  8  1  0
  8  9  2  0
  9 10  1  0
 10 11  1  0
 11 12  2  0
 11 16  1  0
 12 13  1  0
 13 14  2  0
 14 15  1  0
 15 16  2  0
 16 17  1  0
 18 19  2  0
M  END
