
     RDKit          3D

 19 21  0  0  0  0  0  0  0  0999 V2000
   -2.3160   -3.1130    0.1450 C   0  0  0  0  0  0  0  0  0  0  0  0
   -2.0730   -1.6760    0.2960 C   0  0  0  0  0  0  0  0  0  0  0  0
   -3.1080   -0.7940    0.5210 C   0  0  0  0  0  0  0  0  0  0  0  0
   -2.9030    0.5530    0.6650 C   0  0  0  0  0  0  0  0  0  0  0  0
   -4.0450    1.4740    0.9070 C   0  0  0  0  0  0  0  0  0  0  0  0
   -4.6090    1.9740   -0.3290 N   0  0  0  0  0  0  0  0  0  0  0  0
   -1.6190    1.0400    0.5800 C   0  0  0  0  0  0  0  0  0  0  0  0
   -0.5620    0.1940    0.3570 C   0  0  0  0  0  0  0  0  0  0  0  0
   -0.7910   -1.1490    0.2160 C   0  0  0  0  0  0  0  0  0  0  0  0
    0.3110   -1.9890   -0.0120 N   0  0  0  0  0  0  0  0  0  0  0  0
    1.5940   -1.4460   -0.0890 N   0  0  0  0  0  0  0  0  0  0  0  0
    1.8570   -0.0600    0.0530 C   0  0  0  0  0  0  0  0  0  0  0  0
    3.2130    0.5010   -0.0310 C   0  0  0  0  0  0  0  0  0  0  0  0
    4.3020   -0.3140   -0.2540 C   0  0  0  0  0  0  0  0  0  0  0  0
    5.5830    0.2240   -0.3320 C   0  0  0  0  0  0  0  0  0  0  0  0
    5.7690    1.5400   -0.1900 N   0  0  0  0  0  0  0  0  0  0  0  0
    4.7620    2.3900    0.0280 C   0  0  0  0  0  0  0  0  0  0  0  0
    3.4770    1.8430    0.1060 C   0  0  0  0  0  0  0  0  0  0  0  0
    0.8050    0.7120    0.2670 C   0  0  0  0  0  0  0  0  0  0  0  0
  1  2  1  0
  2  3  2  0
  2  9  1  0
  3  4  1  0
  4  5  1  0
  4  7  2  0
  5  6  1  0
  7  8  1  0
  8  9  2  0
  8 19  1  0
  9 10  1  0
 10 11  1  0
 11 12  1  0
 12 13  1  0
 12 19  2  0
 13 14  2  0
 13 18  1  0
 14 15  1  0
 15 16  2  0
 16 17  1  0
 17 18  2  0
M  END
