
     RDKit          3D

 19 21  0  0  0  0  0  0  0  0999 V2000
   -1.4520   -0.7600    1.6750 C   0  0  0  0  0  0  0  0  0  0  0  0
   -2.2280   -0.3880    0.4660 C   0  0  0  0  0  0  0  0  0  0  0  0
   -3.6120   -0.5890    0.5680 C   0  0  0  0  0  0  0  0  0  0  0  0
   -4.2180   -1.1100    1.7430 N   0  0  0  0  0  0  0  0  0  0  0  0
   -4.3800   -0.2610   -0.5240 C   0  0  0  0  0  0  0  0  0  0  0  0
   -3.8450    0.2450   -1.6820 C   0  0  0  0  0  0  0  0  0  0  0  0
   -2.4640    0.4340   -1.7540 C   0  0  0  0  0  0  0  0  0  0  0  0
   -1.6830    0.1150   -0.6830 C   0  0  0  0  0  0  0  0  0  0  0  0
   -0.2440    0.3150   -0.7650 C   0  0  0  0  0  0  0  0  0  0  0  0
    0.3840    0.8170   -1.8790 C   0  0  0  0  0  0  0  0  0  0  0  0
    1.7550    0.9690   -1.8580 C   0  0  0  0  0  0  0  0  0  0  0  0
    2.5330    0.6440   -0.7760 C   0  0  0  0  0  0  0  0  0  0  0  0
    3.9010    0.7940   -0.7490 C   0  0  0  0  0  0  0  0  0  0  0  0
    4.6250    0.4470    0.3730 C   0  0  0  0  0  0  0  0  0  0  0  0
    3.9390   -0.0550    1.4730 C   0  0  0  0  0  0  0  0  0  0  0  0
    4.6500   -0.4240    2.6500 N   0  0  0  0  0  0  0  0  0  0  0  0
    2.6040   -0.1850    1.4030 N   0  0  0  0  0  0  0  0  0  0  0  0
    1.8600    0.1420    0.3270 C   0  0  0  0  0  0  0  0  0  0  0  0
    0.5340    0.0020    0.2870 N   0  0  0  0  0  0  0  0  0  0  0  0
  1  2  1  0
  2  3  2  0
  2  8  1  0
  3  4  1  0
  3  5  1  0
  5  6  2  0
  6  7  1  0
  7  8  2  0
  8  9  1  0
  9 10  2  0
  9 19  1  0
 10 11  1  0
 11 12  2  0
 12 13  1  0
 12 18  1  0
 13 14  2  0
 14 15  1  0
 15 16  1  0
 15 17  2  0
 17 18  1  0
 18 19  2  0
M  END
