
     RDKit          3D

 11 12  0  0  0  0  0  0  0  0999 V2000
    3.1930   -0.8860   -0.1370 C   0  0  0  0  0  0  0  0  0  0  0  0
    1.8510   -0.2470   -0.1240 C   0  0  0  0  0  0  0  0  0  0  0  0
    0.6970   -0.9060    0.0880 N   0  0  0  0  0  0  0  0  0  0  0  0
   -0.3330   -0.0510    0.0370 C   0  0  0  0  0  0  0  0  0  0  0  0
   -1.6880   -0.2700    0.1940 C   0  0  0  0  0  0  0  0  0  0  0  0
   -2.2350   -1.5610    0.4570 N   0  0  0  0  0  0  0  0  0  0  0  0
   -2.5130    0.8300    0.0840 C   0  0  0  0  0  0  0  0  0  0  0  0
   -1.9830    2.0410   -0.1650 N   0  0  0  0  0  0  0  0  0  0  0  0
   -0.6400    2.2010   -0.3110 C   0  0  0  0  0  0  0  0  0  0  0  0
    0.1950    1.1520   -0.2100 N   0  0  0  0  0  0  0  0  0  0  0  0
    1.5260    1.0430   -0.3100 N   0  0  0  0  0  0  0  0  0  0  0  0
  1  2  1  0
  2  3  1  0
  2 11  2  0
  3  4  2  0
  4  5  1  0
  4 10  1  0
  5  6  1  0
  5  7  2  0
  7  8  1  0
  8  9  2  0
  9 10  1  0
 10 11  1  0
M  END
