
     RDKit          3D

  7  7  0  0  0  0  0  0  0  0999 V2000
   -1.3220   -1.6050   -0.7590 O   0  0  0  0  0  0  0  0  0  0  0  0
   -0.5930   -0.7120   -0.2000 C   0  0  0  0  0  0  0  0  0  0  0  0
   -1.1690    0.6190    0.1460 C   0  0  0  0  0  0  0  0  0  0  0  0
    0.2880    1.6760   -0.2480 S   0  0  0  0  0  0  0  0  0  0  0  0
    1.5090    0.3700   -0.1480 C   0  0  0  0  0  0  0  0  0  0  0  0
    2.7360    0.5230   -0.3260 O   0  0  0  0  0  0  0  0  0  0  0  0
    0.7630   -0.7950    0.1660 N   0  0  0  0  0  0  0  0  0  0  0  0
  1  2  2  0
  2  3  1  0
  2  7  1  0
  3  4  1  0
  4  5  1  0
  5  6  2  0
  5  7  1  0
M  END
