
     RDKit          3D

 11 12  0  0  0  0  0  0  0  0999 V2000
    3.9580   -0.2790   -0.1550 C   0  0  0  0  0  0  0  0  0  0  0  0
    2.4640   -0.1730   -0.1250 C   0  0  0  0  0  0  0  0  0  0  0  0
    1.6330   -0.0240   -1.1720 N   0  0  0  0  0  0  0  0  0  0  0  0
    0.3570    0.0350   -0.7620 C   0  0  0  0  0  0  0  0  0  0  0  0
    0.3980   -0.0810    0.5760 N   0  0  0  0  0  0  0  0  0  0  0  0
    1.6640   -0.2060    0.9580 N   0  0  0  0  0  0  0  0  0  0  0  0
   -0.7850   -0.0640    1.3950 C   0  0  0  0  0  0  0  0  0  0  0  0
   -2.0630    0.0900    0.7060 C   0  0  0  0  0  0  0  0  0  0  0  0
   -2.0190    0.2090   -0.7540 C   0  0  0  0  0  0  0  0  0  0  0  0
   -3.2690    0.3620   -1.4870 N   0  0  0  0  0  0  0  0  0  0  0  0
   -0.9110    0.1800   -1.3850 N   0  0  0  0  0  0  0  0  0  0  0  0
  1  2  1  0
  2  3  1  0
  2  6  2  0
  3  4  2  0
  4  5  1  0
  4 11  1  0
  5  6  1  0
  5  7  1  0
  7  8  1  0
  8  9  1  0
  9 10  1  0
  9 11  2  0
M  END
