
     RDKit          3D

 11 12  0  0  0  0  0  0  0  0999 V2000
    3.5650    0.2460   -0.1340 C   0  0  0  0  0  0  0  0  0  0  0  0
    2.0810    0.0980   -0.0860 C   0  0  0  0  0  0  0  0  0  0  0  0
    1.1690    0.7520    0.6940 C   0  0  0  0  0  0  0  0  0  0  0  0
   -0.0370    0.2450    0.3430 N   0  0  0  0  0  0  0  0  0  0  0  0
   -1.2350    0.5860    0.8450 N   0  0  0  0  0  0  0  0  0  0  0  0
   -2.3200   -0.0390    0.3600 C   0  0  0  0  0  0  0  0  0  0  0  0
   -3.6120    0.2730    0.8450 N   0  0  0  0  0  0  0  0  0  0  0  0
   -2.1660   -1.0080   -0.6360 C   0  0  0  0  0  0  0  0  0  0  0  0
   -0.9720   -1.3460   -1.1350 N   0  0  0  0  0  0  0  0  0  0  0  0
    0.1050   -0.6870   -0.6140 C   0  0  0  0  0  0  0  0  0  0  0  0
    1.4220   -0.7630   -0.8660 N   0  0  0  0  0  0  0  0  0  0  0  0
  1  2  1  0
  2  3  2  0
  2 11  1  0
  3  4  1  0
  4  5  1  0
  4 10  1  0
  5  6  2  0
  6  7  1  0
  6  8  1  0
  8  9  2  0
  9 10  1  0
 10 11  2  0
M  END
