
     RDKit          3D

 11 12  0  0  0  0  0  0  0  0999 V2000
   -3.1170    0.2210   -0.0440 C   0  0  0  0  0  0  0  0  0  0  0  0
   -1.6510    0.5270    0.0080 C   0  0  0  0  0  0  0  0  0  0  0  0
   -1.0570    1.7290    0.1230 N   0  0  0  0  0  0  0  0  0  0  0  0
    0.2660    1.5880    0.1340 N   0  0  0  0  0  0  0  0  0  0  0  0
    1.4240    2.2770    0.2140 C   0  0  0  0  0  0  0  0  0  0  0  0
    2.4450    1.4020    0.1550 N   0  0  0  0  0  0  0  0  0  0  0  0
    1.9320    0.1880    0.0400 N   0  0  0  0  0  0  0  0  0  0  0  0
    2.6830   -1.0460   -0.0550 C   0  0  0  0  0  0  0  0  0  0  0  0
    0.5900    0.2930    0.0260 C   0  0  0  0  0  0  0  0  0  0  0  0
   -0.6120   -0.3810   -0.0530 C   0  0  0  0  0  0  0  0  0  0  0  0
   -0.7860   -1.7860   -0.1790 N   0  0  0  0  0  0  0  0  0  0  0  0
  1  2  1  0
  2  3  2  0
  2 10  1  0
  3  4  1  0
  4  5  1  0
  4  9  1  0
  5  6  2  0
  6  7  1  0
  7  8  1  0
  7  9  1  0
  9 10  2  0
 10 11  1  0
M  END
