
     RDKit          3D

 11 12  0  0  0  0  0  0  0  0999 V2000
   -2.7830    1.0610    0.5110 N   0  0  0  0  0  0  0  0  0  0  0  0
   -1.6740    0.5990    0.0390 C   0  0  0  0  0  0  0  0  0  0  0  0
   -1.6410   -0.8520   -0.2980 C   0  0  0  0  0  0  0  0  0  0  0  0
   -0.2860   -1.4000   -0.5290 C   0  0  0  0  0  0  0  0  0  0  0  0
    0.6960   -1.1700    0.5870 C   0  0  0  0  0  0  0  0  0  0  0  0
    1.4170    0.0590    0.2360 N   0  0  0  0  0  0  0  0  0  0  0  0
    2.7220    0.2390    0.1540 C   0  0  0  0  0  0  0  0  0  0  0  0
    2.9110    1.5230   -0.2000 N   0  0  0  0  0  0  0  0  0  0  0  0
    1.7390    2.1140   -0.3300 N   0  0  0  0  0  0  0  0  0  0  0  0
    0.7830    1.2120   -0.0610 C   0  0  0  0  0  0  0  0  0  0  0  0
   -0.6040    1.5240   -0.1090 N   0  0  0  0  0  0  0  0  0  0  0  0
  1  2  2  0
  2  3  1  0
  2 11  1  0
  3  4  1  0
  4  5  1  0
  5  6  1  0
  6  7  1  0
  6 10  1  0
  7  8  2  0
  8  9  1  0
  9 10  2  0
 10 11  1  0
M  END
