
     RDKit          3D

 11 12  0  0  0  0  0  0  0  0999 V2000
    3.2230   -0.4320   -0.1690 N   0  0  0  0  0  0  0  0  0  0  0  0
    2.1830    0.5170   -0.1030 C   0  0  0  0  0  0  0  0  0  0  0  0
    2.2060    1.8360   -0.0390 N   0  0  0  0  0  0  0  0  0  0  0  0
    0.9780    2.3190    0.0070 N   0  0  0  0  0  0  0  0  0  0  0  0
    0.1210    1.2810   -0.0280 C   0  0  0  0  0  0  0  0  0  0  0  0
    0.8610    0.1650   -0.0970 N   0  0  0  0  0  0  0  0  0  0  0  0
    0.4180   -1.1930   -0.1560 C   0  0  0  0  0  0  0  0  0  0  0  0
   -0.8070   -1.6500    0.0300 C   0  0  0  0  0  0  0  0  0  0  0  0
   -2.0090   -0.8700    0.3420 C   0  0  0  0  0  0  0  0  0  0  0  0
   -2.1390    0.3670   -0.2750 N   0  0  0  0  0  0  0  0  0  0  0  0
   -1.3190    1.4420    0.0060 C   0  0  0  0  0  0  0  0  0  0  0  0
  1  2  1  0
  2  3  2  0
  2  6  1  0
  3  4  1  0
  4  5  2  0
  5  6  1  0
  5 11  1  0
  6  7  1  0
  7  8  2  0
  8  9  1  0
  9 10  1  0
 10 11  1  0
M  END
