
     RDKit          3D

  7  7  0  0  0  0  0  0  0  0999 V2000
   -1.9380   -1.5530    0.5410 O   0  0  0  0  0  0  0  0  0  0  0  0
   -0.8950   -0.8810    0.3350 C   0  0  0  0  0  0  0  0  0  0  0  0
    0.4040   -1.3910    0.0620 N   0  0  0  0  0  0  0  0  0  0  0  0
    1.2480   -0.4360   -0.1000 C   0  0  0  0  0  0  0  0  0  0  0  0
    0.5890    0.8250    0.0510 N   0  0  0  0  0  0  0  0  0  0  0  0
   -0.7770    0.5650    0.3280 C   0  0  0  0  0  0  0  0  0  0  0  0
   -1.9600    1.6380    0.5830 S   0  0  0  0  0  0  0  0  0  0  0  0
  1  2  2  0
  2  3  1  0
  2  6  1  0
  3  4  2  0
  4  5  1  0
  5  6  1  0
  6  7  2  0
M  END
