
     RDKit          3D

  7  7  0  0  0  0  0  0  0  0999 V2000
   -1.6610   -0.2490   -0.0150 C   0  0  0  0  0  0  0  0  0  0  0  0
   -0.2520    0.0740    0.0070 N   0  0  0  0  0  0  0  0  0  0  0  0
    0.3150    1.2910    0.1490 C   0  0  0  0  0  0  0  0  0  0  0  0
    1.6550    1.1750    0.1180 N   0  0  0  0  0  0  0  0  0  0  0  0
    1.9560   -0.1130   -0.0440 N   0  0  0  0  0  0  0  0  0  0  0  0
    0.7910   -0.7750   -0.1100 C   0  0  0  0  0  0  0  0  0  0  0  0
    0.6780   -2.0150   -0.2600 O   0  0  0  0  0  0  0  0  0  0  0  0
  1  2  1  0
  2  3  1  0
  2  6  1  0
  3  4  2  0
  4  5  1  0
  5  6  1  0
  6  7  2  0
M  END
