
     RDKit          3D

  7  7  0  0  0  0  0  0  0  0999 V2000
    2.5770   -0.0740    0.0690 N   0  0  0  0  0  0  0  0  0  0  0  0
    1.1890    0.1940   -0.1270 C   0  0  0  0  0  0  0  0  0  0  0  0
    0.3560   -0.7640   -0.2980 N   0  0  0  0  0  0  0  0  0  0  0  0
   -1.0450   -0.6800   -0.5050 C   0  0  0  0  0  0  0  0  0  0  0  0
   -1.7560    0.2440    0.4470 C   0  0  0  0  0  0  0  0  0  0  0  0
   -0.8240    1.7940    0.5870 S   0  0  0  0  0  0  0  0  0  0  0  0
    0.7280    1.4940   -0.1360 O   0  0  0  0  0  0  0  0  0  0  0  0
  1  2  1  0
  2  3  2  0
  2  7  1  0
  3  4  1  0
  4  5  1  0
  5  6  1  0
  6  7  1  0
M  END
