
     RDKit          3D

  7  7  0  0  0  0  0  0  0  0999 V2000
    2.5240   -1.0830   -0.6500 N   0  0  0  0  0  0  0  0  0  0  0  0
    1.5820   -0.5460   -0.2430 C   0  0  0  0  0  0  0  0  0  0  0  0
    0.3840    0.1250    0.2970 C   0  0  2  0  0  0  0  0  0  0  0  0
   -0.7850   -0.7820    0.0680 C   0  0  0  0  0  0  0  0  0  0  0  0
   -1.9430   -0.0760    0.3050 O   0  0  0  0  0  0  0  0  0  0  0  0
   -1.5950    1.4220   -0.5070 S   0  0  0  0  0  0  0  0  0  0  0  0
    0.1850    1.3110   -0.5080 N   0  0  0  0  0  0  0  0  0  0  0  0
  1  2  3  0
  3  2  1  6
  3  4  1  0
  3  7  1  0
  4  5  1  0
  5  6  1  0
  6  7  1  0
M  END
