
     RDKit          3D

  7  7  0  0  0  0  0  0  0  0999 V2000
    3.4950   -0.2950    0.2830 O   0  0  0  0  0  0  0  0  0  0  0  0
    2.4370    0.9930   -0.1180 S   0  0  0  0  0  0  0  0  0  0  0  0
    0.7460    0.3780    0.0020 C   0  0  0  0  0  0  0  0  0  0  0  0
    0.3700   -0.8190    0.3300 N   0  0  0  0  0  0  0  0  0  0  0  0
   -1.0640   -0.9380    0.3170 C   0  0  0  0  0  0  0  0  0  0  0  0
   -1.4720    0.2510   -0.5570 C   0  0  0  0  0  0  0  0  0  0  0  0
   -0.4010    1.1830   -0.2650 N   0  0  0  0  0  0  0  0  0  0  0  0
  1  2  1  0
  2  3  1  0
  3  4  2  0
  3  7  1  0
  4  5  1  0
  5  6  1  0
  6  7  1  0
M  END
