
     RDKit          3D

  7  7  0  0  0  0  0  0  0  0999 V2000
   -2.1030    0.3630    1.5690 O   0  0  0  0  0  0  0  0  0  0  0  0
   -1.1870    0.2040    0.7230 C   0  0  0  0  0  0  0  0  0  0  0  0
   -1.3090    0.3860   -0.5830 N   0  0  0  0  0  0  0  0  0  0  0  0
   -0.1580    0.1410   -1.2390 C   0  0  0  0  0  0  0  0  0  0  0  0
    0.7390   -0.2220   -0.2270 C   0  0  0  0  0  0  0  0  0  0  0  0
    2.4560   -0.6710   -0.4660 S   0  0  0  0  0  0  0  0  0  0  0  0
    0.0740   -0.1720    0.9580 N   0  0  0  0  0  0  0  0  0  0  0  0
  1  2  2  0
  2  3  1  0
  2  7  1  0
  3  4  1  0
  4  5  2  0
  5  6  1  0
  5  7  1  0
M  END
