
     RDKit          3D

 29 31  0  0  0  0  0  0  0  0999 V2000
    4.2980   -0.9190    1.0680 C   0  0  0  0  0  0  0  0  0  0  0  0
    3.4730    0.1230    0.4150 C   0  0  0  0  0  0  0  0  0  0  0  0
    3.9650    0.8740   -0.5120 C   0  0  0  0  0  0  0  0  0  0  0  0
    5.2260    0.9950   -1.1590 C   0  0  0  0  0  0  0  0  0  0  0  0
    5.3500    1.8960   -2.1030 O   0  0  0  0  0  0  0  0  0  0  0  0
    6.4160    0.2780   -0.9460 N   0  0  0  0  0  0  0  0  0  0  0  0
    7.6390    0.5350   -1.7280 C   0  0  2  0  0  0  0  0  0  0  0  0
    7.9400   -0.6600   -2.6190 C   0  0  0  0  0  0  0  0  0  0  0  0
    8.8330    0.7780   -0.8590 C   0  0  0  0  0  0  0  0  0  0  0  0
    2.0540    0.2040    0.8190 C   0  0  0  0  0  0  0  0  0  0  0  0
    1.5830   -0.4370    1.9220 C   0  0  0  0  0  0  0  0  0  0  0  0
    0.2330   -0.4390    2.2460 C   0  0  0  0  0  0  0  0  0  0  0  0
   -0.6950    0.2090    1.4680 C   0  0  0  0  0  0  0  0  0  0  0  0
   -2.0960    0.1550    1.7730 C   0  0  0  0  0  0  0  0  0  0  0  0
   -3.2910    0.1060    2.0110 C   0  0  0  0  0  0  0  0  0  0  0  0
   -4.6960    0.0290    2.3070 C   0  0  0  0  0  0  0  0  0  0  0  0
   -5.3060    0.0730    3.5630 C   0  0  0  0  0  0  0  0  0  0  0  0
   -6.6390   -0.0260    3.4200 N   0  0  0  0  0  0  0  0  0  0  0  0
   -6.9160   -0.1340    2.1050 C   0  0  0  0  0  0  0  0  0  0  0  0
   -8.1270   -0.2540    1.4710 C   0  0  0  0  0  0  0  0  0  0  0  0
   -8.0990   -0.3430    0.0910 C   0  0  0  0  0  0  0  0  0  0  0  0
   -6.9040   -0.3130   -0.6210 C   0  0  0  0  0  0  0  0  0  0  0  0
   -6.9640   -0.4140   -2.0710 C   0  0  0  0  0  0  0  0  0  0  0  0
   -5.9240   -0.3970   -2.8150 N   0  0  0  0  0  0  0  0  0  0  0  0
   -8.2270   -0.5410   -2.7530 N   0  0  0  0  0  0  0  0  0  0  0  0
   -5.7000   -0.1910    0.0320 C   0  0  0  0  0  0  0  0  0  0  0  0
   -5.7320   -0.1020    1.4130 C   0  0  0  0  0  0  0  0  0  0  0  0
   -0.2470    0.8640    0.3570 C   0  0  0  0  0  0  0  0  0  0  0  0
    1.1250    0.8570    0.0400 C   0  0  0  0  0  0  0  0  0  0  0  0
  1  2  1  0
  2  3  2  3
  2 10  1  0
  3  4  1  0
  4  5  2  0
  4  6  1  0
  6  7  1  0
  7  8  1  6
  7  9  1  0
 10 11  2  0
 10 29  1  0
 11 12  1  0
 12 13  2  0
 13 14  1  0
 13 28  1  0
 14 15  3  0
 15 16  1  0
 16 17  2  0
 16 27  1  0
 17 18  1  0
 18 19  1  0
 19 20  2  0
 19 27  1  0
 20 21  1  0
 21 22  2  0
 22 23  1  0
 22 26  1  0
 23 24  2  0
 23 25  1  0
 26 27  2  0
 28 29  2  0
M  END
