
     RDKit          3D

 30 31  0  0  0  0  0  0  0  0999 V2000
   -6.2640    2.7570   -0.9650 C   0  0  0  0  0  0  0  0  0  0  0  0
   -6.0480    1.5150   -1.3480 C   0  0  0  0  0  0  0  0  0  0  0  0
   -4.7200    0.9880   -1.4260 N   0  0  0  0  0  0  0  0  0  0  0  0
   -3.9000    1.0450   -0.4470 C   0  0  0  0  0  0  0  0  0  0  0  0
   -4.2820    1.6420    0.7660 N   0  0  0  0  0  0  0  0  0  0  0  0
   -2.5570    0.4800   -0.6300 C   0  0  0  0  0  0  0  0  0  0  0  0
   -2.2190   -0.0620   -1.7800 C   0  0  0  0  0  0  0  0  0  0  0  0
   -3.1700   -0.1030   -2.8380 N   0  0  0  0  0  0  0  0  0  0  0  0
   -0.8910   -0.5210   -1.9460 N   0  0  0  0  0  0  0  0  0  0  0  0
    0.0170   -0.3770   -0.8660 C   0  0  0  0  0  0  0  0  0  0  0  0
   -0.3010    0.1520    0.3000 C   0  0  0  0  0  0  0  0  0  0  0  0
    0.6120    0.3410    1.4410 C   0  0  0  0  0  0  0  0  0  0  0  0
    0.0380    0.2440    2.5650 O   0  0  0  0  0  0  0  0  0  0  0  0
    2.0320    0.6200    1.5500 C   0  0  0  0  0  0  0  0  0  0  0  0
    2.8700    0.0500    0.4750 C   0  0  2  0  0  0  0  0  0  0  0  0
    4.1850    0.7180    0.4380 N   0  0  0  0  0  0  0  0  0  0  0  0
    5.4140    0.0400    0.6030 C   0  0  0  0  0  0  0  0  0  0  0  0
    5.3890   -1.1990    0.7920 O   0  0  0  0  0  0  0  0  0  0  0  0
    6.6700    0.7310    0.5610 N   0  0  0  0  0  0  0  0  0  0  0  0
    7.8950    0.0830    0.7200 N   0  0  0  0  0  0  0  0  0  0  0  0
    9.0290    0.3990   -0.0790 C   0  0  0  0  0  0  0  0  0  0  0  0
    8.9160    1.2890   -0.9500 O   0  0  0  0  0  0  0  0  0  0  0  0
    2.3210    0.2400   -0.9220 C   0  0  0  0  0  0  0  0  0  0  0  0
    1.3860   -0.9090   -1.2470 C   0  0  0  0  0  0  0  0  0  0  0  0
   -1.6860    0.5210    0.5950 C   0  0  2  0  0  0  0  0  0  0  0  0
   -2.2810   -0.5830    1.5130 C   0  0  0  0  0  0  0  0  0  0  0  0
   -2.2010   -1.9070    0.8500 C   0  0  0  0  0  0  0  0  0  0  0  0
   -1.1610   -2.6420    0.8920 O   0  0  0  0  0  0  0  0  0  0  0  0
   -3.2690   -2.4150    0.1420 O   0  0  0  0  0  0  0  0  0  0  0  0
   -3.2630   -3.6640   -0.5120 C   0  0  0  0  0  0  0  0  0  0  0  0
  1  2  2  0
  2  3  1  0
  3  4  2  3
  4  5  1  0
  4  6  1  0
  6  7  2  0
  6 25  1  0
  7  8  1  0
  7  9  1  0
  9 10  1  0
 10 11  2  0
 10 24  1  0
 11 12  1  0
 11 25  1  0
 12 13  2  0
 12 14  1  0
 14 15  1  0
 15 16  1  6
 15 23  1  0
 16 17  1  0
 17 18  2  0
 17 19  1  0
 19 20  1  0
 20 21  1  0
 21 22  2  0
 23 24  1  0
 25 26  1  1
 26 27  1  0
 27 28  2  0
 27 29  1  0
 29 30  1  0
M  END
