
     RDKit          3D

 30 31  0  0  0  0  0  0  0  0999 V2000
    8.2120    0.0380    1.3720 C   0  0  0  0  0  0  0  0  0  0  0  0
    7.3040   -1.0220    0.8150 C   0  0  0  0  0  0  0  0  0  0  0  0
    7.2870   -2.1840    1.2790 O   0  0  0  0  0  0  0  0  0  0  0  0
    6.4310   -0.7270   -0.2670 N   0  0  0  0  0  0  0  0  0  0  0  0
    5.5420   -1.7420   -0.8230 C   0  0  2  0  0  0  0  0  0  0  0  0
    5.7470   -1.8940   -2.3200 C   0  0  1  0  0  0  0  0  0  0  0  0
    4.9420   -2.9770   -2.7100 O   0  0  0  0  0  0  0  0  0  0  0  0
    5.1030   -0.5880   -2.7940 C   0  0  0  0  0  0  0  0  0  0  0  0
    4.1190   -0.2450   -1.8080 N   0  0  0  0  0  0  0  0  0  0  0  0
    4.0980   -1.2800   -0.8240 C   0  0  2  0  0  0  0  0  0  0  0  0
    3.6550   -0.8440    0.4710 N   0  0  0  0  0  0  0  0  0  0  0  0
    2.3620   -0.3830    0.7610 C   0  0  0  0  0  0  0  0  0  0  0  0
    2.0490    0.0690    2.0240 C   0  0  0  0  0  0  0  0  0  0  0  0
    0.7690    0.5220    2.3090 C   0  0  0  0  0  0  0  0  0  0  0  0
   -0.2320    0.5420    1.3630 C   0  0  0  0  0  0  0  0  0  0  0  0
   -1.5470    1.0120    1.6550 N   0  0  0  0  0  0  0  0  0  0  0  0
   -2.5650    1.0210    0.6900 C   0  0  0  0  0  0  0  0  0  0  0  0
   -2.3040    0.5960   -0.4620 O   0  0  0  0  0  0  0  0  0  0  0  0
   -3.9450    1.5070    0.9470 C   0  0  1  0  0  0  0  0  0  0  0  0
   -3.9540    2.9690    1.3420 C   0  0  0  0  0  0  0  0  0  0  0  0
   -4.7800    1.3870   -0.2310 N   0  0  0  0  0  0  0  0  0  0  0  0
   -5.9770    0.6210   -0.1680 C   0  0  0  0  0  0  0  0  0  0  0  0
   -6.2540    0.0760    0.9330 O   0  0  0  0  0  0  0  0  0  0  0  0
   -6.8740    0.4680   -1.3620 C   0  0  0  0  0  0  0  0  0  0  0  0
   -8.0520   -0.4000   -0.9510 C   0  0  0  0  0  0  0  0  0  0  0  0
   -8.7520    0.2710    0.1450 N   0  0  0  0  0  0  0  0  0  0  0  0
   -9.8950   -0.3100    0.7320 C   0  0  0  0  0  0  0  0  0  0  0  0
  -10.3390   -1.4130    0.3280 O   0  0  0  0  0  0  0  0  0  0  0  0
    0.0910    0.0950    0.1340 N   0  0  0  0  0  0  0  0  0  0  0  0
    1.3370   -0.3540   -0.1730 C   0  0  0  0  0  0  0  0  0  0  0  0
  1  2  1  0
  2  3  2  0
  2  4  1  0
  5  4  1  6
  5  6  1  0
  5 10  1  0
  6  7  1  6
  6  8  1  0
  8  9  1  0
  9 10  1  0
 10 11  1  1
 11 12  1  0
 12 13  2  0
 12 30  1  0
 13 14  1  0
 14 15  2  0
 15 16  1  0
 15 29  1  0
 16 17  1  0
 17 18  2  0
 17 19  1  0
 19 20  1  6
 19 21  1  0
 21 22  1  0
 22 23  2  0
 22 24  1  0
 24 25  1  0
 25 26  1  0
 26 27  1  0
 27 28  2  0
 29 30  2  0
M  END
