
     RDKit          3D

 30 31  0  0  0  0  0  0  0  0999 V2000
   -7.2230    2.4450    0.2670 C   0  0  0  0  0  0  0  0  0  0  0  0
   -6.0250    1.7120   -0.2870 C   0  0  0  0  0  0  0  0  0  0  0  0
   -5.6730    0.5250    0.5620 C   0  0  1  0  0  0  0  0  0  0  0  0
   -6.7640   -0.5030    0.6740 C   0  0  0  0  0  0  0  0  0  0  0  0
   -7.9310    0.1270    1.0890 O   0  0  0  0  0  0  0  0  0  0  0  0
   -4.4450   -0.1120    0.1350 N   0  0  0  0  0  0  0  0  0  0  0  0
   -3.2810   -0.1770    0.9350 C   0  0  0  0  0  0  0  0  0  0  0  0
   -3.3050    0.3370    2.0640 O   0  0  0  0  0  0  0  0  0  0  0  0
   -2.0930   -0.8050    0.4930 N   0  0  0  0  0  0  0  0  0  0  0  0
   -0.9480   -0.8290    1.3680 C   0  0  1  0  0  0  0  0  0  0  0  0
   -0.5860   -2.2920    1.5770 C   0  0  0  0  0  0  0  0  0  0  0  0
    0.0760   -2.6400    0.2620 C   0  0  0  0  0  0  0  0  0  0  0  0
    0.6710   -1.3550   -0.2590 C   0  0  2  0  0  0  0  0  0  0  0  0
    0.2390   -1.0610   -1.6060 N   0  0  0  0  0  0  0  0  0  0  0  0
    0.7310    0.1330   -2.2050 C   0  0  0  0  0  0  0  0  0  0  0  0
    0.3060    0.4250   -3.5340 N   0  0  0  0  0  0  0  0  0  0  0  0
    1.5030    0.8980   -1.5990 O   0  0  0  0  0  0  0  0  0  0  0  0
    2.1470   -1.5770   -0.3360 C   0  0  0  0  0  0  0  0  0  0  0  0
    2.7940   -1.5070   -1.3930 O   0  0  0  0  0  0  0  0  0  0  0  0
    2.8300   -1.8840    0.8690 N   0  0  0  0  0  0  0  0  0  0  0  0
    4.2810   -2.1210    0.9100 C   0  0  0  0  0  0  0  0  0  0  0  0
    4.9140   -0.9040    0.4560 C   0  0  0  0  0  0  0  0  0  0  0  0
    4.2210    0.1120    0.0940 O   0  0  0  0  0  0  0  0  0  0  0  0
    6.2400   -0.6260    0.3440 N   0  0  0  0  0  0  0  0  0  0  0  0
    6.7560    0.6110   -0.1880 C   0  0  0  0  0  0  0  0  0  0  0  0
    7.9050    0.8670    0.2500 N   0  0  0  0  0  0  0  0  0  0  0  0
    8.4320    2.0680   -0.2700 C   0  0  0  0  0  0  0  0  0  0  0  0
    7.4160    2.4990   -1.2820 C   0  0  0  0  0  0  0  0  0  0  0  0
    6.4740    1.6130   -1.1580 C   0  0  0  0  0  0  0  0  0  0  0  0
    0.3070   -0.2910    0.7190 C   0  0  0  0  0  0  0  0  0  0  0  0
  1  2  1  0
  3  2  1  6
  3  4  1  0
  3  6  1  0
  4  5  1  0
  6  7  1  0
  7  8  2  0
  7  9  1  0
 10  9  1  6
 10 11  1  0
 10 30  1  0
 11 12  1  0
 12 13  1  0
 13 14  1  6
 13 18  1  0
 13 30  1  0
 14 15  1  0
 15 16  1  0
 15 17  2  0
 18 19  2  0
 18 20  1  0
 20 21  1  0
 21 22  1  0
 22 23  2  0
 22 24  1  0
 24 25  1  0
 25 26  2  0
 25 29  1  0
 26 27  1  0
 27 28  1  0
 28 29  2  0
M  END
