
     RDKit          3D

 10  9  0  0  0  0  0  0  0  0999 V2000
    2.0390    0.3460    1.2370 O   0  0  0  0  0  0  0  0  0  0  0  0
    2.5170    0.4640    0.0940 C   0  0  0  0  0  0  0  0  0  0  0  0
    3.7090    1.1910    0.0020 O   0  0  0  0  0  0  0  0  0  0  0  0
    1.8670   -0.1280   -1.0870 C   0  0  0  0  0  0  0  0  0  0  0  0
    0.5770   -0.7950   -0.7830 C   0  0  0  0  0  0  0  0  0  0  0  0
   -0.4990    0.1000   -0.2240 C   0  0  0  0  0  0  0  0  0  0  0  0
   -1.7080   -0.7750   -0.0010 C   0  0  0  0  0  0  0  0  0  0  0  0
   -2.8570   -0.0580    0.5450 C   0  0  0  0  0  0  0  0  0  0  0  0
   -3.9110   -0.7140    0.7620 O   0  0  0  0  0  0  0  0  0  0  0  0
   -2.8920    1.2960    0.8500 O   0  0  0  0  0  0  0  0  0  0  0  0
  1  2  2  0
  2  3  1  0
  2  4  1  0
  4  5  1  0
  5  6  1  0
  6  7  1  0
  7  8  1  0
  8  9  2  0
  8 10  1  0
M  END
