
     RDKit          3D

 18 18  0  0  0  0  0  0  0  0999 V2000
   -3.5200    2.6040    0.7270 C   0  0  0  0  0  0  0  0  0  0  0  0
   -2.6160    1.5180    0.8170 O   0  0  0  0  0  0  0  0  0  0  0  0
   -1.7510    1.1860   -0.1850 C   0  0  0  0  0  0  0  0  0  0  0  0
   -1.7340    1.8530   -1.2390 O   0  0  0  0  0  0  0  0  0  0  0  0
   -0.7830    0.0160   -0.0740 C   0  0  2  0  0  0  0  0  0  0  0  0
    0.0740    0.3460    1.0680 C   0  0  1  0  0  0  0  0  0  0  0  0
   -0.8080    0.4770    2.1880 O   0  0  0  0  0  0  0  0  0  0  0  0
    1.1800   -0.5050    1.4910 C   0  0  0  0  0  0  0  0  0  0  0  0
    2.2370   -0.6870    0.4840 C   0  0  0  0  0  0  0  0  0  0  0  0
    2.9730    0.4660   -0.0140 C   0  0  0  0  0  0  0  0  0  0  0  0
    3.9430    0.4230   -0.8930 C   0  0  0  0  0  0  0  0  0  0  0  0
    4.6010    1.5900   -1.3180 O   0  0  0  0  0  0  0  0  0  0  0  0
    2.5280   -1.8530    0.0560 N   0  0  0  0  0  0  0  0  0  0  0  0
    1.8480   -2.9390    0.5410 O   0  0  0  0  0  0  0  0  0  0  0  0
   -0.2190   -0.1730   -1.4150 C   0  0  0  0  0  0  0  0  0  0  0  0
   -1.1870   -1.1820   -2.0790 C   0  0  0  0  0  0  0  0  0  0  0  0
   -1.4210   -2.1340   -0.9070 C   0  0  0  0  0  0  0  0  0  0  0  0
   -1.7000   -1.1820    0.2150 C   0  0  0  0  0  0  0  0  0  0  0  0
  1  2  1  0
  2  3  1  0
  3  4  2  0
  5  3  1  6
  5  6  1  0
  5 15  1  0
  5 18  1  0
  6  7  1  1
  6  8  1  0
  8  9  1  0
  9 10  1  0
  9 13  2  3
 10 11  2  3
 11 12  1  0
 13 14  1  0
 15 16  1  0
 16 17  1  0
 17 18  1  0
M  CHG  2  13   1  14  -1
M  END
