
     RDKit          3D

 18 18  0  0  0  0  0  0  0  0999 V2000
   -3.7980    0.8380    0.3810 N   0  0  0  0  0  0  0  0  0  0  0  0
   -3.5090   -0.1190   -0.6540 C   0  0  2  0  0  0  0  0  0  0  0  0
   -4.2170    0.3110   -1.9330 C   0  0  0  0  0  0  0  0  0  0  0  0
   -3.9010   -0.6500   -2.8980 O   0  0  0  0  0  0  0  0  0  0  0  0
   -3.8960   -1.5000   -0.2400 C   0  0  0  0  0  0  0  0  0  0  0  0
   -2.7090   -2.3800    0.0900 C   0  0  0  0  0  0  0  0  0  0  0  0
   -1.8400   -1.6020    1.0570 C   0  0  0  0  0  0  0  0  0  0  0  0
   -1.2900   -0.4070    0.3190 C   0  0  1  0  0  0  0  0  0  0  0  0
    0.0560   -0.5630    0.0010 O   0  0  0  0  0  0  0  0  0  0  0  0
    0.8420    0.4100    0.5890 C   0  0  0  0  0  0  0  0  0  0  0  0
    2.2740    0.1450    0.1780 C   0  0  0  0  0  0  0  0  0  0  0  0
    3.1780    1.2010    0.8090 C   0  0  0  0  0  0  0  0  0  0  0  0
    4.4920    0.9020    0.3910 O   0  0  0  0  0  0  0  0  0  0  0  0
    5.6080    1.6310    0.7520 C   0  0  0  0  0  0  0  0  0  0  0  0
    5.4760    2.6160    1.4880 O   0  0  0  0  0  0  0  0  0  0  0  0
    6.9290    1.2010    0.2380 C   0  0  0  0  0  0  0  0  0  0  0  0
    6.8500    0.0820   -0.5630 O   0  0  0  0  0  0  0  0  0  0  0  0
   -2.0280   -0.1010   -0.9470 C   0  0  0  0  0  0  0  0  0  0  0  0
  2  1  1  1
  2  3  1  0
  2  5  1  0
  2 18  1  0
  3  4  1  0
  5  6  1  0
  6  7  1  0
  7  8  1  0
  8  9  1  6
  8 18  1  0
  9 10  1  0
 10 11  1  0
 11 12  1  0
 12 13  1  0
 13 14  1  0
 14 15  2  0
 14 16  1  0
 16 17  1  0
M  END
