
     RDKit          3D

 19 19  0  0  0  0  0  0  0  0999 V2000
    6.9790   -1.2970    0.3740 C   0  0  0  0  0  0  0  0  0  0  0  0
    5.7300   -0.6370    0.5890 O   0  0  0  0  0  0  0  0  0  0  0  0
    4.6950   -0.7090   -0.3060 C   0  0  0  0  0  0  0  0  0  0  0  0
    4.8610   -1.3900   -1.3640 O   0  0  0  0  0  0  0  0  0  0  0  0
    3.3970   -0.0440   -0.1210 C   0  0  0  0  0  0  0  0  0  0  0  0
    3.0460    0.7350    0.9600 C   0  0  0  0  0  0  0  0  0  0  0  0
    1.7530    1.1610    0.7390 C   0  0  0  0  0  0  0  0  0  0  0  0
    1.3720    0.6290   -0.4570 C   0  0  0  0  0  0  0  0  0  0  0  0
    0.0440    0.8200   -1.1090 C   0  0  0  0  0  0  0  0  0  0  0  0
   -0.9090    0.3220   -0.2300 O   0  0  0  0  0  0  0  0  0  0  0  0
   -2.2240    0.4350   -0.7450 C   0  0  2  0  0  0  0  0  0  0  0  0
   -2.9910    1.4160    0.0380 C   0  0  0  0  0  0  0  0  0  0  0  0
   -4.3360    1.6440   -0.4140 N   0  0  0  0  0  0  0  0  0  0  0  0
   -2.7790   -0.9200   -0.9610 C   0  0  0  0  0  0  0  0  0  0  0  0
   -2.8680   -1.8090    0.2100 C   0  0  0  0  0  0  0  0  0  0  0  0
   -3.7410   -1.2870    1.2860 C   0  0  0  0  0  0  0  0  0  0  0  0
   -4.9450   -0.9960    1.0500 O   0  0  0  0  0  0  0  0  0  0  0  0
   -3.3140   -1.0830    2.5900 O   0  0  0  0  0  0  0  0  0  0  0  0
    2.3740   -0.0660   -0.9120 O   0  0  0  0  0  0  0  0  0  0  0  0
  1  2  1  0
  2  3  1  0
  3  4  2  0
  3  5  1  0
  5  6  2  0
  5 19  1  0
  6  7  1  0
  7  8  2  0
  8  9  1  0
  8 19  1  0
  9 10  1  0
 10 11  1  0
 11 12  1  1
 11 14  1  0
 12 13  1  0
 14 15  1  0
 15 16  1  0
 16 17  2  0
 16 18  1  0
M  CHG  2  13   1  18  -1
M  END
