
     RDKit          3D

 19 20  0  0  0  0  0  0  0  0999 V2000
    1.8350    1.8670   -1.7190 N   0  0  0  0  0  0  0  0  0  0  0  0
    1.5700    1.5280   -0.3150 C   0  0  0  0  0  0  0  0  0  0  0  0
    2.4940    0.4290    0.0710 C   0  0  0  0  0  0  0  0  0  0  0  0
    2.0100   -0.7060    0.4550 C   0  0  0  0  0  0  0  0  0  0  0  0
    0.6600   -1.1350    0.5860 C   0  0  0  0  0  0  0  0  0  0  0  0
    0.4450   -2.3430    1.0120 O   0  0  0  0  0  0  0  0  0  0  0  0
   -0.5410   -0.4960    0.3390 O   0  0  0  0  0  0  0  0  0  0  0  0
   -1.7650   -1.1360    0.5480 C   0  0  0  0  0  0  0  0  0  0  0  0
   -2.9890   -0.4350    0.2610 C   0  0  0  0  0  0  0  0  0  0  0  0
   -3.1610    0.7820   -0.1930 C   0  0  0  0  0  0  0  0  0  0  0  0
   -2.0120    1.5390   -0.4490 O   0  0  0  0  0  0  0  0  0  0  0  0
   -4.4730    1.4250   -0.4600 C   0  0  0  0  0  0  0  0  0  0  0  0
   -5.5490    0.5890   -0.1750 O   0  0  0  0  0  0  0  0  0  0  0  0
   -5.4160   -0.6790    0.2980 C   0  0  0  0  0  0  0  0  0  0  0  0
   -4.2380   -1.2020    0.5170 C   0  0  0  0  0  0  0  0  0  0  0  0
    3.0160   -1.6640    0.7950 O   0  0  0  0  0  0  0  0  0  0  0  0
    4.3250   -1.5840    0.3280 C   0  0  0  0  0  0  0  0  0  0  0  0
    4.8360   -0.1520    0.5000 C   0  0  0  0  0  0  0  0  0  0  0  0
    3.8790    0.7300   -0.0180 O   0  0  0  0  0  0  0  0  0  0  0  0
  1  2  1  0
  2  3  1  0
  3  4  2  0
  3 19  1  0
  4  5  1  0
  4 16  1  0
  5  6  2  0
  5  7  1  0
  7  8  1  0
  8  9  1  0
  9 10  2  0
  9 15  1  0
 10 11  1  0
 10 12  1  0
 12 13  1  0
 13 14  1  0
 14 15  2  0
 16 17  1  0
 17 18  1  0
 18 19  1  0
M  CHG  2   1   1  11  -1
M  END
