
     RDKit          3D

 19 18  0  0  0  0  0  0  0  0999 V2000
    3.6770   -2.1050   -1.2400 C   0  0  0  0  0  0  0  0  0  0  0  0
    4.5490   -1.3840   -0.5870 C   0  0  0  0  0  0  0  0  0  0  0  0
    5.8630   -1.3560   -1.0030 O   0  0  0  0  0  0  0  0  0  0  0  0
    4.1580   -0.6130    0.5650 C   0  0  0  0  0  0  0  0  0  0  0  0
    5.0470    0.1130    1.2220 C   0  0  0  0  0  0  0  0  0  0  0  0
    4.6330    0.9000    2.4030 C   0  0  0  0  0  0  0  0  0  0  0  0
    2.7240   -0.6550    0.9980 C   0  0  0  0  0  0  0  0  0  0  0  0
    1.8730   -0.1940   -0.0070 O   0  0  0  0  0  0  0  0  0  0  0  0
    0.5110   -0.1380    0.1550 C   0  0  0  0  0  0  0  0  0  0  0  0
    0.0370   -0.5210    1.2550 O   0  0  0  0  0  0  0  0  0  0  0  0
   -0.4180    0.3470   -0.8950 C   0  0  0  0  0  0  0  0  0  0  0  0
   -1.7500    0.2820   -0.4250 O   0  0  0  0  0  0  0  0  0  0  0  0
   -2.8300    0.6640   -1.1720 C   0  0  0  0  0  0  0  0  0  0  0  0
   -2.6190    1.0950   -2.3380 O   0  0  0  0  0  0  0  0  0  0  0  0
   -4.2340    0.6080   -0.7120 C   0  0  2  0  0  0  0  0  0  0  0  0
   -5.0180   -0.2360   -1.6880 C   0  0  0  0  0  0  0  0  0  0  0  0
   -4.8190    2.0190   -0.7310 C   0  0  0  0  0  0  0  0  0  0  0  0
   -4.3710    0.1070    0.6190 N   0  0  0  0  0  0  0  0  0  0  0  0
   -5.4680   -0.7160    0.6370 O   0  0  0  0  0  0  0  0  0  0  0  0
  1  2  2  0
  2  3  1  0
  2  4  1  0
  4  5  2  3
  4  7  1  0
  5  6  1  0
  7  8  1  0
  8  9  1  0
  9 10  2  0
  9 11  1  0
 11 12  1  0
 12 13  1  0
 13 14  2  0
 13 15  1  0
 15 16  1  6
 15 17  1  0
 15 18  1  0
 18 19  1  0
M  CHG  2  18   1  19  -1
M  END
