
     RDKit          3D

 19 19  0  0  0  0  0  0  0  0999 V2000
    4.3610    2.0980   -1.9810 C   0  0  0  0  0  0  0  0  0  0  0  0
    3.9940    1.1300   -1.0210 O   0  0  0  0  0  0  0  0  0  0  0  0
    2.6390    0.9000   -0.8120 C   0  0  0  0  0  0  0  0  0  0  0  0
    1.8000    1.5530   -1.4750 O   0  0  0  0  0  0  0  0  0  0  0  0
    2.1410   -0.0930    0.1710 C   0  0  2  0  0  0  0  0  0  0  0  0
    2.7850   -1.4260   -0.0940 C   0  0  0  0  0  0  0  0  0  0  0  0
    2.3710   -2.4160    0.8890 N   0  0  0  0  0  0  0  0  0  0  0  0
    2.1970   -1.8720    2.1060 O   0  0  0  0  0  0  0  0  0  0  0  0
    0.7610   -0.0830    0.1400 O   0  0  0  0  0  0  0  0  0  0  0  0
   -0.1060    0.2800    1.1250 C   0  0  0  0  0  0  0  0  0  0  0  0
    0.4080    0.6560    2.2040 O   0  0  0  0  0  0  0  0  0  0  0  0
   -1.5570    0.2650    1.0200 C   0  0  0  0  0  0  0  0  0  0  0  0
   -2.3340    0.6280    2.0090 C   0  0  0  0  0  0  0  0  0  0  0  0
   -3.7830    0.6230    1.9340 C   0  0  0  0  0  0  0  0  0  0  0  0
   -4.3840    0.1890    0.6670 C   0  0  0  0  0  0  0  0  0  0  0  0
   -3.4640   -0.2020   -0.3900 C   0  0  0  0  0  0  0  0  0  0  0  0
   -3.9820   -0.6380   -1.6450 O   0  0  0  0  0  0  0  0  0  0  0  0
   -2.1580   -0.1690   -0.2330 C   0  0  0  0  0  0  0  0  0  0  0  0
   -1.2600   -0.5740   -1.3330 C   0  0  0  0  0  0  0  0  0  0  0  0
  1  2  1  0
  2  3  1  0
  3  4  2  0
  3  5  1  0
  5  6  1  6
  5  9  1  0
  6  7  1  0
  7  8  1  0
  9 10  1  0
 10 11  2  0
 10 12  1  0
 12 13  2  0
 12 18  1  0
 13 14  1  0
 14 15  1  0
 15 16  1  0
 16 17  1  0
 16 18  2  0
 18 19  1  0
M  CHG  2   7   1   8  -1
M  END
