
     RDKit          3D

 33 36  0  0  0  0  0  0  0  0999 V2000
    8.2240    2.9890   -0.1790 C   0  0  0  0  0  0  0  0  0  0  0  0
    7.9050    1.2670    0.2130 S   0  0  0  0  0  0  0  0  0  0  0  0
    6.1690    0.9190    0.0610 C   0  0  0  0  0  0  0  0  0  0  0  0
    5.2880    1.8950   -0.3070 C   0  0  0  0  0  0  0  0  0  0  0  0
    3.9580    1.6170   -0.4170 C   0  0  0  0  0  0  0  0  0  0  0  0
    3.4740    0.3070   -0.1480 C   0  0  0  0  0  0  0  0  0  0  0  0
    2.0350    0.2110   -0.1260 C   0  0  0  0  0  0  0  0  0  0  0  0
    1.4110   -0.1280    0.8800 O   0  0  0  0  0  0  0  0  0  0  0  0
    1.2910    0.5470   -1.3630 C   0  0  0  0  0  0  0  0  0  0  0  0
   -0.1620    0.7770   -1.2030 C   0  0  0  0  0  0  0  0  0  0  0  0
   -0.9550   -0.3410   -0.6690 C   0  0  0  0  0  0  0  0  0  0  0  0
   -0.4990   -1.4600   -0.3510 O   0  0  0  0  0  0  0  0  0  0  0  0
   -2.3470   -0.2070   -0.4750 O   0  0  0  0  0  0  0  0  0  0  0  0
   -3.1150   -1.2660    0.0330 C   0  0  1  0  0  0  0  0  0  0  0  0
   -3.8560   -0.9360    1.2760 C   0  0  0  0  0  0  0  0  0  0  0  0
   -5.0820   -0.1270    1.1050 C   0  0  0  0  0  0  0  0  0  0  0  0
   -5.5500    0.6540    2.1730 C   0  0  0  0  0  0  0  0  0  0  0  0
   -6.6930    1.3990    2.0540 C   0  0  0  0  0  0  0  0  0  0  0  0
   -7.1520    2.1780    3.1330 O   0  0  0  0  0  0  0  0  0  0  0  0
   -7.3710    1.3610    0.8580 C   0  0  0  0  0  0  0  0  0  0  0  0
   -6.9590    0.6160   -0.2160 C   0  0  0  0  0  0  0  0  0  0  0  0
   -7.6630    0.5500   -1.5190 C   0  0  0  0  0  0  0  0  0  0  0  0
   -5.7830   -0.1390   -0.0690 C   0  0  0  0  0  0  0  0  0  0  0  0
   -5.3170   -0.9020   -1.1620 N   0  0  0  0  0  0  0  0  0  0  0  0
   -4.1040   -1.6530   -1.0130 C   0  0  0  0  0  0  0  0  0  0  0  0
   -3.8420   -2.6360   -1.7410 O   0  0  0  0  0  0  0  0  0  0  0  0
    4.3360   -0.6630    0.2100 C   0  0  0  0  0  0  0  0  0  0  0  0
    3.9120   -1.9530    0.4420 C   0  0  0  0  0  0  0  0  0  0  0  0
    2.5290   -2.4000    0.2410 C   0  0  0  0  0  0  0  0  0  0  0  0
    4.9060   -2.8840    0.7920 C   0  0  0  0  0  0  0  0  0  0  0  0
    6.2300   -2.5830    0.9050 C   0  0  0  0  0  0  0  0  0  0  0  0
    6.6310   -1.3110    0.6660 C   0  0  0  0  0  0  0  0  0  0  0  0
    5.7160   -0.3600    0.3230 C   0  0  0  0  0  0  0  0  0  0  0  0
  1  2  1  0
  2  3  1  0
  3  4  2  0
  3 33  1  0
  4  5  1  0
  5  6  2  0
  6  7  1  0
  6 27  1  0
  7  8  2  0
  7  9  1  0
  9 10  1  0
 10 11  1  0
 11 12  2  0
 11 13  1  0
 14 13  1  6
 14 15  1  0
 14 25  1  0
 15 16  1  0
 16 17  2  0
 16 23  1  0
 17 18  1  0
 18 19  1  0
 18 20  2  0
 20 21  1  0
 21 22  1  0
 21 23  2  0
 23 24  1  0
 24 25  1  0
 25 26  2  0
 27 28  2  0
 27 33  1  0
 28 29  1  0
 28 30  1  0
 30 31  2  0
 31 32  1  0
 32 33  2  0
M  END
