
     RDKit          3D

 33 36  0  0  0  0  0  0  0  0999 V2000
  -10.3320   -0.4510    1.1150 C   0  0  0  0  0  0  0  0  0  0  0  0
   -8.8490   -0.3600    1.2280 C   0  0  0  0  0  0  0  0  0  0  0  0
   -8.2280   -0.2390    2.4490 C   0  0  0  0  0  0  0  0  0  0  0  0
   -6.8650   -0.1570    2.5390 C   0  0  0  0  0  0  0  0  0  0  0  0
   -6.0420   -0.1920    1.4010 C   0  0  0  0  0  0  0  0  0  0  0  0
   -4.6860   -0.1040    1.5870 O   0  0  0  0  0  0  0  0  0  0  0  0
   -6.6210   -0.3120    0.1690 C   0  0  0  0  0  0  0  0  0  0  0  0
   -5.8870   -0.3600   -1.0580 C   0  0  0  0  0  0  0  0  0  0  0  0
   -6.7650   -0.4800   -2.1000 O   0  0  0  0  0  0  0  0  0  0  0  0
   -4.6010   -0.3270   -1.5370 C   0  0  0  0  0  0  0  0  0  0  0  0
   -3.3410   -0.2340   -1.1400 C   0  0  0  0  0  0  0  0  0  0  0  0
   -2.2050   -0.2470   -2.1760 C   0  0  0  0  0  0  0  0  0  0  0  0
   -0.9920   -0.1370   -1.3820 C   0  0  0  0  0  0  0  0  0  0  0  0
    0.3540   -0.0980   -1.7430 C   0  0  0  0  0  0  0  0  0  0  0  0
    1.3510    0.0160   -0.8070 C   0  0  0  0  0  0  0  0  0  0  0  0
    2.7480    0.0510   -1.2640 C   0  0  0  0  0  0  0  0  0  0  0  0
    2.9410    0.1520   -2.4980 O   0  0  0  0  0  0  0  0  0  0  0  0
    3.8340   -0.0230   -0.3870 N   0  0  0  0  0  0  0  0  0  0  0  0
    5.1960    0.0080   -0.7370 C   0  0  0  0  0  0  0  0  0  0  0  0
    5.7040    0.2960   -1.9750 C   0  0  0  0  0  0  0  0  0  0  0  0
    7.0870    0.2900   -2.2430 C   0  0  0  0  0  0  0  0  0  0  0  0
    7.9610   -0.0160   -1.2240 C   0  0  0  0  0  0  0  0  0  0  0  0
    7.4920   -0.3140    0.0450 C   0  0  0  0  0  0  0  0  0  0  0  0
    8.4660   -0.6400    1.1170 C   0  0  0  0  0  0  0  0  0  0  0  0
    8.9180    0.9000    1.9270 S   0  0  0  0  0  0  0  0  0  0  0  0
    7.4240    1.6300    2.6120 C   0  0  0  0  0  0  0  0  0  0  0  0
    9.4240    1.8510    0.8380 O   0  0  0  0  0  0  0  0  0  0  0  0
    6.1420   -0.2950    0.2540 C   0  0  0  0  0  0  0  0  0  0  0  0
    0.9830    0.0910    0.5150 C   0  0  0  0  0  0  0  0  0  0  0  0
   -0.3400    0.0540    0.8920 C   0  0  0  0  0  0  0  0  0  0  0  0
   -1.3430   -0.0600   -0.0570 C   0  0  0  0  0  0  0  0  0  0  0  0
   -2.7070   -0.1190    0.0520 O   0  0  0  0  0  0  0  0  0  0  0  0
   -8.0480   -0.3940    0.1250 C   0  0  0  0  0  0  0  0  0  0  0  0
  1  2  1  0
  2  3  2  0
  2 33  1  0
  3  4  1  0
  4  5  2  0
  5  6  1  0
  5  7  1  0
  7  8  1  0
  7 33  2  0
  8  9  2  0
  8 10  1  0
 10 11  2  3
 11 12  1  0
 11 32  1  0
 12 13  1  0
 13 14  2  0
 13 31  1  0
 14 15  1  0
 15 16  1  0
 15 29  2  0
 16 17  2  0
 16 18  1  0
 18 19  1  0
 19 20  2  0
 19 28  1  0
 20 21  1  0
 21 22  2  0
 22 23  1  0
 23 24  1  0
 23 28  2  0
 24 25  1  0
 25 26  1  6
 25 27  2  0
 29 30  1  0
 30 31  2  0
 31 32  1  0
M  END
