
     RDKit          3D

 33 34  0  0  0  0  0  0  0  0999 V2000
    7.7380    2.6280   -0.5270 O   0  0  0  0  0  0  0  0  0  0  0  0
    8.0950    1.6730    0.2140 C   0  0  0  0  0  0  0  0  0  0  0  0
    7.5040    0.4430    0.0130 O   0  0  0  0  0  0  0  0  0  0  0  0
    6.5270    0.1940   -0.9700 C   0  0  1  0  0  0  0  0  0  0  0  0
    7.0780   -0.9300   -1.8530 C   0  0  0  0  0  0  0  0  0  0  0  0
    6.1740   -1.2450   -2.8600 O   0  0  0  0  0  0  0  0  0  0  0  0
    5.3150   -0.3590   -0.2700 C   0  0  0  0  0  0  0  0  0  0  0  0
    5.3760   -0.4880    0.9720 O   0  0  0  0  0  0  0  0  0  0  0  0
    4.1870   -0.7180   -0.8930 O   0  0  0  0  0  0  0  0  0  0  0  0
    2.9680   -1.2070   -0.5960 C   0  0  0  0  0  0  0  0  0  0  0  0
    1.9190   -0.4620    0.1090 C   0  0  2  0  0  0  0  0  0  0  0  0
    1.5180    0.8260   -0.6400 C   0  0  0  0  0  0  0  0  0  0  0  0
    0.1910    1.0520   -0.4070 O   0  0  0  0  0  0  0  0  0  0  0  0
   -0.3200    0.5440    0.7730 C   0  0  2  0  0  0  0  0  0  0  0  0
   -1.4720    1.2980    1.1500 O   0  0  0  0  0  0  0  0  0  0  0  0
   -2.6150    0.4630    1.2390 C   0  0  1  0  0  0  0  0  0  0  0  0
   -3.0140    0.5080    2.5610 O   0  0  0  0  0  0  0  0  0  0  0  0
   -3.6300    1.0040    0.2910 C   0  0  2  0  0  0  0  0  0  0  0  0
   -3.9430    2.3470    0.5940 O   0  0  0  0  0  0  0  0  0  0  0  0
   -4.8800    0.2080    0.2520 C   0  0  2  0  0  0  0  0  0  0  0  0
   -4.7260   -1.2050   -0.1660 C   0  0  0  0  0  0  0  0  0  0  0  0
   -3.9200   -1.9970    0.6300 O   0  0  0  0  0  0  0  0  0  0  0  0
   -5.9990    0.9120   -0.4910 C   0  0  1  0  0  0  0  0  0  0  0  0
   -5.7060    1.2240   -1.9060 C   0  0  0  0  0  0  0  0  0  0  0  0
   -6.4810    0.2540   -2.7270 C   0  0  0  0  0  0  0  0  0  0  0  0
   -7.5970   -0.0530   -1.8890 O   0  0  0  0  0  0  0  0  0  0  0  0
   -7.1750    0.0110   -0.5550 C   0  0  0  0  0  0  0  0  0  0  0  0
   -7.6750   -0.5730    0.4350 O   0  0  0  0  0  0  0  0  0  0  0  0
    0.6480    0.5650    1.9020 C   0  0  0  0  0  0  0  0  0  0  0  0
    1.9200   -0.2280    1.5510 C   0  0  2  0  0  0  0  0  0  0  0  0
    2.9490    0.5010    2.0940 O   0  0  0  0  0  0  0  0  0  0  0  0
    1.8700   -1.5520    2.3400 C   0  0  0  0  0  0  0  0  0  0  0  0
    3.1020   -2.1690    2.1790 O   0  0  0  0  0  0  0  0  0  0  0  0
  1  2  2  0
  2  3  1  0
  3  4  1  0
  4  5  1  6
  4  7  1  0
  5  6  1  0
  7  8  2  0
  7  9  1  0
  9 10  1  0
 11 10  1  6
 11 12  1  0
 11 30  1  0
 12 13  1  0
 13 14  1  0
 14 15  1  1
 14 29  1  0
 15 16  1  0
 16 17  1  1
 16 18  1  0
 18 19  1  1
 18 20  1  0
 20 21  1  6
 20 23  1  0
 21 22  1  0
 23 24  1  6
 23 27  1  0
 24 25  1  0
 25 26  1  0
 26 27  1  0
 27 28  2  0
 29 30  1  0
 30 31  1  1
 30 32  1  0
 32 33  1  0
M  END
