
     RDKit          3D

 32 35  0  0  0  0  0  0  0  0999 V2000
    2.1470   -2.6740    0.2430 C   0  0  0  0  0  0  0  0  0  0  0  0
    1.9050   -1.1580    0.2940 C   0  0  1  0  0  0  0  0  0  0  0  0
    3.1240   -0.4670    0.6820 C   0  0  0  0  0  0  0  0  0  0  0  0
    3.9970   -1.1670    1.5330 C   0  0  0  0  0  0  0  0  0  0  0  0
    5.1400   -0.5390    1.9380 C   0  0  0  0  0  0  0  0  0  0  0  0
    5.4380    0.7440    1.5290 C   0  0  0  0  0  0  0  0  0  0  0  0
    4.5800    1.4290    0.6940 C   0  0  0  0  0  0  0  0  0  0  0  0
    4.8750    2.7330    0.2750 O   0  0  0  0  0  0  0  0  0  0  0  0
    3.4150    0.8010    0.2750 C   0  0  0  0  0  0  0  0  0  0  0  0
    2.4950    1.4700   -0.6140 C   0  0  0  0  0  0  0  0  0  0  0  0
    2.7090    2.6340   -1.0170 O   0  0  0  0  0  0  0  0  0  0  0  0
    1.2650    0.7640   -1.0630 C   0  0  0  0  0  0  0  0  0  0  0  0
    0.2510    1.4340   -1.5110 C   0  0  0  0  0  0  0  0  0  0  0  0
    0.3200    2.8230   -1.5680 O   0  0  0  0  0  0  0  0  0  0  0  0
   -0.9720    0.7630   -1.9640 C   0  0  2  0  0  0  0  0  0  0  0  0
   -0.7950    0.4110   -3.3060 O   0  0  0  0  0  0  0  0  0  0  0  0
   -2.1510    1.6680   -1.9100 C   0  0  0  0  0  0  0  0  0  0  0  0
   -2.6330    2.1760   -2.9350 O   0  0  0  0  0  0  0  0  0  0  0  0
   -2.6990    1.9170   -0.5830 C   0  0  0  0  0  0  0  0  0  0  0  0
   -3.3780    3.1930   -0.3050 C   0  0  0  0  0  0  0  0  0  0  0  0
   -3.9220    3.4690    0.9770 N   0  0  0  0  0  0  0  0  0  0  0  0
   -3.4840    4.0600   -1.2070 O   0  0  0  0  0  0  0  0  0  0  0  0
   -2.5640    0.9760    0.3210 C   0  0  0  0  0  0  0  0  0  0  0  0
   -3.0880    1.2270    1.5770 O   0  0  0  0  0  0  0  0  0  0  0  0
   -1.8980   -0.3380    0.1140 C   0  0  1  0  0  0  0  0  0  0  0  0
   -2.8670   -1.3370    0.4850 N   0  0  2  0  0  0  0  0  0  0  0  0
   -2.9400   -1.3450    1.9460 C   0  0  0  0  0  0  0  0  0  0  0  0
   -2.6080   -2.6690    0.0690 C   0  0  0  0  0  0  0  0  0  0  0  0
   -1.2500   -0.5130   -1.2110 C   0  0  2  0  0  0  0  0  0  0  0  0
   -0.0470   -1.3710   -1.1060 C   0  0  1  0  0  0  0  0  0  0  0  0
    0.0400   -2.2680   -2.2000 O   0  0  0  0  0  0  0  0  0  0  0  0
    1.2870   -0.6910   -0.9880 C   0  0  2  0  0  0  0  0  0  0  0  0
  2  1  1  6
  2  3  1  0
  2 32  1  0
  3  4  2  0
  3  9  1  0
  4  5  1  0
  5  6  2  0
  6  7  1  0
  7  8  1  0
  7  9  2  0
  9 10  1  0
 10 11  2  0
 10 12  1  0
 12 13  2  0
 32 12  1  1
 13 14  1  0
 13 15  1  0
 15 16  1  6
 15 17  1  0
 29 15  1  1
 17 18  2  0
 17 19  1  0
 19 20  1  0
 19 23  2  0
 20 21  1  0
 20 22  2  0
 23 24  1  0
 25 23  1  6
 25 26  1  0
 25 29  1  0
 26 27  1  1
 26 28  1  0
 29 30  1  0
 30 31  1  6
 30 32  1  0
M  CHG  1  26   1
M  END
