
     RDKit          3D

 32 33  0  0  0  0  0  0  0  0999 V2000
   -4.1680    1.2190   -0.7160 C   0  0  0  0  0  0  0  0  0  0  0  0
   -4.9420    0.0920   -0.0870 C   0  0  2  0  0  0  0  0  0  0  0  0
   -6.1800    0.0190   -0.7050 O   0  0  0  0  0  0  0  0  0  0  0  0
   -5.0710    0.3490    1.3930 C   0  0  2  0  0  0  0  0  0  0  0  0
   -5.7810   -0.6460    2.0330 O   0  0  0  0  0  0  0  0  0  0  0  0
   -5.6890    1.7180    1.6030 C   0  0  0  0  0  0  0  0  0  0  0  0
   -6.9910    1.7670    1.1170 O   0  0  0  0  0  0  0  0  0  0  0  0
   -4.1950   -1.1910   -0.3490 C   0  0  2  0  0  0  0  0  0  0  0  0
   -2.8450   -1.2040    0.2010 C   0  0  0  0  0  0  0  0  0  0  0  0
   -2.5270   -2.0710    1.0550 O   0  0  0  0  0  0  0  0  0  0  0  0
   -1.8420   -0.3030   -0.1530 O   0  0  0  0  0  0  0  0  0  0  0  0
   -0.5350   -0.3610    0.4190 C   0  0  2  0  0  0  0  0  0  0  0  0
   -0.2970    0.9560    1.1160 C   0  0  0  0  0  0  0  0  0  0  0  0
    1.0270    1.0400    1.4880 O   0  0  0  0  0  0  0  0  0  0  0  0
    1.8470    1.1870    0.3620 C   0  0  1  0  0  0  0  0  0  0  0  0
    3.2480    1.4310    0.8300 C   0  0  0  0  0  0  0  0  0  0  0  0
    4.1690    1.5970   -0.3430 C   0  0  1  0  0  0  0  0  0  0  0  0
    3.7330    2.6890   -1.1000 O   0  0  0  0  0  0  0  0  0  0  0  0
    5.5120    1.7700    0.0780 O   0  0  0  0  0  0  0  0  0  0  0  0
    6.5220    0.8970   -0.2590 C   0  0  0  0  0  0  0  0  0  0  0  0
    6.2400   -0.0890   -0.9680 O   0  0  0  0  0  0  0  0  0  0  0  0
    7.8060    1.1690    0.2130 O   0  0  0  0  0  0  0  0  0  0  0  0
    8.8580    0.2770   -0.1280 C   0  0  0  0  0  0  0  0  0  0  0  0
   10.1230    0.8310    0.5250 C   0  0  0  0  0  0  0  0  0  0  0  0
   11.1760   -0.0230    0.2090 O   0  0  0  0  0  0  0  0  0  0  0  0
    1.7910   -0.0440   -0.4810 C   0  0  1  0  0  0  0  0  0  0  0  0
    2.5880   -1.0380    0.1080 O   0  0  0  0  0  0  0  0  0  0  0  0
    0.4200   -0.5700   -0.7320 C   0  0  0  0  0  0  0  0  0  0  0  0
   -4.2060   -1.3900   -1.8680 C   0  0  0  0  0  0  0  0  0  0  0  0
   -4.2810   -2.8800   -1.9780 C   0  0  0  0  0  0  0  0  0  0  0  0
   -4.4620   -3.3990   -0.7210 O   0  0  0  0  0  0  0  0  0  0  0  0
   -4.9510   -2.4140    0.1050 C   0  0  0  0  0  0  0  0  0  0  0  0
  2  1  1  6
  2  3  1  0
  2  4  1  0
  2  8  1  0
  4  5  1  6
  4  6  1  0
  6  7  1  0
  8  9  1  1
  8 29  1  0
  8 32  1  0
  9 10  2  0
  9 11  1  0
 12 11  1  6
 12 13  1  0
 12 28  1  0
 13 14  1  0
 14 15  1  0
 15 16  1  1
 15 26  1  0
 16 17  1  0
 17 18  1  1
 17 19  1  0
 19 20  1  0
 20 21  2  0
 20 22  1  0
 22 23  1  0
 23 24  1  0
 24 25  1  0
 26 27  1  1
 26 28  1  0
 29 30  1  0
 30 31  1  0
 31 32  1  0
M  END
