
     RDKit          3D

 33 36  0  0  0  0  0  0  0  0999 V2000
   -3.9160   -1.7690    4.4050 C   0  0  0  0  0  0  0  0  0  0  0  0
   -4.9630   -1.0230    3.8370 O   0  0  0  0  0  0  0  0  0  0  0  0
   -4.9150   -0.6720    2.5030 C   0  0  0  0  0  0  0  0  0  0  0  0
   -5.9880    0.0730    1.9960 C   0  0  0  0  0  0  0  0  0  0  0  0
   -5.9830    0.4450    0.6730 C   0  0  0  0  0  0  0  0  0  0  0  0
   -4.9080    0.0650   -0.1120 C   0  0  0  0  0  0  0  0  0  0  0  0
   -3.8400   -0.6590    0.3350 C   0  0  0  0  0  0  0  0  0  0  0  0
   -3.8750   -1.0240    1.6900 C   0  0  0  0  0  0  0  0  0  0  0  0
   -2.8930   -0.8800   -0.7470 C   0  0  2  0  0  0  0  0  0  0  0  0
   -1.5630   -0.3380   -0.5030 N   0  0  0  0  0  0  0  0  0  0  0  0
   -0.4580   -1.1980   -0.6960 C   0  0  0  0  0  0  0  0  0  0  0  0
   -0.5710   -2.4040   -1.0670 O   0  0  0  0  0  0  0  0  0  0  0  0
    0.9730   -0.7390   -0.4730 C   0  0  0  0  0  0  0  0  0  0  0  0
    1.0270    0.9340    0.0970 S   0  0  0  0  0  0  0  0  0  0  0  0
    2.5930    1.5340    0.5780 C   0  0  0  0  0  0  0  0  0  0  0  0
    2.5690    2.7170    1.1510 O   0  0  0  0  0  0  0  0  0  0  0  0
    3.9040    0.9240    0.4470 C   0  0  0  0  0  0  0  0  0  0  0  0
    4.2540    0.1130   -0.5920 C   0  0  0  0  0  0  0  0  0  0  0  0
    5.5320   -0.4210   -0.7430 C   0  0  0  0  0  0  0  0  0  0  0  0
    6.4990   -0.1320    0.1830 C   0  0  0  0  0  0  0  0  0  0  0  0
    7.8600   -0.6830    0.0420 C   0  0  0  0  0  0  0  0  0  0  0  0
    8.1640   -1.5510   -1.1310 C   0  0  0  0  0  0  0  0  0  0  0  0
    8.7530   -0.4460    0.8680 O   0  0  0  0  0  0  0  0  0  0  0  0
    6.1680    0.6730    1.2230 C   0  0  0  0  0  0  0  0  0  0  0  0
    4.9180    1.1960    1.3730 C   0  0  0  0  0  0  0  0  0  0  0  0
    4.5900    2.0500    2.5350 C   0  0  0  0  0  0  0  0  0  0  0  0
   -3.4970   -0.2280   -1.9320 C   0  0  0  0  0  0  0  0  0  0  0  0
   -3.0260   -0.1390   -3.2450 C   0  0  0  0  0  0  0  0  0  0  0  0
   -3.8040    0.5410   -4.1470 C   0  0  0  0  0  0  0  0  0  0  0  0
   -5.0100    1.1190   -3.7770 C   0  0  0  0  0  0  0  0  0  0  0  0
   -5.7390    1.7900   -4.7500 O   0  0  0  0  0  0  0  0  0  0  0  0
   -5.4540    1.0180   -2.4770 C   0  0  0  0  0  0  0  0  0  0  0  0
   -4.6760    0.3290   -1.5460 C   0  0  0  0  0  0  0  0  0  0  0  0
  1  2  1  0
  2  3  1  0
  3  4  2  0
  3  8  1  0
  4  5  1  0
  5  6  2  0
  6  7  1  0
  6 33  1  0
  7  8  2  0
  7  9  1  0
  9 10  1  1
  9 27  1  0
 10 11  1  0
 11 12  2  0
 11 13  1  0
 13 14  1  0
 14 15  1  0
 15 16  2  0
 15 17  1  0
 17 18  2  0
 17 25  1  0
 18 19  1  0
 19 20  2  0
 20 21  1  0
 20 24  1  0
 21 22  1  0
 21 23  2  0
 24 25  2  0
 25 26  1  0
 27 28  2  0
 27 33  1  0
 28 29  1  0
 29 30  2  0
 30 31  1  0
 30 32  1  0
 32 33  2  0
M  END
