
     RDKit          3D

 33 35  0  0  0  0  0  0  0  0999 V2000
   -2.5850    1.8540    2.1720 C   0  0  0  0  0  0  0  0  0  0  0  0
   -2.9210    0.9790    1.1150 O   0  0  0  0  0  0  0  0  0  0  0  0
   -4.2420    0.9030    0.7120 C   0  0  0  0  0  0  0  0  0  0  0  0
   -5.2160    1.6570    1.3170 C   0  0  0  0  0  0  0  0  0  0  0  0
   -6.5440    1.5960    0.9290 C   0  0  0  0  0  0  0  0  0  0  0  0
   -6.8910    0.7500   -0.0980 C   0  0  0  0  0  0  0  0  0  0  0  0
   -8.2210    0.6450   -0.5360 O   0  0  0  0  0  0  0  0  0  0  0  0
   -5.8920   -0.0030   -0.6960 C   0  0  0  0  0  0  0  0  0  0  0  0
   -4.5670    0.0280   -0.3410 C   0  0  0  0  0  0  0  0  0  0  0  0
   -3.5320   -0.7350   -0.9430 N   0  0  0  0  0  0  0  0  0  0  0  0
   -3.6360   -1.6520   -1.9900 C   0  0  0  0  0  0  0  0  0  0  0  0
   -4.7620   -1.8730   -2.4960 O   0  0  0  0  0  0  0  0  0  0  0  0
   -2.5000   -2.4200   -2.5810 C   0  0  0  0  0  0  0  0  0  0  0  0
   -1.2270   -2.1260   -2.0340 N   0  0  0  0  0  0  0  0  0  0  0  0
   -0.6770   -0.8960   -2.1550 C   0  0  0  0  0  0  0  0  0  0  0  0
   -1.3220    0.0510   -2.8060 O   0  0  0  0  0  0  0  0  0  0  0  0
    0.4730   -0.3520   -1.7360 N   0  0  0  0  0  0  0  0  0  0  0  0
    1.5900    0.2410   -1.3500 C   0  0  0  0  0  0  0  0  0  0  0  0
    1.5400    1.4940   -1.8340 O   0  0  0  0  0  0  0  0  0  0  0  0
    2.6750   -0.1660   -0.6140 C   0  0  0  0  0  0  0  0  0  0  0  0
    3.6870    0.7200   -0.3870 C   0  0  0  0  0  0  0  0  0  0  0  0
    3.7180    1.9770   -0.8480 O   0  0  0  0  0  0  0  0  0  0  0  0
    4.7410    0.2450    0.3810 C   0  0  0  0  0  0  0  0  0  0  0  0
    5.7830    1.1430    0.6270 C   0  0  0  0  0  0  0  0  0  0  0  0
    6.8450    0.7260    1.3830 C   0  0  0  0  0  0  0  0  0  0  0  0
    7.8740    1.6480    1.6130 O   0  0  0  0  0  0  0  0  0  0  0  0
    6.8710   -0.5570    1.8850 C   0  0  0  0  0  0  0  0  0  0  0  0
    7.9600   -0.9250    2.6380 O   0  0  0  0  0  0  0  0  0  0  0  0
    5.8220   -1.4130    1.6190 C   0  0  0  0  0  0  0  0  0  0  0  0
    4.7450   -1.0160    0.8610 C   0  0  0  0  0  0  0  0  0  0  0  0
    3.7270   -1.8880    0.6250 N   0  0  0  0  0  0  0  0  0  0  0  0
    2.7110   -1.4490   -0.1080 C   0  0  0  0  0  0  0  0  0  0  0  0
    1.7510   -2.2400   -0.3430 O   0  0  0  0  0  0  0  0  0  0  0  0
  1  2  1  0
  2  3  1  0
  3  4  2  0
  3  9  1  0
  4  5  1  0
  5  6  2  0
  6  7  1  0
  6  8  1  0
  8  9  2  0
  9 10  1  0
 10 11  1  0
 11 12  2  0
 11 13  1  0
 13 14  1  0
 14 15  1  0
 15 16  2  0
 15 17  1  0
 17 18  1  0
 18 19  2  0
 18 20  1  0
 20 21  2  0
 20 32  1  0
 21 22  1  0
 21 23  1  0
 23 24  2  0
 23 30  1  0
 24 25  1  0
 25 26  1  0
 25 27  2  0
 27 28  1  0
 27 29  1  0
 29 30  2  0
 30 31  1  0
 31 32  1  0
 32 33  2  0
M  END
