
     RDKit          3D

 33 35  0  0  0  0  0  0  0  0999 V2000
   -0.6160   -2.1110    0.3450 C   0  0  0  0  0  0  0  0  0  0  0  0
   -1.2650   -1.6070   -0.8240 O   0  0  0  0  0  0  0  0  0  0  0  0
   -1.5020   -0.2540   -1.0080 C   0  0  0  0  0  0  0  0  0  0  0  0
   -0.5610    0.5290   -1.6390 C   0  0  0  0  0  0  0  0  0  0  0  0
    0.6840   -0.0620   -2.1130 C   0  0  0  0  0  0  0  0  0  0  0  0
    1.5710    0.6280   -2.6980 O   0  0  0  0  0  0  0  0  0  0  0  0
    0.9210   -1.3970   -1.9330 O   0  0  0  0  0  0  0  0  0  0  0  0
    2.0440   -2.1110   -2.3130 C   0  0  0  0  0  0  0  0  0  0  0  0
    3.3140   -1.7000   -1.6500 C   0  0  0  0  0  0  0  0  0  0  0  0
    4.3870   -2.2270   -2.0210 O   0  0  0  0  0  0  0  0  0  0  0  0
    3.3610   -0.7380   -0.6160 N   0  0  0  0  0  0  0  0  0  0  0  0
    4.5070   -0.2800    0.0650 C   0  0  0  0  0  0  0  0  0  0  0  0
    4.3060    0.5870    1.1410 C   0  0  0  0  0  0  0  0  0  0  0  0
    5.3280    1.1180    1.8910 C   0  0  0  0  0  0  0  0  0  0  0  0
    6.6380    0.8070    1.6070 C   0  0  0  0  0  0  0  0  0  0  0  0
    6.8650   -0.0450    0.5530 C   0  0  0  0  0  0  0  0  0  0  0  0
    8.2040   -0.3860    0.2320 N   0  0  0  0  0  0  0  0  0  0  0  0
    5.8120   -0.5820   -0.2090 C   0  0  0  0  0  0  0  0  0  0  0  0
   -0.8670    1.8640   -1.7860 C   0  0  0  0  0  0  0  0  0  0  0  0
   -2.0500    2.4130   -1.3320 C   0  0  0  0  0  0  0  0  0  0  0  0
   -2.9290    1.5950   -0.7240 N   0  0  0  0  0  0  0  0  0  0  0  0
   -2.6880    0.2730   -0.5480 C   0  0  0  0  0  0  0  0  0  0  0  0
   -3.6470   -0.5040    0.0900 O   0  0  0  0  0  0  0  0  0  0  0  0
   -4.8280    0.0130    0.5500 C   0  0  0  0  0  0  0  0  0  0  0  0
   -5.7130    0.4650   -0.3380 C   0  0  0  0  0  0  0  0  0  0  0  0
   -5.3370    0.3610   -1.6640 O   0  0  0  0  0  0  0  0  0  0  0  0
   -7.0350    1.0600   -0.1630 C   0  0  0  0  0  0  0  0  0  0  0  0
   -7.7790    1.3470   -1.3080 O   0  0  0  0  0  0  0  0  0  0  0  0
   -7.5870    1.3510    0.9640 N   0  0  0  0  0  0  0  0  0  0  0  0
   -7.1200    1.1930    2.2480 O   0  0  0  0  0  0  0  0  0  0  0  0
   -5.9800    0.5240    2.7010 C   0  0  0  0  0  0  0  0  0  0  0  0
   -4.9830    0.0080    2.0040 C   0  0  0  0  0  0  0  0  0  0  0  0
   -3.9660   -0.6080    2.7270 O   0  0  0  0  0  0  0  0  0  0  0  0
  1  2  1  0
  2  3  1  0
  3  4  2  0
  3 22  1  0
  4  5  1  0
  4 19  1  0
  5  6  2  0
  5  7  1  0
  7  8  1  0
  8  9  1  0
  9 10  2  0
  9 11  1  0
 11 12  1  0
 12 13  2  0
 12 18  1  0
 13 14  1  0
 14 15  2  0
 15 16  1  0
 16 17  1  0
 16 18  2  0
 19 20  2  0
 20 21  1  0
 21 22  2  0
 22 23  1  0
 23 24  1  0
 24 25  2  0
 24 32  1  0
 25 26  1  0
 25 27  1  0
 27 28  1  0
 27 29  2  0
 29 30  1  0
 30 31  1  0
 31 32  2  0
 32 33  1  0
M  END
