
     RDKit          3D

 33 33  0  0  0  0  0  0  0  0999 V2000
   -0.3020    2.6740   -0.3080 C   0  0  0  0  0  0  0  0  0  0  0  0
   -1.4290    1.9340   -0.2570 C   0  0  0  0  0  0  0  0  0  0  0  0
   -2.4420    2.5410    0.4530 O   0  0  0  0  0  0  0  0  0  0  0  0
   -3.3100    3.4840   -0.1400 C   0  0  0  0  0  0  0  0  0  0  0  0
   -4.3520    4.1050    0.5940 N   0  0  0  0  0  0  0  0  0  0  0  0
   -3.0730    3.7110   -1.3550 O   0  0  0  0  0  0  0  0  0  0  0  0
   -1.4530    0.6480   -0.9200 C   0  0  0  0  0  0  0  0  0  0  0  0
   -2.5110   -0.1640   -0.9050 C   0  0  0  0  0  0  0  0  0  0  0  0
   -3.7430    0.2580   -0.1800 C   0  0  0  0  0  0  0  0  0  0  0  0
   -2.3380   -1.3500   -1.5870 O   0  0  0  0  0  0  0  0  0  0  0  0
   -1.7350   -2.5520   -1.3020 C   0  0  0  0  0  0  0  0  0  0  0  0
   -1.8440   -3.4960   -2.2200 N   0  0  0  0  0  0  0  0  0  0  0  0
   -0.9790   -2.9470   -0.1080 C   0  0  0  0  0  0  0  0  0  0  0  0
   -1.4260   -4.0270    0.5560 C   0  0  0  0  0  0  0  0  0  0  0  0
   -0.7950   -4.5760    1.7880 C   0  0  0  0  0  0  0  0  0  0  0  0
    0.1600   -2.2270    0.3170 O   0  0  0  0  0  0  0  0  0  0  0  0
    1.3990   -2.1510   -0.2960 C   0  0  0  0  0  0  0  0  0  0  0  0
    1.9780   -0.7200   -0.2920 C   0  0  0  0  0  0  0  0  0  0  0  0
    2.0460   -0.1170    0.8440 C   0  0  0  0  0  0  0  0  0  0  0  0
    2.4940    1.1450    1.2900 C   0  0  0  0  0  0  0  0  0  0  0  0
    3.1350    2.2240    0.5710 C   0  0  0  0  0  0  0  0  0  0  0  0
    3.5020    2.3020   -0.7450 N   0  0  0  0  0  0  0  0  0  0  0  0
    3.4250    3.3020    1.2550 O   0  0  0  0  0  0  0  0  0  0  0  0
    2.3430    1.3890    2.6420 C   0  0  0  0  0  0  0  0  0  0  0  0
    2.7850    2.6450    3.1280 O   0  0  0  0  0  0  0  0  0  0  0  0
    1.7720    0.4760    3.5900 C   0  0  0  0  0  0  0  0  0  0  0  0
    2.7420    0.1720    4.5790 O   0  0  0  0  0  0  0  0  0  0  0  0
    2.3720   -0.2090   -1.6030 C   0  0  0  0  0  0  0  0  0  0  0  0
    2.0480   -1.2260   -2.6540 N   0  0  0  0  0  0  0  0  0  0  0  0
    0.7490   -1.2530   -3.2210 C   0  0  0  0  0  0  0  0  0  0  0  0
    0.3960   -2.2080   -3.9860 O   0  0  0  0  0  0  0  0  0  0  0  0
   -0.2150   -0.2030   -2.9520 C   0  0  0  0  0  0  0  0  0  0  0  0
   -0.2850    0.2600   -1.6170 O   0  0  0  0  0  0  0  0  0  0  0  0
  1  2  2  0
  2  3  1  0
  2  7  1  0
  3  4  1  0
  4  5  1  0
  4  6  2  0
  7  8  2  0
  7 33  1  0
  8  9  1  0
  8 10  1  0
 10 11  1  0
 11 12  2  0
 11 13  1  0
 13 14  2  3
 13 16  1  0
 14 15  1  0
 16 17  1  0
 17 18  1  0
 18 19  2  3
 18 28  1  0
 19 20  1  0
 20 21  1  0
 20 24  2  3
 21 22  1  0
 21 23  2  0
 24 25  1  0
 24 26  1  0
 26 27  1  0
 28 29  1  0
 29 30  1  0
 30 31  2  0
 30 32  1  0
 32 33  1  0
M  END
