
     RDKit          3D

 33 34  0  0  0  0  0  0  0  0999 V2000
   -0.2760    0.2490    1.9220 C   0  0  0  0  0  0  0  0  0  0  0  0
   -0.3700   -0.4860    0.6060 C   0  0  2  0  0  0  0  0  0  0  0  0
    0.2560   -1.8740    0.8280 C   0  0  0  0  0  0  0  0  0  0  0  0
    0.4160    0.1360   -0.3630 O   0  0  0  0  0  0  0  0  0  0  0  0
    1.7750    0.2770   -0.2320 C   0  0  0  0  0  0  0  0  0  0  0  0
    2.6190   -0.6780   -0.6970 C   0  0  0  0  0  0  0  0  0  0  0  0
    3.9900   -0.5300   -0.5620 C   0  0  0  0  0  0  0  0  0  0  0  0
    4.4990    0.5740    0.0390 C   0  0  0  0  0  0  0  0  0  0  0  0
    5.8740    0.7800    0.2060 N   0  0  0  0  0  0  0  0  0  0  0  0
    6.8650   -0.1080   -0.2190 C   0  0  0  0  0  0  0  0  0  0  0  0
    6.6440   -1.1690   -0.7890 O   0  0  0  0  0  0  0  0  0  0  0  0
    8.2230    0.2070    0.0070 O   0  0  0  0  0  0  0  0  0  0  0  0
    9.2260   -0.6910   -0.4230 C   0  0  0  0  0  0  0  0  0  0  0  0
   10.5970   -0.1480   -0.0780 C   0  0  0  0  0  0  0  0  0  0  0  0
   10.8350    1.0770   -0.6830 O   0  0  0  0  0  0  0  0  0  0  0  0
    3.6410    1.5560    0.5170 C   0  0  0  0  0  0  0  0  0  0  0  0
    4.1700    2.6940    1.1360 O   0  0  0  0  0  0  0  0  0  0  0  0
    2.2930    1.3880    0.3720 C   0  0  0  0  0  0  0  0  0  0  0  0
   -1.7530   -0.7450    0.1640 C   0  0  0  0  0  0  0  0  0  0  0  0
   -2.5460   -1.3110    0.9650 O   0  0  0  0  0  0  0  0  0  0  0  0
   -2.2510   -0.3990   -1.1130 N   0  0  0  0  0  0  0  0  0  0  0  0
   -3.5380   -0.6250   -1.5780 N   0  0  0  0  0  0  0  0  0  0  0  0
   -4.6760   -0.1810   -0.8160 C   0  0  0  0  0  0  0  0  0  0  0  0
   -4.4110    0.4000    0.2510 O   0  0  0  0  0  0  0  0  0  0  0  0
   -5.9860   -0.4070   -1.2770 N   0  0  0  0  0  0  0  0  0  0  0  0
   -7.1600   -0.0260   -0.6260 C   0  0  0  0  0  0  0  0  0  0  0  0
   -7.1720    0.6270    0.5780 C   0  0  0  0  0  0  0  0  0  0  0  0
   -8.4060    0.9600    1.1420 C   0  0  0  0  0  0  0  0  0  0  0  0
   -9.6080    0.6680    0.5540 C   0  0  0  0  0  0  0  0  0  0  0  0
  -10.8300    1.0160    1.1460 O   0  0  0  0  0  0  0  0  0  0  0  0
   -9.5760    0.0100   -0.6570 C   0  0  0  0  0  0  0  0  0  0  0  0
   -8.3770   -0.3430   -1.2620 C   0  0  0  0  0  0  0  0  0  0  0  0
   -8.4660   -0.9920   -2.4610 O   0  0  0  0  0  0  0  0  0  0  0  0
  2  1  1  1
  2  3  1  0
  2  4  1  0
  2 19  1  0
  4  5  1  0
  5  6  2  0
  5 18  1  0
  6  7  1  0
  7  8  2  0
  8  9  1  0
  8 16  1  0
  9 10  1  0
 10 11  2  0
 10 12  1  0
 12 13  1  0
 13 14  1  0
 14 15  1  0
 16 17  1  0
 16 18  2  0
 19 20  2  0
 19 21  1  0
 21 22  1  0
 22 23  1  0
 23 24  2  0
 23 25  1  0
 25 26  1  0
 26 27  2  0
 26 32  1  0
 27 28  1  0
 28 29  2  0
 29 30  1  0
 29 31  1  0
 31 32  2  0
 32 33  1  0
M  END
