
     RDKit          3D

 33 34  0  0  0  0  0  0  0  0999 V2000
   -5.6580   -3.3260   -0.6030 C   0  0  0  0  0  0  0  0  0  0  0  0
   -5.0550   -2.0340   -1.1820 C   0  0  0  0  0  0  0  0  0  0  0  0
   -5.5110   -0.8610   -0.7910 C   0  0  0  0  0  0  0  0  0  0  0  0
   -5.2630    0.5030   -1.0520 C   0  0  0  0  0  0  0  0  0  0  0  0
   -4.3430    1.4200   -0.6910 C   0  0  0  0  0  0  0  0  0  0  0  0
   -4.6010    2.7620   -1.2970 C   0  0  0  0  0  0  0  0  0  0  0  0
   -3.8450    3.8030   -1.0540 C   0  0  0  0  0  0  0  0  0  0  0  0
   -2.7300    3.7990   -0.2190 O   0  0  0  0  0  0  0  0  0  0  0  0
   -3.2800    1.2960    0.1000 O   0  0  0  0  0  0  0  0  0  0  0  0
   -2.0220    0.7590    0.2170 C   0  0  0  0  0  0  0  0  0  0  0  0
   -1.1240    1.0030   -0.9390 C   0  0  0  0  0  0  0  0  0  0  0  0
   -1.8070    1.4860   -1.9470 O   0  0  0  0  0  0  0  0  0  0  0  0
    0.2500    0.8010   -1.0690 N   0  0  0  0  0  0  0  0  0  0  0  0
    1.2980   -0.0470   -0.6920 C   0  0  0  0  0  0  0  0  0  0  0  0
    2.4120    0.6860    0.0900 C   0  0  0  0  0  0  0  0  0  0  0  0
    3.4760   -0.1680    0.4150 O   0  0  0  0  0  0  0  0  0  0  0  0
    4.5980    0.1940    1.0970 C   0  0  0  0  0  0  0  0  0  0  0  0
    5.6290    0.6660    0.4110 C   0  0  0  0  0  0  0  0  0  0  0  0
    6.8700    1.0800    1.0420 C   0  0  0  0  0  0  0  0  0  0  0  0
    7.9260    1.5690    0.2910 O   0  0  0  0  0  0  0  0  0  0  0  0
    6.9900    0.9870    2.3490 C   0  0  0  0  0  0  0  0  0  0  0  0
    5.9310    0.4920    3.1450 N   0  0  0  0  0  0  0  0  0  0  0  0
    4.7160    0.0840    2.5540 C   0  0  0  0  0  0  0  0  0  0  0  0
    3.6940   -0.3850    3.2350 C   0  0  0  0  0  0  0  0  0  0  0  0
    3.7850   -0.4950    4.6000 O   0  0  0  0  0  0  0  0  0  0  0  0
    1.5650   -1.3180   -0.8920 C   0  0  0  0  0  0  0  0  0  0  0  0
    0.8720   -2.3930   -1.5960 C   0  0  0  0  0  0  0  0  0  0  0  0
    1.4600   -2.9780   -2.6070 O   0  0  0  0  0  0  0  0  0  0  0  0
   -0.4110   -2.9600   -1.3680 N   0  0  0  0  0  0  0  0  0  0  0  0
   -1.6650   -2.3530   -1.2260 N   0  0  0  0  0  0  0  0  0  0  0  0
   -2.6840   -1.9190   -2.0840 C   0  0  0  0  0  0  0  0  0  0  0  0
   -2.4480   -1.0620   -3.0310 O   0  0  0  0  0  0  0  0  0  0  0  0
   -4.0510   -2.2910   -2.0920 O   0  0  0  0  0  0  0  0  0  0  0  0
  1  2  1  0
  2  3  2  0
  2 33  1  0
  3  4  1  0
  4  5  2  0
  5  6  1  0
  5  9  1  0
  6  7  2  3
  7  8  1  0
  9 10  1  0
 10 11  1  0
 11 12  2  0
 11 13  1  0
 13 14  1  0
 14 15  1  0
 14 26  2  0
 15 16  1  0
 16 17  1  0
 17 18  2  0
 17 23  1  0
 18 19  1  0
 19 20  1  0
 19 21  2  0
 21 22  1  0
 22 23  1  0
 23 24  2  3
 24 25  1  0
 26 27  1  0
 27 28  2  0
 27 29  1  0
 29 30  1  0
 30 31  1  0
 31 32  2  0
 31 33  1  0
M  END
