
     RDKit          3D

 32 34  0  0  0  0  0  0  0  0999 V2000
    4.3270   -0.7890   -2.3930 C   0  0  0  0  0  0  0  0  0  0  0  0
    5.1750   -0.8430   -1.1640 C   0  0  0  0  0  0  0  0  0  0  0  0
    6.1660   -1.8050   -1.0230 C   0  0  0  0  0  0  0  0  0  0  0  0
    6.3740   -2.7370   -2.0450 O   0  0  0  0  0  0  0  0  0  0  0  0
    6.9360   -1.8340    0.1220 C   0  0  0  0  0  0  0  0  0  0  0  0
    6.7330   -0.9060    1.1450 C   0  0  0  0  0  0  0  0  0  0  0  0
    5.7450    0.0450    0.9930 C   0  0  0  0  0  0  0  0  0  0  0  0
    5.4900    1.0370    2.0290 C   0  0  0  0  0  0  0  0  0  0  0  0
    6.1990    1.0060    3.0750 O   0  0  0  0  0  0  0  0  0  0  0  0
    4.5150    2.0050    1.9210 O   0  0  0  0  0  0  0  0  0  0  0  0
    4.9720    0.0810   -0.1470 C   0  0  0  0  0  0  0  0  0  0  0  0
    3.9930    1.0530   -0.2560 O   0  0  0  0  0  0  0  0  0  0  0  0
    2.6910    0.8820    0.1770 C   0  0  0  0  0  0  0  0  0  0  0  0
    2.3920   -0.2280    0.6980 O   0  0  0  0  0  0  0  0  0  0  0  0
    1.7020    1.9100    0.0490 N   0  0  0  0  0  0  0  0  0  0  0  0
    0.4150    1.6980    0.4930 N   0  0  0  0  0  0  0  0  0  0  0  0
   -0.5490    1.3680   -0.3300 C   0  0  0  0  0  0  0  0  0  0  0  0
   -0.2050    1.2450   -1.6620 O   0  0  0  0  0  0  0  0  0  0  0  0
   -1.8600    1.1670    0.2170 C   0  0  0  0  0  0  0  0  0  0  0  0
   -2.9780    0.8380   -0.3690 C   0  0  0  0  0  0  0  0  0  0  0  0
   -3.0760    0.6010   -1.8150 C   0  0  0  0  0  0  0  0  0  0  0  0
   -3.5220   -0.7340   -2.0000 O   0  0  0  0  0  0  0  0  0  0  0  0
   -4.2110    0.6990    0.4940 C   0  0  1  0  0  0  0  0  0  0  0  0
   -5.2400    1.6710   -0.0490 C   0  0  0  0  0  0  0  0  0  0  0  0
   -6.5920    1.4560    0.6280 C   0  0  0  0  0  0  0  0  0  0  0  0
   -7.0530    0.1880    0.1350 O   0  0  0  0  0  0  0  0  0  0  0  0
   -6.1310   -0.8600    0.2670 C   0  0  0  0  0  0  0  0  0  0  0  0
   -6.3030   -2.1940    0.2620 N   0  0  0  0  0  0  0  0  0  0  0  0
   -5.1350   -2.8060    0.4200 N   0  0  0  0  0  0  0  0  0  0  0  0
   -4.1530   -1.8940    0.5350 C   0  0  0  0  0  0  0  0  0  0  0  0
   -2.9300   -2.1420    0.6950 O   0  0  0  0  0  0  0  0  0  0  0  0
   -4.7830   -0.6490    0.4380 C   0  0  0  0  0  0  0  0  0  0  0  0
  1  2  1  0
  2  3  2  0
  2 11  1  0
  3  4  1  0
  3  5  1  0
  5  6  2  0
  6  7  1  0
  7  8  1  0
  7 11  2  0
  8  9  2  0
  8 10  1  0
 11 12  1  0
 12 13  1  0
 13 14  2  0
 13 15  1  0
 15 16  1  0
 16 17  2  3
 17 18  1  0
 17 19  1  0
 19 20  2  3
 20 21  1  0
 23 20  1  6
 21 22  1  0
 23 24  1  0
 23 32  1  0
 24 25  1  0
 25 26  1  0
 26 27  1  0
 27 28  1  0
 27 32  2  0
 28 29  1  0
 29 30  1  0
 30 31  2  0
 30 32  1  0
M  END
