
     RDKit          3D

 33 35  0  0  0  0  0  0  0  0999 V2000
   -4.0090   -1.2350    3.1030 C   0  0  0  0  0  0  0  0  0  0  0  0
   -3.3990   -0.5320    2.0390 O   0  0  0  0  0  0  0  0  0  0  0  0
   -2.0010   -0.3670    1.9550 C   0  0  0  0  0  0  0  0  0  0  0  0
   -1.3850   -0.8840    2.8760 O   0  0  0  0  0  0  0  0  0  0  0  0
   -1.4120    0.3880    0.8050 C   0  0  0  0  0  0  0  0  0  0  0  0
   -2.2520    0.8320   -0.0320 C   0  0  0  0  0  0  0  0  0  0  0  0
   -3.6740    0.5210    0.2680 N   0  0  0  0  0  0  0  0  0  0  0  0
   -2.1500    1.6440   -1.2070 C   0  0  0  0  0  0  0  0  0  0  0  0
   -1.0330    2.2000   -1.7540 O   0  0  0  0  0  0  0  0  0  0  0  0
   -3.2810    1.9440   -1.9190 C   0  0  0  0  0  0  0  0  0  0  0  0
   -4.4980    1.4670   -1.5060 O   0  0  0  0  0  0  0  0  0  0  0  0
    0.0920    0.4570    0.8870 C   0  0  1  0  0  0  0  0  0  0  0  0
    0.4830    1.3310    1.9590 C   0  0  0  0  0  0  0  0  0  0  0  0
    0.2900    2.5640    1.8980 O   0  0  0  0  0  0  0  0  0  0  0  0
    1.1020    0.8370    3.1290 N   0  0  0  0  0  0  0  0  0  0  0  0
    1.4350   -0.3880    3.3450 C   0  0  0  0  0  0  0  0  0  0  0  0
    2.0510   -0.7810    4.5460 N   0  0  0  0  0  0  0  0  0  0  0  0
    1.1150   -1.3460    2.2730 C   0  0  0  0  0  0  0  0  0  0  0  0
    0.5210   -0.9650    1.1700 C   0  0  0  0  0  0  0  0  0  0  0  0
    0.3040   -1.5840   -0.1160 N   0  0  0  0  0  0  0  0  0  0  0  0
    0.0040   -2.8910   -0.5690 C   0  0  0  0  0  0  0  0  0  0  0  0
    1.1450   -3.3420   -1.4720 C   0  0  0  0  0  0  0  0  0  0  0  0
    1.6970   -2.2360   -2.3050 C   0  0  0  0  0  0  0  0  0  0  0  0
    0.7500   -1.0680   -2.4680 C   0  0  0  0  0  0  0  0  0  0  0  0
    0.4810   -0.5250   -1.1200 C   0  0  0  0  0  0  0  0  0  0  0  0
    0.7360    0.6170   -0.4490 C   0  0  0  0  0  0  0  0  0  0  0  0
    1.5750    1.6950   -0.8890 C   0  0  0  0  0  0  0  0  0  0  0  0
    1.7820    2.7380   -0.2290 O   0  0  0  0  0  0  0  0  0  0  0  0
    2.2280    1.6260   -2.1300 O   0  0  0  0  0  0  0  0  0  0  0  0
    3.0560    2.6890   -2.5640 C   0  0  0  0  0  0  0  0  0  0  0  0
    4.1830    2.9170   -1.6110 C   0  0  0  0  0  0  0  0  0  0  0  0
    4.9850    3.8420   -1.8990 O   0  0  0  0  0  0  0  0  0  0  0  0
    4.3780    2.1850   -0.4710 O   0  0  0  0  0  0  0  0  0  0  0  0
  1  2  1  0
  2  3  1  0
  3  4  2  0
  3  5  1  0
  5  6  2  3
 12  5  1  6
  6  7  1  0
  6  8  1  0
  8  9  1  0
  8 10  2  3
 10 11  1  0
 12 13  1  0
 12 19  1  0
 12 26  1  0
 13 14  2  0
 13 15  1  0
 15 16  2  0
 16 17  1  0
 16 18  1  0
 18 19  2  0
 19 20  1  0
 20 21  1  0
 20 25  1  0
 21 22  1  0
 22 23  1  0
 23 24  1  0
 24 25  1  0
 25 26  2  0
 26 27  1  0
 27 28  2  0
 27 29  1  0
 29 30  1  0
 30 31  1  0
 31 32  2  0
 31 33  1  0
M  END
