
     RDKit          3D

 33 34  0  0  0  0  0  0  0  0999 V2000
   -5.5090    3.1190   -0.0760 C   0  0  0  0  0  0  0  0  0  0  0  0
   -5.9230    1.9850    0.4480 C   0  0  0  0  0  0  0  0  0  0  0  0
   -6.6920    2.0210    1.7110 C   0  0  0  0  0  0  0  0  0  0  0  0
   -5.6660    0.7630   -0.1380 O   0  0  0  0  0  0  0  0  0  0  0  0
   -4.4120    0.1880   -0.1960 C   0  0  0  0  0  0  0  0  0  0  0  0
   -3.2990    0.7970    0.3340 C   0  0  0  0  0  0  0  0  0  0  0  0
   -2.0130    0.2520    0.2980 C   0  0  0  0  0  0  0  0  0  0  0  0
   -1.8400   -1.0060   -0.3180 C   0  0  0  0  0  0  0  0  0  0  0  0
   -2.9840   -1.5890   -0.8430 C   0  0  0  0  0  0  0  0  0  0  0  0
   -4.2450   -1.0330   -0.7990 C   0  0  0  0  0  0  0  0  0  0  0  0
   -5.3710   -1.6440   -1.3350 O   0  0  0  0  0  0  0  0  0  0  0  0
   -5.1860   -2.9030   -1.9540 C   0  0  0  0  0  0  0  0  0  0  0  0
   -0.6560   -1.6460   -0.4090 O   0  0  0  0  0  0  0  0  0  0  0  0
    0.4520   -1.9740    0.1850 C   0  0  0  0  0  0  0  0  0  0  0  0
    0.6370   -2.3720    1.3940 O   0  0  0  0  0  0  0  0  0  0  0  0
    1.7250   -1.9290   -0.5020 N   0  0  0  0  0  0  0  0  0  0  0  0
    2.1020   -0.9440   -1.4760 C   0  0  0  0  0  0  0  0  0  0  0  0
    3.2460   -0.0900   -1.0480 C   0  0  0  0  0  0  0  0  0  0  0  0
    3.6270    0.7840   -1.9030 O   0  0  0  0  0  0  0  0  0  0  0  0
    3.9600   -0.1390    0.2080 C   0  0  0  0  0  0  0  0  0  0  0  0
    5.3890   -0.4400    0.1970 C   0  0  0  0  0  0  0  0  0  0  0  0
    6.0910   -0.3480    1.4560 O   0  0  0  0  0  0  0  0  0  0  0  0
    6.1690   -0.7860   -0.7720 C   0  0  0  0  0  0  0  0  0  0  0  0
    5.8220   -0.9820   -2.1730 C   0  0  0  0  0  0  0  0  0  0  0  0
    7.5430   -1.0090   -0.4670 O   0  0  0  0  0  0  0  0  0  0  0  0
    3.3720    0.1600    1.3760 C   0  0  0  0  0  0  0  0  0  0  0  0
    4.0740    0.1140    2.6670 C   0  0  0  0  0  0  0  0  0  0  0  0
    1.9790    0.5730    1.4410 N   0  0  0  0  0  0  0  0  0  0  0  0
    1.4400    1.1010    0.4580 N   0  0  0  0  0  0  0  0  0  0  0  0
    0.1390    1.5900    0.2340 C   0  0  1  0  0  0  0  0  0  0  0  0
    0.1100    2.9390    0.8770 N   0  0  0  0  0  0  0  0  0  0  0  0
   -0.0680    1.8840   -1.1220 O   0  0  0  0  0  0  0  0  0  0  0  0
   -0.9300    0.9110    0.8400 O   0  0  0  0  0  0  0  0  0  0  0  0
  1  2  2  0
  2  3  1  0
  2  4  1  0
  4  5  1  0
  5  6  2  0
  5 10  1  0
  6  7  1  0
  7  8  2  0
  7 33  1  0
  8  9  1  0
  8 13  1  0
  9 10  2  0
 10 11  1  0
 11 12  1  0
 13 14  1  0
 14 15  2  0
 14 16  1  0
 16 17  1  0
 17 18  1  0
 18 19  2  0
 18 20  1  0
 20 21  1  0
 20 26  2  0
 21 22  1  0
 21 23  2  3
 23 24  1  0
 23 25  1  0
 26 27  1  0
 26 28  1  0
 28 29  2  0
 29 30  1  0
 30 31  1  1
 30 32  1  0
 30 33  1  0
M  END
