
     RDKit          3D

 39 43  0  0  0  0  0  0  0  0999 V2000
    9.7900   -0.0530    0.0620 C   0  0  0  0  0  0  0  0  0  0  0  0
    8.6990    0.6200    0.2100 C   0  0  0  0  0  0  0  0  0  0  0  0
    7.4270   -0.0280    0.4900 C   0  0  0  0  0  0  0  0  0  0  0  0
    6.2760    0.6080    0.6610 C   0  0  0  0  0  0  0  0  0  0  0  0
    5.2380   -0.2180    0.9260 F   0  0  0  0  0  0  0  0  0  0  0  0
    6.0480    2.0110    0.4730 C   0  0  0  0  0  0  0  0  0  0  0  0
    7.1430    2.7110   -0.1180 F   0  0  0  0  0  0  0  0  0  0  0  0
    5.0050    2.7550    0.6610 C   0  0  0  0  0  0  0  0  0  0  0  0
    3.6620    2.5650    1.0820 C   0  0  0  0  0  0  0  0  0  0  0  0
    2.7980    1.5900    1.0030 C   0  0  0  0  0  0  0  0  0  0  0  0
    1.5730    1.4510    1.4920 N   0  0  0  0  0  0  0  0  0  0  0  0
    0.8240    0.5030    0.8850 C   0  0  0  0  0  0  0  0  0  0  0  0
   -0.3370    0.3130    1.1880 N   0  0  0  0  0  0  0  0  0  0  0  0
   -1.5440    0.0610    1.4510 C   0  0  0  0  0  0  0  0  0  0  0  0
   -2.3080    0.3380    2.4850 N   0  0  0  0  0  0  0  0  0  0  0  0
   -3.6750   -0.0930    2.5840 C   0  0  0  0  0  0  0  0  0  0  0  0
   -4.4400    0.1670    3.5270 O   0  0  0  0  0  0  0  0  0  0  0  0
   -4.2900   -0.9080    1.5210 N   0  0  0  0  0  0  0  0  0  0  0  0
   -5.6430   -0.7780    1.1510 C   0  0  0  0  0  0  0  0  0  0  0  0
   -5.8690   -0.0620   -0.1550 C   0  0  0  0  0  0  0  0  0  0  0  0
   -5.6610   -0.7550   -1.3380 C   0  0  0  0  0  0  0  0  0  0  0  0
   -6.1510   -0.2410   -2.5330 C   0  0  0  0  0  0  0  0  0  0  0  0
   -5.9700   -0.9330   -3.7090 F   0  0  0  0  0  0  0  0  0  0  0  0
   -6.8440    0.9450   -2.5930 C   0  0  0  0  0  0  0  0  0  0  0  0
   -7.0240    1.6070   -1.4010 C   0  0  0  0  0  0  0  0  0  0  0  0
   -6.5440    1.1160   -0.2110 C   0  0  0  0  0  0  0  0  0  0  0  0
   -6.6560    1.9990    0.9980 C   0  0  0  0  0  0  0  0  0  0  0  0
   -3.2330   -1.6200    0.7720 C   0  0  0  0  0  0  0  0  0  0  0  0
   -2.4370   -0.3930    0.2960 C   0  0  0  0  0  0  0  0  0  0  0  0
    1.6280   -0.0000   -0.0630 N   0  0  0  0  0  0  0  0  0  0  0  0
    2.8060    0.6310   -0.0420 C   0  0  0  0  0  0  0  0  0  0  0  0
    3.6660    0.4700   -1.0300 N   0  0  0  0  0  0  0  0  0  0  0  0
    3.6000   -0.5220   -2.0470 C   0  0  0  0  0  0  0  0  0  0  0  0
    2.4340   -1.4420   -1.8500 C   0  0  0  0  0  0  0  0  0  0  0  0
    2.3720   -2.6040   -2.5640 C   0  0  0  0  0  0  0  0  0  0  0  0
    1.3080   -3.4410   -2.4280 C   0  0  0  0  0  0  0  0  0  0  0  0
    0.2860   -3.0880   -1.5480 C   0  0  0  0  0  0  0  0  0  0  0  0
    0.3490   -1.9070   -0.8220 C   0  0  0  0  0  0  0  0  0  0  0  0
    1.4340   -1.0930   -0.9860 C   0  0  0  0  0  0  0  0  0  0  0  0
  1  2  2  0
  2  3  1  0
  3  4  2  3
  4  5  1  0
  4  6  1  0
  6  7  1  0
  6  8  2  3
  8  9  1  0
  9 10  2  3
 10 11  1  0
 10 31  1  0
 11 12  1  0
 12 13  2  3
 12 30  1  0
 13 14  1  0
 14 15  2  0
 14 29  1  0
 15 16  1  0
 16 17  2  0
 16 18  1  0
 18 19  1  0
 18 28  1  0
 19 20  1  0
 20 21  2  0
 20 26  1  0
 21 22  1  0
 22 23  1  0
 22 24  2  0
 24 25  1  0
 25 26  2  0
 26 27  1  0
 28 29  1  0
 30 31  1  0
 30 39  1  0
 31 32  2  0
 32 33  1  0
 33 34  1  0
 34 35  2  0
 34 39  1  0
 35 36  1  0
 36 37  2  0
 37 38  1  0
 38 39  2  0
M  END
