
     RDKit          3D

 39 43  0  0  0  0  0  0  0  0999 V2000
    2.4910    0.7350    2.6240 O   0  0  0  0  0  0  0  0  0  0  0  0
    2.6170    0.5340    1.3340 C   0  0  0  0  0  0  0  0  0  0  0  0
    3.9850    0.6540    0.8940 C   0  0  0  0  0  0  0  0  0  0  0  0
    4.3370    0.7480   -0.4050 C   0  0  0  0  0  0  0  0  0  0  0  0
    5.6960    0.7960   -0.7700 C   0  0  0  0  0  0  0  0  0  0  0  0
    6.6600    0.7500    0.1780 C   0  0  0  0  0  0  0  0  0  0  0  0
    8.1100    0.7990   -0.2110 C   0  0  1  0  0  0  0  0  0  0  0  0
    8.3150   -0.2460   -1.0690 F   0  0  0  0  0  0  0  0  0  0  0  0
    8.3710    1.9850   -0.8730 F   0  0  0  0  0  0  0  0  0  0  0  0
    6.3240    0.6560    1.5060 C   0  0  0  0  0  0  0  0  0  0  0  0
    7.2700    0.6060    2.4850 F   0  0  0  0  0  0  0  0  0  0  0  0
    5.0000    0.6080    1.8580 C   0  0  0  0  0  0  0  0  0  0  0  0
    1.4390    0.2490    0.6570 N   0  0  0  0  0  0  0  0  0  0  0  0
    0.2110    0.2560    1.4270 C   0  0  0  0  0  0  0  0  0  0  0  0
   -0.7810   -0.4670    1.4020 N   0  0  0  0  0  0  0  0  0  0  0  0
   -1.4720   -1.5090    0.9070 C   0  0  0  0  0  0  0  0  0  0  0  0
   -1.5080   -2.7630    1.6740 N   0  0  0  0  0  0  0  0  0  0  0  0
   -0.5050   -3.7080    1.3970 C   0  0  0  0  0  0  0  0  0  0  0  0
    0.7540   -3.5100    1.0010 C   0  0  0  0  0  0  0  0  0  0  0  0
    1.4540   -4.8070    0.8310 C   0  0  0  0  0  0  0  0  0  0  0  0
    0.4210   -5.8000    1.1870 C   0  0  0  0  0  0  0  0  0  0  0  0
   -0.6910   -5.1630    1.5070 C   0  0  0  0  0  0  0  0  0  0  0  0
   -2.1730   -1.5930   -0.2220 C   0  0  0  0  0  0  0  0  0  0  0  0
   -2.9390   -2.7530   -0.7690 C   0  0  0  0  0  0  0  0  0  0  0  0
   -2.4140   -2.6490   -2.2100 C   0  0  0  0  0  0  0  0  0  0  0  0
   -2.7580   -1.2070   -2.4650 C   0  0  0  0  0  0  0  0  0  0  0  0
   -2.3060   -0.4790   -1.2050 C   0  0  0  0  0  0  0  0  0  0  0  0
   -2.0340    0.6280   -0.8120 N   0  0  0  0  0  0  0  0  0  0  0  0
   -1.7830    1.9000   -0.5720 C   0  0  0  0  0  0  0  0  0  0  0  0
   -2.8230    2.7580   -0.0090 N   0  0  0  0  0  0  0  0  0  0  0  0
   -3.3040    3.8590   -0.8140 C   0  0  0  0  0  0  0  0  0  0  0  0
   -4.7840    4.1090   -0.5960 C   0  0  0  0  0  0  0  0  0  0  0  0
   -5.4700    2.8830   -0.0330 C   0  0  0  0  0  0  0  0  0  0  0  0
   -4.8780    2.5600    1.3140 C   0  0  0  0  0  0  0  0  0  0  0  0
   -3.3740    2.5450    1.2930 C   0  0  0  0  0  0  0  0  0  0  0  0
   -0.6980    2.5800   -0.7310 N   0  0  0  0  0  0  0  0  0  0  0  0
    0.5730    2.2760   -1.1880 C   0  0  0  0  0  0  0  0  0  0  0  0
    0.9140    0.9360   -1.6910 C   0  0  0  0  0  0  0  0  0  0  0  0
    1.3720   -0.0950   -0.7480 C   0  0  0  0  0  0  0  0  0  0  0  0
  1  2  2  0
  2  3  1  0
  2 13  1  0
  3  4  2  0
  3 12  1  0
  4  5  1  0
  5  6  2  0
  6  7  1  0
  6 10  1  0
  7  8  1  6
  7  9  1  0
 10 11  1  0
 10 12  2  0
 13 14  1  0
 13 39  1  0
 14 15  2  0
 15 16  1  0
 16 17  1  0
 16 23  2  0
 17 18  1  0
 18 19  2  0
 18 22  1  0
 19 20  1  0
 20 21  1  0
 21 22  2  0
 23 24  1  0
 23 27  1  0
 24 25  1  0
 25 26  1  0
 26 27  1  0
 27 28  2  0
 28 29  1  0
 29 30  1  0
 29 36  2  0
 30 31  1  0
 30 35  1  0
 31 32  1  0
 32 33  1  0
 33 34  1  0
 34 35  1  0
 36 37  1  0
 37 38  1  0
 38 39  1  0
M  END
