
     RDKit          3D

 38 41  0  0  0  0  0  0  0  0999 V2000
    1.5730   -0.0530   -3.4280 C   0  0  0  0  0  0  0  0  0  0  0  0
    1.6430    0.1170   -1.8950 C   0  0  2  0  0  0  0  0  0  0  0  0
    1.2760    1.4970   -1.5910 C   0  0  0  0  0  0  0  0  0  0  0  0
    3.0150   -0.0990   -1.6100 O   0  0  0  0  0  0  0  0  0  0  0  0
    3.1270   -0.2690   -0.2490 C   0  0  1  0  0  0  0  0  0  0  0  0
    4.1470   -1.3400    0.0250 C   0  0  0  0  0  0  0  0  0  0  0  0
    4.6990   -1.2840    1.4580 C   0  0  0  0  0  0  0  0  0  0  0  0
    5.3830    0.0660    1.5470 C   0  0  1  0  0  0  0  0  0  0  0  0
    5.8590    0.2250    3.0160 C   0  0  0  0  0  0  0  0  0  0  0  0
    6.8330   -0.7020    3.3420 O   0  0  0  0  0  0  0  0  0  0  0  0
    6.6200    0.1400    0.7230 C   0  0  0  0  0  0  0  0  0  0  0  0
    7.3000    1.4640    0.7520 C   0  0  0  0  0  0  0  0  0  0  0  0
    7.9790    1.8730    1.7380 O   0  0  0  0  0  0  0  0  0  0  0  0
    7.2010    2.3150   -0.3420 O   0  0  0  0  0  0  0  0  0  0  0  0
    4.4370    1.0100    1.3830 O   0  0  0  0  0  0  0  0  0  0  0  0
    3.6010    1.0090    0.3360 C   0  0  0  0  0  0  0  0  0  0  0  0
    1.7410   -0.7130    0.1960 C   0  0  0  0  0  0  0  0  0  0  0  0
    1.0400   -1.0100   -1.1650 C   0  0  2  0  0  0  0  0  0  0  0  0
    1.6820   -2.2780   -1.6910 C   0  0  0  0  0  0  0  0  0  0  0  0
   -0.3960   -1.1670   -1.0030 C   0  0  1  0  0  0  0  0  0  0  0  0
   -1.1860   -1.1810   -2.2220 N   0  0  0  0  0  0  0  0  0  0  0  0
   -0.7140   -2.6410   -0.5140 C   0  0  0  0  0  0  0  0  0  0  0  0
   -0.0810   -2.9800    0.6180 O   0  0  0  0  0  0  0  0  0  0  0  0
   -1.0400   -0.3510    0.0400 C   0  0  0  0  0  0  0  0  0  0  0  0
   -0.8630   -0.4900    1.4290 C   0  0  0  0  0  0  0  0  0  0  0  0
   -1.6290    0.4450    2.0610 C   0  0  0  0  0  0  0  0  0  0  0  0
   -2.2670    1.1530    1.0610 C   0  0  0  0  0  0  0  0  0  0  0  0
   -3.2170    2.2920    1.3730 C   0  0  0  0  0  0  0  0  0  0  0  0
   -4.5120    1.7720    1.4150 O   0  0  0  0  0  0  0  0  0  0  0  0
   -4.9310    1.2870    0.1800 C   0  0  1  0  0  0  0  0  0  0  0  0
   -5.2130   -0.1880    0.2210 C   0  0  0  0  0  0  0  0  0  0  0  0
   -6.4810   -0.3900   -0.5960 C   0  0  1  0  0  0  0  0  0  0  0  0
   -7.2280   -1.4730   -0.1550 O   0  0  0  0  0  0  0  0  0  0  0  0
   -7.2660    0.8980   -0.3670 C   0  0  1  0  0  0  0  0  0  0  0  0
   -8.1380    0.7700    0.8600 C   0  0  0  0  0  0  0  0  0  0  0  0
   -8.8440    1.9300    1.0820 O   0  0  0  0  0  0  0  0  0  0  0  0
   -6.2210    1.9720   -0.2460 C   0  0  0  0  0  0  0  0  0  0  0  0
   -1.8990    0.6610   -0.0660 O   0  0  0  0  0  0  0  0  0  0  0  0
  2  1  1  6
  2  3  1  0
  2  4  1  0
  2 18  1  0
  4  5  1  0
  5  6  1  6
  5 16  1  0
  5 17  1  0
  6  7  1  0
  7  8  1  0
  8  9  1  1
  8 11  1  0
  8 15  1  0
  9 10  1  0
 11 12  1  0
 12 13  2  0
 12 14  1  0
 15 16  1  0
 17 18  1  0
 18 19  1  6
 18 20  1  0
 20 21  1  6
 20 22  1  0
 20 24  1  0
 22 23  1  0
 24 25  2  0
 24 38  1  0
 25 26  1  0
 26 27  2  0
 27 28  1  0
 27 38  1  0
 28 29  1  0
 30 29  1  1
 30 31  1  0
 30 37  1  0
 31 32  1  0
 32 33  1  1
 32 34  1  0
 34 35  1  1
 34 37  1  0
 35 36  1  0
M  CHG  1  21   1
M  END
