
     RDKit          3D

 39 43  0  0  0  0  0  0  0  0999 V2000
    6.2990    4.7640    1.2210 C   0  0  0  0  0  0  0  0  0  0  0  0
    6.1560    3.4090    0.6110 C   0  0  0  0  0  0  0  0  0  0  0  0
    7.2250    2.5410    0.5410 C   0  0  0  0  0  0  0  0  0  0  0  0
    7.1210    1.2890   -0.0170 C   0  0  0  0  0  0  0  0  0  0  0  0
    5.9280    0.8540   -0.5310 C   0  0  0  0  0  0  0  0  0  0  0  0
    5.7990   -0.3640   -1.1240 F   0  0  0  0  0  0  0  0  0  0  0  0
    4.8190    1.6800   -0.4880 C   0  0  0  0  0  0  0  0  0  0  0  0
    3.5620    1.3450   -0.9360 N   0  0  0  0  0  0  0  0  0  0  0  0
    2.7350    0.4340   -0.6650 C   0  0  0  0  0  0  0  0  0  0  0  0
    1.4350    0.2870   -1.3050 N   0  0  0  0  0  0  0  0  0  0  0  0
    0.7300   -0.8100   -0.7360 C   0  0  0  0  0  0  0  0  0  0  0  0
   -0.5060   -1.2010   -1.0650 C   0  0  0  0  0  0  0  0  0  0  0  0
   -1.1590   -2.3290   -0.4520 C   0  0  0  0  0  0  0  0  0  0  0  0
   -0.5780   -3.5750   -0.4200 C   0  0  0  0  0  0  0  0  0  0  0  0
   -1.2480   -4.6150    0.2250 C   0  0  0  0  0  0  0  0  0  0  0  0
   -2.4700   -4.4030    0.8190 C   0  0  0  0  0  0  0  0  0  0  0  0
   -3.1130   -5.5650    1.4840 C   0  0  0  0  0  0  0  0  0  0  0  0
   -3.0150   -3.1500    0.7650 C   0  0  0  0  0  0  0  0  0  0  0  0
   -2.3950   -2.0910    0.1410 C   0  0  0  0  0  0  0  0  0  0  0  0
   -2.9500   -0.8170    0.0940 N   0  0  0  0  0  0  0  0  0  0  0  0
   -3.5400   -0.3010   -0.9110 C   0  0  0  0  0  0  0  0  0  0  0  0
   -3.7900   -0.7840   -2.1360 N   0  0  0  0  0  0  0  0  0  0  0  0
   -3.4350   -2.0920   -2.6470 C   0  0  0  0  0  0  0  0  0  0  0  0
   -4.4580    0.1680   -2.8670 C   0  0  0  0  0  0  0  0  0  0  0  0
   -4.5930    1.2470   -2.0120 C   0  0  0  0  0  0  0  0  0  0  0  0
   -4.0400    0.9710   -0.8250 N   0  0  0  0  0  0  0  0  0  0  0  0
   -3.9830    1.8230    0.2980 C   0  0  0  0  0  0  0  0  0  0  0  0
   -5.1330    2.4410    0.8140 C   0  0  0  0  0  0  0  0  0  0  0  0
   -5.0700    3.2630    1.9000 C   0  0  0  0  0  0  0  0  0  0  0  0
   -3.8470    3.4970    2.5120 C   0  0  0  0  0  0  0  0  0  0  0  0
   -3.8220    4.3070    3.5710 F   0  0  0  0  0  0  0  0  0  0  0  0
   -2.7260    2.8830    1.9930 C   0  0  0  0  0  0  0  0  0  0  0  0
   -2.7800    2.0540    0.8990 C   0  0  0  0  0  0  0  0  0  0  0  0
   -1.6310    1.4970    0.4640 F   0  0  0  0  0  0  0  0  0  0  0  0
    1.6210   -1.3410    0.2750 C   0  0  0  0  0  0  0  0  0  0  0  0
    1.3830   -2.3400    1.0380 O   0  0  0  0  0  0  0  0  0  0  0  0
    2.8410   -0.5730    0.3080 N   0  0  0  0  0  0  0  0  0  0  0  0
    3.8830   -0.8950    1.2700 C   0  0  0  0  0  0  0  0  0  0  0  0
    4.9750    2.9520    0.0910 C   0  0  0  0  0  0  0  0  0  0  0  0
  1  2  1  0
  2  3  2  0
  2 39  1  0
  3  4  1  0
  4  5  2  0
  5  6  1  0
  5  7  1  0
  7  8  1  0
  7 39  2  0
  8  9  2  3
  9 10  1  0
  9 37  1  0
 10 11  1  0
 11 12  2  3
 11 35  1  0
 12 13  1  0
 13 14  2  0
 13 19  1  0
 14 15  1  0
 15 16  2  0
 16 17  1  0
 16 18  1  0
 18 19  2  0
 19 20  1  0
 20 21  2  3
 21 22  1  0
 21 26  1  0
 22 23  1  0
 22 24  1  0
 24 25  2  0
 25 26  1  0
 26 27  1  0
 27 28  2  0
 27 33  1  0
 28 29  1  0
 29 30  2  0
 30 31  1  0
 30 32  1  0
 32 33  2  0
 33 34  1  0
 35 36  2  0
 35 37  1  0
 37 38  1  0
M  END
