
     RDKit          3D

 38 41  0  0  0  0  0  0  0  0999 V2000
   -7.1160    1.6630    1.2850 C   0  0  0  0  0  0  0  0  0  0  0  0
   -6.9690    0.2280    0.7930 C   0  0  1  0  0  0  0  0  0  0  0  0
   -7.7310   -0.6430    1.7700 C   0  0  0  0  0  0  0  0  0  0  0  0
   -7.6150    0.0800   -0.5240 C   0  0  0  0  0  0  0  0  0  0  0  0
   -8.8870    0.4210   -0.7180 C   0  0  0  0  0  0  0  0  0  0  0  0
   -9.6030    0.3060   -1.9860 C   0  0  0  0  0  0  0  0  0  0  0  0
   -8.7420    0.1130   -3.1900 C   0  0  0  0  0  0  0  0  0  0  0  0
   -7.5400   -0.5740   -2.8960 O   0  0  0  0  0  0  0  0  0  0  0  0
   -6.8960   -0.4470   -1.6710 C   0  0  0  0  0  0  0  0  0  0  0  0
   -5.6380   -0.7920   -1.5080 C   0  0  0  0  0  0  0  0  0  0  0  0
   -4.9550   -0.6660   -0.2390 C   0  0  0  0  0  0  0  0  0  0  0  0
   -5.5660   -0.1940    0.8280 C   0  0  0  0  0  0  0  0  0  0  0  0
   -4.8530   -0.0890    2.0500 O   0  0  0  0  0  0  0  0  0  0  0  0
   -3.4580    0.0640    2.0700 C   0  0  0  0  0  0  0  0  0  0  0  0
   -2.8670    0.0740    0.6750 C   0  0  1  0  0  0  0  0  0  0  0  0
   -1.4990   -0.1540    0.7730 O   0  0  0  0  0  0  0  0  0  0  0  0
   -0.5190    0.6860    0.2740 C   0  0  0  0  0  0  0  0  0  0  0  0
   -0.8720    1.7330   -0.3110 O   0  0  0  0  0  0  0  0  0  0  0  0
    0.8830    0.2850    0.4700 C   0  0  1  0  0  0  0  0  0  0  0  0
    1.1930   -1.0560   -0.1480 C   0  0  0  0  0  0  0  0  0  0  0  0
    2.7340   -0.9800   -0.0710 C   0  0  1  0  0  0  0  0  0  0  0  0
    3.0650   -1.3350    1.2730 N   0  0  0  0  0  0  0  0  0  0  0  0
    3.3250   -1.9400   -1.0860 C   0  0  0  0  0  0  0  0  0  0  0  0
    2.8380   -3.2450   -0.8680 O   0  0  0  0  0  0  0  0  0  0  0  0
    2.9520    0.4510   -0.4260 C   0  0  2  0  0  0  0  0  0  0  0  0
    4.1790    1.1020    0.0930 C   0  0  0  0  0  0  0  0  0  0  0  0
    5.3300    0.4860   -0.3130 O   0  0  0  0  0  0  0  0  0  0  0  0
    6.4400    1.1680    0.1760 C   0  0  2  0  0  0  0  0  0  0  0  0
    7.2350    1.8300   -0.9470 C   0  0  0  0  0  0  0  0  0  0  0  0
    6.4750    2.8500   -1.7180 C   0  0  0  0  0  0  0  0  0  0  0  0
    6.0380    3.9320   -0.9770 O   0  0  0  0  0  0  0  0  0  0  0  0
    7.3130    0.3810    1.0740 C   0  0  0  0  0  0  0  0  0  0  0  0
    7.9870   -0.8200    0.5460 C   0  0  2  0  0  0  0  0  0  0  0  0
    8.8490   -0.5270   -0.5250 O   0  0  0  0  0  0  0  0  0  0  0  0
    7.1380   -2.0140    0.2610 C   0  0  0  0  0  0  0  0  0  0  0  0
    6.2650   -2.3360    1.2610 O   0  0  0  0  0  0  0  0  0  0  0  0
    1.7980    1.1500   -0.0400 O   0  0  0  0  0  0  0  0  0  0  0  0
   -3.5170   -1.0650   -0.0820 C   0  0  0  0  0  0  0  0  0  0  0  0
  2  1  1  1
  2  3  1  0
  2  4  1  0
  2 12  1  0
  4  5  2  0
  4  9  1  0
  5  6  1  0
  6  7  1  0
  7  8  1  0
  8  9  1  0
  9 10  2  0
 10 11  1  0
 11 12  2  0
 11 38  1  0
 12 13  1  0
 13 14  1  0
 14 15  1  0
 15 16  1  1
 15 38  1  0
 16 17  1  0
 17 18  2  0
 19 17  1  6
 19 20  1  0
 19 37  1  0
 20 21  1  0
 21 22  1  1
 21 23  1  0
 21 25  1  0
 23 24  1  0
 25 26  1  1
 25 37  1  0
 26 27  1  0
 27 28  1  0
 28 29  1  6
 28 32  1  0
 29 30  1  0
 30 31  1  0
 32 33  1  0
 33 34  1  6
 33 35  1  0
 35 36  1  0
M  CHG  1  22   1
M  END
