
     RDKit          3D

 39 43  0  0  0  0  0  0  0  0999 V2000
   -7.8340    2.8550   -3.3500 C   0  0  0  0  0  0  0  0  0  0  0  0
   -7.7110    2.0710   -2.0770 C   0  0  0  0  0  0  0  0  0  0  0  0
   -8.8580    1.8110   -1.3620 C   0  0  0  0  0  0  0  0  0  0  0  0
   -8.7310    1.0930   -0.2010 C   0  0  0  0  0  0  0  0  0  0  0  0
   -7.5170    0.6250    0.2790 C   0  0  0  0  0  0  0  0  0  0  0  0
   -6.3790    0.8930   -0.4450 C   0  0  0  0  0  0  0  0  0  0  0  0
   -5.0710    0.4550   -0.0380 C   0  0  0  0  0  0  0  0  0  0  0  0
   -4.8760   -0.2440    1.0750 C   0  0  0  0  0  0  0  0  0  0  0  0
   -3.5330   -0.6780    1.4660 C   0  0  0  0  0  0  0  0  0  0  0  0
   -2.5570   -0.3530    0.6880 N   0  0  0  0  0  0  0  0  0  0  0  0
   -1.2420   -0.7520    1.0280 C   0  0  0  0  0  0  0  0  0  0  0  0
   -0.9440   -1.4740    2.1550 C   0  0  0  0  0  0  0  0  0  0  0  0
    0.3310   -1.8040    2.3910 N   0  0  0  0  0  0  0  0  0  0  0  0
    0.6740   -2.5040    3.4700 C   0  0  0  0  0  0  0  0  0  0  0  0
    1.9770   -2.8700    3.7590 C   0  0  0  0  0  0  0  0  0  0  0  0
    2.9580   -2.4790    2.8680 C   0  0  0  0  0  0  0  0  0  0  0  0
    2.6410   -1.7560    1.7440 C   0  0  0  0  0  0  0  0  0  0  0  0
    3.7020   -1.3590    0.8230 C   0  0  0  0  0  0  0  0  0  0  0  0
    3.4910   -0.6890   -0.2380 N   0  0  0  0  0  0  0  0  0  0  0  0
    4.5620   -0.3510   -1.0630 N   0  0  0  0  0  0  0  0  0  0  0  0
    5.5410    0.5780   -0.5200 C   0  0  0  0  0  0  0  0  0  0  0  0
    6.6320    0.8720   -1.4660 C   0  0  0  0  0  0  0  0  0  0  0  0
    6.8530    2.1050   -1.8780 C   0  0  0  0  0  0  0  0  0  0  0  0
    7.9110    2.4700   -2.8110 C   0  0  0  0  0  0  0  0  0  0  0  0
    8.0780    3.7540   -3.1880 C   0  0  0  0  0  0  0  0  0  0  0  0
    7.2300    4.6830   -2.6700 F   0  0  0  0  0  0  0  0  0  0  0  0
    9.0580    4.0640   -4.0460 F   0  0  0  0  0  0  0  0  0  0  0  0
    8.8060    1.4380   -3.3470 C   0  0  0  0  0  0  0  0  0  0  0  0
    8.4840    0.1080   -2.8350 C   0  0  0  0  0  0  0  0  0  0  0  0
    7.5120   -0.1580   -1.9910 C   0  0  0  0  0  0  0  0  0  0  0  0
    7.3190   -1.4260   -1.5950 F   0  0  0  0  0  0  0  0  0  0  0  0
    1.3230   -1.4300    1.5260 C   0  0  0  0  0  0  0  0  0  0  0  0
    1.0460   -0.7190    0.4120 N   0  0  0  0  0  0  0  0  0  0  0  0
   -0.2150   -0.3780    0.1540 C   0  0  0  0  0  0  0  0  0  0  0  0
   -0.4670    0.2850   -0.8860 O   0  0  0  0  0  0  0  0  0  0  0  0
   -2.0000   -1.8760    3.0820 C   0  0  0  0  0  0  0  0  0  0  0  0
   -3.3050   -1.4140    2.6350 N   0  0  0  0  0  0  0  0  0  0  0  0
   -4.4740   -1.7390    3.4620 C   0  0  0  0  0  0  0  0  0  0  0  0
   -6.4960    1.6210   -1.6280 C   0  0  0  0  0  0  0  0  0  0  0  0
  1  2  1  0
  2  3  2  0
  2 39  1  0
  3  4  1  0
  4  5  2  0
  5  6  1  0
  6  7  1  0
  6 39  2  0
  7  8  2  3
  8  9  1  0
  9 10  2  0
  9 37  1  0
 10 11  1  0
 11 12  2  0
 11 34  1  0
 12 13  1  0
 12 36  1  0
 13 14  1  0
 13 32  1  0
 14 15  2  0
 15 16  1  0
 16 17  2  0
 17 18  1  0
 17 32  1  0
 18 19  2  3
 19 20  1  0
 20 21  1  0
 21 22  1  0
 22 23  2  0
 22 30  1  0
 23 24  1  0
 24 25  2  3
 24 28  1  0
 25 26  1  0
 25 27  1  0
 28 29  1  0
 29 30  2  0
 30 31  1  0
 32 33  2  0
 33 34  1  0
 34 35  2  0
 36 37  1  0
 37 38  1  0
M  END
