
     RDKit          3D

 42 46  0  0  0  0  0  0  0  0999 V2000
   -9.2350   -0.3300    2.1850 C   0  0  0  0  0  0  0  0  0  0  0  0
   -7.9870    0.4820    1.8300 C   0  0  1  0  0  0  0  0  0  0  0  0
   -6.7980   -0.4510    1.9670 C   0  0  0  0  0  0  0  0  0  0  0  0
   -5.6950    0.1000    1.3080 N   0  0  0  0  0  0  0  0  0  0  0  0
   -4.4230   -0.4610    1.0490 C   0  0  0  0  0  0  0  0  0  0  0  0
   -3.3410    0.1900    1.6380 C   0  0  0  0  0  0  0  0  0  0  0  0
   -2.0240   -0.2170    1.4550 C   0  0  0  0  0  0  0  0  0  0  0  0
   -1.8070   -1.3230    0.6490 C   0  0  0  0  0  0  0  0  0  0  0  0
   -0.4550   -1.8100    0.4360 C   0  0  0  0  0  0  0  0  0  0  0  0
    0.6550   -1.5070    0.8120 N   0  0  0  0  0  0  0  0  0  0  0  0
    1.2940   -0.6080    1.5950 C   0  0  0  0  0  0  0  0  0  0  0  0
    2.4240   -0.0090    1.4420 C   0  0  0  0  0  0  0  0  0  0  0  0
    3.4440   -0.0240    0.4580 C   0  0  0  0  0  0  0  0  0  0  0  0
    4.5070    0.7830    0.5540 N   0  0  0  0  0  0  0  0  0  0  0  0
    5.3730    0.5790   -0.5320 C   0  0  0  0  0  0  0  0  0  0  0  0
    6.5400    1.1610   -0.7990 C   0  0  0  0  0  0  0  0  0  0  0  0
    7.1090    2.1840    0.1030 C   0  0  0  0  0  0  0  0  0  0  0  0
    8.4050    1.6310    0.5350 N   0  0  1  0  0  0  0  0  0  0  0  0
    9.3510    1.8750   -0.5490 C   0  0  0  0  0  0  0  0  0  0  0  0
   10.5820    1.0380   -0.2530 C   0  0  0  0  0  0  0  0  0  0  0  0
   10.9290    1.1190    1.1370 N   0  0  0  0  0  0  0  0  0  0  0  0
   10.3890    2.2900    1.7870 C   0  0  0  0  0  0  0  0  0  0  0  0
    8.8600    2.1860    1.7790 C   0  0  0  0  0  0  0  0  0  0  0  0
    4.8000   -0.4480   -1.3740 C   0  0  0  0  0  0  0  0  0  0  0  0
    5.1910   -1.0680   -2.5410 C   0  0  0  0  0  0  0  0  0  0  0  0
    4.4440   -2.0530   -3.1260 C   0  0  0  0  0  0  0  0  0  0  0  0
    4.9080   -2.8460   -4.6040 Cl  0  0  0  0  0  0  0  0  0  0  0  0
    3.3140   -2.3890   -2.5180 N   0  0  0  0  0  0  0  0  0  0  0  0
    2.8890   -1.8040   -1.3650 C   0  0  0  0  0  0  0  0  0  0  0  0
    3.6060   -0.8130   -0.7450 C   0  0  0  0  0  0  0  0  0  0  0  0
   -2.8930   -1.9580    0.0740 C   0  0  0  0  0  0  0  0  0  0  0  0
   -4.2220   -1.5440    0.2580 C   0  0  0  0  0  0  0  0  0  0  0  0
   -5.3370   -2.2530   -0.3380 C   0  0  0  0  0  0  0  0  0  0  0  0
   -6.2200   -1.4670   -1.1190 N   0  0  0  0  0  0  0  0  0  0  0  0
   -7.5210   -2.2130   -1.8640 S   0  0  1  0  0  0  0  0  0  0  0  0
   -6.8510   -3.4010   -3.0500 C   0  0  0  0  0  0  0  0  0  0  0  0
   -8.5020   -2.8900   -0.9480 O   0  0  0  0  0  0  0  0  0  0  0  0
   -8.2670   -1.1840   -2.6480 O   0  0  0  0  0  0  0  0  0  0  0  0
   -5.8710    1.4500    0.8250 C   0  0  0  0  0  0  0  0  0  0  0  0
   -7.1830    1.8080    0.2410 C   0  0  1  0  0  0  0  0  0  0  0  0
   -7.1330    2.2420   -1.2140 C   0  0  0  0  0  0  0  0  0  0  0  0
   -8.1590    0.8840    0.5050 O   0  0  0  0  0  0  0  0  0  0  0  0
  2  1  1  6
  2  3  1  0
  2 42  1  0
  3  4  1  0
  4  5  1  0
  4 39  1  0
  5  6  2  0
  5 32  1  0
  6  7  1  0
  7  8  2  0
  8  9  1  0
  8 31  1  0
  9 10  2  3
 10 11  1  0
 11 12  2  3
 12 13  1  0
 13 14  2  0
 13 30  1  0
 14 15  1  0
 15 16  2  3
 15 24  1  0
 16 17  1  0
 18 17  1  6
 18 19  1  0
 18 23  1  0
 19 20  1  0
 20 21  1  0
 21 22  1  0
 22 23  1  0
 24 25  2  0
 24 30  1  0
 25 26  1  0
 26 27  1  0
 26 28  2  0
 28 29  1  0
 29 30  2  0
 31 32  2  0
 32 33  1  0
 33 34  1  0
 34 35  1  0
 35 36  1  6
 35 37  2  0
 35 38  2  0
 39 40  1  0
 40 41  1  6
 40 42  1  0
M  CHG  2  14   1  18   1
M  END
