
     RDKit          3D

 41 45  0  0  0  0  0  0  0  0999 V2000
    2.5670    2.6110   -1.1590 C   0  0  0  0  0  0  0  0  0  0  0  0
    1.4700    1.6230   -0.9830 C   0  0  0  0  0  0  0  0  0  0  0  0
    0.1540    1.9200   -0.9860 N   0  0  0  0  0  0  0  0  0  0  0  0
   -0.5840    0.8440   -0.8070 N   0  0  0  0  0  0  0  0  0  0  0  0
   -1.9990    0.7280   -0.7430 C   0  0  0  0  0  0  0  0  0  0  0  0
   -2.6080    1.0900    0.4380 C   0  0  0  0  0  0  0  0  0  0  0  0
   -3.9800    1.0010    0.5620 C   0  0  0  0  0  0  0  0  0  0  0  0
   -4.8090    0.5520   -0.4660 C   0  0  0  0  0  0  0  0  0  0  0  0
   -6.1960    0.5020   -0.2170 N   0  0  0  0  0  0  0  0  0  0  0  0
   -7.2140    0.1460   -1.1050 C   0  0  0  0  0  0  0  0  0  0  0  0
   -6.9410   -0.1790   -2.2760 O   0  0  0  0  0  0  0  0  0  0  0  0
   -8.6310    0.1450   -0.6790 C   0  0  1  0  0  0  0  0  0  0  0  0
   -9.5530   -0.2740   -1.8000 C   0  0  0  0  0  0  0  0  0  0  0  0
  -10.9110   -0.4850   -1.2180 C   0  0  0  0  0  0  0  0  0  0  0  0
  -11.8580   -0.7660   -1.9840 O   0  0  0  0  0  0  0  0  0  0  0  0
  -11.1710   -0.3760    0.2060 C   0  0  0  0  0  0  0  0  0  0  0  0
  -10.2100   -0.5340    1.0750 C   0  0  0  0  0  0  0  0  0  0  0  0
  -10.5380   -0.4120    2.4940 C   0  0  0  0  0  0  0  0  0  0  0  0
  -11.8180    0.2820    2.6890 C   0  0  0  0  0  0  0  0  0  0  0  0
  -12.2650    0.9380    3.6600 N   0  0  0  0  0  0  0  0  0  0  0  0
  -12.6580   -0.0260    1.1440 S   0  0  0  0  0  0  0  0  0  0  0  0
   -8.8570   -0.8310    0.4710 C   0  0  0  0  0  0  0  0  0  0  0  0
   -4.1840    0.1980   -1.6250 C   0  0  0  0  0  0  0  0  0  0  0  0
   -2.7930    0.2850   -1.7620 C   0  0  0  0  0  0  0  0  0  0  0  0
    0.2770   -0.1970   -0.6830 C   0  0  0  0  0  0  0  0  0  0  0  0
   -0.0600   -1.6360   -0.4630 C   0  0  0  0  0  0  0  0  0  0  0  0
    1.5650    0.2620   -0.7890 C   0  0  0  0  0  0  0  0  0  0  0  0
    2.8050   -0.4450   -0.7200 N   0  0  0  0  0  0  0  0  0  0  0  0
    3.4900   -0.6710    0.4850 C   0  0  0  0  0  0  0  0  0  0  0  0
    2.9600   -0.2160    1.5460 O   0  0  0  0  0  0  0  0  0  0  0  0
    4.7040   -1.3600    0.5730 N   0  0  0  0  0  0  0  0  0  0  0  0
    5.3170   -1.5380    1.9010 C   0  0  0  0  0  0  0  0  0  0  0  0
    6.7350   -1.9980    1.6530 C   0  0  0  0  0  0  0  0  0  0  0  0
    7.3440   -1.0110    0.7230 N   0  0  1  0  0  0  0  0  0  0  0  0
    8.7450   -1.1950    0.7450 C   0  0  0  0  0  0  0  0  0  0  0  0
    9.5700   -0.2150    0.0170 C   0  0  0  0  0  0  0  0  0  0  0  0
    9.5790    1.1990    0.4400 C   0  0  1  0  0  0  0  0  0  0  0  0
   10.5680    1.9360   -0.5040 C   0  0  0  0  0  0  0  0  0  0  0  0
    8.3020    1.9540    0.4620 C   0  0  0  0  0  0  0  0  0  0  0  0
    6.8040   -1.2390   -0.6100 C   0  0  0  0  0  0  0  0  0  0  0  0
    5.4510   -1.9340   -0.5180 C   0  0  0  0  0  0  0  0  0  0  0  0
  1  2  1  0
  2  3  2  0
  2 27  1  0
  3  4  1  0
  4  5  1  0
  4 25  1  0
  5  6  2  0
  5 24  1  0
  6  7  1  0
  7  8  2  0
  8  9  1  0
  8 23  1  0
  9 10  1  0
 10 11  2  0
 12 10  1  6
 12 13  1  0
 12 22  1  0
 13 14  1  0
 14 15  2  0
 14 16  1  0
 16 17  2  0
 16 21  1  0
 17 18  1  0
 17 22  1  0
 18 19  1  0
 19 20  2  0
 19 21  1  0
 23 24  2  0
 25 26  1  0
 25 27  2  0
 27 28  1  0
 28 29  1  0
 29 30  2  0
 29 31  1  0
 31 32  1  0
 31 41  1  0
 32 33  1  0
 33 34  1  0
 34 35  1  6
 34 40  1  0
 35 36  1  0
 36 37  1  0
 37 38  1  6
 37 39  1  0
 40 41  1  0
M  CHG  2  20   1  34   1
M  END
