
     RDKit          3D

 42 47  0  0  0  0  0  0  0  0999 V2000
   -3.8130    7.8500    2.2610 C   0  0  0  0  0  0  0  0  0  0  0  0
   -3.7800    7.1910    1.0210 O   0  0  0  0  0  0  0  0  0  0  0  0
   -3.0310    6.0400    0.7750 C   0  0  0  0  0  0  0  0  0  0  0  0
   -3.1030    5.5130   -0.4890 C   0  0  0  0  0  0  0  0  0  0  0  0
   -2.3760    4.3610   -0.7970 C   0  0  0  0  0  0  0  0  0  0  0  0
   -1.5900    3.7440    0.1410 C   0  0  0  0  0  0  0  0  0  0  0  0
   -0.8610    2.5810   -0.1840 N   0  0  0  0  0  0  0  0  0  0  0  0
   -1.1860    1.3110    0.0650 N   0  0  0  0  0  0  0  0  0  0  0  0
   -0.2390    0.4740   -0.3950 C   0  0  0  0  0  0  0  0  0  0  0  0
   -0.2280   -1.0060   -0.3120 C   0  0  0  0  0  0  0  0  0  0  0  0
   -1.4330   -1.5090    0.3360 N   0  0  2  0  0  0  0  0  0  0  0  0
   -2.5450   -1.3080   -0.5660 C   0  0  0  0  0  0  0  0  0  0  0  0
   -3.8800   -1.4950    0.1140 C   0  0  0  0  0  0  0  0  0  0  0  0
   -3.8190   -2.7260    0.9320 C   0  0  0  0  0  0  0  0  0  0  0  0
   -4.5700   -3.8300    0.7880 N   0  0  0  0  0  0  0  0  0  0  0  0
   -4.2140   -4.7470    1.7350 C   0  0  0  0  0  0  0  0  0  0  0  0
   -3.2370   -4.2020    2.4680 N   0  0  0  0  0  0  0  0  0  0  0  0
   -2.9800   -2.9730    1.9980 C   0  0  0  0  0  0  0  0  0  0  0  0
   -1.9250   -2.0860    2.6070 C   0  0  0  0  0  0  0  0  0  0  0  0
   -1.6350   -0.9680    1.6350 C   0  0  0  0  0  0  0  0  0  0  0  0
    0.7190    1.2530   -0.9560 C   0  0  0  0  0  0  0  0  0  0  0  0
    0.3070    2.5920   -0.8120 C   0  0  0  0  0  0  0  0  0  0  0  0
    1.2390    3.5980   -1.3820 C   0  0  0  0  0  0  0  0  0  0  0  0
    1.6520    3.1990   -2.7780 C   0  0  0  0  0  0  0  0  0  0  0  0
    1.8000    1.7770   -2.9570 N   0  0  0  0  0  0  0  0  0  0  0  0
    0.7050    1.1910   -3.6750 C   0  0  0  0  0  0  0  0  0  0  0  0
    2.0130    1.1530   -1.6580 C   0  0  2  0  0  0  0  0  0  0  0  0
    2.6080   -0.1700   -1.7600 C   0  0  0  0  0  0  0  0  0  0  0  0
    2.6430   -0.6960   -2.8890 O   0  0  0  0  0  0  0  0  0  0  0  0
    3.1310   -0.8570   -0.6590 N   0  0  0  0  0  0  0  0  0  0  0  0
    3.7360   -2.1490   -0.6470 C   0  0  0  0  0  0  0  0  0  0  0  0
    3.9010   -2.9360   -1.7580 C   0  0  0  0  0  0  0  0  0  0  0  0
    4.5040   -4.1990   -1.6730 C   0  0  0  0  0  0  0  0  0  0  0  0
    4.6970   -5.1730   -3.1090 Cl  0  0  0  0  0  0  0  0  0  0  0  0
    4.9510   -4.6930   -0.4800 C   0  0  0  0  0  0  0  0  0  0  0  0
    5.7080   -6.2880   -0.3920 S   0  0  0  0  0  0  0  0  0  0  0  0
    6.2240   -6.7520    1.2610 C   0  0  0  0  0  0  0  0  0  0  0  0
    4.7990   -3.9290    0.6380 C   0  0  0  0  0  0  0  0  0  0  0  0
    4.2000   -2.6700    0.5670 C   0  0  0  0  0  0  0  0  0  0  0  0
    4.0820   -1.9610    1.7320 O   0  0  0  0  0  0  0  0  0  0  0  0
   -1.5220    4.2750    1.4010 C   0  0  0  0  0  0  0  0  0  0  0  0
   -2.2460    5.4330    1.7300 C   0  0  0  0  0  0  0  0  0  0  0  0
  1  2  1  0
  2  3  1  0
  3  4  2  0
  3 42  1  0
  4  5  1  0
  5  6  2  0
  6  7  1  0
  6 41  1  0
  7  8  1  0
  7 22  1  0
  8  9  2  0
  9 10  1  0
  9 21  1  0
 11 10  1  6
 11 12  1  0
 11 20  1  0
 12 13  1  0
 13 14  1  0
 14 15  1  0
 14 18  2  0
 15 16  1  0
 16 17  2  0
 17 18  1  0
 18 19  1  0
 19 20  1  0
 21 22  2  0
 21 27  1  0
 22 23  1  0
 23 24  1  0
 24 25  1  0
 25 26  1  0
 25 27  1  0
 27 28  1  6
 28 29  2  0
 28 30  1  0
 30 31  1  0
 31 32  2  0
 31 39  1  0
 32 33  1  0
 33 34  1  0
 33 35  2  0
 35 36  1  0
 35 38  1  0
 36 37  1  0
 38 39  2  0
 39 40  1  0
 41 42  2  0
M  CHG  2  11   1  17   1
M  END
