
     RDKit          3D

 42 47  0  0  0  0  0  0  0  0999 V2000
   -0.5290    2.0920    3.6120 C   0  0  0  0  0  0  0  0  0  0  0  0
    0.7480    1.7130    3.1540 O   0  0  0  0  0  0  0  0  0  0  0  0
    0.9130    1.2880    1.8510 C   0  0  0  0  0  0  0  0  0  0  0  0
   -0.1770    1.2450    1.0240 C   0  0  0  0  0  0  0  0  0  0  0  0
   -0.1740    0.8460   -0.2880 C   0  0  0  0  0  0  0  0  0  0  0  0
   -1.2820    0.6900   -1.1680 C   0  0  0  0  0  0  0  0  0  0  0  0
   -1.0200    0.6200   -2.4290 O   0  0  0  0  0  0  0  0  0  0  0  0
   -2.6400    0.6000   -0.8380 N   0  0  0  0  0  0  0  0  0  0  0  0
   -3.2520    0.5580    0.4550 C   0  0  0  0  0  0  0  0  0  0  0  0
   -4.5170   -0.2700    0.5350 C   0  0  0  0  0  0  0  0  0  0  0  0
   -5.4410   -0.0620   -0.5660 C   0  0  1  0  0  0  0  0  0  0  0  0
   -6.8430    0.0640   -0.2980 N   0  0  2  0  0  0  0  0  0  0  0  0
   -7.3530   -0.6790    0.8030 C   0  0  0  0  0  0  0  0  0  0  0  0
   -8.8330   -0.2780    0.9580 C   0  0  0  0  0  0  0  0  0  0  0  0
   -9.5980   -0.6200   -0.2070 N   0  0  1  0  0  0  0  0  0  0  0  0
  -10.4130    0.4760   -0.7020 C   0  0  0  0  0  0  0  0  0  0  0  0
   -8.7330   -1.1410   -1.2740 C   0  0  0  0  0  0  0  0  0  0  0  0
   -7.5650   -0.2400   -1.5230 C   0  0  0  0  0  0  0  0  0  0  0  0
   -4.9320    1.1110   -1.4200 C   0  0  0  0  0  0  0  0  0  0  0  0
   -3.6070    0.6050   -1.9820 C   0  0  0  0  0  0  0  0  0  0  0  0
    1.1070    0.4640   -0.7510 C   0  0  0  0  0  0  0  0  0  0  0  0
    2.2100    0.5020    0.0660 C   0  0  0  0  0  0  0  0  0  0  0  0
    2.1710    0.9050    1.3750 C   0  0  0  0  0  0  0  0  0  0  0  0
    3.2550    0.9450    2.2590 N   0  0  0  0  0  0  0  0  0  0  0  0
    4.5750    0.6350    1.9970 C   0  0  0  0  0  0  0  0  0  0  0  0
    5.4790    0.7320    3.0330 N   0  0  0  0  0  0  0  0  0  0  0  0
    6.7530    0.4340    2.7880 C   0  0  0  0  0  0  0  0  0  0  0  0
    7.2270    0.0370    1.5750 C   0  0  0  0  0  0  0  0  0  0  0  0
    6.3140   -0.0580    0.5380 C   0  0  0  0  0  0  0  0  0  0  0  0
    5.0330    0.2460    0.8050 N   0  0  0  0  0  0  0  0  0  0  0  0
    6.5610   -0.4400   -0.8100 N   0  0  0  0  0  0  0  0  0  0  0  0
    5.6270    0.0360   -1.8080 C   0  0  0  0  0  0  0  0  0  0  0  0
    7.6410   -1.2450   -1.2880 C   0  0  0  0  0  0  0  0  0  0  0  0
    7.3500   -1.8430   -2.4910 C   0  0  0  0  0  0  0  0  0  0  0  0
    8.2640   -2.6730   -3.1430 C   0  0  0  0  0  0  0  0  0  0  0  0
    9.4890   -2.8910   -2.5530 C   0  0  0  0  0  0  0  0  0  0  0  0
    9.8070   -2.2990   -1.3380 C   0  0  0  0  0  0  0  0  0  0  0  0
    8.8870   -1.4770   -0.7050 C   0  0  0  0  0  0  0  0  0  0  0  0
    9.3350   -0.9180    0.5560 C   0  0  0  0  0  0  0  0  0  0  0  0
   10.5640   -1.0660    0.7860 O   0  0  0  0  0  0  0  0  0  0  0  0
    8.6190   -0.2200    1.5970 N   0  0  0  0  0  0  0  0  0  0  0  0
    9.3920    0.2390    2.7330 C   0  0  0  0  0  0  0  0  0  0  0  0
  1  2  1  0
  2  3  1  0
  3  4  2  0
  3 23  1  0
  4  5  1  0
  5  6  1  0
  5 21  2  0
  6  7  2  0
  6  8  1  0
  8  9  1  0
  8 20  1  0
  9 10  1  0
 11 10  1  1
 11 12  1  0
 11 19  1  0
 12 13  1  1
 12 18  1  0
 13 14  1  0
 14 15  1  0
 15 16  1  6
 15 17  1  0
 17 18  1  0
 19 20  1  0
 21 22  1  0
 22 23  2  0
 23 24  1  0
 24 25  1  0
 25 26  2  0
 25 30  1  0
 26 27  1  0
 27 28  2  0
 28 29  1  0
 28 41  1  0
 29 30  2  0
 29 31  1  0
 31 32  1  0
 31 33  1  0
 33 34  2  0
 33 38  1  0
 34 35  1  0
 35 36  2  0
 36 37  1  0
 37 38  2  0
 38 39  1  0
 39 40  2  0
 39 41  1  0
 41 42  1  0
M  CHG  2  12   1  15   1
M  END
