
     RDKit          3D

 31 34  0  0  0  0  0  0  0  0999 V2000
   -2.8240    4.1680   -1.3030 C   0  0  0  0  0  0  0  0  0  0  0  0
   -1.4530    3.9250   -1.3960 O   0  0  0  0  0  0  0  0  0  0  0  0
   -0.8160    2.7570   -1.0620 C   0  0  0  0  0  0  0  0  0  0  0  0
    0.5370    2.6480   -1.2010 C   0  0  0  0  0  0  0  0  0  0  0  0
    1.2260    1.4800   -0.8730 C   0  0  0  0  0  0  0  0  0  0  0  0
    0.5310    0.3870   -0.3900 C   0  0  0  0  0  0  0  0  0  0  0  0
    1.1600   -0.7830   -0.0540 C   0  0  0  0  0  0  0  0  0  0  0  0
    2.5870   -0.9410   -0.1830 C   0  0  0  0  0  0  0  0  0  0  0  0
    3.0850   -2.0930    0.1550 O   0  0  0  0  0  0  0  0  0  0  0  0
    3.5300   -0.0550   -0.6160 O   0  0  0  0  0  0  0  0  0  0  0  0
    4.8680   -0.3990   -0.6690 C   0  0  0  0  0  0  0  0  0  0  0  0
    5.3820   -0.9620   -1.8240 C   0  0  0  0  0  0  0  0  0  0  0  0
    6.7160   -1.3140   -1.9020 C   0  0  0  0  0  0  0  0  0  0  0  0
    7.1690   -1.8630   -3.0540 F   0  0  0  0  0  0  0  0  0  0  0  0
    7.5680   -1.1140   -0.8360 C   0  0  0  0  0  0  0  0  0  0  0  0
    7.0740   -0.5540    0.3220 C   0  0  0  0  0  0  0  0  0  0  0  0
    5.7390   -0.2090    0.3810 C   0  0  0  0  0  0  0  0  0  0  0  0
    5.2070    0.3490    1.5090 F   0  0  0  0  0  0  0  0  0  0  0  0
    0.4330   -1.8570    0.4270 C   0  0  0  0  0  0  0  0  0  0  0  0
   -0.9190   -1.7630    0.5710 C   0  0  0  0  0  0  0  0  0  0  0  0
   -1.6240   -2.8300    1.0460 F   0  0  0  0  0  0  0  0  0  0  0  0
   -1.5830   -0.5880    0.2380 C   0  0  0  0  0  0  0  0  0  0  0  0
   -3.0170   -0.5390    0.4090 C   0  0  0  0  0  0  0  0  0  0  0  0
   -3.6620   -1.5790    0.8670 N   0  0  0  0  0  0  0  0  0  0  0  0
   -5.0360   -1.6420    1.0710 C   0  0  0  0  0  0  0  0  0  0  0  0
   -5.9400   -0.8790    1.6790 C   0  0  0  0  0  0  0  0  0  0  0  0
   -7.2380   -1.2210    1.7050 C   0  0  0  0  0  0  0  0  0  0  0  0
   -7.6240   -2.3630    1.0990 C   0  0  0  0  0  0  0  0  0  0  0  0
   -6.0760   -3.0450    0.4260 S   0  0  0  0  0  0  0  0  0  0  0  0
   -0.8500    0.4680   -0.2370 C   0  0  0  0  0  0  0  0  0  0  0  0
   -1.4890    1.6590   -0.5800 C   0  0  0  0  0  0  0  0  0  0  0  0
  1  2  1  0
  2  3  1  0
  3  4  2  0
  3 31  1  0
  4  5  1  0
  5  6  2  0
  6  7  1  0
  6 30  1  0
  7  8  1  0
  7 19  2  0
  8  9  2  0
  8 10  1  0
 10 11  1  0
 11 12  2  0
 11 17  1  0
 12 13  1  0
 13 14  1  0
 13 15  2  0
 15 16  1  0
 16 17  2  0
 17 18  1  0
 19 20  1  0
 20 21  1  0
 20 22  2  0
 22 23  1  0
 22 30  1  0
 23 24  2  3
 24 25  1  0
 25 26  2  0
 25 29  1  0
 26 27  1  0
 27 28  2  0
 28 29  1  0
 30 31  2  0
M  END
