
     RDKit          3D

 31 34  0  0  0  0  0  0  0  0999 V2000
    5.5840    1.1580    3.1680 C   0  0  0  0  0  0  0  0  0  0  0  0
    4.6970    0.9040    2.1290 O   0  0  0  0  0  0  0  0  0  0  0  0
    4.7980   -0.0480    1.1500 C   0  0  0  0  0  0  0  0  0  0  0  0
    5.8880   -0.8880    1.1390 C   0  0  0  0  0  0  0  0  0  0  0  0
    5.9440   -1.8290    0.1330 C   0  0  0  0  0  0  0  0  0  0  0  0
    4.9600   -1.9370   -0.8250 C   0  0  0  0  0  0  0  0  0  0  0  0
    3.8480   -1.0860   -0.8190 C   0  0  0  0  0  0  0  0  0  0  0  0
    2.8210   -1.2110   -1.8450 C   0  0  0  0  0  0  0  0  0  0  0  0
    3.1450   -1.6700   -2.9430 O   0  0  0  0  0  0  0  0  0  0  0  0
    1.4800   -0.8070   -1.5610 C   0  0  0  0  0  0  0  0  0  0  0  0
    0.8270   -0.8350    0.1580 S   0  0  0  0  0  0  0  0  0  0  0  0
   -0.7660   -0.2500   -0.2500 C   0  0  0  0  0  0  0  0  0  0  0  0
   -0.7330   -0.0710   -1.5930 C   0  0  0  0  0  0  0  0  0  0  0  0
    0.4100   -0.3560   -2.2450 C   0  0  0  0  0  0  0  0  0  0  0  0
    0.5390   -0.1850   -3.7660 C   0  0  0  0  0  0  0  0  0  0  0  0
   -1.9640    0.4080   -2.1030 C   0  0  0  0  0  0  0  0  0  0  0  0
   -2.1090    0.6330   -3.3360 O   0  0  0  0  0  0  0  0  0  0  0  0
   -3.0430    0.6450   -1.2760 C   0  0  0  0  0  0  0  0  0  0  0  0
   -4.3450    1.0130   -1.8940 C   0  0  0  0  0  0  0  0  0  0  0  0
   -3.0150    0.4460    0.0880 C   0  0  0  0  0  0  0  0  0  0  0  0
   -1.8420   -0.0050    0.5490 N   0  0  0  0  0  0  0  0  0  0  0  0
   -1.5810   -0.1740    1.9470 C   0  0  0  0  0  0  0  0  0  0  0  0
   -2.7770   -0.4920    2.7290 C   0  0  0  0  0  0  0  0  0  0  0  0
   -4.0200    0.0510    2.2240 C   0  0  0  0  0  0  0  0  0  0  0  0
   -5.0940    0.1310    3.0910 F   0  0  0  0  0  0  0  0  0  0  0  0
   -4.1840    0.5180    0.9330 C   0  0  0  0  0  0  0  0  0  0  0  0
   -5.4480    1.0470    0.6050 C   0  0  0  0  0  0  0  0  0  0  0  0
   -6.3930    1.5960    0.0080 C   0  0  0  0  0  0  0  0  0  0  0  0
   -7.6750    1.6600    0.7640 F   0  0  0  0  0  0  0  0  0  0  0  0
   -6.6970    2.2300   -1.1330 F   0  0  0  0  0  0  0  0  0  0  0  0
    3.8060   -0.1500    0.1920 C   0  0  0  0  0  0  0  0  0  0  0  0
  1  2  1  0
  2  3  1  0
  3  4  2  0
  3 31  1  0
  4  5  1  0
  5  6  2  0
  6  7  1  0
  7  8  1  0
  7 31  2  0
  8  9  2  0
  8 10  1  0
 10 11  1  0
 10 14  2  0
 11 12  1  0
 12 13  2  0
 12 21  1  0
 13 14  1  0
 13 16  1  0
 14 15  1  0
 16 17  2  0
 16 18  1  0
 18 19  1  0
 18 20  2  0
 20 21  1  0
 20 26  1  0
 21 22  1  0
 22 23  1  0
 23 24  1  0
 24 25  1  0
 24 26  2  0
 26 27  1  0
 27 28  2  3
 28 29  1  0
 28 30  1  0
M  END
