
     RDKit          3D

 31 33  0  0  0  0  0  0  0  0999 V2000
    5.8050    0.7590    1.7390 C   0  0  0  0  0  0  0  0  0  0  0  0
    6.4960    0.8540    0.3970 C   0  0  0  0  0  0  0  0  0  0  0  0
    6.1400   -0.3140   -0.3950 N   0  0  0  0  0  0  0  0  0  0  0  0
    4.7800   -0.5910   -0.7290 C   0  0  0  0  0  0  0  0  0  0  0  0
    3.7810    0.2090   -0.3300 N   0  0  0  0  0  0  0  0  0  0  0  0
    2.4670   -0.0220   -0.6300 C   0  0  0  0  0  0  0  0  0  0  0  0
    1.4590    0.8530   -0.1840 N   0  0  0  0  0  0  0  0  0  0  0  0
    0.0820    0.7790   -0.3910 C   0  0  0  0  0  0  0  0  0  0  0  0
   -0.5280   -0.2150   -1.1000 C   0  0  0  0  0  0  0  0  0  0  0  0
   -1.9070   -0.2930   -1.3100 C   0  0  0  0  0  0  0  0  0  0  0  0
   -2.4480   -1.3270   -2.0360 F   0  0  0  0  0  0  0  0  0  0  0  0
   -2.7090    0.6820   -0.7760 C   0  0  0  0  0  0  0  0  0  0  0  0
   -4.1450    0.5880   -1.0020 C   0  0  0  0  0  0  0  0  0  0  0  0
   -4.6030    1.1500   -2.0220 O   0  0  0  0  0  0  0  0  0  0  0  0
   -4.9300   -0.1210   -0.0690 N   0  0  0  0  0  0  0  0  0  0  0  0
   -6.3650   -0.2510   -0.2360 C   0  0  0  0  0  0  0  0  0  0  0  0
   -6.9150   -0.7040    1.1210 C   0  0  0  0  0  0  0  0  0  0  0  0
   -6.4030   -1.9150    1.5140 O   0  0  0  0  0  0  0  0  0  0  0  0
   -5.0670   -2.0940    1.2560 C   0  0  0  0  0  0  0  0  0  0  0  0
   -4.3430   -0.7510    1.0950 C   0  0  0  0  0  0  0  0  0  0  0  0
   -2.1320    1.7010   -0.0550 C   0  0  0  0  0  0  0  0  0  0  0  0
   -0.7750    1.7610    0.1410 C   0  0  0  0  0  0  0  0  0  0  0  0
   -0.2300    2.8010    0.8720 O   0  0  0  0  0  0  0  0  0  0  0  0
   -1.0840    3.7900    1.4080 C   0  0  0  0  0  0  0  0  0  0  0  0
    2.2450   -1.1190   -1.3600 N   0  0  0  0  0  0  0  0  0  0  0  0
    3.1960   -1.9620   -1.7920 C   0  0  0  0  0  0  0  0  0  0  0  0
    4.5200   -1.7160   -1.4810 C   0  0  0  0  0  0  0  0  0  0  0  0
    5.5900   -2.6350   -1.9450 C   0  0  1  0  0  0  0  0  0  0  0  0
    5.0090   -3.6560   -2.6720 F   0  0  0  0  0  0  0  0  0  0  0  0
    6.5100   -1.9940   -2.7510 F   0  0  0  0  0  0  0  0  0  0  0  0
    6.2800   -3.1260   -0.8520 F   0  0  0  0  0  0  0  0  0  0  0  0
  1  2  1  0
  2  3  1  0
  3  4  1  0
  4  5  2  0
  4 27  1  0
  5  6  1  0
  6  7  1  0
  6 25  2  0
  7  8  1  0
  8  9  2  0
  8 22  1  0
  9 10  1  0
 10 11  1  0
 10 12  2  0
 12 13  1  0
 12 21  1  0
 13 14  2  0
 13 15  1  0
 15 16  1  0
 15 20  1  0
 16 17  1  0
 17 18  1  0
 18 19  1  0
 19 20  1  0
 21 22  2  0
 22 23  1  0
 23 24  1  0
 25 26  1  0
 26 27  2  0
 27 28  1  0
 28 29  1  6
 28 30  1  0
 28 31  1  0
M  END
