
     RDKit          3D

 12 13  0  0  0  0  0  0  0  0999 V2000
    3.7870   -0.5990   -0.6620 C   0  0  0  0  0  0  0  0  0  0  0  0
    2.3190   -0.7450   -0.5290 C   0  0  0  0  0  0  0  0  0  0  0  0
    1.5410    0.2650   -0.1960 C   0  0  0  0  0  0  0  0  0  0  0  0
    2.0920    1.5480    0.0510 N   0  0  0  0  0  0  0  0  0  0  0  0
    0.0930    0.0630   -0.0800 C   0  0  0  0  0  0  0  0  0  0  0  0
   -0.8380    1.0290    0.2600 C   0  0  0  0  0  0  0  0  0  0  0  0
   -2.0770    0.4560    0.2640 C   0  0  0  0  0  0  0  0  0  0  0  0
   -3.4330    0.6560    0.4670 C   0  0  0  0  0  0  0  0  0  0  0  0
   -4.0210   -0.5200    0.2500 N   0  0  0  0  0  0  0  0  0  0  0  0
   -3.1160   -1.4580   -0.0800 C   0  0  0  0  0  0  0  0  0  0  0  0
   -1.8640   -0.8740   -0.0820 C   0  0  0  0  0  0  0  0  0  0  0  0
   -0.5760   -1.0370   -0.2690 O   0  0  0  0  0  0  0  0  0  0  0  0
  1  2  1  0
  2  3  2  3
  3  4  1  0
  3  5  1  0
  5  6  2  0
  5 12  1  0
  6  7  1  0
  7  8  2  0
  7 11  1  0
  8  9  1  0
  9 10  1  0
 10 11  2  0
 11 12  1  0
M  END
