
     RDKit          3D

 12 13  0  0  0  0  0  0  0  0999 V2000
   -0.9950    2.5640    0.0440 N   0  0  0  0  0  0  0  0  0  0  0  0
   -1.2680    1.1650    0.0920 C   0  0  0  0  0  0  0  0  0  0  0  0
   -2.5170    0.6770    0.2110 N   0  0  0  0  0  0  0  0  0  0  0  0
   -2.7800   -0.6390    0.2570 C   0  0  0  0  0  0  0  0  0  0  0  0
   -1.7300   -1.5530    0.1810 C   0  0  0  0  0  0  0  0  0  0  0  0
   -0.4430   -1.0500    0.0590 C   0  0  0  0  0  0  0  0  0  0  0  0
    0.6420   -1.8970   -0.0220 C   0  0  0  0  0  0  0  0  0  0  0  0
    1.9460   -1.4120   -0.1450 C   0  0  0  0  0  0  0  0  0  0  0  0
    2.1810   -0.0550   -0.1890 C   0  0  0  0  0  0  0  0  0  0  0  0
    3.4640    0.4570   -0.3110 O   0  0  0  0  0  0  0  0  0  0  0  0
    1.1020    0.7990   -0.1100 C   0  0  0  0  0  0  0  0  0  0  0  0
   -0.2020    0.3070    0.0140 C   0  0  0  0  0  0  0  0  0  0  0  0
  1  2  1  0
  2  3  2  0
  2 12  1  0
  3  4  1  0
  4  5  2  0
  5  6  1  0
  6  7  2  0
  6 12  1  0
  7  8  1  0
  8  9  2  0
  9 10  1  0
  9 11  1  0
 11 12  2  0
M  END
