
     RDKit          3D

 23 26  0  0  0  0  0  0  0  0999 V2000
    3.0870    4.5890    1.5580 N   0  0  0  0  0  0  0  0  0  0  0  0
    2.7080    3.6980    0.9110 C   0  0  0  0  0  0  0  0  0  0  0  0
    2.2560    2.5980    0.1120 C   0  0  0  0  0  0  0  0  0  0  0  0
    1.9330    2.8230   -1.2080 C   0  0  0  0  0  0  0  0  0  0  0  0
    1.5000    1.7700   -1.9720 C   0  0  0  0  0  0  0  0  0  0  0  0
    1.3910    0.4960   -1.4220 C   0  0  0  0  0  0  0  0  0  0  0  0
    1.7080    0.2540   -0.1100 C   0  0  0  0  0  0  0  0  0  0  0  0
    1.5980   -1.0610    0.4950 C   0  0  0  0  0  0  0  0  0  0  0  0
    2.6880   -1.8000    0.9890 C   0  0  0  0  0  0  0  0  0  0  0  0
    2.2160   -2.9650    1.3980 N   0  0  0  0  0  0  0  0  0  0  0  0
    0.8870   -3.0170    1.1960 C   0  0  0  0  0  0  0  0  0  0  0  0
   -0.0370   -3.9760    1.4450 N   0  0  0  0  0  0  0  0  0  0  0  0
   -1.3210   -3.8330    1.1730 C   0  0  0  0  0  0  0  0  0  0  0  0
   -1.7320   -2.6940    0.6300 N   0  0  0  0  0  0  0  0  0  0  0  0
   -0.8490   -1.6710    0.3490 C   0  0  0  0  0  0  0  0  0  0  0  0
   -1.3520   -0.4640   -0.1740 N   0  0  0  0  0  0  0  0  0  0  0  0
   -1.2980    0.7670    0.5790 C   0  0  0  0  0  0  0  0  0  0  0  0
   -2.7170    1.2750    0.8280 C   0  0  0  0  0  0  0  0  0  0  0  0
   -3.5960    0.7820   -0.1140 O   0  0  0  0  0  0  0  0  0  0  0  0
   -3.0840    0.6250   -1.3630 C   0  0  0  0  0  0  0  0  0  0  0  0
   -1.9890   -0.4310   -1.4570 C   0  0  0  0  0  0  0  0  0  0  0  0
    0.4800   -1.8310    0.6310 C   0  0  0  0  0  0  0  0  0  0  0  0
    2.1420    1.3140    0.6540 C   0  0  0  0  0  0  0  0  0  0  0  0
  1  2  3  0
  2  3  1  0
  3  4  2  0
  3 23  1  0
  4  5  1  0
  5  6  2  0
  6  7  1  0
  7  8  1  0
  7 23  2  0
  8  9  2  0
  8 22  1  0
  9 10  1  0
 10 11  1  0
 11 12  2  0
 11 22  1  0
 12 13  1  0
 13 14  2  0
 14 15  1  0
 15 16  1  0
 15 22  2  0
 16 17  1  0
 16 21  1  0
 17 18  1  0
 18 19  1  0
 19 20  1  0
 20 21  1  0
M  END
