
     RDKit          3D

 12 13  0  0  0  0  0  0  0  0999 V2000
   -3.4530   -0.6140   -0.2080 N   0  0  0  0  0  0  0  0  0  0  0  0
   -2.0630   -0.2490   -0.0910 C   0  0  0  0  0  0  0  0  0  0  0  0
   -1.6780    1.0170    0.2680 C   0  0  0  0  0  0  0  0  0  0  0  0
   -0.3170    1.3550    0.3770 C   0  0  0  0  0  0  0  0  0  0  0  0
    0.0170    2.6290    0.7390 O   0  0  0  0  0  0  0  0  0  0  0  0
    0.6670    0.4240    0.1250 C   0  0  0  0  0  0  0  0  0  0  0  0
    2.0170    0.6810    0.2110 C   0  0  0  0  0  0  0  0  0  0  0  0
    2.9850   -0.2930   -0.0530 C   0  0  0  0  0  0  0  0  0  0  0  0
    2.5530   -1.5520   -0.4110 C   0  0  0  0  0  0  0  0  0  0  0  0
    1.2350   -1.7910   -0.4910 N   0  0  0  0  0  0  0  0  0  0  0  0
    0.2860   -0.8670   -0.2410 C   0  0  0  0  0  0  0  0  0  0  0  0
   -1.0640   -1.1650   -0.3390 C   0  0  0  0  0  0  0  0  0  0  0  0
  1  2  1  0
  2  3  2  0
  2 12  1  0
  3  4  1  0
  4  5  1  0
  4  6  2  0
  6  7  1  0
  6 11  1  0
  7  8  2  0
  8  9  1  0
  9 10  2  0
 10 11  1  0
 11 12  2  0
M  END
