
     RDKit          3D

 12 13  0  0  0  0  0  0  0  0999 V2000
   -2.6650   -0.9440    0.0470 N   0  0  0  0  0  0  0  0  0  0  0  0
   -1.6290    0.0200    0.0070 C   0  0  0  0  0  0  0  0  0  0  0  0
   -1.9850    1.3510    0.0600 C   0  0  0  0  0  0  0  0  0  0  0  0
   -0.9700    2.2840    0.0200 C   0  0  0  0  0  0  0  0  0  0  0  0
    0.3640    1.9470   -0.0680 C   0  0  0  0  0  0  0  0  0  0  0  0
    0.7030    0.6080   -0.1200 C   0  0  0  0  0  0  0  0  0  0  0  0
    2.0070    0.1920   -0.2080 C   0  0  0  0  0  0  0  0  0  0  0  0
    2.3570   -1.1530   -0.2610 C   0  0  0  0  0  0  0  0  0  0  0  0
    3.6960   -1.4590   -0.3490 O   0  0  0  0  0  0  0  0  0  0  0  0
    1.3740   -2.0480   -0.2230 N   0  0  0  0  0  0  0  0  0  0  0  0
    0.0760   -1.6630   -0.1350 C   0  0  0  0  0  0  0  0  0  0  0  0
   -0.2960   -0.3430   -0.0820 C   0  0  0  0  0  0  0  0  0  0  0  0
  1  2  1  0
  2  3  2  0
  2 12  1  0
  3  4  1  0
  4  5  2  0
  5  6  1  0
  6  7  2  0
  6 12  1  0
  7  8  1  0
  8  9  1  0
  8 10  2  0
 10 11  1  0
 11 12  2  0
M  END
