
     RDKit          3D

 30 33  0  0  0  0  0  0  0  0999 V2000
    1.4930    1.1720   -0.8990 C   0  0  0  0  0  0  0  0  0  0  0  0
    2.0350   -0.0200   -0.2210 C   0  0  2  0  0  0  0  0  0  0  0  0
    1.1170   -0.9890    0.3980 C   0  0  0  0  0  0  0  0  0  0  0  0
   -0.1440   -1.0540   -0.2870 N   0  0  0  0  0  0  0  0  0  0  0  0
   -1.1460   -0.0690   -0.2730 C   0  0  0  0  0  0  0  0  0  0  0  0
   -0.9760    0.9600    0.4200 O   0  0  0  0  0  0  0  0  0  0  0  0
   -2.3630   -0.1340   -0.9960 N   0  0  0  0  0  0  0  0  0  0  0  0
   -3.3340    0.8520   -0.9760 N   0  0  0  0  0  0  0  0  0  0  0  0
   -4.3060    0.6840   -2.0350 C   0  0  0  0  0  0  0  0  0  0  0  0
   -5.3530    1.7480   -1.9080 C   0  0  0  0  0  0  0  0  0  0  0  0
   -6.6080    1.1230   -1.3460 C   0  0  0  0  0  0  0  0  0  0  0  0
   -6.2120    0.1740   -0.2970 N   0  0  0  0  0  0  0  0  0  0  0  0
   -6.9600   -0.8520    0.1130 C   0  0  0  0  0  0  0  0  0  0  0  0
   -6.2830   -1.5420    1.1220 C   0  0  0  0  0  0  0  0  0  0  0  0
   -6.7550   -2.7280    1.8090 C   0  0  0  0  0  0  0  0  0  0  0  0
   -7.1310   -3.6870    2.3610 N   0  0  0  0  0  0  0  0  0  0  0  0
   -5.1130   -0.8850    1.2920 N   0  0  0  0  0  0  0  0  0  0  0  0
   -5.0870    0.1560    0.4200 C   0  0  0  0  0  0  0  0  0  0  0  0
   -3.9470    1.0800    0.3140 C   0  0  0  0  0  0  0  0  0  0  0  0
    3.2360    0.2510    0.4200 O   0  0  0  0  0  0  0  0  0  0  0  0
    4.3900   -0.4330    0.4760 C   0  0  0  0  0  0  0  0  0  0  0  0
    4.5770   -1.6700   -0.1040 C   0  0  0  0  0  0  0  0  0  0  0  0
    5.7610   -2.3580   -0.0500 C   0  0  0  0  0  0  0  0  0  0  0  0
    6.8350   -1.8280    0.6030 C   0  0  0  0  0  0  0  0  0  0  0  0
    6.7090   -0.5930    1.2050 C   0  0  0  0  0  0  0  0  0  0  0  0
    7.7780   -0.0190    1.8670 C   0  0  0  0  0  0  0  0  0  0  0  0
    7.6360    1.2320    2.4600 C   0  0  0  0  0  0  0  0  0  0  0  0
    6.4400    1.8960    2.3880 C   0  0  0  0  0  0  0  0  0  0  0  0
    5.3840    1.3300    1.7340 C   0  0  0  0  0  0  0  0  0  0  0  0
    5.4870    0.0950    1.1370 C   0  0  0  0  0  0  0  0  0  0  0  0
  2  1  1  1
  2  3  1  0
  2 20  1  0
  3  4  1  0
  4  5  1  0
  5  6  2  0
  5  7  1  0
  7  8  1  0
  8  9  1  0
  8 19  1  0
  9 10  1  0
 10 11  1  0
 11 12  1  0
 12 13  1  0
 12 18  1  0
 13 14  2  0
 14 15  1  0
 14 17  1  0
 15 16  3  0
 17 18  2  0
 18 19  1  0
 20 21  1  0
 21 22  2  0
 21 30  1  0
 22 23  1  0
 23 24  2  0
 24 25  1  0
 25 26  2  0
 25 30  1  0
 26 27  1  0
 27 28  2  0
 28 29  1  0
 29 30  2  0
M  END
