
     RDKit          3D

 31 34  0  0  0  0  0  0  0  0999 V2000
   -5.2430   -0.3550    1.4350 C   0  0  0  0  0  0  0  0  0  0  0  0
   -4.3870    0.6390    2.1860 C   0  0  2  0  0  0  0  0  0  0  0  0
   -5.3020    1.5460    2.9520 C   0  0  0  0  0  0  0  0  0  0  0  0
   -5.7490    2.4950    1.9510 N   0  0  0  0  0  0  0  0  0  0  0  0
   -4.6570    2.6740    1.0330 C   0  0  0  0  0  0  0  0  0  0  0  0
   -3.6660    1.5820    1.2620 C   0  0  2  0  0  0  0  0  0  0  0  0
   -3.3520    0.8470   -0.0030 C   0  0  0  0  0  0  0  0  0  0  0  0
   -3.8010    1.2470   -1.1060 O   0  0  0  0  0  0  0  0  0  0  0  0
   -2.5650   -0.2890   -0.0180 O   0  0  0  0  0  0  0  0  0  0  0  0
   -2.2710   -0.9740   -1.1900 C   0  0  2  0  0  0  0  0  0  0  0  0
   -2.8130   -2.4080   -1.1940 C   0  0  0  0  0  0  0  0  0  0  0  0
   -2.7940   -2.9690   -2.5760 C   0  0  0  0  0  0  0  0  0  0  0  0
   -1.5760   -2.5890   -3.3370 C   0  0  0  0  0  0  0  0  0  0  0  0
   -0.5050   -1.9480   -2.5250 C   0  0  0  0  0  0  0  0  0  0  0  0
    0.8200   -2.1470   -2.8260 C   0  0  0  0  0  0  0  0  0  0  0  0
    1.8140   -1.5300   -2.0480 C   0  0  0  0  0  0  0  0  0  0  0  0
    1.5230   -0.7210   -0.9810 C   0  0  0  0  0  0  0  0  0  0  0  0
    2.4720   -0.0710   -0.1780 N   0  0  0  0  0  0  0  0  0  0  0  0
    3.8680    0.0320   -0.3610 C   0  0  0  0  0  0  0  0  0  0  0  0
    4.3520   -0.5160   -1.3640 O   0  0  0  0  0  0  0  0  0  0  0  0
    4.7080    0.7100    0.5200 N   0  0  0  0  0  0  0  0  0  0  0  0
    6.1020    0.8560    0.4080 C   0  0  0  0  0  0  0  0  0  0  0  0
    6.7840    1.5640    1.3770 N   0  0  0  0  0  0  0  0  0  0  0  0
    8.1000    1.7510    1.3500 C   0  0  0  0  0  0  0  0  0  0  0  0
    8.7760    2.4860    2.3630 N   0  0  0  0  0  0  0  0  0  0  0  0
    8.8280    1.2340    0.3350 N   0  0  0  0  0  0  0  0  0  0  0  0
    8.2240    0.5430   -0.6260 C   0  0  0  0  0  0  0  0  0  0  0  0
    8.9100    0.0610   -1.5750 O   0  0  0  0  0  0  0  0  0  0  0  0
    6.8880    0.3780   -0.5600 N   0  0  0  0  0  0  0  0  0  0  0  0
    0.1550   -0.5470   -0.7100 C   0  0  0  0  0  0  0  0  0  0  0  0
   -0.8110   -1.1300   -1.4450 C   0  0  0  0  0  0  0  0  0  0  0  0
  2  1  1  6
  2  3  1  0
  2  6  1  0
  3  4  1  0
  4  5  1  0
  5  6  1  0
  6  7  1  6
  7  8  2  0
  7  9  1  0
 10  9  1  1
 10 11  1  0
 10 31  1  0
 11 12  1  0
 12 13  1  0
 13 14  1  0
 14 15  2  0
 14 31  1  0
 15 16  1  0
 16 17  2  0
 17 18  1  0
 17 30  1  0
 18 19  1  0
 19 20  2  0
 19 21  1  0
 21 22  1  0
 22 23  2  0
 22 29  1  0
 23 24  1  0
 24 25  1  0
 24 26  2  0
 26 27  1  0
 27 28  2  0
 27 29  1  0
 30 31  2  0
M  END
