
     RDKit          3D

 31 34  0  0  0  0  0  0  0  0999 V2000
   -0.6420    0.0700    2.9770 C   0  0  0  0  0  0  0  0  0  0  0  0
   -1.9410   -0.6520    3.0610 C   0  0  0  0  0  0  0  0  0  0  0  0
   -2.6870   -0.5660    1.9180 O   0  0  0  0  0  0  0  0  0  0  0  0
   -3.0710    0.7090    1.5450 C   0  0  2  0  0  0  0  0  0  0  0  0
   -4.5600    0.8580    1.7220 C   0  0  0  0  0  0  0  0  0  0  0  0
   -5.4060    0.6110    0.5500 C   0  0  0  0  0  0  0  0  0  0  0  0
   -4.7990    0.9600   -0.7780 C   0  0  2  0  0  0  0  0  0  0  0  0
   -5.6460    0.3920   -1.8930 C   0  0  0  0  0  0  0  0  0  0  0  0
   -3.4500    0.2800   -0.8250 C   0  0  0  0  0  0  0  0  0  0  0  0
   -2.5910    1.0470    0.1860 C   0  0  2  0  0  0  0  0  0  0  0  0
   -1.1920    0.7350   -0.0050 N   0  0  0  0  0  0  0  0  0  0  0  0
   -0.2630    1.7610   -0.2410 C   0  0  0  0  0  0  0  0  0  0  0  0
   -0.7450    2.9510   -0.2690 O   0  0  0  0  0  0  0  0  0  0  0  0
    1.1750    1.6130   -0.4550 C   0  0  0  0  0  0  0  0  0  0  0  0
    1.9360    2.7710   -0.6630 C   0  0  0  0  0  0  0  0  0  0  0  0
    1.2750    4.0300   -0.6510 N   0  0  0  0  0  0  0  0  0  0  0  0
    3.2440    2.6460   -0.8610 N   0  0  0  0  0  0  0  0  0  0  0  0
    3.8140    1.4310   -0.8600 C   0  0  0  0  0  0  0  0  0  0  0  0
    5.1040    1.0160   -1.0330 N   0  0  0  0  0  0  0  0  0  0  0  0
    5.1730   -0.3200   -0.9430 C   0  0  0  0  0  0  0  0  0  0  0  0
    6.1960   -1.2480   -1.0360 C   0  0  0  0  0  0  0  0  0  0  0  0
    5.9200   -2.5890   -0.8930 C   0  0  0  0  0  0  0  0  0  0  0  0
    4.6280   -3.0360   -0.6550 C   0  0  0  0  0  0  0  0  0  0  0  0
    4.3940   -4.4600   -0.5120 C   0  0  0  0  0  0  0  0  0  0  0  0
    5.4540   -5.3830   -0.6130 N   0  0  0  0  0  0  0  0  0  0  0  0
    3.2350   -4.8730   -0.2960 O   0  0  0  0  0  0  0  0  0  0  0  0
    3.6530   -2.1170   -0.5690 N   0  0  0  0  0  0  0  0  0  0  0  0
    3.9030   -0.7860   -0.7070 C   0  0  0  0  0  0  0  0  0  0  0  0
    3.1090    0.3080   -0.6630 N   0  0  0  0  0  0  0  0  0  0  0  0
    1.7560    0.3760   -0.4540 C   0  0  0  0  0  0  0  0  0  0  0  0
    1.1430   -0.7100   -0.2750 O   0  0  0  0  0  0  0  0  0  0  0  0
  1  2  1  0
  2  3  1  0
  4  3  1  6
  4  5  1  0
  4 10  1  0
  5  6  1  0
  6  7  1  0
  7  8  1  6
  7  9  1  0
  9 10  1  0
 10 11  1  1
 11 12  1  0
 12 13  2  0
 12 14  1  0
 14 15  2  0
 14 30  1  0
 15 16  1  0
 15 17  1  0
 17 18  2  0
 18 19  1  0
 18 29  1  0
 19 20  1  0
 20 21  2  0
 20 28  1  0
 21 22  1  0
 22 23  2  0
 23 24  1  0
 23 27  1  0
 24 25  1  0
 24 26  2  0
 27 28  2  0
 28 29  1  0
 29 30  1  0
 30 31  2  0
M  END
