
     RDKit          3D

 31 34  0  0  0  0  0  0  0  0999 V2000
   -3.9800   -0.7980   -2.3250 C   0  0  0  0  0  0  0  0  0  0  0  0
   -3.0060   -1.0420   -1.1590 C   0  0  1  0  0  0  0  0  0  0  0  0
   -2.4050   -2.4160   -1.4420 C   0  0  0  0  0  0  0  0  0  0  0  0
   -1.9220   -0.0400   -1.3110 C   0  0  0  0  0  0  0  0  0  0  0  0
   -1.0660   -0.0380   -0.1020 C   0  0  0  0  0  0  0  0  0  0  0  0
    0.2390   -0.0010   -0.2240 O   0  0  0  0  0  0  0  0  0  0  0  0
    1.0150    0.0030    0.8330 C   0  0  0  0  0  0  0  0  0  0  0  0
    2.4710    0.0440    0.6270 C   0  0  0  0  0  0  0  0  0  0  0  0
    3.2400    0.0490    1.6280 O   0  0  0  0  0  0  0  0  0  0  0  0
    3.0220    0.0800   -0.6720 N   0  0  0  0  0  0  0  0  0  0  0  0
    4.4270    0.1190   -0.8430 C   0  0  0  0  0  0  0  0  0  0  0  0
    5.0320    1.1100   -1.4650 C   0  0  0  0  0  0  0  0  0  0  0  0
    6.4650    1.1230   -1.6230 N   0  0  0  0  0  0  0  0  0  0  0  0
    7.3070    0.2440   -0.8500 C   0  0  1  0  0  0  0  0  0  0  0  0
    7.8310    0.9950    0.3550 C   0  0  0  0  0  0  0  0  0  0  0  0
    8.6830    0.1300    1.1500 N   0  0  0  0  0  0  0  0  0  0  0  0
    6.6650   -0.9790   -0.4600 N   0  0  0  0  0  0  0  0  0  0  0  0
    5.2350   -0.9670   -0.3160 C   0  0  0  0  0  0  0  0  0  0  0  0
    4.6570   -1.9050    0.2740 O   0  0  0  0  0  0  0  0  0  0  0  0
    0.4540   -0.0320    2.0790 C   0  0  0  0  0  0  0  0  0  0  0  0
   -0.9130   -0.0710    2.2490 C   0  0  0  0  0  0  0  0  0  0  0  0
   -1.4740   -0.1040    3.3670 O   0  0  0  0  0  0  0  0  0  0  0  0
   -1.7030   -0.0740    1.1240 C   0  0  0  0  0  0  0  0  0  0  0  0
   -3.2030   -0.1210    1.1660 C   0  0  1  0  0  0  0  0  0  0  0  0
   -3.7750    1.2630    1.2040 C   0  0  0  0  0  0  0  0  0  0  0  0
   -5.2360    1.2680    1.2460 C   0  0  0  0  0  0  0  0  0  0  0  0
   -5.9530    1.5120    2.3020 N   0  0  0  0  0  0  0  0  0  0  0  0
   -7.3070    1.4400    2.0110 N   0  0  0  0  0  0  0  0  0  0  0  0
   -7.4050    0.7080    0.7450 C   0  0  0  0  0  0  0  0  0  0  0  0
   -6.1070    1.0060    0.1440 N   0  0  0  0  0  0  0  0  0  0  0  0
   -3.7450   -1.0420    0.1360 C   0  0  0  0  0  0  0  0  0  0  0  0
  2  1  1  6
  2  3  1  0
  2  4  1  0
  2 31  1  0
  4  5  1  0
  5  6  1  0
  5 23  2  0
  6  7  1  0
  7  8  1  0
  7 20  2  0
  8  9  2  0
  8 10  1  0
 10 11  1  0
 11 12  2  0
 11 18  1  0
 12 13  1  0
 13 14  1  0
 14 15  1  1
 14 17  1  0
 15 16  1  0
 17 18  1  0
 18 19  2  0
 20 21  1  0
 21 22  2  0
 21 23  1  0
 23 24  1  0
 24 25  1  6
 24 31  1  0
 25 26  1  0
 26 27  2  0
 26 30  1  0
 27 28  1  0
 28 29  1  0
 29 30  1  0
M  END
