
     RDKit          3D

 30 33  0  0  0  0  0  0  0  0999 V2000
    6.3620   -1.0840   -0.3140 C   0  0  0  0  0  0  0  0  0  0  0  0
    5.3850   -2.0570   -0.7710 N   0  0  2  0  0  0  0  0  0  0  0  0
    4.5170   -1.3950   -1.7080 C   0  0  0  0  0  0  0  0  0  0  0  0
    3.6460   -0.3790   -0.9560 C   0  0  0  0  0  0  0  0  0  0  0  0
    2.7490   -1.1800   -0.1510 N   0  0  0  0  0  0  0  0  0  0  0  0
    1.4330   -0.7570    0.1970 C   0  0  0  0  0  0  0  0  0  0  0  0
    0.5620   -1.5930    0.8460 C   0  0  0  0  0  0  0  0  0  0  0  0
   -0.7060   -1.1840    1.1870 C   0  0  0  0  0  0  0  0  0  0  0  0
   -1.1720    0.0970    0.8920 C   0  0  0  0  0  0  0  0  0  0  0  0
   -2.4330    0.4790    1.2420 O   0  0  0  0  0  0  0  0  0  0  0  0
   -3.3440   -0.3480    1.8860 C   0  0  0  0  0  0  0  0  0  0  0  0
   -3.6730   -1.5210    1.0490 C   0  0  0  0  0  0  0  0  0  0  0  0
   -3.3760   -1.5280   -0.3150 C   0  0  0  0  0  0  0  0  0  0  0  0
   -3.6810   -2.6210   -1.0990 C   0  0  0  0  0  0  0  0  0  0  0  0
   -4.2880   -3.7450   -0.5680 C   0  0  0  0  0  0  0  0  0  0  0  0
   -4.5820   -3.7390    0.7800 C   0  0  0  0  0  0  0  0  0  0  0  0
   -4.2800   -2.6540    1.5630 C   0  0  0  0  0  0  0  0  0  0  0  0
   -0.3070    0.9540    0.2390 C   0  0  0  0  0  0  0  0  0  0  0  0
   -0.6300    2.3130   -0.1410 C   0  0  0  0  0  0  0  0  0  0  0  0
    0.2660    2.9840   -0.7370 O   0  0  0  0  0  0  0  0  0  0  0  0
   -1.8580    2.9290    0.1070 N   0  0  0  0  0  0  0  0  0  0  0  0
   -2.2020    4.2720   -0.2490 C   0  0  0  0  0  0  0  0  0  0  0  0
   -3.5450    4.6380   -0.2960 C   0  0  0  0  0  0  0  0  0  0  0  0
   -3.8940    5.9280   -0.6140 C   0  0  0  0  0  0  0  0  0  0  0  0
   -2.9340    6.8690   -0.8880 C   0  0  0  0  0  0  0  0  0  0  0  0
   -1.6520    6.5070   -0.8400 N   0  0  0  0  0  0  0  0  0  0  0  0
   -1.2900    5.2410   -0.5280 C   0  0  0  0  0  0  0  0  0  0  0  0
    0.9860    0.5040   -0.0960 C   0  0  0  0  0  0  0  0  0  0  0  0
    3.2100   -2.4570    0.3250 C   0  0  0  0  0  0  0  0  0  0  0  0
    4.7000   -2.6210    0.3550 C   0  0  0  0  0  0  0  0  0  0  0  0
  2  1  1  1
  2  3  1  0
  2 30  1  0
  3  4  1  0
  4  5  1  0
  5  6  1  0
  5 29  1  0
  6  7  2  0
  6 28  1  0
  7  8  1  0
  8  9  2  0
  9 10  1  0
  9 18  1  0
 10 11  1  0
 11 12  1  0
 12 13  2  0
 12 17  1  0
 13 14  1  0
 14 15  2  0
 15 16  1  0
 16 17  2  0
 18 19  1  0
 18 28  2  0
 19 20  2  0
 19 21  1  0
 21 22  1  0
 22 23  2  0
 22 27  1  0
 23 24  1  0
 24 25  2  0
 25 26  1  0
 26 27  2  0
 29 30  1  0
M  CHG  1   2   1
M  END
