
     RDKit          3D

 30 32  0  0  0  0  0  0  0  0999 V2000
    6.0740   -1.6760   -1.0590 C   0  0  0  0  0  0  0  0  0  0  0  0
    4.6520   -1.7020   -0.7520 C   0  0  0  0  0  0  0  0  0  0  0  0
    3.8220   -0.7220   -0.4700 C   0  0  0  0  0  0  0  0  0  0  0  0
    4.3020    0.6670   -0.4280 C   0  0  0  0  0  0  0  0  0  0  0  0
    3.6970    1.8430   -0.2230 C   0  0  0  0  0  0  0  0  0  0  0  0
    4.9440    2.6770   -0.3530 C   0  0  0  0  0  0  0  0  0  0  0  0
    5.5680    1.3630   -0.5520 C   0  0  0  0  0  0  0  0  0  0  0  0
    6.7640    1.0680   -0.7480 O   0  0  0  0  0  0  0  0  0  0  0  0
    2.4650   -1.1120   -0.2750 N   0  0  0  0  0  0  0  0  0  0  0  0
    2.0830   -2.3500   -1.0180 C   0  0  0  0  0  0  0  0  0  0  0  0
    1.4750   -0.5020    0.4940 C   0  0  0  0  0  0  0  0  0  0  0  0
    1.7080    0.4640    1.2460 O   0  0  0  0  0  0  0  0  0  0  0  0
    0.0620   -1.0210    0.4240 C   0  0  0  0  0  0  0  0  0  0  0  0
   -0.8260   -0.3130    1.2770 N   0  0  0  0  0  0  0  0  0  0  0  0
   -0.5420   -0.5140    2.6450 C   0  0  0  0  0  0  0  0  0  0  0  0
   -1.7350   -0.8780    3.4870 C   0  0  0  0  0  0  0  0  0  0  0  0
   -2.7670    0.1460    3.4800 N   0  0  0  0  0  0  0  0  0  0  0  0
   -4.0480   -0.2290    3.1920 N   0  0  0  0  0  0  0  0  0  0  0  0
   -4.5530   -0.8250    2.1930 C   0  0  0  0  0  0  0  0  0  0  0  0
   -3.9430   -1.3270    0.9830 C   0  0  0  0  0  0  0  0  0  0  0  0
   -3.6180   -0.7840   -0.1350 C   0  0  0  0  0  0  0  0  0  0  0  0
   -3.7080    0.5570   -0.7010 C   0  0  2  0  0  0  0  0  0  0  0  0
   -4.1310    1.6860    0.1360 C   0  0  0  0  0  0  0  0  0  0  0  0
   -4.7320    0.5230   -1.8770 C   0  0  0  0  0  0  0  0  0  0  0  0
   -2.3710    0.9010   -1.3230 C   0  0  0  0  0  0  0  0  0  0  0  0
   -2.0520    1.0740   -2.6320 N   0  0  0  0  0  0  0  0  0  0  0  0
   -0.7800    1.3680   -2.7900 N   0  0  0  0  0  0  0  0  0  0  0  0
   -0.2390    1.3930   -1.5850 C   0  0  0  0  0  0  0  0  0  0  0  0
   -1.2280    1.1000   -0.6350 C   0  0  0  0  0  0  0  0  0  0  0  0
   -1.0240    1.0320    0.8330 C   0  0  0  0  0  0  0  0  0  0  0  0
  1  2  1  0
  2  3  2  3
  3  4  1  0
  3  9  1  0
  4  5  2  0
  4  7  1  0
  5  6  1  0
  6  7  1  0
  7  8  2  0
  9 10  1  0
  9 11  1  0
 11 12  2  0
 11 13  1  0
 13 14  1  0
 14 15  1  0
 14 30  1  0
 15 16  1  0
 16 17  1  0
 17 18  1  0
 18 19  2  0
 19 20  1  0
 20 21  2  0
 21 22  1  0
 22 23  1  1
 22 24  1  0
 22 25  1  0
 25 26  2  0
 25 29  1  0
 26 27  1  0
 27 28  1  0
 28 29  2  0
 29 30  1  0
M  END
