
     RDKit          3D

 31 34  0  0  0  0  0  0  0  0999 V2000
   -3.8120   -2.2700    1.0840 C   0  0  0  0  0  0  0  0  0  0  0  0
   -3.8980   -1.0820    0.1670 C   0  0  0  0  0  0  0  0  0  0  0  0
   -4.8680   -0.2990    0.3660 N   0  0  0  0  0  0  0  0  0  0  0  0
   -5.1680    0.8600   -0.3420 C   0  0  0  0  0  0  0  0  0  0  0  0
   -6.3250    1.7490   -0.0650 C   0  0  0  0  0  0  0  0  0  0  0  0
   -4.3500    1.1940   -1.3470 C   0  0  0  0  0  0  0  0  0  0  0  0
   -4.6620    2.4020   -2.0910 N   0  0  0  0  0  0  0  0  0  0  0  0
   -3.8100    2.7350   -3.1700 C   0  0  0  0  0  0  0  0  0  0  0  0
   -4.0260    3.7690   -3.8540 O   0  0  0  0  0  0  0  0  0  0  0  0
   -2.7360    1.8710   -3.4300 N   0  0  0  0  0  0  0  0  0  0  0  0
   -2.4370    0.7060   -2.7090 C   0  0  0  0  0  0  0  0  0  0  0  0
   -1.3060   -0.1930   -3.0280 C   0  0  0  0  0  0  0  0  0  0  0  0
   -3.2190    0.3510   -1.6740 C   0  0  0  0  0  0  0  0  0  0  0  0
   -2.9140   -0.8230   -0.8820 C   0  0  1  0  0  0  0  0  0  0  0  0
   -1.5250   -0.9190   -0.3970 C   0  0  0  0  0  0  0  0  0  0  0  0
   -0.7590   -0.0420    0.3450 C   0  0  0  0  0  0  0  0  0  0  0  0
    0.4840   -0.5910    0.5710 C   0  0  0  0  0  0  0  0  0  0  0  0
    1.6210   -0.0320    1.3030 C   0  0  0  0  0  0  0  0  0  0  0  0
    1.5670    1.1050    1.8340 O   0  0  0  0  0  0  0  0  0  0  0  0
    2.8340   -0.7640    1.4400 N   0  0  0  0  0  0  0  0  0  0  0  0
    3.9840   -0.2550    2.1530 C   0  0  1  0  0  0  0  0  0  0  0  0
    4.2020   -1.0350    3.4510 C   0  0  0  0  0  0  0  0  0  0  0  0
    5.3150   -0.4930    4.0990 O   0  0  0  0  0  0  0  0  0  0  0  0
    5.1910   -0.2000    1.3360 C   0  0  0  0  0  0  0  0  0  0  0  0
    6.3860   -0.8190    1.5890 C   0  0  0  0  0  0  0  0  0  0  0  0
    7.2570   -0.5190    0.5830 N   0  0  0  0  0  0  0  0  0  0  0  0
    6.6240    0.2800   -0.2980 C   0  0  0  0  0  0  0  0  0  0  0  0
    5.3420    0.4850    0.1580 C   0  0  0  0  0  0  0  0  0  0  0  0
    4.3870    1.2500   -0.4720 O   0  0  0  0  0  0  0  0  0  0  0  0
    0.4580   -1.7900   -0.0360 N   0  0  0  0  0  0  0  0  0  0  0  0
   -0.7240   -1.9710   -0.6000 N   0  0  0  0  0  0  0  0  0  0  0  0
  1  2  1  0
  2  3  2  0
  2 14  1  0
  3  4  1  0
  4  5  1  0
  4  6  2  0
  6  7  1  0
  6 13  1  0
  7  8  1  0
  8  9  2  0
  8 10  1  0
 10 11  1  0
 11 12  1  0
 11 13  2  0
 13 14  1  0
 14 15  1  1
 15 16  1  0
 15 31  2  0
 16 17  2  0
 17 18  1  0
 17 30  1  0
 18 19  2  0
 18 20  1  0
 20 21  1  0
 21 22  1  1
 21 24  1  0
 22 23  1  0
 24 25  2  0
 24 28  1  0
 25 26  1  0
 26 27  1  0
 27 28  2  0
 28 29  1  0
 30 31  1  0
M  END
