
     RDKit          3D

 17 18  0  0  0  0  0  0  0  0999 V2000
   -3.3080    2.6000   -0.5740 O   0  0  0  0  0  0  0  0  0  0  0  0
   -2.3690    1.8610    0.1810 C   0  0  0  0  0  0  0  0  0  0  0  0
   -2.5620    0.4400   -0.0650 C   0  0  0  0  0  0  0  0  0  0  0  0
   -3.5570    0.0260   -0.9210 C   0  0  0  0  0  0  0  0  0  0  0  0
   -3.8200   -1.2990   -1.1990 C   0  0  0  0  0  0  0  0  0  0  0  0
   -5.0960   -1.7900   -2.2940 Cl  0  0  0  0  0  0  0  0  0  0  0  0
   -3.0380   -2.2610   -0.5820 C   0  0  0  0  0  0  0  0  0  0  0  0
   -2.0460   -1.8500    0.2710 C   0  0  0  0  0  0  0  0  0  0  0  0
   -1.7780   -0.5050    0.5540 C   0  0  0  0  0  0  0  0  0  0  0  0
   -0.6860   -0.1980    1.4630 C   0  0  0  0  0  0  0  0  0  0  0  0
    0.5420    0.1950    0.7060 C   0  0  0  0  0  0  0  0  0  0  0  0
    1.6550   -0.5060    0.8430 C   0  0  0  0  0  0  0  0  0  0  0  0
    2.8610   -0.1480    0.1220 C   0  0  0  0  0  0  0  0  0  0  0  0
    4.0400   -0.7450    0.1540 C   0  0  0  0  0  0  0  0  0  0  0  0
    4.9410   -0.0720   -0.7010 N   0  0  0  0  0  0  0  0  0  0  0  0
    4.2140    1.0000   -1.2690 C   0  0  0  0  0  0  0  0  0  0  0  0
    2.9820    0.9780   -0.8000 C   0  0  0  0  0  0  0  0  0  0  0  0
  1  2  1  0
  2  3  1  0
  3  4  2  0
  3  9  1  0
  4  5  1  0
  5  6  1  0
  5  7  2  0
  7  8  1  0
  8  9  2  0
  9 10  1  0
 10 11  1  0
 11 12  2  3
 12 13  1  0
 13 14  2  0
 13 17  1  0
 14 15  1  0
 15 16  1  0
 16 17  2  0
M  CHG  1  15   1
M  END
