
     RDKit          3D

 17 18  0  0  0  0  0  0  0  0999 V2000
   -3.7750    1.7510   -0.2440 C   0  0  0  0  0  0  0  0  0  0  0  0
   -2.2590    1.4820   -0.0360 N   0  0  0  0  0  0  0  0  0  0  0  0
   -2.2180    0.2110    0.5330 C   0  0  0  0  0  0  0  0  0  0  0  0
   -1.3580   -0.8370    0.0030 C   0  0  0  0  0  0  0  0  0  0  0  0
   -1.9110   -2.0040   -0.4710 C   0  0  0  0  0  0  0  0  0  0  0  0
   -3.2840   -1.9260   -0.7860 O   0  0  0  0  0  0  0  0  0  0  0  0
   -1.1940   -3.1640   -0.6230 C   0  0  0  0  0  0  0  0  0  0  0  0
    0.0870   -3.2070   -0.3140 C   0  0  0  0  0  0  0  0  0  0  0  0
    0.7150   -2.0360    0.1460 C   0  0  0  0  0  0  0  0  0  0  0  0
   -0.0120   -0.8400    0.3010 C   0  0  0  0  0  0  0  0  0  0  0  0
    0.7480    0.3950    0.5310 C   0  0  1  0  0  0  0  0  0  0  0  0
    1.7690    0.2180    1.6020 C   0  0  0  0  0  0  0  0  0  0  0  0
    2.6880    1.4540    1.5780 C   0  0  0  0  0  0  0  0  0  0  0  0
    3.6110    1.0750    0.4150 C   0  0  1  0  0  0  0  0  0  0  0  0
    4.2370   -0.5440    0.8110 Cl  0  0  0  0  0  0  0  0  0  0  0  0
    2.8470    0.9690   -0.8510 C   0  0  0  0  0  0  0  0  0  0  0  0
    1.4270    0.6780   -0.8250 C   0  0  0  0  0  0  0  0  0  0  0  0
  1  2  1  0
  2  3  1  0
  3  4  1  0
  4  5  2  0
  4 10  1  0
  5  6  1  0
  5  7  1  0
  7  8  2  0
  8  9  1  0
  9 10  2  0
 11 10  1  6
 11 12  1  0
 11 17  1  0
 12 13  1  0
 13 14  1  0
 14 15  1  1
 14 16  1  0
 16 17  1  0
M  CHG  1   2   1
M  END
