
     RDKit          3D

 17 18  0  0  0  0  0  0  0  0999 V2000
    1.5280   -0.2950   -1.3150 C   0  0  0  0  0  0  0  0  0  0  0  0
    2.0940   -0.0210    0.0340 C   0  0  1  0  0  0  0  0  0  0  0  0
    2.9950   -1.2100    0.3970 C   0  0  0  0  0  0  0  0  0  0  0  0
    3.0530    1.1770   -0.0380 C   0  0  0  0  0  0  0  0  0  0  0  0
    1.1340    0.1280    1.0890 N   0  0  0  0  0  0  0  0  0  0  0  0
   -0.1300    0.5680    0.7030 C   0  0  0  0  0  0  0  0  0  0  0  0
   -0.4500    1.9100    0.7090 C   0  0  0  0  0  0  0  0  0  0  0  0
   -1.6880    2.3860    0.3360 C   0  0  0  0  0  0  0  0  0  0  0  0
   -2.6580    1.4700   -0.0640 C   0  0  0  0  0  0  0  0  0  0  0  0
   -3.9250    1.8750   -0.4520 O   0  0  0  0  0  0  0  0  0  0  0  0
   -2.3510    0.1250   -0.0740 C   0  0  0  0  0  0  0  0  0  0  0  0
   -3.3350   -0.7520   -0.4760 C   0  0  0  0  0  0  0  0  0  0  0  0
   -4.9200   -0.1800   -0.9560 Cl  0  0  0  0  0  0  0  0  0  0  0  0
   -3.0810   -2.1010   -0.5050 C   0  0  0  0  0  0  0  0  0  0  0  0
   -1.8360   -2.5400   -0.1270 C   0  0  0  0  0  0  0  0  0  0  0  0
   -0.8310   -1.6950    0.2790 C   0  0  0  0  0  0  0  0  0  0  0  0
   -1.0870   -0.3430    0.3080 C   0  0  0  0  0  0  0  0  0  0  0  0
  2  1  1  6
  2  3  1  0
  2  4  1  0
  2  5  1  0
  5  6  1  0
  6  7  2  0
  6 17  1  0
  7  8  1  0
  8  9  2  0
  9 10  1  0
  9 11  1  0
 11 12  2  0
 11 17  1  0
 12 13  1  0
 12 14  1  0
 14 15  2  0
 15 16  1  0
 16 17  2  0
M  CHG  1   5   1
M  END
