
     RDKit          3D

 16 17  0  0  0  0  0  0  0  0999 V2000
   -4.9780   -1.2720    0.1200 C   0  0  0  0  0  0  0  0  0  0  0  0
   -3.8600   -0.2620    0.1460 C   0  0  0  0  0  0  0  0  0  0  0  0
   -2.5010   -0.9350    0.0570 C   0  0  0  0  0  0  0  0  0  0  0  0
   -1.4290    0.0890    0.0870 C   0  0  0  0  0  0  0  0  0  0  0  0
   -0.0870   -0.2540    0.0160 C   0  0  0  0  0  0  0  0  0  0  0  0
    0.9280    0.6800    0.0430 C   0  0  0  0  0  0  0  0  0  0  0  0
    2.3240    0.3000   -0.0320 C   0  0  0  0  0  0  0  0  0  0  0  0
    3.1890    0.9750   -0.8540 C   0  0  0  0  0  0  0  0  0  0  0  0
    4.5250    0.6730   -0.9780 C   0  0  0  0  0  0  0  0  0  0  0  0
    5.0040   -0.3760   -0.2220 C   0  0  0  0  0  0  0  0  0  0  0  0
    4.1720   -1.0820    0.6170 C   0  0  0  0  0  0  0  0  0  0  0  0
    2.8330   -0.7510    0.7180 C   0  0  0  0  0  0  0  0  0  0  0  0
    1.9540   -1.4370    1.5530 O   0  0  0  0  0  0  0  0  0  0  0  0
    0.5660    2.0050    0.1440 C   0  0  0  0  0  0  0  0  0  0  0  0
   -0.7650    2.3610    0.2150 C   0  0  0  0  0  0  0  0  0  0  0  0
   -1.7270    1.3970    0.1850 N   0  0  0  0  0  0  0  0  0  0  0  0
  1  2  1  0
  2  3  1  0
  3  4  1  0
  4  5  2  0
  4 16  1  0
  5  6  1  0
  6  7  1  0
  6 14  2  0
  7  8  2  0
  7 12  1  0
  8  9  1  0
  9 10  2  0
 10 11  1  0
 11 12  2  0
 12 13  1  0
 14 15  1  0
 15 16  2  0
M  CHG  1  16   1
M  END
