
     RDKit          3D

 17 18  0  0  0  0  0  0  0  0999 V2000
   -3.1850   -2.1510   -0.6930 C   0  0  0  0  0  0  0  0  0  0  0  0
   -2.0830   -1.2860   -0.3810 O   0  0  0  0  0  0  0  0  0  0  0  0
   -2.4020    0.0510   -0.1970 C   0  0  0  0  0  0  0  0  0  0  0  0
   -3.7210    0.5080   -0.3180 C   0  0  0  0  0  0  0  0  0  0  0  0
   -3.9940    1.8590   -0.1270 C   0  0  0  0  0  0  0  0  0  0  0  0
   -2.9460    2.7090    0.1780 C   0  0  0  0  0  0  0  0  0  0  0  0
   -1.6490    2.2410    0.2940 C   0  0  0  0  0  0  0  0  0  0  0  0
   -1.3670    0.9010    0.1060 C   0  0  0  0  0  0  0  0  0  0  0  0
   -0.0240    0.3540    0.2090 C   0  0  0  0  0  0  0  0  0  0  0  0
    0.9410    0.7590   -0.7150 C   0  0  0  0  0  0  0  0  0  0  0  0
    2.2330    0.3020   -0.6850 C   0  0  0  0  0  0  0  0  0  0  0  0
    2.6090   -0.5940    0.2910 C   0  0  0  0  0  0  0  0  0  0  0  0
    3.9860   -1.1340    0.4070 C   0  0  0  0  0  0  0  0  0  0  0  0
    4.9400   -0.3370   -0.3430 N   0  0  0  0  0  0  0  0  0  0  0  0
    1.6640   -1.0090    1.2180 C   0  0  0  0  0  0  0  0  0  0  0  0
    0.3560   -0.5410    1.1820 C   0  0  0  0  0  0  0  0  0  0  0  0
   -0.8210   -1.0710    2.3580 Cl  0  0  0  0  0  0  0  0  0  0  0  0
  1  2  1  0
  2  3  1  0
  3  4  2  0
  3  8  1  0
  4  5  1  0
  5  6  2  0
  6  7  1  0
  7  8  2  0
  8  9  1  0
  9 10  2  0
  9 16  1  0
 10 11  1  0
 11 12  2  0
 12 13  1  0
 12 15  1  0
 13 14  1  0
 15 16  2  0
 16 17  1  0
M  CHG  1  14   1
M  END
