
     RDKit          3D

 17 18  0  0  0  0  0  0  0  0999 V2000
    3.2390   -0.9190   -0.2780 C   0  0  0  0  0  0  0  0  0  0  0  0
    2.4090   -1.0660    0.9140 N   0  0  0  0  0  0  0  0  0  0  0  0
    1.0000   -0.8640    0.5350 C   0  0  0  0  0  0  0  0  0  0  0  0
    0.6030    0.5370    0.4340 C   0  0  0  0  0  0  0  0  0  0  0  0
    1.5010    1.5380    0.7150 C   0  0  0  0  0  0  0  0  0  0  0  0
    1.0710    2.8540    0.5730 C   0  0  0  0  0  0  0  0  0  0  0  0
    1.9270    3.9000    0.8400 O   0  0  0  0  0  0  0  0  0  0  0  0
   -0.2260    3.1730    0.1590 C   0  0  0  0  0  0  0  0  0  0  0  0
   -1.0850    2.1360   -0.1090 C   0  0  0  0  0  0  0  0  0  0  0  0
   -0.6980    0.8180    0.0200 C   0  0  0  0  0  0  0  0  0  0  0  0
   -1.6170   -0.2990   -0.2340 C   0  0  0  0  0  0  0  0  0  0  0  0
   -2.0320   -1.1710    0.7600 C   0  0  0  0  0  0  0  0  0  0  0  0
   -2.9100   -2.2030    0.5030 C   0  0  0  0  0  0  0  0  0  0  0  0
   -3.3810   -2.3640   -0.7700 C   0  0  0  0  0  0  0  0  0  0  0  0
   -2.9900   -1.5090   -1.7940 C   0  0  0  0  0  0  0  0  0  0  0  0
   -2.1160   -0.4940   -1.5020 C   0  0  0  0  0  0  0  0  0  0  0  0
   -1.6210    0.6060   -2.8140 Cl  0  0  0  0  0  0  0  0  0  0  0  0
  1  2  1  0
  2  3  1  0
  3  4  1  0
  4  5  2  0
  4 10  1  0
  5  6  1  0
  6  7  1  0
  6  8  2  0
  8  9  1  0
  9 10  2  0
 10 11  1  0
 11 12  2  0
 11 16  1  0
 12 13  1  0
 13 14  2  0
 14 15  1  0
 15 16  2  0
 16 17  1  0
M  CHG  1   2   1
M  END
