
     RDKit          3D

 17 16  0  0  0  0  0  0  0  0999 V2000
   -1.0530    1.1930    0.2760 C   0  0  0  0  0  0  0  0  0  0  0  0
   -1.2090    0.1100   -0.7530 C   0  0  1  0  0  0  0  0  0  0  0  0
   -0.1400   -0.7940   -0.8740 N   0  0  0  0  0  0  0  0  0  0  0  0
    0.7430   -0.9440    0.2220 C   0  0  0  0  0  0  0  0  0  0  0  0
    1.9110    0.0530    0.1750 C   0  0  0  0  0  0  0  0  0  0  0  0
    2.7200   -0.1620    1.2760 O   0  0  0  0  0  0  0  0  0  0  0  0
    3.7880    0.7040    1.3610 C   0  0  0  0  0  0  0  0  0  0  0  0
    4.6860    0.5880    0.1700 C   0  0  0  0  0  0  0  0  0  0  0  0
    5.1770   -0.7780    0.1030 N   0  0  0  0  0  0  0  0  0  0  0  0
   -2.5670   -0.5620   -0.5750 C   0  0  2  0  0  0  0  0  0  0  0  0
   -3.5190    0.4780   -0.4730 O   0  0  0  0  0  0  0  0  0  0  0  0
   -4.5050    0.7250   -1.3950 C   0  0  0  0  0  0  0  0  0  0  0  0
   -5.4170    1.7860   -1.2170 N   0  0  0  0  0  0  0  0  0  0  0  0
   -4.5900   -0.0010   -2.4030 O   0  0  0  0  0  0  0  0  0  0  0  0
   -2.6210   -1.5040    0.5360 C   0  0  0  0  0  0  0  0  0  0  0  0
   -3.5760   -1.2960    1.5700 N   0  0  0  0  0  0  0  0  0  0  0  0
   -1.8720   -2.5040    0.6470 O   0  0  0  0  0  0  0  0  0  0  0  0
  2  1  1  1
  2  3  1  0
  2 10  1  0
  3  4  1  0
  4  5  1  0
  5  6  1  0
  6  7  1  0
  7  8  1  0
  8  9  1  0
 10 11  1  1
 10 15  1  0
 11 12  1  0
 12 13  1  0
 12 14  2  0
 15 16  1  0
 15 17  2  0
M  CHG  2   3   1   9   1
M  END
