
     RDKit          3D

 17 16  0  0  0  0  0  0  0  0999 V2000
   -3.4870   -0.4790    1.7080 C   0  0  0  0  0  0  0  0  0  0  0  0
   -2.3570    0.0260    0.8220 C   0  0  1  0  0  0  0  0  0  0  0  0
   -2.4270   -0.5120   -0.4980 N   0  0  0  0  0  0  0  0  0  0  0  0
   -1.1430   -1.0140   -0.9870 C   0  0  1  0  0  0  0  0  0  0  0  0
   -0.1190    0.0700   -1.0210 C   0  0  0  0  0  0  0  0  0  0  0  0
    1.1920   -0.4570   -1.5270 C   0  0  0  0  0  0  0  0  0  0  0  0
    2.1830    0.7280   -1.5620 C   0  0  0  0  0  0  0  0  0  0  0  0
    2.3400    1.2710   -0.2430 N   0  0  0  0  0  0  0  0  0  0  0  0
    3.2570    0.8240    0.5450 C   0  0  0  0  0  0  0  0  0  0  0  0
    4.1220   -0.2130    0.1090 N   0  0  0  0  0  0  0  0  0  0  0  0
    3.3840    1.3930    1.8590 N   0  0  0  0  0  0  0  0  0  0  0  0
   -0.7330   -2.1830   -0.1940 C   0  0  0  0  0  0  0  0  0  0  0  0
   -1.4080   -2.4810    0.8350 O   0  0  0  0  0  0  0  0  0  0  0  0
    0.3430   -2.9830   -0.4990 O   0  0  0  0  0  0  0  0  0  0  0  0
   -2.4750    1.5000    0.7550 C   0  0  0  0  0  0  0  0  0  0  0  0
   -2.4400    2.2170    1.7910 O   0  0  0  0  0  0  0  0  0  0  0  0
   -2.6270    2.1250   -0.4550 O   0  0  0  0  0  0  0  0  0  0  0  0
  2  1  1  1
  2  3  1  0
  2 15  1  0
  3  4  1  0
  4  5  1  1
  4 12  1  0
  5  6  1  0
  6  7  1  0
  7  8  1  0
  8  9  2  3
  9 10  1  0
  9 11  1  0
 12 13  2  0
 12 14  1  0
 15 16  2  0
 15 17  1  0
M  CHG  2   3   1   8   1
M  END
