
     RDKit          3D

 17 16  0  0  0  0  0  0  0  0999 V2000
    6.2300    1.1560    1.4850 N   0  0  0  0  0  0  0  0  0  0  0  0
    5.1030    0.8440    0.6590 C   0  0  0  0  0  0  0  0  0  0  0  0
    4.5510    1.7940    0.0620 O   0  0  0  0  0  0  0  0  0  0  0  0
    4.6030   -0.5250    0.5060 C   0  0  0  0  0  0  0  0  0  0  0  0
    3.4860   -0.6820   -0.2640 O   0  0  0  0  0  0  0  0  0  0  0  0
    2.3420   -0.0660    0.1920 C   0  0  0  0  0  0  0  0  0  0  0  0
    1.1760   -0.3510   -0.7720 C   0  0  0  0  0  0  0  0  0  0  0  0
    0.0760    0.2840   -0.2640 O   0  0  0  0  0  0  0  0  0  0  0  0
   -1.0730    0.1470   -0.9900 C   0  0  2  0  0  0  0  0  0  0  0  0
   -1.6510    1.4160   -1.4640 C   0  0  0  0  0  0  0  0  0  0  0  0
   -1.0840    2.6970   -1.2020 N   0  0  0  0  0  0  0  0  0  0  0  0
   -2.6780    1.3950   -2.1220 O   0  0  0  0  0  0  0  0  0  0  0  0
   -2.0300   -0.6660   -0.1850 C   0  0  0  0  0  0  0  0  0  0  0  0
   -1.5760   -1.9890    0.1520 N   0  0  0  0  0  0  0  0  0  0  0  0
   -3.1960   -0.2470    0.2030 C   0  0  0  0  0  0  0  0  0  0  0  0
   -4.0740   -1.1250    0.9980 C   0  0  0  0  0  0  0  0  0  0  0  0
   -5.3420   -1.3770    0.3280 N   0  0  0  0  0  0  0  0  0  0  0  0
  1  2  1  0
  2  3  2  0
  2  4  1  0
  4  5  1  0
  5  6  1  0
  6  7  1  0
  7  8  1  0
  9  8  1  1
  9 10  1  0
  9 13  1  0
 10 11  1  0
 10 12  2  0
 13 14  1  0
 13 15  2  3
 15 16  1  0
 16 17  1  0
M  CHG  2  11   1  17   1
M  END
