
     RDKit          3D

 17 16  0  0  0  0  0  0  0  0999 V2000
   -3.6830    2.6460    0.5050 C   0  0  0  0  0  0  0  0  0  0  0  0
   -3.0330    1.4340    0.2820 O   0  0  0  0  0  0  0  0  0  0  0  0
   -3.8540    0.4500   -0.2010 C   0  0  1  0  0  0  0  0  0  0  0  0
   -3.3210   -0.0680   -1.5100 C   0  0  0  0  0  0  0  0  0  0  0  0
   -2.1060   -0.6520   -1.3620 O   0  0  0  0  0  0  0  0  0  0  0  0
   -1.0580    0.0490   -0.9040 C   0  0  0  0  0  0  0  0  0  0  0  0
    0.1420   -0.8540   -0.9250 C   0  0  0  0  0  0  0  0  0  0  0  0
    0.0190   -2.0170   -1.3240 O   0  0  0  0  0  0  0  0  0  0  0  0
    1.4200   -0.3740   -0.4870 N   0  0  0  0  0  0  0  0  0  0  0  0
    2.5830   -1.2160   -0.4970 C   0  0  0  0  0  0  0  0  0  0  0  0
    3.7870   -0.5520   -0.0160 C   0  0  0  0  0  0  0  0  0  0  0  0
    4.9930   -1.3690   -0.0100 N   0  0  0  0  0  0  0  0  0  0  0  0
    3.8830    0.7010    0.4060 C   0  0  0  0  0  0  0  0  0  0  0  0
    5.1560    1.2080    0.8510 N   0  0  0  0  0  0  0  0  0  0  0  0
   -3.8080   -0.7050    0.7450 C   0  0  0  0  0  0  0  0  0  0  0  0
   -4.5420   -1.9030    0.5560 N   0  0  0  0  0  0  0  0  0  0  0  0
   -3.0820   -0.6100    1.7590 O   0  0  0  0  0  0  0  0  0  0  0  0
  1  2  1  0
  2  3  1  0
  3  4  1  6
  3 15  1  0
  4  5  1  0
  5  6  1  0
  6  7  1  0
  7  8  2  0
  7  9  1  0
  9 10  1  0
 10 11  1  0
 11 12  1  0
 11 13  2  3
 13 14  1  0
 15 16  1  0
 15 17  2  0
M  CHG  2  12   1  14   1
M  END
