
     RDKit          3D

 17 16  0  0  0  0  0  0  0  0999 V2000
    4.8610   -1.2810   -0.8580 C   0  0  0  0  0  0  0  0  0  0  0  0
    4.3870   -1.5320    0.4150 O   0  0  0  0  0  0  0  0  0  0  0  0
    4.4450   -0.4470    1.2520 C   0  0  0  0  0  0  0  0  0  0  0  0
    3.6330    0.6920    0.7370 C   0  0  0  0  0  0  0  0  0  0  0  0
    2.2390    0.2620    0.6190 N   0  0  0  0  0  0  0  0  0  0  0  0
    1.3950    1.3560    0.9840 C   0  0  0  0  0  0  0  0  0  0  0  0
   -0.0560    0.9680    0.8460 C   0  0  0  0  0  0  0  0  0  0  0  0
   -0.9270    1.8270    1.1300 O   0  0  0  0  0  0  0  0  0  0  0  0
   -0.4170   -0.3140    0.4120 N   0  0  0  0  0  0  0  0  0  0  0  0
   -1.7060   -0.8590    0.1960 C   0  0  0  0  0  0  0  0  0  0  0  0
   -2.5150   -0.3280   -0.9070 C   0  0  2  0  0  0  0  0  0  0  0  0
   -1.7820   -0.4700   -2.1310 O   0  0  0  0  0  0  0  0  0  0  0  0
   -3.0250    1.0600   -0.8600 C   0  0  0  0  0  0  0  0  0  0  0  0
   -3.7940    1.3730    0.3020 N   0  0  0  0  0  0  0  0  0  0  0  0
   -3.7400   -1.2500   -1.0990 C   0  0  0  0  0  0  0  0  0  0  0  0
   -4.7010   -1.3730   -0.0910 N   0  0  0  0  0  0  0  0  0  0  0  0
   -3.8470   -1.8750   -2.1640 O   0  0  0  0  0  0  0  0  0  0  0  0
  1  2  1  0
  2  3  1  0
  3  4  1  0
  4  5  1  0
  5  6  1  0
  6  7  1  0
  7  8  2  0
  7  9  1  0
  9 10  1  0
 10 11  1  0
 11 12  1  6
 11 13  1  0
 11 15  1  0
 13 14  1  0
 15 16  1  0
 15 17  2  0
M  CHG  2   5   1  14   1
M  END
