
     RDKit          3D

 17 16  0  0  0  0  0  0  0  0999 V2000
   -3.1680    0.1430    1.5410 C   0  0  0  0  0  0  0  0  0  0  0  0
   -2.5290   -0.2800    0.2550 C   0  0  2  0  0  0  0  0  0  0  0  0
   -2.9830   -1.7170   -0.0470 C   0  0  0  0  0  0  0  0  0  0  0  0
   -4.3880   -1.8720   -0.1740 N   0  0  0  0  0  0  0  0  0  0  0  0
   -1.1600   -0.3630    0.3300 O   0  0  0  0  0  0  0  0  0  0  0  0
   -0.4610    0.7200    0.7250 C   0  0  0  0  0  0  0  0  0  0  0  0
    1.0240    0.3180    0.7210 C   0  0  0  0  0  0  0  0  0  0  0  0
    1.2920   -0.0440   -0.5810 O   0  0  0  0  0  0  0  0  0  0  0  0
    2.5670   -0.4570   -0.7860 C   0  0  0  0  0  0  0  0  0  0  0  0
    3.5630    0.6280   -0.4690 C   0  0  0  0  0  0  0  0  0  0  0  0
    4.8930    0.0740   -0.7320 N   0  0  0  0  0  0  0  0  0  0  0  0
    6.0570    0.8480   -0.5300 C   0  0  0  0  0  0  0  0  0  0  0  0
    7.3710    0.3720   -0.7650 N   0  0  0  0  0  0  0  0  0  0  0  0
    5.8750    2.0400   -0.1130 O   0  0  0  0  0  0  0  0  0  0  0  0
   -2.9260    0.6280   -0.8280 C   0  0  0  0  0  0  0  0  0  0  0  0
   -4.2650    1.0080   -1.1450 N   0  0  0  0  0  0  0  0  0  0  0  0
   -2.0710    1.1190   -1.5370 O   0  0  0  0  0  0  0  0  0  0  0  0
  2  1  1  1
  2  3  1  0
  2  5  1  0
  2 15  1  0
  3  4  1  0
  5  6  1  0
  6  7  1  0
  7  8  1  0
  8  9  1  0
  9 10  1  0
 10 11  1  0
 11 12  1  0
 12 13  1  0
 12 14  2  0
 15 16  1  0
 15 17  2  0
M  CHG  2   4   1  16   1
M  END
