
     RDKit          3D

 17 16  0  0  0  0  0  0  0  0999 V2000
   -3.3090   -2.9070   -0.6350 N   0  0  0  0  0  0  0  0  0  0  0  0
   -1.9170   -2.8990   -0.8280 C   0  0  0  0  0  0  0  0  0  0  0  0
   -1.4490   -4.0980   -0.9890 O   0  0  0  0  0  0  0  0  0  0  0  0
   -0.9840   -1.8280   -0.8720 C   0  0  0  0  0  0  0  0  0  0  0  0
   -1.0670   -0.5520   -0.7590 C   0  0  0  0  0  0  0  0  0  0  0  0
    0.1540    0.2330   -0.8650 N   0  0  0  0  0  0  0  0  0  0  0  0
    1.1320   -0.0240   -0.0740 C   0  0  0  0  0  0  0  0  0  0  0  0
    1.0110   -1.0530    0.8800 N   0  0  0  0  0  0  0  0  0  0  0  0
    2.4120    0.7210   -0.1080 C   0  0  0  0  0  0  0  0  0  0  0  0
    3.5000   -0.3170   -0.4110 C   0  0  0  0  0  0  0  0  0  0  0  0
    4.8560    0.3510   -0.4670 C   0  0  0  0  0  0  0  0  0  0  0  0
    5.1740    0.9660    0.7310 O   0  0  0  0  0  0  0  0  0  0  0  0
   -2.2690    0.2320   -0.5290 C   0  0  1  0  0  0  0  0  0  0  0  0
   -3.4630   -0.3870   -0.4120 O   0  0  0  0  0  0  0  0  0  0  0  0
   -2.0750    1.1820    0.6840 C   0  0  0  0  0  0  0  0  0  0  0  0
   -3.1090    2.1030    0.6600 O   0  0  0  0  0  0  0  0  0  0  0  0
   -3.0570    2.9840    1.6590 N   0  0  0  0  0  0  0  0  0  0  0  0
  1  2  1  0
  2  3  2  0
  2  4  1  0
  4  5  2  3
  5  6  1  0
  5 13  1  0
  6  7  2  3
  7  8  1  0
  7  9  1  0
  9 10  1  0
 10 11  1  0
 11 12  1  0
 13 14  1  1
 13 15  1  0
 15 16  1  0
 16 17  1  0
M  CHG  2   6   1  17   1
M  END
