
     RDKit          3D

 17 16  0  0  0  0  0  0  0  0999 V2000
    5.6440    0.2620   -2.0330 N   0  0  0  0  0  0  0  0  0  0  0  0
    6.0190   -0.1500   -0.6980 C   0  0  0  0  0  0  0  0  0  0  0  0
    4.8100   -0.1530    0.1640 C   0  0  0  0  0  0  0  0  0  0  0  0
    4.9020   -0.4840    1.3850 O   0  0  0  0  0  0  0  0  0  0  0  0
    3.5250    0.2030   -0.3150 N   0  0  0  0  0  0  0  0  0  0  0  0
    2.3530    0.1940    0.5420 C   0  0  0  0  0  0  0  0  0  0  0  0
    2.5710   -0.1510    1.7300 O   0  0  0  0  0  0  0  0  0  0  0  0
    1.0440    0.5750   -0.0190 C   0  0  0  0  0  0  0  0  0  0  0  0
   -0.0320    0.4020    0.9910 C   0  0  2  0  0  0  0  0  0  0  0  0
   -0.1960   -0.9450    1.4560 N   0  0  0  0  0  0  0  0  0  0  0  0
   -1.3350    0.9680    0.5380 C   0  0  0  0  0  0  0  0  0  0  0  0
   -1.4490    2.1310    0.1000 O   0  0  0  0  0  0  0  0  0  0  0  0
   -2.4810    0.1380    0.6150 N   0  0  0  0  0  0  0  0  0  0  0  0
   -3.7710    0.6670    0.1770 C   0  0  0  0  0  0  0  0  0  0  0  0
   -4.8670   -0.3600    0.3340 C   0  0  0  0  0  0  0  0  0  0  0  0
   -6.1540    0.2660   -0.1380 C   0  0  0  0  0  0  0  0  0  0  0  0
   -5.9990    0.6260   -1.4650 O   0  0  0  0  0  0  0  0  0  0  0  0
  1  2  1  0
  2  3  1  0
  3  4  2  0
  3  5  1  0
  5  6  1  0
  6  7  2  0
  6  8  1  0
  8  9  1  0
  9 10  1  6
  9 11  1  0
 11 12  2  0
 11 13  1  0
 13 14  1  0
 14 15  1  0
 15 16  1  0
 16 17  1  0
M  CHG  2   1   1  10   1
M  END
