
     RDKit          3D

 20 22  0  0  0  0  0  0  0  0999 V2000
    6.1220    0.2160   -0.1730 C   0  0  0  0  0  0  0  0  0  0  0  0
    4.6400    0.1100   -0.2830 C   0  0  0  0  0  0  0  0  0  0  0  0
    3.9440    1.2080   -0.7010 C   0  0  0  0  0  0  0  0  0  0  0  0
    2.5640    1.1650   -0.8220 C   0  0  0  0  0  0  0  0  0  0  0  0
    1.6720    2.0510   -1.1910 O   0  0  0  0  0  0  0  0  0  0  0  0
    0.4600    1.5130   -1.1380 C   0  0  0  0  0  0  0  0  0  0  0  0
   -0.7890    2.0140   -1.4210 C   0  0  0  0  0  0  0  0  0  0  0  0
   -1.9320    1.2690   -1.2950 C   0  0  0  0  0  0  0  0  0  0  0  0
   -1.8490   -0.0260   -0.8730 C   0  0  0  0  0  0  0  0  0  0  0  0
   -3.0450   -0.7940   -0.7870 N   0  0  0  0  0  0  0  0  0  0  0  0
   -4.3340   -0.1580   -0.9380 C   0  0  0  0  0  0  0  0  0  0  0  0
   -4.7200    0.7130    0.2320 C   0  0  0  0  0  0  0  0  0  0  0  0
   -4.7950   -0.0650    1.4600 N   0  0  0  0  0  0  0  0  0  0  0  0
   -0.6080   -0.5720   -0.5770 C   0  0  0  0  0  0  0  0  0  0  0  0
   -0.4850   -1.9660   -0.1000 C   0  0  0  0  0  0  0  0  0  0  0  0
    0.5480    0.1900   -0.7070 C   0  0  0  0  0  0  0  0  0  0  0  0
    1.8970   -0.0280   -0.5060 C   0  0  0  0  0  0  0  0  0  0  0  0
    2.5910   -1.1290   -0.0880 C   0  0  0  0  0  0  0  0  0  0  0  0
    3.9720   -1.0670    0.0260 C   0  0  0  0  0  0  0  0  0  0  0  0
    4.8620   -2.4770    0.5620 Cl  0  0  0  0  0  0  0  0  0  0  0  0
  1  2  1  0
  2  3  2  0
  2 19  1  0
  3  4  1  0
  4  5  1  0
  4 17  2  0
  5  6  1  0
  6  7  2  0
  6 16  1  0
  7  8  1  0
  8  9  2  0
  9 10  1  0
  9 14  1  0
 10 11  1  0
 11 12  1  0
 12 13  1  0
 14 15  1  0
 14 16  2  0
 16 17  1  0
 17 18  1  0
 18 19  2  0
 19 20  1  0
M  END
