
     RDKit          3D

 20 22  0  0  0  0  0  0  0  0999 V2000
   -0.3620   -3.1330    1.5470 C   0  0  0  0  0  0  0  0  0  0  0  0
   -1.0930   -1.8790    1.2180 C   0  0  0  0  0  0  0  0  0  0  0  0
   -2.2040   -1.3700    1.7720 N   0  0  0  0  0  0  0  0  0  0  0  0
   -2.5600   -0.2470    1.2240 N   0  0  0  0  0  0  0  0  0  0  0  0
   -1.6900    0.0660    0.2540 C   0  0  0  0  0  0  0  0  0  0  0  0
   -0.7530   -0.9670    0.2430 C   0  0  0  0  0  0  0  0  0  0  0  0
    0.3510   -1.0430   -0.6310 N   0  0  0  0  0  0  0  0  0  0  0  0
    1.6270   -0.4850   -0.3130 C   0  0  0  0  0  0  0  0  0  0  0  0
    1.8730    0.1730    0.8740 C   0  0  0  0  0  0  0  0  0  0  0  0
    3.0990    0.6800    1.1180 N   0  0  0  0  0  0  0  0  0  0  0  0
    4.1240    0.5820    0.2530 C   0  0  0  0  0  0  0  0  0  0  0  0
    5.3970    1.1400    0.5710 N   0  0  0  0  0  0  0  0  0  0  0  0
    3.8920   -0.0590   -0.9100 N   0  0  0  0  0  0  0  0  0  0  0  0
    2.6810   -0.5830   -1.1970 C   0  0  0  0  0  0  0  0  0  0  0  0
    2.4340   -1.2630   -2.4310 N   0  0  0  0  0  0  0  0  0  0  0  0
   -2.0800    1.3480   -0.3860 C   0  0  2  0  0  0  0  0  0  0  0  0
   -2.9650    1.1270   -1.6030 C   0  0  0  0  0  0  0  0  0  0  0  0
   -0.9500    2.0880   -0.7230 O   0  0  0  0  0  0  0  0  0  0  0  0
   -2.9150    2.0000    0.6680 C   0  0  0  0  0  0  0  0  0  0  0  0
   -3.5930    0.7930    1.3130 C   0  0  0  0  0  0  0  0  0  0  0  0
  1  2  1  0
  2  3  2  0
  2  6  1  0
  3  4  1  0
  4  5  1  0
  4 20  1  0
  5  6  2  0
  5 16  1  0
  6  7  1  0
  7  8  1  0
  8  9  2  0
  8 14  1  0
  9 10  1  0
 10 11  2  0
 11 12  1  0
 11 13  1  0
 13 14  2  0
 14 15  1  0
 16 17  1  6
 16 18  1  0
 16 19  1  0
 19 20  1  0
M  CHG  1  10   1
M  END
