
     RDKit          3D

 20 23  0  0  0  0  0  0  0  0999 V2000
    2.6010   -2.5830   -1.2760 C   0  0  0  0  0  0  0  0  0  0  0  0
    2.7700   -1.3800   -0.4190 C   0  0  0  0  0  0  0  0  0  0  0  0
    4.0050   -0.9730    0.0290 C   0  0  0  0  0  0  0  0  0  0  0  0
    4.1210    0.1530    0.8270 C   0  0  0  0  0  0  0  0  0  0  0  0
    5.7170    0.6600    1.3920 Cl  0  0  0  0  0  0  0  0  0  0  0  0
    3.0310    0.8850    1.1890 C   0  0  0  0  0  0  0  0  0  0  0  0
    1.7540    0.5080    0.7560 C   0  0  0  0  0  0  0  0  0  0  0  0
    1.6690   -0.6000   -0.0240 C   0  0  0  0  0  0  0  0  0  0  0  0
    0.4100   -1.0660   -0.5160 N   0  0  0  0  0  0  0  0  0  0  0  0
   -0.7450   -0.3100   -0.1450 C   0  0  0  0  0  0  0  0  0  0  0  0
   -1.9550   -0.8070   -0.6520 C   0  0  0  0  0  0  0  0  0  0  0  0
   -3.1100   -0.1250   -0.3330 C   0  0  0  0  0  0  0  0  0  0  0  0
   -4.4070   -0.3330   -0.6510 N   0  0  0  0  0  0  0  0  0  0  0  0
   -5.1600    0.6260   -0.0860 C   0  0  0  0  0  0  0  0  0  0  0  0
   -4.3450    1.4750    0.6130 C   0  0  0  0  0  0  0  0  0  0  0  0
   -3.0470    1.0030    0.4580 C   0  0  0  0  0  0  0  0  0  0  0  0
   -1.8640    1.4800    0.9470 C   0  0  0  0  0  0  0  0  0  0  0  0
   -0.6790    0.8070    0.6390 C   0  0  0  0  0  0  0  0  0  0  0  0
    0.5940    1.3070    1.1560 C   0  0  2  0  0  0  0  0  0  0  0  0
    0.7790    2.6690    0.8750 O   0  0  0  0  0  0  0  0  0  0  0  0
  1  2  1  0
  2  3  2  0
  2  8  1  0
  3  4  1  0
  4  5  1  0
  4  6  2  0
  6  7  1  0
  7  8  2  0
  7 19  1  0
  8  9  1  0
  9 10  1  0
 10 11  2  0
 10 18  1  0
 11 12  1  0
 12 13  1  0
 12 16  2  0
 13 14  1  0
 14 15  2  0
 15 16  1  0
 16 17  1  0
 17 18  2  0
 18 19  1  0
 19 20  1  6
M  END
