
     RDKit          3D

 11 11  0  0  0  0  0  0  0  0999 V2000
   -2.7460    0.5080    1.0880 C   0  0  0  0  0  0  0  0  0  0  0  0
   -2.3010   -0.7040    0.2970 C   0  0  0  0  0  0  0  0  0  0  0  0
   -0.8940   -0.5430   -0.1860 C   0  0  0  0  0  0  0  0  0  0  0  0
   -0.2660   -1.5180   -0.9310 C   0  0  0  0  0  0  0  0  0  0  0  0
    0.9990   -1.0480   -1.2010 C   0  0  0  0  0  0  0  0  0  0  0  0
    1.0720    0.2010   -0.5980 C   0  0  0  0  0  0  0  0  0  0  0  0
    2.2260    1.1090   -0.6020 C   0  0  0  0  0  0  0  0  0  0  0  0
    3.1140    0.9010    0.5000 N   0  0  0  0  0  0  0  0  0  0  0  0
    4.2420    1.6640    0.6490 O   0  0  0  0  0  0  0  0  0  0  0  0
    2.8440   -0.2260    1.6170 S   0  0  0  0  0  0  0  0  0  0  0  0
   -0.0740    0.4430   -0.0160 O   0  0  0  0  0  0  0  0  0  0  0  0
  1  2  1  0
  2  3  1  0
  3  4  2  0
  3 11  1  0
  4  5  1  0
  5  6  2  0
  6  7  1  0
  6 11  1  0
  7  8  1  0
  8  9  1  0
  8 10  2  0
M  CHG  2   8   1   9  -1
M  END
