
     RDKit          3D

 10  9  0  0  0  0  0  0  0  0999 V2000
    3.9190    1.3460    0.2500 N   0  0  0  0  0  0  0  0  0  0  0  0
    2.6730    0.8760   -0.3310 C   0  0  0  0  0  0  0  0  0  0  0  0
    2.0560    0.0720    0.6140 O   0  0  0  0  0  0  0  0  0  0  0  0
    0.8460   -0.4450    0.1820 C   0  0  1  0  0  0  0  0  0  0  0  0
    0.8690   -1.8190    0.1590 O   0  0  0  0  0  0  0  0  0  0  0  0
   -0.2720    0.0900    1.0720 C   0  0  0  0  0  0  0  0  0  0  0  0
   -1.5100   -0.3740    0.7140 O   0  0  0  0  0  0  0  0  0  0  0  0
   -1.9130   -0.0620   -0.5620 C   0  0  0  0  0  0  0  0  0  0  0  0
   -3.3050   -0.6690   -0.7510 C   0  0  0  0  0  0  0  0  0  0  0  0
   -3.8010   -0.4030   -2.0260 O   0  0  0  0  0  0  0  0  0  0  0  0
  1  2  1  0
  2  3  1  0
  3  4  1  0
  4  5  1  1
  4  6  1  0
  6  7  1  0
  7  8  1  0
  8  9  1  0
  9 10  1  0
M  END
