
     RDKit          3D

 11 11  0  0  0  0  0  0  0  0999 V2000
    2.8920    0.0100    0.1310 C   0  0  0  0  0  0  0  0  0  0  0  0
    1.7280   -0.2430   -1.2430 S   0  0  0  0  0  0  0  0  0  0  0  0
    0.0950   -0.4000   -0.4870 C   0  0  0  0  0  0  0  0  0  0  0  0
   -0.3910   -1.6330   -0.1150 C   0  0  0  0  0  0  0  0  0  0  0  0
   -1.6400   -1.7220    0.4610 C   0  0  0  0  0  0  0  0  0  0  0  0
   -2.3670   -0.5740    0.6470 C   0  0  0  0  0  0  0  0  0  0  0  0
   -1.8800    0.6450    0.2760 C   0  0  0  0  0  0  0  0  0  0  0  0
   -0.6200    0.7640   -0.3080 C   0  0  0  0  0  0  0  0  0  0  0  0
   -0.0720    2.0150   -0.7080 N   0  0  0  0  0  0  0  0  0  0  0  0
    0.6990    2.0760   -1.6980 O   0  0  0  0  0  0  0  0  0  0  0  0
   -0.3350    3.2010   -0.0680 O   0  0  0  0  0  0  0  0  0  0  0  0
  1  2  1  0
  2  3  1  0
  3  4  2  0
  3  8  1  0
  4  5  1  0
  5  6  2  0
  6  7  1  0
  7  8  2  0
  8  9  1  0
  9 10  2  0
  9 11  1  0
M  CHG  2   9   1  11  -1
M  END
