
     RDKit          3D

 10 10  0  0  0  0  0  0  0  0999 V2000
    3.3830    0.1210    0.5690 C   0  0  0  0  0  0  0  0  0  0  0  0
    2.4980   -0.0790   -0.9930 S   0  0  0  0  0  0  0  0  0  0  0  0
    0.7560   -0.3450   -0.6150 C   0  0  0  0  0  0  0  0  0  0  0  0
   -0.1320    0.6970   -0.5050 C   0  0  0  0  0  0  0  0  0  0  0  0
   -1.4670    0.4980   -0.2160 C   0  0  0  0  0  0  0  0  0  0  0  0
   -2.4120    1.6670   -0.1030 C   0  0  0  0  0  0  0  0  0  0  0  0
   -1.9050   -0.7900   -0.0340 C   0  0  0  0  0  0  0  0  0  0  0  0
   -0.9930   -1.8150   -0.1500 C   0  0  0  0  0  0  0  0  0  0  0  0
    0.3100   -1.5890   -0.4350 N   0  0  0  0  0  0  0  0  0  0  0  0
    1.2030   -2.6280   -0.5460 O   0  0  0  0  0  0  0  0  0  0  0  0
  1  2  1  0
  2  3  1  0
  3  4  2  0
  3  9  1  0
  4  5  1  0
  5  6  1  0
  5  7  2  0
  7  8  1  0
  8  9  2  0
  9 10  1  0
M  CHG  2   9   1  10  -1
M  END
