
     RDKit          3D

 11 11  0  0  0  0  0  0  0  0999 V2000
    3.3730    0.4080   -0.3220 C   0  0  0  0  0  0  0  0  0  0  0  0
    2.1180   -0.3900   -1.3500 S   0  0  0  0  0  0  0  0  0  0  0  0
    0.5210   -0.4260   -0.5480 C   0  0  0  0  0  0  0  0  0  0  0  0
    0.2040   -1.5090    0.2450 C   0  0  0  0  0  0  0  0  0  0  0  0
   -1.0030   -1.6060    0.8920 C   0  0  0  0  0  0  0  0  0  0  0  0
   -1.9200   -0.6000    0.7480 C   0  0  0  0  0  0  0  0  0  0  0  0
   -1.6380    0.4930   -0.0330 C   0  0  0  0  0  0  0  0  0  0  0  0
   -2.5960    1.5210   -0.1700 N   0  0  0  0  0  0  0  0  0  0  0  0
   -2.3390    2.5010   -0.8730 O   0  0  0  0  0  0  0  0  0  0  0  0
   -3.7910    1.4280    0.4680 O   0  0  0  0  0  0  0  0  0  0  0  0
   -0.4010    0.5670   -0.6820 C   0  0  0  0  0  0  0  0  0  0  0  0
  1  2  1  0
  2  3  1  0
  3  4  2  0
  3 11  1  0
  4  5  1  0
  5  6  2  0
  6  7  1  0
  7  8  1  0
  7 11  2  0
  8  9  2  0
  8 10  1  0
M  CHG  2   8   1  10  -1
M  END
