
     RDKit          3D

 11 11  0  0  0  0  0  0  0  0999 V2000
   -1.9850   -1.1960    0.0330 C   0  0  0  0  0  0  0  0  0  0  0  0
   -1.1970   -0.3700   -0.9090 C   0  0  0  0  0  0  0  0  0  0  0  0
   -0.5390    0.8050   -0.1970 C   0  0  0  0  0  0  0  0  0  0  0  0
   -1.1680    2.0470   -0.1520 C   0  0  0  0  0  0  0  0  0  0  0  0
    0.0160    3.0970    0.7370 S   0  0  0  0  0  0  0  0  0  0  0  0
    1.2980    1.7420    1.0060 C   0  0  0  0  0  0  0  0  0  0  0  0
    0.6840    0.6670    0.3800 C   0  0  0  0  0  0  0  0  0  0  0  0
    1.3430   -0.7280    0.5540 C   0  0  0  0  0  0  0  0  0  0  0  0
    2.2520   -0.9280   -0.5040 N   0  0  0  0  0  0  0  0  0  0  0  0
    2.5030   -0.0340   -1.3540 O   0  0  0  0  0  0  0  0  0  0  0  0
    2.9260   -2.1120   -0.6360 O   0  0  0  0  0  0  0  0  0  0  0  0
  1  2  1  0
  2  3  1  0
  3  4  2  0
  3  7  1  0
  4  5  1  0
  5  6  1  0
  6  7  2  0
  7  8  1  0
  8  9  1  0
  9 10  2  0
  9 11  1  0
M  CHG  2   9   1  11  -1
M  END
