
     RDKit          3D

 10  9  0  0  0  0  0  0  0  0999 V2000
   -2.4500    0.5970   -1.1530 O   0  0  0  0  0  0  0  0  0  0  0  0
   -2.8520    0.0090   -0.1240 C   0  0  0  0  0  0  0  0  0  0  0  0
   -4.1360    0.3130    0.3520 O   0  0  0  0  0  0  0  0  0  0  0  0
   -2.0120   -0.9240    0.5100 N   0  0  0  0  0  0  0  0  0  0  0  0
   -0.6970   -1.2290    0.0170 C   0  0  0  0  0  0  0  0  0  0  0  0
    0.1770    0.0040    0.0050 C   0  0  1  0  0  0  0  0  0  0  0  0
    0.2630    0.4740    1.3160 O   0  0  0  0  0  0  0  0  0  0  0  0
    1.5800   -0.4070   -0.3970 C   0  0  0  0  0  0  0  0  0  0  0  0
    2.4660    0.8240   -0.4120 C   0  0  0  0  0  0  0  0  0  0  0  0
    3.7460    0.3900   -0.7880 O   0  0  0  0  0  0  0  0  0  0  0  0
  1  2  2  0
  2  3  1  0
  2  4  1  0
  4  5  1  0
  5  6  1  0
  6  7  1  1
  6  8  1  0
  8  9  1  0
  9 10  1  0
M  END
