
     RDKit          3D

 10 10  0  0  0  0  0  0  0  0999 V2000
   -2.6500    0.0070    0.2970 C   0  0  0  0  0  0  0  0  0  0  0  0
   -2.0430   -0.5260   -0.9730 C   0  0  0  0  0  0  0  0  0  0  0  0
   -0.8480    0.0850   -1.3280 O   0  0  0  0  0  0  0  0  0  0  0  0
    0.3040    0.1040   -0.5630 C   0  0  0  0  0  0  0  0  0  0  0  0
    0.4060   -0.4950    0.6700 C   0  0  0  0  0  0  0  0  0  0  0  0
    1.5790   -0.4450    1.3900 C   0  0  0  0  0  0  0  0  0  0  0  0
    2.6480    0.2230    0.8380 C   0  0  0  0  0  0  0  0  0  0  0  0
    2.5890    0.8200   -0.3600 N   0  0  0  0  0  0  0  0  0  0  0  0
    3.6650    1.4840   -0.8980 O   0  0  0  0  0  0  0  0  0  0  0  0
    1.4210    0.7550   -1.0460 C   0  0  0  0  0  0  0  0  0  0  0  0
  1  2  1  0
  2  3  1  0
  3  4  1  0
  4  5  2  0
  4 10  1  0
  5  6  1  0
  6  7  2  0
  7  8  1  0
  8  9  1  0
  8 10  2  0
M  CHG  2   8   1   9  -1
M  END
