
     RDKit          3D

 11 11  0  0  0  0  0  0  0  0999 V2000
   -0.9790    2.3840    0.3760 C   0  0  0  0  0  0  0  0  0  0  0  0
   -1.3950    0.9530    0.1680 C   0  0  0  0  0  0  0  0  0  0  0  0
   -3.0190    0.3450   -0.0160 S   0  0  0  0  0  0  0  0  0  0  0  0
   -2.5220   -1.4070   -0.2030 C   0  0  0  0  0  0  0  0  0  0  0  0
   -1.1570   -1.3410   -0.1040 C   0  0  0  0  0  0  0  0  0  0  0  0
   -0.5560   -0.1700    0.0830 C   0  0  0  0  0  0  0  0  0  0  0  0
    0.9140    0.0030    0.2020 C   0  0  0  0  0  0  0  0  0  0  0  0
    1.7400   -1.0210    0.1290 C   0  0  0  0  0  0  0  0  0  0  0  0
    3.1480   -0.8640    0.2420 N   0  0  0  0  0  0  0  0  0  0  0  0
    3.8300   -1.7330    0.8010 O   0  0  0  0  0  0  0  0  0  0  0  0
    3.7370    0.2710   -0.2820 O   0  0  0  0  0  0  0  0  0  0  0  0
  1  2  1  0
  2  3  1  0
  2  6  2  0
  3  4  1  0
  4  5  2  0
  5  6  1  0
  6  7  1  0
  7  8  2  3
  8  9  1  0
  9 10  2  0
  9 11  1  0
M  CHG  2   9   1  11  -1
M  END
