
     RDKit          3D

 26 29  0  0  0  0  0  0  0  0999 V2000
   -7.0300    1.7090    1.9780 C   0  0  0  0  0  0  0  0  0  0  0  0
   -5.8260    1.2800    1.1780 C   0  0  0  0  0  0  0  0  0  0  0  0
   -5.7530    1.4740   -0.0760 N   0  0  0  0  0  0  0  0  0  0  0  0
   -4.6940    1.1160   -0.8870 N   0  0  0  0  0  0  0  0  0  0  0  0
   -3.6920    0.5330   -0.3270 C   0  0  0  0  0  0  0  0  0  0  0  0
   -2.5490    0.1310   -1.1170 N   0  0  0  0  0  0  0  0  0  0  0  0
   -2.8760   -0.5390   -2.3360 C   0  0  0  0  0  0  0  0  0  0  0  0
   -1.6270   -1.0530   -2.9960 C   0  0  0  0  0  0  0  0  0  0  0  0
   -0.7690   -1.5840   -1.9230 C   0  0  0  0  0  0  0  0  0  0  0  0
   -0.4900   -2.7500   -1.8690 O   0  0  0  0  0  0  0  0  0  0  0  0
   -0.2540   -0.6420   -0.9050 C   0  0  1  0  0  0  0  0  0  0  0  0
    1.0050   -0.1480   -1.2870 O   0  0  0  0  0  0  0  0  0  0  0  0
    2.2030   -0.2850   -0.6530 C   0  0  0  0  0  0  0  0  0  0  0  0
    3.2920    0.3400   -1.2790 C   0  0  0  0  0  0  0  0  0  0  0  0
    4.5410    0.2820   -0.7530 C   0  0  0  0  0  0  0  0  0  0  0  0
    4.7610   -0.3920    0.4060 C   0  0  0  0  0  0  0  0  0  0  0  0
    6.0800   -0.4580    0.9730 N   0  0  0  0  0  0  0  0  0  0  0  0
    7.0960    0.3200    0.5890 C   0  0  0  0  0  0  0  0  0  0  0  0
    8.1950   -0.0260    1.3560 C   0  0  0  0  0  0  0  0  0  0  0  0
    7.8020   -1.0350    2.2090 C   0  0  0  0  0  0  0  0  0  0  0  0
    6.5050   -1.2580    1.9330 N   0  0  0  0  0  0  0  0  0  0  0  0
    3.7120   -1.0270    1.0600 C   0  0  0  0  0  0  0  0  0  0  0  0
    2.4430   -0.9620    0.5150 C   0  0  0  0  0  0  0  0  0  0  0  0
   -1.2430    0.4420   -0.6490 C   0  0  0  0  0  0  0  0  0  0  0  0
   -3.6670    0.2660    1.0450 N   0  0  0  0  0  0  0  0  0  0  0  0
   -4.7370    0.6270    1.9150 C   0  0  0  0  0  0  0  0  0  0  0  0
  1  2  1  0
  2  3  2  0
  2 26  1  0
  3  4  1  0
  4  5  2  0
  5  6  1  0
  5 25  1  0
  6  7  1  0
  6 24  1  0
  7  8  1  0
  8  9  1  0
  9 10  2  0
  9 11  1  0
 11 12  1  6
 11 24  1  0
 12 13  1  0
 13 14  2  0
 13 23  1  0
 14 15  1  0
 15 16  2  0
 16 17  1  0
 16 22  1  0
 17 18  1  0
 17 21  1  0
 18 19  2  0
 19 20  1  0
 20 21  2  0
 22 23  2  0
 25 26  1  0
M  CHG  1   4   1
M  END
