
     RDKit          3D

 26 28  0  0  0  0  0  0  0  0999 V2000
   -6.8490    0.6560   -0.0700 C   0  0  0  0  0  0  0  0  0  0  0  0
   -5.6250    0.1810    0.0280 C   0  0  0  0  0  0  0  0  0  0  0  0
   -5.2370   -1.0880    0.1170 N   0  0  0  0  0  0  0  0  0  0  0  0
   -3.8980   -1.1440    0.2010 C   0  0  0  0  0  0  0  0  0  0  0  0
   -3.0630   -2.2030    0.3060 N   0  0  0  0  0  0  0  0  0  0  0  0
   -1.7280   -2.0750    0.3800 C   0  0  0  0  0  0  0  0  0  0  0  0
   -0.8340   -3.2590    0.4950 C   0  0  0  0  0  0  0  0  0  0  0  0
   -1.1730   -0.8230    0.3500 C   0  0  0  0  0  0  0  0  0  0  0  0
    0.2480   -0.5530    0.4220 C   0  0  0  0  0  0  0  0  0  0  0  0
    1.0740   -1.5170    0.5220 N   0  0  0  0  0  0  0  0  0  0  0  0
    2.4710   -1.1520    0.5880 N   0  0  0  0  0  0  0  0  0  0  0  0
    3.1490   -1.6640    1.7430 C   0  0  0  0  0  0  0  0  0  0  0  0
    2.9390   -0.3730   -0.4580 C   0  0  0  0  0  0  0  0  0  0  0  0
    2.0540   -0.0710   -1.3630 O   0  0  0  0  0  0  0  0  0  0  0  0
    4.2470    0.1650   -0.7190 C   0  0  0  0  0  0  0  0  0  0  0  0
    5.3350   -0.0240    0.0920 C   0  0  0  0  0  0  0  0  0  0  0  0
    6.5850    0.5240   -0.2160 C   0  0  0  0  0  0  0  0  0  0  0  0
    6.6990    1.2680   -1.3660 C   0  0  0  0  0  0  0  0  0  0  0  0
    5.6080    1.4620   -2.1850 C   0  0  0  0  0  0  0  0  0  0  0  0
    4.4480    0.9150   -1.8390 N   0  0  0  0  0  0  0  0  0  0  0  0
   -2.0310    0.2760    0.2410 C   0  0  0  0  0  0  0  0  0  0  0  0
   -1.5300    1.4210    0.2130 O   0  0  0  0  0  0  0  0  0  0  0  0
   -3.3680    0.1180    0.1680 N   0  0  0  0  0  0  0  0  0  0  0  0
   -4.4310    0.9510    0.0610 C   0  0  0  0  0  0  0  0  0  0  0  0
   -4.4330    2.2580   -0.0060 C   0  0  0  0  0  0  0  0  0  0  0  0
   -3.3820    3.2680    0.0060 C   0  0  0  0  0  0  0  0  0  0  0  0
  1  2  2  0
  2  3  1  0
  2 24  1  0
  3  4  1  0
  4  5  2  0
  4 23  1  0
  5  6  1  0
  6  7  1  0
  6  8  2  0
  8  9  1  0
  8 21  1  0
  9 10  2  3
 10 11  1  0
 11 12  1  0
 11 13  1  0
 13 14  2  0
 13 15  1  0
 15 16  2  0
 15 20  1  0
 16 17  1  0
 17 18  2  0
 18 19  1  0
 19 20  2  0
 21 22  2  0
 21 23  1  0
 23 24  1  0
 24 25  2  3
 25 26  1  0
M  CHG  1  20   1
M  END
