
     RDKit          3D

 26 29  0  0  0  0  0  0  0  0999 V2000
    5.4230   -1.6930    0.2810 C   0  0  0  0  0  0  0  0  0  0  0  0
    4.6910   -0.5780   -0.2810 N   0  0  2  0  0  0  0  0  0  0  0  0
    5.4570    0.6210   -0.2910 C   0  0  0  0  0  0  0  0  0  0  0  0
    3.3870   -0.4780    0.3370 C   0  0  2  0  0  0  0  0  0  0  0  0
    2.3300   -0.0600   -0.6490 C   0  0  0  0  0  0  0  0  0  0  0  0
    2.0530    1.4020   -0.7080 C   0  0  0  0  0  0  0  0  0  0  0  0
    1.3990    1.9140    0.5530 C   0  0  0  0  0  0  0  0  0  0  0  0
    1.0690    0.7690    1.3490 N   0  0  0  0  0  0  0  0  0  0  0  0
   -0.1880    0.1920    1.2440 C   0  0  0  0  0  0  0  0  0  0  0  0
   -0.4030   -0.8210    2.0100 O   0  0  0  0  0  0  0  0  0  0  0  0
   -1.2390    0.6140    0.3760 C   0  0  0  0  0  0  0  0  0  0  0  0
   -1.2770    1.6120   -0.5190 N   0  0  0  0  0  0  0  0  0  0  0  0
   -2.4390    1.6870   -1.1330 N   0  0  0  0  0  0  0  0  0  0  0  0
   -3.1770    0.6940   -0.6090 C   0  0  0  0  0  0  0  0  0  0  0  0
   -2.4770    0.0200    0.3120 N   0  0  0  0  0  0  0  0  0  0  0  0
   -2.9770   -1.0970    1.0370 C   0  0  0  0  0  0  0  0  0  0  0  0
   -4.3820   -1.4580    0.8210 C   0  0  0  0  0  0  0  0  0  0  0  0
   -5.1260   -0.7360   -0.2250 C   0  0  0  0  0  0  0  0  0  0  0  0
   -6.4330   -1.0890   -0.5390 C   0  0  0  0  0  0  0  0  0  0  0  0
   -7.1340   -0.4380   -1.4710 N   0  0  0  0  0  0  0  0  0  0  0  0
   -6.6060    0.5930   -2.1500 C   0  0  0  0  0  0  0  0  0  0  0  0
   -7.2870    1.1810   -3.0150 O   0  0  0  0  0  0  0  0  0  0  0  0
   -5.3000    0.9660   -1.8570 C   0  0  0  0  0  0  0  0  0  0  0  0
   -4.5510    0.3130   -0.9000 C   0  0  0  0  0  0  0  0  0  0  0  0
    2.0350    0.1550    2.2850 C   0  0  0  0  0  0  0  0  0  0  0  0
    3.3910    0.2450    1.6310 C   0  0  0  0  0  0  0  0  0  0  0  0
  2  1  1  1
  2  3  1  0
  2  4  1  0
  4  5  1  6
  4 26  1  0
  5  6  1  0
  6  7  1  0
  7  8  1  0
  8  9  1  0
  8 25  1  0
  9 10  2  0
  9 11  1  0
 11 12  2  0
 11 15  1  0
 12 13  1  0
 13 14  2  0
 14 15  1  0
 14 24  1  0
 15 16  1  0
 16 17  1  0
 17 18  1  0
 18 19  2  0
 18 24  1  0
 19 20  1  0
 20 21  1  0
 21 22  2  0
 21 23  1  0
 23 24  2  0
 25 26  1  0
M  CHG  1   2   1
M  END
