
     RDKit          3D

 26 29  0  0  0  0  0  0  0  0999 V2000
   -6.3050   -2.3410    1.6170 C   0  0  0  0  0  0  0  0  0  0  0  0
   -5.3360   -1.5030    0.9560 N   0  0  0  0  0  0  0  0  0  0  0  0
   -4.0310   -1.6440    1.1460 N   0  0  0  0  0  0  0  0  0  0  0  0
   -3.1400   -0.8310    0.5010 C   0  0  0  0  0  0  0  0  0  0  0  0
   -3.6380    0.1300   -0.3440 C   0  0  0  0  0  0  0  0  0  0  0  0
   -2.7640    0.9500   -1.0010 C   0  0  0  0  0  0  0  0  0  0  0  0
   -1.3600    0.9080   -0.8590 N   0  0  0  0  0  0  0  0  0  0  0  0
   -0.7550    1.2860    0.3660 C   0  0  0  0  0  0  0  0  0  0  0  0
    0.4360    0.4430    0.7480 C   0  0  0  0  0  0  0  0  0  0  0  0
    1.0900   -0.1400   -0.3980 N   0  0  2  0  0  0  0  0  0  0  0  0
    2.4690   -0.4280   -0.2390 C   0  0  0  0  0  0  0  0  0  0  0  0
    3.2220    0.4030    0.7350 C   0  0  2  0  0  0  0  0  0  0  0  0
    3.2020    1.7670    0.4100 O   0  0  0  0  0  0  0  0  0  0  0  0
    4.6590   -0.0560    0.6780 C   0  0  0  0  0  0  0  0  0  0  0  0
    5.7070    0.6670    0.3620 C   0  0  0  0  0  0  0  0  0  0  0  0
    6.9360   -0.1390    0.4220 C   0  0  0  0  0  0  0  0  0  0  0  0
    6.4610   -1.4770    0.8270 C   0  0  0  0  0  0  0  0  0  0  0  0
    5.1490   -1.3980    0.9670 C   0  0  0  0  0  0  0  0  0  0  0  0
    0.8810    0.6940   -1.5950 C   0  0  0  0  0  0  0  0  0  0  0  0
   -0.5660    0.4690   -1.9760 C   0  0  0  0  0  0  0  0  0  0  0  0
   -3.2510    1.9050   -1.8490 N   0  0  0  0  0  0  0  0  0  0  0  0
   -4.5610    2.0580   -2.0520 C   0  0  0  0  0  0  0  0  0  0  0  0
   -5.4250    1.2590   -1.4100 N   0  0  0  0  0  0  0  0  0  0  0  0
   -4.9850    0.2960   -0.5580 C   0  0  0  0  0  0  0  0  0  0  0  0
   -5.8310   -0.5520    0.1190 C   0  0  0  0  0  0  0  0  0  0  0  0
   -7.0600   -0.4250   -0.0560 O   0  0  0  0  0  0  0  0  0  0  0  0
  1  2  1  0
  2  3  1  0
  2 25  1  0
  3  4  2  0
  4  5  1  0
  5  6  2  0
  5 24  1  0
  6  7  1  0
  6 21  1  0
  7  8  1  0
  7 20  1  0
  8  9  1  0
  9 10  1  0
 10 11  1  1
 10 19  1  0
 11 12  1  0
 12 13  1  6
 12 14  1  0
 14 15  2  0
 14 18  1  0
 15 16  1  0
 16 17  1  0
 17 18  2  0
 19 20  1  0
 21 22  2  0
 22 23  1  0
 23 24  2  0
 24 25  1  0
 25 26  2  0
M  CHG  1  10   1
M  END
