
     RDKit          3D

 26 29  0  0  0  0  0  0  0  0999 V2000
   -7.0880    1.4910    0.9770 C   0  0  0  0  0  0  0  0  0  0  0  0
   -6.6230    0.2770    0.3200 N   0  0  2  0  0  0  0  0  0  0  0  0
   -7.0790   -0.9140    0.9620 C   0  0  0  0  0  0  0  0  0  0  0  0
   -5.9890   -1.9060    1.2670 C   0  0  0  0  0  0  0  0  0  0  0  0
   -5.1790   -2.0610    0.0240 C   0  0  0  0  0  0  0  0  0  0  0  0
   -4.7630   -0.9170   -0.5350 C   0  0  0  0  0  0  0  0  0  0  0  0
   -4.0120   -0.8580   -1.6730 O   0  0  0  0  0  0  0  0  0  0  0  0
   -2.6300   -0.7030   -1.5670 C   0  0  0  0  0  0  0  0  0  0  0  0
   -2.0500   -0.6130   -0.3250 C   0  0  0  0  0  0  0  0  0  0  0  0
   -0.6890   -0.4600   -0.2280 C   0  0  0  0  0  0  0  0  0  0  0  0
    0.1400   -0.3920   -1.3230 C   0  0  0  0  0  0  0  0  0  0  0  0
    1.5330   -0.2340   -1.1320 N   0  0  0  0  0  0  0  0  0  0  0  0
    2.4300   -1.1730   -1.3810 N   0  0  0  0  0  0  0  0  0  0  0  0
    3.6580   -0.7130   -1.0970 N   0  0  0  0  0  0  0  0  0  0  0  0
    3.5190    0.5480   -0.6590 C   0  0  0  0  0  0  0  0  0  0  0  0
    4.5980    1.3800   -0.2560 N   0  0  0  0  0  0  0  0  0  0  0  0
    5.9690    0.9400   -0.2810 C   0  0  1  0  0  0  0  0  0  0  0  0
    6.8960    1.9930    0.1860 C   0  0  0  0  0  0  0  0  0  0  0  0
    8.1190    1.4920    0.8980 C   0  0  0  0  0  0  0  0  0  0  0  0
    7.8920    0.3960    1.7010 O   0  0  0  0  0  0  0  0  0  0  0  0
    7.4920   -0.6550    0.9140 C   0  0  0  0  0  0  0  0  0  0  0  0
    6.0880   -0.3730    0.4340 C   0  0  0  0  0  0  0  0  0  0  0  0
    2.2070    0.8180   -0.6900 N   0  0  0  0  0  0  0  0  0  0  0  0
   -0.4650   -0.4850   -2.5540 C   0  0  0  0  0  0  0  0  0  0  0  0
   -1.8250   -0.6380   -2.6780 C   0  0  0  0  0  0  0  0  0  0  0  0
   -5.1790    0.3290    0.1790 C   0  0  0  0  0  0  0  0  0  0  0  0
  2  1  1  1
  2  3  1  0
  2 26  1  0
  3  4  1  0
  4  5  1  0
  5  6  2  0
  6  7  1  0
  6 26  1  0
  7  8  1  0
  8  9  2  0
  8 25  1  0
  9 10  1  0
 10 11  2  0
 11 12  1  0
 11 24  1  0
 12 13  1  0
 12 23  1  0
 13 14  2  0
 14 15  1  0
 15 16  1  0
 15 23  2  0
 17 16  1  1
 17 18  1  0
 17 22  1  0
 18 19  1  0
 19 20  1  0
 20 21  1  0
 21 22  1  0
 24 25  2  0
M  CHG  1   2   1
M  END
