
     RDKit          3D

 16 17  0  0  0  0  0  0  0  0999 V2000
    4.5020    0.3470   -0.2530 N   0  0  0  0  0  0  0  0  0  0  0  0
    3.6790   -0.6770    0.3030 C   0  0  0  0  0  0  0  0  0  0  0  0
    2.2180   -0.4220    0.1880 C   0  0  0  0  0  0  0  0  0  0  0  0
    1.4410   -1.4710   -0.2430 C   0  0  0  0  0  0  0  0  0  0  0  0
    0.0810   -1.2820   -0.3530 C   0  0  0  0  0  0  0  0  0  0  0  0
   -0.5350   -0.0800   -0.0460 C   0  0  0  0  0  0  0  0  0  0  0  0
   -1.9610    0.0860   -0.1440 C   0  0  0  0  0  0  0  0  0  0  0  0
   -2.8040   -0.6410    0.6980 C   0  0  0  0  0  0  0  0  0  0  0  0
   -4.1700   -0.5040    0.6300 C   0  0  0  0  0  0  0  0  0  0  0  0
   -4.6810    0.3760   -0.2990 C   0  0  0  0  0  0  0  0  0  0  0  0
   -3.8500    1.1090   -1.1460 C   0  0  0  0  0  0  0  0  0  0  0  0
   -2.4680    0.9650   -1.0720 C   0  0  0  0  0  0  0  0  0  0  0  0
   -1.6840    1.7060   -1.9210 F   0  0  0  0  0  0  0  0  0  0  0  0
    0.2640    0.9620    0.3850 C   0  0  0  0  0  0  0  0  0  0  0  0
   -0.4070    2.5480    0.8000 Cl  0  0  0  0  0  0  0  0  0  0  0  0
    1.6360    0.7730    0.4960 C   0  0  0  0  0  0  0  0  0  0  0  0
  1  2  1  0
  2  3  1  0
  3  4  2  0
  3 16  1  0
  4  5  1  0
  5  6  2  0
  6  7  1  0
  6 14  1  0
  7  8  2  0
  7 12  1  0
  8  9  1  0
  9 10  2  0
 10 11  1  0
 11 12  2  0
 12 13  1  0
 14 15  1  0
 14 16  2  0
M  CHG  1   1   1
M  END
