
     RDKit          3D

 11 11  0  0  0  0  0  0  0  0999 V2000
    0.8870    2.0250   -1.4450 C   0  0  0  0  0  0  0  0  0  0  0  0
    0.2730    1.1890   -0.3380 C   0  0  1  0  0  0  0  0  0  0  0  0
   -1.2370    0.3650   -0.9010 S   0  0  0  0  0  0  0  0  0  0  0  0
   -1.8950   -0.5760    0.5020 C   0  0  0  0  0  0  0  0  0  0  0  0
   -3.1680   -1.3020    0.1240 C   0  0  0  0  0  0  0  0  0  0  0  0
   -4.1430   -0.4020   -0.2840 O   0  0  0  0  0  0  0  0  0  0  0  0
    1.2430    0.1630    0.1550 C   0  0  0  0  0  0  0  0  0  0  0  0
    1.0640   -1.0670    0.1030 N   0  0  0  0  0  0  0  0  0  0  0  0
    2.3080   -2.0670    0.7280 S   0  0  0  0  0  0  0  0  0  0  0  0
    3.7190   -0.9370    0.8670 C   0  0  0  0  0  0  0  0  0  0  0  0
    2.8000    0.6520    0.8840 S   0  0  0  0  0  0  0  0  0  0  0  0
  2  1  1  6
  2  3  1  0
  2  7  1  0
  3  4  1  0
  4  5  1  0
  5  6  1  0
  7  8  2  0
  7 11  1  0
  8  9  1  0
  9 10  1  0
 10 11  1  0
M  END
