
     RDKit          3D

 11 11  0  0  0  0  0  0  0  0999 V2000
    3.6880    1.1870   -0.4820 N   0  0  0  0  0  0  0  0  0  0  0  0
    2.8880    0.0250   -0.3560 C   0  0  0  0  0  0  0  0  0  0  0  0
    3.4560   -1.3900   -0.9360 S   0  0  0  0  0  0  0  0  0  0  0  0
    1.5510    0.0590    0.2850 C   0  0  0  0  0  0  0  0  0  0  0  0
    0.8010   -1.5790    0.3070 S   0  0  0  0  0  0  0  0  0  0  0  0
   -0.8260   -1.5090    1.0990 C   0  0  0  0  0  0  0  0  0  0  0  0
   -1.7180   -0.6840    0.2000 C   0  0  0  0  0  0  0  0  0  0  0  0
   -2.8050   -1.1780   -0.3220 C   0  0  0  0  0  0  0  0  0  0  0  0
   -3.5120    0.1410   -1.2870 S   0  0  0  0  0  0  0  0  0  0  0  0
   -2.4090    1.4310   -0.5550 C   0  0  0  0  0  0  0  0  0  0  0  0
   -1.4110    0.5980   -0.0900 O   0  0  0  0  0  0  0  0  0  0  0  0
  1  2  1  0
  2  3  2  0
  2  4  1  0
  4  5  1  0
  5  6  1  0
  6  7  1  0
  7  8  2  0
  7 11  1  0
  8  9  1  0
  9 10  1  0
 10 11  1  0
M  END
