
     RDKit          3D

 11 11  0  0  0  0  0  0  0  0999 V2000
   -3.9100    1.2170   -0.3050 O   0  0  0  0  0  0  0  0  0  0  0  0
   -2.9370    0.6400    0.5050 C   0  0  0  0  0  0  0  0  0  0  0  0
   -1.8160    0.0350   -0.3060 C   0  0  0  0  0  0  0  0  0  0  0  0
   -0.8500   -0.5420    0.5910 N   0  0  0  0  0  0  0  0  0  0  0  0
    0.3090   -1.1780    0.0780 C   0  0  0  0  0  0  0  0  0  0  0  0
    1.5310   -0.7100    0.2710 C   0  0  0  0  0  0  0  0  0  0  0  0
    2.9860   -1.5110   -0.3740 S   0  0  0  0  0  0  0  0  0  0  0  0
    4.1180   -0.0770   -0.5530 C   0  0  0  0  0  0  0  0  0  0  0  0
    3.5520    0.9390    0.8400 S   0  0  0  0  0  0  0  0  0  0  0  0
    1.8570    0.4750    1.0050 C   0  0  0  0  0  0  0  0  0  0  0  0
    0.7750    1.3330    1.9160 S   0  0  0  0  0  0  0  0  0  0  0  0
  1  2  1  0
  2  3  1  0
  3  4  1  0
  4  5  1  0
  5  6  2  3
  6  7  1  0
  6 10  1  0
  7  8  1  0
  8  9  1  0
  9 10  1  0
 10 11  2  0
M  END
