
     RDKit          3D

 11 11  0  0  0  0  0  0  0  0999 V2000
   -4.4050   -0.7330    1.1430 C   0  0  0  0  0  0  0  0  0  0  0  0
   -3.2880    0.0880    1.3350 O   0  0  0  0  0  0  0  0  0  0  0  0
   -2.4950   -0.0640    0.1910 C   0  0  0  0  0  0  0  0  0  0  0  0
   -1.2360    0.7990    0.2990 C   0  0  0  0  0  0  0  0  0  0  0  0
   -0.4880    0.5890   -0.8950 N   0  0  0  0  0  0  0  0  0  0  0  0
    0.7640    0.4170   -0.8400 C   0  0  0  0  0  0  0  0  0  0  0  0
    1.9530    0.1350   -2.1410 S   0  0  0  0  0  0  0  0  0  0  0  0
    3.5380   -0.0380   -1.3210 C   0  0  0  0  0  0  0  0  0  0  0  0
    3.4500    0.4520    0.0600 C   0  0  2  0  0  0  0  0  0  0  0  0
    4.4170   -0.6270    1.1880 S   0  0  0  0  0  0  0  0  0  0  0  0
    1.7510    0.4050    0.6390 S   0  0  0  0  0  0  0  0  0  0  0  0
  1  2  1  0
  2  3  1  0
  3  4  1  0
  4  5  1  0
  5  6  2  3
  6  7  1  0
  6 11  1  0
  7  8  1  0
  8  9  1  0
  9 10  1  1
  9 11  1  0
M  END
