
     RDKit          3D

 11 11  0  0  0  0  0  0  0  0999 V2000
    3.0460    2.0520    0.4030 O   0  0  0  0  0  0  0  0  0  0  0  0
    3.1560    0.7510    0.8600 C   0  0  0  0  0  0  0  0  0  0  0  0
    1.8990    0.0280    0.4040 C   0  0  0  0  0  0  0  0  0  0  0  0
    2.0720   -0.9880   -0.3670 C   0  0  0  0  0  0  0  0  0  0  0  0
    0.7280   -1.9450   -0.9900 S   0  0  0  0  0  0  0  0  0  0  0  0
   -0.7760   -1.1950   -0.3760 C   0  0  0  0  0  0  0  0  0  0  0  0
   -0.5160   -0.0330    0.4880 C   0  0  0  0  0  0  0  0  0  0  0  0
   -1.9980    0.7400    1.1780 S   0  0  0  0  0  0  0  0  0  0  0  0
   -3.4550   -0.0910    0.5990 C   0  0  0  0  0  0  0  0  0  0  0  0
   -3.6790    0.2030   -1.1580 S   0  0  0  0  0  0  0  0  0  0  0  0
    0.6340    0.4540    0.7930 N   0  0  0  0  0  0  0  0  0  0  0  0
  1  2  1  0
  2  3  1  0
  3  4  2  0
  3 11  1  0
  4  5  1  0
  5  6  1  0
  6  7  1  0
  7  8  1  0
  7 11  2  0
  8  9  1  0
  9 10  1  0
M  END
