
     RDKit          3D

 11 11  0  0  0  0  0  0  0  0999 V2000
    1.7360   -1.7000   -0.4060 O   0  0  0  0  0  0  0  0  0  0  0  0
    2.0190   -0.7260    0.5230 C   0  0  0  0  0  0  0  0  0  0  0  0
    1.1490   -0.4520    1.4580 C   0  0  0  0  0  0  0  0  0  0  0  0
   -0.1060   -1.1540    1.5350 N   0  0  0  0  0  0  0  0  0  0  0  0
   -1.1270   -0.6490    0.9450 C   0  0  0  0  0  0  0  0  0  0  0  0
   -2.8010   -1.2650    0.8540 S   0  0  0  0  0  0  0  0  0  0  0  0
   -3.6650    0.2200    0.2090 C   0  0  0  0  0  0  0  0  0  0  0  0
   -2.7510    0.6790   -0.8840 C   0  0  0  0  0  0  0  0  0  0  0  0
   -1.1590    0.8740    0.0100 S   0  0  0  0  0  0  0  0  0  0  0  0
    3.2950   -0.0010    0.4570 C   0  0  0  0  0  0  0  0  0  0  0  0
    3.3530    0.8410   -1.1750 S   0  0  0  0  0  0  0  0  0  0  0  0
  1  2  1  0
  2  3  2  3
  2 10  1  0
  3  4  1  0
  4  5  2  3
  5  6  1  0
  5  9  1  0
  6  7  1  0
  7  8  1  0
  8  9  1  0
 10 11  1  0
M  END
