
     RDKit          3D

 11 11  0  0  0  0  0  0  0  0999 V2000
   -4.4400   -0.3640   -0.3550 C   0  0  0  0  0  0  0  0  0  0  0  0
   -2.6740   -0.4670   -0.7650 S   0  0  0  0  0  0  0  0  0  0  0  0
   -1.8290    0.7850    0.2760 C   0  0  0  0  0  0  0  0  0  0  0  0
   -0.3540    0.7510   -0.0060 C   0  0  0  0  0  0  0  0  0  0  0  0
    0.1740    1.4650   -0.8700 O   0  0  0  0  0  0  0  0  0  0  0  0
    0.4100   -0.1390    0.7630 N   0  0  0  0  0  0  0  0  0  0  0  0
    1.8340   -0.2900    0.6120 C   0  0  0  0  0  0  0  0  0  0  0  0
    2.3860   -1.4370    0.2800 C   0  0  0  0  0  0  0  0  0  0  0  0
    4.1610   -1.3550    0.1580 S   0  0  0  0  0  0  0  0  0  0  0  0
    4.4660    0.4560    0.0220 C   0  0  0  0  0  0  0  0  0  0  0  0
    2.9740    1.0390    0.8640 S   0  0  0  0  0  0  0  0  0  0  0  0
  1  2  1  0
  2  3  1  0
  3  4  1  0
  4  5  2  0
  4  6  1  0
  6  7  1  0
  7  8  2  0
  7 11  1  0
  8  9  1  0
  9 10  1  0
 10 11  1  0
M  END
