
     RDKit          3D

 11 11  0  0  0  0  0  0  0  0999 V2000
   -3.9070    0.4570   -0.5740 C   0  0  0  0  0  0  0  0  0  0  0  0
   -2.5850    0.9460    0.5620 S   0  0  0  0  0  0  0  0  0  0  0  0
   -0.9490    1.1510   -0.1780 C   0  0  0  0  0  0  0  0  0  0  0  0
   -0.6520    2.3420   -0.7830 N   0  0  0  0  0  0  0  0  0  0  0  0
    1.1240    2.1720   -1.2120 S   0  0  0  0  0  0  0  0  0  0  0  0
    1.2630    0.5770   -0.5650 C   0  0  0  0  0  0  0  0  0  0  0  0
    2.7750   -0.4400   -0.7970 S   0  0  0  0  0  0  0  0  0  0  0  0
    3.8950   -0.0870    0.5310 C   0  0  0  0  0  0  0  0  0  0  0  0
    0.0720    0.2220   -0.0570 C   0  0  0  0  0  0  0  0  0  0  0  0
   -0.2550   -1.1580    0.3550 C   0  0  0  0  0  0  0  0  0  0  0  0
    0.3550   -1.6420    1.4930 O   0  0  0  0  0  0  0  0  0  0  0  0
  1  2  1  0
  2  3  1  0
  3  4  2  0
  3  9  1  0
  4  5  1  0
  5  6  1  0
  6  7  1  0
  6  9  2  0
  7  8  1  0
  9 10  1  0
 10 11  1  0
M  END
