
     RDKit          3D

 17 18  0  0  0  0  0  0  0  0999 V2000
    7.2320   -1.0840    0.6780 C   0  0  0  0  0  0  0  0  0  0  0  0
    6.0450   -0.3240    0.5400 O   0  0  0  0  0  0  0  0  0  0  0  0
    4.8550   -0.8670    0.0940 C   0  0  0  0  0  0  0  0  0  0  0  0
    4.7700   -2.0710   -0.2140 O   0  0  0  0  0  0  0  0  0  0  0  0
    3.6950   -0.0310   -0.0190 C   0  0  0  0  0  0  0  0  0  0  0  0
    2.4280   -0.2480   -0.4090 C   0  0  0  0  0  0  0  0  0  0  0  0
    1.5120    0.7270   -0.4220 C   0  0  0  0  0  0  0  0  0  0  0  0
    0.0710    0.5650   -0.8490 C   0  0  0  0  0  0  0  0  0  0  0  0
   -0.7870    0.1720    0.3130 C   0  0  0  0  0  0  0  0  0  0  0  0
   -2.1660   -0.0010    0.0340 N   0  0  0  0  0  0  0  0  0  0  0  0
   -2.9380    1.1110   -0.2990 C   0  0  0  0  0  0  0  0  0  0  0  0
   -4.1930    0.6760   -1.0240 C   0  0  0  0  0  0  0  0  0  0  0  0
   -4.7740   -0.5410   -0.3380 C   0  0  0  0  0  0  0  0  0  0  0  0
   -4.2990   -0.5190    1.0990 C   0  0  0  0  0  0  0  0  0  0  0  0
   -2.8010   -0.7320    1.1130 C   0  0  0  0  0  0  0  0  0  0  0  0
    1.9540    1.9850   -0.0060 C   0  0  0  0  0  0  0  0  0  0  0  0
    3.7090    1.7620    0.4100 S   0  0  0  0  0  0  0  0  0  0  0  0
  1  2  1  0
  2  3  1  0
  3  4  2  0
  3  5  1  0
  5  6  2  0
  5 17  1  0
  6  7  1  0
  7  8  1  0
  7 16  2  0
  8  9  1  0
  9 10  1  0
 10 11  1  0
 10 15  1  0
 11 12  1  0
 12 13  1  0
 13 14  1  0
 14 15  1  0
 16 17  1  0
M  END
