
     RDKit          3D

 18 19  0  0  0  0  0  0  0  0999 V2000
   -2.8720   -2.7570    0.7520 C   0  0  0  0  0  0  0  0  0  0  0  0
   -3.0940   -1.5760    0.2230 C   0  0  0  0  0  0  0  0  0  0  0  0
   -2.1470   -0.4760    0.1470 C   0  0  0  0  0  0  0  0  0  0  0  0
   -2.5880    0.6500   -0.4410 C   0  0  0  0  0  0  0  0  0  0  0  0
   -1.7360    1.8180   -0.5780 C   0  0  0  0  0  0  0  0  0  0  0  0
   -2.2300    2.8900   -1.1640 C   0  0  0  0  0  0  0  0  0  0  0  0
   -3.4970    2.9130   -1.6290 F   0  0  0  0  0  0  0  0  0  0  0  0
   -0.3720    1.7640   -0.0650 C   0  0  0  0  0  0  0  0  0  0  0  0
    0.3950    2.7700   -0.1710 O   0  0  0  0  0  0  0  0  0  0  0  0
    0.1280    0.5920    0.5610 N   0  0  0  0  0  0  0  0  0  0  0  0
    1.4630    0.4840    1.0830 C   0  0  0  0  0  0  0  0  0  0  0  0
    2.3780   -0.0250    0.0280 C   0  0  0  0  0  0  0  0  0  0  0  0
    3.6990   -0.2860    0.0440 C   0  0  0  0  0  0  0  0  0  0  0  0
    4.3030   -0.7450   -1.0520 C   0  0  0  0  0  0  0  0  0  0  0  0
    3.5320   -0.9340   -2.1720 C   0  0  0  0  0  0  0  0  0  0  0  0
    1.8920   -0.4250   -1.5900 S   0  0  0  0  0  0  0  0  0  0  0  0
   -0.7920   -0.5170    0.6510 C   0  0  0  0  0  0  0  0  0  0  0  0
   -0.3330   -1.5490    1.2090 O   0  0  0  0  0  0  0  0  0  0  0  0
  1  2  2  0
  2  3  1  0
  3  4  2  0
  3 17  1  0
  4  5  1  0
  5  6  2  3
  5  8  1  0
  6  7  1  0
  8  9  2  0
  8 10  1  0
 10 11  1  0
 10 17  1  0
 11 12  1  0
 12 13  2  0
 12 16  1  0
 13 14  1  0
 14 15  2  0
 15 16  1  0
 17 18  2  0
M  END
