
     RDKit          3D

 18 18  0  0  0  0  0  0  0  0999 V2000
    5.7930   -0.5690    0.0930 C   0  0  0  0  0  0  0  0  0  0  0  0
    4.8460    0.2800   -0.2330 C   0  0  0  0  0  0  0  0  0  0  0  0
    5.3260    1.8370   -0.9840 S   0  0  0  0  0  0  0  0  0  0  0  0
    3.9640    2.7980   -1.3330 F   0  0  0  0  0  0  0  0  0  0  0  0
    3.4960   -0.0560    0.0150 N   0  0  0  0  0  0  0  0  0  0  0  0
    2.8020   -1.1890   -0.5510 C   0  0  0  0  0  0  0  0  0  0  0  0
    1.2960   -0.8990   -0.5330 C   0  0  0  0  0  0  0  0  0  0  0  0
    0.7760   -0.6900    0.8500 C   0  0  2  0  0  0  0  0  0  0  0  0
   -0.3830    0.2710    0.9270 C   0  0  0  0  0  0  0  0  0  0  0  0
   -1.5470   -0.1560    0.1430 C   0  0  0  0  0  0  0  0  0  0  0  0
   -1.5220   -1.2160   -0.5020 O   0  0  0  0  0  0  0  0  0  0  0  0
   -2.6680    0.6360    0.1310 O   0  0  0  0  0  0  0  0  0  0  0  0
   -3.8490    0.3490   -0.5740 C   0  0  2  0  0  0  0  0  0  0  0  0
   -3.4990    0.2580   -2.0440 C   0  0  0  0  0  0  0  0  0  0  0  0
   -4.8500    1.4430   -0.2890 C   0  0  0  0  0  0  0  0  0  0  0  0
   -4.4680   -0.9640   -0.1760 C   0  0  0  0  0  0  0  0  0  0  0  0
    1.8660   -0.1330    1.7410 C   0  0  0  0  0  0  0  0  0  0  0  0
    2.7340    0.7930    0.9050 C   0  0  0  0  0  0  0  0  0  0  0  0
  1  2  2  0
  2  3  1  0
  2  5  1  0
  3  4  1  0
  5  6  1  0
  5 18  1  0
  6  7  1  0
  7  8  1  0
  8  9  1  6
  8 17  1  0
  9 10  1  0
 10 11  2  0
 10 12  1  0
 12 13  1  0
 13 14  1  6
 13 15  1  0
 13 16  1  0
 17 18  1  0
M  END
