
     RDKit          3D

 18 18  0  0  0  0  0  0  0  0999 V2000
   -1.5090    2.0920    1.7710 C   0  0  0  0  0  0  0  0  0  0  0  0
   -1.8700    1.8110    0.3800 C   0  0  0  0  0  0  0  0  0  0  0  0
   -1.8360    0.6380   -0.1860 C   0  0  0  0  0  0  0  0  0  0  0  0
   -2.2770    0.6570   -1.6110 C   0  0  0  0  0  0  0  0  0  0  0  0
   -2.2190    1.8180   -2.2900 F   0  0  0  0  0  0  0  0  0  0  0  0
   -2.7470   -0.3930   -2.2910 C   0  0  0  0  0  0  0  0  0  0  0  0
   -2.9280   -1.7750   -1.7870 C   0  0  0  0  0  0  0  0  0  0  0  0
   -3.0810   -1.8960   -0.3360 C   0  0  0  0  0  0  0  0  0  0  0  0
   -4.2020   -2.2630    0.0430 O   0  0  0  0  0  0  0  0  0  0  0  0
   -2.1720   -1.6740    0.8180 C   0  0  0  0  0  0  0  0  0  0  0  0
   -1.3920   -0.4490    0.5550 N   0  0  0  0  0  0  0  0  0  0  0  0
   -0.0870   -0.4120    1.0880 C   0  0  0  0  0  0  0  0  0  0  0  0
    0.2720   -1.3830    1.8550 O   0  0  0  0  0  0  0  0  0  0  0  0
    0.9360    0.6150    0.8620 C   0  0  0  0  0  0  0  0  0  0  0  0
    2.3140   -0.1080    0.7050 C   0  0  0  0  0  0  0  0  0  0  0  0
    3.3350    0.9610    0.4770 C   0  0  0  0  0  0  0  0  0  0  0  0
    4.9960    0.3450    0.2710 S   0  0  0  0  0  0  0  0  0  0  0  0
    5.2350   -0.6250   -1.2110 C   0  0  0  0  0  0  0  0  0  0  0  0
  1  2  1  0
  2  3  2  3
  3  4  1  0
  3 11  1  0
  4  5  1  0
  4  6  2  0
  6  7  1  0
  7  8  1  0
  8  9  2  0
  8 10  1  0
 10 11  1  0
 11 12  1  0
 12 13  2  0
 12 14  1  0
 14 15  1  0
 15 16  1  0
 16 17  1  0
 17 18  1  0
M  END
