
     RDKit          3D

 17 18  0  0  0  0  0  0  0  0999 V2000
   -1.4990    2.6530   -0.2790 C   0  0  0  0  0  0  0  0  0  0  0  0
   -2.5280    1.6240   -0.5150 C   0  0  0  0  0  0  0  0  0  0  0  0
   -3.7230    1.7650   -1.8030 S   0  0  0  0  0  0  0  0  0  0  0  0
   -4.5760    0.2170   -1.4410 C   0  0  0  0  0  0  0  0  0  0  0  0
   -3.8660   -0.2910   -0.3470 C   0  0  0  0  0  0  0  0  0  0  0  0
   -4.2690   -1.6060    0.2770 C   0  0  0  0  0  0  0  0  0  0  0  0
   -5.2460   -2.2140   -0.2130 O   0  0  0  0  0  0  0  0  0  0  0  0
   -2.8320    0.4670    0.0830 C   0  0  0  0  0  0  0  0  0  0  0  0
   -2.0360    0.0330    1.2000 O   0  0  0  0  0  0  0  0  0  0  0  0
   -0.9280   -0.8110    1.0100 C   0  0  0  0  0  0  0  0  0  0  0  0
    0.0830   -0.1530    0.1370 C   0  0  0  0  0  0  0  0  0  0  0  0
    1.2600   -0.9720   -0.1250 N   0  0  0  0  0  0  0  0  0  0  0  0
    2.0940   -1.1850    1.0070 C   0  0  0  0  0  0  0  0  0  0  0  0
    3.0790   -0.0630    1.2410 C   0  0  0  0  0  0  0  0  0  0  0  0
    3.9730    0.1580    0.0410 C   0  0  0  0  0  0  0  0  0  0  0  0
    3.4460   -0.5410   -1.1890 C   0  0  0  0  0  0  0  0  0  0  0  0
    1.9490   -0.3490   -1.2390 C   0  0  0  0  0  0  0  0  0  0  0  0
  1  2  1  0
  2  3  1  0
  2  8  2  0
  3  4  1  0
  4  5  2  0
  5  6  1  0
  5  8  1  0
  6  7  2  0
  8  9  1  0
  9 10  1  0
 10 11  1  0
 11 12  1  0
 12 13  1  0
 12 17  1  0
 13 14  1  0
 14 15  1  0
 15 16  1  0
 16 17  1  0
M  END
