
     RDKit          3D

 18 19  0  0  0  0  0  0  0  0999 V2000
    1.0930    1.5160    1.1390 O   0  0  0  0  0  0  0  0  0  0  0  0
    1.4380    0.4060    0.6690 C   0  0  0  0  0  0  0  0  0  0  0  0
    0.3890   -0.5020    0.1570 C   0  0  0  0  0  0  0  0  0  0  0  0
   -0.9500    0.1470    0.3380 C   0  0  0  0  0  0  0  0  0  0  0  0
   -1.9320   -0.7350   -0.1550 O   0  0  0  0  0  0  0  0  0  0  0  0
   -3.2490   -0.3500   -0.0940 C   0  0  0  0  0  0  0  0  0  0  0  0
   -3.6470    0.8610    0.4290 C   0  0  0  0  0  0  0  0  0  0  0  0
   -4.9900    1.1950    0.4650 C   0  0  0  0  0  0  0  0  0  0  0  0
   -5.9420    0.3060   -0.0280 C   0  0  0  0  0  0  0  0  0  0  0  0
   -7.2530    0.6350    0.0080 F   0  0  0  0  0  0  0  0  0  0  0  0
   -5.5570   -0.9020   -0.5510 C   0  0  0  0  0  0  0  0  0  0  0  0
   -4.2060   -1.2190   -0.5780 C   0  0  0  0  0  0  0  0  0  0  0  0
    2.7880   -0.0190    0.6040 N   0  0  0  0  0  0  0  0  0  0  0  0
    3.1350   -1.2910    0.0620 C   0  0  0  0  0  0  0  0  0  0  0  0
    4.1570   -1.2090   -1.0470 C   0  0  0  0  0  0  0  0  0  0  0  0
    4.6330    0.4700   -1.4430 S   0  0  0  0  0  0  0  0  0  0  0  0
    4.3310    1.6400   -0.1080 C   0  0  0  0  0  0  0  0  0  0  0  0
    3.8750    0.8430    1.0970 C   0  0  0  0  0  0  0  0  0  0  0  0
  1  2  2  0
  2  3  1  0
  2 13  1  0
  3  4  1  0
  4  5  1  0
  5  6  1  0
  6  7  2  0
  6 12  1  0
  7  8  1  0
  8  9  2  0
  9 10  1  0
  9 11  1  0
 11 12  2  0
 13 14  1  0
 13 18  1  0
 14 15  1  0
 15 16  1  0
 16 17  1  0
 17 18  1  0
M  END
