
     RDKit          3D

 17 18  0  0  0  0  0  0  0  0999 V2000
   -6.6100    1.7590   -0.3950 C   0  0  0  0  0  0  0  0  0  0  0  0
   -5.2280    1.5140   -0.2260 O   0  0  0  0  0  0  0  0  0  0  0  0
   -4.6680    0.2600   -0.0880 C   0  0  0  0  0  0  0  0  0  0  0  0
   -5.4170   -0.7360   -0.1110 O   0  0  0  0  0  0  0  0  0  0  0  0
   -3.2440    0.0390    0.0800 C   0  0  0  0  0  0  0  0  0  0  0  0
   -2.4980   -1.0610    0.2250 C   0  0  0  0  0  0  0  0  0  0  0  0
   -1.1520   -0.9310    0.3550 C   0  0  0  0  0  0  0  0  0  0  0  0
   -0.6150    0.2660    0.3360 C   0  0  0  0  0  0  0  0  0  0  0  0
   -2.0080    1.3550    0.1260 S   0  0  0  0  0  0  0  0  0  0  0  0
    0.8140    0.6820    0.4420 C   0  0  0  0  0  0  0  0  0  0  0  0
    1.6270   -0.4610    0.4940 N   0  0  0  0  0  0  0  0  0  0  0  0
    2.4900   -0.7840   -0.5630 C   0  0  0  0  0  0  0  0  0  0  0  0
    3.6850    0.0970   -0.7050 C   0  0  2  0  0  0  0  0  0  0  0  0
    4.5790    0.1150    0.5280 C   0  0  0  0  0  0  0  0  0  0  0  0
    3.4460    1.5020   -1.1560 C   0  0  0  0  0  0  0  0  0  0  0  0
    1.0270   -1.5770    1.1920 C   0  0  0  0  0  0  0  0  0  0  0  0
   -0.1840   -2.1080    0.5200 C   0  0  0  0  0  0  0  0  0  0  0  0
  1  2  1  0
  2  3  1  0
  3  4  2  0
  3  5  1  0
  5  6  2  0
  5  9  1  0
  6  7  1  0
  7  8  2  0
  7 17  1  0
  8  9  1  0
  8 10  1  0
 10 11  1  0
 11 12  1  0
 11 16  1  0
 12 13  1  0
 13 14  1  1
 13 15  1  0
 16 17  1  0
M  END
