
     RDKit          3D

 18 18  0  0  0  0  0  0  0  0999 V2000
   -2.7860    3.0430   -0.7790 C   0  0  0  0  0  0  0  0  0  0  0  0
   -3.3850    2.0790   -0.1590 C   0  0  0  0  0  0  0  0  0  0  0  0
   -2.8570    0.8030    0.1950 C   0  0  0  0  0  0  0  0  0  0  0  0
   -3.7290   -0.0480    0.8240 C   0  0  0  0  0  0  0  0  0  0  0  0
   -4.9900    0.3480    1.0820 F   0  0  0  0  0  0  0  0  0  0  0  0
   -3.3330   -1.4070    1.0730 C   0  0  0  0  0  0  0  0  0  0  0  0
   -2.1500   -1.8310    0.6860 C   0  0  0  0  0  0  0  0  0  0  0  0
   -1.6660   -3.5210    1.0110 S   0  0  0  0  0  0  0  0  0  0  0  0
   -1.2130   -0.9840   -0.0880 C   0  0  0  0  0  0  0  0  0  0  0  0
   -1.5070    0.4300    0.0810 N   0  0  0  0  0  0  0  0  0  0  0  0
   -0.4340    1.3400    0.2310 C   0  0  0  0  0  0  0  0  0  0  0  0
    0.5160    1.5580   -0.8680 C   0  0  0  0  0  0  0  0  0  0  0  0
    1.3470    0.4100   -1.3370 C   0  0  0  0  0  0  0  0  0  0  0  0
    2.2920   -0.1350   -0.3420 C   0  0  0  0  0  0  0  0  0  0  0  0
    2.3950    0.4320    0.7660 O   0  0  0  0  0  0  0  0  0  0  0  0
    3.0310   -1.2620   -0.6830 O   0  0  0  0  0  0  0  0  0  0  0  0
    3.9290   -1.7950    0.2400 C   0  0  0  0  0  0  0  0  0  0  0  0
    5.0220   -0.8690    0.6730 C   0  0  0  0  0  0  0  0  0  0  0  0
  1  2  2  0
  2  3  1  0
  3  4  2  0
  3 10  1  0
  4  5  1  0
  4  6  1  0
  6  7  2  0
  7  8  1  0
  7  9  1  0
  9 10  1  0
 10 11  1  0
 11 12  1  0
 12 13  1  0
 13 14  1  0
 14 15  2  0
 14 16  1  0
 16 17  1  0
 17 18  1  0
M  END
