
     RDKit          3D

 18 19  0  0  0  0  0  0  0  0999 V2000
    4.7500    1.0710    1.3140 C   0  0  0  0  0  0  0  0  0  0  0  0
    3.5380    0.4540    0.7200 C   0  0  0  0  0  0  0  0  0  0  0  0
    2.3210    0.4310    1.1980 O   0  0  0  0  0  0  0  0  0  0  0  0
    1.5010   -0.2090    0.3970 C   0  0  0  0  0  0  0  0  0  0  0  0
    0.0440   -0.4570    0.5720 C   0  0  0  0  0  0  0  0  0  0  0  0
   -0.7870    0.5630    0.0480 N   0  0  0  0  0  0  0  0  0  0  0  0
   -0.6890    0.8350   -1.3300 C   0  0  0  0  0  0  0  0  0  0  0  0
   -1.7200    0.1550   -2.1900 C   0  0  0  0  0  0  0  0  0  0  0  0
   -2.6510   -1.0960   -1.2820 S   0  0  0  0  0  0  0  0  0  0  0  0
   -3.0070   -0.4460    0.3540 C   0  0  2  0  0  0  0  0  0  0  0  0
   -2.8840   -1.5740    1.3470 C   0  0  0  0  0  0  0  0  0  0  0  0
   -4.4230    0.1150    0.4290 C   0  0  0  0  0  0  0  0  0  0  0  0
   -2.0680    0.6900    0.6440 C   0  0  0  0  0  0  0  0  0  0  0  0
    2.2560   -0.6300   -0.6840 C   0  0  0  0  0  0  0  0  0  0  0  0
    3.5590   -0.2200   -0.5000 C   0  0  0  0  0  0  0  0  0  0  0  0
    4.7160   -0.4200   -1.3540 C   0  0  0  0  0  0  0  0  0  0  0  0
    5.8530    0.0100   -1.0660 O   0  0  0  0  0  0  0  0  0  0  0  0
    4.5500   -1.1000   -2.5060 F   0  0  0  0  0  0  0  0  0  0  0  0
  1  2  1  0
  2  3  1  0
  2 15  2  0
  3  4  1  0
  4  5  1  0
  4 14  2  0
  5  6  1  0
  6  7  1  0
  6 13  1  0
  7  8  1  0
  8  9  1  0
  9 10  1  0
 10 11  1  1
 10 12  1  0
 10 13  1  0
 14 15  1  0
 15 16  1  0
 16 17  2  0
 16 18  1  0
M  END
