
     RDKit          3D

 18 18  0  0  0  0  0  0  0  0999 V2000
    5.6340    1.5220   -0.3120 C   0  0  0  0  0  0  0  0  0  0  0  0
    5.5010    0.1200   -1.4560 S   0  0  0  0  0  0  0  0  0  0  0  0
    4.0170   -0.7950   -1.0740 C   0  0  0  0  0  0  0  0  0  0  0  0
    3.7800   -1.8130   -1.7760 O   0  0  0  0  0  0  0  0  0  0  0  0
    3.1050   -0.3910    0.0090 C   0  0  0  0  0  0  0  0  0  0  0  0
    2.0380   -1.0980    0.2440 C   0  0  0  0  0  0  0  0  0  0  0  0
    1.1010   -0.7190    1.3250 C   0  0  0  0  0  0  0  0  0  0  0  0
   -0.2290   -0.4530    0.8360 N   0  0  0  0  0  0  0  0  0  0  0  0
   -0.5350    0.8020    0.4670 C   0  0  0  0  0  0  0  0  0  0  0  0
   -1.8020    1.1250   -0.0150 C   0  0  0  0  0  0  0  0  0  0  0  0
   -2.1280    2.4950   -0.4140 C   0  0  0  0  0  0  0  0  0  0  0  0
   -2.1470    2.6130   -1.7900 F   0  0  0  0  0  0  0  0  0  0  0  0
   -2.7260    0.0880   -0.0940 C   0  0  0  0  0  0  0  0  0  0  0  0
   -4.0880    0.3540   -0.5950 C   0  0  0  0  0  0  0  0  0  0  0  0
   -2.4020   -1.1940    0.2870 C   0  0  0  0  0  0  0  0  0  0  0  0
   -3.3900   -2.2710    0.1960 C   0  0  0  0  0  0  0  0  0  0  0  0
   -1.1310   -1.4600    0.7580 C   0  0  0  0  0  0  0  0  0  0  0  0
   -0.8440   -2.6330    1.1040 O   0  0  0  0  0  0  0  0  0  0  0  0
  1  2  1  0
  2  3  1  0
  3  4  2  0
  3  5  1  0
  5  6  2  3
  6  7  1  0
  7  8  1  0
  8  9  1  0
  8 17  1  0
  9 10  2  0
 10 11  1  0
 10 13  1  0
 11 12  1  0
 13 14  1  0
 13 15  2  0
 15 16  1  0
 15 17  1  0
 17 18  2  0
M  END
