
     RDKit          3D

 16 16  0  0  0  0  0  0  0  0999 V2000
    2.8050    0.9910    2.3170 C   0  0  0  0  0  0  0  0  0  0  0  0
    2.7100    1.3840    0.8860 C   0  0  0  0  0  0  0  0  0  0  0  0
    2.5780    0.2210   -0.0810 C   0  0  1  0  0  0  0  0  0  0  0  0
    2.5010    0.7620   -1.4150 N   0  0  0  0  0  0  0  0  0  0  0  0
    3.7190   -0.7150    0.1230 C   0  0  0  0  0  0  0  0  0  0  0  0
    3.7340   -1.9160   -0.7600 C   0  0  0  0  0  0  0  0  0  0  0  0
    1.2910   -0.4900    0.2130 C   0  0  0  0  0  0  0  0  0  0  0  0
    0.1640    0.3300    0.0750 N   0  0  0  0  0  0  0  0  0  0  0  0
   -1.1030   -0.1960    0.3230 C   0  0  2  0  0  0  0  0  0  0  0  0
   -1.3950   -1.3090   -0.6650 C   0  0  0  0  0  0  0  0  0  0  0  0
   -2.8320   -1.7550   -0.5630 C   0  0  0  0  0  0  0  0  0  0  0  0
   -3.5460   -1.0790    0.3960 O   0  0  0  0  0  0  0  0  0  0  0  0
   -3.5520    0.2860    0.2640 C   0  0  1  0  0  0  0  0  0  0  0  0
   -4.3240    0.7340   -0.9620 C   0  0  0  0  0  0  0  0  0  0  0  0
   -4.2750    0.8780    1.4630 C   0  0  0  0  0  0  0  0  0  0  0  0
   -2.1680    0.8750    0.2500 C   0  0  0  0  0  0  0  0  0  0  0  0
  1  2  1  0
  2  3  1  0
  3  4  1  6
  3  5  1  0
  3  7  1  0
  5  6  1  0
  7  8  1  0
  9  8  1  6
  9 10  1  0
  9 16  1  0
 10 11  1  0
 11 12  1  0
 12 13  1  0
 13 14  1  6
 13 15  1  0
 13 16  1  0
M  CHG  1   4   1
M  END
