
     RDKit          3D

 16 17  0  0  0  0  0  0  0  0999 V2000
   -4.1590    1.4100    0.1830 C   0  0  0  0  0  0  0  0  0  0  0  0
   -2.8360    1.3380   -0.3600 N   0  0  0  0  0  0  0  0  0  0  0  0
   -2.1800    0.0760   -0.0840 C   0  0  1  0  0  0  0  0  0  0  0  0
   -2.6550   -0.5570    1.1910 C   0  0  0  0  0  0  0  0  0  0  0  0
   -2.5230   -0.8680   -1.2250 C   0  0  0  0  0  0  0  0  0  0  0  0
   -0.7030    0.3060   -0.1150 C   0  0  0  0  0  0  0  0  0  0  0  0
    0.0580   -0.8860    0.1470 N   0  0  0  0  0  0  0  0  0  0  0  0
    1.4760   -0.8540    0.1580 C   0  0  0  0  0  0  0  0  0  0  0  0
    2.2290   -1.9860    0.4080 C   0  0  0  0  0  0  0  0  0  0  0  0
    3.5990   -1.9460    0.4160 C   0  0  0  0  0  0  0  0  0  0  0  0
    4.2660   -0.7500    0.1710 C   0  0  0  0  0  0  0  0  0  0  0  0
    5.5280   -0.4070    0.1140 O   0  0  0  0  0  0  0  0  0  0  0  0
    5.6600    0.8690   -0.1550 C   0  0  0  0  0  0  0  0  0  0  0  0
    4.4210    1.4280   -0.2880 C   0  0  0  0  0  0  0  0  0  0  0  0
    3.5370    0.3790   -0.0770 C   0  0  0  0  0  0  0  0  0  0  0  0
    2.1660    0.3160   -0.0810 C   0  0  0  0  0  0  0  0  0  0  0  0
  1  2  1  0
  2  3  1  0
  3  4  1  1
  3  5  1  0
  3  6  1  0
  6  7  1  0
  7  8  1  0
  8  9  2  0
  8 16  1  0
  9 10  1  0
 10 11  2  0
 11 12  1  0
 11 15  1  0
 12 13  1  0
 13 14  2  0
 14 15  1  0
 15 16  2  0
M  CHG  1   2   1
M  END
