
     RDKit          3D

 16 17  0  0  0  0  0  0  0  0999 V2000
   -2.4670    1.8200   -1.4540 N   0  0  0  0  0  0  0  0  0  0  0  0
   -2.3900    1.3230   -0.1390 C   0  0  0  0  0  0  0  0  0  0  0  0
   -2.3830   -0.1570    0.0610 C   0  0  0  0  0  0  0  0  0  0  0  0
   -3.5960   -0.8720    0.1090 C   0  0  0  0  0  0  0  0  0  0  0  0
   -3.5750   -2.1730    0.5930 C   0  0  0  0  0  0  0  0  0  0  0  0
   -2.4410   -2.7340    0.9940 C   0  0  0  0  0  0  0  0  0  0  0  0
   -1.2640   -2.0110    0.9350 C   0  0  0  0  0  0  0  0  0  0  0  0
   -1.2190   -0.7100    0.4580 C   0  0  0  0  0  0  0  0  0  0  0  0
   -0.0100   -0.0870    0.1340 N   0  0  0  0  0  0  0  0  0  0  0  0
    0.7880   -1.0050   -0.8010 C   0  0  0  0  0  0  0  0  0  0  0  0
    2.0930   -1.0920   -0.0460 C   0  0  0  0  0  0  0  0  0  0  0  0
    2.8740    0.1030   -0.5320 C   0  0  2  0  0  0  0  0  0  0  0  0
    3.9290    0.5240    0.4370 C   0  0  0  0  0  0  0  0  0  0  0  0
    4.6110    1.5930   -0.1850 O   0  0  0  0  0  0  0  0  0  0  0  0
    1.8710    1.2260   -0.6140 C   0  0  0  0  0  0  0  0  0  0  0  0
    0.7130    1.0760    0.3920 C   0  0  0  0  0  0  0  0  0  0  0  0
  1  2  1  0
  2  3  1  0
  3  4  2  0
  3  8  1  0
  4  5  1  0
  5  6  2  0
  6  7  1  0
  7  8  2  0
  8  9  1  0
  9 10  1  0
  9 16  1  0
 10 11  1  0
 11 12  1  0
 12 13  1  1
 12 15  1  0
 13 14  1  0
 15 16  1  0
M  CHG  1   1   1
M  END
