
     RDKit          3D

 16 17  0  0  0  0  0  0  0  0999 V2000
    2.4080   -3.6070   -0.1890 C   0  0  0  0  0  0  0  0  0  0  0  0
    1.4450   -2.5960    0.0010 O   0  0  0  0  0  0  0  0  0  0  0  0
    1.8290   -1.2570   -0.0390 C   0  0  0  0  0  0  0  0  0  0  0  0
    3.1480   -0.9010   -0.2630 C   0  0  0  0  0  0  0  0  0  0  0  0
    3.5280    0.4240   -0.3030 C   0  0  0  0  0  0  0  0  0  0  0  0
    2.5630    1.3900   -0.1130 C   0  0  0  0  0  0  0  0  0  0  0  0
    2.8770    2.7780   -0.1400 N   0  0  0  0  0  0  0  0  0  0  0  0
    1.2460    1.0060    0.1100 C   0  0  0  0  0  0  0  0  0  0  0  0
    0.8440   -0.3120    0.1540 C   0  0  0  0  0  0  0  0  0  0  0  0
   -0.5140   -0.7060    0.3870 N   0  0  0  0  0  0  0  0  0  0  0  0
   -1.5950    0.2250    0.5790 C   0  0  1  0  0  0  0  0  0  0  0  0
   -1.8260    1.1030   -0.6050 C   0  0  0  0  0  0  0  0  0  0  0  0
   -3.1560    0.8940   -1.2420 C   0  0  0  0  0  0  0  0  0  0  0  0
   -4.2270    0.5420   -0.5390 C   0  0  0  0  0  0  0  0  0  0  0  0
   -4.0090    0.3700    0.9210 C   0  0  0  0  0  0  0  0  0  0  0  0
   -2.8070   -0.5410    1.0430 C   0  0  0  0  0  0  0  0  0  0  0  0
  1  2  1  0
  2  3  1  0
  3  4  2  0
  3  9  1  0
  4  5  1  0
  5  6  2  0
  6  7  1  0
  6  8  1  0
  8  9  2  0
  9 10  1  0
 11 10  1  6
 11 12  1  0
 11 16  1  0
 12 13  1  0
 13 14  2  0
 14 15  1  0
 15 16  1  0
M  CHG  1   7   1
M  END
