
     RDKit          3D

 16 17  0  0  0  0  0  0  0  0999 V2000
   -4.9120    0.5760    0.3540 C   0  0  0  0  0  0  0  0  0  0  0  0
   -3.5000    0.1020    0.3470 C   0  0  0  0  0  0  0  0  0  0  0  0
   -3.2130   -1.1200    0.9070 C   0  0  0  0  0  0  0  0  0  0  0  0
   -1.9070   -1.6360    0.9390 C   0  0  0  0  0  0  0  0  0  0  0  0
   -1.7080   -2.8770    1.5240 O   0  0  0  0  0  0  0  0  0  0  0  0
   -0.8670   -0.9090    0.3980 C   0  0  0  0  0  0  0  0  0  0  0  0
    0.4680   -1.3950    0.3950 N   0  0  0  0  0  0  0  0  0  0  0  0
    1.5820   -0.6230   -0.1020 C   0  0  2  0  0  0  0  0  0  0  0  0
    2.8490   -1.4840   -0.1130 C   0  0  0  0  0  0  0  0  0  0  0  0
    4.0850   -0.6210   -0.0640 C   0  0  0  0  0  0  0  0  0  0  0  0
    3.8600    0.7120   -0.5830 N   0  0  0  0  0  0  0  0  0  0  0  0
    2.8420    1.4370    0.1420 C   0  0  0  0  0  0  0  0  0  0  0  0
    1.9340    0.5080    0.8800 C   0  0  0  0  0  0  0  0  0  0  0  0
   -1.1960    0.3200   -0.1590 C   0  0  0  0  0  0  0  0  0  0  0  0
   -2.4680    0.8350   -0.1970 C   0  0  0  0  0  0  0  0  0  0  0  0
   -2.7790    2.1550   -0.8010 C   0  0  0  0  0  0  0  0  0  0  0  0
  1  2  1  0
  2  3  2  0
  2 15  1  0
  3  4  1  0
  4  5  1  0
  4  6  2  0
  6  7  1  0
  6 14  1  0
  8  7  1  1
  8  9  1  0
  8 13  1  0
  9 10  1  0
 10 11  1  0
 11 12  1  0
 12 13  1  0
 14 15  2  0
 15 16  1  0
M  CHG  1  11   1
M  END
