
     RDKit          3D

 16 17  0  0  0  0  0  0  0  0999 V2000
   -5.0600   -0.8510    0.1340 N   0  0  0  0  0  0  0  0  0  0  0  0
   -3.8050   -0.1410    0.0400 C   0  0  0  0  0  0  0  0  0  0  0  0
   -3.7910    1.2140    0.2260 C   0  0  0  0  0  0  0  0  0  0  0  0
   -2.6350    1.9670    0.0960 C   0  0  0  0  0  0  0  0  0  0  0  0
   -1.4630    1.2440   -0.2380 C   0  0  0  0  0  0  0  0  0  0  0  0
   -1.4600   -0.1240   -0.4240 C   0  0  0  0  0  0  0  0  0  0  0  0
   -0.1010   -0.6950   -0.7280 C   0  0  0  0  0  0  0  0  0  0  0  0
    0.6080   -0.6120    0.5490 N   0  0  0  0  0  0  0  0  0  0  0  0
    1.7160    0.1670    0.6740 C   0  0  0  0  0  0  0  0  0  0  0  0
    3.1330   -0.0340    0.3670 C   0  0  0  0  0  0  0  0  0  0  0  0
    4.0880    0.1140    1.3420 C   0  0  0  0  0  0  0  0  0  0  0  0
    5.3940   -0.1260    0.8120 C   0  0  0  0  0  0  0  0  0  0  0  0
    5.3430   -0.4250   -0.4730 C   0  0  0  0  0  0  0  0  0  0  0  0
    3.9130   -0.3740   -0.7870 C   0  0  0  0  0  0  0  0  0  0  0  0
    3.4250   -0.6170   -1.9310 O   0  0  0  0  0  0  0  0  0  0  0  0
   -2.6260   -0.7940   -0.2870 C   0  0  0  0  0  0  0  0  0  0  0  0
  1  2  1  0
  2  3  2  0
  2 16  1  0
  3  4  1  0
  4  5  2  0
  5  6  1  0
  6  7  1  0
  6 16  2  0
  7  8  1  0
  8  9  1  0
  9 10  1  0
 10 11  2  0
 10 14  1  0
 11 12  1  0
 12 13  2  0
 13 14  1  0
 14 15  2  0
M  CHG  1   1   1
M  END
