
     RDKit          3D

 16 17  0  0  0  0  0  0  0  0999 V2000
    0.9870   -1.3870    1.8290 O   0  0  0  0  0  0  0  0  0  0  0  0
    1.7360   -0.7990    1.0080 C   0  0  0  0  0  0  0  0  0  0  0  0
    3.1160   -0.8500    1.3460 N   0  0  0  0  0  0  0  0  0  0  0  0
    4.2460   -0.4200    0.5850 C   0  0  0  0  0  0  0  0  0  0  0  0
    4.1790    1.0160    0.1440 C   0  0  0  0  0  0  0  0  0  0  0  0
    2.8370    1.4300   -0.3670 C   0  0  0  0  0  0  0  0  0  0  0  0
    2.0990    0.3410   -1.0910 C   0  0  0  0  0  0  0  0  0  0  0  0
    1.0230   -0.1750   -0.1400 C   0  0  1  0  0  0  0  0  0  0  0  0
    0.2020   -1.0980   -0.8600 N   0  0  0  0  0  0  0  0  0  0  0  0
   -1.1780   -0.7450   -0.9410 C   0  0  2  0  0  0  0  0  0  0  0  0
   -1.4520    0.6770   -1.2780 C   0  0  0  0  0  0  0  0  0  0  0  0
   -2.2960    1.3980   -0.2530 C   0  0  0  0  0  0  0  0  0  0  0  0
   -3.7550    1.0340   -0.3450 C   0  0  0  0  0  0  0  0  0  0  0  0
   -3.9950   -0.0530    0.7100 C   0  0  0  0  0  0  0  0  0  0  0  0
   -3.3770   -1.3220    0.1290 C   0  0  0  0  0  0  0  0  0  0  0  0
   -1.8800   -1.2070    0.3270 C   0  0  0  0  0  0  0  0  0  0  0  0
  1  2  2  0
  2  3  1  0
  2  8  1  0
  3  4  1  0
  4  5  1  0
  5  6  1  0
  6  7  1  0
  7  8  1  0
  8  9  1  6
 10  9  1  1
 10 11  1  0
 10 16  1  0
 11 12  1  0
 12 13  1  0
 13 14  1  0
 14 15  1  0
 15 16  1  0
M  CHG  1   9   1
M  END
