
     RDKit          3D

 16 17  0  0  0  0  0  0  0  0999 V2000
   -2.8870    2.7910   -0.8600 N   0  0  0  0  0  0  0  0  0  0  0  0
   -2.6080    1.3810   -0.8660 C   0  0  0  0  0  0  0  0  0  0  0  0
   -2.6490    0.7890    0.5240 C   0  0  0  0  0  0  0  0  0  0  0  0
   -2.3680   -0.6590    0.5060 C   0  0  0  0  0  0  0  0  0  0  0  0
   -3.3750   -1.5310    0.6610 N   0  0  0  0  0  0  0  0  0  0  0  0
   -3.1280   -2.8580    0.6550 C   0  0  0  0  0  0  0  0  0  0  0  0
   -1.8540   -3.3530    0.4930 C   0  0  0  0  0  0  0  0  0  0  0  0
   -0.8270   -2.4230    0.3340 C   0  0  0  0  0  0  0  0  0  0  0  0
   -1.0370   -1.0640    0.3340 C   0  0  0  0  0  0  0  0  0  0  0  0
   -0.0540   -0.1090    0.1800 O   0  0  0  0  0  0  0  0  0  0  0  0
    1.3010   -0.3390    0.0140 C   0  0  2  0  0  0  0  0  0  0  0  0
    2.1380    0.3000    1.1310 C   0  0  0  0  0  0  0  0  0  0  0  0
    3.5800   -0.0270    0.7890 C   0  0  0  0  0  0  0  0  0  0  0  0
    3.9970    0.9690   -0.2790 C   0  0  0  0  0  0  0  0  0  0  0  0
    2.8150    1.3410   -1.1100 C   0  0  0  0  0  0  0  0  0  0  0  0
    1.7840    0.2780   -1.2810 C   0  0  0  0  0  0  0  0  0  0  0  0
  1  2  1  0
  2  3  1  0
  3  4  1  0
  4  5  2  0
  4  9  1  0
  5  6  1  0
  6  7  2  0
  7  8  1  0
  8  9  2  0
  9 10  1  0
 11 10  1  1
 11 12  1  0
 11 16  1  0
 12 13  1  0
 13 14  1  0
 14 15  1  0
 15 16  1  0
M  CHG  1   5   1
M  END
