
     RDKit          3D

 16 17  0  0  0  0  0  0  0  0999 V2000
   -2.8700    2.7780   -0.5550 O   0  0  0  0  0  0  0  0  0  0  0  0
   -2.8360    2.3640    0.6270 C   0  0  0  0  0  0  0  0  0  0  0  0
   -2.4490    1.0610    1.0270 N   0  0  0  0  0  0  0  0  0  0  0  0
   -2.0520    0.1070    0.0190 C   0  0  2  0  0  0  0  0  0  0  0  0
   -0.8390    0.6090   -0.7290 C   0  0  0  0  0  0  0  0  0  0  0  0
    0.2180    0.7800    0.2560 N   0  0  0  0  0  0  0  0  0  0  0  0
    1.4770    0.2180   -0.1950 C   0  0  2  0  0  0  0  0  0  0  0  0
    2.1490   -0.5150    0.9430 C   0  0  0  0  0  0  0  0  0  0  0  0
    3.3330   -1.2470    0.3700 C   0  0  0  0  0  0  0  0  0  0  0  0
    4.2840   -0.2840   -0.2780 C   0  0  0  0  0  0  0  0  0  0  0  0
    3.8200    1.1110   -0.3530 C   0  0  0  0  0  0  0  0  0  0  0  0
    2.3850    1.3300   -0.6260 C   0  0  0  0  0  0  0  0  0  0  0  0
   -3.2040   -0.1890   -0.9180 C   0  0  0  0  0  0  0  0  0  0  0  0
   -3.7880   -1.4640   -0.3360 C   0  0  0  0  0  0  0  0  0  0  0  0
   -2.5850   -2.2650    0.0950 C   0  0  0  0  0  0  0  0  0  0  0  0
   -1.6570   -1.2250    0.6340 C   0  0  0  0  0  0  0  0  0  0  0  0
  1  2  2  0
  2  3  1  0
  3  4  1  0
  4  5  1  6
  4 13  1  0
  4 16  1  0
  5  6  1  0
  7  6  1  1
  7  8  1  0
  7 12  1  0
  8  9  1  0
  9 10  1  0
 10 11  1  0
 11 12  1  0
 13 14  1  0
 14 15  1  0
 15 16  1  0
M  CHG  1   6   1
M  END
