
     RDKit          3D

 16 16  0  0  0  0  0  0  0  0999 V2000
   -2.5680   -1.7060    0.5030 C   0  0  0  0  0  0  0  0  0  0  0  0
   -2.7250   -0.4290   -0.2530 C   0  0  0  0  0  0  0  0  0  0  0  0
   -3.9330   -0.0520   -0.6860 C   0  0  0  0  0  0  0  0  0  0  0  0
   -3.7790    1.2020   -1.3750 C   0  0  0  0  0  0  0  0  0  0  0  0
   -2.3010    1.5250   -1.2950 C   0  0  0  0  0  0  0  0  0  0  0  0
   -1.8620    2.7510   -1.9190 C   0  0  0  0  0  0  0  0  0  0  0  0
   -0.5470    3.2000   -1.9440 N   0  0  0  0  0  0  0  0  0  0  0  0
   -1.7060    0.5320   -0.6200 C   0  0  0  0  0  0  0  0  0  0  0  0
   -0.3250    0.5260   -0.3700 N   0  0  0  0  0  0  0  0  0  0  0  0
    0.5180   -0.3660    0.2930 C   0  0  0  0  0  0  0  0  0  0  0  0
    0.1090   -1.3930    0.8140 O   0  0  0  0  0  0  0  0  0  0  0  0
    2.0040   -0.1160    0.4110 C   0  0  0  0  0  0  0  0  0  0  0  0
    2.6810   -1.2030    1.1660 C   0  0  2  0  0  0  0  0  0  0  0  0
    2.5290   -2.5640    0.5310 C   0  0  0  0  0  0  0  0  0  0  0  0
    2.1750   -1.2810    2.5960 C   0  0  0  0  0  0  0  0  0  0  0  0
    4.1500   -0.8600    1.2450 C   0  0  0  0  0  0  0  0  0  0  0  0
  1  2  1  0
  2  3  2  0
  2  8  1  0
  3  4  1  0
  4  5  1  0
  5  6  1  0
  5  8  2  0
  6  7  1  0
  8  9  1  0
  9 10  1  0
 10 11  2  0
 10 12  1  0
 12 13  1  0
 13 14  1  6
 13 15  1  0
 13 16  1  0
M  CHG  1   7   1
M  END
