
     RDKit          3D

 19 20  0  0  0  0  0  0  0  0999 V2000
    5.5530    0.1530   -0.6260 C   0  0  0  0  0  0  0  0  0  0  0  0
    4.0600    0.2760   -0.5230 C   0  0  0  0  0  0  0  0  0  0  0  0
    3.4150    1.4430   -0.7900 C   0  0  0  0  0  0  0  0  0  0  0  0
    2.0370    1.5150   -0.6830 C   0  0  0  0  0  0  0  0  0  0  0  0
    1.2310    2.5730   -0.9050 N   0  0  0  0  0  0  0  0  0  0  0  0
   -0.0050    2.1460   -0.6710 C   0  0  0  0  0  0  0  0  0  0  0  0
   -0.0380    0.8220   -0.2970 C   0  0  0  0  0  0  0  0  0  0  0  0
   -1.1940   -0.0250    0.0470 C   0  0  0  0  0  0  0  0  0  0  0  0
   -1.0360   -1.2150    0.3660 O   0  0  0  0  0  0  0  0  0  0  0  0
   -2.4900    0.4710    0.0280 O   0  0  0  0  0  0  0  0  0  0  0  0
   -3.6330   -0.2680    0.3400 C   0  0  1  0  0  0  0  0  0  0  0  0
   -4.8280    0.6820    0.1850 C   0  0  0  0  0  0  0  0  0  0  0  0
   -3.8790   -1.4150   -0.6100 C   0  0  0  0  0  0  0  0  0  0  0  0
   -3.6580   -0.7990    1.7360 C   0  0  0  0  0  0  0  0  0  0  0  0
    1.2840    0.4310   -0.3100 C   0  0  0  0  0  0  0  0  0  0  0  0
    1.9460   -0.7460   -0.0410 C   0  0  0  0  0  0  0  0  0  0  0  0
    3.3280   -0.8280   -0.1460 C   0  0  0  0  0  0  0  0  0  0  0  0
    4.0220   -2.0700    0.1380 C   0  0  0  0  0  0  0  0  0  0  0  0
    3.3310   -3.0660    0.4810 O   0  0  0  0  0  0  0  0  0  0  0  0
  1  2  1  0
  2  3  2  0
  2 17  1  0
  3  4  1  0
  4  5  1  0
  4 15  2  0
  5  6  1  0
  6  7  2  0
  7  8  1  0
  7 15  1  0
  8  9  2  0
  8 10  1  0
 10 11  1  0
 11 12  1  1
 11 13  1  0
 11 14  1  0
 15 16  1  0
 16 17  2  0
 17 18  1  0
 18 19  2  0
M  END
