
     RDKit          3D

 19 20  0  0  0  0  0  0  0  0999 V2000
    4.2030    0.6220    1.1030 C   0  0  0  0  0  0  0  0  0  0  0  0
    3.8180   -0.6880    1.6700 C   0  0  0  0  0  0  0  0  0  0  0  0
    2.6220   -1.1700    1.4500 C   0  0  0  0  0  0  0  0  0  0  0  0
    1.6360   -0.4690    0.6620 C   0  0  0  0  0  0  0  0  0  0  0  0
    1.8490    0.6360    0.1380 O   0  0  0  0  0  0  0  0  0  0  0  0
    0.3350   -1.0610    0.4600 N   0  0  0  0  0  0  0  0  0  0  0  0
   -0.7060   -0.4400   -0.3060 C   0  0  2  0  0  0  0  0  0  0  0  0
   -1.0380    0.8560    0.3180 C   0  0  0  0  0  0  0  0  0  0  0  0
   -0.4200    1.2110    1.3480 O   0  0  0  0  0  0  0  0  0  0  0  0
   -2.0050    1.7190   -0.1680 O   0  0  0  0  0  0  0  0  0  0  0  0
   -2.3040    2.9350    0.4330 C   0  0  0  0  0  0  0  0  0  0  0  0
   -3.1730    3.2610    1.3760 C   0  0  0  0  0  0  0  0  0  0  0  0
   -2.7480    4.6550    1.3050 C   0  0  0  0  0  0  0  0  0  0  0  0
   -1.8780    4.3240    0.3590 C   0  0  0  0  0  0  0  0  0  0  0  0
   -1.8990   -1.3840   -0.3250 C   0  0  0  0  0  0  0  0  0  0  0  0
   -1.4240   -2.7340   -0.7270 C   0  0  0  0  0  0  0  0  0  0  0  0
   -0.2490   -2.7950   -1.6240 C   0  0  0  0  0  0  0  0  0  0  0  0
    0.1070   -1.5610   -2.3560 C   0  0  0  0  0  0  0  0  0  0  0  0
   -0.3240   -0.2720   -1.7680 C   0  0  0  0  0  0  0  0  0  0  0  0
  1  2  1  0
  2  3  2  3
  3  4  1  0
  4  5  2  0
  4  6  1  0
  7  6  1  1
  7  8  1  0
  7 15  1  0
  7 19  1  0
  8  9  2  0
  8 10  1  0
 10 11  1  0
 11 12  2  0
 11 14  1  0
 12 13  1  0
 13 14  2  0
 15 16  1  0
 16 17  1  0
 17 18  1  0
 18 19  1  0
M  END
