
     RDKit          3D

 19 20  0  0  0  0  0  0  0  0999 V2000
    4.7000    1.1430   -0.2370 C   0  0  0  0  0  0  0  0  0  0  0  0
    4.4750   -0.2700   -0.5830 C   0  0  0  0  0  0  0  0  0  0  0  0
    3.4380   -1.0100   -0.6760 C   0  0  0  0  0  0  0  0  0  0  0  0
    3.7760   -2.4750   -1.0880 C   0  0  0  0  0  0  0  0  0  0  0  0
    2.0580   -0.8130   -0.4940 N   0  0  0  0  0  0  0  0  0  0  0  0
    1.2930    0.2760   -0.1580 C   0  0  0  0  0  0  0  0  0  0  0  0
    1.9960    1.3840   -0.0520 O   0  0  0  0  0  0  0  0  0  0  0  0
   -0.0730    0.5360    0.1380 C   0  0  0  0  0  0  0  0  0  0  0  0
   -1.0420   -0.2800    0.4060 C   0  0  0  0  0  0  0  0  0  0  0  0
   -0.8610   -1.7140    0.5070 C   0  0  0  0  0  0  0  0  0  0  0  0
    0.3110   -2.1220    0.6640 O   0  0  0  0  0  0  0  0  0  0  0  0
   -1.9290   -2.5730    0.4570 O   0  0  0  0  0  0  0  0  0  0  0  0
   -3.2090   -2.1670    0.0620 C   0  0  0  0  0  0  0  0  0  0  0  0
   -3.5550   -0.7990    0.6110 C   0  0  0  0  0  0  0  0  0  0  0  0
   -2.4590    0.1580    0.2730 C   0  0  0  0  0  0  0  0  0  0  0  0
   -2.7590    1.3470   -0.1240 C   0  0  0  0  0  0  0  0  0  0  0  0
   -4.1720    1.8070   -0.2550 C   0  0  0  0  0  0  0  0  0  0  0  0
   -1.6790    2.2590   -0.5360 C   0  0  0  0  0  0  0  0  0  0  0  0
   -0.4850    2.0210    0.3070 C   0  0  0  0  0  0  0  0  0  0  0  0
  1  2  1  0
  2  3  2  3
  3  4  1  0
  3  5  1  0
  5  6  1  0
  6  7  2  0
  6  8  1  0
  8  9  2  0
  8 19  1  0
  9 10  1  0
  9 15  1  0
 10 11  2  0
 10 12  1  0
 12 13  1  0
 13 14  1  0
 14 15  1  0
 15 16  2  0
 16 17  1  0
 16 18  1  0
 18 19  1  0
M  END
