
     RDKit          3D

 19 20  0  0  0  0  0  0  0  0999 V2000
   -2.8390   -3.5670    0.9610 C   0  0  0  0  0  0  0  0  0  0  0  0
   -2.5400   -2.4040    0.4150 C   0  0  0  0  0  0  0  0  0  0  0  0
   -1.3570   -1.6530    0.8060 C   0  0  0  0  0  0  0  0  0  0  0  0
   -1.0330   -0.4950    0.2810 C   0  0  0  0  0  0  0  0  0  0  0  0
    0.1620    0.3110    0.6460 C   0  0  0  0  0  0  0  0  0  0  0  0
    0.5030    0.9170   -0.6200 N   0  0  0  0  0  0  0  0  0  0  0  0
    1.6630    1.0890   -1.3610 C   0  0  0  0  0  0  0  0  0  0  0  0
    1.6260    1.6920   -2.4900 O   0  0  0  0  0  0  0  0  0  0  0  0
    2.9860    0.6190   -0.9450 C   0  0  2  0  0  0  0  0  0  0  0  0
    2.9660   -0.8800   -0.8210 C   0  0  0  0  0  0  0  0  0  0  0  0
    3.6590   -1.2070    0.4570 C   0  0  0  0  0  0  0  0  0  0  0  0
    4.3760    0.0510    0.8840 C   0  0  0  0  0  0  0  0  0  0  0  0
    3.4590    1.1340    0.3650 C   0  0  0  0  0  0  0  0  0  0  0  0
   -0.8080    1.4290   -1.0970 C   0  0  0  0  0  0  0  0  0  0  0  0
   -1.7470    0.2640   -0.7580 C   0  0  2  0  0  0  0  0  0  0  0  0
   -3.0350    0.8120   -0.2950 C   0  0  0  0  0  0  0  0  0  0  0  0
   -3.4590    0.6360    0.8730 O   0  0  0  0  0  0  0  0  0  0  0  0
   -3.8360    1.5530   -1.1470 O   0  0  0  0  0  0  0  0  0  0  0  0
   -5.0750    2.1000   -0.7580 C   0  0  0  0  0  0  0  0  0  0  0  0
  1  2  2  0
  2  3  1  0
  3  4  2  3
  4  5  1  0
  4 15  1  0
  5  6  1  0
  6  7  1  0
  6 14  1  0
  7  8  2  0
  9  7  1  1
  9 10  1  0
  9 13  1  0
 10 11  1  0
 11 12  1  0
 12 13  1  0
 14 15  1  0
 15 16  1  1
 16 17  2  0
 16 18  1  0
 18 19  1  0
M  END
