
     RDKit          3D

 19 20  0  0  0  0  0  0  0  0999 V2000
   -4.9170    0.8910   -0.3110 C   0  0  0  0  0  0  0  0  0  0  0  0
   -3.8440   -0.0560    0.0730 C   0  0  0  0  0  0  0  0  0  0  0  0
   -2.4970    0.3170   -0.0220 C   0  0  0  0  0  0  0  0  0  0  0  0
   -1.4790   -0.5170    0.3180 C   0  0  0  0  0  0  0  0  0  0  0  0
   -0.0810   -0.2130    0.2250 N   0  0  0  0  0  0  0  0  0  0  0  0
    0.5180    0.7990   -0.5260 C   0  0  0  0  0  0  0  0  0  0  0  0
   -0.3650    1.5010   -1.2030 O   0  0  0  0  0  0  0  0  0  0  0  0
    1.8730    1.2020   -0.6920 C   0  0  0  0  0  0  0  0  0  0  0  0
    3.0300    0.8390   -0.2580 C   0  0  0  0  0  0  0  0  0  0  0  0
    3.3290   -0.2360    0.6530 C   0  0  0  0  0  0  0  0  0  0  0  0
    4.5980   -0.4860    1.0070 C   0  0  0  0  0  0  0  0  0  0  0  0
    5.7510    0.2520    0.5440 C   0  0  0  0  0  0  0  0  0  0  0  0
    5.5770    1.2520   -0.2910 C   0  0  0  0  0  0  0  0  0  0  0  0
    4.2310    1.5880   -0.7260 C   0  0  0  0  0  0  0  0  0  0  0  0
    4.1450    2.5540   -1.5220 O   0  0  0  0  0  0  0  0  0  0  0  0
   -1.8630   -1.7890    0.7780 C   0  0  0  0  0  0  0  0  0  0  0  0
   -3.1520   -2.2030    0.8910 C   0  0  0  0  0  0  0  0  0  0  0  0
   -4.1480   -1.3130    0.5300 C   0  0  0  0  0  0  0  0  0  0  0  0
   -5.4900   -1.6910    0.6280 O   0  0  0  0  0  0  0  0  0  0  0  0
  1  2  1  0
  2  3  2  0
  2 18  1  0
  3  4  1  0
  4  5  1  0
  4 16  2  0
  5  6  1  0
  6  7  2  0
  6  8  1  0
  8  9  2  3
  9 10  1  0
  9 14  1  0
 10 11  2  0
 11 12  1  0
 12 13  2  0
 13 14  1  0
 14 15  2  0
 16 17  1  0
 17 18  2  0
 18 19  1  0
M  END
