
     RDKit          3D

 19 20  0  0  0  0  0  0  0  0999 V2000
    3.0660   -1.7860   -1.4100 C   0  0  0  0  0  0  0  0  0  0  0  0
    3.3580   -0.5610   -0.5810 C   0  0  0  0  0  0  0  0  0  0  0  0
    4.5470   -0.0310   -0.6340 C   0  0  0  0  0  0  0  0  0  0  0  0
    5.1840    1.1250    0.0090 C   0  0  0  0  0  0  0  0  0  0  0  0
    4.7130    1.3530    1.3920 C   0  0  0  0  0  0  0  0  0  0  0  0
    3.5380    1.1610    1.9460 C   0  0  0  0  0  0  0  0  0  0  0  0
    2.3210    0.6430    1.3040 C   0  0  0  0  0  0  0  0  0  0  0  0
    2.1850   -0.0970    0.2230 C   0  0  0  0  0  0  0  0  0  0  0  0
    0.9510   -0.5010   -0.2730 N   0  0  0  0  0  0  0  0  0  0  0  0
   -0.2920   -0.1540    0.2560 C   0  0  0  0  0  0  0  0  0  0  0  0
   -0.5010    0.5670    1.2430 O   0  0  0  0  0  0  0  0  0  0  0  0
   -1.5200   -0.7050   -0.4340 C   0  0  1  0  0  0  0  0  0  0  0  0
   -1.4790   -2.2310   -0.3420 C   0  0  0  0  0  0  0  0  0  0  0  0
   -2.7030   -0.2910    0.1830 O   0  0  0  0  0  0  0  0  0  0  0  0
   -3.7270    0.3980   -0.4200 C   0  0  0  0  0  0  0  0  0  0  0  0
   -3.6090    0.6910   -1.6370 O   0  0  0  0  0  0  0  0  0  0  0  0
   -4.9770    0.8160    0.3000 C   0  0  1  0  0  0  0  0  0  0  0  0
   -5.7550    1.9760   -0.1880 C   0  0  0  0  0  0  0  0  0  0  0  0
   -6.2640    0.6270   -0.5400 C   0  0  0  0  0  0  0  0  0  0  0  0
  1  2  1  0
  2  3  2  0
  2  8  1  0
  3  4  1  0
  4  5  1  0
  5  6  2  0
  6  7  1  0
  7  8  2  0
  8  9  1  0
  9 10  1  0
 10 11  2  0
 10 12  1  0
 12 13  1  1
 12 14  1  0
 14 15  1  0
 15 16  2  0
 17 15  1  6
 17 18  1  0
 17 19  1  0
 18 19  1  0
M  END
