
     RDKit          3D

 27 30  0  0  0  0  0  0  0  0999 V2000
   -6.5960    1.5560   -0.0440 C   0  0  0  0  0  0  0  0  0  0  0  0
   -6.3530    0.3480   -0.8390 N   0  0  0  0  0  0  0  0  0  0  0  0
   -7.0860   -0.1430   -1.8310 C   0  0  0  0  0  0  0  0  0  0  0  0
   -6.4730   -1.2720   -2.2660 N   0  0  0  0  0  0  0  0  0  0  0  0
   -5.3780   -1.4500   -1.5320 N   0  0  0  0  0  0  0  0  0  0  0  0
   -5.2920   -0.4420   -0.6360 C   0  0  0  0  0  0  0  0  0  0  0  0
   -4.2020   -0.2840    0.3680 C   0  0  1  0  0  0  0  0  0  0  0  0
   -3.1090   -1.2770    0.1210 C   0  0  0  0  0  0  0  0  0  0  0  0
   -1.7960   -0.7660    0.2240 N   0  0  0  0  0  0  0  0  0  0  0  0
   -1.0260   -1.2010    1.3360 C   0  0  0  0  0  0  0  0  0  0  0  0
    0.3110   -0.5870    1.3080 C   0  0  0  0  0  0  0  0  0  0  0  0
    0.7270    0.5600    1.9370 C   0  0  0  0  0  0  0  0  0  0  0  0
    2.0270    0.7840    1.6620 N   0  0  0  0  0  0  0  0  0  0  0  0
    2.5070   -0.1920    0.8530 C   0  0  0  0  0  0  0  0  0  0  0  0
    3.8810   -0.2090    0.3930 C   0  0  0  0  0  0  0  0  0  0  0  0
    4.7690    0.7860    0.7640 C   0  0  0  0  0  0  0  0  0  0  0  0
    6.0770    0.8300    0.3670 C   0  0  0  0  0  0  0  0  0  0  0  0
    6.5740   -0.1470   -0.4440 C   0  0  0  0  0  0  0  0  0  0  0  0
    7.9950   -0.1540   -0.9110 C   0  0  0  0  0  0  0  0  0  0  0  0
    8.6670    0.9530   -0.3970 O   0  0  0  0  0  0  0  0  0  0  0  0
    5.7290   -1.1520   -0.8350 C   0  0  0  0  0  0  0  0  0  0  0  0
    4.3810   -1.1950   -0.4240 C   0  0  0  0  0  0  0  0  0  0  0  0
    3.4340   -2.5250   -0.9990 Cl  0  0  0  0  0  0  0  0  0  0  0  0
    1.4500   -1.0480    0.6280 C   0  0  0  0  0  0  0  0  0  0  0  0
   -1.5910    0.5570   -0.2330 C   0  0  0  0  0  0  0  0  0  0  0  0
   -2.8900    1.1990   -0.6880 C   0  0  0  0  0  0  0  0  0  0  0  0
   -3.7990    1.0280    0.3640 O   0  0  0  0  0  0  0  0  0  0  0  0
  1  2  1  0
  2  3  1  0
  2  6  1  0
  3  4  2  0
  4  5  1  0
  5  6  2  0
  7  6  1  6
  7  8  1  0
  7 27  1  0
  8  9  1  0
  9 10  1  0
  9 25  1  0
 10 11  1  0
 11 12  2  0
 11 24  1  0
 12 13  1  0
 13 14  1  0
 14 15  1  0
 14 24  2  0
 15 16  2  0
 15 22  1  0
 16 17  1  0
 17 18  2  0
 18 19  1  0
 18 21  1  0
 19 20  1  0
 21 22  2  0
 22 23  1  0
 25 26  1  0
 26 27  1  0
M  END
