
     RDKit          3D

 28 31  0  0  0  0  0  0  0  0999 V2000
    5.4320    2.9490    0.7150 C   0  0  0  0  0  0  0  0  0  0  0  0
    6.2070    1.8940    0.6680 C   0  0  0  0  0  0  0  0  0  0  0  0
    5.7370    0.5630    0.4030 C   0  0  0  0  0  0  0  0  0  0  0  0
    6.6210   -0.4960    0.3720 C   0  0  0  0  0  0  0  0  0  0  0  0
    6.1170   -1.7490    0.1140 C   0  0  0  0  0  0  0  0  0  0  0  0
    4.8090   -1.9620   -0.1040 N   0  0  0  0  0  0  0  0  0  0  0  0
    3.8940   -0.9440   -0.0830 C   0  0  0  0  0  0  0  0  0  0  0  0
    2.5540   -1.2950   -0.3260 N   0  0  0  0  0  0  0  0  0  0  0  0
    1.4630   -0.3990   -0.3480 C   0  0  0  0  0  0  0  0  0  0  0  0
    1.6470    0.8240   -0.1380 O   0  0  0  0  0  0  0  0  0  0  0  0
    0.0970   -0.9010   -0.6180 C   0  0  0  0  0  0  0  0  0  0  0  0
   -0.0680   -2.1080   -1.2370 C   0  0  0  0  0  0  0  0  0  0  0  0
   -1.3600   -2.5820   -1.4830 C   0  0  0  0  0  0  0  0  0  0  0  0
   -2.4040   -1.7920   -1.0800 C   0  0  0  0  0  0  0  0  0  0  0  0
   -2.2260   -0.5580   -0.4480 C   0  0  0  0  0  0  0  0  0  0  0  0
   -0.9610   -0.1090   -0.2150 C   0  0  0  0  0  0  0  0  0  0  0  0
   -3.2180    0.3570    0.0170 N   0  0  0  0  0  0  0  0  0  0  0  0
   -2.9820    1.6640    0.2020 N   0  0  0  0  0  0  0  0  0  0  0  0
   -4.1010    2.2620    0.6410 C   0  0  0  0  0  0  0  0  0  0  0  0
   -4.2930    3.7140    0.9770 C   0  0  0  0  0  0  0  0  0  0  0  0
   -5.0530    1.2750    0.7240 C   0  0  0  0  0  0  0  0  0  0  0  0
   -6.7100    1.4590    1.2390 Cl  0  0  0  0  0  0  0  0  0  0  0  0
   -4.4880    0.0780    0.3290 C   0  0  0  0  0  0  0  0  0  0  0  0
   -5.2320   -1.2020    0.2980 C   0  0  0  0  0  0  0  0  0  0  0  0
   -4.9830   -1.9960   -0.8800 N   0  0  0  0  0  0  0  0  0  0  0  0
   -3.7010   -2.3850   -1.3870 C   0  0  0  0  0  0  0  0  0  0  0  0
   -3.6620   -3.3420   -2.1870 O   0  0  0  0  0  0  0  0  0  0  0  0
    4.4030    0.2910    0.1730 C   0  0  0  0  0  0  0  0  0  0  0  0
  1  2  2  0
  2  3  1  0
  3  4  2  0
  3 28  1  0
  4  5  1  0
  5  6  2  0
  6  7  1  0
  7  8  1  0
  7 28  2  0
  8  9  1  0
  9 10  2  0
  9 11  1  0
 11 12  2  0
 11 16  1  0
 12 13  1  0
 13 14  2  0
 14 15  1  0
 14 26  1  0
 15 16  2  0
 15 17  1  0
 17 18  1  0
 17 23  1  0
 18 19  2  0
 19 20  1  0
 19 21  1  0
 21 22  1  0
 21 23  2  0
 23 24  1  0
 24 25  1  0
 25 26  1  0
 26 27  2  0
M  END
