
     RDKit          3D

 28 31  0  0  0  0  0  0  0  0999 V2000
    7.1270    1.9700    0.2840 C   0  0  0  0  0  0  0  0  0  0  0  0
    7.6570    0.6840    0.0550 O   0  0  0  0  0  0  0  0  0  0  0  0
    6.8590   -0.4410   -0.1060 C   0  0  0  0  0  0  0  0  0  0  0  0
    7.3770   -1.6800   -0.3270 C   0  0  0  0  0  0  0  0  0  0  0  0
    6.5040   -2.7390   -0.4760 C   0  0  0  0  0  0  0  0  0  0  0  0
    5.1780   -2.5880   -0.4100 N   0  0  0  0  0  0  0  0  0  0  0  0
    4.6310   -1.3620   -0.1910 C   0  0  0  0  0  0  0  0  0  0  0  0
    3.1990   -1.1950   -0.1200 C   0  0  0  0  0  0  0  0  0  0  0  0
    2.6320    0.0220    0.1000 C   0  0  0  0  0  0  0  0  0  0  0  0
    1.2290    0.1560    0.1640 C   0  0  0  0  0  0  0  0  0  0  0  0
    0.6260    1.3580    0.3830 C   0  0  0  0  0  0  0  0  0  0  0  0
   -0.7070    1.4360    0.4360 N   0  0  0  0  0  0  0  0  0  0  0  0
   -1.4670    0.3360    0.2760 C   0  0  0  0  0  0  0  0  0  0  0  0
   -2.8810    0.3630    0.3240 N   0  0  0  0  0  0  0  0  0  0  0  0
   -3.5180   -0.9090    0.1300 C   0  0  0  0  0  0  0  0  0  0  0  0
   -4.8350   -1.0170    0.9010 C   0  0  0  0  0  0  0  0  0  0  0  0
   -5.9620   -0.4020    0.0900 C   0  0  0  0  0  0  0  0  0  0  0  0
   -5.4560    0.8940   -0.4780 C   0  0  1  0  0  0  0  0  0  0  0  0
   -6.5290    1.6440   -1.2370 C   0  0  0  0  0  0  0  0  0  0  0  0
   -7.1570    0.7150   -2.5890 Cl  0  0  0  0  0  0  0  0  0  0  0  0
   -4.9030    1.7210    0.6490 C   0  0  0  0  0  0  0  0  0  0  0  0
   -3.4030    1.6990    0.5630 C   0  0  0  0  0  0  0  0  0  0  0  0
   -0.8570   -0.8370    0.0630 N   0  0  0  0  0  0  0  0  0  0  0  0
    0.4690   -0.9670    0.0010 C   0  0  0  0  0  0  0  0  0  0  0  0
    1.0390   -2.1690   -0.2160 N   0  0  0  0  0  0  0  0  0  0  0  0
    2.3850   -2.2930   -0.2780 C   0  0  0  0  0  0  0  0  0  0  0  0
    2.8610   -3.4410   -0.4830 O   0  0  0  0  0  0  0  0  0  0  0  0
    5.4850   -0.2950   -0.0400 C   0  0  0  0  0  0  0  0  0  0  0  0
  1  2  1  0
  2  3  1  0
  3  4  2  0
  3 28  1  0
  4  5  1  0
  5  6  2  0
  6  7  1  0
  7  8  1  0
  7 28  2  0
  8  9  2  0
  8 26  1  0
  9 10  1  0
 10 11  2  0
 10 24  1  0
 11 12  1  0
 12 13  2  0
 13 14  1  0
 13 23  1  0
 14 15  1  0
 14 22  1  0
 15 16  1  0
 16 17  1  0
 17 18  1  0
 18 19  1  1
 18 21  1  0
 19 20  1  0
 21 22  1  0
 23 24  2  0
 24 25  1  0
 25 26  1  0
 26 27  2  0
M  END
