
     RDKit          3D

 15 16  0  0  0  0  0  0  0  0999 V2000
    5.1310    1.2070    0.0260 O   0  0  0  0  0  0  0  0  0  0  0  0
    3.9090    0.5120    0.0300 C   0  0  0  0  0  0  0  0  0  0  0  0
    2.7910    1.0370   -0.5650 C   0  0  0  0  0  0  0  0  0  0  0  0
    1.5770    0.3400   -0.5580 C   0  0  0  0  0  0  0  0  0  0  0  0
    1.4890   -0.8860    0.0490 C   0  0  0  0  0  0  0  0  0  0  0  0
   -0.0130   -1.7770    0.1340 S   0  0  0  0  0  0  0  0  0  0  0  0
   -1.4830   -0.8350    0.0370 C   0  0  0  0  0  0  0  0  0  0  0  0
   -2.6650   -1.5040   -0.2540 C   0  0  0  0  0  0  0  0  0  0  0  0
   -3.8850   -0.8810   -0.3120 C   0  0  0  0  0  0  0  0  0  0  0  0
   -3.9670    0.4740   -0.0740 C   0  0  0  0  0  0  0  0  0  0  0  0
   -5.2240    1.0530   -0.1460 O   0  0  0  0  0  0  0  0  0  0  0  0
   -2.8260    1.1650    0.2150 C   0  0  0  0  0  0  0  0  0  0  0  0
   -1.5830    0.5140    0.2720 C   0  0  0  0  0  0  0  0  0  0  0  0
    2.6590   -1.3880    0.6470 C   0  0  0  0  0  0  0  0  0  0  0  0
    3.8490   -0.7160    0.6450 C   0  0  0  0  0  0  0  0  0  0  0  0
  1  2  1  0
  2  3  2  0
  2 15  1  0
  3  4  1  0
  4  5  2  0
  5  6  1  0
  5 14  1  0
  6  7  1  0
  7  8  2  0
  7 13  1  0
  8  9  1  0
  9 10  2  0
 10 11  1  0
 10 12  1  0
 12 13  2  0
 14 15  2  0
M  END
