
     RDKit          3D

 28 31  0  0  0  0  0  0  0  0999 V2000
    8.9090    1.6610   -0.4300 C   0  0  0  0  0  0  0  0  0  0  0  0
    7.8290    0.6350   -0.4220 C   0  0  0  0  0  0  0  0  0  0  0  0
    8.0670   -0.7220   -0.4810 C   0  0  0  0  0  0  0  0  0  0  0  0
    6.8690   -1.2980   -0.4520 N   0  0  0  0  0  0  0  0  0  0  0  0
    5.9020   -0.3480   -0.3770 C   0  0  0  0  0  0  0  0  0  0  0  0
    4.4730   -0.5580   -0.3260 C   0  0  0  0  0  0  0  0  0  0  0  0
    3.6250    0.5130   -0.2520 C   0  0  0  0  0  0  0  0  0  0  0  0
    2.2290    0.3060   -0.2010 C   0  0  0  0  0  0  0  0  0  0  0  0
    1.6870   -0.9490   -0.2240 C   0  0  0  0  0  0  0  0  0  0  0  0
    0.3010   -1.2230   -0.1760 N   0  0  0  0  0  0  0  0  0  0  0  0
   -0.7460   -0.2970   -0.0990 C   0  0  0  0  0  0  0  0  0  0  0  0
   -0.5210    0.9210   -0.0650 O   0  0  0  0  0  0  0  0  0  0  0  0
   -2.1460   -0.7280   -0.0570 C   0  0  0  0  0  0  0  0  0  0  0  0
   -3.0350    0.1960    0.0130 N   0  0  0  0  0  0  0  0  0  0  0  0
   -4.4150    0.2250    0.0710 N   0  0  0  0  0  0  0  0  0  0  0  0
   -5.0610    1.5070   -0.1040 C   0  0  0  0  0  0  0  0  0  0  0  0
   -5.2920    2.3090    0.9220 C   0  0  0  0  0  0  0  0  0  0  0  0
   -5.9680    3.5560    0.4310 C   0  0  0  0  0  0  0  0  0  0  0  0
   -6.0640    3.2940   -1.0290 C   0  0  0  0  0  0  0  0  0  0  0  0
   -5.5400    2.1150   -1.3260 C   0  0  0  0  0  0  0  0  0  0  0  0
   -5.3180   -0.8790    0.2890 C   0  0  0  0  0  0  0  0  0  0  0  0
   -4.5820   -1.9660    0.8760 N   0  0  0  0  0  0  0  0  0  0  0  0
   -3.7540   -2.6460   -0.1010 C   0  0  0  0  0  0  0  0  0  0  0  0
   -2.3410   -2.1760   -0.1000 C   0  0  0  0  0  0  0  0  0  0  0  0
    2.5730   -2.0130   -0.2990 C   0  0  0  0  0  0  0  0  0  0  0  0
    1.9080   -3.6360   -0.3300 Cl  0  0  0  0  0  0  0  0  0  0  0  0
    3.9540   -1.8300   -0.3500 C   0  0  0  0  0  0  0  0  0  0  0  0
    6.5310    0.8030   -0.3620 O   0  0  0  0  0  0  0  0  0  0  0  0
  1  2  1  0
  2  3  2  0
  2 28  1  0
  3  4  1  0
  4  5  2  0
  5  6  1  0
  5 28  1  0
  6  7  2  0
  6 27  1  0
  7  8  1  0
  8  9  2  0
  9 10  1  0
  9 25  1  0
 10 11  1  0
 11 12  2  0
 11 13  1  0
 13 14  2  0
 13 24  1  0
 14 15  1  0
 15 16  1  0
 15 21  1  0
 16 17  2  0
 16 20  1  0
 17 18  1  0
 18 19  1  0
 19 20  2  0
 21 22  1  0
 22 23  1  0
 23 24  1  0
 25 26  1  0
 25 27  2  0
M  END
