
     RDKit          3D

 28 30  0  0  0  0  0  0  0  0999 V2000
    5.8260   -3.9230   -1.2370 C   0  0  0  0  0  0  0  0  0  0  0  0
    6.0080   -2.9600   -0.1600 N   0  0  0  0  0  0  0  0  0  0  0  0
    4.9170   -2.7300    0.6870 C   0  0  0  0  0  0  0  0  0  0  0  0
    4.1230   -1.7090    0.5840 C   0  0  0  0  0  0  0  0  0  0  0  0
    4.1950   -0.6330   -0.3960 C   0  0  0  0  0  0  0  0  0  0  0  0
    5.0590   -0.4400   -1.3840 N   0  0  0  0  0  0  0  0  0  0  0  0
    4.8120    0.6360   -2.0550 N   0  0  0  0  0  0  0  0  0  0  0  0
    3.6960    1.2600   -1.5150 C   0  0  0  0  0  0  0  0  0  0  0  0
    3.2230    2.4740   -2.1180 C   0  0  0  0  0  0  0  0  0  0  0  0
    2.3270    3.3460   -1.8340 C   0  0  0  0  0  0  0  0  0  0  0  0
    1.3430    3.5740   -0.7890 C   0  0  0  0  0  0  0  0  0  0  0  0
    1.7100    5.1950   -0.0260 Cl  0  0  0  0  0  0  0  0  0  0  0  0
    3.3200    0.4640   -0.4860 C   0  0  0  0  0  0  0  0  0  0  0  0
    2.2240    0.6270    0.3870 N   0  0  0  0  0  0  0  0  0  0  0  0
    0.9380    0.0470    0.1000 C   0  0  0  0  0  0  0  0  0  0  0  0
    0.8770   -0.6020   -0.9740 O   0  0  0  0  0  0  0  0  0  0  0  0
   -0.1840    0.2250    1.0120 C   0  0  0  0  0  0  0  0  0  0  0  0
    0.0140    0.9020    2.0520 O   0  0  0  0  0  0  0  0  0  0  0  0
   -1.4590   -0.3420    0.7450 N   0  0  0  0  0  0  0  0  0  0  0  0
   -1.6310   -1.1150   -0.4620 C   0  0  0  0  0  0  0  0  0  0  0  0
   -3.0420   -1.6590   -0.4610 C   0  0  0  0  0  0  0  0  0  0  0  0
   -3.9840   -0.4860   -0.3290 C   0  0  0  0  0  0  0  0  0  0  0  0
   -3.8330    0.2140    0.9960 C   0  0  1  0  0  0  0  0  0  0  0  0
   -4.0830    1.7000    0.8990 C   0  0  0  0  0  0  0  0  0  0  0  0
   -5.5800    1.7490    0.6630 C   0  0  0  0  0  0  0  0  0  0  0  0
   -6.1490    0.4870    1.2690 C   0  0  0  0  0  0  0  0  0  0  0  0
   -4.9670   -0.2350    1.8930 C   0  0  0  0  0  0  0  0  0  0  0  0
   -2.5360   -0.1280    1.6820 C   0  0  0  0  0  0  0  0  0  0  0  0
  1  2  1  0
  2  3  1  0
  3  4  2  3
  4  5  1  0
  5  6  1  0
  5 13  2  0
  6  7  1  0
  7  8  2  0
  8  9  1  0
  8 13  1  0
  9 10  2  3
 10 11  1  0
 11 12  1  0
 13 14  1  0
 14 15  1  0
 15 16  2  0
 15 17  1  0
 17 18  2  0
 17 19  1  0
 19 20  1  0
 19 28  1  0
 20 21  1  0
 21 22  1  0
 23 22  1  6
 23 24  1  0
 23 27  1  0
 23 28  1  0
 24 25  1  0
 25 26  1  0
 26 27  1  0
M  END
