
     RDKit          3D

 18 19  0  0  0  0  0  0  0  0999 V2000
   -3.6020   -1.2160    0.8700 C   0  0  0  0  0  0  0  0  0  0  0  0
   -2.3570   -0.8080    0.0500 C   0  0  1  0  0  0  0  0  0  0  0  0
   -2.8170   -0.8410   -1.4190 C   0  0  0  0  0  0  0  0  0  0  0  0
   -2.0170    0.5950    0.3320 C   0  0  0  0  0  0  0  0  0  0  0  0
   -3.0870    1.4680    0.6550 C   0  0  0  0  0  0  0  0  0  0  0  0
   -2.8920    2.8110    0.8880 C   0  0  0  0  0  0  0  0  0  0  0  0
   -1.6160    3.3230    0.8060 C   0  0  0  0  0  0  0  0  0  0  0  0
   -0.5790    2.4910    0.4960 C   0  0  0  0  0  0  0  0  0  0  0  0
   -0.7720    1.1110    0.2560 C   0  0  0  0  0  0  0  0  0  0  0  0
    0.4150    0.3050   -0.0370 C   0  0  0  0  0  0  0  0  0  0  0  0
    0.6420   -0.4070   -1.1760 C   0  0  0  0  0  0  0  0  0  0  0  0
    1.8580   -1.0960   -1.3830 C   0  0  0  0  0  0  0  0  0  0  0  0
    2.8690   -1.0850   -0.4520 C   0  0  0  0  0  0  0  0  0  0  0  0
    4.1580   -1.8010   -0.6770 C   0  0  0  0  0  0  0  0  0  0  0  0
    5.2470   -0.8350   -0.6320 N   0  0  0  0  0  0  0  0  0  0  0  0
    2.6410   -0.3690    0.6980 C   0  0  0  0  0  0  0  0  0  0  0  0
    1.4660    0.3030    0.9070 C   0  0  0  0  0  0  0  0  0  0  0  0
    1.1950    1.1940    2.3830 Cl  0  0  0  0  0  0  0  0  0  0  0  0
  2  1  1  1
  2  3  1  0
  2  4  1  0
  4  5  2  0
  4  9  1  0
  5  6  1  0
  6  7  2  0
  7  8  1  0
  8  9  2  0
  9 10  1  0
 10 11  2  0
 10 17  1  0
 11 12  1  0
 12 13  2  0
 13 14  1  0
 13 16  1  0
 14 15  1  0
 16 17  2  0
 17 18  1  0
M  CHG  1  15   1
M  END
