
     RDKit          3D

  9  9  0  0  0  0  0  0  0  0999 V2000
   -1.3340   -0.8810    0.9950 C   0  0  0  0  0  0  0  0  0  0  0  0
   -0.9610   -0.4410   -0.4080 C   0  0  1  0  0  0  0  0  0  0  0  0
   -1.8390    0.5970   -0.7310 O   0  0  0  0  0  0  0  0  0  0  0  0
   -1.2630    1.7670   -0.2940 C   0  0  0  0  0  0  0  0  0  0  0  0
   -0.0410    1.4660    0.2800 O   0  0  0  0  0  0  0  0  0  0  0  0
    0.3450    0.3260   -0.4190 C   0  0  1  0  0  0  0  0  0  0  0  0
    1.4640   -0.4130    0.2450 C   0  0  2  0  0  0  0  0  0  0  0  0
    2.5560    0.4520    0.3270 O   0  0  0  0  0  0  0  0  0  0  0  0
    1.7930   -1.5930   -0.3660 O   0  0  0  0  0  0  0  0  0  0  0  0
  2  1  1  1
  2  3  1  0
  2  6  1  0
  3  4  1  0
  4  5  1  0
  6  5  1  1
  6  7  1  0
  7  8  1  6
  7  9  1  0
M  END
