
     RDKit          3D

  9  9  0  0  0  0  0  0  0  0999 V2000
   -2.5120    0.1350   -0.9280 O   0  0  0  0  0  0  0  0  0  0  0  0
   -1.5850    0.5610    0.0110 C   0  0  0  0  0  0  0  0  0  0  0  0
   -0.4230   -0.4240    0.1360 C   0  0  1  0  0  0  0  0  0  0  0  0
   -0.9960   -1.6380    0.5310 O   0  0  0  0  0  0  0  0  0  0  0  0
    0.3490   -0.5420   -1.1130 C   0  0  0  0  0  0  0  0  0  0  0  0
    1.5760    0.0190   -1.1630 O   0  0  0  0  0  0  0  0  0  0  0  0
    2.0730    0.6010   -0.0500 C   0  0  0  0  0  0  0  0  0  0  0  0
    1.1560    1.1370    0.8220 O   0  0  0  0  0  0  0  0  0  0  0  0
    0.4060    0.0640    1.3170 C   0  0  0  0  0  0  0  0  0  0  0  0
  1  2  1  0
  2  3  1  0
  3  4  1  1
  3  5  1  0
  3  9  1  0
  5  6  1  0
  6  7  1  0
  7  8  1  0
  8  9  1  0
M  END
