
     RDKit          3D

  9  9  0  0  0  0  0  0  0  0999 V2000
    2.7940   -0.1680    0.0180 C   0  0  0  0  0  0  0  0  0  0  0  0
    1.5470   -0.2790   -0.5980 O   0  0  0  0  0  0  0  0  0  0  0  0
    0.5750    0.1540    0.2750 C   0  0  1  0  0  0  0  0  0  0  0  0
   -0.0700    1.2520   -0.2980 O   0  0  0  0  0  0  0  0  0  0  0  0
   -1.3400    1.4260    0.2510 C   0  0  0  0  0  0  0  0  0  0  0  0
   -2.2270    0.3270   -0.2880 C   0  0  0  0  0  0  0  0  0  0  0  0
   -1.4530   -0.7900   -0.4890 O   0  0  0  0  0  0  0  0  0  0  0  0
   -0.4400   -0.9430    0.4550 C   0  0  1  0  0  0  0  0  0  0  0  0
    0.1590   -2.1700    0.3240 O   0  0  0  0  0  0  0  0  0  0  0  0
  1  2  1  0
  3  2  1  6
  3  4  1  0
  3  8  1  0
  4  5  1  0
  5  6  1  0
  6  7  1  0
  7  8  1  0
  8  9  1  6
M  END
