
     RDKit          3D

 10 10  0  0  0  0  0  0  0  0999 V2000
    2.3850    0.2980   -0.0340 C   0  0  0  0  0  0  0  0  0  0  0  0
    1.4280   -0.6260   -0.4040 O   0  0  0  0  0  0  0  0  0  0  0  0
    0.2140   -0.4550    0.1990 C   0  0  2  0  0  0  0  0  0  0  0  0
    0.2230   -0.5310    1.5730 O   0  0  0  0  0  0  0  0  0  0  0  0
   -0.7290   -1.4690   -0.3460 C   0  0  0  0  0  0  0  0  0  0  0  0
   -0.4810   -2.6180   -0.7690 O   0  0  0  0  0  0  0  0  0  0  0  0
   -1.9990   -0.9070   -0.3060 O   0  0  0  0  0  0  0  0  0  0  0  0
   -1.9350    0.4510    0.0800 C   0  0  0  0  0  0  0  0  0  0  0  0
   -0.4810    0.8340   -0.2100 C   0  0  2  0  0  0  0  0  0  0  0  0
   -0.3820    1.0010   -1.5770 O   0  0  0  0  0  0  0  0  0  0  0  0
  1  2  1  0
  2  3  1  0
  3  4  1  1
  3  5  1  0
  3  9  1  0
  5  6  2  0
  5  7  1  0
  7  8  1  0
  8  9  1  0
  9 10  1  6
M  END
