
     RDKit          3D

  9  9  0  0  0  0  0  0  0  0999 V2000
    2.6790    0.2590   -0.5000 C   0  0  0  0  0  0  0  0  0  0  0  0
    1.3590    0.2370    0.2340 C   0  0  2  0  0  0  0  0  0  0  0  0
    1.0780   -1.0820    0.5880 O   0  0  0  0  0  0  0  0  0  0  0  0
   -0.3210   -1.0020    0.7350 C   0  0  0  0  0  0  0  0  0  0  0  0
   -0.6940   -0.2340   -0.5140 C   0  0  1  0  0  0  0  0  0  0  0  0
   -0.8020   -1.0580   -1.6220 O   0  0  0  0  0  0  0  0  0  0  0  0
   -2.0150    0.4670   -0.2620 C   0  0  0  0  0  0  0  0  0  0  0  0
   -1.9470    1.3010    0.8390 O   0  0  0  0  0  0  0  0  0  0  0  0
    0.3650    0.6530   -0.6310 O   0  0  0  0  0  0  0  0  0  0  0  0
  2  1  1  6
  2  3  1  0
  2  9  1  0
  3  4  1  0
  4  5  1  0
  5  6  1  6
  5  7  1  0
  5  9  1  0
  7  8  1  0
M  END
