
     RDKit          3D

 28 30  0  0  0  0  0  0  0  0999 V2000
   -4.1030    4.9470   -1.4560 C   0  0  0  0  0  0  0  0  0  0  0  0
   -3.1640    3.9800   -0.9760 O   0  0  0  0  0  0  0  0  0  0  0  0
   -2.8670    3.9120    0.3750 C   0  0  0  0  0  0  0  0  0  0  0  0
   -3.3860    4.6700    1.2300 O   0  0  0  0  0  0  0  0  0  0  0  0
   -1.8750    2.8740    0.8000 C   0  0  0  0  0  0  0  0  0  0  0  0
   -1.2840    1.9180   -0.6210 S   0  0  0  0  0  0  0  0  0  0  0  0
   -0.1580    0.6790   -0.0140 C   0  0  0  0  0  0  0  0  0  0  0  0
   -0.6440   -0.5610    0.3030 C   0  0  0  0  0  0  0  0  0  0  0  0
   -2.0830   -0.8630    0.0930 C   0  0  0  0  0  0  0  0  0  0  0  0
   -2.4420   -2.0340   -0.4030 C   0  0  0  0  0  0  0  0  0  0  0  0
   -1.6330   -3.2040   -0.8300 C   0  0  0  0  0  0  0  0  0  0  0  0
   -4.2280   -1.9180   -0.4600 S   0  0  1  0  0  0  0  0  0  0  0  0
   -4.9750   -3.0830    0.6770 C   0  0  0  0  0  0  0  0  0  0  0  0
   -4.2890   -0.2780    0.2010 C   0  0  0  0  0  0  0  0  0  0  0  0
   -5.7540    0.6300    0.4830 Cl  0  0  0  0  0  0  0  0  0  0  0  0
   -3.0780    0.0290    0.3960 N   0  0  0  0  0  0  0  0  0  0  0  0
    0.2170   -1.4710    0.7840 N   0  0  0  0  0  0  0  0  0  0  0  0
    1.5380   -1.1900    0.9570 C   0  0  0  0  0  0  0  0  0  0  0  0
    2.2470   -2.1250    1.4150 O   0  0  0  0  0  0  0  0  0  0  0  0
    2.0430    0.0170    0.6550 N   0  0  0  0  0  0  0  0  0  0  0  0
    3.4390    0.3260    0.8310 C   0  0  0  0  0  0  0  0  0  0  0  0
    4.2770    0.0280   -0.3780 C   0  0  1  0  0  0  0  0  0  0  0  0
    5.6950    0.4010   -0.0380 C   0  0  0  0  0  0  0  0  0  0  0  0
    6.3620   -0.9560    0.0260 C   0  0  0  0  0  0  0  0  0  0  0  0
    5.4480   -1.8240   -0.7750 C   0  0  0  0  0  0  0  0  0  0  0  0
    4.2040   -1.2460   -0.8270 O   0  0  0  0  0  0  0  0  0  0  0  0
    1.1930    0.9350    0.1750 C   0  0  0  0  0  0  0  0  0  0  0  0
    1.6000    2.0850   -0.1290 O   0  0  0  0  0  0  0  0  0  0  0  0
  1  2  1  0
  2  3  1  0
  3  4  2  0
  3  5  1  0
  5  6  1  0
  6  7  1  0
  7  8  2  0
  7 27  1  0
  8  9  1  0
  8 17  1  0
  9 10  2  0
  9 16  1  0
 10 11  1  0
 10 12  1  0
 12 13  1  1
 12 14  1  0
 14 15  1  0
 14 16  2  0
 17 18  1  0
 18 19  2  0
 18 20  1  0
 20 21  1  0
 20 27  1  0
 22 21  1  1
 22 23  1  0
 22 26  1  0
 23 24  1  0
 24 25  1  0
 25 26  1  0
 27 28  2  0
M  END
