
     RDKit          3D

 22 23  0  0  0  0  0  0  0  0999 V2000
    1.9360   -0.8510    1.9000 O   0  0  0  0  0  0  0  0  0  0  0  0
    1.3140    0.0340    1.2800 C   0  0  0  0  0  0  0  0  0  0  0  0
    1.7640    0.4470    0.0720 O   0  0  0  0  0  0  0  0  0  0  0  0
    2.8650    0.0330   -0.6410 C   0  0  0  0  0  0  0  0  0  0  0  0
    3.1140    0.5980   -1.8390 C   0  0  0  0  0  0  0  0  0  0  0  0
    4.2510    0.2470   -2.6950 C   0  0  1  0  0  0  0  0  0  0  0  0
    5.0710    1.3750   -2.9220 O   0  0  0  0  0  0  0  0  0  0  0  0
    5.0910   -0.7530   -2.1650 O   0  0  0  0  0  0  0  0  0  0  0  0
    4.8600   -1.3500   -0.9410 C   0  0  0  0  0  0  0  0  0  0  0  0
    3.8000   -0.9840   -0.2010 C   0  0  0  0  0  0  0  0  0  0  0  0
    0.0980    0.5960    1.9050 C   0  0  1  0  0  0  0  0  0  0  0  0
   -0.4670    1.5470    1.1100 O   0  0  0  0  0  0  0  0  0  0  0  0
   -1.4610    2.2850    1.7040 C   0  0  0  0  0  0  0  0  0  0  0  0
   -2.3580    1.5650    2.6190 C   0  0  0  0  0  0  0  0  0  0  0  0
   -1.9680    0.1930    3.0480 C   0  0  0  0  0  0  0  0  0  0  0  0
   -0.9390   -0.4620    2.2070 C   0  0  1  0  0  0  0  0  0  0  0  0
   -1.3760   -1.1490    0.9910 C   0  0  2  0  0  0  0  0  0  0  0  0
   -0.2730   -1.7770    0.3650 O   0  0  0  0  0  0  0  0  0  0  0  0
   -2.1390   -0.4280   -0.0370 C   0  0  0  0  0  0  0  0  0  0  0  0
   -2.4920   -1.3480   -1.2220 C   0  0  0  0  0  0  0  0  0  0  0  0
   -3.2740   -0.5710   -2.2550 C   0  0  0  0  0  0  0  0  0  0  0  0
   -2.5490    0.5010   -2.7390 O   0  0  0  0  0  0  0  0  0  0  0  0
  1  2  2  0
  2  3  1  0
 11  2  1  6
  3  4  1  0
  4  5  2  0
  4 10  1  0
  5  6  1  0
  6  7  1  1
  6  8  1  0
  8  9  1  0
  9 10  2  0
 11 12  1  0
 11 16  1  0
 12 13  1  0
 13 14  1  0
 14 15  1  0
 16 15  1  6
 16 17  1  0
 17 18  1  6
 17 19  1  0
 19 20  1  0
 20 21  1  0
 21 22  1  0
M  END
