
     RDKit          3D

 22 23  0  0  0  0  0  0  0  0999 V2000
    1.8410    3.5890    0.2970 C   0  0  0  0  0  0  0  0  0  0  0  0
    1.6660    2.7830   -0.7940 O   0  0  0  0  0  0  0  0  0  0  0  0
    0.3850    2.5660   -1.1860 C   0  0  0  0  0  0  0  0  0  0  0  0
   -0.4580    1.9040   -0.1300 C   0  0  1  0  0  0  0  0  0  0  0  0
   -0.5910    2.6510    1.0210 O   0  0  0  0  0  0  0  0  0  0  0  0
   -1.8410    1.7420   -0.7150 C   0  0  0  0  0  0  0  0  0  0  0  0
   -2.5460    0.5390   -0.1390 C   0  0  0  0  0  0  0  0  0  0  0  0
   -1.7290   -0.7200   -0.3210 C   0  0  2  0  0  0  0  0  0  0  0  0
   -2.2150   -1.3530   -1.6340 C   0  0  0  0  0  0  0  0  0  0  0  0
   -2.0170   -1.7330    0.7620 C   0  0  0  0  0  0  0  0  0  0  0  0
   -3.4700   -2.1460    0.7750 C   0  0  0  0  0  0  0  0  0  0  0  0
   -3.7110   -3.0790    1.7800 O   0  0  0  0  0  0  0  0  0  0  0  0
   -0.3910   -0.4910   -0.4700 O   0  0  0  0  0  0  0  0  0  0  0  0
    0.1330    0.5380    0.2500 C   0  0  1  0  0  0  0  0  0  0  0  0
    1.5120    0.6490   -0.0580 O   0  0  0  0  0  0  0  0  0  0  0  0
    2.4460   -0.3110    0.1090 C   0  0  0  0  0  0  0  0  0  0  0  0
    3.2450   -0.3060    1.1550 C   0  0  0  0  0  0  0  0  0  0  0  0
    4.2730   -1.3270    1.3760 C   0  0  0  0  0  0  0  0  0  0  0  0
    4.3540   -2.3170    0.3970 O   0  0  0  0  0  0  0  0  0  0  0  0
    3.5340   -2.3390   -0.6950 C   0  0  0  0  0  0  0  0  0  0  0  0
    2.6180   -1.3910   -0.8500 C   0  0  0  0  0  0  0  0  0  0  0  0
    1.7810   -1.4070   -1.9590 O   0  0  0  0  0  0  0  0  0  0  0  0
  1  2  1  0
  2  3  1  0
  3  4  1  0
  4  5  1  1
  4  6  1  0
  4 14  1  0
  6  7  1  0
  7  8  1  0
  8  9  1  6
  8 10  1  0
  8 13  1  0
 10 11  1  0
 11 12  1  0
 13 14  1  0
 14 15  1  6
 15 16  1  0
 16 17  2  0
 16 21  1  0
 17 18  1  0
 18 19  1  0
 19 20  1  0
 20 21  2  0
 21 22  1  0
M  END
