
     RDKit          3D

 22 23  0  0  0  0  0  0  0  0999 V2000
   -0.3890   -1.5520    1.6950 O   0  0  0  0  0  0  0  0  0  0  0  0
   -0.3130   -0.6490    0.8360 C   0  0  0  0  0  0  0  0  0  0  0  0
    0.9220   -0.0630    0.6090 O   0  0  0  0  0  0  0  0  0  0  0  0
    2.0580   -0.4620    1.3150 C   0  0  0  0  0  0  0  0  0  0  0  0
    3.2600    0.3430    0.8670 C   0  0  1  0  0  0  0  0  0  0  0  0
    3.0480    1.6980    1.0940 O   0  0  0  0  0  0  0  0  0  0  0  0
    4.4610   -0.1540    1.6330 C   0  0  0  0  0  0  0  0  0  0  0  0
    5.2910   -0.8780    0.6040 C   0  0  0  0  0  0  0  0  0  0  0  0
    4.4710   -1.0500   -0.5100 O   0  0  0  0  0  0  0  0  0  0  0  0
    3.6260    0.0350   -0.5600 C   0  0  0  0  0  0  0  0  0  0  0  0
   -1.4600   -0.1490    0.0290 C   0  0  2  0  0  0  0  0  0  0  0  0
   -1.6040    1.3150    0.3440 C   0  0  2  0  0  0  0  0  0  0  0  0
   -1.8480    1.4390    1.7110 O   0  0  0  0  0  0  0  0  0  0  0  0
   -2.6830    2.0020   -0.4370 C   0  0  0  0  0  0  0  0  0  0  0  0
   -2.7000    3.4650   -0.0050 C   0  0  0  0  0  0  0  0  0  0  0  0
   -3.6830    4.1860   -0.6880 O   0  0  0  0  0  0  0  0  0  0  0  0
   -2.6720   -0.9210    0.4580 C   0  0  0  0  0  0  0  0  0  0  0  0
   -2.5720   -2.3810    0.1840 C   0  0  0  0  0  0  0  0  0  0  0  0
   -1.9400   -2.7650   -1.1080 C   0  0  0  0  0  0  0  0  0  0  0  0
   -0.7740   -1.8990   -1.5070 C   0  0  0  0  0  0  0  0  0  0  0  0
   -1.1100   -0.4220   -1.4030 C   0  0  1  0  0  0  0  0  0  0  0  0
   -2.1370   -0.1720   -2.2910 O   0  0  0  0  0  0  0  0  0  0  0  0
  1  2  2  0
  2  3  1  0
 11  2  1  1
  3  4  1  0
  4  5  1  0
  5  6  1  6
  5  7  1  0
  5 10  1  0
  7  8  1  0
  8  9  1  0
  9 10  1  0
 11 12  1  0
 11 17  1  0
 11 21  1  0
 12 13  1  1
 12 14  1  0
 14 15  1  0
 15 16  1  0
 17 18  1  0
 18 19  1  0
 19 20  1  0
 20 21  1  0
 21 22  1  6
M  END
