
     RDKit          3D

 17 18  0  0  0  0  0  0  0  0999 V2000
   -2.1800    1.1750   -1.5820 C   0  0  0  0  0  0  0  0  0  0  0  0
   -2.6180    0.6100   -0.2930 C   0  0  0  0  0  0  0  0  0  0  0  0
   -3.9400    0.6840    0.1310 C   0  0  0  0  0  0  0  0  0  0  0  0
   -4.3700    0.1370    1.3150 C   0  0  0  0  0  0  0  0  0  0  0  0
   -5.6540    0.1890    1.7560 F   0  0  0  0  0  0  0  0  0  0  0  0
   -3.4680   -0.5100    2.1220 C   0  0  0  0  0  0  0  0  0  0  0  0
   -2.1600   -0.5890    1.7130 C   0  0  0  0  0  0  0  0  0  0  0  0
   -1.7220   -0.0330    0.5080 C   0  0  0  0  0  0  0  0  0  0  0  0
   -0.2900   -0.1680    0.2220 C   0  0  0  0  0  0  0  0  0  0  0  0
    0.5090    0.9140   -0.0450 C   0  0  0  0  0  0  0  0  0  0  0  0
    1.8740    0.7520   -0.2820 C   0  0  0  0  0  0  0  0  0  0  0  0
    2.4640   -0.4970   -0.2570 C   0  0  0  0  0  0  0  0  0  0  0  0
    3.8950   -0.6960   -0.4940 C   0  0  0  0  0  0  0  0  0  0  0  0
    4.7100    0.4040   -0.0800 N   0  0  0  0  0  0  0  0  0  0  0  0
    1.6580   -1.5700    0.0100 C   0  0  0  0  0  0  0  0  0  0  0  0
    0.2850   -1.4240    0.2520 C   0  0  0  0  0  0  0  0  0  0  0  0
   -0.7290   -2.8080    0.5900 Cl  0  0  0  0  0  0  0  0  0  0  0  0
  1  2  1  0
  2  3  2  0
  2  8  1  0
  3  4  1  0
  4  5  1  0
  4  6  2  0
  6  7  1  0
  7  8  2  0
  8  9  1  0
  9 10  2  0
  9 16  1  0
 10 11  1  0
 11 12  2  0
 12 13  1  0
 12 15  1  0
 13 14  1  0
 15 16  2  0
 16 17  1  0
M  CHG  1  14   1
M  END
