
     RDKit          3D

 22 23  0  0  0  0  0  0  0  0999 V2000
   -0.9230   -1.1880   -1.3960 C   0  0  0  0  0  0  0  0  0  0  0  0
   -0.9430   -0.3680   -0.1290 C   0  0  1  0  0  0  0  0  0  0  0  0
   -0.3140   -1.1280    1.0180 C   0  0  0  0  0  0  0  0  0  0  0  0
    0.7770   -2.0340    0.5680 C   0  0  0  0  0  0  0  0  0  0  0  0
    2.0310   -1.8790    1.3350 C   0  0  0  0  0  0  0  0  0  0  0  0
    1.9470   -1.6310    2.5570 O   0  0  0  0  0  0  0  0  0  0  0  0
    3.2590   -1.9990    0.7470 O   0  0  0  0  0  0  0  0  0  0  0  0
    3.7680   -1.4090   -0.3690 C   0  0  0  0  0  0  0  0  0  0  0  0
    3.8510   -0.1090   -0.6050 C   0  0  0  0  0  0  0  0  0  0  0  0
    3.3950    0.9480    0.3280 C   0  0  0  0  0  0  0  0  0  0  0  0
    2.9280    2.1020   -0.3350 O   0  0  0  0  0  0  0  0  0  0  0  0
    1.7080    2.1770   -0.9840 C   0  0  0  0  0  0  0  0  0  0  0  0
    1.2690    3.2950   -1.3540 O   0  0  0  0  0  0  0  0  0  0  0  0
    0.8500    0.9960   -1.2870 C   0  0  0  0  0  0  0  0  0  0  0  0
   -0.2440    0.9570   -0.2870 C   0  0  2  0  0  0  0  0  0  0  0  0
    0.1070    1.4510    0.9690 O   0  0  0  0  0  0  0  0  0  0  0  0
   -1.3460    1.9120   -0.7860 C   0  0  0  0  0  0  0  0  0  0  0  0
   -2.4490    1.4990    0.1610 C   0  0  0  0  0  0  0  0  0  0  0  0
   -2.3740    0.0110    0.1340 C   0  0  1  0  0  0  0  0  0  0  0  0
   -3.2270   -0.4180   -0.9140 O   0  0  0  0  0  0  0  0  0  0  0  0
   -2.9520   -0.6250    1.3790 C   0  0  0  0  0  0  0  0  0  0  0  0
   -4.2760   -0.1260    1.4640 O   0  0  0  0  0  0  0  0  0  0  0  0
  2  1  1  6
  2  3  1  0
  2 15  1  0
  2 19  1  0
  3  4  1  0
  4  5  1  0
  5  6  2  0
  5  7  1  0
  7  8  1  0
  8  9  2  0
  9 10  1  0
 10 11  1  0
 11 12  1  0
 12 13  2  0
 12 14  1  0
 14 15  1  0
 15 16  1  1
 15 17  1  0
 17 18  1  0
 18 19  1  0
 19 20  1  6
 19 21  1  0
 21 22  1  0
M  END
