
     RDKit          3D

 21 22  0  0  0  0  0  0  0  0999 V2000
   -2.9030    1.4840   -0.5030 C   0  0  0  0  0  0  0  0  0  0  0  0
   -2.2870    0.1990   -0.0460 C   0  0  2  0  0  0  0  0  0  0  0  0
   -3.2880   -0.6380    0.6660 C   0  0  0  0  0  0  0  0  0  0  0  0
   -4.5040   -1.0100   -0.1460 C   0  0  0  0  0  0  0  0  0  0  0  0
   -4.1610   -1.7300   -1.2910 O   0  0  0  0  0  0  0  0  0  0  0  0
   -1.0120    0.2280    0.6560 C   0  0  1  0  0  0  0  0  0  0  0  0
   -0.9860    0.9860    1.8530 O   0  0  0  0  0  0  0  0  0  0  0  0
   -0.7460   -1.1790    1.1720 C   0  0  0  0  0  0  0  0  0  0  0  0
   -0.7910   -2.1580    0.1870 O   0  0  0  0  0  0  0  0  0  0  0  0
    0.2150    0.7380   -0.1060 C   0  0  1  0  0  0  0  0  0  0  0  0
    0.0280    2.2080   -0.4980 C   0  0  0  0  0  0  0  0  0  0  0  0
   -0.0950    3.0590    0.5840 O   0  0  0  0  0  0  0  0  0  0  0  0
    1.4280    0.7880    0.7790 C   0  0  0  0  0  0  0  0  0  0  0  0
    2.7180    0.3800    0.1280 C   0  0  1  0  0  0  0  0  0  0  0  0
    3.4770    1.5690   -0.4420 C   0  0  0  0  0  0  0  0  0  0  0  0
    3.5530   -0.1490    1.1210 O   0  0  0  0  0  0  0  0  0  0  0  0
    4.0480   -1.3500    0.7060 C   0  0  0  0  0  0  0  0  0  0  0  0
    2.9640   -1.9110   -0.1910 C   0  0  0  0  0  0  0  0  0  0  0  0
    2.6050   -0.6250   -0.9510 C   0  0  1  0  0  0  0  0  0  0  0  0
    1.3000   -0.7080   -1.6480 C   0  0  0  0  0  0  0  0  0  0  0  0
    0.2910    0.0640   -1.2590 O   0  0  0  0  0  0  0  0  0  0  0  0
  2  1  1  1
  2  3  1  0
  2  6  1  0
  3  4  1  0
  4  5  1  0
  6  7  1  1
  6  8  1  0
  6 10  1  0
  8  9  1  0
 10 11  1  6
 10 13  1  0
 10 21  1  0
 11 12  1  0
 13 14  1  0
 14 15  1  6
 14 16  1  0
 14 19  1  0
 16 17  1  0
 17 18  1  0
 19 18  1  1
 19 20  1  0
 20 21  1  0
M  END
