
     RDKit          3D

 22 23  0  0  0  0  0  0  0  0999 V2000
   -4.6610    1.5080    0.5630 C   0  0  0  0  0  0  0  0  0  0  0  0
   -3.6110    1.3630   -0.2200 C   0  0  0  0  0  0  0  0  0  0  0  0
   -2.6690    2.3750   -0.2570 O   0  0  0  0  0  0  0  0  0  0  0  0
   -3.4100    0.1580   -1.0570 C   0  0  0  0  0  0  0  0  0  0  0  0
   -2.1900   -0.5090   -0.7110 O   0  0  0  0  0  0  0  0  0  0  0  0
   -1.9850   -0.9960    0.5720 C   0  0  0  0  0  0  0  0  0  0  0  0
   -2.9210   -0.8150    1.3920 O   0  0  0  0  0  0  0  0  0  0  0  0
   -0.7570   -1.6870    0.9820 C   0  0  1  0  0  0  0  0  0  0  0  0
   -0.5850   -2.9050    0.1350 C   0  0  0  0  0  0  0  0  0  0  0  0
    0.8150   -3.0410   -0.4210 C   0  0  0  0  0  0  0  0  0  0  0  0
    1.1530   -1.7200   -1.0460 C   0  0  0  0  0  0  0  0  0  0  0  0
    1.3690   -0.7600    0.0770 C   0  0  0  0  0  0  0  0  0  0  0  0
    0.4300   -0.7930    1.0030 C   0  0  0  0  0  0  0  0  0  0  0  0
    0.5120    0.1200    2.1440 C   0  0  0  0  0  0  0  0  0  0  0  0
   -0.3080    0.1710    3.0640 O   0  0  0  0  0  0  0  0  0  0  0  0
    1.6190    1.0000    2.1750 O   0  0  0  0  0  0  0  0  0  0  0  0
    2.1580    1.3980    0.8950 C   0  0  1  0  0  0  0  0  0  0  0  0
    1.1170    2.2250    0.2220 C   0  0  0  0  0  0  0  0  0  0  0  0
    3.3310    2.1210    1.1620 O   0  0  0  0  0  0  0  0  0  0  0  0
    2.5160    0.1300    0.1770 C   0  0  2  0  0  0  0  0  0  0  0  0
    3.1370    0.4770   -1.1510 C   0  0  0  0  0  0  0  0  0  0  0  0
    4.2160    1.3310   -0.8830 O   0  0  0  0  0  0  0  0  0  0  0  0
  1  2  2  0
  2  3  1  0
  2  4  1  0
  4  5  1  0
  5  6  1  0
  6  7  2  0
  8  6  1  6
  8  9  1  0
  8 13  1  0
  9 10  1  0
 10 11  1  0
 11 12  1  0
 12 13  2  0
 12 20  1  0
 13 14  1  0
 14 15  2  0
 14 16  1  0
 16 17  1  0
 17 18  1  6
 17 19  1  0
 17 20  1  0
 20 21  1  6
 21 22  1  0
M  END
