
     RDKit          3D

 24 27  0  0  0  0  0  0  0  0999 V2000
    1.5360    0.8330    1.2050 O   0  0  0  0  0  0  0  0  0  0  0  0
    1.9280    0.2990    0.1600 C   0  0  0  0  0  0  0  0  0  0  0  0
    1.0030   -0.2670   -0.7220 N   0  0  0  0  0  0  0  0  0  0  0  0
   -0.3980   -0.3360   -0.6140 C   0  0  0  0  0  0  0  0  0  0  0  0
   -1.1520   -0.8870   -1.6340 C   0  0  0  0  0  0  0  0  0  0  0  0
   -2.5180   -0.9690   -1.5500 C   0  0  0  0  0  0  0  0  0  0  0  0
   -3.2080   -0.5150   -0.4630 C   0  0  0  0  0  0  0  0  0  0  0  0
   -4.7070   -0.6160   -0.3940 C   0  0  0  0  0  0  0  0  0  0  0  0
   -5.3610   -1.1910   -1.4840 C   0  0  0  0  0  0  0  0  0  0  0  0
   -7.0950   -1.0840   -0.9320 S   0  0  0  0  0  0  0  0  0  0  0  0
   -6.7370   -0.3180    0.6170 C   0  0  0  0  0  0  0  0  0  0  0  0
   -7.2960    0.1760    1.7630 N   0  0  0  0  0  0  0  0  0  0  0  0
   -6.2780    0.6170    2.5020 C   0  0  0  0  0  0  0  0  0  0  0  0
   -5.1630    0.3980    1.8320 N   0  0  0  0  0  0  0  0  0  0  0  0
   -5.4210   -0.2010    0.6170 N   0  0  0  0  0  0  0  0  0  0  0  0
   -2.4580    0.0300    0.5470 C   0  0  0  0  0  0  0  0  0  0  0  0
   -1.0720    0.1190    0.4720 C   0  0  0  0  0  0  0  0  0  0  0  0
    3.3630    0.2890   -0.0960 C   0  0  0  0  0  0  0  0  0  0  0  0
    4.1050   -0.2150   -1.1410 C   0  0  0  0  0  0  0  0  0  0  0  0
    5.4160   -0.0950   -1.1390 C   0  0  0  0  0  0  0  0  0  0  0  0
    6.0880    0.5350   -0.0980 C   0  0  0  0  0  0  0  0  0  0  0  0
    7.4280    0.8340    0.2310 C   0  0  0  0  0  0  0  0  0  0  0  0
    7.8370    2.0360   -0.2930 O   0  0  0  0  0  0  0  0  0  0  0  0
    4.6160    0.9800    0.9620 S   0  0  0  0  0  0  0  0  0  0  0  0
  1  2  2  0
  2  3  1  0
  2 18  1  0
  3  4  1  0
  4  5  2  0
  4 17  1  0
  5  6  1  0
  6  7  2  0
  7  8  1  0
  7 16  1  0
  8  9  2  0
  8 15  1  0
  9 10  1  0
 10 11  1  0
 11 12  2  0
 11 15  1  0
 12 13  1  0
 13 14  2  0
 14 15  1  0
 16 17  2  0
 18 19  2  0
 18 24  1  0
 19 20  1  0
 20 21  2  0
 21 22  1  0
 21 24  1  0
 22 23  1  0
M  END
