
     RDKit          3D

 24 27  0  0  0  0  0  0  0  0999 V2000
   -5.1090   -2.6270    0.5830 C   0  0  0  0  0  0  0  0  0  0  0  0
   -4.2770   -1.3770    0.3670 C   0  0  0  0  0  0  0  0  0  0  0  0
   -2.9860   -1.3960    0.3500 N   0  0  0  0  0  0  0  0  0  0  0  0
   -2.2170   -0.4770    0.1880 C   0  0  0  0  0  0  0  0  0  0  0  0
   -0.8050   -0.1760    0.1170 C   0  0  0  0  0  0  0  0  0  0  0  0
    0.0780   -1.1980    0.2690 C   0  0  0  0  0  0  0  0  0  0  0  0
    1.4110   -0.9970    0.2160 C   0  0  0  0  0  0  0  0  0  0  0  0
    2.0020    0.2750   -0.0000 C   0  0  0  0  0  0  0  0  0  0  0  0
    1.0820    1.2650   -0.1470 C   0  0  0  0  0  0  0  0  0  0  0  0
   -0.3040    1.0890   -0.0960 C   0  0  0  0  0  0  0  0  0  0  0  0
    2.0860    2.7230   -0.3990 S   0  0  0  0  0  0  0  0  0  0  0  0
    3.6340    1.9100   -0.2920 C   0  0  0  0  0  0  0  0  0  0  0  0
    4.8980    2.3880   -0.3890 N   0  0  0  0  0  0  0  0  0  0  0  0
    5.9460    1.5670   -0.2720 C   0  0  0  0  0  0  0  0  0  0  0  0
    7.1360    1.9960   -0.3600 O   0  0  0  0  0  0  0  0  0  0  0  0
    5.6650    0.2780   -0.0580 N   0  0  0  0  0  0  0  0  0  0  0  0
    6.8040   -0.6250    0.0710 C   0  0  0  0  0  0  0  0  0  0  0  0
    4.4380   -0.2370    0.0450 C   0  0  0  0  0  0  0  0  0  0  0  0
    4.3100   -1.4760    0.2480 O   0  0  0  0  0  0  0  0  0  0  0  0
    3.3090    0.6110   -0.0760 C   0  0  0  0  0  0  0  0  0  0  0  0
   -3.4560    0.9380   -0.0220 S   0  0  0  0  0  0  0  0  0  0  0  0
   -4.8690   -0.1460    0.1760 C   0  0  0  0  0  0  0  0  0  0  0  0
   -6.3150    0.2520    0.1340 C   0  0  0  0  0  0  0  0  0  0  0  0
   -6.3820    1.6690   -0.0950 N   0  0  0  0  0  0  0  0  0  0  0  0
  1  2  1  0
  2  3  1  0
  2 22  2  0
  3  4  2  0
  4  5  1  0
  4 21  1  0
  5  6  2  0
  5 10  1  0
  6  7  1  0
  7  8  2  0
  8  9  1  0
  8 20  1  0
  9 10  2  0
  9 11  1  0
 11 12  1  0
 12 13  1  0
 12 20  2  0
 13 14  1  0
 14 15  2  0
 14 16  1  0
 16 17  1  0
 16 18  1  0
 18 19  2  0
 18 20  1  0
 21 22  1  0
 22 23  1  0
 23 24  1  0
M  END
