
     RDKit          3D

 24 27  0  0  0  0  0  0  0  0999 V2000
    1.8470   -1.8230   -1.3590 O   0  0  0  0  0  0  0  0  0  0  0  0
    1.2890   -1.2830   -0.3540 C   0  0  0  0  0  0  0  0  0  0  0  0
   -0.1170   -1.5430   -0.0730 C   0  0  0  0  0  0  0  0  0  0  0  0
   -0.7370   -0.4220    1.2130 S   0  0  0  0  0  0  0  0  0  0  0  0
   -2.3320    0.1710    0.5720 C   0  0  0  0  0  0  0  0  0  0  0  0
   -3.4090   -0.5010    0.7890 N   0  0  0  0  0  0  0  0  0  0  0  0
   -4.6900   -0.1090    0.3160 C   0  0  0  0  0  0  0  0  0  0  0  0
   -5.7930   -0.7780    0.5890 C   0  0  0  0  0  0  0  0  0  0  0  0
   -7.1310   -0.3670    0.0920 C   0  0  0  0  0  0  0  0  0  0  0  0
   -7.0800    0.8590   -0.6020 O   0  0  0  0  0  0  0  0  0  0  0  0
   -5.9400    1.5580   -0.8970 N   0  0  0  0  0  0  0  0  0  0  0  0
   -4.7880    1.1010   -0.4600 C   0  0  0  0  0  0  0  0  0  0  0  0
   -3.5840    1.8430   -0.8220 C   0  0  0  0  0  0  0  0  0  0  0  0
   -2.3350    1.4560   -0.1110 C   0  0  0  0  0  0  0  0  0  0  0  0
    2.0450   -0.4370    0.4930 N   0  0  0  0  0  0  0  0  0  0  0  0
    3.4100   -0.2260    0.2060 C   0  0  0  0  0  0  0  0  0  0  0  0
    3.9630    0.0800   -1.0080 C   0  0  0  0  0  0  0  0  0  0  0  0
    5.3090    0.2120   -1.2620 C   0  0  0  0  0  0  0  0  0  0  0  0
    6.2170    0.0170   -0.1970 C   0  0  0  0  0  0  0  0  0  0  0  0
    7.5170    0.0780   -0.2050 N   0  0  0  0  0  0  0  0  0  0  0  0
    8.3060   -0.0740    0.6100 C   0  0  0  0  0  0  0  0  0  0  0  0
    7.1120   -0.4650    2.0700 S   0  0  0  0  0  0  0  0  0  0  0  0
    5.6410   -0.2870    1.0020 C   0  0  0  0  0  0  0  0  0  0  0  0
    4.2980   -0.4200    1.2720 C   0  0  0  0  0  0  0  0  0  0  0  0
  1  2  2  0
  2  3  1  0
  2 15  1  0
  3  4  1  0
  4  5  1  0
  5  6  2  0
  5 14  1  0
  6  7  1  0
  7  8  2  0
  7 12  1  0
  8  9  1  0
  9 10  1  0
 10 11  1  0
 11 12  2  0
 12 13  1  0
 13 14  1  0
 15 16  1  0
 16 17  2  0
 16 24  1  0
 17 18  1  0
 18 19  2  0
 19 20  1  0
 19 23  1  0
 20 21  2  0
 21 22  1  0
 22 23  1  0
 23 24  2  0
M  END
