
     RDKit          3D

 24 27  0  0  0  0  0  0  0  0999 V2000
    1.0430   -0.5420    2.4880 O   0  0  0  0  0  0  0  0  0  0  0  0
    1.4690   -0.6850    0.9960 S   0  0  1  0  0  0  0  0  0  0  0  0
    0.7810   -1.9490    0.4900 O   0  0  0  0  0  0  0  0  0  0  0  0
    0.5770    0.7620    0.3720 N   0  0  0  0  0  0  0  0  0  0  0  0
   -0.2900    0.0960   -0.4790 C   0  0  0  0  0  0  0  0  0  0  0  0
   -1.6490    0.8710   -0.6670 C   0  0  0  0  0  0  0  0  0  0  0  0
   -2.6200    1.2720   -0.6830 N   0  0  0  0  0  0  0  0  0  0  0  0
   -3.7810    1.3510   -0.2200 C   0  0  0  0  0  0  0  0  0  0  0  0
   -3.9530    0.5140    0.9420 C   0  0  0  0  0  0  0  0  0  0  0  0
   -2.3530   -0.2040    1.1260 S   0  0  0  0  0  0  0  0  0  0  0  0
   -5.1600    0.0060    1.5940 C   0  0  0  0  0  0  0  0  0  0  0  0
   -6.0710   -0.5200    0.5360 C   0  0  0  0  0  0  0  0  0  0  0  0
   -6.4830    0.0130   -0.5360 C   0  0  0  0  0  0  0  0  0  0  0  0
   -6.1330    1.3330   -1.0590 C   0  0  0  0  0  0  0  0  0  0  0  0
   -4.9510    1.9030   -0.9210 C   0  0  0  0  0  0  0  0  0  0  0  0
    3.0510   -0.7150    0.8150 C   0  0  0  0  0  0  0  0  0  0  0  0
    3.8630   -0.0080    1.7860 C   0  0  0  0  0  0  0  0  0  0  0  0
    5.1970    0.0960    1.5570 C   0  0  0  0  0  0  0  0  0  0  0  0
    5.7920   -0.4360    0.3970 C   0  0  0  0  0  0  0  0  0  0  0  0
    6.9840   -0.3220   -0.0990 N   0  0  0  0  0  0  0  0  0  0  0  0
    6.9660   -0.8760   -1.2900 C   0  0  0  0  0  0  0  0  0  0  0  0
    5.8100   -1.3870   -1.5910 N   0  0  0  0  0  0  0  0  0  0  0  0
    4.9860   -1.1150   -0.5130 C   0  0  0  0  0  0  0  0  0  0  0  0
    3.6580   -1.2550   -0.2880 C   0  0  0  0  0  0  0  0  0  0  0  0
  1  2  2  0
  2  3  2  0
  2  4  1  6
  2 16  1  0
  4  5  1  0
  5  6  1  0
  6  7  2  0
  6 10  1  0
  7  8  1  0
  8  9  2  0
  8 15  1  0
  9 10  1  0
  9 11  1  0
 11 12  1  0
 12 13  2  0
 13 14  1  0
 14 15  2  0
 16 17  2  0
 16 24  1  0
 17 18  1  0
 18 19  2  0
 19 20  1  0
 19 23  1  0
 20 21  1  0
 21 22  2  0
 22 23  1  0
 23 24  2  0
M  END
