
     RDKit          3D

 24 27  0  0  0  0  0  0  0  0999 V2000
    0.3460   -1.3400    3.3390 O   0  0  0  0  0  0  0  0  0  0  0  0
    1.1830   -1.2770    2.0770 S   0  0  2  0  0  0  0  0  0  0  0  0
    1.9700   -2.5540    2.0410 O   0  0  0  0  0  0  0  0  0  0  0  0
    2.2510    0.0440    2.1160 N   0  0  0  0  0  0  0  0  0  0  0  0
    3.1800    0.2700    1.0770 C   0  0  0  0  0  0  0  0  0  0  0  0
    3.9560   -0.7190    0.5250 C   0  0  0  0  0  0  0  0  0  0  0  0
    4.8450   -0.4780   -0.4760 N   0  0  0  0  0  0  0  0  0  0  0  0
    5.0150    0.7450   -0.9830 C   0  0  0  0  0  0  0  0  0  0  0  0
    4.2530    1.7570   -0.4520 C   0  0  0  0  0  0  0  0  0  0  0  0
    4.4640    3.4120   -1.1180 S   0  0  0  0  0  0  0  0  0  0  0  0
    3.3430    1.5600    0.5590 C   0  0  0  0  0  0  0  0  0  0  0  0
    0.1000   -1.2600    0.7340 C   0  0  0  0  0  0  0  0  0  0  0  0
    0.3540   -1.8390   -0.4910 C   0  0  0  0  0  0  0  0  0  0  0  0
   -0.5690   -1.7800   -1.5180 C   0  0  0  0  0  0  0  0  0  0  0  0
   -1.7880   -1.1330   -1.3470 C   0  0  0  0  0  0  0  0  0  0  0  0
   -2.8460   -0.9100   -2.1100 N   0  0  0  0  0  0  0  0  0  0  0  0
   -3.8110   -0.2070   -1.4630 C   0  0  0  0  0  0  0  0  0  0  0  0
   -5.0260    0.2440   -1.8130 N   0  0  0  0  0  0  0  0  0  0  0  0
   -5.7760    0.9300   -0.9380 C   0  0  0  0  0  0  0  0  0  0  0  0
   -5.3050    1.1800    0.3340 C   0  0  0  0  0  0  0  0  0  0  0  0
   -4.0670    0.7300    0.7180 C   0  0  0  0  0  0  0  0  0  0  0  0
   -3.3100    0.0290   -0.1900 C   0  0  0  0  0  0  0  0  0  0  0  0
   -2.0430   -0.5550   -0.1280 C   0  0  0  0  0  0  0  0  0  0  0  0
   -1.1210   -0.6230    0.8730 C   0  0  0  0  0  0  0  0  0  0  0  0
  1  2  2  0
  2  3  2  0
  2  4  1  1
  2 12  1  0
  4  5  1  0
  5  6  2  0
  5 11  1  0
  6  7  1  0
  7  8  2  0
  8  9  1  0
  9 10  1  0
  9 11  2  0
 12 13  2  0
 12 24  1  0
 13 14  1  0
 14 15  2  0
 15 16  1  0
 15 23  1  0
 16 17  1  0
 17 18  2  0
 17 22  1  0
 18 19  1  0
 19 20  2  0
 20 21  1  0
 21 22  2  0
 22 23  1  0
 23 24  2  0
M  END
