
     RDKit          3D

 24 27  0  0  0  0  0  0  0  0999 V2000
    7.6280    1.8700   -0.0550 O   0  0  0  0  0  0  0  0  0  0  0  0
    6.6730    1.8880   -1.1910 S   0  0  1  0  0  0  0  0  0  0  0  0
    7.3260    1.2280   -2.3730 O   0  0  0  0  0  0  0  0  0  0  0  0
    5.1470    1.1290   -0.7880 C   0  0  0  0  0  0  0  0  0  0  0  0
    5.1130   -0.1480   -0.2590 C   0  0  0  0  0  0  0  0  0  0  0  0
    3.9040   -0.7610    0.0650 C   0  0  0  0  0  0  0  0  0  0  0  0
    2.7010   -0.1240   -0.1280 C   0  0  0  0  0  0  0  0  0  0  0  0
    1.4440   -0.7730    0.2130 C   0  0  0  0  0  0  0  0  0  0  0  0
    1.3630   -2.0100    0.7290 N   0  0  0  0  0  0  0  0  0  0  0  0
    0.0980   -2.3450    0.9410 N   0  0  0  0  0  0  0  0  0  0  0  0
   -0.6350   -1.3000    0.5520 C   0  0  0  0  0  0  0  0  0  0  0  0
   -2.1240   -1.2610    0.6230 C   0  0  0  0  0  0  0  0  0  0  0  0
   -2.7070   -0.1780    0.2090 C   0  0  0  0  0  0  0  0  0  0  0  0
   -4.1150    0.1270    0.1650 C   0  0  0  0  0  0  0  0  0  0  0  0
   -4.5080    1.3660   -0.3240 C   0  0  0  0  0  0  0  0  0  0  0  0
   -5.8400    1.6750   -0.3740 C   0  0  0  0  0  0  0  0  0  0  0  0
   -6.7570    0.7510    0.0610 C   0  0  0  0  0  0  0  0  0  0  0  0
   -6.3910   -0.4420    0.5330 N   0  0  0  0  0  0  0  0  0  0  0  0
   -5.0750   -0.7610    0.5880 C   0  0  0  0  0  0  0  0  0  0  0  0
   -4.5570   -2.3450    1.2120 S   0  0  0  0  0  0  0  0  0  0  0  0
   -2.7850   -2.4670    1.1590 C   0  0  0  0  0  0  0  0  0  0  0  0
    0.1940   -0.3290    0.1020 N   0  0  0  0  0  0  0  0  0  0  0  0
    2.7470    1.1660   -0.6640 C   0  0  0  0  0  0  0  0  0  0  0  0
    3.9440    1.7660   -0.9820 C   0  0  0  0  0  0  0  0  0  0  0  0
  1  2  2  0
  2  3  2  0
  2  4  1  1
  4  5  2  0
  4 24  1  0
  5  6  1  0
  6  7  2  0
  7  8  1  0
  7 23  1  0
  8  9  2  0
  8 22  1  0
  9 10  1  0
 10 11  1  0
 11 12  1  0
 11 22  2  0
 12 13  2  0
 12 21  1  0
 13 14  1  0
 14 15  2  0
 14 19  1  0
 15 16  1  0
 16 17  2  0
 17 18  1  0
 18 19  2  0
 19 20  1  0
 20 21  1  0
 23 24  2  0
M  END
