
     RDKit          3D

 24 27  0  0  0  0  0  0  0  0999 V2000
    2.8040    0.5210   -1.9460 O   0  0  0  0  0  0  0  0  0  0  0  0
    1.7380    0.0790   -1.4380 C   0  0  0  0  0  0  0  0  0  0  0  0
    1.7330   -1.2730   -1.0320 N   0  0  0  0  0  0  0  0  0  0  0  0
    2.8580   -2.1400   -1.1700 C   0  0  0  0  0  0  0  0  0  0  0  0
    4.0270   -1.6420   -0.4280 C   0  0  0  0  0  0  0  0  0  0  0  0
    5.2930   -2.1740   -0.3080 C   0  0  0  0  0  0  0  0  0  0  0  0
    6.1640   -1.5090    0.4320 C   0  0  0  0  0  0  0  0  0  0  0  0
    5.8160   -0.3500    1.0460 C   0  0  0  0  0  0  0  0  0  0  0  0
    6.6690    0.8090    2.0950 S   0  0  0  0  0  0  0  0  0  0  0  0
    4.0550   -0.1830    0.5130 S   0  0  0  0  0  0  0  0  0  0  0  0
    0.5760    0.9560   -1.2890 C   0  0  0  0  0  0  0  0  0  0  0  0
    0.5220    2.2440   -1.6550 N   0  0  0  0  0  0  0  0  0  0  0  0
   -0.6970    2.6870   -1.3570 N   0  0  0  0  0  0  0  0  0  0  0  0
   -1.3940    1.6750   -0.8090 C   0  0  0  0  0  0  0  0  0  0  0  0
   -2.7860    1.7490   -0.3390 C   0  0  0  0  0  0  0  0  0  0  0  0
   -3.5940    2.8640   -0.3870 C   0  0  0  0  0  0  0  0  0  0  0  0
   -4.8080    2.5640    0.1310 N   0  0  0  0  0  0  0  0  0  0  0  0
   -4.7800    1.2690    0.5090 C   0  0  0  0  0  0  0  0  0  0  0  0
   -5.7660    0.4840    1.0920 C   0  0  0  0  0  0  0  0  0  0  0  0
   -5.4590   -0.8290    1.3760 C   0  0  0  0  0  0  0  0  0  0  0  0
   -4.2270   -1.3840    1.1070 C   0  0  0  0  0  0  0  0  0  0  0  0
   -3.2720   -0.5660    0.5250 C   0  0  0  0  0  0  0  0  0  0  0  0
   -3.5390    0.7470    0.2270 C   0  0  0  0  0  0  0  0  0  0  0  0
   -0.5820    0.6610   -0.7920 O   0  0  0  0  0  0  0  0  0  0  0  0
  1  2  2  0
  2  3  1  0
  2 11  1  0
  3  4  1  0
  4  5  1  0
  5  6  2  0
  5 10  1  0
  6  7  1  0
  7  8  2  0
  8  9  1  0
  8 10  1  0
 11 12  2  0
 11 24  1  0
 12 13  1  0
 13 14  2  0
 14 15  1  0
 14 24  1  0
 15 16  2  0
 15 23  1  0
 16 17  1  0
 17 18  1  0
 18 19  2  0
 18 23  1  0
 19 20  1  0
 20 21  2  0
 21 22  1  0
 22 23  2  0
M  END
