
     RDKit          3D

 13 13  0  0  0  0  0  0  0  0999 V2000
   -4.4300    0.8400   -0.1490 C   0  0  0  0  0  0  0  0  0  0  0  0
   -4.4460   -0.6210   -0.5220 C   0  0  0  0  0  0  0  0  0  0  0  0
   -3.5600   -1.5710    0.7120 S   0  0  0  0  0  0  0  0  0  0  0  0
   -1.7990   -0.9960    0.5420 C   0  0  0  0  0  0  0  0  0  0  0  0
   -1.2030   -0.1750   -0.1820 N   0  0  0  0  0  0  0  0  0  0  0  0
    0.0750   -0.0210   -0.0280 N   0  0  0  0  0  0  0  0  0  0  0  0
    0.7960   -0.5490    0.7110 C   0  0  0  0  0  0  0  0  0  0  0  0
    2.1520   -0.6960    1.2040 N   0  0  0  0  0  0  0  0  0  0  0  0
    3.1600    0.1020    0.6070 C   0  0  0  0  0  0  0  0  0  0  0  0
    2.8270    0.8900   -0.3110 O   0  0  0  0  0  0  0  0  0  0  0  0
    4.4810    0.0170    1.0260 O   0  0  0  0  0  0  0  0  0  0  0  0
    5.4930    0.8060    0.4410 C   0  0  0  0  0  0  0  0  0  0  0  0
   -0.4610   -1.6760    1.5960 S   0  0  0  0  0  0  0  0  0  0  0  0
  1  2  1  0
  2  3  1  0
  3  4  1  0
  4  5  2  0
  4 13  1  0
  5  6  1  0
  6  7  2  0
  7  8  1  0
  7 13  1  0
  8  9  1  0
  9 10  2  0
  9 11  1  0
 11 12  1  0
M  END
