
     RDKit          3D

 16 17  0  0  0  0  0  0  0  0999 V2000
   -3.0310    2.3300   -0.8100 C   0  0  0  0  0  0  0  0  0  0  0  0
   -2.2100    1.1320   -0.5070 C   0  0  0  0  0  0  0  0  0  0  0  0
   -0.8330    1.1810   -0.4620 C   0  0  0  0  0  0  0  0  0  0  0  0
   -0.0730    0.0450   -0.1750 C   0  0  0  0  0  0  0  0  0  0  0  0
    1.3760    0.0730   -0.1290 C   0  0  0  0  0  0  0  0  0  0  0  0
    2.2020   -0.8400   -0.7500 C   0  0  0  0  0  0  0  0  0  0  0  0
    3.5680   -0.7180   -0.6350 C   0  0  0  0  0  0  0  0  0  0  0  0
    4.1500    0.2580    0.0600 N   0  0  0  0  0  0  0  0  0  0  0  0
    3.3750    1.1790    0.6870 C   0  0  0  0  0  0  0  0  0  0  0  0
    2.0180    1.0770    0.5870 C   0  0  0  0  0  0  0  0  0  0  0  0
   -0.7340   -1.1290    0.0620 C   0  0  0  0  0  0  0  0  0  0  0  0
    0.0110   -2.3650    0.3780 C   0  0  0  0  0  0  0  0  0  0  0  0
   -2.1300   -1.2250    0.0260 C   0  0  0  0  0  0  0  0  0  0  0  0
   -2.9440   -2.7450    0.3350 Cl  0  0  0  0  0  0  0  0  0  0  0  0
   -2.8370   -0.0660   -0.2640 C   0  0  0  0  0  0  0  0  0  0  0  0
   -4.2220   -0.1010   -0.3130 O   0  0  0  0  0  0  0  0  0  0  0  0
  1  2  1  0
  2  3  2  0
  2 15  1  0
  3  4  1  0
  4  5  1  0
  4 11  2  0
  5  6  2  0
  5 10  1  0
  6  7  1  0
  7  8  2  0
  8  9  1  0
  9 10  2  0
 11 12  1  0
 11 13  1  0
 13 14  1  0
 13 15  2  0
 15 16  1  0
M  CHG  1   8   1
M  END
