
     RDKit          3D

 16 17  0  0  0  0  0  0  0  0999 V2000
   -0.7190   -2.4720    0.9540 C   0  0  0  0  0  0  0  0  0  0  0  0
   -0.8990   -1.9630   -0.4480 C   0  0  0  0  0  0  0  0  0  0  0  0
   -0.8770   -0.4780   -0.5730 C   0  0  1  0  0  0  0  0  0  0  0  0
   -1.0660   -0.1860   -2.0060 N   0  0  0  0  0  0  0  0  0  0  0  0
   -2.0510    0.0740    0.2380 C   0  0  0  0  0  0  0  0  0  0  0  0
   -2.5350    1.3810   -0.3540 C   0  0  0  0  0  0  0  0  0  0  0  0
   -1.8500    2.5430    0.3400 C   0  0  0  0  0  0  0  0  0  0  0  0
   -0.4650    2.5990    0.0730 O   0  0  0  0  0  0  0  0  0  0  0  0
    0.4620    1.5670    0.1240 C   0  0  0  0  0  0  0  0  0  0  0  0
    1.7050    2.0570    0.5210 C   0  0  0  0  0  0  0  0  0  0  0  0
    2.8050    1.2350    0.6530 C   0  0  0  0  0  0  0  0  0  0  0  0
    4.3780    1.8460    1.1530 Cl  0  0  0  0  0  0  0  0  0  0  0  0
    2.6160   -0.0910    0.3730 C   0  0  0  0  0  0  0  0  0  0  0  0
    3.7720   -1.0120    0.5010 C   0  0  0  0  0  0  0  0  0  0  0  0
    1.4180   -0.6110   -0.0180 C   0  0  0  0  0  0  0  0  0  0  0  0
    0.3270    0.2100   -0.1470 C   0  0  0  0  0  0  0  0  0  0  0  0
  1  2  1  0
  2  3  1  0
  3  4  1  6
  3  5  1  0
  3 16  1  0
  5  6  1  0
  6  7  1  0
  7  8  1  0
  8  9  1  0
  9 10  2  0
  9 16  1  0
 10 11  1  0
 11 12  1  0
 11 13  2  0
 13 14  1  0
 13 15  1  0
 15 16  2  0
M  CHG  1   4   1
M  END
