
     RDKit          3D

 16 17  0  0  0  0  0  0  0  0999 V2000
   -3.6170   -1.7780   -0.7440 C   0  0  0  0  0  0  0  0  0  0  0  0
   -2.3290   -1.0770   -0.4770 C   0  0  0  0  0  0  0  0  0  0  0  0
   -1.1480   -1.7880   -0.5080 C   0  0  0  0  0  0  0  0  0  0  0  0
    0.0730   -1.1600   -0.2630 C   0  0  0  0  0  0  0  0  0  0  0  0
    0.0820    0.1910    0.0120 C   0  0  0  0  0  0  0  0  0  0  0  0
    1.2780    0.8810    0.2680 O   0  0  0  0  0  0  0  0  0  0  0  0
    2.4750    0.1490    0.2340 C   0  0  0  0  0  0  0  0  0  0  0  0
    2.8080   -0.7430    1.1460 C   0  0  0  0  0  0  0  0  0  0  0  0
    1.8290   -1.1740    2.5500 Cl  0  0  0  0  0  0  0  0  0  0  0  0
    4.1070   -1.2890    0.7770 C   0  0  0  0  0  0  0  0  0  0  0  0
    4.4870   -0.5970   -0.4680 C   0  0  0  0  0  0  0  0  0  0  0  0
    3.5180    0.2430   -0.7730 C   0  0  0  0  0  0  0  0  0  0  0  0
   -1.0820    0.9300    0.0510 C   0  0  0  0  0  0  0  0  0  0  0  0
   -1.0470    2.3960    0.3520 C   0  0  0  0  0  0  0  0  0  0  0  0
   -2.4040    2.9110    0.3270 N   0  0  0  0  0  0  0  0  0  0  0  0
   -2.2700    0.2780   -0.1960 C   0  0  0  0  0  0  0  0  0  0  0  0
  1  2  1  0
  2  3  2  0
  2 16  1  0
  3  4  1  0
  4  5  2  0
  5  6  1  0
  5 13  1  0
  6  7  1  0
  7  8  2  0
  7 12  1  0
  8  9  1  0
  8 10  1  0
 10 11  1  0
 11 12  2  0
 13 14  1  0
 13 16  2  0
 14 15  1  0
M  CHG  1  15   1
M  END
