
     RDKit          3D

 16 16  0  0  0  0  0  0  0  0999 V2000
   -4.6020    0.9770   -0.4530 C   0  0  0  0  0  0  0  0  0  0  0  0
   -3.3570    0.2020   -0.3620 C   0  0  0  0  0  0  0  0  0  0  0  0
   -2.2260    0.8220   -0.0270 C   0  0  0  0  0  0  0  0  0  0  0  0
   -2.1470    2.2040    0.2510 N   0  0  0  0  0  0  0  0  0  0  0  0
   -0.9940    0.0450    0.0620 C   0  0  0  0  0  0  0  0  0  0  0  0
    0.1610    0.6640   -0.0990 C   0  0  0  0  0  0  0  0  0  0  0  0
    0.2250    2.0200   -0.3460 O   0  0  0  0  0  0  0  0  0  0  0  0
    1.4260   -0.0660   -0.0200 C   0  0  0  0  0  0  0  0  0  0  0  0
    2.5910    0.5070   -0.1720 C   0  0  0  0  0  0  0  0  0  0  0  0
    3.8270   -0.2660   -0.0840 C   0  0  0  0  0  0  0  0  0  0  0  0
    5.0110    0.2580   -0.2290 C   0  0  0  0  0  0  0  0  0  0  0  0
    6.2120   -0.6040   -0.1230 C   0  0  0  0  0  0  0  0  0  0  0  0
    5.7810   -2.2890    0.1990 Cl  0  0  0  0  0  0  0  0  0  0  0  0
   -1.0120   -1.4200    0.3270 C   0  0  0  0  0  0  0  0  0  0  0  0
   -2.4510   -1.8620    0.5110 C   0  0  0  0  0  0  0  0  0  0  0  0
   -3.2560   -1.2560   -0.6200 C   0  0  0  0  0  0  0  0  0  0  0  0
  1  2  1  0
  2  3  2  0
  2 16  1  0
  3  4  1  0
  3  5  1  0
  5  6  2  3
  5 14  1  0
  6  7  1  0
  6  8  1  0
  8  9  2  3
  9 10  1  0
 10 11  2  3
 11 12  1  0
 12 13  1  0
 14 15  1  0
 15 16  1  0
M  END
