
     RDKit          3D

 16 17  0  0  0  0  0  0  0  0999 V2000
    0.4510    3.3890   -0.8690 C   0  0  0  0  0  0  0  0  0  0  0  0
    0.2320    1.9870   -0.4580 C   0  0  0  0  0  0  0  0  0  0  0  0
   -1.0170    1.5000   -0.1920 C   0  0  0  0  0  0  0  0  0  0  0  0
   -1.2120    0.1980    0.1880 C   0  0  0  0  0  0  0  0  0  0  0  0
   -2.5830   -0.2900    0.4670 C   0  0  2  0  0  0  0  0  0  0  0  0
   -2.6030   -1.8100    0.3810 C   0  0  0  0  0  0  0  0  0  0  0  0
   -3.4920    0.1770   -0.5890 N   0  0  0  0  0  0  0  0  0  0  0  0
   -0.0910   -0.6050    0.2930 C   0  0  0  0  0  0  0  0  0  0  0  0
    1.1790   -0.1340    0.0300 C   0  0  0  0  0  0  0  0  0  0  0  0
    2.3490   -1.0060    0.1480 C   0  0  0  0  0  0  0  0  0  0  0  0
    3.4000   -1.1060   -0.7620 C   0  0  0  0  0  0  0  0  0  0  0  0
    4.2520   -2.0500   -0.2140 C   0  0  0  0  0  0  0  0  0  0  0  0
    3.7720   -2.4920    0.9290 O   0  0  0  0  0  0  0  0  0  0  0  0
    2.6340   -1.8850    1.1730 C   0  0  0  0  0  0  0  0  0  0  0  0
    1.3300    1.1680   -0.3470 C   0  0  0  0  0  0  0  0  0  0  0  0
    2.9420    1.7660   -0.6810 Cl  0  0  0  0  0  0  0  0  0  0  0  0
  1  2  1  0
  2  3  2  0
  2 15  1  0
  3  4  1  0
  4  5  1  0
  4  8  2  0
  5  6  1  6
  5  7  1  0
  8  9  1  0
  9 10  1  0
  9 15  2  0
 10 11  1  0
 10 14  2  0
 11 12  2  0
 12 13  1  0
 13 14  1  0
 15 16  1  0
M  CHG  1   7   1
M  END
