
     RDKit          3D

 15 16  0  0  0  0  0  0  0  0999 V2000
   -2.9070    1.4940    0.7290 C   0  0  0  0  0  0  0  0  0  0  0  0
   -2.5500    0.6840   -0.4640 C   0  0  0  0  0  0  0  0  0  0  0  0
   -1.7000   -0.5210   -0.1690 C   0  0  1  0  0  0  0  0  0  0  0  0
   -2.3530   -1.4420    0.7380 N   0  0  0  0  0  0  0  0  0  0  0  0
   -1.4850   -1.2640   -1.4730 C   0  0  0  0  0  0  0  0  0  0  0  0
   -0.2400   -0.6100   -2.0040 C   0  0  0  0  0  0  0  0  0  0  0  0
    0.4960   -0.2540   -0.7640 C   0  0  0  0  0  0  0  0  0  0  0  0
   -0.3570   -0.2000    0.3150 C   0  0  0  0  0  0  0  0  0  0  0  0
    0.1550    0.1160    1.5450 C   0  0  0  0  0  0  0  0  0  0  0  0
    1.5130    0.3850    1.7370 C   0  0  0  0  0  0  0  0  0  0  0  0
    2.0340    0.7050    2.9810 O   0  0  0  0  0  0  0  0  0  0  0  0
    2.3710    0.3320    0.6610 C   0  0  0  0  0  0  0  0  0  0  0  0
    3.8330    0.6060    0.7840 C   0  0  0  0  0  0  0  0  0  0  0  0
    1.8520    0.0120   -0.5840 C   0  0  0  0  0  0  0  0  0  0  0  0
    2.7650   -0.0480   -1.7500 C   0  0  0  0  0  0  0  0  0  0  0  0
  1  2  1  0
  2  3  1  0
  3  4  1  1
  3  5  1  0
  3  8  1  0
  5  6  1  0
  6  7  1  0
  7  8  2  0
  7 14  1  0
  8  9  1  0
  9 10  2  0
 10 11  1  0
 10 12  1  0
 12 13  1  0
 12 14  2  0
 14 15  1  0
M  CHG  1   4   1
M  END
