
     RDKit          3D

 16 17  0  0  0  0  0  0  0  0999 V2000
    3.6880   -1.9660    0.1320 C   0  0  0  0  0  0  0  0  0  0  0  0
    2.4060   -1.2080    0.0910 C   0  0  0  0  0  0  0  0  0  0  0  0
    1.2200   -1.9060   -0.0220 C   0  0  0  0  0  0  0  0  0  0  0  0
   -0.0060   -1.2360   -0.0650 C   0  0  0  0  0  0  0  0  0  0  0  0
   -0.0430    0.1290    0.0060 C   0  0  0  0  0  0  0  0  0  0  0  0
   -1.2380    0.8640   -0.0300 O   0  0  0  0  0  0  0  0  0  0  0  0
   -2.4730    0.2140   -0.1440 C   0  0  0  0  0  0  0  0  0  0  0  0
   -3.1060    0.0490   -1.2820 C   0  0  0  0  0  0  0  0  0  0  0  0
   -4.3590   -0.6700   -1.0160 C   0  0  0  0  0  0  0  0  0  0  0  0
   -4.3620   -0.9000    0.4390 C   0  0  0  0  0  0  0  0  0  0  0  0
   -3.2560   -0.3780    0.9280 C   0  0  0  0  0  0  0  0  0  0  0  0
   -2.8150   -0.4050    2.6260 Cl  0  0  0  0  0  0  0  0  0  0  0  0
    1.1270    0.8530    0.1200 C   0  0  0  0  0  0  0  0  0  0  0  0
    1.0840    2.3380    0.1970 C   0  0  0  0  0  0  0  0  0  0  0  0
    2.4090    2.8690    0.3100 N   0  0  0  0  0  0  0  0  0  0  0  0
    2.3300    0.1570    0.1590 C   0  0  0  0  0  0  0  0  0  0  0  0
  1  2  1  0
  2  3  2  0
  2 16  1  0
  3  4  1  0
  4  5  2  0
  5  6  1  0
  5 13  1  0
  6  7  1  0
  7  8  2  0
  7 11  1  0
  8  9  1  0
  9 10  1  0
 10 11  2  0
 11 12  1  0
 13 14  1  0
 13 16  2  0
 14 15  1  0
M  CHG  1  15   1
M  END
