
     RDKit          3D

 15 16  0  0  0  0  0  0  0  0999 V2000
   -3.5110    2.2590   -0.1570 C   0  0  0  0  0  0  0  0  0  0  0  0
   -2.4790    1.1880   -0.0620 C   0  0  0  0  0  0  0  0  0  0  0  0
   -2.8000   -0.1490   -0.0570 C   0  0  0  0  0  0  0  0  0  0  0  0
   -1.8660   -1.1820    0.0310 C   0  0  0  0  0  0  0  0  0  0  0  0
   -2.2740   -2.5990    0.0320 C   0  0  0  0  0  0  0  0  0  0  0  0
   -0.5370   -0.7840    0.1150 C   0  0  0  0  0  0  0  0  0  0  0  0
    0.4780   -1.7110    0.2060 C   0  0  0  0  0  0  0  0  0  0  0  0
    0.0950   -3.3920    0.2150 Cl  0  0  0  0  0  0  0  0  0  0  0  0
    1.8210   -1.3310    0.2920 C   0  0  0  0  0  0  0  0  0  0  0  0
    2.1800   -0.0030    0.2900 C   0  0  0  0  0  0  0  0  0  0  0  0
    3.5890    0.4440    0.3790 C   0  0  0  0  0  0  0  0  0  0  0  0
    4.1980    0.5800   -0.9310 N   0  0  0  0  0  0  0  0  0  0  0  0
    1.1590    0.9020    0.1990 C   0  0  0  0  0  0  0  0  0  0  0  0
   -0.1670    0.5370    0.1140 C   0  0  0  0  0  0  0  0  0  0  0  0
   -1.1460    1.5030    0.0250 C   0  0  0  0  0  0  0  0  0  0  0  0
  1  2  1  0
  2  3  2  0
  2 15  1  0
  3  4  1  0
  4  5  1  0
  4  6  2  0
  6  7  1  0
  6 14  1  0
  7  8  1  0
  7  9  2  0
  9 10  1  0
 10 11  1  0
 10 13  2  0
 11 12  1  0
 13 14  1  0
 14 15  2  0
M  CHG  1  12   1
M  END
