
     RDKit          3D

 11 12  0  0  0  0  0  0  0  0999 V2000
   -2.1290    0.5230    0.0150 C   0  0  0  0  0  0  0  0  0  0  0  0
   -1.0630   -0.5250   -0.0570 C   0  0  0  0  0  0  0  0  0  0  0  0
   -1.2420   -1.8940   -0.1800 C   0  0  0  0  0  0  0  0  0  0  0  0
   -0.0210   -2.4560   -0.2070 N   0  0  0  0  0  0  0  0  0  0  0  0
    0.9180   -1.5020   -0.1060 C   0  0  0  0  0  0  0  0  0  0  0  0
    2.2730   -1.5530   -0.0860 N   0  0  0  0  0  0  0  0  0  0  0  0
    2.9710   -0.4180    0.0260 C   0  0  0  0  0  0  0  0  0  0  0  0
    2.2950    0.7390    0.1150 N   0  0  0  0  0  0  0  0  0  0  0  0
    0.9540    0.8270    0.0980 C   0  0  0  0  0  0  0  0  0  0  0  0
    0.2570    2.0360    0.1910 N   0  0  0  0  0  0  0  0  0  0  0  0
    0.2630   -0.3180   -0.0150 N   0  0  0  0  0  0  0  0  0  0  0  0
  1  2  1  0
  2  3  2  0
  2 11  1  0
  3  4  1  0
  4  5  2  0
  5  6  1  0
  5 11  1  0
  6  7  2  0
  7  8  1  0
  8  9  2  0
  9 10  1  0
  9 11  1  0
M  END
