
     RDKit          3D

 11 12  0  0  0  0  0  0  0  0999 V2000
    2.6550   -0.5340   -0.2850 C   0  0  0  0  0  0  0  0  0  0  0  0
    1.2510   -0.6610    0.0100 N   0  0  0  0  0  0  0  0  0  0  0  0
    0.7760   -1.9540    0.2440 N   0  0  0  0  0  0  0  0  0  0  0  0
   -0.4670   -2.3350    0.4210 C   0  0  0  0  0  0  0  0  0  0  0  0
   -1.6080   -1.4990    0.4110 N   0  0  0  0  0  0  0  0  0  0  0  0
   -1.8720   -0.2820   -0.3280 C   0  0  0  0  0  0  0  0  0  0  0  0
   -0.8230    0.7490   -0.1200 C   0  0  0  0  0  0  0  0  0  0  0  0
   -1.0420    2.0850   -0.0380 N   0  0  0  0  0  0  0  0  0  0  0  0
    0.1200    2.7380    0.1500 C   0  0  0  0  0  0  0  0  0  0  0  0
    1.0740    1.7950    0.1860 N   0  0  0  0  0  0  0  0  0  0  0  0
    0.5320    0.5640    0.0230 C   0  0  0  0  0  0  0  0  0  0  0  0
  1  2  1  0
  2  3  1  0
  2 11  1  0
  3  4  2  0
  4  5  1  0
  5  6  1  0
  6  7  1  0
  7  8  1  0
  7 11  2  0
  8  9  1  0
  9 10  2  0
 10 11  1  0
M  END
