
     RDKit          3D

 14 15  0  0  0  0  0  0  0  0999 V2000
    3.0000    0.7860    0.8340 O   0  0  0  0  0  0  0  0  0  0  0  0
    2.3100   -0.1420    0.0890 C   0  0  0  0  0  0  0  0  0  0  0  0
    0.8360   -0.1840    0.3860 C   0  0  1  0  0  0  0  0  0  0  0  0
    0.1430    1.0820    0.1370 C   0  0  0  0  0  0  0  0  0  0  0  0
    0.4890    2.3800   -0.0180 N   0  0  0  0  0  0  0  0  0  0  0  0
   -0.6230    3.0970   -0.2260 C   0  0  0  0  0  0  0  0  0  0  0  0
   -1.6770    2.2570   -0.2020 N   0  0  0  0  0  0  0  0  0  0  0  0
   -1.2480    1.0160    0.0180 C   0  0  0  0  0  0  0  0  0  0  0  0
   -1.9960   -0.2470    0.1310 C   0  0  2  0  0  0  0  0  0  0  0  0
   -2.6210   -0.2570    1.3970 O   0  0  0  0  0  0  0  0  0  0  0  0
   -1.1880   -1.4690   -0.0930 C   0  0  1  0  0  0  0  0  0  0  0  0
   -1.7910   -2.2760   -1.0870 O   0  0  0  0  0  0  0  0  0  0  0  0
    0.2210   -1.2290   -0.5210 C   0  0  2  0  0  0  0  0  0  0  0  0
    0.9610   -2.3900   -0.3960 O   0  0  0  0  0  0  0  0  0  0  0  0
  1  2  1  0
  3  2  1  6
  3  4  1  0
  3 13  1  0
  4  5  1  0
  4  8  2  0
  5  6  1  0
  6  7  2  0
  7  8  1  0
  8  9  1  0
  9 10  1  1
  9 11  1  0
 11 12  1  6
 11 13  1  0
 13 14  1  1
M  END
