
     RDKit          3D

 11 12  0  0  0  0  0  0  0  0999 V2000
   -2.9010   -0.2720   -0.3900 C   0  0  0  0  0  0  0  0  0  0  0  0
   -1.4780   -0.6980   -0.3490 C   0  0  0  0  0  0  0  0  0  0  0  0
   -0.9900   -1.9220   -0.6200 N   0  0  0  0  0  0  0  0  0  0  0  0
    0.3410   -1.8890   -0.4670 N   0  0  0  0  0  0  0  0  0  0  0  0
    0.7160   -0.6580   -0.1000 C   0  0  0  0  0  0  0  0  0  0  0  0
    1.9670   -0.1360    0.1730 C   0  0  0  0  0  0  0  0  0  0  0  0
    3.1460   -0.9280    0.0910 N   0  0  0  0  0  0  0  0  0  0  0  0
    2.0140    1.1620    0.5230 N   0  0  0  0  0  0  0  0  0  0  0  0
    0.9040    1.9240    0.6050 C   0  0  0  0  0  0  0  0  0  0  0  0
   -0.3250    1.3660    0.3240 C   0  0  0  0  0  0  0  0  0  0  0  0
   -0.4170    0.0610   -0.0320 N   0  0  0  0  0  0  0  0  0  0  0  0
  1  2  1  0
  2  3  2  0
  2 11  1  0
  3  4  1  0
  4  5  2  0
  5  6  1  0
  5 11  1  0
  6  7  1  0
  6  8  2  0
  8  9  1  0
  9 10  2  0
 10 11  1  0
M  END
