
     RDKit          3D

 11 12  0  0  0  0  0  0  0  0999 V2000
    3.3020   -0.8710   -0.0680 C   0  0  0  0  0  0  0  0  0  0  0  0
    2.7320    0.4230    0.2850 N   0  0  0  0  0  0  0  0  0  0  0  0
    1.4350    0.5630    0.2550 C   0  0  0  0  0  0  0  0  0  0  0  0
    0.7740    1.6970    0.5560 N   0  0  0  0  0  0  0  0  0  0  0  0
   -0.5600    1.4570    0.4110 C   0  0  0  0  0  0  0  0  0  0  0  0
   -1.8370    1.9700    0.4930 C   0  0  0  0  0  0  0  0  0  0  0  0
   -2.6890    0.9730    0.1500 N   0  0  0  0  0  0  0  0  0  0  0  0
   -2.0320   -0.1200   -0.1390 N   0  0  0  0  0  0  0  0  0  0  0  0
   -2.6420   -1.3820   -0.5470 C   0  0  0  0  0  0  0  0  0  0  0  0
   -0.7220    0.1460    0.0130 C   0  0  0  0  0  0  0  0  0  0  0  0
    0.5280   -0.3520   -0.0660 N   0  0  0  0  0  0  0  0  0  0  0  0
  1  2  1  0
  2  3  2  3
  3  4  1  0
  3 11  1  0
  4  5  1  0
  5  6  1  0
  5 10  2  0
  6  7  2  0
  7  8  1  0
  8  9  1  0
  8 10  1  0
 10 11  1  0
M  END
