
     RDKit          3D

 11 12  0  0  0  0  0  0  0  0999 V2000
   -3.1370    0.5460   -0.4880 N   0  0  0  0  0  0  0  0  0  0  0  0
   -1.8030    0.1680   -0.1910 C   0  0  0  0  0  0  0  0  0  0  0  0
   -1.5240   -0.9770    0.5310 C   0  0  0  0  0  0  0  0  0  0  0  0
   -0.2320   -1.3030    0.7940 N   0  0  0  0  0  0  0  0  0  0  0  0
    0.8000   -0.5630    0.3840 C   0  0  0  0  0  0  0  0  0  0  0  0
    2.1060   -0.9240    0.6690 C   0  0  0  0  0  0  0  0  0  0  0  0
    3.1280   -0.1750    0.2530 N   0  0  0  0  0  0  0  0  0  0  0  0
    2.8580    0.9460   -0.4540 C   0  0  0  0  0  0  0  0  0  0  0  0
    1.5820    1.3100   -0.7390 N   0  0  0  0  0  0  0  0  0  0  0  0
    0.5210    0.5820   -0.3380 C   0  0  0  0  0  0  0  0  0  0  0  0
   -0.7510    0.9270   -0.6110 N   0  0  0  0  0  0  0  0  0  0  0  0
  1  2  1  0
  2  3  2  0
  2 11  1  0
  3  4  1  0
  4  5  2  0
  5  6  1  0
  5 10  1  0
  6  7  2  0
  7  8  1  0
  8  9  2  0
  9 10  1  0
 10 11  2  0
M  END
