
     RDKit          3D

 11 12  0  0  0  0  0  0  0  0999 V2000
    2.5210    0.4270    0.0890 C   0  0  0  0  0  0  0  0  0  0  0  0
    1.6460   -0.6740    0.1090 N   0  0  0  0  0  0  0  0  0  0  0  0
    0.3990   -0.7870    0.0630 C   0  0  0  0  0  0  0  0  0  0  0  0
   -0.1280   -2.0480    0.1060 N   0  0  0  0  0  0  0  0  0  0  0  0
   -1.4380   -2.3010    0.0640 C   0  0  0  0  0  0  0  0  0  0  0  0
   -2.2990   -1.2720   -0.0250 N   0  0  0  0  0  0  0  0  0  0  0  0
   -1.8610    0.0050   -0.0730 C   0  0  0  0  0  0  0  0  0  0  0  0
   -2.4480    1.2060   -0.1590 N   0  0  0  0  0  0  0  0  0  0  0  0
   -1.5420    2.1990   -0.1730 C   0  0  0  0  0  0  0  0  0  0  0  0
   -0.3500    1.5860   -0.0910 N   0  0  0  0  0  0  0  0  0  0  0  0
   -0.4960    0.2600   -0.0290 C   0  0  0  0  0  0  0  0  0  0  0  0
  1  2  1  0
  2  3  2  3
  3  4  1  0
  3 11  1  0
  4  5  1  0
  5  6  2  0
  6  7  1  0
  7  8  1  0
  7 11  2  0
  8  9  2  0
  9 10  1  0
 10 11  1  0
M  END
