
     RDKit          3D

 11 12  0  0  0  0  0  0  0  0999 V2000
    1.9240   -1.3450    0.1390 C   0  0  0  0  0  0  0  0  0  0  0  0
    1.0320   -0.2320    0.0360 N   0  0  0  0  0  0  0  0  0  0  0  0
    1.4100    1.0570   -0.0490 C   0  0  0  0  0  0  0  0  0  0  0  0
    2.6320    1.5310   -0.0540 N   0  0  0  0  0  0  0  0  0  0  0  0
    0.2950    1.7800   -0.1290 N   0  0  0  0  0  0  0  0  0  0  0  0
   -0.8060    0.9980   -0.0980 C   0  0  0  0  0  0  0  0  0  0  0  0
   -2.1360    1.2410   -0.1480 N   0  0  0  0  0  0  0  0  0  0  0  0
   -3.0430    0.2470   -0.0970 C   0  0  0  0  0  0  0  0  0  0  0  0
   -2.5470   -1.0370    0.0090 C   0  0  0  0  0  0  0  0  0  0  0  0
   -1.2250   -1.2830    0.0590 N   0  0  0  0  0  0  0  0  0  0  0  0
   -0.3290   -0.2930    0.0080 C   0  0  0  0  0  0  0  0  0  0  0  0
  1  2  1  0
  2  3  1  0
  2 11  1  0
  3  4  2  0
  3  5  1  0
  5  6  1  0
  6  7  2  0
  6 11  1  0
  7  8  1  0
  8  9  2  0
  9 10  1  0
 10 11  2  0
M  END
