
     RDKit          3D

 11 12  0  0  0  0  0  0  0  0999 V2000
   -2.9160   -0.7970   -0.4210 C   0  0  0  0  0  0  0  0  0  0  0  0
   -1.6370   -0.0770   -0.1310 C   0  0  0  0  0  0  0  0  0  0  0  0
   -1.6050    1.1430    0.1750 N   0  0  0  0  0  0  0  0  0  0  0  0
   -0.4520    1.9120    0.4650 C   0  0  0  0  0  0  0  0  0  0  0  0
    0.8370    1.2060    0.4480 C   0  0  0  0  0  0  0  0  0  0  0  0
    0.7770   -0.1750    0.0780 N   0  0  0  0  0  0  0  0  0  0  0  0
    1.7640   -1.1130   -0.0720 C   0  0  0  0  0  0  0  0  0  0  0  0
    3.1300   -0.8100    0.1310 N   0  0  0  0  0  0  0  0  0  0  0  0
    1.1610   -2.2390   -0.4170 N   0  0  0  0  0  0  0  0  0  0  0  0
   -0.1420   -2.0830   -0.4970 N   0  0  0  0  0  0  0  0  0  0  0  0
   -0.3630   -0.7920   -0.1860 C   0  0  0  0  0  0  0  0  0  0  0  0
  1  2  1  0
  2  3  2  0
  2 11  1  0
  3  4  1  0
  4  5  1  0
  5  6  1  0
  6  7  1  0
  6 11  1  0
  7  8  1  0
  7  9  2  0
  9 10  1  0
 10 11  2  0
M  END
