
     RDKit          3D

 11 12  0  0  0  0  0  0  0  0999 V2000
   -2.1810    0.4580    0.0850 C   0  0  0  0  0  0  0  0  0  0  0  0
   -1.0930   -0.5610    0.1340 C   0  0  0  0  0  0  0  0  0  0  0  0
   -1.2480   -1.9230    0.2980 C   0  0  0  0  0  0  0  0  0  0  0  0
   -0.0080   -2.4420    0.2820 N   0  0  0  0  0  0  0  0  0  0  0  0
    0.9150   -1.4770    0.1160 C   0  0  0  0  0  0  0  0  0  0  0  0
    2.2750   -1.4890    0.0350 N   0  0  0  0  0  0  0  0  0  0  0  0
    2.9710   -0.3550   -0.1360 C   0  0  0  0  0  0  0  0  0  0  0  0
    2.2940    0.8040   -0.2260 N   0  0  0  0  0  0  0  0  0  0  0  0
    0.9390    0.8190   -0.1460 C   0  0  0  0  0  0  0  0  0  0  0  0
    0.3110    2.0780   -0.2500 N   0  0  0  0  0  0  0  0  0  0  0  0
    0.2290   -0.3220    0.0270 N   0  0  0  0  0  0  0  0  0  0  0  0
  1  2  1  0
  2  3  2  0
  2 11  1  0
  3  4  1  0
  4  5  2  0
  5  6  1  0
  5 11  1  0
  6  7  2  0
  7  8  1  0
  8  9  2  0
  9 10  1  0
  9 11  1  0
M  END
