
     RDKit          3D

 11 12  0  0  0  0  0  0  0  0999 V2000
    2.8450   -0.5420   -0.1240 C   0  0  0  0  0  0  0  0  0  0  0  0
    1.5310    0.1470   -0.0550 C   0  0  0  0  0  0  0  0  0  0  0  0
    0.3370   -0.5360   -0.0320 C   0  0  0  0  0  0  0  0  0  0  0  0
   -0.8460    0.1180    0.0310 N   0  0  0  0  0  0  0  0  0  0  0  0
   -2.1370   -0.3280    0.0650 C   0  0  0  0  0  0  0  0  0  0  0  0
   -2.4460   -1.7030    0.0330 N   0  0  0  0  0  0  0  0  0  0  0  0
   -2.9430    0.7410    0.1280 N   0  0  0  0  0  0  0  0  0  0  0  0
   -2.1830    1.8210    0.1340 N   0  0  0  0  0  0  0  0  0  0  0  0
   -0.8730    1.4480    0.0740 C   0  0  0  0  0  0  0  0  0  0  0  0
    0.3000    2.1680    0.0530 C   0  0  0  0  0  0  0  0  0  0  0  0
    1.4510    1.4860   -0.0100 N   0  0  0  0  0  0  0  0  0  0  0  0
  1  2  1  0
  2  3  2  0
  2 11  1  0
  3  4  1  0
  4  5  1  0
  4  9  1  0
  5  6  1  0
  5  7  2  0
  7  8  1  0
  8  9  2  0
  9 10  1  0
 10 11  2  0
M  END
