
     RDKit          3D

 11 12  0  0  0  0  0  0  0  0999 V2000
   -3.3810   -0.8940    0.0010 C   0  0  0  0  0  0  0  0  0  0  0  0
   -2.7160    0.3620   -0.0580 N   0  0  0  0  0  0  0  0  0  0  0  0
   -1.4250    0.5030   -0.0600 C   0  0  0  0  0  0  0  0  0  0  0  0
   -0.7640    1.6700   -0.1140 N   0  0  0  0  0  0  0  0  0  0  0  0
    0.5630    1.4820   -0.1000 C   0  0  0  0  0  0  0  0  0  0  0  0
    1.8170    2.0870   -0.1250 C   0  0  0  0  0  0  0  0  0  0  0  0
    2.6990    1.0860   -0.0730 N   0  0  0  0  0  0  0  0  0  0  0  0
    2.0820   -0.0820   -0.0180 N   0  0  0  0  0  0  0  0  0  0  0  0
    2.7330   -1.3660    0.0470 C   0  0  0  0  0  0  0  0  0  0  0  0
    0.7460    0.1160   -0.0330 C   0  0  0  0  0  0  0  0  0  0  0  0
   -0.4750   -0.4480   -0.0100 N   0  0  0  0  0  0  0  0  0  0  0  0
  1  2  1  0
  2  3  2  3
  3  4  1  0
  3 11  1  0
  4  5  1  0
  5  6  1  0
  5 10  2  0
  6  7  2  0
  7  8  1  0
  8  9  1  0
  8 10  1  0
 10 11  1  0
M  END
