
     RDKit          3D

 11 12  0  0  0  0  0  0  0  0999 V2000
    2.9600   -0.1160    0.1270 C   0  0  0  0  0  0  0  0  0  0  0  0
    1.5520   -0.6260    0.0410 C   0  0  0  0  0  0  0  0  0  0  0  0
    1.1530   -1.9090   -0.0340 N   0  0  0  0  0  0  0  0  0  0  0  0
   -0.1670   -1.9700   -0.0970 N   0  0  0  0  0  0  0  0  0  0  0  0
   -0.6480   -0.7310   -0.0650 C   0  0  0  0  0  0  0  0  0  0  0  0
   -1.9590   -0.2620   -0.1040 C   0  0  0  0  0  0  0  0  0  0  0  0
   -3.0680   -1.1200   -0.1920 N   0  0  0  0  0  0  0  0  0  0  0  0
   -2.1030    1.0750   -0.0520 N   0  0  0  0  0  0  0  0  0  0  0  0
   -1.0780    1.9110    0.0310 C   0  0  0  0  0  0  0  0  0  0  0  0
    0.2150    1.4280    0.0690 C   0  0  0  0  0  0  0  0  0  0  0  0
    0.4110    0.0950    0.0200 N   0  0  0  0  0  0  0  0  0  0  0  0
  1  2  1  0
  2  3  2  0
  2 11  1  0
  3  4  1  0
  4  5  2  0
  5  6  1  0
  5 11  1  0
  6  7  1  0
  6  8  2  0
  8  9  1  0
  9 10  2  0
 10 11  1  0
M  END
