
     RDKit          3D

 17 16  0  0  0  0  0  0  0  0999 V2000
    5.1670   -0.2310   -1.2340 C   0  0  0  0  0  0  0  0  0  0  0  0
    4.8230    1.1670   -0.7950 C   0  0  0  0  0  0  0  0  0  0  0  0
    4.7540    1.3000    0.6310 N   0  0  0  0  0  0  0  0  0  0  0  0
    3.4480    1.1430    1.1660 C   0  0  0  0  0  0  0  0  0  0  0  0
    2.5230    0.4930    0.2800 C   0  0  0  0  0  0  0  0  0  0  0  0
    2.4410    0.0130   -0.7690 O   0  0  0  0  0  0  0  0  0  0  0  0
    0.9610    0.4130    1.1110 N   0  0  0  0  0  0  0  0  0  0  0  0
    0.2400   -0.1480    0.0650 C   0  0  0  0  0  0  0  0  0  0  0  0
    0.4750   -0.4780   -1.0600 O   0  0  0  0  0  0  0  0  0  0  0  0
   -1.1790   -0.3550    0.5740 N   0  0  0  0  0  0  0  0  0  0  0  0
   -2.0870   -0.9010   -0.3310 C   0  0  0  0  0  0  0  0  0  0  0  0
   -3.4500   -1.0350    0.3290 C   0  0  1  0  0  0  0  0  0  0  0  0
   -3.3710   -1.8980    1.3930 O   0  0  0  0  0  0  0  0  0  0  0  0
   -3.9030    0.3050    0.8920 C   0  0  0  0  0  0  0  0  0  0  0  0
   -4.0110    1.3490   -0.0780 N   0  0  0  0  0  0  0  0  0  0  0  0
   -4.4040   -1.4350   -0.7490 C   0  0  0  0  0  0  0  0  0  0  0  0
   -4.0240   -2.7080   -1.2460 O   0  0  0  0  0  0  0  0  0  0  0  0
  1  2  1  0
  2  3  1  0
  3  4  1  0
  4  5  1  0
  5  6  2  0
  5  7  1  0
  7  8  1  0
  8  9  2  0
  8 10  1  0
 10 11  1  0
 11 12  1  0
 12 13  1  1
 12 14  1  0
 12 16  1  0
 14 15  1  0
 16 17  1  0
M  CHG  2   3   1  15   1
M  END
