
     RDKit          3D

 17 16  0  0  0  0  0  0  0  0999 V2000
    2.4160   -2.1310   -0.6060 C   0  0  0  0  0  0  0  0  0  0  0  0
    3.0100   -1.6680    0.5370 O   0  0  0  0  0  0  0  0  0  0  0  0
    3.4000   -0.3510    0.3960 C   0  0  1  0  0  0  0  0  0  0  0  0
    2.8160    0.4470    1.5260 C   0  0  0  0  0  0  0  0  0  0  0  0
    1.4530    0.4580    1.5680 O   0  0  0  0  0  0  0  0  0  0  0  0
    0.8860    1.0430    0.4700 C   0  0  0  0  0  0  0  0  0  0  0  0
   -0.6180    0.9910    0.6110 C   0  0  0  0  0  0  0  0  0  0  0  0
   -1.0980    0.4520    1.6370 O   0  0  0  0  0  0  0  0  0  0  0  0
   -1.4160    1.5470   -0.4140 N   0  0  0  0  0  0  0  0  0  0  0  0
   -2.8250    1.5650   -0.4310 C   0  0  0  0  0  0  0  0  0  0  0  0
   -3.5410    0.2830   -0.4670 C   0  0  0  0  0  0  0  0  0  0  0  0
   -3.4900   -0.7330    0.5310 N   0  0  0  0  0  0  0  0  0  0  0  0
   -4.3220    0.0450   -1.5110 C   0  0  0  0  0  0  0  0  0  0  0  0
   -5.0360   -1.1630   -1.6080 N   0  0  0  0  0  0  0  0  0  0  0  0
    4.8910   -0.2940    0.4440 C   0  0  0  0  0  0  0  0  0  0  0  0
    5.6020    0.9390    0.3260 N   0  0  0  0  0  0  0  0  0  0  0  0
    5.5190   -1.3670    0.5930 O   0  0  0  0  0  0  0  0  0  0  0  0
  1  2  1  0
  2  3  1  0
  3  4  1  1
  3 15  1  0
  4  5  1  0
  5  6  1  0
  6  7  1  0
  7  8  2  0
  7  9  1  0
  9 10  1  0
 10 11  1  0
 11 12  1  0
 11 13  2  3
 13 14  1  0
 15 16  1  0
 15 17  2  0
M  CHG  2  12   1  14   1
M  END
