
     RDKit          3D

 17 16  0  0  0  0  0  0  0  0999 V2000
   -1.1830   -0.7570   -1.9460 C   0  0  0  0  0  0  0  0  0  0  0  0
   -1.2160   -0.0690   -0.6280 C   0  0  1  0  0  0  0  0  0  0  0  0
   -0.2160    0.9700   -0.4960 N   0  0  0  0  0  0  0  0  0  0  0  0
    1.0680    0.3200   -0.1910 C   0  0  0  0  0  0  0  0  0  0  0  0
    1.8740    1.1830    0.7470 C   0  0  0  0  0  0  0  0  0  0  0  0
    3.0650    0.5810    1.0360 O   0  0  0  0  0  0  0  0  0  0  0  0
    3.8870    0.3350   -0.0310 C   0  0  0  0  0  0  0  0  0  0  0  0
    5.1540   -0.3170    0.5330 C   0  0  0  0  0  0  0  0  0  0  0  0
    4.7090   -1.5390    1.1900 N   0  0  0  0  0  0  0  0  0  0  0  0
   -2.6050    0.4520   -0.2700 C   0  0  2  0  0  0  0  0  0  0  0  0
   -3.5220   -0.5720   -0.4110 O   0  0  0  0  0  0  0  0  0  0  0  0
   -4.1800   -1.1200    0.6600 C   0  0  0  0  0  0  0  0  0  0  0  0
   -5.1290   -2.1690    0.5740 N   0  0  0  0  0  0  0  0  0  0  0  0
   -3.9110   -0.6460    1.7830 O   0  0  0  0  0  0  0  0  0  0  0  0
   -2.9340    1.6950   -0.9830 C   0  0  0  0  0  0  0  0  0  0  0  0
   -4.0970    1.8880   -1.7770 N   0  0  0  0  0  0  0  0  0  0  0  0
   -2.1530    2.6810   -0.9100 O   0  0  0  0  0  0  0  0  0  0  0  0
  2  1  1  6
  2  3  1  0
  2 10  1  0
  3  4  1  0
  4  5  1  0
  5  6  1  0
  6  7  1  0
  7  8  1  0
  8  9  1  0
 10 11  1  6
 10 15  1  0
 11 12  1  0
 12 13  1  0
 12 14  2  0
 15 16  1  0
 15 17  2  0
M  CHG  2   3   1   9   1
M  END
