
     RDKit          3D

 17 16  0  0  0  0  0  0  0  0999 V2000
    2.2050    4.6650    0.0760 N   0  0  0  0  0  0  0  0  0  0  0  0
    2.2860    3.2160    0.0410 C   0  0  0  0  0  0  0  0  0  0  0  0
    3.4070    2.6870    0.1780 O   0  0  0  0  0  0  0  0  0  0  0  0
    1.0770    2.4690   -0.1500 C   0  0  0  0  0  0  0  0  0  0  0  0
    0.9440    1.1860   -0.2130 C   0  0  0  0  0  0  0  0  0  0  0  0
   -0.4200    0.7120   -0.4150 N   0  0  0  0  0  0  0  0  0  0  0  0
   -1.1380    0.3650    0.5910 C   0  0  0  0  0  0  0  0  0  0  0  0
   -0.6030    0.4440    1.9010 N   0  0  0  0  0  0  0  0  0  0  0  0
   -2.5270   -0.1200    0.4210 C   0  0  0  0  0  0  0  0  0  0  0  0
   -2.6710   -1.5460    0.9680 C   0  0  0  0  0  0  0  0  0  0  0  0
   -4.1110   -1.9710    0.7600 C   0  0  0  0  0  0  0  0  0  0  0  0
   -4.9630   -1.1230    1.4280 O   0  0  0  0  0  0  0  0  0  0  0  0
    2.0160    0.2000   -0.0990 C   0  0  1  0  0  0  0  0  0  0  0  0
    1.7490   -0.5600    1.0620 O   0  0  0  0  0  0  0  0  0  0  0  0
    1.9490   -0.8130   -1.2490 C   0  0  0  0  0  0  0  0  0  0  0  0
    2.9000   -1.8140   -1.0660 O   0  0  0  0  0  0  0  0  0  0  0  0
    2.8850   -2.7260   -2.0430 N   0  0  0  0  0  0  0  0  0  0  0  0
  1  2  1  0
  2  3  2  0
  2  4  1  0
  4  5  2  3
  5  6  1  0
  5 13  1  0
  6  7  2  3
  7  8  1  0
  7  9  1  0
  9 10  1  0
 10 11  1  0
 11 12  1  0
 13 14  1  1
 13 15  1  0
 15 16  1  0
 16 17  1  0
M  CHG  2   6   1  17   1
M  END
