
     RDKit          3D

 17 16  0  0  0  0  0  0  0  0999 V2000
    5.9660    0.8800    0.1150 C   0  0  0  0  0  0  0  0  0  0  0  0
    5.4040   -0.3700    0.0220 O   0  0  0  0  0  0  0  0  0  0  0  0
    4.0710   -0.4340    0.3410 C   0  0  0  0  0  0  0  0  0  0  0  0
    3.2110    0.4390   -0.5480 C   0  0  0  0  0  0  0  0  0  0  0  0
    1.8170    0.3110   -0.1390 N   0  0  0  0  0  0  0  0  0  0  0  0
    1.2400   -0.9170   -0.5970 C   0  0  0  0  0  0  0  0  0  0  0  0
   -0.1800   -0.9880   -0.1180 C   0  0  0  0  0  0  0  0  0  0  0  0
   -0.8110   -2.0000   -0.4380 O   0  0  0  0  0  0  0  0  0  0  0  0
   -0.7770    0.0090    0.6430 N   0  0  0  0  0  0  0  0  0  0  0  0
   -2.0910    0.1350    1.1650 C   0  0  0  0  0  0  0  0  0  0  0  0
   -3.2520    0.3040    0.2930 C   0  0  2  0  0  0  0  0  0  0  0  0
   -4.3740    0.4420    1.1730 O   0  0  0  0  0  0  0  0  0  0  0  0
   -3.5770   -0.7770   -0.6620 C   0  0  0  0  0  0  0  0  0  0  0  0
   -3.8140   -2.0230   -0.0070 N   0  0  0  0  0  0  0  0  0  0  0  0
   -3.1790    1.5880   -0.4700 C   0  0  0  0  0  0  0  0  0  0  0  0
   -2.1840    1.8130   -1.4410 N   0  0  0  0  0  0  0  0  0  0  0  0
   -4.0140    2.4740   -0.2420 O   0  0  0  0  0  0  0  0  0  0  0  0
  1  2  1  0
  2  3  1  0
  3  4  1  0
  4  5  1  0
  5  6  1  0
  6  7  1  0
  7  8  2  0
  7  9  1  0
  9 10  1  0
 10 11  1  0
 11 12  1  1
 11 13  1  0
 11 15  1  0
 13 14  1  0
 15 16  1  0
 15 17  2  0
M  CHG  2   5   1  14   1
M  END
