
     RDKit          3D

 17 16  0  0  0  0  0  0  0  0999 V2000
   -3.8090   -0.2610    0.2170 C   0  0  0  0  0  0  0  0  0  0  0  0
   -2.8040    0.4370   -0.5970 C   0  0  0  0  0  0  0  0  0  0  0  0
   -1.4140    0.5510   -0.1840 C   0  0  1  0  0  0  0  0  0  0  0  0
   -1.1350    1.1890    0.9950 O   0  0  0  0  0  0  0  0  0  0  0  0
   -0.6160    2.3800    0.9770 N   0  0  0  0  0  0  0  0  0  0  0  0
   -0.4880   -0.6250   -0.3850 C   0  0  1  0  0  0  0  0  0  0  0  0
   -0.6860   -1.2440   -1.7340 C   0  0  0  0  0  0  0  0  0  0  0  0
   -1.8530   -1.9130   -1.9420 O   0  0  0  0  0  0  0  0  0  0  0  0
    0.8550    0.0420   -0.4160 N   0  0  0  0  0  0  0  0  0  0  0  0
    1.8820   -0.8120   -0.8930 C   0  0  0  0  0  0  0  0  0  0  0  0
    3.1950   -0.1880   -0.5900 C   0  0  0  0  0  0  0  0  0  0  0  0
    4.2640   -0.8030   -0.9310 O   0  0  0  0  0  0  0  0  0  0  0  0
    3.2890    1.0660    0.0640 N   0  0  0  0  0  0  0  0  0  0  0  0
    4.5910    1.6550    0.3500 C   0  0  0  0  0  0  0  0  0  0  0  0
   -0.3990   -1.5740    0.7080 C   0  0  0  0  0  0  0  0  0  0  0  0
   -1.4220   -2.4930    0.9930 N   0  0  0  0  0  0  0  0  0  0  0  0
    0.6030   -1.6320    1.4710 O   0  0  0  0  0  0  0  0  0  0  0  0
  1  2  1  0
  3  2  1  1
  3  4  1  0
  3  6  1  0
  4  5  1  0
  6  7  1  6
  6  9  1  0
  6 15  1  0
  7  8  1  0
  9 10  1  0
 10 11  1  0
 11 12  2  0
 11 13  1  0
 13 14  1  0
 15 16  1  0
 15 17  2  0
M  CHG  2   5   1   9   1
M  END
