
     RDKit          3D

 17 16  0  0  0  0  0  0  0  0999 V2000
    2.8190    0.1580    1.6140 C   0  0  0  0  0  0  0  0  0  0  0  0
    2.7980   -0.2290    0.1270 C   0  0  1  0  0  0  0  0  0  0  0  0
    1.5930    0.2520   -0.4570 N   0  0  0  0  0  0  0  0  0  0  0  0
    0.7870   -0.7660   -1.0880 C   0  0  1  0  0  0  0  0  0  0  0  0
   -0.3710   -0.1240   -1.7930 C   0  0  0  0  0  0  0  0  0  0  0  0
   -1.2820    0.6670   -0.8960 C   0  0  0  0  0  0  0  0  0  0  0  0
   -1.8700   -0.2060    0.1650 C   0  0  0  0  0  0  0  0  0  0  0  0
   -2.7450    0.6590    0.9700 N   0  0  0  0  0  0  0  0  0  0  0  0
   -4.0010    0.3960    1.0810 C   0  0  0  0  0  0  0  0  0  0  0  0
   -4.5410   -0.7350    0.4240 N   0  0  0  0  0  0  0  0  0  0  0  0
   -4.7920    1.2660    1.8700 N   0  0  0  0  0  0  0  0  0  0  0  0
    1.5340   -1.6340   -1.9970 C   0  0  0  0  0  0  0  0  0  0  0  0
    0.9480   -2.5660   -2.5850 O   0  0  0  0  0  0  0  0  0  0  0  0
    2.8780   -1.4630   -2.2350 O   0  0  0  0  0  0  0  0  0  0  0  0
    3.9610    0.4440   -0.4850 C   0  0  0  0  0  0  0  0  0  0  0  0
    5.1150    0.1500   -0.1190 O   0  0  0  0  0  0  0  0  0  0  0  0
    3.7720    1.3940   -1.4570 O   0  0  0  0  0  0  0  0  0  0  0  0
  2  1  1  1
  2  3  1  0
  2 15  1  0
  3  4  1  0
  4  5  1  6
  4 12  1  0
  5  6  1  0
  6  7  1  0
  7  8  1  0
  8  9  2  3
  9 10  1  0
  9 11  1  0
 12 13  2  0
 12 14  1  0
 15 16  2  0
 15 17  1  0
M  CHG  2   3   1   8   1
M  END
