
     RDKit          3D

 17 16  0  0  0  0  0  0  0  0999 V2000
    6.4430    1.2110    0.6450 N   0  0  0  0  0  0  0  0  0  0  0  0
    5.0860    0.8750    0.9530 C   0  0  0  0  0  0  0  0  0  0  0  0
    4.5990    1.3640    2.0010 O   0  0  0  0  0  0  0  0  0  0  0  0
    4.3200   -0.0000    0.0720 C   0  0  0  0  0  0  0  0  0  0  0  0
    3.0300   -0.2580    0.4210 O   0  0  0  0  0  0  0  0  0  0  0  0
    2.1750    0.8030    0.4970 C   0  0  0  0  0  0  0  0  0  0  0  0
    0.7810    0.3570    0.8920 C   0  0  0  0  0  0  0  0  0  0  0  0
    0.2360   -0.5320   -0.0020 O   0  0  0  0  0  0  0  0  0  0  0  0
   -1.0370   -0.8860    0.4370 C   0  0  2  0  0  0  0  0  0  0  0  0
   -1.1160   -2.3390    0.7150 C   0  0  0  0  0  0  0  0  0  0  0  0
   -2.2920   -2.9550    1.1710 N   0  0  0  0  0  0  0  0  0  0  0  0
   -0.1200   -3.0150    0.5390 O   0  0  0  0  0  0  0  0  0  0  0  0
   -2.0010   -0.4820   -0.6300 C   0  0  0  0  0  0  0  0  0  0  0  0
   -1.8980   -1.0200   -1.9400 N   0  0  0  0  0  0  0  0  0  0  0  0
   -2.9680    0.3800   -0.3930 C   0  0  0  0  0  0  0  0  0  0  0  0
   -3.9530    0.8200   -1.4060 C   0  0  0  0  0  0  0  0  0  0  0  0
   -3.8350    2.2540   -1.5600 N   0  0  0  0  0  0  0  0  0  0  0  0
  1  2  1  0
  2  3  2  0
  2  4  1  0
  4  5  1  0
  5  6  1  0
  6  7  1  0
  7  8  1  0
  9  8  1  6
  9 10  1  0
  9 13  1  0
 10 11  1  0
 10 12  2  0
 13 14  1  0
 13 15  2  3
 15 16  1  0
 16 17  1  0
M  CHG  2  11   1  17   1
M  END
