
     RDKit          3D

 17 16  0  0  0  0  0  0  0  0999 V2000
   -5.0960    2.8670    1.0890 N   0  0  0  0  0  0  0  0  0  0  0  0
   -4.0280    2.2630    0.3740 C   0  0  0  0  0  0  0  0  0  0  0  0
   -3.8120    2.6320   -0.8180 O   0  0  0  0  0  0  0  0  0  0  0  0
   -3.2070    1.2940    0.8970 O   0  0  0  0  0  0  0  0  0  0  0  0
   -2.1390    0.7090    0.1390 C   0  0  0  0  0  0  0  0  0  0  0  0
   -1.4110   -0.3290    0.9850 C   0  0  0  0  0  0  0  0  0  0  0  0
   -0.3190   -0.9270    0.2090 C   0  0  0  0  0  0  0  0  0  0  0  0
   -0.1880   -2.1610   -0.1520 C   0  0  0  0  0  0  0  0  0  0  0  0
   -0.9850   -3.3290    0.0420 C   0  0  0  0  0  0  0  0  0  0  0  0
   -2.1950   -3.3780    0.7240 N   0  0  0  0  0  0  0  0  0  0  0  0
   -0.5590   -4.4350   -0.4530 O   0  0  0  0  0  0  0  0  0  0  0  0
    0.7620   -0.0450   -0.2180 N   0  0  0  0  0  0  0  0  0  0  0  0
    2.1120   -0.3170    0.1570 C   0  0  0  0  0  0  0  0  0  0  0  0
    3.0240    0.7050   -0.3870 C   0  0  0  0  0  0  0  0  0  0  0  0
    2.5560    1.6110   -1.0540 O   0  0  0  0  0  0  0  0  0  0  0  0
    4.5070    0.6530   -0.1390 C   0  0  0  0  0  0  0  0  0  0  0  0
    5.1320    1.7770   -0.7920 N   0  0  0  0  0  0  0  0  0  0  0  0
  1  2  1  0
  2  3  2  0
  2  4  1  0
  4  5  1  0
  5  6  1  0
  6  7  1  0
  7  8  2  3
  7 12  1  0
  8  9  1  0
  9 10  1  0
  9 11  2  0
 12 13  1  0
 13 14  1  0
 14 15  2  0
 14 16  1  0
 16 17  1  0
M  CHG  2  10   1  17   1
M  END
