
     RDKit          3D

 23 26  0  0  0  0  0  0  0  0999 V2000
    1.7310   -2.3530   -1.4970 C   0  0  0  0  0  0  0  0  0  0  0  0
    0.7620   -1.2970   -1.1020 C   0  0  0  0  0  0  0  0  0  0  0  0
   -0.5820   -1.2840   -1.4110 C   0  0  0  0  0  0  0  0  0  0  0  0
   -1.1460   -0.1350   -0.8670 C   0  0  0  0  0  0  0  0  0  0  0  0
   -2.5390    0.2430   -0.9720 C   0  0  0  0  0  0  0  0  0  0  0  0
   -3.1490    0.8010   -2.5030 Cl  0  0  0  0  0  0  0  0  0  0  0  0
   -3.3510    0.1740    0.0590 C   0  0  0  0  0  0  0  0  0  0  0  0
   -3.0630   -0.2370    1.3400 C   0  0  0  0  0  0  0  0  0  0  0  0
   -4.1870   -0.1420    2.0460 N   0  0  0  0  0  0  0  0  0  0  0  0
   -5.1960    0.3040    1.3180 N   0  0  0  0  0  0  0  0  0  0  0  0
   -6.5120    0.6300    1.3370 C   0  0  0  0  0  0  0  0  0  0  0  0
   -6.8610    1.0520    0.0710 C   0  0  0  0  0  0  0  0  0  0  0  0
   -5.7360    0.9620   -0.6570 N   0  0  0  0  0  0  0  0  0  0  0  0
   -4.7030    0.5070    0.0830 C   0  0  0  0  0  0  0  0  0  0  0  0
   -0.1000    0.5140   -0.2380 C   0  0  0  0  0  0  0  0  0  0  0  0
   -0.2410    1.8060    0.4900 C   0  0  0  0  0  0  0  0  0  0  0  0
    1.0380   -0.1920   -0.3860 N   0  0  0  0  0  0  0  0  0  0  0  0
    2.3370    0.1630    0.1290 C   0  0  0  0  0  0  0  0  0  0  0  0
    2.9660    1.2000   -0.3160 N   0  0  0  0  0  0  0  0  0  0  0  0
    4.2790    1.4360    0.3040 C   0  0  0  0  0  0  0  0  0  0  0  0
    5.0720    0.1690    0.0640 C   0  0  0  0  0  0  0  0  0  0  0  0
    4.3720   -1.0000    0.7150 C   0  0  0  0  0  0  0  0  0  0  0  0
    2.9940   -0.6340    1.1760 C   0  0  0  0  0  0  0  0  0  0  0  0
  1  2  1  0
  2  3  2  0
  2 17  1  0
  3  4  1  0
  4  5  1  0
  4 15  2  0
  5  6  1  0
  5  7  2  3
  7  8  1  0
  7 14  1  0
  8  9  2  0
  9 10  1  0
 10 11  1  0
 10 14  1  0
 11 12  2  0
 12 13  1  0
 13 14  2  0
 15 16  1  0
 15 17  1  0
 17 18  1  0
 18 19  2  0
 18 23  1  0
 19 20  1  0
 20 21  1  0
 21 22  1  0
 22 23  1  0
M  END
