
     RDKit          3D

 23 26  0  0  0  0  0  0  0  0999 V2000
    4.4760   -0.4330   -1.0140 C   0  0  0  0  0  0  0  0  0  0  0  0
    5.3260    0.4000   -0.1090 C   0  0  0  0  0  0  0  0  0  0  0  0
    7.0450    0.0650   -0.1220 Cl  0  0  0  0  0  0  0  0  0  0  0  0
    4.7830    1.3250    0.6430 C   0  0  0  0  0  0  0  0  0  0  0  0
    3.3930    1.5410    0.6020 N   0  0  0  0  0  0  0  0  0  0  0  0
    2.3700    0.5530    0.8430 C   0  0  0  0  0  0  0  0  0  0  0  0
    1.2540    0.8880    0.2610 C   0  0  0  0  0  0  0  0  0  0  0  0
   -0.0040    0.1090    0.2960 C   0  0  0  0  0  0  0  0  0  0  0  0
   -0.0820   -1.0790    0.9800 C   0  0  0  0  0  0  0  0  0  0  0  0
   -1.2660   -1.8250    1.0210 C   0  0  0  0  0  0  0  0  0  0  0  0
   -2.3710   -1.3460    0.3570 C   0  0  0  0  0  0  0  0  0  0  0  0
   -3.5580   -2.0650    0.3810 C   0  0  0  0  0  0  0  0  0  0  0  0
   -3.6580   -3.3640    1.1230 C   0  0  0  0  0  0  0  0  0  0  0  0
   -4.6050   -1.5470   -0.2860 N   0  0  0  0  0  0  0  0  0  0  0  0
   -4.5090   -0.3770   -0.9530 C   0  0  0  0  0  0  0  0  0  0  0  0
   -5.4260    0.3480   -1.7000 C   0  0  0  0  0  0  0  0  0  0  0  0
   -4.8060    1.4700   -2.1590 N   0  0  0  0  0  0  0  0  0  0  0  0
   -3.5370    1.4410   -1.7080 C   0  0  0  0  0  0  0  0  0  0  0  0
   -3.3540    0.3190   -0.9750 N   0  0  0  0  0  0  0  0  0  0  0  0
   -2.2670   -0.1400   -0.3280 C   0  0  0  0  0  0  0  0  0  0  0  0
   -1.0990    0.5500   -0.3420 N   0  0  0  0  0  0  0  0  0  0  0  0
    1.4720    2.1680   -0.4360 C   0  0  0  0  0  0  0  0  0  0  0  0
    2.6360    2.7700    0.3190 C   0  0  0  0  0  0  0  0  0  0  0  0
  1  2  1  0
  2  3  1  0
  2  4  2  3
  4  5  1  0
  5  6  1  0
  5 23  1  0
  6  7  2  0
  7  8  1  0
  7 22  1  0
  8  9  2  0
  8 21  1  0
  9 10  1  0
 10 11  2  0
 11 12  1  0
 11 20  1  0
 12 13  1  0
 12 14  2  0
 14 15  1  0
 15 16  2  0
 15 19  1  0
 16 17  1  0
 17 18  2  0
 18 19  1  0
 19 20  1  0
 20 21  2  0
 22 23  1  0
M  END
