
     RDKit          3D

 23 25  0  0  0  0  0  0  0  0999 V2000
   -1.9480    3.4730   -0.0160 C   0  0  0  0  0  0  0  0  0  0  0  0
   -2.7060    2.2240   -0.1520 C   0  0  0  0  0  0  0  0  0  0  0  0
   -2.3970    1.1440    0.5790 C   0  0  0  0  0  0  0  0  0  0  0  0
   -1.2600    1.3300    1.4960 C   0  0  0  0  0  0  0  0  0  0  0  0
    0.1010    1.1760    0.9650 C   0  0  0  0  0  0  0  0  0  0  0  0
    0.2790    0.7500   -0.4400 C   0  0  0  0  0  0  0  0  0  0  0  0
    1.6180    0.1490   -0.5280 N   0  0  0  0  0  0  0  0  0  0  0  0
    1.8390   -1.1430   -0.7140 C   0  0  0  0  0  0  0  0  0  0  0  0
    3.1690   -1.3190   -0.7360 N   0  0  0  0  0  0  0  0  0  0  0  0
    3.7900   -0.1410   -0.5650 C   0  0  0  0  0  0  0  0  0  0  0  0
    5.0810    0.2110   -0.5120 N   0  0  0  0  0  0  0  0  0  0  0  0
    5.4420    1.4920   -0.3270 C   0  0  0  0  0  0  0  0  0  0  0  0
    4.4560    2.4300   -0.1950 C   0  0  0  0  0  0  0  0  0  0  0  0
    3.1610    2.0870   -0.2470 N   0  0  0  0  0  0  0  0  0  0  0  0
    2.7980    0.7890   -0.4340 C   0  0  0  0  0  0  0  0  0  0  0  0
    0.7420   -2.1520   -0.8600 C   0  0  0  0  0  0  0  0  0  0  0  0
    0.3850   -2.7730    0.4380 C   0  0  0  0  0  0  0  0  0  0  0  0
   -0.8590   -2.2730    1.1110 C   0  0  0  0  0  0  0  0  0  0  0  0
   -1.9830   -2.1610    0.2170 N   0  0  0  0  0  0  0  0  0  0  0  0
   -1.9810   -3.1770   -0.8640 C   0  0  0  0  0  0  0  0  0  0  0  0
   -3.0730   -1.2750    0.2690 C   0  0  0  0  0  0  0  0  0  0  0  0
   -3.2670   -0.0040    0.4070 C   0  0  0  0  0  0  0  0  0  0  0  0
   -5.0460    0.5130    0.3830 Cl  0  0  0  0  0  0  0  0  0  0  0  0
  1  2  1  0
  2  3  2  3
  3  4  1  0
  3 22  1  0
  4  5  1  0
  5  6  1  0
  6  7  1  0
  7  8  1  0
  7 15  1  0
  8  9  2  0
  8 16  1  0
  9 10  1  0
 10 11  2  0
 10 15  1  0
 11 12  1  0
 12 13  2  0
 13 14  1  0
 14 15  2  0
 16 17  1  0
 17 18  1  0
 18 19  1  0
 19 20  1  0
 19 21  1  0
 21 22  2  0
 22 23  1  0
M  END
