
     RDKit          3D

 23 26  0  0  0  0  0  0  0  0999 V2000
    3.0760   -1.9420   -1.2520 C   0  0  0  0  0  0  0  0  0  0  0  0
    1.9550   -1.0730   -0.8060 C   0  0  0  0  0  0  0  0  0  0  0  0
    0.6280   -1.1570   -1.1570 C   0  0  0  0  0  0  0  0  0  0  0  0
   -0.0590   -0.1340   -0.4920 C   0  0  0  0  0  0  0  0  0  0  0  0
   -1.4710    0.1570   -0.5650 C   0  0  0  0  0  0  0  0  0  0  0  0
   -2.0430    1.3380   -0.8520 N   0  0  0  0  0  0  0  0  0  0  0  0
   -3.3940    1.1910   -0.8240 C   0  0  0  0  0  0  0  0  0  0  0  0
   -4.4280    2.2270   -1.0790 C   0  0  0  0  0  0  0  0  0  0  0  0
   -3.6690   -0.0800   -0.5190 N   0  0  0  0  0  0  0  0  0  0  0  0
   -4.7980   -0.7790   -0.3570 C   0  0  0  0  0  0  0  0  0  0  0  0
   -4.7880   -2.1200   -0.0340 C   0  0  0  0  0  0  0  0  0  0  0  0
   -3.5720   -2.7380    0.1210 C   0  0  0  0  0  0  0  0  0  0  0  0
   -2.4680   -2.0260   -0.0450 N   0  0  0  0  0  0  0  0  0  0  0  0
   -2.4860   -0.7310   -0.3560 C   0  0  0  0  0  0  0  0  0  0  0  0
    0.8680    0.5580    0.2560 C   0  0  0  0  0  0  0  0  0  0  0  0
    0.6200    1.7440    1.1450 C   0  0  0  0  0  0  0  0  0  0  0  0
    2.0640   -0.0200    0.0530 N   0  0  0  0  0  0  0  0  0  0  0  0
    3.2860    0.3870    0.6340 C   0  0  0  0  0  0  0  0  0  0  0  0
    3.6190    0.4880    1.9650 C   0  0  0  0  0  0  0  0  0  0  0  0
    4.9360    0.9330    2.0860 C   0  0  0  0  0  0  0  0  0  0  0  0
    5.3950    1.1000    0.8340 N   0  0  0  0  0  0  0  0  0  0  0  0
    4.4200    0.7780   -0.0430 C   0  0  0  0  0  0  0  0  0  0  0  0
    4.6940    0.8920   -1.7700 Cl  0  0  0  0  0  0  0  0  0  0  0  0
  1  2  1  0
  2  3  2  0
  2 17  1  0
  3  4  1  0
  4  5  1  0
  4 15  2  0
  5  6  1  0
  5 14  2  0
  6  7  2  0
  7  8  1  0
  7  9  1  0
  9 10  1  0
  9 14  1  0
 10 11  2  0
 11 12  1  0
 12 13  2  0
 13 14  1  0
 15 16  1  0
 15 17  1  0
 17 18  1  0
 18 19  1  0
 18 22  2  0
 19 20  2  0
 20 21  1  0
 21 22  1  0
 22 23  1  0
M  END
