
     RDKit          3D

 22 25  0  0  0  0  0  0  0  0999 V2000
   -4.9050    1.1740   -0.3040 C   0  0  0  0  0  0  0  0  0  0  0  0
   -3.7670    0.2980   -0.1740 N   0  0  0  0  0  0  0  0  0  0  0  0
   -4.1240   -1.0130    0.3260 C   0  0  0  0  0  0  0  0  0  0  0  0
   -3.2540   -1.9950   -0.3340 C   0  0  0  0  0  0  0  0  0  0  0  0
   -1.8150   -1.7660   -0.3460 C   0  0  0  0  0  0  0  0  0  0  0  0
   -1.0040   -2.8330   -0.5030 N   0  0  0  0  0  0  0  0  0  0  0  0
    0.2730   -2.4310   -0.5090 C   0  0  0  0  0  0  0  0  0  0  0  0
    1.6660   -3.5020   -0.7290 Cl  0  0  0  0  0  0  0  0  0  0  0  0
    0.3070   -1.0400   -0.3500 C   0  0  0  0  0  0  0  0  0  0  0  0
    1.5180   -0.2390   -0.2380 C   0  0  0  0  0  0  0  0  0  0  0  0
    1.5650    1.1070   -0.4890 C   0  0  0  0  0  0  0  0  0  0  0  0
    2.6900    1.9060   -0.3030 C   0  0  0  0  0  0  0  0  0  0  0  0
    3.8420    1.3390    0.1570 C   0  0  0  0  0  0  0  0  0  0  0  0
    4.9460    2.1490    0.3330 C   0  0  0  0  0  0  0  0  0  0  0  0
    6.0840    1.6070    0.7840 N   0  0  0  0  0  0  0  0  0  0  0  0
    6.1300    0.3000    1.0530 C   0  0  0  0  0  0  0  0  0  0  0  0
    5.0350   -0.5490    0.8870 C   0  0  0  0  0  0  0  0  0  0  0  0
    3.8530   -0.0040    0.4230 C   0  0  0  0  0  0  0  0  0  0  0  0
    2.7140   -0.7880    0.2310 C   0  0  0  0  0  0  0  0  0  0  0  0
   -1.0070   -0.7020   -0.2550 N   0  0  0  0  0  0  0  0  0  0  0  0
   -1.4260    0.6410   -0.0230 C   0  0  0  0  0  0  0  0  0  0  0  0
   -2.7510    0.7830    0.6980 C   0  0  0  0  0  0  0  0  0  0  0  0
  1  2  1  0
  2  3  1  0
  2 22  1  0
  3  4  1  0
  4  5  1  0
  5  6  2  0
  5 20  1  0
  6  7  1  0
  7  8  1  0
  7  9  2  0
  9 10  1  0
  9 20  1  0
 10 11  2  0
 10 19  1  0
 11 12  1  0
 12 13  2  0
 13 14  1  0
 13 18  1  0
 14 15  2  0
 15 16  1  0
 16 17  2  0
 17 18  1  0
 18 19  2  0
 20 21  1  0
 21 22  1  0
M  END
