
     RDKit          3D

 14 13  0  0  0  0  0  0  0  0999 V2000
   -1.3780    0.5890   -1.6240 C   0  0  0  0  0  0  0  0  0  0  0  0
   -0.7750    0.6200   -0.2080 C   0  0  1  0  0  0  0  0  0  0  0  0
   -1.0900    1.9470    0.3690 C   0  0  0  0  0  0  0  0  0  0  0  0
   -0.4880    3.0500   -0.3170 N   0  0  0  0  0  0  0  0  0  0  0  0
   -1.5740   -0.4390    0.5470 C   0  0  0  0  0  0  0  0  0  0  0  0
   -1.3800   -1.7850   -0.1410 C   0  0  0  0  0  0  0  0  0  0  0  0
   -2.1490   -2.7830    0.5920 N   0  0  0  0  0  0  0  0  0  0  0  0
    0.5490    0.2490   -0.2560 O   0  0  0  0  0  0  0  0  0  0  0  0
    1.4200    0.1620    0.7860 C   0  0  0  0  0  0  0  0  0  0  0  0
    0.9590    0.4580    1.9200 O   0  0  0  0  0  0  0  0  0  0  0  0
    2.8440   -0.2470    0.6800 C   0  0  0  0  0  0  0  0  0  0  0  0
    3.2240   -0.5460   -0.6300 O   0  0  0  0  0  0  0  0  0  0  0  0
    4.5240   -0.9430   -0.8850 C   0  0  0  0  0  0  0  0  0  0  0  0
    5.3200   -1.0200    0.0840 O   0  0  0  0  0  0  0  0  0  0  0  0
  2  1  1  6
  2  3  1  0
  2  5  1  0
  2  8  1  0
  3  4  1  0
  5  6  1  0
  6  7  1  0
  8  9  1  0
  9 10  2  0
  9 11  1  0
 11 12  1  0
 12 13  1  0
 13 14  2  0
M  CHG  2   4   1   7   1
M  END
