
     RDKit          3D

 14 13  0  0  0  0  0  0  0  0999 V2000
   -4.0050    1.7970    0.6020 C   0  0  0  0  0  0  0  0  0  0  0  0
   -2.5480    1.4000    0.6170 C   0  0  1  0  0  0  0  0  0  0  0  0
   -2.1940    0.8750    1.8430 O   0  0  0  0  0  0  0  0  0  0  0  0
   -2.2840    0.4320   -0.5160 C   0  0  2  0  0  0  0  0  0  0  0  0
   -3.1220   -0.8110   -0.3850 C   0  0  0  0  0  0  0  0  0  0  0  0
   -2.8580   -1.4790    0.8000 O   0  0  0  0  0  0  0  0  0  0  0  0
   -0.8260    0.0640   -0.5820 C   0  0  0  0  0  0  0  0  0  0  0  0
   -0.3660   -0.5380    0.5730 O   0  0  0  0  0  0  0  0  0  0  0  0
    0.9820   -0.8310    0.3970 C   0  0  0  0  0  0  0  0  0  0  0  0
    1.7570    0.4080    0.1370 C   0  0  0  0  0  0  0  0  0  0  0  0
    2.9100    0.2990   -0.3810 N   0  0  0  0  0  0  0  0  0  0  0  0
    3.4560   -0.9760   -0.7090 C   0  0  0  0  0  0  0  0  0  0  0  0
    4.8230   -0.8820   -0.8050 O   0  0  0  0  0  0  0  0  0  0  0  0
    5.4300   -0.4790    0.3120 N   0  0  0  0  0  0  0  0  0  0  0  0
  2  1  1  1
  2  3  1  0
  2  4  1  0
  4  5  1  1
  4  7  1  0
  5  6  1  0
  7  8  1  0
  8  9  1  0
  9 10  1  0
 10 11  2  3
 11 12  1  0
 12 13  1  0
 13 14  1  0
M  CHG  2  11   1  14   1
M  END
