
     RDKit          3D

 14 13  0  0  0  0  0  0  0  0999 V2000
    4.3470   -0.9420   -1.0930 C   0  0  0  0  0  0  0  0  0  0  0  0
    4.7520   -0.3780    0.0820 O   0  0  0  0  0  0  0  0  0  0  0  0
    3.9780    0.6480    0.5000 C   0  0  0  0  0  0  0  0  0  0  0  0
    2.5080    0.3130    0.7720 C   0  0  0  0  0  0  0  0  0  0  0  0
    1.8590   -0.1380   -0.2950 O   0  0  0  0  0  0  0  0  0  0  0  0
    0.5900   -0.5500   -0.3480 C   0  0  0  0  0  0  0  0  0  0  0  0
   -0.4370    0.4530    0.0110 C   0  0  2  0  0  0  0  0  0  0  0  0
   -0.3560    0.8710    1.3680 N   0  0  0  0  0  0  0  0  0  0  0  0
   -1.8380    0.0490   -0.4070 C   0  0  1  0  0  0  0  0  0  0  0  0
   -1.6860   -0.3690   -1.7600 O   0  0  0  0  0  0  0  0  0  0  0  0
   -2.3540   -1.0990    0.3830 C   0  0  0  0  0  0  0  0  0  0  0  0
   -3.6160   -1.5960   -0.0610 N   0  0  0  0  0  0  0  0  0  0  0  0
   -2.7310    1.2450   -0.4750 C   0  0  0  0  0  0  0  0  0  0  0  0
   -3.0550    1.8440    0.7070 O   0  0  0  0  0  0  0  0  0  0  0  0
  1  2  1  0
  2  3  1  0
  3  4  1  0
  4  5  1  0
  5  6  1  0
  6  7  1  0
  7  8  1  1
  7  9  1  0
  9 10  1  6
  9 11  1  0
  9 13  1  0
 11 12  1  0
 13 14  1  0
M  CHG  2   8   1  12   1
M  END
