
     RDKit          3D

 14 13  0  0  0  0  0  0  0  0999 V2000
    4.6680   -0.1710    1.3070 C   0  0  0  0  0  0  0  0  0  0  0  0
    3.7640   -1.1810    1.1130 O   0  0  0  0  0  0  0  0  0  0  0  0
    2.4380   -0.8150    1.0570 C   0  0  0  0  0  0  0  0  0  0  0  0
    2.2120    0.1390   -0.0790 C   0  0  0  0  0  0  0  0  0  0  0  0
    0.9100    0.5740   -0.2210 O   0  0  0  0  0  0  0  0  0  0  0  0
    0.0600   -0.4630   -0.4520 C   0  0  0  0  0  0  0  0  0  0  0  0
   -1.3940    0.0220   -0.6470 C   0  0  1  0  0  0  0  0  0  0  0  0
   -1.3910    0.9510   -1.8350 C   0  0  0  0  0  0  0  0  0  0  0  0
   -0.9430    0.2460   -2.9570 O   0  0  0  0  0  0  0  0  0  0  0  0
   -2.1830   -1.1960   -1.0240 C   0  0  0  0  0  0  0  0  0  0  0  0
   -3.5210   -0.9690   -1.2420 O   0  0  0  0  0  0  0  0  0  0  0  0
   -1.8570    0.7380    0.5260 C   0  0  0  0  0  0  0  0  0  0  0  0
   -2.2540    1.9430    0.4160 N   0  0  0  0  0  0  0  0  0  0  0  0
   -1.9000    0.1560    1.8460 N   0  0  0  0  0  0  0  0  0  0  0  0
  1  2  1  0
  2  3  1  0
  3  4  1  0
  4  5  1  0
  5  6  1  0
  7  6  1  1
  7  8  1  0
  7 10  1  0
  7 12  1  0
  8  9  1  0
 10 11  1  0
 12 13  2  0
 12 14  1  0
M  CHG  2  13   1  14   1
M  END
