
     RDKit          3D

 14 13  0  0  0  0  0  0  0  0999 V2000
   -2.9880    0.8950    1.2170 C   0  0  0  0  0  0  0  0  0  0  0  0
   -1.9660    0.7050    0.1010 C   0  0  1  0  0  0  0  0  0  0  0  0
   -1.4760   -0.6350    0.1770 N   0  0  0  0  0  0  0  0  0  0  0  0
   -0.3150   -0.8590   -0.6690 C   0  0  1  0  0  0  0  0  0  0  0  0
    0.8800   -0.3280    0.0490 C   0  0  0  0  0  0  0  0  0  0  0  0
    2.1830   -0.4750   -0.6850 C   0  0  0  0  0  0  0  0  0  0  0  0
    3.2700    0.1260    0.2000 C   0  0  0  0  0  0  0  0  0  0  0  0
    3.0290    1.5180    0.4740 N   0  0  0  0  0  0  0  0  0  0  0  0
   -0.2100   -2.3170   -0.9030 C   0  0  0  0  0  0  0  0  0  0  0  0
   -1.0340   -3.1220   -0.3620 O   0  0  0  0  0  0  0  0  0  0  0  0
    0.7830   -2.8900   -1.7180 O   0  0  0  0  0  0  0  0  0  0  0  0
   -2.6200    0.9920   -1.1900 C   0  0  0  0  0  0  0  0  0  0  0  0
   -2.6920    0.0980   -2.0660 O   0  0  0  0  0  0  0  0  0  0  0  0
   -3.1660    2.2320   -1.4730 O   0  0  0  0  0  0  0  0  0  0  0  0
  2  1  1  1
  2  3  1  0
  2 12  1  0
  3  4  1  0
  4  5  1  1
  4  9  1  0
  5  6  1  0
  6  7  1  0
  7  8  1  0
  9 10  2  0
  9 11  1  0
 12 13  2  0
 12 14  1  0
M  CHG  2   3   1   8   1
M  END
