
     RDKit          3D

 14 13  0  0  0  0  0  0  0  0999 V2000
   -3.1500   -1.6680   -0.0560 C   0  0  0  0  0  0  0  0  0  0  0  0
   -2.8410   -0.2760   -0.6210 C   0  0  2  0  0  0  0  0  0  0  0  0
   -2.5960    0.5500    0.4480 O   0  0  0  0  0  0  0  0  0  0  0  0
   -1.3610    1.1490    0.4500 C   0  0  0  0  0  0  0  0  0  0  0  0
   -0.2150    0.1630    0.4710 C   0  0  0  0  0  0  0  0  0  0  0  0
    0.9790    0.8830    0.4710 O   0  0  0  0  0  0  0  0  0  0  0  0
    2.0310   -0.0320    0.4900 C   0  0  0  0  0  0  0  0  0  0  0  0
    3.3730    0.6520    0.4920 C   0  0  2  0  0  0  0  0  0  0  0  0
    3.5270    1.4370   -0.6340 O   0  0  0  0  0  0  0  0  0  0  0  0
    4.4500   -0.3950    0.5090 C   0  0  0  0  0  0  0  0  0  0  0  0
    4.4060   -1.2500   -0.6400 N   0  0  0  0  0  0  0  0  0  0  0  0
   -4.1070    0.1640   -1.3120 C   0  0  0  0  0  0  0  0  0  0  0  0
   -4.8430    1.2710   -0.8410 N   0  0  0  0  0  0  0  0  0  0  0  0
   -4.5120   -0.4340   -2.2900 O   0  0  0  0  0  0  0  0  0  0  0  0
  2  1  1  1
  2  3  1  0
  2 12  1  0
  3  4  1  0
  4  5  1  0
  5  6  1  0
  6  7  1  0
  7  8  1  0
  8  9  1  6
  8 10  1  0
 10 11  1  0
 12 13  1  0
 12 14  2  0
M  CHG  2  11   1  13   1
M  END
