
     RDKit          3D

 13 12  0  0  0  0  0  0  0  0999 V2000
    4.2850   -0.2170    0.5590 N   0  0  0  0  0  0  0  0  0  0  0  0
    2.9680   -0.4570    0.4670 O   0  0  0  0  0  0  0  0  0  0  0  0
    2.5310    0.0300   -0.7850 C   0  0  0  0  0  0  0  0  0  0  0  0
    1.0260   -0.2320   -0.9170 C   0  0  2  0  0  0  0  0  0  0  0  0
    0.6240    0.2490   -2.1380 O   0  0  0  0  0  0  0  0  0  0  0  0
    0.2740    0.3750    0.2400 C   0  0  0  0  0  0  0  0  0  0  0  0
   -1.1170    0.0890    0.1010 N   0  0  2  0  0  0  0  0  0  0  0  0
   -1.9970    0.9370    0.8180 C   0  0  0  0  0  0  0  0  0  0  0  0
   -1.6460    2.3850    0.8400 C   0  0  0  0  0  0  0  0  0  0  0  0
   -1.6120    2.9000   -0.4630 O   0  0  0  0  0  0  0  0  0  0  0  0
   -1.3460   -1.2610    0.5980 C   0  0  0  0  0  0  0  0  0  0  0  0
   -2.5300   -1.8100   -0.1630 C   0  0  0  0  0  0  0  0  0  0  0  0
   -2.8100   -3.0960    0.2550 O   0  0  0  0  0  0  0  0  0  0  0  0
  1  2  1  0
  2  3  1  0
  3  4  1  0
  4  5  1  6
  4  6  1  0
  7  6  1  1
  7  8  1  0
  7 11  1  0
  8  9  1  0
  9 10  1  0
 11 12  1  0
 12 13  1  0
M  CHG  2   1   1   7   1
M  END
