
     RDKit          3D

 13 12  0  0  0  0  0  0  0  0999 V2000
   -1.4610   -1.5720    1.2680 N   0  0  0  0  0  0  0  0  0  0  0  0
   -1.4330   -0.9410   -0.0600 C   0  0  1  0  0  0  0  0  0  0  0  0
   -2.7560   -1.1470   -0.7170 C   0  0  0  0  0  0  0  0  0  0  0  0
   -3.7630   -0.5420    0.0660 O   0  0  0  0  0  0  0  0  0  0  0  0
   -0.9810    0.4630    0.0910 C   0  0  2  0  0  0  0  0  0  0  0  0
   -0.9220    1.2870   -1.1720 C   0  0  0  0  0  0  0  0  0  0  0  0
   -2.0840    1.2230   -1.9380 O   0  0  0  0  0  0  0  0  0  0  0  0
    0.2600    0.6440    0.7550 N   0  0  0  0  0  0  0  0  0  0  0  0
    1.2820   -0.3180    0.6440 C   0  0  0  0  0  0  0  0  0  0  0  0
    1.9920   -0.3290   -0.6860 C   0  0  0  0  0  0  0  0  0  0  0  0
    2.6060    0.8440   -1.0430 O   0  0  0  0  0  0  0  0  0  0  0  0
    3.5890    1.2760   -0.1940 C   0  0  0  0  0  0  0  0  0  0  0  0
    4.5940    0.2920   -0.1170 O   0  0  0  0  0  0  0  0  0  0  0  0
  2  1  1  1
  2  3  1  0
  2  5  1  0
  3  4  1  0
  5  6  1  6
  5  8  1  0
  6  7  1  0
  8  9  1  0
  9 10  1  0
 10 11  1  0
 11 12  1  0
 12 13  1  0
M  CHG  2   1   1   8   1
M  END
