
     RDKit          3D

 13 12  0  0  0  0  0  0  0  0999 V2000
   -1.2340    0.4170    2.0780 N   0  0  0  0  0  0  0  0  0  0  0  0
   -1.0200    0.6120    0.6590 C   0  0  1  0  0  0  0  0  0  0  0  0
    0.3950    0.1150    0.3900 C   0  0  0  0  0  0  0  0  0  0  0  0
    0.7730    0.2340   -0.9080 O   0  0  0  0  0  0  0  0  0  0  0  0
    2.0350   -0.2500   -1.1320 C   0  0  0  0  0  0  0  0  0  0  0  0
    3.0940    0.4530   -0.3410 C   0  0  0  0  0  0  0  0  0  0  0  0
    4.4180   -0.1020   -0.6290 N   0  0  0  0  0  0  0  0  0  0  0  0
    4.9930   -0.5850    0.4720 O   0  0  0  0  0  0  0  0  0  0  0  0
   -2.0640   -0.1190   -0.0920 C   0  0  2  0  0  0  0  0  0  0  0  0
   -1.9900   -0.0290   -1.5900 C   0  0  0  0  0  0  0  0  0  0  0  0
   -3.0820   -0.7940   -2.0760 O   0  0  0  0  0  0  0  0  0  0  0  0
   -3.4350    0.3490    0.2950 C   0  0  0  0  0  0  0  0  0  0  0  0
   -3.7160    0.1610    1.6360 O   0  0  0  0  0  0  0  0  0  0  0  0
  2  1  1  1
  2  3  1  0
  2  9  1  0
  3  4  1  0
  4  5  1  0
  5  6  1  0
  6  7  1  0
  7  8  1  0
  9 10  1  6
  9 12  1  0
 10 11  1  0
 12 13  1  0
M  CHG  2   1   1   7   1
M  END
