
     RDKit          3D

 13 12  0  0  0  0  0  0  0  0999 V2000
   -4.8300   -0.4940    1.0350 N   0  0  0  0  0  0  0  0  0  0  0  0
   -3.3720   -0.4740    0.8580 C   0  0  0  0  0  0  0  0  0  0  0  0
   -3.0190    0.4510   -0.2630 C   0  0  0  0  0  0  0  0  0  0  0  0
   -1.6680    0.5190   -0.4760 O   0  0  0  0  0  0  0  0  0  0  0  0
   -1.1170   -0.6990   -0.8030 C   0  0  0  0  0  0  0  0  0  0  0  0
    0.3660   -0.4720   -1.0330 C   0  0  0  0  0  0  0  0  0  0  0  0
    1.0980   -1.4290   -1.3440 O   0  0  0  0  0  0  0  0  0  0  0  0
    0.9160    0.7390   -0.9090 O   0  0  0  0  0  0  0  0  0  0  0  0
    2.1370    1.3070   -1.0220 C   0  0  0  0  0  0  0  0  0  0  0  0
    3.2620    0.9400   -0.1430 C   0  0  0  0  0  0  0  0  0  0  0  0
    3.8460   -0.3900   -0.1860 C   0  0  0  0  0  0  0  0  0  0  0  0
    4.4070   -0.9010    1.0490 N   0  0  0  0  0  0  0  0  0  0  0  0
    3.9320   -1.1330   -1.1270 O   0  0  0  0  0  0  0  0  0  0  0  0
  1  2  1  0
  2  3  1  0
  3  4  1  0
  4  5  1  0
  5  6  1  0
  6  7  2  0
  6  8  1  0
  8  9  1  0
  9 10  1  0
 10 11  1  0
 11 12  1  0
 11 13  2  0
M  CHG  2   1   1  12   1
M  END
