
     RDKit          3D

 18 19  0  0  0  0  0  0  0  0999 V2000
   -0.3910   -1.1610    0.0210 O   0  0  0  0  0  0  0  0  0  0  0  0
   -0.4800    0.0720   -0.0620 C   0  0  0  0  0  0  0  0  0  0  0  0
    0.6890    0.8200    0.2520 N   0  0  0  0  0  0  0  0  0  0  0  0
    1.9350    0.2290    0.6500 C   0  0  1  0  0  0  0  0  0  0  0  0
    3.0190    0.4970   -0.3620 C   0  0  0  0  0  0  0  0  0  0  0  0
    4.3040    0.7490    0.4120 C   0  0  0  0  0  0  0  0  0  0  0  0
    4.3940   -0.3310    1.4660 C   0  0  0  0  0  0  0  0  0  0  0  0
    3.4030   -0.2540    2.4130 O   0  0  0  0  0  0  0  0  0  0  0  0
    2.3530    0.5980    2.0420 C   0  0  0  0  0  0  0  0  0  0  0  0
   -1.6960    0.7490   -0.4550 C   0  0  0  0  0  0  0  0  0  0  0  0
   -1.7040    2.1440   -0.5230 O   0  0  0  0  0  0  0  0  0  0  0  0
   -2.7980    0.0220   -0.7480 C   0  0  0  0  0  0  0  0  0  0  0  0
   -2.8050   -1.4500   -0.6800 C   0  0  0  0  0  0  0  0  0  0  0  0
   -4.5080   -1.8180   -0.9980 S   0  0  2  0  0  0  0  0  0  0  0  0
   -5.1130   -2.6720    0.0610 O   0  0  0  0  0  0  0  0  0  0  0  0
   -4.7220   -2.3460   -2.3760 O   0  0  0  0  0  0  0  0  0  0  0  0
   -5.1260   -0.1280   -0.8920 C   0  0  0  0  0  0  0  0  0  0  0  0
   -3.9680    0.6030   -1.1250 O   0  0  0  0  0  0  0  0  0  0  0  0
  1  2  2  0
  2  3  1  0
  2 10  1  0
  4  3  1  6
  4  5  1  0
  4  9  1  0
  5  6  1  0
  6  7  1  0
  7  8  1  0
  8  9  1  0
 10 11  1  0
 10 12  2  3
 12 13  1  0
 12 18  1  0
 14 13  1  1
 14 15  2  0
 14 16  2  0
 14 17  1  0
 17 18  1  0
M  END
