
     RDKit          3D

 18 18  0  0  0  0  0  0  0  0999 V2000
    4.8210   -1.2680   -0.4090 C   0  0  0  0  0  0  0  0  0  0  0  0
    5.4100    0.0850   -0.1580 C   0  0  0  0  0  0  0  0  0  0  0  0
    4.5010    1.1400   -0.3730 O   0  0  0  0  0  0  0  0  0  0  0  0
    3.3240    1.3030    0.2970 C   0  0  0  0  0  0  0  0  0  0  0  0
    3.0040    0.4650    1.1740 O   0  0  0  0  0  0  0  0  0  0  0  0
    2.4290    2.3490    0.0800 O   0  0  0  0  0  0  0  0  0  0  0  0
    1.2570    2.4400    0.8030 O   0  0  0  0  0  0  0  0  0  0  0  0
    0.0670    1.9440    0.2620 C   0  0  0  0  0  0  0  0  0  0  0  0
    0.1340    1.4350   -0.8720 O   0  0  0  0  0  0  0  0  0  0  0  0
   -1.1710    1.9940    0.9260 N   0  0  0  0  0  0  0  0  0  0  0  0
   -2.4150    1.4860    0.4020 C   0  0  0  0  0  0  0  0  0  0  0  0
   -2.3400    0.0220    0.1780 C   0  0  0  0  0  0  0  0  0  0  0  0
   -1.3710   -0.8460    0.4010 C   0  0  0  0  0  0  0  0  0  0  0  0
   -1.7310   -2.1360    0.0390 O   0  0  0  0  0  0  0  0  0  0  0  0
   -2.8070   -2.0210   -0.8580 C   0  0  0  0  0  0  0  0  0  0  0  0
   -3.4480   -0.7690   -0.3870 C   0  0  0  0  0  0  0  0  0  0  0  0
   -4.7230   -0.4760   -0.4770 C   0  0  0  0  0  0  0  0  0  0  0  0
   -5.9230   -1.5770   -1.2030 S   0  0  0  0  0  0  0  0  0  0  0  0
  1  2  1  0
  2  3  1  0
  3  4  1  0
  4  5  2  0
  4  6  1  0
  6  7  1  0
  7  8  1  0
  8  9  2  0
  8 10  1  0
 10 11  1  0
 11 12  1  0
 12 13  2  0
 12 16  1  0
 13 14  1  0
 14 15  1  0
 15 16  1  0
 16 17  2  3
 17 18  1  0
M  END
