
     RDKit          3D

 14 15  0  0  0  0  0  0  0  0999 V2000
   -1.2790   -2.4440    0.0170 C   0  0  0  0  0  0  0  0  0  0  0  0
   -1.1210   -0.9670    0.0170 C   0  0  0  0  0  0  0  0  0  0  0  0
    0.0510   -0.3710    0.1430 C   0  0  0  0  0  0  0  0  0  0  0  0
    1.0850   -1.2870    0.2720 O   0  0  0  0  0  0  0  0  0  0  0  0
    2.4610   -1.1630   -0.1080 C   0  0  0  0  0  0  0  0  0  0  0  0
    3.0740   -0.0390    0.4820 O   0  0  0  0  0  0  0  0  0  0  0  0
    2.6960    1.3010    0.4250 C   0  0  0  0  0  0  0  0  0  0  0  0
    3.6460    2.1180    0.5270 O   0  0  0  0  0  0  0  0  0  0  0  0
    1.3400    1.8100    0.2630 C   0  0  0  0  0  0  0  0  0  0  0  0
    0.2250    1.0790    0.1450 C   0  0  0  0  0  0  0  0  0  0  0  0
   -0.9650    1.9010   -0.0010 C   0  0  0  0  0  0  0  0  0  0  0  0
   -0.8960    3.1380    0.1680 O   0  0  0  0  0  0  0  0  0  0  0  0
   -2.2580    1.2730   -0.3500 C   0  0  0  0  0  0  0  0  0  0  0  0
   -2.2680   -0.1560   -0.1220 N   0  0  0  0  0  0  0  0  0  0  0  0
  1  2  1  0
  2  3  2  0
  2 14  1  0
  3  4  1  0
  3 10  1  0
  4  5  1  0
  5  6  1  0
  6  7  1  0
  7  8  2  0
  7  9  1  0
  9 10  2  0
 10 11  1  0
 11 12  2  0
 11 13  1  0
 13 14  1  0
M  END
