
     RDKit          3D

 18 19  0  0  0  0  0  0  0  0999 V2000
    2.6910   -1.4720   -1.9540 O   0  0  0  0  0  0  0  0  0  0  0  0
    3.4860   -0.9930   -1.1340 C   0  0  0  0  0  0  0  0  0  0  0  0
    5.2300   -1.3120   -1.4700 S   0  0  0  0  0  0  0  0  0  0  0  0
    3.1370   -0.2180    0.0410 C   0  0  0  0  0  0  0  0  0  0  0  0
    4.0100    0.2920    0.9170 O   0  0  0  0  0  0  0  0  0  0  0  0
    3.3970    0.9350    1.8630 C   0  0  0  0  0  0  0  0  0  0  0  0
    4.0020    1.5080    2.8110 O   0  0  0  0  0  0  0  0  0  0  0  0
    2.1410    0.8460    1.6080 O   0  0  0  0  0  0  0  0  0  0  0  0
    1.9180    0.1530    0.5070 C   0  0  0  0  0  0  0  0  0  0  0  0
    0.6070   -0.1300   -0.0550 C   0  0  0  0  0  0  0  0  0  0  0  0
    0.4020   -0.7810   -1.0890 O   0  0  0  0  0  0  0  0  0  0  0  0
   -0.5770    0.3640    0.6050 N   0  0  0  0  0  0  0  0  0  0  0  0
   -1.8800    0.1110    0.0900 C   0  0  0  0  0  0  0  0  0  0  0  0
   -2.6270    1.1390   -0.2340 C   0  0  0  0  0  0  0  0  0  0  0  0
   -4.0110    1.0070   -0.7850 C   0  0  0  0  0  0  0  0  0  0  0  0
   -4.4140   -0.3240   -0.9140 O   0  0  0  0  0  0  0  0  0  0  0  0
   -3.6310   -1.4180   -0.5740 C   0  0  0  0  0  0  0  0  0  0  0  0
   -2.4140   -1.2340   -0.0910 C   0  0  0  0  0  0  0  0  0  0  0  0
  1  2  2  0
  2  3  1  0
  2  4  1  0
  4  5  1  0
  4  9  2  0
  5  6  1  0
  6  7  2  0
  6  8  1  0
  8  9  1  0
  9 10  1  0
 10 11  2  0
 10 12  1  0
 12 13  1  0
 13 14  2  0
 13 18  1  0
 14 15  1  0
 15 16  1  0
 16 17  1  0
 17 18  2  0
M  END
