
     RDKit          3D

 18 18  0  0  0  0  0  0  0  0999 V2000
   -2.0300   -1.9900    1.6460 C   0  0  0  0  0  0  0  0  0  0  0  0
   -2.4840   -0.8640    0.7950 C   0  0  0  0  0  0  0  0  0  0  0  0
   -3.7800   -0.7500    0.5740 C   0  0  0  0  0  0  0  0  0  0  0  0
   -4.3240    0.3110   -0.2410 C   0  0  0  0  0  0  0  0  0  0  0  0
   -5.5480    0.4530   -0.4740 O   0  0  0  0  0  0  0  0  0  0  0  0
   -3.4420    1.2530   -0.8170 N   0  0  0  0  0  0  0  0  0  0  0  0
   -2.0160    1.1480   -0.5890 C   0  0  0  0  0  0  0  0  0  0  0  0
   -1.2430    1.9800   -1.0980 O   0  0  0  0  0  0  0  0  0  0  0  0
   -1.4800    0.0820    0.2290 C   0  0  0  0  0  0  0  0  0  0  0  0
   -0.2440   -0.1540    0.5310 C   0  0  0  0  0  0  0  0  0  0  0  0
    0.9830    0.5170    0.1850 C   0  0  0  0  0  0  0  0  0  0  0  0
    1.0130    1.6320   -0.6070 O   0  0  0  0  0  0  0  0  0  0  0  0
    2.1590    0.0430    0.6500 C   0  0  0  0  0  0  0  0  0  0  0  0
    2.1040   -1.0840    1.4480 O   0  0  0  0  0  0  0  0  0  0  0  0
    3.6610    0.8180    0.2600 S   0  0  2  0  0  0  0  0  0  0  0  0
    4.3880    0.1660   -1.2270 C   0  0  0  0  0  0  0  0  0  0  0  0
    4.6430    0.5900    1.3690 O   0  0  0  0  0  0  0  0  0  0  0  0
    3.5110    2.2940    0.0780 O   0  0  0  0  0  0  0  0  0  0  0  0
  1  2  1  0
  2  3  2  0
  2  9  1  0
  3  4  1  0
  4  5  2  0
  4  6  1  0
  6  7  1  0
  7  8  2  0
  7  9  1  0
  9 10  2  3
 10 11  1  0
 11 12  1  0
 11 13  2  3
 13 14  1  0
 13 15  1  0
 15 16  1  6
 15 17  2  0
 15 18  2  0
M  END
