
     RDKit          3D

 17 18  0  0  0  0  0  0  0  0999 V2000
    3.8360   -1.2500    0.0230 C   0  0  0  0  0  0  0  0  0  0  0  0
    2.7850   -0.3070   -0.1170 O   0  0  0  0  0  0  0  0  0  0  0  0
    2.6390    0.4950   -1.1980 C   0  0  0  0  0  0  0  0  0  0  0  0
    3.5370    0.3400   -2.1090 O   0  0  0  0  0  0  0  0  0  0  0  0
    1.6320    1.5090   -1.5110 C   0  0  0  0  0  0  0  0  0  0  0  0
    0.6370    1.8060   -0.6340 O   0  0  0  0  0  0  0  0  0  0  0  0
   -0.3370    1.0370   -0.0850 C   0  0  0  0  0  0  0  0  0  0  0  0
   -0.2330    0.4460    1.1530 C   0  0  0  0  0  0  0  0  0  0  0  0
    0.8980    0.6420    1.9900 N   0  0  0  0  0  0  0  0  0  0  0  0
   -1.2300   -0.3510    1.7150 C   0  0  0  0  0  0  0  0  0  0  0  0
   -2.3800   -0.5570    0.9990 C   0  0  0  0  0  0  0  0  0  0  0  0
   -2.5250    0.0170   -0.2400 C   0  0  0  0  0  0  0  0  0  0  0  0
   -1.5320    0.8020   -0.7850 C   0  0  0  0  0  0  0  0  0  0  0  0
   -1.7310    1.3600   -2.0410 O   0  0  0  0  0  0  0  0  0  0  0  0
   -3.7940   -0.3840   -0.6950 O   0  0  0  0  0  0  0  0  0  0  0  0
   -4.5640   -0.7580    0.4520 C   0  0  0  0  0  0  0  0  0  0  0  0
   -3.5410   -1.2870    1.2730 O   0  0  0  0  0  0  0  0  0  0  0  0
  1  2  1  0
  2  3  1  0
  3  4  2  0
  3  5  1  0
  5  6  1  0
  6  7  1  0
  7  8  2  0
  7 13  1  0
  8  9  1  0
  8 10  1  0
 10 11  2  0
 11 12  1  0
 11 17  1  0
 12 13  2  0
 12 15  1  0
 13 14  1  0
 15 16  1  0
 16 17  1  0
M  END
