
     RDKit          3D

 17 18  0  0  0  0  0  0  0  0999 V2000
   -1.8670   -0.3620   -1.3300 O   0  0  0  0  0  0  0  0  0  0  0  0
   -1.0100   -0.2880   -0.3410 C   0  0  0  0  0  0  0  0  0  0  0  0
   -1.5920   -0.1680    0.9600 C   0  0  0  0  0  0  0  0  0  0  0  0
   -1.1170   -0.0900    2.1460 C   0  0  0  0  0  0  0  0  0  0  0  0
    0.2490   -0.0990    2.6600 C   0  0  0  0  0  0  0  0  0  0  0  0
    0.4880    1.2450    3.1440 O   0  0  0  0  0  0  0  0  0  0  0  0
   -0.5860    1.7290    3.9220 C   0  0  0  0  0  0  0  0  0  0  0  0
   -0.7060    2.9270    4.2370 O   0  0  0  0  0  0  0  0  0  0  0  0
   -1.6000    0.7350    4.3670 C   0  0  0  0  0  0  0  0  0  0  0  0
   -2.1090    0.0350    3.2080 O   0  0  0  0  0  0  0  0  0  0  0  0
    0.3250   -0.3390   -0.7450 N   0  0  0  0  0  0  0  0  0  0  0  0
    0.8160   -0.4650   -2.0760 C   0  0  0  0  0  0  0  0  0  0  0  0
    0.1730   -0.5690   -3.2880 C   0  0  0  0  0  0  0  0  0  0  0  0
    0.9110   -0.6770   -4.3890 C   0  0  0  0  0  0  0  0  0  0  0  0
    2.3020   -0.6810   -4.2790 C   0  0  0  0  0  0  0  0  0  0  0  0
    3.3000   -0.7790   -5.2420 O   0  0  0  0  0  0  0  0  0  0  0  0
    2.5470   -0.5200   -2.4880 S   0  0  0  0  0  0  0  0  0  0  0  0
  1  2  2  0
  2  3  1  0
  2 11  1  0
  3  4  2  3
  4  5  1  0
  4 10  1  0
  5  6  1  0
  6  7  1  0
  7  8  2  0
  7  9  1  0
  9 10  1  0
 11 12  1  0
 12 13  2  0
 12 17  1  0
 13 14  1  0
 14 15  2  0
 15 16  1  0
 15 17  1  0
M  END
