
     RDKit          3D

 18 18  0  0  0  0  0  0  0  0999 V2000
    5.9660    1.8390    0.0070 N   0  0  0  0  0  0  0  0  0  0  0  0
    4.6870    1.4090   -0.3750 C   0  0  0  0  0  0  0  0  0  0  0  0
    4.2210    1.7340   -1.4840 O   0  0  0  0  0  0  0  0  0  0  0  0
    3.8860    0.5740    0.5250 C   0  0  0  0  0  0  0  0  0  0  0  0
    4.3540    0.2430    1.6460 O   0  0  0  0  0  0  0  0  0  0  0  0
    2.6190    0.1280    0.1850 O   0  0  0  0  0  0  0  0  0  0  0  0
    1.9120   -0.6660    1.0930 C   0  0  0  0  0  0  0  0  0  0  0  0
    0.5760   -1.0650    0.5940 C   0  0  0  0  0  0  0  0  0  0  0  0
   -0.1550   -1.7830    1.3240 O   0  0  0  0  0  0  0  0  0  0  0  0
    0.0680   -0.7000   -0.6370 O   0  0  0  0  0  0  0  0  0  0  0  0
   -1.1450   -0.9960   -1.1950 C   0  0  0  0  0  0  0  0  0  0  0  0
   -2.3580   -0.3920   -0.5220 C   0  0  0  0  0  0  0  0  0  0  0  0
   -2.2650    0.3730    0.5120 C   0  0  0  0  0  0  0  0  0  0  0  0
   -3.2480    1.0610    1.3270 C   0  0  0  0  0  0  0  0  0  0  0  0
   -4.9110    0.7630    0.7340 S   0  0  0  0  0  0  0  0  0  0  0  0
   -4.7790   -0.3030   -0.6770 C   0  0  0  0  0  0  0  0  0  0  0  0
   -3.6390   -0.7290   -1.1180 C   0  0  0  0  0  0  0  0  0  0  0  0
   -3.6900   -1.5720   -2.2510 O   0  0  0  0  0  0  0  0  0  0  0  0
  1  2  1  0
  2  3  2  0
  2  4  1  0
  4  5  2  0
  4  6  1  0
  6  7  1  0
  7  8  1  0
  8  9  2  0
  8 10  1  0
 10 11  1  0
 11 12  1  0
 12 13  2  0
 12 17  1  0
 13 14  1  0
 14 15  1  0
 15 16  1  0
 16 17  2  0
 17 18  1  0
M  END
