
     RDKit          3D

 14 15  0  0  0  0  0  0  0  0999 V2000
    3.8220   -1.1100    0.0920 C   0  0  0  0  0  0  0  0  0  0  0  0
    2.3160   -0.9310    0.0690 C   0  0  0  0  0  0  0  0  0  0  0  0
    1.5950   -1.9440    0.1030 O   0  0  0  0  0  0  0  0  0  0  0  0
    1.7650    0.3490    0.0120 N   0  0  0  0  0  0  0  0  0  0  0  0
    0.4250    0.7540   -0.0190 C   0  0  0  0  0  0  0  0  0  0  0  0
   -0.6260   -0.0380    0.0020 C   0  0  0  0  0  0  0  0  0  0  0  0
   -0.7340   -1.4240    0.0570 O   0  0  0  0  0  0  0  0  0  0  0  0
   -2.0780   -1.8290    0.0600 C   0  0  0  0  0  0  0  0  0  0  0  0
   -2.8750   -0.5800    0.0000 C   0  0  0  0  0  0  0  0  0  0  0  0
   -2.0070    0.4250   -0.0310 C   0  0  0  0  0  0  0  0  0  0  0  0
   -2.2890    1.8690   -0.0930 C   0  0  0  0  0  0  0  0  0  0  0  0
   -1.1480    2.6390   -0.1120 O   0  0  0  0  0  0  0  0  0  0  0  0
    0.1540    2.1950   -0.0800 C   0  0  0  0  0  0  0  0  0  0  0  0
    1.1270    3.0320   -0.1040 O   0  0  0  0  0  0  0  0  0  0  0  0
  1  2  1  0
  2  3  2  0
  2  4  1  0
  4  5  1  0
  5  6  2  0
  5 13  1  0
  6  7  1  0
  6 10  1  0
  7  8  1  0
  8  9  1  0
  9 10  2  0
 10 11  1  0
 11 12  1  0
 12 13  1  0
 13 14  2  0
M  END
