
     RDKit          3D

 17 17  0  0  0  0  0  0  0  0999 V2000
    4.1750    1.7810   -0.9960 C   0  0  0  0  0  0  0  0  0  0  0  0
    3.4680    0.6760   -0.4790 O   0  0  0  0  0  0  0  0  0  0  0  0
    2.0720    0.8220   -0.3130 C   0  0  0  0  0  0  0  0  0  0  0  0
    1.5680    1.8970   -0.6270 O   0  0  0  0  0  0  0  0  0  0  0  0
    1.3470   -0.2960    0.2110 C   0  0  0  0  0  0  0  0  0  0  0  0
    0.0760   -0.3290    0.4240 C   0  0  0  0  0  0  0  0  0  0  0  0
   -0.8300    0.7440    0.1740 C   0  0  0  0  0  0  0  0  0  0  0  0
   -2.1350    0.5610    0.4470 C   0  0  0  0  0  0  0  0  0  0  0  0
   -2.5850   -0.7230    0.9900 C   0  0  0  0  0  0  0  0  0  0  0  0
   -3.9520   -0.6340    1.2520 O   0  0  0  0  0  0  0  0  0  0  0  0
   -4.6350   -0.2560    0.1170 C   0  0  0  0  0  0  0  0  0  0  0  0
   -4.3370    1.1860   -0.2710 C   0  0  0  0  0  0  0  0  0  0  0  0
   -3.0400    1.5640    0.2220 O   0  0  0  0  0  0  0  0  0  0  0  0
    2.0570   -1.5010    0.5400 O   0  0  0  0  0  0  0  0  0  0  0  0
    2.7610   -2.0600   -0.5020 C   0  0  0  0  0  0  0  0  0  0  0  0
    4.1620   -2.1890   -0.4160 N   0  0  0  0  0  0  0  0  0  0  0  0
    1.9710   -2.5660   -1.8230 S   0  0  0  0  0  0  0  0  0  0  0  0
  1  2  1  0
  2  3  1  0
  3  4  2  0
  3  5  1  0
  5  6  2  3
  5 14  1  0
  6  7  1  0
  7  8  2  3
  8  9  1  0
  8 13  1  0
  9 10  1  0
 10 11  1  0
 11 12  1  0
 12 13  1  0
 14 15  1  0
 15 16  1  0
 15 17  2  0
M  END
