
     RDKit          3D

 18 18  0  0  0  0  0  0  0  0999 V2000
    4.4490    2.0590   -1.3650 C   0  0  0  0  0  0  0  0  0  0  0  0
    3.2110    1.4220   -0.9130 C   0  0  0  0  0  0  0  0  0  0  0  0
    3.1850    0.1420   -0.5940 C   0  0  0  0  0  0  0  0  0  0  0  0
    4.4480   -0.6160   -0.7100 C   0  0  0  0  0  0  0  0  0  0  0  0
    1.9520   -0.5050   -0.1390 C   0  0  0  0  0  0  0  0  0  0  0  0
    0.7740    0.2070   -0.0180 C   0  0  0  0  0  0  0  0  0  0  0  0
   -0.4410   -0.3550    0.4090 C   0  0  0  0  0  0  0  0  0  0  0  0
   -1.6050    0.5130    0.5280 C   0  0  0  0  0  0  0  0  0  0  0  0
   -2.7670    0.3900   -0.0410 C   0  0  0  0  0  0  0  0  0  0  0  0
   -3.8030    1.4490    0.2700 C   0  0  0  0  0  0  0  0  0  0  0  0
   -4.2000    2.1170   -0.9640 N   0  0  0  0  0  0  0  0  0  0  0  0
   -3.1930   -0.6560   -0.9900 C   0  0  0  0  0  0  0  0  0  0  0  0
   -4.6160   -1.5050   -0.2890 Cl  0  0  0  0  0  0  0  0  0  0  0  0
   -0.3970   -1.6890    0.7110 C   0  0  0  0  0  0  0  0  0  0  0  0
   -1.6420   -2.3610    1.2250 C   0  0  0  0  0  0  0  0  0  0  0  0
    0.7500   -2.4410    0.6060 C   0  0  0  0  0  0  0  0  0  0  0  0
    1.9340   -1.8310    0.1740 C   0  0  0  0  0  0  0  0  0  0  0  0
    3.3500   -2.8910    0.0720 Cl  0  0  0  0  0  0  0  0  0  0  0  0
  1  2  1  0
  2  3  2  3
  3  4  1  0
  3  5  1  0
  5  6  2  0
  5 17  1  0
  6  7  1  0
  7  8  1  0
  7 14  2  0
  8  9  2  3
  9 10  1  0
  9 12  1  0
 10 11  1  0
 12 13  1  0
 14 15  1  0
 14 16  1  0
 16 17  2  0
 17 18  1  0
M  CHG  1  11   1
M  END
