
     RDKit          3D

 18 19  0  0  0  0  0  0  0  0999 V2000
   -2.2530   -1.8980   -0.8460 C   0  0  0  0  0  0  0  0  0  0  0  0
   -2.1780   -0.5520   -1.5270 C   0  0  0  0  0  0  0  0  0  0  0  0
   -2.2790    0.5320   -0.5580 C   0  0  0  0  0  0  0  0  0  0  0  0
   -3.5200    1.1800   -0.4480 C   0  0  0  0  0  0  0  0  0  0  0  0
   -3.7270    2.2240    0.4330 C   0  0  0  0  0  0  0  0  0  0  0  0
   -2.6880    2.6540    1.2370 C   0  0  0  0  0  0  0  0  0  0  0  0
   -1.4510    2.0510    1.1680 C   0  0  0  0  0  0  0  0  0  0  0  0
   -1.2910    1.0100    0.2710 C   0  0  0  0  0  0  0  0  0  0  0  0
   -0.0030    0.3700    0.2030 C   0  0  0  0  0  0  0  0  0  0  0  0
    0.9180    0.8220   -0.7110 C   0  0  0  0  0  0  0  0  0  0  0  0
    0.5250    2.1640   -1.8170 Cl  0  0  0  0  0  0  0  0  0  0  0  0
    2.1520    0.2240   -0.7600 C   0  0  0  0  0  0  0  0  0  0  0  0
    2.5000   -0.8150    0.0750 C   0  0  0  0  0  0  0  0  0  0  0  0
    3.8490   -1.3950   -0.0540 C   0  0  0  0  0  0  0  0  0  0  0  0
    4.7240   -0.6180    0.8350 N   0  0  0  0  0  0  0  0  0  0  0  0
    1.5610   -1.2530    0.9840 C   0  0  0  0  0  0  0  0  0  0  0  0
    0.3110   -0.6620    1.0490 C   0  0  0  0  0  0  0  0  0  0  0  0
   -0.8370   -1.2720    2.2650 Cl  0  0  0  0  0  0  0  0  0  0  0  0
  1  2  1  0
  2  3  1  0
  3  4  2  0
  3  8  1  0
  4  5  1  0
  5  6  2  0
  6  7  1  0
  7  8  2  0
  8  9  1  0
  9 10  2  0
  9 17  1  0
 10 11  1  0
 10 12  1  0
 12 13  2  0
 13 14  1  0
 13 16  1  0
 14 15  1  0
 16 17  2  0
 17 18  1  0
M  CHG  1  15   1
M  END
