
     RDKit          3D

 18 19  0  0  0  0  0  0  0  0999 V2000
   -2.3460   -1.4310    1.0520 C   0  0  0  0  0  0  0  0  0  0  0  0
   -1.9070   -1.4550   -0.4620 C   0  0  0  0  0  0  0  0  0  0  0  0
   -1.7150   -0.0030   -0.8640 C   0  0  1  0  0  0  0  0  0  0  0  0
   -3.0400    0.5330   -0.5940 N   0  0  0  0  0  0  0  0  0  0  0  0
   -0.5590    0.6580   -0.3120 C   0  0  0  0  0  0  0  0  0  0  0  0
   -0.6930    1.9700    0.1940 C   0  0  0  0  0  0  0  0  0  0  0  0
   -1.8820    2.8080   -0.0130 C   0  0  0  0  0  0  0  0  0  0  0  0
    0.4330    2.4840    0.8320 C   0  0  0  0  0  0  0  0  0  0  0  0
    0.2800    4.1390    1.4890 Cl  0  0  0  0  0  0  0  0  0  0  0  0
    1.6150    1.8400    0.9940 C   0  0  0  0  0  0  0  0  0  0  0  0
    1.7220    0.5470    0.4660 C   0  0  0  0  0  0  0  0  0  0  0  0
    2.9770   -0.0310    0.5500 C   0  0  0  0  0  0  0  0  0  0  0  0
    3.1910   -1.2510   -0.0550 C   0  0  0  0  0  0  0  0  0  0  0  0
    4.5100   -1.9170   -0.0060 C   0  0  0  0  0  0  0  0  0  0  0  0
    2.1440   -1.8320   -0.7150 C   0  0  0  0  0  0  0  0  0  0  0  0
    2.3550   -3.3920   -1.5240 Cl  0  0  0  0  0  0  0  0  0  0  0  0
    0.9180   -1.2460   -0.7810 C   0  0  0  0  0  0  0  0  0  0  0  0
    0.6510   -0.0340   -0.1810 C   0  0  0  0  0  0  0  0  0  0  0  0
  1  2  1  0
  2  3  1  0
  3  4  1  1
  3  5  1  0
  5  6  2  0
  5 18  1  0
  6  7  1  0
  6  8  1  0
  8  9  1  0
  8 10  2  0
 10 11  1  0
 11 12  2  0
 11 18  1  0
 12 13  1  0
 13 14  1  0
 13 15  2  0
 15 16  1  0
 15 17  1  0
 17 18  2  0
M  CHG  1   4   1
M  END
