
     RDKit          3D

 18 19  0  0  0  0  0  0  0  0999 V2000
   -2.4050   -1.8950   -1.8790 C   0  0  0  0  0  0  0  0  0  0  0  0
   -2.0710   -1.8560   -0.4900 N   0  0  0  0  0  0  0  0  0  0  0  0
   -1.1190   -0.8280   -0.1370 C   0  0  1  0  0  0  0  0  0  0  0  0
   -1.4770    0.5390   -0.5290 C   0  0  0  0  0  0  0  0  0  0  0  0
   -2.7190    1.1670   -0.0560 C   0  0  0  0  0  0  0  0  0  0  0  0
   -2.8760    1.3480    1.4210 C   0  0  0  0  0  0  0  0  0  0  0  0
   -4.4620    2.1550    1.6910 Cl  0  0  0  0  0  0  0  0  0  0  0  0
   -0.6700   -1.0840    1.2690 C   0  0  0  0  0  0  0  0  0  0  0  0
    0.3640   -0.1370    1.7460 C   0  0  0  0  0  0  0  0  0  0  0  0
    1.4090    0.0980    0.7330 C   0  0  0  0  0  0  0  0  0  0  0  0
    2.5470    0.8310    1.1140 C   0  0  0  0  0  0  0  0  0  0  0  0
    3.5270    1.0640    0.1990 C   0  0  0  0  0  0  0  0  0  0  0  0
    4.7380    1.8430    0.5980 C   0  0  0  0  0  0  0  0  0  0  0  0
    3.4090    0.5910   -1.0810 C   0  0  0  0  0  0  0  0  0  0  0  0
    2.3110   -0.1260   -1.4760 C   0  0  0  0  0  0  0  0  0  0  0  0
    2.1390   -0.7370   -3.0990 Cl  0  0  0  0  0  0  0  0  0  0  0  0
    1.3120   -0.3600   -0.5320 C   0  0  0  0  0  0  0  0  0  0  0  0
    0.1570   -1.1340   -1.0030 C   0  0  0  0  0  0  0  0  0  0  0  0
  1  2  1  0
  2  3  1  0
  3  4  1  1
  3  8  1  0
  3 18  1  0
  4  5  1  0
  5  6  1  0
  6  7  1  0
  8  9  1  0
  9 10  1  0
 10 11  2  0
 10 17  1  0
 11 12  1  0
 12 13  1  0
 12 14  2  0
 14 15  1  0
 15 16  1  0
 15 17  2  0
 17 18  1  0
M  CHG  1   2   1
M  END
