
     RDKit          3D

 18 19  0  0  0  0  0  0  0  0999 V2000
   -3.7220   -2.0830   -0.0730 C   0  0  0  0  0  0  0  0  0  0  0  0
   -3.1000   -0.7760   -0.4760 C   0  0  0  0  0  0  0  0  0  0  0  0
   -1.6340   -0.6770   -0.3630 C   0  0  0  0  0  0  0  0  0  0  0  0
   -0.8420   -1.7510   -0.3770 C   0  0  0  0  0  0  0  0  0  0  0  0
   -1.4140   -3.3820   -0.6160 Cl  0  0  0  0  0  0  0  0  0  0  0  0
    0.5230   -1.5290   -0.1540 C   0  0  0  0  0  0  0  0  0  0  0  0
    1.0290   -0.2650    0.0710 C   0  0  0  0  0  0  0  0  0  0  0  0
    2.5230   -0.1130    0.0200 C   0  0  0  0  0  0  0  0  0  0  0  0
    3.3260   -1.1970    0.1890 C   0  0  0  0  0  0  0  0  0  0  0  0
    4.6610   -1.0640    0.0160 C   0  0  0  0  0  0  0  0  0  0  0  0
    5.2140    0.1680   -0.3230 C   0  0  0  0  0  0  0  0  0  0  0  0
    6.9480    0.2290   -0.6060 Cl  0  0  0  0  0  0  0  0  0  0  0  0
    4.4230    1.2630   -0.4790 C   0  0  0  0  0  0  0  0  0  0  0  0
    3.0520    1.1270   -0.3070 C   0  0  0  0  0  0  0  0  0  0  0  0
    0.1650    0.8120    0.0790 C   0  0  0  0  0  0  0  0  0  0  0  0
   -1.1930    0.6600   -0.1440 C   0  0  0  0  0  0  0  0  0  0  0  0
   -2.1070    1.7050   -0.5580 C   0  0  0  0  0  0  0  0  0  0  0  0
   -2.8140    2.5790    0.2490 N   0  0  0  0  0  0  0  0  0  0  0  0
  1  2  1  0
  2  3  1  0
  3  4  2  0
  3 16  1  0
  4  5  1  0
  4  6  1  0
  6  7  2  0
  7  8  1  0
  7 15  1  0
  8  9  2  0
  8 14  1  0
  9 10  1  0
 10 11  2  0
 11 12  1  0
 11 13  1  0
 13 14  2  0
 15 16  2  0
 16 17  1  0
 17 18  1  0
M  CHG  1  18   1
M  END
