
     RDKit          3D

 18 19  0  0  0  0  0  0  0  0999 V2000
    0.8150    0.7770    2.7060 C   0  0  0  0  0  0  0  0  0  0  0  0
    1.3180   -0.4060    2.5170 C   0  0  0  0  0  0  0  0  0  0  0  0
    1.4950   -1.4560    3.9440 Cl  0  0  0  0  0  0  0  0  0  0  0  0
    1.7080   -0.8520    1.1820 C   0  0  0  0  0  0  0  0  0  0  0  0
    2.2270   -2.0750    1.0930 C   0  0  0  0  0  0  0  0  0  0  0  0
    2.6910   -2.7470   -0.1370 C   0  0  0  0  0  0  0  0  0  0  0  0
    2.4220   -3.0810    2.5570 Cl  0  0  0  0  0  0  0  0  0  0  0  0
    1.4540    0.0600    0.0610 C   0  0  1  0  0  0  0  0  0  0  0  0
    2.1890   -0.1640   -1.1410 N   0  0  0  0  0  0  0  0  0  0  0  0
   -0.0010    0.2470   -0.2370 C   0  0  0  0  0  0  0  0  0  0  0  0
   -0.8300   -0.8880   -0.2450 C   0  0  0  0  0  0  0  0  0  0  0  0
   -2.1740   -0.8150   -0.5170 C   0  0  0  0  0  0  0  0  0  0  0  0
   -2.9690   -2.0710   -0.5020 C   0  0  0  0  0  0  0  0  0  0  0  0
   -2.7370    0.4060   -0.7930 C   0  0  0  0  0  0  0  0  0  0  0  0
   -1.9810    1.5390   -0.7990 C   0  0  0  0  0  0  0  0  0  0  0  0
   -2.5760    2.8870   -1.0990 C   0  0  0  0  0  0  0  0  0  0  0  0
   -0.6140    1.4380   -0.5180 C   0  0  0  0  0  0  0  0  0  0  0  0
    0.1430    2.7020   -0.5280 C   0  0  0  0  0  0  0  0  0  0  0  0
  1  2  2  0
  2  3  1  0
  2  4  1  0
  4  5  2  0
  4  8  1  0
  5  6  1  0
  5  7  1  0
  8  9  1  6
  8 10  1  0
 10 11  2  0
 10 17  1  0
 11 12  1  0
 12 13  1  0
 12 14  2  0
 14 15  1  0
 15 16  1  0
 15 17  2  0
 17 18  1  0
  7  3  1  0
M  CHG  1   9   1
M  END
