
     RDKit          3D

 13 12  0  0  0  0  0  0  0  0999 V2000
    5.4790    0.0300   -0.9880 C   0  0  0  0  0  0  0  0  0  0  0  0
    4.0620    0.5520   -0.8080 C   0  0  0  0  0  0  0  0  0  0  0  0
    3.4280   -0.3070    0.0900 O   0  0  0  0  0  0  0  0  0  0  0  0
    1.8530    0.1350    0.3940 S   0  0  2  0  0  0  0  0  0  0  0  0
    1.4370    1.3370   -0.4180 O   0  0  0  0  0  0  0  0  0  0  0  0
    1.7700    0.4610    1.8790 O   0  0  0  0  0  0  0  0  0  0  0  0
    0.7290   -1.1540    0.0640 C   0  0  0  0  0  0  0  0  0  0  0  0
   -0.5590   -1.0750    0.3580 C   0  0  0  0  0  0  0  0  0  0  0  0
   -1.1050    0.1350    0.9910 C   0  0  0  0  0  0  0  0  0  0  0  0
   -2.3620    0.3000    1.3160 C   0  0  0  0  0  0  0  0  0  0  0  0
   -3.4550   -0.6730    1.1160 C   0  0  0  0  0  0  0  0  0  0  0  0
   -4.4830    0.0150    0.2080 C   0  0  0  0  0  0  0  0  0  0  0  0
   -3.8370    0.3440   -1.0290 N   0  0  0  0  0  0  0  0  0  0  0  0
  1  2  1  0
  2  3  1  0
  4  3  1  6
  4  5  2  0
  4  6  2  0
  4  7  1  0
  7  8  2  3
  8  9  1  0
  9 10  2  3
 10 11  1  0
 11 12  1  0
 12 13  1  0
M  END
