
     RDKit          3D

 18 18  0  0  0  0  0  0  0  0999 V2000
    5.2030    0.2530   -1.6600 C   0  0  0  0  0  0  0  0  0  0  0  0
    3.9220    0.4290   -1.7040 C   0  0  0  0  0  0  0  0  0  0  0  0
    2.9520   -0.0250   -0.6650 C   0  0  0  0  0  0  0  0  0  0  0  0
    3.4910   -0.7180    0.5000 C   0  0  0  0  0  0  0  0  0  0  0  0
    1.7070    0.2470   -0.8850 C   0  0  0  0  0  0  0  0  0  0  0  0
    0.5000   -0.0200   -0.1350 C   0  0  0  0  0  0  0  0  0  0  0  0
   -0.6930    0.4180   -0.6450 C   0  0  0  0  0  0  0  0  0  0  0  0
   -0.5650    1.1000   -1.8940 N   0  0  0  0  0  0  0  0  0  0  0  0
   -1.9460    0.2420    0.0320 C   0  0  0  0  0  0  0  0  0  0  0  0
   -3.1070    0.6210   -0.4070 C   0  0  0  0  0  0  0  0  0  0  0  0
   -4.2950    0.3010    0.5430 C   0  0  0  0  0  0  0  0  0  0  0  0
   -3.5610    1.2950   -1.6120 C   0  0  2  0  0  0  0  0  0  0  0  0
   -3.0290    0.6900   -3.1560 Cl  0  0  0  0  0  0  0  0  0  0  0  0
   -3.2870    3.0590   -1.4290 Cl  0  0  0  0  0  0  0  0  0  0  0  0
   -1.8580   -0.4570    1.3390 C   0  0  0  0  0  0  0  0  0  0  0  0
   -0.7280   -0.8930    1.8500 C   0  0  0  0  0  0  0  0  0  0  0  0
   -0.7650   -1.5870    3.1920 C   0  0  0  0  0  0  0  0  0  0  0  0
    0.5280   -0.7510    1.1190 C   0  0  0  0  0  0  0  0  0  0  0  0
  1  2  2  0
  2  3  1  0
  3  4  1  0
  3  5  2  3
  5  6  1  0
  6  7  2  0
  6 18  1  0
  7  8  1  0
  7  9  1  0
  9 10  2  3
  9 15  1  0
 10 11  1  0
 10 12  1  0
 12 13  1  6
 12 14  1  0
 15 16  2  0
 16 17  1  0
 16 18  1  0
M  END
