
     RDKit          3D

 18 20  0  0  0  0  0  0  0  0999 V2000
   -5.5210   -0.7480    0.9760 N   0  0  0  0  0  0  0  0  0  0  0  0
   -5.1460   -0.4690   -0.4190 C   0  0  0  0  0  0  0  0  0  0  0  0
   -3.7210    0.0150   -0.3430 C   0  0  0  0  0  0  0  0  0  0  0  0
   -2.7630   -0.6370   -0.9760 C   0  0  0  0  0  0  0  0  0  0  0  0
   -3.2160   -2.0660   -1.8930 Cl  0  0  0  0  0  0  0  0  0  0  0  0
   -1.3640   -0.2070   -0.9320 C   0  0  0  0  0  0  0  0  0  0  0  0
   -0.9600    0.9030   -0.2290 C   0  0  0  0  0  0  0  0  0  0  0  0
    0.3870    1.2630   -0.2250 C   0  0  0  0  0  0  0  0  0  0  0  0
    1.3370    0.5380   -0.9070 C   0  0  0  0  0  0  0  0  0  0  0  0
    2.7400    0.9480   -0.8770 C   0  0  0  0  0  0  0  0  0  0  0  0
    3.5040    0.3380    0.2390 C   0  0  0  0  0  0  0  0  0  0  0  0
    3.0620   -0.4930    1.1560 C   0  0  0  0  0  0  0  0  0  0  0  0
    4.2020   -0.8100    2.0380 C   0  0  0  0  0  0  0  0  0  0  0  0
    5.3430   -0.0400    1.4850 C   0  0  0  0  0  0  0  0  0  0  0  0
    4.9230    0.6190    0.4440 C   0  0  0  0  0  0  0  0  0  0  0  0
    0.9150   -0.5690   -1.6040 C   0  0  0  0  0  0  0  0  0  0  0  0
   -0.4190   -0.9340   -1.6150 C   0  0  0  0  0  0  0  0  0  0  0  0
   -0.9520   -2.3480   -2.5070 Cl  0  0  0  0  0  0  0  0  0  0  0  0
  1  2  1  0
  2  3  1  0
  3  4  2  3
  4  5  1  0
  4  6  1  0
  6  7  2  0
  6 17  1  0
  7  8  1  0
  8  9  2  0
  9 10  1  0
  9 16  1  0
 10 11  1  0
 11 12  2  0
 11 15  1  0
 12 13  1  0
 13 14  1  0
 14 15  2  0
 16 17  2  0
 17 18  1  0
 18  5  1  0
M  CHG  1   1   1
M  END
