
     RDKit          3D

 18 19  0  0  0  0  0  0  0  0999 V2000
   -4.0080    1.3170   -2.1910 C   0  0  0  0  0  0  0  0  0  0  0  0
   -3.1080    0.7700   -1.1410 C   0  0  0  0  0  0  0  0  0  0  0  0
   -3.6220    0.2480    0.0200 C   0  0  0  0  0  0  0  0  0  0  0  0
   -2.8130   -0.3070    0.9820 C   0  0  0  0  0  0  0  0  0  0  0  0
   -3.3540   -0.8180    2.2680 C   0  0  0  0  0  0  0  0  0  0  0  0
   -1.4360   -0.3540    0.8000 C   0  0  0  0  0  0  0  0  0  0  0  0
   -0.6150   -0.9320    1.7360 C   0  0  0  0  0  0  0  0  0  0  0  0
    0.7170   -0.9770    1.5020 C   0  0  0  0  0  0  0  0  0  0  0  0
    1.7870   -1.7030    2.7030 Cl  0  0  0  0  0  0  0  0  0  0  0  0
    1.2790   -0.4590    0.3690 C   0  0  0  0  0  0  0  0  0  0  0  0
    2.7410   -0.6320    0.1430 C   0  0  1  0  0  0  0  0  0  0  0  0
    2.8570   -1.2290   -1.1880 N   0  0  0  0  0  0  0  0  0  0  0  0
    3.3280    0.7610    0.1600 C   0  0  1  0  0  0  0  0  0  0  0  0
    4.8000    0.8880   -0.0570 C   0  0  0  0  0  0  0  0  0  0  0  0
    2.3920    1.9990   -0.6370 Cl  0  0  0  0  0  0  0  0  0  0  0  0
    0.4770    0.1180   -0.5730 C   0  0  0  0  0  0  0  0  0  0  0  0
   -0.9000    0.1820   -0.3830 C   0  0  0  0  0  0  0  0  0  0  0  0
   -1.7540    0.7320   -1.3280 C   0  0  0  0  0  0  0  0  0  0  0  0
  1  2  1  0
  2  3  2  0
  2 18  1  0
  3  4  1  0
  4  5  1  0
  4  6  2  0
  6  7  1  0
  6 17  1  0
  7  8  2  0
  8  9  1  0
  8 10  1  0
 10 11  1  0
 10 16  2  0
 11 12  1  6
 11 13  1  0
 13 14  1  6
 13 15  1  0
 16 17  1  0
 17 18  2  0
M  CHG  1  12   1
M  END
