
     RDKit          3D

 18 19  0  0  0  0  0  0  0  0999 V2000
   -5.1290   -1.2320   -0.5380 C   0  0  0  0  0  0  0  0  0  0  0  0
   -3.9070   -0.4680   -0.1640 C   0  0  0  0  0  0  0  0  0  0  0  0
   -3.1340   -0.8750    0.9010 C   0  0  0  0  0  0  0  0  0  0  0  0
   -1.9900   -0.2000    1.2890 C   0  0  0  0  0  0  0  0  0  0  0  0
   -1.5800    0.9260    0.6040 C   0  0  0  0  0  0  0  0  0  0  0  0
   -0.3680    1.6580    0.9990 C   0  0  0  0  0  0  0  0  0  0  0  0
    0.8520    1.1500    0.3010 C   0  0  0  0  0  0  0  0  0  0  0  0
    1.1580    1.7470   -0.9040 C   0  0  0  0  0  0  0  0  0  0  0  0
    2.2900    1.2990   -1.5850 C   0  0  0  0  0  0  0  0  0  0  0  0
    2.6700    2.0660   -3.1180 Cl  0  0  0  0  0  0  0  0  0  0  0  0
    3.0700    0.2920   -1.0620 C   0  0  0  0  0  0  0  0  0  0  0  0
    2.7400   -0.2850    0.1440 C   0  0  0  0  0  0  0  0  0  0  0  0
    3.5640   -1.3600    0.7140 C   0  0  0  0  0  0  0  0  0  0  0  0
    4.6780   -1.6570   -0.1640 N   0  0  0  0  0  0  0  0  0  0  0  0
    1.6140    0.1330    0.8600 C   0  0  0  0  0  0  0  0  0  0  0  0
   -2.3520    1.3450   -0.4710 C   0  0  0  0  0  0  0  0  0  0  0  0
   -3.4970    0.6580   -0.8470 C   0  0  0  0  0  0  0  0  0  0  0  0
   -4.4680    1.1960   -2.2110 Cl  0  0  0  0  0  0  0  0  0  0  0  0
  1  2  1  0
  2  3  2  0
  2 17  1  0
  3  4  1  0
  4  5  2  0
  5  6  1  0
  5 16  1  0
  6  7  1  0
  7  8  2  0
  7 15  1  0
  8  9  1  0
  9 10  1  0
  9 11  2  0
 11 12  1  0
 12 13  1  0
 12 15  2  0
 13 14  1  0
 16 17  2  0
 17 18  1  0
M  CHG  1  14   1
M  END
