
     RDKit          3D

 22 24  0  0  0  0  0  0  0  0999 V2000
   -0.0280   -0.5330   -2.1170 C   0  0  0  0  0  0  0  0  0  0  0  0
    0.5090   -0.5060   -0.6780 C   0  0  2  0  0  0  0  0  0  0  0  0
    1.7530   -1.1410   -0.6030 O   0  0  0  0  0  0  0  0  0  0  0  0
    2.9470   -0.5730   -0.2700 C   0  0  0  0  0  0  0  0  0  0  0  0
    3.0880    0.7600    0.0520 C   0  0  0  0  0  0  0  0  0  0  0  0
    4.3580    1.2450    0.3800 C   0  0  0  0  0  0  0  0  0  0  0  0
    4.5310    2.5780    0.7070 O   0  0  0  0  0  0  0  0  0  0  0  0
    5.4340    0.3980    0.3790 C   0  0  0  0  0  0  0  0  0  0  0  0
    5.2730   -0.9350    0.0540 C   0  0  0  0  0  0  0  0  0  0  0  0
    4.0520   -1.4300   -0.2690 C   0  0  0  0  0  0  0  0  0  0  0  0
    3.8290   -2.7550   -0.6020 O   0  0  0  0  0  0  0  0  0  0  0  0
   -0.4880   -1.1650    0.2210 C   0  0  0  0  0  0  0  0  0  0  0  0
   -0.1220   -2.1710    0.8820 O   0  0  0  0  0  0  0  0  0  0  0  0
   -1.7990   -0.6520    0.3070 N   0  0  0  0  0  0  0  0  0  0  0  0
   -2.3270    0.4890   -0.3940 C   0  0  0  0  0  0  0  0  0  0  0  0
   -3.0850    1.1910    0.7370 C   0  0  1  0  0  0  0  0  0  0  0  0
   -4.1210    2.0740    0.1420 C   0  0  0  0  0  0  0  0  0  0  0  0
   -5.2560    1.2760    0.0120 O   0  0  0  0  0  0  0  0  0  0  0  0
   -5.0090   -0.0450    0.3570 C   0  0  0  0  0  0  0  0  0  0  0  0
   -5.6520   -1.0140   -0.0720 O   0  0  0  0  0  0  0  0  0  0  0  0
   -3.8520   -0.0000    1.3120 C   0  0  1  0  0  0  0  0  0  0  0  0
   -2.9160   -1.1450    1.1140 C   0  0  0  0  0  0  0  0  0  0  0  0
  2  1  1  6
  2  3  1  0
  2 12  1  0
  3  4  1  0
  4  5  2  0
  4 10  1  0
  5  6  1  0
  6  7  1  0
  6  8  2  0
  8  9  1  0
  9 10  2  0
 10 11  1  0
 12 13  2  0
 12 14  1  0
 14 15  1  0
 14 22  1  0
 16 15  1  6
 16 17  1  0
 16 21  1  0
 17 18  1  0
 18 19  1  0
 19 20  2  0
 19 21  1  0
 21 22  1  6
M  END
