
     RDKit          3D

 22 23  0  0  0  0  0  0  0  0999 V2000
   -3.9450    4.4920   -0.1270 C   0  0  0  0  0  0  0  0  0  0  0  0
   -3.2580    3.5110    0.6060 O   0  0  0  0  0  0  0  0  0  0  0  0
   -2.9490    2.2530    0.1140 C   0  0  0  0  0  0  0  0  0  0  0  0
   -3.3030    1.9710   -1.0550 O   0  0  0  0  0  0  0  0  0  0  0  0
   -2.2130    1.2770    0.9710 C   0  0  0  0  0  0  0  0  0  0  0  0
   -1.9800   -0.0270    0.2430 C   0  0  1  0  0  0  0  0  0  0  0  0
   -1.1790    0.1470   -1.0000 C   0  0  0  0  0  0  0  0  0  0  0  0
    0.1760   -0.5210   -0.9220 C   0  0  1  0  0  0  0  0  0  0  0  0
    1.0500    0.3320   -0.0270 C   0  0  0  0  0  0  0  0  0  0  0  0
    2.3150   -0.1680    0.1260 O   0  0  0  0  0  0  0  0  0  0  0  0
    3.0370    0.6740    0.9530 C   0  0  0  0  0  0  0  0  0  0  0  0
    3.2390    2.0610    0.4480 C   0  0  0  0  0  0  0  0  0  0  0  0
    3.9960    2.0560   -0.8460 C   0  0  0  0  0  0  0  0  0  0  0  0
    3.2830    1.3340   -1.7860 O   0  0  0  0  0  0  0  0  0  0  0  0
    0.0310   -1.9070   -0.3410 C   0  0  0  0  0  0  0  0  0  0  0  0
   -0.7670   -2.0560    0.6930 C   0  0  0  0  0  0  0  0  0  0  0  0
   -1.4300   -0.9180    1.1870 O   0  0  0  0  0  0  0  0  0  0  0  0
   -0.7920   -3.4920    1.1450 C   0  0  1  0  0  0  0  0  0  0  0  0
   -1.9560   -4.2030    0.7340 N   0  0  0  0  0  0  0  0  0  0  0  0
    0.4820   -4.0380    0.5270 C   0  0  0  0  0  0  0  0  0  0  0  0
    0.6610   -3.2090   -0.7440 C   0  0  2  0  0  0  0  0  0  0  0  0
    1.9770   -3.0700   -1.1050 O   0  0  0  0  0  0  0  0  0  0  0  0
  1  2  1  0
  2  3  1  0
  3  4  2  0
  3  5  1  0
  6  5  1  1
  6  7  1  0
  6 17  1  0
  7  8  1  0
  8  9  1  1
  8 15  1  0
  9 10  1  0
 10 11  1  0
 11 12  1  0
 12 13  1  0
 13 14  1  0
 15 16  2  0
 15 21  1  0
 16 17  1  0
 16 18  1  0
 18 19  1  6
 18 20  1  0
 20 21  1  0
 21 22  1  1
M  END
