
     RDKit          3D

 22 23  0  0  0  0  0  0  0  0999 V2000
   -2.5460   -2.3090    0.6580 C   0  0  0  0  0  0  0  0  0  0  0  0
   -1.4190   -1.5130   -0.0470 C   0  0  1  0  0  0  0  0  0  0  0  0
   -1.1510   -2.3170   -1.2970 C   0  0  0  0  0  0  0  0  0  0  0  0
   -2.3580   -2.2580   -2.0470 O   0  0  0  0  0  0  0  0  0  0  0  0
   -1.9900   -0.1950   -0.4650 C   0  0  0  0  0  0  0  0  0  0  0  0
   -1.8240    0.9240    0.4870 C   0  0  0  0  0  0  0  0  0  0  0  0
   -1.7190    2.2830   -0.2040 C   0  0  0  0  0  0  0  0  0  0  0  0
   -0.6060    2.7160   -0.6180 C   0  0  0  0  0  0  0  0  0  0  0  0
   -1.1520    3.9480   -1.1290 C   0  0  0  0  0  0  0  0  0  0  0  0
   -2.4460    3.4530   -0.6560 C   0  0  0  0  0  0  0  0  0  0  0  0
    0.6850    1.9260   -0.4660 C   0  0  0  0  0  0  0  0  0  0  0  0
    1.0410    1.7530    0.8680 O   0  0  0  0  0  0  0  0  0  0  0  0
    1.8330    0.7070    1.3340 C   0  0  0  0  0  0  0  0  0  0  0  0
    1.7650    0.4490    2.5630 O   0  0  0  0  0  0  0  0  0  0  0  0
    2.7120   -0.0620    0.4190 C   0  0  1  0  0  0  0  0  0  0  0  0
    3.2290    0.7980   -0.5690 O   0  0  0  0  0  0  0  0  0  0  0  0
    3.9300   -0.5530    1.2120 C   0  0  0  0  0  0  0  0  0  0  0  0
    4.7860   -1.2230    0.3330 O   0  0  0  0  0  0  0  0  0  0  0  0
    2.0070   -1.2520   -0.2130 C   0  0  0  0  0  0  0  0  0  0  0  0
    1.0120   -1.7740    0.7410 C   0  0  0  0  0  0  0  0  0  0  0  0
    1.5150   -2.6550    1.5430 O   0  0  0  0  0  0  0  0  0  0  0  0
   -0.3440   -1.4420    0.8730 N   0  0  0  0  0  0  0  0  0  0  0  0
  2  1  1  1
  2  3  1  0
  2  5  1  0
  2 22  1  0
  3  4  1  0
  5  6  1  0
  6  7  1  0
  7  8  2  0
  7 10  1  0
  8  9  1  0
  8 11  1  0
  9 10  1  0
 11 12  1  0
 12 13  1  0
 13 14  2  0
 13 15  1  0
 15 16  1  6
 15 17  1  0
 15 19  1  0
 17 18  1  0
 19 20  1  0
 20 21  2  0
 20 22  1  0
M  END
