
     RDKit          3D

 25 27  0  0  0  0  0  0  0  0999 V2000
    0.7410   -0.0520    1.8360 C   0  0  0  0  0  0  0  0  0  0  0  0
    0.0720    0.5110    0.7220 N   0  0  2  0  0  0  0  0  0  0  0  0
   -1.1580   -0.2040    0.3950 C   0  0  2  0  0  0  0  0  0  0  0  0
   -2.1110   -0.1890    1.5400 C   0  0  0  0  0  0  0  0  0  0  0  0
   -3.4150   -0.8940    1.2630 C   0  0  2  0  0  0  0  0  0  0  0  0
   -3.2460   -2.2160    0.9320 O   0  0  0  0  0  0  0  0  0  0  0  0
   -4.2800   -0.2220    0.2750 C   0  0  0  0  0  0  0  0  0  0  0  0
   -4.0670    1.0850   -0.1110 C   0  0  0  0  0  0  0  0  0  0  0  0
   -4.8640    1.7410   -1.0500 C   0  0  0  0  0  0  0  0  0  0  0  0
   -5.9050    1.0490   -1.6110 C   0  0  0  0  0  0  0  0  0  0  0  0
   -6.1470   -0.2410   -1.2550 C   0  0  0  0  0  0  0  0  0  0  0  0
   -5.3460   -0.8630   -0.3260 C   0  0  0  0  0  0  0  0  0  0  0  0
   -0.9100   -1.5840   -0.0910 C   0  0  0  0  0  0  0  0  0  0  0  0
    0.3240   -1.8810   -0.8450 C   0  0  0  0  0  0  0  0  0  0  0  0
    1.3400   -0.7980   -0.9000 C   0  0  0  0  0  0  0  0  0  0  0  0
    0.8540    0.5420   -0.4950 C   0  0  2  0  0  0  0  0  0  0  0  0
    1.8620    1.6240   -0.6000 C   0  0  0  0  0  0  0  0  0  0  0  0
    2.9070    1.6500    0.4460 C   0  0  0  0  0  0  0  0  0  0  0  0
    2.7150    2.2460    1.5590 O   0  0  0  0  0  0  0  0  0  0  0  0
    4.2320    1.0080    0.3070 C   0  0  0  0  0  0  0  0  0  0  0  0
    5.1220    1.0810    1.3570 C   0  0  0  0  0  0  0  0  0  0  0  0
    6.3610    0.4940    1.2410 C   0  0  0  0  0  0  0  0  0  0  0  0
    6.7300   -0.1690    0.0870 C   0  0  0  0  0  0  0  0  0  0  0  0
    5.8260   -0.2320   -0.9550 C   0  0  0  0  0  0  0  0  0  0  0  0
    4.5930    0.3560   -0.8310 C   0  0  0  0  0  0  0  0  0  0  0  0
  2  1  1  1
  2  3  1  0
  2 16  1  0
  3  4  1  1
  3 13  1  0
  4  5  1  0
  5  6  1  6
  5  7  1  0
  7  8  2  0
  7 12  1  0
  8  9  1  0
  9 10  2  0
 10 11  1  0
 11 12  2  0
 13 14  1  0
 14 15  1  0
 15 16  1  0
 16 17  1  1
 17 18  1  0
 18 19  2  0
 18 20  1  0
 20 21  2  0
 20 25  1  0
 21 22  1  0
 22 23  2  0
 23 24  1  0
 24 25  2  0
M  CHG  1   2   1
M  END
