
     RDKit          3D

 22 24  0  0  0  0  0  0  0  0999 V2000
    5.5040    0.5790   -1.4180 C   0  0  0  0  0  0  0  0  0  0  0  0
    5.0910   -0.4860   -0.6170 O   0  0  0  0  0  0  0  0  0  0  0  0
    3.8130   -0.5690   -0.0520 C   0  0  0  0  0  0  0  0  0  0  0  0
    2.9300    0.4560   -0.3080 C   0  0  0  0  0  0  0  0  0  0  0  0
    1.6470    0.4000    0.2430 C   0  0  0  0  0  0  0  0  0  0  0  0
    1.2340   -0.6470    1.0340 C   0  0  0  0  0  0  0  0  0  0  0  0
    2.1480   -1.6710    1.2760 C   0  0  0  0  0  0  0  0  0  0  0  0
    3.4340   -1.6330    0.7350 C   0  0  0  0  0  0  0  0  0  0  0  0
    4.3110   -2.6660    0.9980 O   0  0  0  0  0  0  0  0  0  0  0  0
   -0.1390   -0.6650    1.5980 C   0  0  0  0  0  0  0  0  0  0  0  0
   -1.0600   -0.0090    0.5970 C   0  0  1  0  0  0  0  0  0  0  0  0
   -1.0720   -0.8290   -0.5510 O   0  0  0  0  0  0  0  0  0  0  0  0
   -2.4730    0.0630    1.0930 C   0  0  2  0  0  0  0  0  0  0  0  0
   -3.1960   -1.2690    0.8950 C   0  0  0  0  0  0  0  0  0  0  0  0
   -3.1780   -1.5240   -0.4850 O   0  0  0  0  0  0  0  0  0  0  0  0
   -3.3060    1.1240    0.4300 C   0  0  0  0  0  0  0  0  0  0  0  0
   -2.7910    1.4850   -0.8960 N   0  0  0  0  0  0  0  0  0  0  0  0
   -3.6110    1.5230   -2.0670 C   0  0  0  0  0  0  0  0  0  0  0  0
   -1.4080    1.7990   -0.9440 C   0  0  0  0  0  0  0  0  0  0  0  0
   -0.9410    2.3990   -1.9380 O   0  0  0  0  0  0  0  0  0  0  0  0
   -0.5950    1.3770    0.2230 C   0  0  2  0  0  0  0  0  0  0  0  0
    0.7830    1.4460   -0.0330 O   0  0  0  0  0  0  0  0  0  0  0  0
  1  2  1  0
  2  3  1  0
  3  4  2  0
  3  8  1  0
  4  5  1  0
  5  6  2  0
  5 22  1  0
  6  7  1  0
  6 10  1  0
  7  8  2  0
  8  9  1  0
 10 11  1  0
 11 12  1  6
 11 13  1  0
 11 21  1  0
 13 14  1  6
 13 16  1  0
 14 15  1  0
 16 17  1  0
 17 18  1  0
 17 19  1  0
 19 20  2  0
 19 21  1  0
 21 22  1  6
M  END
