
     RDKit          3D

 22 23  0  0  0  0  0  0  0  0999 V2000
    6.8330    1.6680    0.3370 C   0  0  0  0  0  0  0  0  0  0  0  0
    5.5620    1.0220    0.1680 O   0  0  0  0  0  0  0  0  0  0  0  0
    4.3840    1.6900    0.3770 C   0  0  0  0  0  0  0  0  0  0  0  0
    4.4240    2.8980    0.7240 O   0  0  0  0  0  0  0  0  0  0  0  0
    3.0890    1.0160    0.2000 C   0  0  0  0  0  0  0  0  0  0  0  0
    1.9520    1.6290    0.3920 C   0  0  0  0  0  0  0  0  0  0  0  0
    0.6060    1.0140    0.2320 C   0  0  1  0  0  0  0  0  0  0  0  0
    0.0110    1.7380   -0.8390 O   0  0  0  0  0  0  0  0  0  0  0  0
    0.6660   -0.4070   -0.1710 C   0  0  0  0  0  0  0  0  0  0  0  0
   -0.5670   -1.1710   -0.3650 C   0  0  0  0  0  0  0  0  0  0  0  0
   -1.7770   -0.7160   -0.2090 C   0  0  0  0  0  0  0  0  0  0  0  0
   -2.0650    0.5870    0.1710 O   0  0  0  0  0  0  0  0  0  0  0  0
   -3.3420    1.0960    0.3440 C   0  0  0  0  0  0  0  0  0  0  0  0
   -3.5970    2.5010    0.7540 C   0  0  0  0  0  0  0  0  0  0  0  0
   -4.3450    0.2550    0.1230 C   0  0  0  0  0  0  0  0  0  0  0  0
   -4.1070   -1.1300   -0.2810 C   0  0  0  0  0  0  0  0  0  0  0  0
   -2.9030   -1.6430   -0.4530 C   0  0  0  0  0  0  0  0  0  0  0  0
   -2.6870   -2.9600   -0.8370 O   0  0  0  0  0  0  0  0  0  0  0  0
   -3.5240   -4.0260   -0.4460 C   0  0  0  0  0  0  0  0  0  0  0  0
    1.8560   -0.9580   -0.3470 C   0  0  0  0  0  0  0  0  0  0  0  0
    1.8940   -2.3110   -0.7330 N   0  0  0  0  0  0  0  0  0  0  0  0
    3.0670   -0.3110   -0.1800 O   0  0  0  0  0  0  0  0  0  0  0  0
  1  2  1  0
  2  3  1  0
  3  4  2  0
  3  5  1  0
  5  6  2  0
  5 22  1  0
  6  7  1  0
  7  8  1  6
  7  9  1  0
  9 10  1  0
  9 20  2  0
 10 11  2  3
 11 12  1  0
 11 17  1  0
 12 13  1  0
 13 14  1  0
 13 15  2  0
 15 16  1  0
 16 17  2  0
 17 18  1  0
 18 19  1  0
 20 21  1  0
 20 22  1  0
M  END
