
     RDKit          3D

 22 23  0  0  0  0  0  0  0  0999 V2000
   -5.1720   -2.7270   -1.1380 O   0  0  0  0  0  0  0  0  0  0  0  0
   -5.4290   -1.6830   -0.4740 C   0  0  0  0  0  0  0  0  0  0  0  0
   -5.7370   -0.4440   -1.1930 C   0  0  0  0  0  0  0  0  0  0  0  0
   -5.3050    0.7980   -0.4460 C   0  0  0  0  0  0  0  0  0  0  0  0
   -4.5270    0.4750    0.7970 C   0  0  2  0  0  0  0  0  0  0  0  0
   -3.2630   -0.0290    0.3890 O   0  0  0  0  0  0  0  0  0  0  0  0
   -2.1110    0.6210    0.7670 C   0  0  0  0  0  0  0  0  0  0  0  0
   -2.1990    1.6460    1.4640 O   0  0  0  0  0  0  0  0  0  0  0  0
   -0.8040    0.0460    0.3090 C   0  0  0  0  0  0  0  0  0  0  0  0
    0.3590    0.8800    0.8100 C   0  0  0  0  0  0  0  0  0  0  0  0
    1.6130    0.1930    0.2790 C   0  0  1  0  0  0  0  0  0  0  0  0
    1.6040    0.1470   -1.0920 O   0  0  0  0  0  0  0  0  0  0  0  0
    2.8580    0.8290    0.8020 C   0  0  0  0  0  0  0  0  0  0  0  0
    4.0470    0.1570    0.2910 C   0  0  0  0  0  0  0  0  0  0  0  0
    4.8390   -0.4670    1.1470 C   0  0  0  0  0  0  0  0  0  0  0  0
    6.0470   -1.1710    0.7640 C   0  0  0  0  0  0  0  0  0  0  0  0
    6.3790   -1.0440   -0.6170 N   0  0  0  0  0  0  0  0  0  0  0  0
    5.5520   -0.3830   -1.5390 C   0  0  0  0  0  0  0  0  0  0  0  0
    4.4240    0.1970   -1.0970 C   0  0  0  0  0  0  0  0  0  0  0  0
    3.6890    0.8270   -2.1050 O   0  0  0  0  0  0  0  0  0  0  0  0
   -5.2090   -0.5790    1.6450 C   0  0  0  0  0  0  0  0  0  0  0  0
   -5.4050   -1.7630    0.8980 O   0  0  0  0  0  0  0  0  0  0  0  0
  1  2  2  0
  2  3  1  0
  2 22  1  0
  3  4  1  0
  4  5  1  0
  5  6  1  6
  5 21  1  0
  6  7  1  0
  7  8  2  0
  7  9  1  0
  9 10  1  0
 10 11  1  0
 11 12  1  6
 11 13  1  0
 13 14  1  0
 14 15  2  0
 14 19  1  0
 15 16  1  0
 16 17  1  0
 17 18  1  0
 18 19  2  0
 19 20  1  0
 21 22  1  0
M  END
