
     RDKit          3D

 22 23  0  0  0  0  0  0  0  0999 V2000
    7.3520   -0.0430   -0.1940 C   0  0  0  0  0  0  0  0  0  0  0  0
    5.9490    0.1520   -0.3680 O   0  0  0  0  0  0  0  0  0  0  0  0
    5.0920    0.0910    0.7140 C   0  0  0  0  0  0  0  0  0  0  0  0
    5.5680   -0.1360    1.8430 O   0  0  0  0  0  0  0  0  0  0  0  0
    3.6460    0.3050    0.4490 C   0  0  1  0  0  0  0  0  0  0  0  0
    3.0250   -0.7840   -0.3580 C   0  0  0  0  0  0  0  0  0  0  0  0
    1.5250   -0.5840   -0.0580 C   0  0  2  0  0  0  0  0  0  0  0  0
    0.9360   -1.7570    0.3090 O   0  0  0  0  0  0  0  0  0  0  0  0
    0.8980    0.1940   -1.1560 C   0  0  0  0  0  0  0  0  0  0  0  0
   -0.4630    0.5930   -0.8150 N   0  0  0  0  0  0  0  0  0  0  0  0
   -1.5360   -0.2680   -0.5780 C   0  0  0  0  0  0  0  0  0  0  0  0
   -1.3300   -1.5280   -0.6770 O   0  0  0  0  0  0  0  0  0  0  0  0
   -2.8770    0.1170   -0.2290 C   0  0  0  0  0  0  0  0  0  0  0  0
   -3.8290   -0.8170   -0.0270 C   0  0  0  0  0  0  0  0  0  0  0  0
   -5.1810   -0.4780    0.3240 C   0  0  0  0  0  0  0  0  0  0  0  0
   -6.2210   -1.5490    0.5420 C   0  0  0  0  0  0  0  0  0  0  0  0
   -5.5870    0.7560    0.4710 C   0  0  0  0  0  0  0  0  0  0  0  0
   -4.6860    1.9100    0.2900 C   0  0  0  0  0  0  0  0  0  0  0  0
   -3.3000    1.4810   -0.0680 C   0  0  0  0  0  0  0  0  0  0  0  0
   -2.5000    2.4620   -0.2230 O   0  0  0  0  0  0  0  0  0  0  0  0
    1.6180    0.3740    1.1460 C   0  0  0  0  0  0  0  0  0  0  0  0
    2.9030    0.2140    1.6460 O   0  0  0  0  0  0  0  0  0  0  0  0
  1  2  1  0
  2  3  1  0
  3  4  2  0
  5  3  1  1
  5  6  1  0
  5 22  1  0
  6  7  1  0
  7  8  1  1
  7  9  1  0
  7 21  1  0
  9 10  1  0
 10 11  1  0
 11 12  2  0
 11 13  1  0
 13 14  2  0
 13 19  1  0
 14 15  1  0
 15 16  1  0
 15 17  2  0
 17 18  1  0
 18 19  1  0
 19 20  2  0
 21 22  1  0
M  END
