
     RDKit          3D

 22 23  0  0  0  0  0  0  0  0999 V2000
   -5.1060   -0.2080    0.6510 C   0  0  0  0  0  0  0  0  0  0  0  0
   -3.7110    0.1770    1.0330 C   0  0  0  0  0  0  0  0  0  0  0  0
   -2.7390   -0.1950   -0.0960 C   0  0  1  0  0  0  0  0  0  0  0  0
   -3.0940    0.5100   -1.3590 C   0  0  0  0  0  0  0  0  0  0  0  0
   -2.2870    0.0350   -2.3880 O   0  0  0  0  0  0  0  0  0  0  0  0
   -1.3680   -0.0250    0.3380 N   0  0  0  0  0  0  0  0  0  0  0  0
   -0.5380   -1.1750    0.4580 C   0  0  0  0  0  0  0  0  0  0  0  0
    0.6280   -1.3300   -0.4000 C   0  0  1  0  0  0  0  0  0  0  0  0
    0.5660   -2.6240   -0.9900 O   0  0  0  0  0  0  0  0  0  0  0  0
    0.8220   -0.3970   -1.5370 C   0  0  0  0  0  0  0  0  0  0  0  0
    2.1380    0.0390   -1.7600 O   0  0  0  0  0  0  0  0  0  0  0  0
    3.2970   -0.2030   -1.0280 C   0  0  0  0  0  0  0  0  0  0  0  0
    4.3830   -0.8670   -1.3610 C   0  0  0  0  0  0  0  0  0  0  0  0
    5.3620   -0.8630   -0.2520 C   0  0  0  0  0  0  0  0  0  0  0  0
    4.6480   -0.0790    0.7690 C   0  0  0  0  0  0  0  0  0  0  0  0
    3.4710    0.2960    0.3220 C   0  0  0  0  0  0  0  0  0  0  0  0
    2.5230    1.0470    0.9990 O   0  0  0  0  0  0  0  0  0  0  0  0
    1.9010    2.2580    0.5500 C   0  0  0  0  0  0  0  0  0  0  0  0
    0.8790    2.6320    1.4170 O   0  0  0  0  0  0  0  0  0  0  0  0
    0.0740    1.5410    1.6190 C   0  0  0  0  0  0  0  0  0  0  0  0
   -0.9640    1.3000    0.6150 C   0  0  0  0  0  0  0  0  0  0  0  0
   -1.4520    2.2980    0.0400 O   0  0  0  0  0  0  0  0  0  0  0  0
  1  2  1  0
  3  2  1  1
  3  4  1  0
  3  6  1  0
  4  5  1  0
  6  7  1  0
  6 21  1  0
  7  8  1  0
  8  9  1  6
  8 10  1  0
 10 11  1  0
 11 12  1  0
 12 13  2  0
 12 16  1  0
 13 14  1  0
 14 15  1  0
 15 16  2  0
 16 17  1  0
 17 18  1  0
 18 19  1  0
 19 20  1  0
 20 21  1  0
 21 22  2  0
M  END
