
     RDKit          3D

 33 37  0  0  0  0  0  0  0  0999 V2000
    9.3710    1.7320   -0.8050 C   0  0  0  0  0  0  0  0  0  0  0  0
    8.0110    1.9920   -0.2840 C   0  0  0  0  0  0  0  0  0  0  0  0
    7.6080    3.2760   -0.0490 C   0  0  0  0  0  0  0  0  0  0  0  0
    6.3430    3.5040    0.4320 C   0  0  0  0  0  0  0  0  0  0  0  0
    5.4720    2.4500    0.6820 C   0  0  0  0  0  0  0  0  0  0  0  0
    4.1740    2.6730    1.1720 N   0  0  0  0  0  0  0  0  0  0  0  0
    3.2820    1.5430    1.4260 C   0  0  0  0  0  0  0  0  0  0  0  0
    3.2140    0.3970    1.3810 N   0  0  0  0  0  0  0  0  0  0  0  0
    2.2270   -0.4200    1.6840 C   0  0  0  0  0  0  0  0  0  0  0  0
    2.2640   -1.9410    1.5810 C   0  0  0  0  0  0  0  0  0  0  0  0
    0.9190   -2.4690    1.6750 N   0  0  0  0  0  0  0  0  0  0  0  0
    0.0040   -2.4010    0.5860 C   0  0  0  0  0  0  0  0  0  0  0  0
    0.4580   -1.8440   -0.4710 O   0  0  0  0  0  0  0  0  0  0  0  0
   -1.3270   -2.9030    0.6260 N   0  0  0  0  0  0  0  0  0  0  0  0
   -2.1530   -2.7630   -0.5760 C   0  0  1  0  0  0  0  0  0  0  0  0
   -2.5110   -4.1540   -1.0330 C   0  0  0  0  0  0  0  0  0  0  0  0
   -3.3810   -4.7890    0.0280 C   0  0  0  0  0  0  0  0  0  0  0  0
   -4.6400   -4.0390    0.2660 C   0  0  0  0  0  0  0  0  0  0  0  0
   -4.5240   -2.5980    0.1030 N   0  0  0  0  0  0  0  0  0  0  0  0
   -5.4730   -1.6480    0.2970 N   0  0  0  0  0  0  0  0  0  0  0  0
   -4.9570   -0.4440    0.0370 C   0  0  0  0  0  0  0  0  0  0  0  0
   -3.6650   -0.6360   -0.3260 C   0  0  0  0  0  0  0  0  0  0  0  0
   -2.6280    0.3240   -0.7180 C   0  0  0  0  0  0  0  0  0  0  0  0
   -3.0320    1.6930   -0.7210 N   0  0  1  0  0  0  0  0  0  0  0  0
   -4.0520    1.9880   -1.6930 C   0  0  0  0  0  0  0  0  0  0  0  0
   -4.9190    3.0810   -1.1340 C   0  0  0  0  0  0  0  0  0  0  0  0
   -4.5120    3.2340    0.3200 C   0  0  0  0  0  0  0  0  0  0  0  0
   -3.4360    2.2180    0.5520 C   0  0  0  0  0  0  0  0  0  0  0  0
   -3.3960   -2.0220   -0.2800 C   0  0  0  0  0  0  0  0  0  0  0  0
    1.0960    0.2040    2.1270 C   0  0  0  0  0  0  0  0  0  0  0  0
    1.5580    1.9810    2.0690 S   0  0  0  0  0  0  0  0  0  0  0  0
    5.9160    1.2090    0.4350 N   0  0  0  0  0  0  0  0  0  0  0  0
    7.1510    0.9370   -0.0380 C   0  0  0  0  0  0  0  0  0  0  0  0
  1  2  1  0
  2  3  2  0
  2 33  1  0
  3  4  1  0
  4  5  2  0
  5  6  1  0
  5 32  1  0
  6  7  1  0
  7  8  2  0
  7 31  1  0
  8  9  1  0
  9 10  1  0
  9 30  2  0
 10 11  1  0
 11 12  1  0
 12 13  2  0
 12 14  1  0
 15 14  1  1
 15 16  1  0
 15 29  1  0
 16 17  1  0
 17 18  1  0
 18 19  1  0
 19 20  1  0
 19 29  1  0
 20 21  2  0
 21 22  1  0
 22 23  1  0
 22 29  2  0
 24 23  1  1
 24 25  1  0
 24 28  1  0
 25 26  1  0
 26 27  1  0
 27 28  1  0
 30 31  1  0
 32 33  2  0
M  CHG  1  24   1
M  END
