
     RDKit          3D

 33 37  0  0  0  0  0  0  0  0999 V2000
   -5.3240   -5.1000    1.4340 C   0  0  0  0  0  0  0  0  0  0  0  0
   -4.6010   -4.0340    2.2110 C   0  0  0  0  0  0  0  0  0  0  0  0
   -3.9370   -3.0730    1.2870 C   0  0  0  0  0  0  0  0  0  0  0  0
   -2.6440   -3.2510    0.8640 C   0  0  0  0  0  0  0  0  0  0  0  0
   -2.0740   -2.3370    0.0010 C   0  0  0  0  0  0  0  0  0  0  0  0
   -2.8110   -1.2610   -0.4210 C   0  0  0  0  0  0  0  0  0  0  0  0
   -2.2770   -0.2580   -1.3360 C   0  0  0  0  0  0  0  0  0  0  0  0
   -1.9620    0.9880   -0.7800 N   0  0  0  0  0  0  0  0  0  0  0  0
   -1.5210    2.0290   -1.6240 C   0  0  0  0  0  0  0  0  0  0  0  0
   -1.9920    3.3140   -1.1120 N   0  0  0  0  0  0  0  0  0  0  0  0
   -2.3210    4.3650   -2.0060 C   0  0  0  0  0  0  0  0  0  0  0  0
   -3.1230    5.4600   -1.8420 C   0  0  0  0  0  0  0  0  0  0  0  0
   -3.0990    6.1670   -3.0260 C   0  0  0  0  0  0  0  0  0  0  0  0
   -2.3050    5.5220   -3.8890 N   0  0  0  0  0  0  0  0  0  0  0  0
   -1.8520    4.4560   -3.2690 N   0  0  0  0  0  0  0  0  0  0  0  0
   -2.1060    3.4650    0.2860 C   0  0  0  0  0  0  0  0  0  0  0  0
   -2.4200    4.6050    0.7450 O   0  0  0  0  0  0  0  0  0  0  0  0
   -1.8670    2.3500    1.1230 N   0  0  0  0  0  0  0  0  0  0  0  0
   -1.5260    1.0410    0.5820 C   0  0  2  0  0  0  0  0  0  0  0  0
   -0.0110    0.9920    0.7090 C   0  0  0  0  0  0  0  0  0  0  0  0
    0.9030    1.2510    1.3340 N   0  0  0  0  0  0  0  0  0  0  0  0
    2.1800    1.0590    1.1720 C   0  0  0  0  0  0  0  0  0  0  0  0
    2.5310    0.3970   -0.0110 C   0  0  0  0  0  0  0  0  0  0  0  0
    3.7670   -0.0250   -0.6280 C   0  0  0  0  0  0  0  0  0  0  0  0
    4.9320    0.0600    0.1970 N   0  0  0  0  0  0  0  0  0  0  0  0
    6.1220   -0.2950   -0.5450 C   0  0  0  0  0  0  0  0  0  0  0  0
    7.2030   -0.7640    0.3960 C   0  0  0  0  0  0  0  0  0  0  0  0
    6.7580   -2.0630    0.8690 N   0  0  0  0  0  0  0  0  0  0  0  0
    5.4900   -1.9740    1.5120 C   0  0  0  0  0  0  0  0  0  0  0  0
    4.8180   -0.6350    1.4450 C   0  0  0  0  0  0  0  0  0  0  0  0
    0.8380    0.1410   -0.7480 S   0  0  0  0  0  0  0  0  0  0  0  0
   -4.1100   -1.0970    0.0140 C   0  0  0  0  0  0  0  0  0  0  0  0
   -4.6930   -1.9970    0.8730 C   0  0  0  0  0  0  0  0  0  0  0  0
  1  2  1  0
  2  3  1  0
  3  4  2  0
  3 33  1  0
  4  5  1  0
  5  6  2  0
  6  7  1  0
  6 32  1  0
  7  8  1  0
  8  9  1  0
  8 19  1  0
  9 10  1  0
 10 11  1  0
 10 16  1  0
 11 12  1  0
 11 15  2  0
 12 13  2  0
 13 14  1  0
 14 15  1  0
 16 17  2  0
 16 18  1  0
 18 19  1  0
 19 20  1  6
 20 21  2  0
 20 31  1  0
 21 22  1  0
 22 23  2  0
 23 24  1  0
 23 31  1  0
 24 25  1  0
 25 26  1  0
 25 30  1  0
 26 27  1  0
 27 28  1  0
 28 29  1  0
 29 30  1  0
 32 33  2  0
M  CHG  1  28   1
M  END
