
     RDKit          3D

 33 37  0  0  0  0  0  0  0  0999 V2000
    5.3100    0.5990   -1.1680 O   0  0  0  0  0  0  0  0  0  0  0  0
    5.5440   -0.2550   -0.3330 C   0  0  0  0  0  0  0  0  0  0  0  0
    4.3960   -0.8430    0.3290 N   0  0  0  0  0  0  0  0  0  0  0  0
    3.0990   -0.4520    0.0290 C   0  0  0  0  0  0  0  0  0  0  0  0
    2.5610    0.4660   -0.8480 N   0  0  0  0  0  0  0  0  0  0  0  0
    1.3160    0.5930   -0.8890 N   0  0  0  0  0  0  0  0  0  0  0  0
    0.4490    0.0390   -0.2780 C   0  0  0  0  0  0  0  0  0  0  0  0
   -0.9460   -0.0620   -0.0800 N   0  0  0  0  0  0  0  0  0  0  0  0
   -1.7110    0.9710    0.0110 C   0  0  0  0  0  0  0  0  0  0  0  0
   -3.1060    0.8800    0.2100 N   0  0  0  0  0  0  0  0  0  0  0  0
   -3.6380   -0.1460    1.0650 C   0  0  0  0  0  0  0  0  0  0  0  0
   -5.0680   -0.3950    0.6660 C   0  0  0  0  0  0  0  0  0  0  0  0
   -5.8720    0.7600    0.8240 N   0  0  0  0  0  0  0  0  0  0  0  0
   -7.2410    0.6160    0.4820 C   0  0  1  0  0  0  0  0  0  0  0  0
   -7.5190    0.2780   -0.9600 C   0  0  0  0  0  0  0  0  0  0  0  0
   -9.0450    0.3330   -1.1130 C   0  0  0  0  0  0  0  0  0  0  0  0
   -9.6450   -0.6580   -0.2620 N   0  0  0  0  0  0  0  0  0  0  0  0
   -9.3630   -0.5060    1.1320 C   0  0  0  0  0  0  0  0  0  0  0  0
   -7.8600   -0.4720    1.3260 C   0  0  0  0  0  0  0  0  0  0  0  0
   -5.2800    1.9970    0.3880 C   0  0  0  0  0  0  0  0  0  0  0  0
   -4.0200    1.7940   -0.4230 C   0  0  0  0  0  0  0  0  0  0  0  0
    1.5550   -1.0890    0.7680 S   0  0  0  0  0  0  0  0  0  0  0  0
    6.8230   -0.6900    0.0160 N   0  0  0  0  0  0  0  0  0  0  0  0
    8.0080   -0.1880   -0.5640 C   0  0  0  0  0  0  0  0  0  0  0  0
    8.0380    0.7610   -1.5520 C   0  0  0  0  0  0  0  0  0  0  0  0
    9.2230    1.2190   -2.0930 C   0  0  0  0  0  0  0  0  0  0  0  0
   10.4110    0.7410   -1.6630 C   0  0  0  0  0  0  0  0  0  0  0  0
   10.4050   -0.2180   -0.6660 C   0  0  0  0  0  0  0  0  0  0  0  0
   11.6630   -0.6740   -0.2610 C   0  0  0  0  0  0  0  0  0  0  0  0
   11.7140   -1.6260    0.7270 C   0  0  0  0  0  0  0  0  0  0  0  0
   10.5660   -2.0970    1.2800 C   0  0  0  0  0  0  0  0  0  0  0  0
    9.2950   -1.6520    0.8870 C   0  0  0  0  0  0  0  0  0  0  0  0
    9.2420   -0.6950   -0.1060 C   0  0  0  0  0  0  0  0  0  0  0  0
  1  2  2  0
  2  3  1  0
  2 23  1  0
  3  4  1  0
  4  5  2  0
  4 22  1  0
  5  6  1  0
  6  7  2  0
  7  8  1  0
  7 22  1  0
  8  9  2  3
  9 10  1  0
 10 11  1  0
 10 21  1  0
 11 12  1  0
 12 13  1  0
 14 13  1  6
 13 20  1  0
 14 15  1  0
 14 19  1  0
 15 16  1  0
 16 17  1  0
 17 18  1  0
 18 19  1  0
 20 21  1  0
 23 24  1  0
 24 25  2  0
 24 33  1  0
 25 26  1  0
 26 27  2  0
 27 28  1  0
 28 29  2  0
 28 33  1  0
 29 30  1  0
 30 31  2  0
 31 32  1  0
 32 33  2  0
M  CHG  1  17   1
M  END
