
     RDKit          3D

 33 37  0  0  0  0  0  0  0  0999 V2000
    6.9960   -0.9310   -0.3330 C   0  0  0  0  0  0  0  0  0  0  0  0
    5.7730   -0.8650    0.5720 C   0  0  0  0  0  0  0  0  0  0  0  0
    5.0070    0.3420    0.3340 N   0  0  0  0  0  0  0  0  0  0  0  0
    5.3210    1.5290    1.1000 C   0  0  0  0  0  0  0  0  0  0  0  0
    3.9680    0.3710   -0.6260 C   0  0  0  0  0  0  0  0  0  0  0  0
    3.3230    1.4170   -0.8120 O   0  0  0  0  0  0  0  0  0  0  0  0
    3.6380   -0.8390   -1.4180 C   0  0  0  0  0  0  0  0  0  0  0  0
    2.2820   -0.5190   -2.5650 S   0  0  0  0  0  0  0  0  0  0  0  0
    0.7630   -0.1960   -1.6940 C   0  0  0  0  0  0  0  0  0  0  0  0
    0.4540    1.0650   -1.3440 N   0  0  0  0  0  0  0  0  0  0  0  0
   -0.6830    1.3090   -0.6940 C   0  0  0  0  0  0  0  0  0  0  0  0
   -1.0380    2.6930   -0.3040 C   0  0  0  0  0  0  0  0  0  0  0  0
   -2.1220    3.1080    0.3430 N   0  0  0  0  0  0  0  0  0  0  0  0
   -2.0740    4.4390    0.5050 C   0  0  0  0  0  0  0  0  0  0  0  0
   -0.9000    4.8620   -0.0710 C   0  0  0  0  0  0  0  0  0  0  0  0
   -0.2840    3.7710   -0.5600 N   0  0  0  0  0  0  0  0  0  0  0  0
   -0.7910    6.3520    0.0810 C   0  0  0  0  0  0  0  0  0  0  0  0
   -2.2520    6.7830    0.2520 C   0  0  0  0  0  0  0  0  0  0  0  0
   -2.7980    5.6350    1.0670 C   0  0  0  0  0  0  0  0  0  0  0  0
   -1.5060    0.2900   -0.3940 N   0  0  0  0  0  0  0  0  0  0  0  0
   -1.2730   -1.0000   -0.7060 C   0  0  0  0  0  0  0  0  0  0  0  0
   -2.2000   -2.0340   -0.3400 N   0  0  0  0  0  0  0  0  0  0  0  0
   -3.4670   -1.5470    0.2220 C   0  0  0  0  0  0  0  0  0  0  0  0
   -4.6000   -2.4910   -0.1740 C   0  0  0  0  0  0  0  0  0  0  0  0
   -4.2300   -3.7830    0.5090 C   0  0  0  0  0  0  0  0  0  0  0  0
   -5.1040   -4.4900    1.2430 N   0  0  0  0  0  0  0  0  0  0  0  0
   -4.7480   -5.6430    1.8640 C   0  0  0  0  0  0  0  0  0  0  0  0
   -3.4530   -6.1000    1.7370 C   0  0  0  0  0  0  0  0  0  0  0  0
   -2.5320   -5.3920    0.9860 C   0  0  0  0  0  0  0  0  0  0  0  0
   -2.9390   -4.2000    0.3570 C   0  0  0  0  0  0  0  0  0  0  0  0
   -1.9950   -3.4250   -0.4680 C   0  0  0  0  0  0  0  0  0  0  0  0
   -0.1030   -1.2490   -1.3760 C   0  0  0  0  0  0  0  0  0  0  0  0
    0.2940   -2.5420   -1.7910 N   0  0  0  0  0  0  0  0  0  0  0  0
  1  2  1  0
  2  3  1  0
  3  4  1  0
  3  5  1  0
  5  6  2  0
  5  7  1  0
  7  8  1  0
  8  9  1  0
  9 10  2  0
  9 32  1  0
 10 11  1  0
 11 12  1  0
 11 20  2  0
 12 13  1  0
 12 16  2  0
 13 14  1  0
 14 15  2  0
 14 19  1  0
 15 16  1  0
 15 17  1  0
 17 18  1  0
 18 19  1  0
 20 21  1  0
 21 22  1  0
 21 32  2  0
 22 23  1  0
 22 31  1  0
 23 24  1  0
 24 25  1  0
 25 26  2  0
 25 30  1  0
 26 27  1  0
 27 28  2  0
 28 29  1  0
 29 30  2  0
 30 31  1  0
 32 33  1  0
M  CHG  1  16   1
M  END
