
     RDKit          3D

 33 37  0  0  0  0  0  0  0  0999 V2000
    0.1120    6.6180    0.5120 C   0  0  0  0  0  0  0  0  0  0  0  0
   -0.1140    5.3170    0.6260 C   0  0  0  0  0  0  0  0  0  0  0  0
    0.7020    4.4970    1.4490 N   0  0  0  0  0  0  0  0  0  0  0  0
    0.5310    3.0940    1.6400 C   0  0  0  0  0  0  0  0  0  0  0  0
   -0.5830    2.5030    0.8910 C   0  0  0  0  0  0  0  0  0  0  0  0
   -1.0360    1.1770    0.8270 C   0  0  0  0  0  0  0  0  0  0  0  0
   -0.4390    0.0150    1.5550 C   0  0  1  0  0  0  0  0  0  0  0  0
   -1.1870   -1.2370    1.2350 C   0  0  0  0  0  0  0  0  0  0  0  0
   -2.6150   -1.1280    1.6330 C   0  0  0  0  0  0  0  0  0  0  0  0
   -2.9910   -0.0580    2.1670 O   0  0  0  0  0  0  0  0  0  0  0  0
   -3.5510   -2.1610    1.4400 N   0  0  0  0  0  0  0  0  0  0  0  0
   -3.1440   -3.3980    0.8290 C   0  0  0  0  0  0  0  0  0  0  0  0
   -4.2690   -4.4060    1.0690 C   0  0  0  0  0  0  0  0  0  0  0  0
   -5.4370   -3.8920    0.3840 N   0  0  0  0  0  0  0  0  0  0  0  0
   -5.9100   -2.6640    0.9470 C   0  0  0  0  0  0  0  0  0  0  0  0
   -4.9150   -1.9850    1.8510 C   0  0  0  0  0  0  0  0  0  0  0  0
    1.3020   -0.0600    1.1560 S   0  0  0  0  0  0  0  0  0  0  0  0
    1.5930   -0.4470   -0.5620 C   0  0  0  0  0  0  0  0  0  0  0  0
    0.6950   -0.6700   -1.5050 N   0  0  0  0  0  0  0  0  0  0  0  0
    1.3400   -0.9100   -2.5980 N   0  0  0  0  0  0  0  0  0  0  0  0
    2.6970   -0.8490   -2.3950 C   0  0  0  0  0  0  0  0  0  0  0  0
    3.6970   -1.0720   -3.4370 C   0  0  1  0  0  0  0  0  0  0  0  0
    4.7110   -0.0170   -3.7770 C   0  0  0  0  0  0  0  0  0  0  0  0
    5.0850   -1.4270   -3.2760 C   0  0  0  0  0  0  0  0  0  0  0  0
    2.8490   -0.5540   -1.0930 N   0  0  0  0  0  0  0  0  0  0  0  0
    4.0710   -0.3940   -0.3790 C   0  0  0  0  0  0  0  0  0  0  0  0
    4.5520   -1.7090    0.2480 C   0  0  0  0  0  0  0  0  0  0  0  0
    5.8480   -1.4020    0.9610 C   0  0  0  0  0  0  0  0  0  0  0  0
   -2.0860    1.2090   -0.0070 N   0  0  0  0  0  0  0  0  0  0  0  0
   -2.2980    2.4360   -0.4450 N   0  0  0  0  0  0  0  0  0  0  0  0
   -1.3870    3.2610    0.0890 C   0  0  0  0  0  0  0  0  0  0  0  0
   -1.2140    4.7080   -0.1000 C   0  0  0  0  0  0  0  0  0  0  0  0
   -2.0340    5.3440   -0.8840 C   0  0  0  0  0  0  0  0  0  0  0  0
  1  2  2  0
  2  3  1  0
  2 32  1  0
  3  4  1  0
  4  5  1  0
  5  6  1  0
  5 31  2  0
  6  7  1  0
  6 29  2  0
  7  8  1  6
  7 17  1  0
  8  9  1  0
  9 10  2  0
  9 11  1  0
 11 12  1  0
 11 16  1  0
 12 13  1  0
 13 14  1  0
 14 15  1  0
 15 16  1  0
 17 18  1  0
 18 19  2  0
 18 25  1  0
 19 20  1  0
 20 21  2  0
 22 21  1  1
 21 25  1  0
 22 23  1  0
 22 24  1  0
 23 24  1  0
 25 26  1  0
 26 27  1  0
 27 28  1  0
 29 30  1  0
 30 31  1  0
 31 32  1  0
 32 33  2  0
M  CHG  1  14   1
M  END
