
     RDKit          3D

 33 36  0  0  0  0  0  0  0  0999 V2000
   -3.8400    2.1460   -0.0610 C   0  0  0  0  0  0  0  0  0  0  0  0
   -4.6260    1.1760   -0.7870 C   0  0  0  0  0  0  0  0  0  0  0  0
   -4.7550    1.5540   -2.5540 Cl  0  0  0  0  0  0  0  0  0  0  0  0
   -5.2540    0.0770   -0.4570 C   0  0  0  0  0  0  0  0  0  0  0  0
   -5.2720   -0.4380    0.8840 C   0  0  0  0  0  0  0  0  0  0  0  0
   -4.5020    0.0530    2.0260 C   0  0  0  0  0  0  0  0  0  0  0  0
   -3.0900    0.0770    1.8830 N   0  0  0  0  0  0  0  0  0  0  0  0
   -2.2500   -1.0060    1.5930 C   0  0  0  0  0  0  0  0  0  0  0  0
   -2.6570   -2.3250    1.5990 C   0  0  0  0  0  0  0  0  0  0  0  0
   -1.7480   -3.3470    1.3260 C   0  0  0  0  0  0  0  0  0  0  0  0
   -2.2210   -4.6150    1.3490 F   0  0  0  0  0  0  0  0  0  0  0  0
   -0.4470   -3.0230    1.0530 C   0  0  0  0  0  0  0  0  0  0  0  0
   -0.0250   -1.6820    1.0470 C   0  0  0  0  0  0  0  0  0  0  0  0
    1.2730   -1.3690    0.7720 C   0  0  0  0  0  0  0  0  0  0  0  0
    2.1990   -2.4880    0.4970 C   0  0  0  0  0  0  0  0  0  0  0  0
    1.7550   -0.0380    0.7470 C   0  0  0  0  0  0  0  0  0  0  0  0
    3.1750    0.1300    0.4630 C   0  0  0  0  0  0  0  0  0  0  0  0
    3.7660    1.3790    0.3150 N   0  0  0  0  0  0  0  0  0  0  0  0
    3.4790    2.0990   -0.9130 C   0  0  0  0  0  0  0  0  0  0  0  0
    4.6420    2.0660   -1.8800 C   0  0  0  0  0  0  0  0  0  0  0  0
    5.3250    0.8090   -1.9120 N   0  0  1  0  0  0  0  0  0  0  0  0
    6.5290    1.0110   -2.7340 C   0  0  0  0  0  0  0  0  0  0  0  0
    5.7620    0.3380   -0.6310 C   0  0  0  0  0  0  0  0  0  0  0  0
    5.2030    1.2640    0.4440 C   0  0  0  0  0  0  0  0  0  0  0  0
    0.8170    0.9110    1.0240 C   0  0  0  0  0  0  0  0  0  0  0  0
    1.1820    2.3430    1.1010 C   0  0  0  0  0  0  0  0  0  0  0  0
   -0.4900    0.5830    1.3000 N   0  0  0  0  0  0  0  0  0  0  0  0
   -0.9100   -0.6940    1.3120 C   0  0  0  0  0  0  0  0  0  0  0  0
   -6.0620   -1.5110    1.1460 C   0  0  0  0  0  0  0  0  0  0  0  0
   -6.8690   -2.1690    0.1540 C   0  0  0  0  0  0  0  0  0  0  0  0
   -6.8570   -1.7480   -1.0910 C   0  0  0  0  0  0  0  0  0  0  0  0
   -6.0400   -0.6300   -1.5200 C   0  0  2  0  0  0  0  0  0  0  0  0
   -4.9180   -1.1070   -2.8350 Cl  0  0  0  0  0  0  0  0  0  0  0  0
  1  2  1  0
  2  3  1  0
  2  4  2  3
  4  5  1  0
  4 32  1  0
  5  6  1  0
  5 29  2  0
  6  7  1  0
  7  8  1  0
  8  9  2  0
  8 28  1  0
  9 10  1  0
 10 11  1  0
 10 12  2  0
 12 13  1  0
 13 14  2  0
 13 28  1  0
 14 15  1  0
 14 16  1  0
 16 17  1  0
 16 25  2  0
 17 18  1  0
 18 19  1  0
 18 24  1  0
 19 20  1  0
 20 21  1  0
 21 22  1  6
 21 23  1  0
 23 24  1  0
 25 26  1  0
 25 27  1  0
 27 28  2  0
 29 30  1  0
 30 31  2  0
 31 32  1  0
 32 33  1  6
M  CHG  1  21   1
M  END
