
     RDKit          3D

 33 37  0  0  0  0  0  0  0  0999 V2000
   -5.8720    2.0550    1.6730 C   0  0  0  0  0  0  0  0  0  0  0  0
   -5.0050    2.5450    0.5430 C   0  0  0  0  0  0  0  0  0  0  0  0
   -3.9520    1.5730    0.1780 C   0  0  0  0  0  0  0  0  0  0  0  0
   -2.7940    1.4500    0.9280 C   0  0  0  0  0  0  0  0  0  0  0  0
   -2.6750    2.2630    2.0040 F   0  0  0  0  0  0  0  0  0  0  0  0
   -1.7930    0.5390    0.6060 C   0  0  0  0  0  0  0  0  0  0  0  0
   -1.9200   -0.2770   -0.4760 C   0  0  0  0  0  0  0  0  0  0  0  0
   -0.9110   -1.1690   -0.8160 C   0  0  0  0  0  0  0  0  0  0  0  0
    0.2180   -1.4260    0.0790 C   0  0  0  0  0  0  0  0  0  0  0  0
    0.1700   -1.5160    1.4120 N   0  0  0  0  0  0  0  0  0  0  0  0
    1.3930   -1.6860    1.9250 C   0  0  0  0  0  0  0  0  0  0  0  0
    1.8290   -1.8330    3.2410 C   0  0  0  0  0  0  0  0  0  0  0  0
    3.1670   -2.0060    3.5200 C   0  0  0  0  0  0  0  0  0  0  0  0
    3.7440   -2.1940    5.1620 Cl  0  0  0  0  0  0  0  0  0  0  0  0
    4.0540   -2.0290    2.4700 C   0  0  0  0  0  0  0  0  0  0  0  0
    3.6410   -1.8850    1.1650 C   0  0  0  0  0  0  0  0  0  0  0  0
    2.2990   -1.7110    0.8870 C   0  0  0  0  0  0  0  0  0  0  0  0
    1.5590   -1.5490   -0.2380 N   0  0  0  0  0  0  0  0  0  0  0  0
    2.0210   -1.4640   -1.5740 C   0  0  2  0  0  0  0  0  0  0  0  0
    3.4490   -1.0170   -1.8380 C   0  0  0  0  0  0  0  0  0  0  0  0
    3.4270    0.3110   -1.1770 C   0  0  0  0  0  0  0  0  0  0  0  0
    4.5580    0.9290   -0.5120 C   0  0  0  0  0  0  0  0  0  0  0  0
    4.5120    2.1150    0.0530 C   0  0  0  0  0  0  0  0  0  0  0  0
    5.7020    2.6820    0.7130 C   0  0  0  0  0  0  0  0  0  0  0  0
    7.0930    1.5520    0.6080 Cl  0  0  0  0  0  0  0  0  0  0  0  0
    2.2090    0.7850   -1.3340 N   0  0  0  0  0  0  0  0  0  0  0  0
    1.4320   -0.1650   -2.0660 N   0  0  0  0  0  0  0  0  0  0  0  0
   -1.1430   -1.9110   -1.9520 C   0  0  0  0  0  0  0  0  0  0  0  0
   -2.2830   -1.8090   -2.7260 C   0  0  0  0  0  0  0  0  0  0  0  0
   -3.2580   -0.9280   -2.3680 C   0  0  0  0  0  0  0  0  0  0  0  0
   -3.0910   -0.1490   -1.2340 C   0  0  0  0  0  0  0  0  0  0  0  0
   -4.0830    0.7560   -0.9110 C   0  0  0  0  0  0  0  0  0  0  0  0
   -5.2940    0.7740   -1.7880 C   0  0  0  0  0  0  0  0  0  0  0  0
  1  2  1  0
  2  3  1  0
  3  4  2  0
  3 32  1  0
  4  5  1  0
  4  6  1  0
  6  7  2  0
  7  8  1  0
  7 31  1  0
  8  9  1  0
  8 28  2  0
  9 10  2  0
  9 18  1  0
 10 11  1  0
 11 12  2  0
 11 17  1  0
 12 13  1  0
 13 14  1  0
 13 15  2  0
 15 16  1  0
 16 17  2  0
 17 18  1  0
 19 18  1  1
 19 20  1  0
 19 27  1  0
 20 21  1  0
 21 22  1  0
 21 26  2  0
 22 23  2  3
 23 24  1  0
 24 25  1  0
 26 27  1  0
 28 29  1  0
 29 30  2  0
 30 31  1  0
 31 32  2  0
 32 33  1  0
M  CHG  1  10   1
M  END
