
     RDKit          3D

 24 26  0  0  0  0  0  0  0  0999 V2000
    2.3150   -0.0200   -1.3650 O   0  0  0  0  0  0  0  0  0  0  0  0
    1.6830   -0.5850   -0.4380 C   0  0  0  0  0  0  0  0  0  0  0  0
    2.3830   -1.2510    0.6230 N   0  0  0  0  0  0  0  0  0  0  0  0
    3.8120   -1.2870    0.6480 C   0  0  0  0  0  0  0  0  0  0  0  0
    4.4370    0.0900    0.7010 C   0  0  0  0  0  0  0  0  0  0  0  0
    5.8140   -0.0810    0.7210 O   0  0  0  0  0  0  0  0  0  0  0  0
    6.4760    1.0430    0.7670 O   0  0  0  0  0  0  0  0  0  0  0  0
    6.8610    1.2810    2.0020 O   0  0  0  0  0  0  0  0  0  0  0  0
    0.3020   -0.5310   -0.4930 O   0  0  0  0  0  0  0  0  0  0  0  0
   -0.3090    0.1460   -1.5740 C   0  0  2  0  0  0  0  0  0  0  0  0
   -1.1980    1.2250   -0.9620 C   0  0  0  0  0  0  0  0  0  0  0  0
   -2.5030    0.4900   -0.7230 C   0  0  0  0  0  0  0  0  0  0  0  0
   -3.3120    0.7680    0.2670 C   0  0  0  0  0  0  0  0  0  0  0  0
   -3.0800    1.7830    1.2340 O   0  0  0  0  0  0  0  0  0  0  0  0
   -4.1100    1.8210    2.1360 N   0  0  0  0  0  0  0  0  0  0  0  0
   -5.0030    0.9580    1.8920 C   0  0  0  0  0  0  0  0  0  0  0  0
   -6.1770    0.7640    2.6460 O   0  0  0  0  0  0  0  0  0  0  0  0
   -4.5830    0.2250    0.7040 C   0  0  0  0  0  0  0  0  0  0  0  0
   -5.2020   -0.7090    0.1520 O   0  0  0  0  0  0  0  0  0  0  0  0
   -2.5660   -0.4490   -1.7510 N   0  0  0  0  0  0  0  0  0  0  0  0
   -3.3910   -1.2400   -2.4600 C   0  0  0  0  0  0  0  0  0  0  0  0
   -2.6880   -1.9530   -3.3900 N   0  0  0  0  0  0  0  0  0  0  0  0
   -1.4260   -1.5940   -3.2490 N   0  0  0  0  0  0  0  0  0  0  0  0
   -1.3230   -0.6870   -2.2680 C   0  0  0  0  0  0  0  0  0  0  0  0
  1  2  2  0
  2  3  1  0
  2  9  1  0
  3  4  1  0
  4  5  1  0
  5  6  1  0
  6  7  1  0
  7  8  1  0
 10  9  1  1
 10 11  1  0
 10 24  1  0
 11 12  1  0
 12 13  2  3
 12 20  1  0
 13 14  1  0
 13 18  1  0
 14 15  1  0
 15 16  2  0
 16 17  1  0
 16 18  1  0
 18 19  2  0
 20 21  1  0
 20 24  1  0
 21 22  2  0
 22 23  1  0
 23 24  2  0
M  END
