
     RDKit          3D

 16 16  0  0  0  0  0  0  0  0999 V2000
   -3.4620   -0.7990   -1.6500 N   0  0  0  0  0  0  0  0  0  0  0  0
   -2.6630   -1.0310   -0.4490 C   0  0  1  0  0  0  0  0  0  0  0  0
   -3.4510   -0.7530    0.6680 O   0  0  0  0  0  0  0  0  0  0  0  0
   -3.8350    0.5710    0.6780 C   0  0  0  0  0  0  0  0  0  0  0  0
   -2.6590    1.3380    0.7140 O   0  0  0  0  0  0  0  0  0  0  0  0
   -2.2610   -2.3880   -0.4720 O   0  0  0  0  0  0  0  0  0  0  0  0
   -0.8600   -2.4050   -0.4320 C   0  0  0  0  0  0  0  0  0  0  0  0
   -0.0790   -3.3390   -0.7600 O   0  0  0  0  0  0  0  0  0  0  0  0
   -0.5140   -1.0540    0.0920 C   0  0  1  0  0  0  0  0  0  0  0  0
    0.7670   -0.6900   -0.2950 O   0  0  0  0  0  0  0  0  0  0  0  0
    1.5760   -0.4690    0.6980 O   0  0  0  0  0  0  0  0  0  0  0  0
    2.8120   -0.4360    0.1990 O   0  0  0  0  0  0  0  0  0  0  0  0
    3.2980    0.8380    0.4760 C   0  0  0  0  0  0  0  0  0  0  0  0
    4.7100    1.0200   -0.0400 C   0  0  0  0  0  0  0  0  0  0  0  0
    5.1230    2.3110    0.2740 O   0  0  0  0  0  0  0  0  0  0  0  0
   -1.4970   -0.2680   -0.4650 O   0  0  0  0  0  0  0  0  0  0  0  0
  2  1  1  6
  2  3  1  0
  2  6  1  0
  2 16  1  0
  3  4  1  0
  4  5  1  0
  6  7  1  0
  7  8  2  0
  7  9  1  0
  9 10  1  6
  9 16  1  0
 10 11  1  0
 11 12  1  0
 12 13  1  0
 13 14  1  0
 14 15  1  0
M  END
