
     RDKit          3D

 23 24  0  0  0  0  0  0  0  0999 V2000
    2.2280   -3.0980    2.6120 C   0  0  0  0  0  0  0  0  0  0  0  0
    1.5950   -2.3130    1.5440 N   0  0  0  0  0  0  0  0  0  0  0  0
    0.6380   -2.7470    0.6670 N   0  0  0  0  0  0  0  0  0  0  0  0
    0.2580   -1.8000   -0.1880 C   0  0  0  0  0  0  0  0  0  0  0  0
   -0.7550   -2.0180   -1.2260 C   0  0  0  0  0  0  0  0  0  0  0  0
   -0.3700   -2.7100   -2.2400 O   0  0  0  0  0  0  0  0  0  0  0  0
   -2.0910   -1.6000   -1.3030 N   0  0  0  0  0  0  0  0  0  0  0  0
   -3.0200   -1.3700   -0.2210 C   0  0  0  0  0  0  0  0  0  0  0  0
   -2.4230   -0.9830    0.9560 O   0  0  0  0  0  0  0  0  0  0  0  0
   -2.7460    0.3200    1.3130 C   0  0  0  0  0  0  0  0  0  0  0  0
   -1.8660    1.3400    0.7150 C   0  0  0  0  0  0  0  0  0  0  0  0
   -0.9170    1.7810    1.3420 O   0  0  0  0  0  0  0  0  0  0  0  0
   -2.0550    1.9010   -0.6580 C   0  0  0  0  0  0  0  0  0  0  0  0
   -1.1090    1.3590   -1.6490 C   0  0  0  0  0  0  0  0  0  0  0  0
   -1.6100    1.1090   -2.8110 O   0  0  0  0  0  0  0  0  0  0  0  0
    0.2680    1.0810   -1.4910 N   0  0  0  0  0  0  0  0  0  0  0  0
    1.0030    0.5780   -0.4370 C   0  0  0  0  0  0  0  0  0  0  0  0
    1.9710    1.5130    0.1340 N   0  0  0  0  0  0  0  0  0  0  0  0
    3.3290    2.0500   -0.8570 P   0  0  0  0  0  0  0  0  0  0  0  0
    2.9640    3.4000   -1.8600 O   0  0  0  0  0  0  0  0  0  0  0  0
    4.8030    2.2260    0.0110 O   0  0  0  0  0  0  0  0  0  0  0  0
    1.0180   -0.6350    0.1350 C   0  0  0  0  0  0  0  0  0  0  0  0
    1.8420   -1.0140    1.2330 O   0  0  0  0  0  0  0  0  0  0  0  0
  1  2  1  0
  2  3  1  0
  2 23  1  0
  3  4  2  0
  4  5  1  0
  4 22  1  0
  5  6  2  0
  5  7  1  0
  7  8  1  0
  8  9  1  0
  9 10  1  0
 10 11  1  0
 11 12  2  0
 11 13  1  0
 13 14  1  0
 14 15  2  0
 14 16  1  0
 16 17  1  0
 17 18  1  0
 17 22  2  0
 18 19  1  0
 19 20  1  0
 19 21  1  0
 22 23  1  0
M  END
