
     RDKit          3D

 24 24  0  0  0  0  0  0  0  0999 V2000
    3.2880   -3.3560   -0.8950 C   0  0  0  0  0  0  0  0  0  0  0  0
    2.4680   -2.3010   -0.4340 O   0  0  0  0  0  0  0  0  0  0  0  0
    1.2090   -2.1370   -0.8620 C   0  0  0  0  0  0  0  0  0  0  0  0
    0.7780   -3.0130   -1.7380 O   0  0  0  0  0  0  0  0  0  0  0  0
    0.2040   -1.1050   -0.4970 C   0  0  2  0  0  0  0  0  0  0  0  0
    0.5490   -0.3820    0.7160 C   0  0  0  0  0  0  0  0  0  0  0  0
    1.6010    0.3690    0.8500 O   0  0  0  0  0  0  0  0  0  0  0  0
    2.8390    0.7570    0.9280 C   0  0  0  0  0  0  0  0  0  0  0  0
    3.7460   -0.1050    0.8180 O   0  0  0  0  0  0  0  0  0  0  0  0
    3.2270    2.2000    1.1470 C   0  0  0  0  0  0  0  0  0  0  0  0
    4.6160    2.2930    1.1710 O   0  0  0  0  0  0  0  0  0  0  0  0
    4.9580    3.5450    1.3590 O   0  0  0  0  0  0  0  0  0  0  0  0
   -1.0520   -1.7830   -0.5550 N   0  0  0  0  0  0  0  0  0  0  0  0
   -2.3160   -1.2150   -0.2000 C   0  0  0  0  0  0  0  0  0  0  0  0
   -2.5170   -0.0620   -0.2970 N   0  0  0  0  0  0  0  0  0  0  0  0
   -2.2960    1.2560   -0.5650 C   0  0  0  0  0  0  0  0  0  0  0  0
   -1.1810    1.8720   -1.0430 N   0  0  0  0  0  0  0  0  0  0  0  0
   -1.3950    3.1330   -1.1490 O   0  0  0  0  0  0  0  0  0  0  0  0
   -2.6160    3.4080   -0.7620 C   0  0  0  0  0  0  0  0  0  0  0  0
   -3.1450    4.7180   -0.7650 O   0  0  0  0  0  0  0  0  0  0  0  0
   -3.1950    2.2890   -0.3990 N   0  0  0  0  0  0  0  0  0  0  0  0
   -3.3260   -2.1490    0.2890 N   0  0  0  0  0  0  0  0  0  0  0  0
   -4.4070   -1.6520    1.0610 C   0  0  0  0  0  0  0  0  0  0  0  0
   -4.6330   -0.3860    1.0140 N   0  0  0  0  0  0  0  0  0  0  0  0
  1  2  1  0
  2  3  1  0
  3  4  2  0
  3  5  1  0
  5  6  1  1
  5 13  1  0
  6  7  1  0
  7  8  1  0
  8  9  2  0
  8 10  1  0
 10 11  1  0
 11 12  1  0
 13 14  1  0
 14 15  2  3
 14 22  1  0
 15 16  1  0
 16 17  2  0
 16 21  1  0
 17 18  1  0
 18 19  1  0
 19 20  1  0
 19 21  2  0
 22 23  1  0
 23 24  2  0
M  END
