
     RDKit          3D

 14 13  0  0  0  0  0  0  0  0999 V2000
   -1.7510    2.6750    0.3930 O   0  0  0  0  0  0  0  0  0  0  0  0
   -2.7240    1.8070   -0.0900 C   0  0  0  0  0  0  0  0  0  0  0  0
   -2.3320    0.3690    0.0350 C   0  0  0  0  0  0  0  0  0  0  0  0
   -1.1670    0.0640   -0.6650 O   0  0  0  0  0  0  0  0  0  0  0  0
   -0.8440   -1.2780   -0.5200 C   0  0  1  0  0  0  0  0  0  0  0  0
   -0.8860   -1.9010   -1.7610 O   0  0  0  0  0  0  0  0  0  0  0  0
   -1.8040   -2.8170   -1.7560 O   0  0  0  0  0  0  0  0  0  0  0  0
    0.5220   -1.4710    0.1010 C   0  0  2  0  0  0  0  0  0  0  0  0
    0.5510   -1.0800    1.4310 O   0  0  0  0  0  0  0  0  0  0  0  0
    1.5310   -0.8680   -0.7130 N   0  0  0  0  0  0  0  0  0  0  0  0
    1.4220    0.4330   -0.9170 O   0  0  0  0  0  0  0  0  0  0  0  0
    2.2260    1.2090   -0.2710 O   0  0  0  0  0  0  0  0  0  0  0  0
    3.3620    0.6200    0.2250 C   0  0  0  0  0  0  0  0  0  0  0  0
    4.1380    1.5840    0.9000 O   0  0  0  0  0  0  0  0  0  0  0  0
  1  2  1  0
  2  3  1  0
  3  4  1  0
  5  4  1  6
  5  6  1  0
  5  8  1  0
  6  7  1  0
  8  9  1  1
  8 10  1  0
 10 11  1  0
 11 12  1  0
 12 13  1  0
 13 14  1  0
M  END
