
     RDKit          3D

 20 21  0  0  0  0  0  0  0  0999 V2000
   -4.3130    2.1350    1.9460 O   0  0  0  0  0  0  0  0  0  0  0  0
   -3.7010    1.2560    1.2710 C   0  0  0  0  0  0  0  0  0  0  0  0
   -4.3130   -0.1140    1.1440 C   0  0  0  0  0  0  0  0  0  0  0  0
   -3.7500   -0.8240    0.1120 O   0  0  0  0  0  0  0  0  0  0  0  0
   -3.4930    0.0730   -0.9400 C   0  0  0  0  0  0  0  0  0  0  0  0
   -2.2420    0.8300   -0.5780 C   0  0  2  0  0  0  0  0  0  0  0  0
   -1.7320    1.6310   -1.5930 O   0  0  0  0  0  0  0  0  0  0  0  0
   -1.0750    0.5070   -2.0890 C   0  0  0  0  0  0  0  0  0  0  0  0
   -1.0180   -0.0090   -0.6490 C   0  0  1  0  0  0  0  0  0  0  0  0
    0.1940    0.5320    0.0030 C   0  0  0  0  0  0  0  0  0  0  0  0
    0.2500    1.6250    0.5950 O   0  0  0  0  0  0  0  0  0  0  0  0
    1.3760   -0.2570   -0.0560 N   0  0  0  0  0  0  0  0  0  0  0  0
    2.5880    0.1550    0.5280 C   0  0  0  0  0  0  0  0  0  0  0  0
    2.6860    1.2340    1.1260 O   0  0  0  0  0  0  0  0  0  0  0  0
    3.7010   -0.6570    0.4370 O   0  0  0  0  0  0  0  0  0  0  0  0
    5.2530   -0.2890    1.1000 P   0  0  0  0  0  0  0  0  0  0  0  0
    5.2440    0.7680    2.4260 O   0  0  0  0  0  0  0  0  0  0  0  0
    6.4460    0.0820   -0.0890 O   0  0  0  0  0  0  0  0  0  0  0  0
    6.7300   -0.9850   -0.8210 O   0  0  0  0  0  0  0  0  0  0  0  0
   -2.4880    1.4980    0.6400 O   0  0  0  0  0  0  0  0  0  0  0  0
  1  2  2  0
  2  3  1  0
  2 20  1  0
  3  4  1  0
  4  5  1  0
  6  5  1  6
  6  7  1  0
  6  9  1  0
  6 20  1  0
  7  8  1  0
  8  9  1  0
  9 10  1  1
 10 11  2  0
 10 12  1  0
 12 13  1  0
 13 14  2  0
 13 15  1  0
 15 16  1  0
 16 17  1  0
 16 18  1  0
 18 19  1  0
M  END
