
     RDKit          3D

 28 30  0  0  0  0  0  0  0  0999 V2000
    3.4640    0.7640    2.6320 O   0  0  0  0  0  0  0  0  0  0  0  0
    3.8390   -0.2140    1.6820 C   0  0  1  0  0  0  0  0  0  0  0  0
    2.6560   -1.0300    1.2850 C   0  0  0  0  0  0  0  0  0  0  0  0
    2.7340   -2.4220    1.1910 C   0  0  0  0  0  0  0  0  0  0  0  0
    1.6330   -3.1740    0.8230 C   0  0  0  0  0  0  0  0  0  0  0  0
    0.4350   -2.5530    0.5410 C   0  0  0  0  0  0  0  0  0  0  0  0
    0.3170   -1.1730    0.6230 C   0  0  0  0  0  0  0  0  0  0  0  0
   -0.9420   -0.5160    0.3280 C   0  0  0  0  0  0  0  0  0  0  0  0
   -0.9990    0.7510   -0.2110 C   0  0  0  0  0  0  0  0  0  0  0  0
   -2.2220    1.3320   -0.4720 C   0  0  0  0  0  0  0  0  0  0  0  0
   -3.4180    0.6870   -0.2110 C   0  0  0  0  0  0  0  0  0  0  0  0
   -4.6760    1.3880   -0.4890 C   0  0  1  0  0  0  0  0  0  0  0  0
   -4.4050    2.3500   -1.5150 O   0  0  0  0  0  0  0  0  0  0  0  0
   -5.9260    0.2570   -0.8810 P   0  0  0  0  0  0  0  0  0  0  0  0
   -5.6310   -1.3120   -1.2880 O   0  0  0  0  0  0  0  0  0  0  0  0
   -6.3020   -0.2040    0.5300 O   0  0  0  0  0  0  0  0  0  0  0  0
   -7.4840    0.8610   -1.0880 O   0  0  0  0  0  0  0  0  0  0  0  0
   -3.3830   -0.5580    0.3200 C   0  0  0  0  0  0  0  0  0  0  0  0
   -2.1350   -1.1390    0.5810 C   0  0  0  0  0  0  0  0  0  0  0  0
    1.4320   -0.4660    0.9910 C   0  0  0  0  0  0  0  0  0  0  0  0
    4.5300    0.3860    0.5360 C   0  0  0  0  0  0  0  0  0  0  0  0
    4.0790    1.5230   -0.0880 C   0  0  0  0  0  0  0  0  0  0  0  0
    4.7610    2.0700   -1.1790 C   0  0  0  0  0  0  0  0  0  0  0  0
    5.9030    1.4590   -1.6350 C   0  0  0  0  0  0  0  0  0  0  0  0
    6.7450    2.1640   -3.0090 Cl  0  0  0  0  0  0  0  0  0  0  0  0
    6.3710    0.3230   -1.0280 C   0  0  0  0  0  0  0  0  0  0  0  0
    7.8240   -0.4770   -1.5880 Cl  0  0  0  0  0  0  0  0  0  0  0  0
    5.6770   -0.2100    0.0610 C   0  0  0  0  0  0  0  0  0  0  0  0
  2  1  1  1
  2  3  1  0
  2 21  1  0
  3  4  2  0
  3 20  1  0
  4  5  1  0
  5  6  2  0
  6  7  1  0
  7  8  1  0
  7 20  2  0
  8  9  2  0
  8 19  1  0
  9 10  1  0
 10 11  2  0
 11 12  1  0
 11 18  1  0
 12 13  1  6
 12 14  1  0
 14 15  1  0
 14 16  1  0
 14 17  1  0
 18 19  2  0
 21 22  2  0
 21 28  1  0
 22 23  1  0
 23 24  2  0
 24 25  1  0
 24 26  1  0
 26 27  1  0
 26 28  2  0
M  END
