
     RDKit          3D

 20 20  0  0  0  0  0  0  0  0999 V2000
   -2.5030   -3.5380    1.0920 O   0  0  0  0  0  0  0  0  0  0  0  0
   -2.1160   -2.3680    0.8470 C   0  0  0  0  0  0  0  0  0  0  0  0
   -0.6270   -2.1460    0.7850 C   0  0  0  0  0  0  0  0  0  0  0  0
   -0.1770   -1.9960   -0.5190 O   0  0  0  0  0  0  0  0  0  0  0  0
    0.0040   -0.8740   -1.2590 C   0  0  0  0  0  0  0  0  0  0  0  0
   -0.3890   -0.8290   -2.4500 O   0  0  0  0  0  0  0  0  0  0  0  0
    0.6660    0.3190   -0.6810 C   0  0  2  0  0  0  0  0  0  0  0  0
    2.1040    0.0030   -0.3060 C   0  0  0  0  0  0  0  0  0  0  0  0
    2.8070   -0.4790   -1.4210 O   0  0  0  0  0  0  0  0  0  0  0  0
    4.4360   -0.8430   -1.0210 P   0  0  0  0  0  0  0  0  0  0  0  0
    4.5100   -1.9350    0.3140 O   0  0  0  0  0  0  0  0  0  0  0  0
    5.2110    0.6490   -0.5370 O   0  0  0  0  0  0  0  0  0  0  0  0
    0.0430    0.7920    0.4880 O   0  0  0  0  0  0  0  0  0  0  0  0
   -0.5650    2.0130    0.6480 C   0  0  0  0  0  0  0  0  0  0  0  0
   -0.2750    2.7730    1.6430 O   0  0  0  0  0  0  0  0  0  0  0  0
   -1.5460    2.5440   -0.2400 N   0  0  0  0  0  0  0  0  0  0  0  0
   -2.5590    1.7580   -0.8930 C   0  0  0  0  0  0  0  0  0  0  0  0
   -3.3120    0.8680    0.0740 C   0  0  0  0  0  0  0  0  0  0  0  0
   -2.5080   -0.0730    0.6730 O   0  0  0  0  0  0  0  0  0  0  0  0
   -2.9830   -1.3090    0.6400 O   0  0  0  0  0  0  0  0  0  0  0  0
  1  2  2  0
  2  3  1  0
  2 20  1  0
  3  4  1  0
  4  5  1  0
  5  6  2  0
  5  7  1  0
  7  8  1  1
  7 13  1  0
  8  9  1  0
  9 10  1  0
 10 11  1  0
 10 12  1  0
 13 14  1  0
 14 15  2  0
 14 16  1  0
 16 17  1  0
 17 18  1  0
 18 19  1  0
 19 20  1  0
M  END
