
     RDKit          3D

 20 20  0  0  0  0  0  0  0  0999 V2000
    0.9290   -1.0470   -2.1260 O   0  0  0  0  0  0  0  0  0  0  0  0
    1.1670   -2.0220   -1.3370 C   0  0  0  0  0  0  0  0  0  0  0  0
    0.9180   -1.8920    0.0410 N   0  0  0  0  0  0  0  0  0  0  0  0
    0.4220   -0.5390    0.4540 C   0  0  1  0  0  0  0  0  0  0  0  0
    1.0120    0.3240   -0.4770 O   0  0  0  0  0  0  0  0  0  0  0  0
    2.0540    0.9930    0.1720 C   0  0  0  0  0  0  0  0  0  0  0  0
    3.1920    0.0580    0.5770 C   0  0  0  0  0  0  0  0  0  0  0  0
    4.0290    0.9950    1.2480 O   0  0  0  0  0  0  0  0  0  0  0  0
    5.1600    1.1540    0.6330 O   0  0  0  0  0  0  0  0  0  0  0  0
   -1.0220   -0.5830    0.4510 C   0  0  1  0  0  0  0  0  0  0  0  0
   -1.7450    0.7520    0.4500 C   0  0  0  0  0  0  0  0  0  0  0  0
   -1.5910    1.5260    1.5330 O   0  0  0  0  0  0  0  0  0  0  0  0
   -2.5110    3.0060    1.2150 P   0  0  0  0  0  0  0  0  0  0  0  0
   -1.5470    3.8420   -0.0080 O   0  0  0  0  0  0  0  0  0  0  0  0
   -3.9380    2.4630    0.3720 O   0  0  0  0  0  0  0  0  0  0  0  0
   -1.4820   -1.0970   -0.8380 O   0  0  0  0  0  0  0  0  0  0  0  0
   -2.4410   -2.0580   -0.5130 C   0  0  0  0  0  0  0  0  0  0  0  0
   -1.9840   -2.6010    0.7840 C   0  0  0  0  0  0  0  0  0  0  0  0
   -2.0780   -3.7950    1.2150 O   0  0  0  0  0  0  0  0  0  0  0  0
   -1.4680   -1.4880    1.4270 O   0  0  0  0  0  0  0  0  0  0  0  0
  1  2  2  0
  2  3  1  0
  4  3  1  6
  4  5  1  0
  4 10  1  0
  5  6  1  0
  6  7  1  0
  7  8  1  0
  8  9  1  0
 10 11  1  1
 10 16  1  0
 10 20  1  0
 11 12  1  0
 12 13  1  0
 13 14  1  0
 13 15  1  0
 16 17  1  0
 17 18  1  0
 18 19  2  0
 18 20  1  0
M  END
