
     RDKit          3D

 20 20  0  0  0  0  0  0  0  0999 V2000
   -2.8500   -0.9340    1.2110 O   0  0  0  0  0  0  0  0  0  0  0  0
   -2.5920    0.0410    0.4790 C   0  0  0  0  0  0  0  0  0  0  0  0
   -3.6400    0.9720   -0.0290 C   0  0  0  0  0  0  0  0  0  0  0  0
   -5.2720    0.3770    0.6350 P   0  0  0  0  0  0  0  0  0  0  0  0
   -6.1630    1.6750    1.3630 O   0  0  0  0  0  0  0  0  0  0  0  0
   -6.2020   -0.3770   -0.6260 O   0  0  0  0  0  0  0  0  0  0  0  0
   -5.7080   -1.5550   -0.9120 O   0  0  0  0  0  0  0  0  0  0  0  0
   -1.2470    0.2950    0.1000 N   0  0  0  0  0  0  0  0  0  0  0  0
   -0.1540   -0.5750    0.5580 C   0  0  1  0  0  0  0  0  0  0  0  0
    0.3830   -1.1460   -0.6120 O   0  0  0  0  0  0  0  0  0  0  0  0
    1.2930   -0.2330   -1.1130 C   0  0  0  0  0  0  0  0  0  0  0  0
    2.5680   -0.3870   -0.2820 C   0  0  1  0  0  0  0  0  0  0  0  0
    3.6210    0.4510   -0.9550 C   0  0  0  0  0  0  0  0  0  0  0  0
    4.8300    0.5080   -0.2620 O   0  0  0  0  0  0  0  0  0  0  0  0
    5.5730   -0.6330    0.0140 C   0  0  0  0  0  0  0  0  0  0  0  0
    5.1260   -1.7220   -0.3770 O   0  0  0  0  0  0  0  0  0  0  0  0
    6.7930   -0.5660    0.7140 O   0  0  0  0  0  0  0  0  0  0  0  0
    2.2380    0.0890    1.0080 O   0  0  0  0  0  0  0  0  0  0  0  0
    0.8610    0.2560    1.2580 C   0  0  0  0  0  0  0  0  0  0  0  0
    0.4330    1.1100    2.0770 O   0  0  0  0  0  0  0  0  0  0  0  0
  1  2  2  0
  2  3  1  0
  2  8  1  0
  3  4  1  0
  4  5  1  0
  4  6  1  0
  6  7  1  0
  9  8  1  6
  9 10  1  0
  9 19  1  0
 10 11  1  0
 11 12  1  0
 12 13  1  6
 12 18  1  0
 13 14  1  0
 14 15  1  0
 15 16  2  0
 15 17  1  0
 18 19  1  0
 19 20  2  0
M  END
