
     RDKit          3D

 20 19  0  0  0  0  0  0  0  0999 V2000
    2.3180    2.5210   -1.2150 C   0  0  0  0  0  0  0  0  0  0  0  0
    2.3300    1.1830   -0.7970 O   0  0  0  0  0  0  0  0  0  0  0  0
    3.1190    0.9990    0.7300 P   0  0  0  0  0  0  0  0  0  0  0  0
    4.6440    0.1480    0.5810 O   0  0  0  0  0  0  0  0  0  0  0  0
    5.3640    0.3100   -0.5860 C   0  0  0  0  0  0  0  0  0  0  0  0
    4.9770    1.0380   -1.5420 O   0  0  0  0  0  0  0  0  0  0  0  0
    2.0940    0.3030    1.9230 O   0  0  0  0  0  0  0  0  0  0  0  0
    0.8210    0.0100    1.4270 C   0  0  0  0  0  0  0  0  0  0  0  0
    0.0050   -0.5920    2.5410 C   0  0  0  0  0  0  0  0  0  0  0  0
   -1.2700   -0.9340    2.2510 O   0  0  0  0  0  0  0  0  0  0  0  0
   -1.5040   -1.8330    1.2400 C   0  0  1  0  0  0  0  0  0  0  0  0
   -1.9260   -3.0700    1.8150 O   0  0  0  0  0  0  0  0  0  0  0  0
   -2.5980   -1.3810    0.3630 C   0  0  0  0  0  0  0  0  0  0  0  0
   -3.6410   -2.0420    0.3730 O   0  0  0  0  0  0  0  0  0  0  0  0
   -2.5930   -0.2150   -0.5340 C   0  0  2  0  0  0  0  0  0  0  0  0
   -3.9000   -0.0200   -1.0610 O   0  0  0  0  0  0  0  0  0  0  0  0
   -4.3820    1.1440   -0.6970 O   0  0  0  0  0  0  0  0  0  0  0  0
   -1.6540   -0.3360   -1.6810 C   0  0  0  0  0  0  0  0  0  0  0  0
   -2.1380   -0.2510   -3.0330 N   0  0  0  0  0  0  0  0  0  0  0  0
   -0.4280   -0.5130   -1.5630 O   0  0  0  0  0  0  0  0  0  0  0  0
  1  2  1  0
  2  3  1  0
  3  4  1  0
  3  7  1  0
  4  5  1  0
  5  6  2  0
  7  8  1  0
  8  9  1  0
  9 10  1  0
 10 11  1  0
 11 12  1  1
 11 13  1  0
 13 14  2  0
 13 15  1  0
 15 16  1  6
 15 18  1  0
 16 17  1  0
 18 19  1  0
 18 20  2  0
M  END
