
     RDKit          3D

 20 21  0  0  0  0  0  0  0  0999 V2000
   -4.6810    1.6600    0.7450 O   0  0  0  0  0  0  0  0  0  0  0  0
   -3.8490    0.7690    0.4200 C   0  0  0  0  0  0  0  0  0  0  0  0
   -2.9610    0.1720    1.3550 N   0  0  0  0  0  0  0  0  0  0  0  0
   -2.0670   -0.8150    0.8980 C   0  0  0  0  0  0  0  0  0  0  0  0
   -1.5480   -1.6060    1.7030 O   0  0  0  0  0  0  0  0  0  0  0  0
   -1.7450   -0.9130   -0.5330 C   0  0  2  0  0  0  0  0  0  0  0  0
   -1.2760   -2.2080   -0.8000 O   0  0  0  0  0  0  0  0  0  0  0  0
   -0.6870    0.0820   -0.8290 C   0  0  0  0  0  0  0  0  0  0  0  0
   -0.9380    1.2910   -0.6460 O   0  0  0  0  0  0  0  0  0  0  0  0
    0.5390   -0.3130   -1.2930 O   0  0  0  0  0  0  0  0  0  0  0  0
    1.5420    0.6240   -1.5690 C   0  0  0  0  0  0  0  0  0  0  0  0
    1.9290    1.3790   -0.3200 C   0  0  0  0  0  0  0  0  0  0  0  0
    2.5420    0.1310    0.9080 P   0  0  0  0  0  0  0  0  0  0  0  0
    3.4080   -1.1220    0.0200 O   0  0  0  0  0  0  0  0  0  0  0  0
    4.6410   -0.6190    0.0700 O   0  0  0  0  0  0  0  0  0  0  0  0
    4.9720   -0.0980    1.3100 C   0  0  0  0  0  0  0  0  0  0  0  0
    6.0570   -0.3880    1.9320 O   0  0  0  0  0  0  0  0  0  0  0  0
    3.9760    0.7630    1.7660 O   0  0  0  0  0  0  0  0  0  0  0  0
   -2.9220   -0.5940   -1.4220 C   0  0  0  0  0  0  0  0  0  0  0  0
   -3.7920    0.3530   -0.8890 O   0  0  0  0  0  0  0  0  0  0  0  0
  1  2  2  0
  2  3  1  0
  2 20  1  0
  3  4  1  0
  4  5  2  0
  4  6  1  0
  6  7  1  1
  6  8  1  0
  6 19  1  0
  8  9  2  0
  8 10  1  0
 10 11  1  0
 11 12  1  0
 12 13  1  0
 13 14  1  0
 13 18  1  0
 14 15  1  0
 15 16  1  0
 16 17  2  0
 16 18  1  0
 19 20  1  0
M  END
