
     RDKit          3D

 26 29  0  0  0  0  0  0  0  0999 V2000
    3.2790    2.3030   -0.7730 C   0  0  0  0  0  0  0  0  0  0  0  0
    2.3440    2.1020    0.3000 N   0  0  0  0  0  0  0  0  0  0  0  0
    2.5450    2.7550    1.5730 C   0  0  0  0  0  0  0  0  0  0  0  0
    1.1730    1.2660    0.1920 C   0  0  0  0  0  0  0  0  0  0  0  0
   -0.0530    1.7840    0.4010 N   0  0  0  0  0  0  0  0  0  0  0  0
   -1.1710    1.0410    0.3130 C   0  0  0  0  0  0  0  0  0  0  0  0
   -1.0390   -0.2890    0.0020 C   0  0  0  0  0  0  0  0  0  0  0  0
    0.1620   -0.8010   -0.2050 N   0  0  0  0  0  0  0  0  0  0  0  0
    1.2820   -0.0700   -0.1210 C   0  0  0  0  0  0  0  0  0  0  0  0
    2.5620   -0.6810   -0.3590 C   0  0  0  0  0  0  0  0  0  0  0  0
    3.6030   -0.6070    0.5330 C   0  0  0  0  0  0  0  0  0  0  0  0
    4.7980   -1.2210    0.2180 C   0  0  0  0  0  0  0  0  0  0  0  0
    4.9980   -1.9100   -0.9570 C   0  0  0  0  0  0  0  0  0  0  0  0
    6.1770   -2.5110   -1.2690 F   0  0  0  0  0  0  0  0  0  0  0  0
    3.9550   -1.9870   -1.8590 C   0  0  0  0  0  0  0  0  0  0  0  0
    2.7710   -1.3770   -1.5440 C   0  0  0  0  0  0  0  0  0  0  0  0
    1.4690   -1.5130   -2.7390 Cl  0  0  0  0  0  0  0  0  0  0  0  0
   -2.2180   -1.1790   -0.0290 C   0  0  0  0  0  0  0  0  0  0  0  0
   -2.0900   -2.4900   -0.4360 C   0  0  0  0  0  0  0  0  0  0  0  0
   -3.2390   -3.2530   -0.5360 C   0  0  0  0  0  0  0  0  0  0  0  0
   -4.4810   -2.7310   -0.2390 C   0  0  0  0  0  0  0  0  0  0  0  0
   -4.5990   -1.4250    0.1670 C   0  0  0  0  0  0  0  0  0  0  0  0
   -3.4330   -0.6380    0.2730 C   0  0  0  0  0  0  0  0  0  0  0  0
   -3.5240    0.6770    0.7770 N   0  0  2  0  0  0  0  0  0  0  0  0
   -4.8620    1.2340    0.5690 C   0  0  0  0  0  0  0  0  0  0  0  0
   -2.5090    1.5920    0.4620 C   0  0  0  0  0  0  0  0  0  0  0  0
  1  2  1  0
  2  3  1  0
  2  4  1  0
  4  5  2  0
  4  9  1  0
  5  6  1  0
  6  7  2  0
  6 26  1  0
  7  8  1  0
  7 18  1  0
  8  9  2  0
  9 10  1  0
 10 11  2  0
 10 16  1  0
 11 12  1  0
 12 13  2  0
 13 14  1  0
 13 15  1  0
 15 16  2  0
 16 17  1  0
 18 19  2  0
 18 23  1  0
 19 20  1  0
 20 21  2  0
 21 22  1  0
 22 23  2  0
 23 24  1  0
 24 25  1  6
 24 26  1  0
M  CHG  1  24   1
M  END
