
     RDKit          3D

 17 18  0  0  0  0  0  0  0  0999 V2000
   -3.9360    0.6780    0.6120 N   0  0  0  0  0  0  0  0  0  0  0  0
   -3.1610   -0.4500    0.1360 C   0  0  0  0  0  0  0  0  0  0  0  0
   -1.7880    0.0390   -0.1900 C   0  0  0  0  0  0  0  0  0  0  0  0
   -0.8770   -1.0560   -0.7010 C   0  0  0  0  0  0  0  0  0  0  0  0
    0.4150   -0.5140   -0.9890 N   0  0  0  0  0  0  0  0  0  0  0  0
    0.8000    0.0030   -2.1730 C   0  0  0  0  0  0  0  0  0  0  0  0
    2.0680    0.4330   -2.1310 N   0  0  0  0  0  0  0  0  0  0  0  0
    2.5260    0.1960   -0.9020 C   0  0  0  0  0  0  0  0  0  0  0  0
    3.7730    0.4580   -0.3620 C   0  0  0  0  0  0  0  0  0  0  0  0
    5.1630    1.2740   -1.3850 Br  0  0  0  0  0  0  0  0  0  0  0  0
    3.9850    0.1080    0.9530 C   0  0  0  0  0  0  0  0  0  0  0  0
    5.7030    0.4680    1.7020 Br  0  0  0  0  0  0  0  0  0  0  0  0
    2.9670   -0.4800    1.6730 C   0  0  0  0  0  0  0  0  0  0  0  0
    3.3250   -0.9410    3.4890 Br  0  0  0  0  0  0  0  0  0  0  0  0
    1.7160   -0.7320    1.0980 C   0  0  0  0  0  0  0  0  0  0  0  0
    0.3710   -1.5370    2.1330 Br  0  0  0  0  0  0  0  0  0  0  0  0
    1.5000   -0.3880   -0.2010 C   0  0  0  0  0  0  0  0  0  0  0  0
  1  2  1  0
  2  3  1  0
  3  4  1  0
  4  5  1  0
  5  6  1  0
  5 17  1  0
  6  7  2  0
  7  8  1  0
  8  9  2  0
  8 17  1  0
  9 10  1  0
  9 11  1  0
 11 12  1  0
 11 13  2  0
 13 14  1  0
 13 15  1  0
 15 16  1  0
 15 17  2  0
M  CHG  1   1   1
M  END
