
     RDKit          3D

 13 12  0  0  0  0  0  0  0  0999 V2000
    2.4940   -1.7020    1.8990 C   0  0  0  0  0  0  0  0  0  0  0  0
    2.3430   -0.7930    0.9800 C   0  0  0  0  0  0  0  0  0  0  0  0
    1.0210   -0.4590    0.4750 C   0  0  0  0  0  0  0  0  0  0  0  0
   -0.2410   -1.0820    0.9130 C   0  0  0  0  0  0  0  0  0  0  0  0
    0.8930    0.4890   -0.4730 C   0  0  0  0  0  0  0  0  0  0  0  0
   -0.3500    0.9110   -1.0560 C   0  0  0  0  0  0  0  0  0  0  0  0
   -0.3080    1.8240   -1.9470 O   0  0  0  0  0  0  0  0  0  0  0  0
   -1.6080    0.4450   -0.7660 O   0  0  0  0  0  0  0  0  0  0  0  0
   -2.7900    0.9220   -1.3940 C   0  0  0  0  0  0  0  0  0  0  0  0
   -3.9840    0.2030   -0.8480 C   0  0  0  0  0  0  0  0  0  0  0  0
    3.5690   -0.1230    0.4690 C   0  0  2  0  0  0  0  0  0  0  0  0
    3.8770   -0.4350   -1.2400 Cl  0  0  0  0  0  0  0  0  0  0  0  0
    4.9940   -0.6010    1.4090 Cl  0  0  0  0  0  0  0  0  0  0  0  0
  1  2  2  0
  2  3  1  0
  2 11  1  0
  3  4  1  0
  3  5  2  3
  5  6  1  0
  6  7  2  0
  6  8  1  0
  8  9  1  0
  9 10  1  0
 11 12  1  6
 11 13  1  0
M  END
