
     RDKit          3D

 25 28  0  0  0  0  0  0  0  0999 V2000
    6.8500   -0.2500    0.1950 C   0  0  0  0  0  0  0  0  0  0  0  0
    5.4400   -0.2400    0.5230 N   0  0  0  0  0  0  0  0  0  0  0  0
    4.8810   -1.4970    0.0610 C   0  0  0  0  0  0  0  0  0  0  0  0
    3.4290   -1.5690    0.4640 C   0  0  0  0  0  0  0  0  0  0  0  0
    2.7300   -0.4630   -0.1370 N   0  0  0  0  0  0  0  0  0  0  0  0
    1.2820   -0.4120   -0.1090 C   0  0  0  0  0  0  0  0  0  0  0  0
    0.6880    0.6650    0.2160 N   0  0  0  0  0  0  0  0  0  0  0  0
   -0.7170    0.7480    0.2540 C   0  0  0  0  0  0  0  0  0  0  0  0
   -1.3290    1.9220    0.6080 C   0  0  0  0  0  0  0  0  0  0  0  0
   -2.7320    1.9390    0.6270 C   0  0  0  0  0  0  0  0  0  0  0  0
   -3.4910    0.8610    0.3130 C   0  0  0  0  0  0  0  0  0  0  0  0
   -4.9260    0.7540    0.3310 C   0  0  0  0  0  0  0  0  0  0  0  0
   -5.5290   -0.5210    0.2860 C   0  0  0  0  0  0  0  0  0  0  0  0
   -6.8850   -0.7090    0.2760 C   0  0  0  0  0  0  0  0  0  0  0  0
   -7.7460    0.3530    0.3110 C   0  0  0  0  0  0  0  0  0  0  0  0
   -9.1000    0.2030    0.3030 F   0  0  0  0  0  0  0  0  0  0  0  0
   -7.1960    1.6020    0.3540 C   0  0  0  0  0  0  0  0  0  0  0  0
   -5.7970    1.7970    0.3640 C   0  0  0  0  0  0  0  0  0  0  0  0
   -5.2610    3.4470    0.3780 Cl  0  0  0  0  0  0  0  0  0  0  0  0
   -2.7910   -0.2640   -0.0270 N   0  0  0  0  0  0  0  0  0  0  0  0
   -1.4680   -0.3480   -0.0640 C   0  0  0  0  0  0  0  0  0  0  0  0
   -0.8720   -1.6410   -0.4520 C   0  0  0  0  0  0  0  0  0  0  0  0
    0.6070   -1.6510   -0.4700 C   0  0  0  0  0  0  0  0  0  0  0  0
    3.5110    0.5850   -0.7640 C   0  0  0  0  0  0  0  0  0  0  0  0
    4.7460    0.9090    0.0310 C   0  0  0  0  0  0  0  0  0  0  0  0
  1  2  1  0
  2  3  1  0
  2 25  1  0
  3  4  1  0
  4  5  1  0
  5  6  1  0
  5 24  1  0
  6  7  2  0
  6 23  1  0
  7  8  1  0
  8  9  2  0
  8 21  1  0
  9 10  1  0
 10 11  2  0
 11 12  1  0
 11 20  1  0
 12 13  2  0
 12 18  1  0
 13 14  1  0
 14 15  2  0
 15 16  1  0
 15 17  1  0
 17 18  2  0
 18 19  1  0
 20 21  2  0
 21 22  1  0
 22 23  1  0
 24 25  1  0
M  CHG  1   7   1
M  END
