
     RDKit          3D

 26 28  0  0  0  0  0  0  0  0999 V2000
   -2.9380   -2.5880   -0.3460 C   0  0  0  0  0  0  0  0  0  0  0  0
   -3.7280   -1.4080    0.0910 C   0  0  0  0  0  0  0  0  0  0  0  0
   -4.9940   -1.5350    0.5000 C   0  0  0  0  0  0  0  0  0  0  0  0
   -5.7480   -0.3630    0.9240 C   0  0  0  0  0  0  0  0  0  0  0  0
   -6.9980   -0.4840    1.3290 C   0  0  0  0  0  0  0  0  0  0  0  0
   -7.6900    0.6150    1.7210 F   0  0  0  0  0  0  0  0  0  0  0  0
   -5.0930    0.9400    0.8910 C   0  0  0  0  0  0  0  0  0  0  0  0
   -3.8410    1.0520    0.4840 C   0  0  0  0  0  0  0  0  0  0  0  0
   -3.1350    2.3570    0.4340 C   0  0  0  0  0  0  0  0  0  0  0  0
   -3.1360   -0.1110    0.0780 N   0  0  0  0  0  0  0  0  0  0  0  0
   -1.7950    0.0280   -0.3550 C   0  0  0  0  0  0  0  0  0  0  0  0
   -0.6200   -0.0280    0.3630 C   0  0  0  0  0  0  0  0  0  0  0  0
    0.4330    0.1600   -0.4670 N   0  0  0  0  0  0  0  0  0  0  0  0
    1.8190    0.1760   -0.1270 C   0  0  0  0  0  0  0  0  0  0  0  0
    2.7140    1.0570   -0.6910 C   0  0  0  0  0  0  0  0  0  0  0  0
    4.0650    1.0840   -0.3710 C   0  0  0  0  0  0  0  0  0  0  0  0
    4.5550    0.1970    0.5530 C   0  0  0  0  0  0  0  0  0  0  0  0
    5.9320    0.1990    0.9030 N   0  0  2  0  0  0  0  0  0  0  0  0
    6.6490    1.2050    0.1820 C   0  0  0  0  0  0  0  0  0  0  0  0
    6.4560   -1.1120    0.4960 C   0  0  0  0  0  0  0  0  0  0  0  0
    3.6680   -0.6930    1.1270 C   0  0  0  0  0  0  0  0  0  0  0  0
    2.3270   -0.7140    0.8030 C   0  0  0  0  0  0  0  0  0  0  0  0
    1.3080   -1.8920    1.6030 Cl  0  0  0  0  0  0  0  0  0  0  0  0
   -0.0900    0.3270   -1.6690 N   0  0  0  0  0  0  0  0  0  0  0  0
   -1.4200    0.2580   -1.6610 C   0  0  0  0  0  0  0  0  0  0  0  0
   -2.3660    0.3970   -2.8240 C   0  0  0  0  0  0  0  0  0  0  0  0
  1  2  1  0
  2  3  2  0
  2 10  1  0
  3  4  1  0
  4  5  2  3
  4  7  1  0
  5  6  1  0
  7  8  2  0
  8  9  1  0
  8 10  1  0
 10 11  1  0
 11 12  2  0
 11 25  1  0
 12 13  1  0
 13 14  1  0
 13 24  1  0
 14 15  2  0
 14 22  1  0
 15 16  1  0
 16 17  2  0
 17 18  1  0
 17 21  1  0
 18 19  1  6
 18 20  1  0
 21 22  2  0
 22 23  1  0
 24 25  2  0
 25 26  1  0
M  CHG  1  18   1
M  END
