
     RDKit          3D

 13 13  0  0  0  0  0  0  0  0999 V2000
    2.4090    0.7370   -1.6140 C   0  0  0  0  0  0  0  0  0  0  0  0
    1.7950    0.0580   -0.4060 C   0  0  2  0  0  0  0  0  0  0  0  0
    2.8680   -0.8190    0.2140 C   0  0  0  0  0  0  0  0  0  0  0  0
    0.6120   -0.5800   -0.6570 O   0  0  0  0  0  0  0  0  0  0  0  0
   -0.6450   -0.3910   -0.1740 C   0  0  0  0  0  0  0  0  0  0  0  0
   -0.9730    0.5790    0.7490 C   0  0  0  0  0  0  0  0  0  0  0  0
   -2.2810    0.7420    1.2220 C   0  0  0  0  0  0  0  0  0  0  0  0
   -2.5820    1.7380    2.1600 O   0  0  0  0  0  0  0  0  0  0  0  0
   -3.2870   -0.0610    0.7830 C   0  0  0  0  0  0  0  0  0  0  0  0
   -4.9140    0.1640    1.3920 Cl  0  0  0  0  0  0  0  0  0  0  0  0
   -2.9780   -1.0390   -0.1410 C   0  0  0  0  0  0  0  0  0  0  0  0
   -1.6870   -1.1940   -0.6030 C   0  0  0  0  0  0  0  0  0  0  0  0
   -1.3460   -2.4380   -1.7660 Cl  0  0  0  0  0  0  0  0  0  0  0  0
  2  1  1  6
  2  3  1  0
  2  4  1  0
  4  5  1  0
  5  6  2  0
  5 12  1  0
  6  7  1  0
  7  8  1  0
  7  9  2  0
  9 10  1  0
  9 11  1  0
 11 12  2  0
 12 13  1  0
M  END
