
     RDKit          3D

 26 29  0  0  0  0  0  0  0  0999 V2000
   -5.3660    2.3100    0.5090 C   0  0  0  0  0  0  0  0  0  0  0  0
   -4.3750    1.1940    0.4810 C   0  0  0  0  0  0  0  0  0  0  0  0
   -4.2260    0.3300    1.5600 C   0  0  0  0  0  0  0  0  0  0  0  0
   -3.2950   -0.7000    1.5040 C   0  0  0  0  0  0  0  0  0  0  0  0
   -2.5030   -0.8900    0.3920 C   0  0  0  0  0  0  0  0  0  0  0  0
   -1.5410   -2.0180    0.4340 C   0  0  0  0  0  0  0  0  0  0  0  0
   -0.7620   -2.1170   -0.7880 N   0  0  0  0  0  0  0  0  0  0  0  0
   -1.0810   -2.8200   -1.8730 C   0  0  0  0  0  0  0  0  0  0  0  0
   -0.1070   -2.6530   -2.7790 N   0  0  0  0  0  0  0  0  0  0  0  0
    0.8330   -1.8390   -2.2630 C   0  0  0  0  0  0  0  0  0  0  0  0
    2.0360   -1.3330   -2.7430 C   0  0  0  0  0  0  0  0  0  0  0  0
    2.7450   -0.5070   -1.9030 C   0  0  0  0  0  0  0  0  0  0  0  0
    2.2730   -0.1980   -0.6310 C   0  0  0  0  0  0  0  0  0  0  0  0
    1.1190   -0.6860   -0.1780 N   0  0  0  0  0  0  0  0  0  0  0  0
    0.4100   -1.5050   -1.0040 C   0  0  0  0  0  0  0  0  0  0  0  0
    2.9370    0.6610    0.3680 C   0  0  0  0  0  0  0  0  0  0  0  0
    2.7720    0.3030    1.6070 C   0  0  0  0  0  0  0  0  0  0  0  0
    3.3740    1.0620    2.7270 C   0  0  0  0  0  0  0  0  0  0  0  0
    4.4700    0.0070    3.6710 Cl  0  0  0  0  0  0  0  0  0  0  0  0
    3.7380    1.8240   -0.0010 C   0  0  0  0  0  0  0  0  0  0  0  0
    4.4900    1.9510   -1.1100 C   0  0  0  0  0  0  0  0  0  0  0  0
    4.6780    0.9950   -2.1720 N   0  0  0  0  0  0  0  0  0  0  0  0
    3.9840   -0.0270   -2.5300 C   0  0  0  0  0  0  0  0  0  0  0  0
   -2.6520   -0.0400   -0.6640 C   0  0  0  0  0  0  0  0  0  0  0  0
   -1.8790   -0.2150   -1.7680 F   0  0  0  0  0  0  0  0  0  0  0  0
   -3.5670    0.9850   -0.6320 C   0  0  0  0  0  0  0  0  0  0  0  0
  1  2  1  0
  2  3  2  0
  2 26  1  0
  3  4  1  0
  4  5  2  0
  5  6  1  0
  5 24  1  0
  6  7  1  0
  7  8  1  0
  7 15  1  0
  8  9  2  0
  9 10  1  0
 10 11  2  0
 10 15  1  0
 11 12  1  0
 12 13  2  0
 12 23  1  0
 13 14  1  0
 13 16  1  0
 14 15  2  0
 16 17  2  3
 16 20  1  0
 17 18  1  0
 18 19  1  0
 20 21  2  0
 21 22  1  0
 22 23  2  0
 24 25  1  0
 24 26  2  0
M  CHG  1  14   1
M  END
