
     RDKit          3D

 25 28  0  0  0  0  0  0  0  0999 V2000
   -4.4690   -1.8510   -1.3900 C   0  0  0  0  0  0  0  0  0  0  0  0
   -4.5930   -1.7700    0.1020 C   0  0  0  0  0  0  0  0  0  0  0  0
   -3.4620   -0.9650    0.6400 C   0  0  0  0  0  0  0  0  0  0  0  0
   -2.3640   -1.4210    1.2760 N   0  0  0  0  0  0  0  0  0  0  0  0
   -1.5640   -0.4300    1.6230 N   0  0  0  0  0  0  0  0  0  0  0  0
   -0.3020   -0.5700    2.3280 C   0  0  0  0  0  0  0  0  0  0  0  0
    0.8320   -0.7030    1.3620 C   0  0  0  0  0  0  0  0  0  0  0  0
    1.8320    0.1560    1.3380 C   0  0  0  0  0  0  0  0  0  0  0  0
    2.9970    0.1090    0.4280 C   0  0  2  0  0  0  0  0  0  0  0  0
    3.1590    1.3740   -0.2640 N   0  0  0  0  0  0  0  0  0  0  0  0
    4.5800    1.6300   -0.3730 C   0  0  0  0  0  0  0  0  0  0  0  0
    5.2570    0.8060   -1.3920 C   0  0  0  0  0  0  0  0  0  0  0  0
    4.9290   -0.3570   -1.9180 C   0  0  0  0  0  0  0  0  0  0  0  0
    3.7270   -1.1580   -1.5880 C   0  0  0  0  0  0  0  0  0  0  0  0
    2.8910   -0.9580   -0.5760 C   0  0  0  0  0  0  0  0  0  0  0  0
    1.7920   -1.8990   -0.5270 C   0  0  0  0  0  0  0  0  0  0  0  0
    0.8200   -1.7790    0.3840 C   0  0  0  0  0  0  0  0  0  0  0  0
   -2.1560    0.7140    1.2010 C   0  0  0  0  0  0  0  0  0  0  0  0
   -1.8060    1.9940    1.2770 N   0  0  0  0  0  0  0  0  0  0  0  0
   -2.5750    2.9710    0.7710 C   0  0  0  0  0  0  0  0  0  0  0  0
   -3.7790    2.6870    0.1420 C   0  0  0  0  0  0  0  0  0  0  0  0
   -4.7610    3.9830   -0.5090 Cl  0  0  0  0  0  0  0  0  0  0  0  0
   -4.1760    1.3730    0.0450 C   0  0  0  0  0  0  0  0  0  0  0  0
   -5.3520    1.1110   -0.5690 F   0  0  0  0  0  0  0  0  0  0  0  0
   -3.3530    0.4070    0.5790 C   0  0  0  0  0  0  0  0  0  0  0  0
  1  2  1  0
  2  3  1  0
  3  4  2  0
  3 25  1  0
  4  5  1  0
  5  6  1  0
  5 18  1  0
  6  7  1  0
  7  8  2  0
  7 17  1  0
  8  9  1  0
  9 10  1  6
  9 15  1  0
 10 11  1  0
 11 12  1  0
 12 13  2  0
 13 14  1  0
 14 15  2  0
 15 16  1  0
 16 17  2  0
 18 19  2  0
 18 25  1  0
 19 20  1  0
 20 21  2  0
 21 22  1  0
 21 23  1  0
 23 24  1  0
 23 25  2  0
M  CHG  1  10   1
M  END
