
     RDKit          3D

 27 28  0  0  0  0  0  0  0  0999 V2000
    1.9300   -3.7340    1.3880 C   0  0  0  0  0  0  0  0  0  0  0  0
    1.8920   -3.7530   -0.1130 C   0  0  0  0  0  0  0  0  0  0  0  0
    1.3640   -2.4980   -0.7280 C   0  0  2  0  0  0  0  0  0  0  0  0
    2.1640   -1.2700   -0.3840 C   0  0  0  0  0  0  0  0  0  0  0  0
    1.7020   -0.5390    0.8260 C   0  0  0  0  0  0  0  0  0  0  0  0
    0.9740    0.7360    0.5680 C   0  0  2  0  0  0  0  0  0  0  0  0
    1.9210    1.8570    1.0400 C   0  0  0  0  0  0  0  0  0  0  0  0
    3.1630    1.7720    0.2430 C   0  0  0  0  0  0  0  0  0  0  0  0
    3.2690    2.5810   -0.9470 N   0  0  0  0  0  0  0  0  0  0  0  0
    4.1340    1.0590    0.5070 O   0  0  0  0  0  0  0  0  0  0  0  0
   -0.3060    0.7440    1.2520 N   0  0  0  0  0  0  0  0  0  0  0  0
   -1.2660    1.8020    1.2330 C   0  0  0  0  0  0  0  0  0  0  0  0
   -1.5290    2.2190    2.4360 O   0  0  0  0  0  0  0  0  0  0  0  0
   -1.9600    2.4480    0.1310 C   0  0  0  0  0  0  0  0  0  0  0  0
   -1.7040    3.9080   -0.0090 C   0  0  0  0  0  0  0  0  0  0  0  0
   -0.8600    4.5610    0.9140 N   0  0  0  0  0  0  0  0  0  0  0  0
   -2.2430    4.5730   -0.9540 O   0  0  0  0  0  0  0  0  0  0  0  0
   -2.8360    1.9220   -0.7020 C   0  0  0  0  0  0  0  0  0  0  0  0
   -3.4220    0.5930   -0.8450 C   0  0  0  0  0  0  0  0  0  0  0  0
   -2.9690   -0.5320   -1.3300 C   0  0  0  0  0  0  0  0  0  0  0  0
   -3.9690   -1.5680   -1.2420 O   0  0  0  0  0  0  0  0  0  0  0  0
   -5.1590   -0.9770   -0.8710 C   0  0  0  0  0  0  0  0  0  0  0  0
   -4.7680    0.2360   -0.4270 O   0  0  0  0  0  0  0  0  0  0  0  0
   -1.6630   -0.8710   -1.9160 C   0  0  0  0  0  0  0  0  0  0  0  0
   -1.6530   -0.8470   -3.2190 O   0  0  0  0  0  0  0  0  0  0  0  0
   -0.5140   -1.1950   -1.2190 O   0  0  0  0  0  0  0  0  0  0  0  0
   -0.1230   -2.3240   -0.5220 C   0  0  0  0  0  0  0  0  0  0  0  0
  1  2  1  0
  3  2  1  1
  3  4  1  0
  3 27  1  0
  4  5  1  0
  5  6  1  0
  6  7  1  1
  6 11  1  0
  7  8  1  0
  8  9  1  0
  8 10  2  0
 11 12  1  0
 12 13  2  0
 12 14  1  0
 14 15  1  0
 14 18  2  0
 15 16  1  0
 15 17  2  0
 18 19  1  0
 19 20  2  0
 19 23  1  0
 20 21  1  0
 20 24  1  0
 21 22  1  0
 22 23  1  0
 24 25  2  0
 24 26  1  0
 26 27  1  0
M  END
