
     RDKit          3D

 27 28  0  0  0  0  0  0  0  0999 V2000
    7.8030    1.7930    0.1540 C   0  0  0  0  0  0  0  0  0  0  0  0
    6.4130    2.3460   -0.2060 C   0  0  0  0  0  0  0  0  0  0  0  0
    5.4770    1.4160    0.3050 O   0  0  0  0  0  0  0  0  0  0  0  0
    5.1770    0.3040   -0.4600 C   0  0  0  0  0  0  0  0  0  0  0  0
    5.7400    0.2460   -1.6160 O   0  0  0  0  0  0  0  0  0  0  0  0
    4.3180   -0.7890   -0.1030 C   0  0  0  0  0  0  0  0  0  0  0  0
    2.9080   -0.7010   -0.2060 N   0  0  0  0  0  0  0  0  0  0  0  0
    2.0870   -1.9030   -0.1090 C   0  0  0  0  0  0  0  0  0  0  0  0
    2.7860   -2.9640   -0.0160 O   0  0  0  0  0  0  0  0  0  0  0  0
    0.6440   -1.9080   -0.0960 C   0  0  0  0  0  0  0  0  0  0  0  0
    0.0770   -3.1490   -0.1140 C   0  0  0  0  0  0  0  0  0  0  0  0
    0.8680   -4.2550   -0.1500 O   0  0  0  0  0  0  0  0  0  0  0  0
   -1.3960   -3.2260   -0.1150 C   0  0  1  0  0  0  0  0  0  0  0  0
   -1.8230   -4.4840    0.4180 O   0  0  0  0  0  0  0  0  0  0  0  0
   -1.9470   -2.0950    0.6860 C   0  0  0  0  0  0  0  0  0  0  0  0
   -1.5200   -0.8460    0.3040 N   0  0  0  0  0  0  0  0  0  0  0  0
   -2.2750    0.3130    0.4530 C   0  0  0  0  0  0  0  0  0  0  0  0
   -3.3740    0.6740   -0.4580 C   0  0  0  0  0  0  0  0  0  0  0  0
   -3.7760    0.0320   -1.5200 C   0  0  0  0  0  0  0  0  0  0  0  0
   -3.1050   -1.1330   -1.8690 O   0  0  0  0  0  0  0  0  0  0  0  0
   -4.9030    0.3870   -2.4290 C   0  0  0  0  0  0  0  0  0  0  0  0
   -5.4020    1.6480   -2.0920 O   0  0  0  0  0  0  0  0  0  0  0  0
   -4.9930    2.3020   -0.9970 N   0  0  0  0  0  0  0  0  0  0  0  0
   -4.0860    1.9610   -0.1850 C   0  0  0  0  0  0  0  0  0  0  0  0
   -3.7330    2.8600    0.9430 C   0  0  0  0  0  0  0  0  0  0  0  0
   -4.8140    3.9050    1.1280 C   0  0  0  0  0  0  0  0  0  0  0  0
   -0.1350   -0.6960    0.0890 C   0  0  0  0  0  0  0  0  0  0  0  0
  1  2  1  0
  2  3  1  0
  3  4  1  0
  4  5  2  0
  4  6  1  0
  6  7  1  0
  7  8  1  0
  8  9  2  0
  8 10  1  0
 10 11  2  0
 10 27  1  0
 11 12  1  0
 11 13  1  0
 13 14  1  1
 13 15  1  0
 15 16  1  0
 16 17  1  0
 16 27  1  0
 17 18  1  0
 18 19  2  0
 18 24  1  0
 19 20  1  0
 19 21  1  0
 21 22  1  0
 22 23  1  0
 23 24  2  0
 24 25  1  0
 25 26  1  0
M  END
