
     RDKit          3D

 27 27  0  0  0  0  0  0  0  0999 V2000
   -5.4970    1.9830   -1.0850 C   0  0  0  0  0  0  0  0  0  0  0  0
   -5.6890    0.4890   -1.0540 C   0  0  1  0  0  0  0  0  0  0  0  0
   -7.1250    0.3890   -0.4430 C   0  0  0  0  0  0  0  0  0  0  0  0
   -5.9290    0.0470   -2.5100 C   0  0  0  0  0  0  0  0  0  0  0  0
   -4.9660   -0.2760   -0.3000 O   0  0  0  0  0  0  0  0  0  0  0  0
   -3.6430   -0.4660   -0.2570 C   0  0  1  0  0  0  0  0  0  0  0  0
   -3.4460   -1.5370    0.8460 C   0  0  0  0  0  0  0  0  0  0  0  0
   -2.9650   -0.9820   -1.4650 C   0  0  0  0  0  0  0  0  0  0  0  0
   -1.7150   -0.1380   -1.7380 C   0  0  0  0  0  0  0  0  0  0  0  0
   -1.6700    0.9090   -0.6900 C   0  0  2  0  0  0  0  0  0  0  0  0
   -0.4870    1.2200   -0.0470 N   0  0  0  0  0  0  0  0  0  0  0  0
    0.5650    0.1950    0.3350 C   0  0  0  0  0  0  0  0  0  0  0  0
    0.2680   -0.9160    0.0180 O   0  0  0  0  0  0  0  0  0  0  0  0
    1.5900    0.8440    0.9540 N   0  0  0  0  0  0  0  0  0  0  0  0
    2.5950   -0.5570    1.1880 C   0  0  0  0  0  0  0  0  0  0  0  0
    2.1080   -1.5420    0.7840 O   0  0  0  0  0  0  0  0  0  0  0  0
    3.8190   -0.2090    1.8250 C   0  0  0  0  0  0  0  0  0  0  0  0
    4.1580    0.9290    2.2430 O   0  0  0  0  0  0  0  0  0  0  0  0
    4.8230   -1.2280    2.0420 N   0  0  0  0  0  0  0  0  0  0  0  0
    6.0880   -1.0510    2.6340 C   0  0  0  0  0  0  0  0  0  0  0  0
    7.0280   -0.1520    1.8850 C   0  0  2  0  0  0  0  0  0  0  0  0
    6.5570    1.1120    1.7250 O   0  0  0  0  0  0  0  0  0  0  0  0
    7.3260   -0.8140    0.5490 C   0  0  0  0  0  0  0  0  0  0  0  0
    8.3170   -0.0300   -0.1260 O   0  0  0  0  0  0  0  0  0  0  0  0
    8.7170   -0.5090   -1.3880 C   0  0  0  0  0  0  0  0  0  0  0  0
    8.2050   -1.5470   -1.8310 O   0  0  0  0  0  0  0  0  0  0  0  0
   -2.8500    0.7260    0.2320 C   0  0  0  0  0  0  0  0  0  0  0  0
  2  1  1  6
  2  3  1  0
  2  4  1  0
  2  5  1  0
  5  6  1  0
  6  7  1  1
  6  8  1  0
  6 27  1  0
  8  9  1  0
  9 10  1  0
 10 11  1  1
 10 27  1  0
 11 12  1  0
 12 13  2  0
 12 14  1  0
 14 15  1  0
 15 16  2  0
 15 17  1  0
 17 18  2  0
 17 19  1  0
 19 20  1  0
 20 21  1  0
 21 22  1  6
 21 23  1  0
 23 24  1  0
 24 25  1  0
 25 26  2  0
M  END
