
     RDKit          3D

 27 28  0  0  0  0  0  0  0  0999 V2000
   -6.2910    0.8380   -0.3770 C   0  0  0  0  0  0  0  0  0  0  0  0
   -5.0360    0.4800    0.4320 C   0  0  1  0  0  0  0  0  0  0  0  0
   -5.2720   -0.8460    1.0360 C   0  0  0  0  0  0  0  0  0  0  0  0
   -4.2140   -1.5370    1.7650 C   0  0  2  0  0  0  0  0  0  0  0  0
   -4.7620   -2.0800    3.0990 C   0  0  0  0  0  0  0  0  0  0  0  0
   -3.8650   -2.9360    3.6950 O   0  0  0  0  0  0  0  0  0  0  0  0
   -3.0420   -0.8670    2.0920 O   0  0  0  0  0  0  0  0  0  0  0  0
   -2.1750   -0.1830    1.2530 C   0  0  0  0  0  0  0  0  0  0  0  0
   -0.8540   -0.2060    1.6390 C   0  0  0  0  0  0  0  0  0  0  0  0
    0.0450    0.4700    0.8220 C   0  0  0  0  0  0  0  0  0  0  0  0
   -0.2970    1.1440   -0.3240 C   0  0  0  0  0  0  0  0  0  0  0  0
    0.6050    1.8500   -1.1590 N   0  0  0  0  0  0  0  0  0  0  0  0
    1.9310    2.1540   -0.8590 C   0  0  0  0  0  0  0  0  0  0  0  0
    2.4500    1.8180    0.2170 O   0  0  0  0  0  0  0  0  0  0  0  0
    2.6850    2.8660   -1.8240 O   0  0  0  0  0  0  0  0  0  0  0  0
    4.0230    3.1500   -1.4940 C   0  0  0  0  0  0  0  0  0  0  0  0
    4.8610    1.9450   -1.3070 C   0  0  0  0  0  0  0  0  0  0  0  0
    6.0600    2.1560   -0.9220 O   0  0  0  0  0  0  0  0  0  0  0  0
    4.4460    0.6150   -1.5200 N   0  0  0  0  0  0  0  0  0  0  0  0
    5.3490   -0.4910   -1.3040 C   0  0  1  0  0  0  0  0  0  0  0  0
    4.8380   -1.3550   -0.1450 C   0  0  0  0  0  0  0  0  0  0  0  0
    5.5400   -1.3100   -2.5130 C   0  0  0  0  0  0  0  0  0  0  0  0
    6.3990   -2.4370   -2.4660 N   0  0  0  0  0  0  0  0  0  0  0  0
    4.9510   -1.0200   -3.5790 O   0  0  0  0  0  0  0  0  0  0  0  0
   -1.6620    1.1290   -0.6620 C   0  0  0  0  0  0  0  0  0  0  0  0
   -2.5780    0.4860    0.1000 C   0  0  0  0  0  0  0  0  0  0  0  0
   -3.8960    0.5820   -0.4000 O   0  0  0  0  0  0  0  0  0  0  0  0
  2  1  1  6
  2  3  1  0
  2 27  1  0
  3  4  1  0
  4  5  1  1
  4  7  1  0
  5  6  1  0
  7  8  1  0
  8  9  2  0
  8 26  1  0
  9 10  1  0
 10 11  2  0
 11 12  1  0
 11 25  1  0
 12 13  1  0
 13 14  2  0
 13 15  1  0
 15 16  1  0
 16 17  1  0
 17 18  2  0
 17 19  1  0
 19 20  1  0
 20 21  1  1
 20 22  1  0
 22 23  1  0
 22 24  2  0
 25 26  2  0
 26 27  1  0
M  END
