
     RDKit          3D

 27 28  0  0  0  0  0  0  0  0999 V2000
   -5.5430    0.6240    3.0350 C   0  0  0  0  0  0  0  0  0  0  0  0
   -4.8760    0.2940    1.7080 C   0  0  0  0  0  0  0  0  0  0  0  0
   -4.1000    1.5100    1.2740 C   0  0  0  0  0  0  0  0  0  0  0  0
   -3.4070    1.3630    0.0250 N   0  0  0  0  0  0  0  0  0  0  0  0
   -2.3710    0.3550   -0.1650 C   0  0  0  0  0  0  0  0  0  0  0  0
   -2.1700   -0.3340    0.8620 O   0  0  0  0  0  0  0  0  0  0  0  0
   -1.6970    0.2420   -1.4560 C   0  0  0  0  0  0  0  0  0  0  0  0
   -0.4170   -0.4540   -1.5660 C   0  0  1  0  0  0  0  0  0  0  0  0
    0.7890    0.0520   -0.8810 C   0  0  2  0  0  0  0  0  0  0  0  0
    0.6640    0.0820    0.6060 C   0  0  0  0  0  0  0  0  0  0  0  0
    1.1630    1.4560   -1.3280 C   0  0  0  0  0  0  0  0  0  0  0  0
    2.2870    1.9220   -0.4880 C   0  0  0  0  0  0  0  0  0  0  0  0
    2.2630    3.0690    0.0180 O   0  0  0  0  0  0  0  0  0  0  0  0
    3.3890    1.0860   -0.2490 O   0  0  0  0  0  0  0  0  0  0  0  0
    3.1460   -0.2860   -0.3720 C   0  0  0  0  0  0  0  0  0  0  0  0
    3.9540   -1.1170    0.2570 C   0  0  0  0  0  0  0  0  0  0  0  0
    5.0690   -0.6480    1.0600 C   0  0  0  0  0  0  0  0  0  0  0  0
    5.8130   -1.4690    1.6410 O   0  0  0  0  0  0  0  0  0  0  0  0
    5.3340    0.7300    1.2000 O   0  0  0  0  0  0  0  0  0  0  0  0
    6.4300    1.0920    1.9930 C   0  0  0  0  0  0  0  0  0  0  0  0
    2.0200   -0.8040   -1.1810 C   0  0  0  0  0  0  0  0  0  0  0  0
   -0.6760   -1.8670   -1.1750 N   0  0  0  0  0  0  0  0  0  0  0  0
   -1.4450   -2.3980   -2.2390 C   0  0  0  0  0  0  0  0  0  0  0  0
   -2.2720   -3.3580   -2.1410 O   0  0  0  0  0  0  0  0  0  0  0  0
   -1.1180   -1.6620   -3.4130 N   0  0  0  0  0  0  0  0  0  0  0  0
   -0.1520   -0.6910   -3.0440 C   0  0  0  0  0  0  0  0  0  0  0  0
    0.6900   -0.1840   -3.7930 O   0  0  0  0  0  0  0  0  0  0  0  0
  1  2  1  0
  2  3  1  0
  3  4  1  0
  4  5  1  0
  5  6  2  0
  5  7  1  0
  8  7  1  6
  8  9  1  0
  8 22  1  0
  8 26  1  0
  9 10  1  1
  9 11  1  0
  9 21  1  0
 11 12  1  0
 12 13  2  0
 12 14  1  0
 14 15  1  0
 15 16  2  3
 15 21  1  0
 16 17  1  0
 17 18  2  0
 17 19  1  0
 19 20  1  0
 22 23  1  0
 23 24  2  0
 23 25  1  0
 25 26  1  0
 26 27  2  0
M  END
