
     RDKit          3D

 27 28  0  0  0  0  0  0  0  0999 V2000
    4.1080   -1.9370    0.5320 C   0  0  0  0  0  0  0  0  0  0  0  0
    4.7530   -0.6140    0.4040 C   0  0  2  0  0  0  0  0  0  0  0  0
    5.4110   -0.1460    1.7030 C   0  0  0  0  0  0  0  0  0  0  0  0
    6.3950    0.8860    1.2850 C   0  0  0  0  0  0  0  0  0  0  0  0
    7.5460    0.9320    1.7700 O   0  0  0  0  0  0  0  0  0  0  0  0
    6.0310    1.8500    0.3090 N   0  0  0  0  0  0  0  0  0  0  0  0
    4.8300    1.6360   -0.4240 C   0  0  0  0  0  0  0  0  0  0  0  0
    4.4710    2.4880   -1.3110 O   0  0  0  0  0  0  0  0  0  0  0  0
    4.0170    0.4580   -0.1640 N   0  0  0  0  0  0  0  0  0  0  0  0
    2.6410    0.5200   -0.5030 C   0  0  1  0  0  0  0  0  0  0  0  0
    2.1360   -0.4780   -1.4910 C   0  0  0  0  0  0  0  0  0  0  0  0
    0.8550    0.1250   -2.0960 C   0  0  0  0  0  0  0  0  0  0  0  0
   -0.0740    0.4310   -1.0330 N   0  0  0  0  0  0  0  0  0  0  0  0
   -1.4520    0.2210   -1.2830 C   0  0  0  0  0  0  0  0  0  0  0  0
   -1.8290   -0.2170   -2.3950 O   0  0  0  0  0  0  0  0  0  0  0  0
   -2.4390    0.4780   -0.3400 O   0  0  0  0  0  0  0  0  0  0  0  0
   -3.7960    0.2420   -0.6640 C   0  0  1  0  0  0  0  0  0  0  0  0
   -4.4370   -0.7300    0.3050 C   0  0  0  0  0  0  0  0  0  0  0  0
   -3.7120   -2.0400    0.2680 C   0  0  0  0  0  0  0  0  0  0  0  0
   -4.2980   -3.0470    1.2060 C   0  0  0  0  0  0  0  0  0  0  0  0
   -5.6190   -3.3450    0.9400 O   0  0  0  0  0  0  0  0  0  0  0  0
   -4.5760    1.5530   -0.6380 C   0  0  1  0  0  0  0  0  0  0  0  0
   -5.8920    1.3230   -0.9530 O   0  0  0  0  0  0  0  0  0  0  0  0
   -4.4160    2.2110    0.7260 C   0  0  0  0  0  0  0  0  0  0  0  0
   -3.0700    2.4190    0.9900 O   0  0  0  0  0  0  0  0  0  0  0  0
    0.3170    0.9320    0.2440 C   0  0  0  0  0  0  0  0  0  0  0  0
    1.6900    0.4810    0.6830 C   0  0  0  0  0  0  0  0  0  0  0  0
  2  1  1  1
  2  3  1  0
  2  9  1  0
  3  4  1  0
  4  5  2  0
  4  6  1  0
  6  7  1  0
  7  8  2  0
  7  9  1  0
 10  9  1  1
 10 11  1  0
 10 27  1  0
 11 12  1  0
 12 13  1  0
 13 14  1  0
 13 26  1  0
 14 15  2  0
 14 16  1  0
 16 17  1  0
 17 18  1  1
 17 22  1  0
 18 19  1  0
 19 20  1  0
 20 21  1  0
 22 23  1  1
 22 24  1  0
 24 25  1  0
 26 27  1  0
M  END
