
     RDKit          3D

 17 18  0  0  0  0  0  0  0  0999 V2000
   -2.7170   -1.4350   -1.2280 N   0  0  0  0  0  0  0  0  0  0  0  0
   -3.4820   -0.7370   -0.4660 C   0  0  0  0  0  0  0  0  0  0  0  0
   -4.8500   -0.8680   -0.6110 O   0  0  0  0  0  0  0  0  0  0  0  0
   -2.8940    0.1680    0.5230 C   0  0  2  0  0  0  0  0  0  0  0  0
   -3.3470    1.4850    0.2200 O   0  0  0  0  0  0  0  0  0  0  0  0
   -2.3760    2.1680   -0.4780 C   0  0  0  0  0  0  0  0  0  0  0  0
   -2.5820    3.2620   -1.0910 O   0  0  0  0  0  0  0  0  0  0  0  0
   -1.1590    1.4430   -0.3830 N   0  0  0  0  0  0  0  0  0  0  0  0
   -1.4220    0.2880    0.4020 C   0  0  0  0  0  0  0  0  0  0  0  0
   -0.5640   -0.5190    0.9200 N   0  0  0  0  0  0  0  0  0  0  0  0
    0.8250   -0.3910    0.7960 C   0  0  0  0  0  0  0  0  0  0  0  0
    1.5040   -0.8690   -0.2390 C   0  0  0  0  0  0  0  0  0  0  0  0
    2.9750   -0.6540   -0.2250 C   0  0  2  0  0  0  0  0  0  0  0  0
    3.6400   -1.7090    0.4050 O   0  0  0  0  0  0  0  0  0  0  0  0
    3.3720    0.6670    0.3590 C   0  0  0  0  0  0  0  0  0  0  0  0
    2.4090    1.2570    1.1420 O   0  0  0  0  0  0  0  0  0  0  0  0
    1.6660    0.3040    1.8360 C   0  0  0  0  0  0  0  0  0  0  0  0
  1  2  2  0
  2  3  1  0
  4  2  1  6
  4  5  1  0
  4  9  1  0
  5  6  1  0
  6  7  2  0
  6  8  1  0
  8  9  1  0
  9 10  2  3
 10 11  1  0
 11 12  2  0
 11 17  1  0
 12 13  1  0
 13 14  1  1
 13 15  1  0
 15 16  1  0
 16 17  1  0
M  END
