
     RDKit          3D

 18 18  0  0  0  0  0  0  0  0999 V2000
   -0.7340    2.8810   -0.4600 O   0  0  0  0  0  0  0  0  0  0  0  0
   -1.1090    2.0650   -1.2630 C   0  0  0  0  0  0  0  0  0  0  0  0
   -1.7920    2.4430   -2.3700 F   0  0  0  0  0  0  0  0  0  0  0  0
   -0.8400    0.5940   -1.0720 C   0  0  2  0  0  0  0  0  0  0  0  0
   -2.1180   -0.1180   -1.3280 C   0  0  0  0  0  0  0  0  0  0  0  0
   -3.0940   -0.1140   -0.1890 C   0  0  0  0  0  0  0  0  0  0  0  0
   -2.3080   -0.6460    1.0150 C   0  0  2  0  0  0  0  0  0  0  0  0
   -3.1360   -0.7660    2.1320 O   0  0  0  0  0  0  0  0  0  0  0  0
   -1.2400    0.3730    1.2720 C   0  0  0  0  0  0  0  0  0  0  0  0
   -0.2420    0.3860    0.2130 N   0  0  0  0  0  0  0  0  0  0  0  0
    0.5590   -0.7680    0.3670 C   0  0  0  0  0  0  0  0  0  0  0  0
    1.8040   -0.8590   -0.4740 C   0  0  2  0  0  0  0  0  0  0  0  0
    2.3920   -2.1020   -0.1300 O   0  0  0  0  0  0  0  0  0  0  0  0
    2.7890    0.1820   -0.1730 C   0  0  0  0  0  0  0  0  0  0  0  0
    3.8710    0.2240   -0.8610 N   0  0  0  0  0  0  0  0  0  0  0  0
    4.1580   -0.6550   -1.8680 O   0  0  0  0  0  0  0  0  0  0  0  0
    2.6170    1.1600    0.8330 N   0  0  0  0  0  0  0  0  0  0  0  0
    3.6470    1.9670    1.2030 O   0  0  0  0  0  0  0  0  0  0  0  0
  1  2  2  0
  2  3  1  0
  4  2  1  1
  4  5  1  0
  4 10  1  0
  5  6  1  0
  6  7  1  0
  7  8  1  1
  7  9  1  0
  9 10  1  0
 10 11  1  0
 11 12  1  0
 12 13  1  1
 12 14  1  0
 14 15  2  3
 14 17  1  0
 15 16  1  0
 17 18  1  0
M  END
