
     RDKit          3D

 17 18  0  0  0  0  0  0  0  0999 V2000
   -4.2580   -1.8780   -0.1330 N   0  0  0  0  0  0  0  0  0  0  0  0
   -3.2180   -0.9100    0.1110 C   0  0  0  0  0  0  0  0  0  0  0  0
   -1.9450   -1.1440    0.3230 C   0  0  0  0  0  0  0  0  0  0  0  0
   -1.4370   -2.4080    0.3360 F   0  0  0  0  0  0  0  0  0  0  0  0
   -1.1780    0.0670    0.5340 C   0  0  0  0  0  0  0  0  0  0  0  0
    0.2340    0.1600    0.7910 N   0  0  0  0  0  0  0  0  0  0  0  0
    1.1920   -0.3330   -0.1380 C   0  0  0  0  0  0  0  0  0  0  0  0
    0.7370   -0.8500   -1.1880 O   0  0  0  0  0  0  0  0  0  0  0  0
    2.6310   -0.2710    0.0590 C   0  0  2  0  0  0  0  0  0  0  0  0
    3.1910    1.1320    0.0580 C   0  0  0  0  0  0  0  0  0  0  0  0
    4.5810    0.8670   -0.3430 N   0  0  0  0  0  0  0  0  0  0  0  0
    4.5830   -0.3780   -1.0350 C   0  0  0  0  0  0  0  0  0  0  0  0
    5.6270   -0.9190   -1.5350 O   0  0  0  0  0  0  0  0  0  0  0  0
    3.2880   -0.8460   -1.0500 O   0  0  0  0  0  0  0  0  0  0  0  0
   -2.0380    1.0650    0.4420 C   0  0  0  0  0  0  0  0  0  0  0  0
   -3.3960    0.5640    0.1690 C   0  0  2  0  0  0  0  0  0  0  0  0
   -4.2530    0.9460    1.2020 O   0  0  0  0  0  0  0  0  0  0  0  0
  1  2  1  0
  2  3  2  0
  2 16  1  0
  3  4  1  0
  3  5  1  0
  5  6  1  0
  5 15  2  0
  6  7  1  0
  7  8  2  0
  9  7  1  6
  9 10  1  0
  9 14  1  0
 10 11  1  0
 11 12  1  0
 12 13  2  0
 12 14  1  0
 15 16  1  0
 16 17  1  1
M  END
