
     RDKit          3D

 17 17  0  0  0  0  0  0  0  0999 V2000
    1.1550   -2.6110   -0.2960 C   0  0  0  0  0  0  0  0  0  0  0  0
    0.3840   -1.7450    0.5670 N   0  0  0  0  0  0  0  0  0  0  0  0
    0.4410   -0.4050   -0.0830 C   0  0  1  0  0  0  0  0  0  0  0  0
    1.8260   -0.1720   -0.1260 O   0  0  0  0  0  0  0  0  0  0  0  0
    2.4740    0.9240   -0.6240 C   0  0  0  0  0  0  0  0  0  0  0  0
    3.8760    1.0870   -0.6340 N   0  0  0  0  0  0  0  0  0  0  0  0
    1.7610    1.8320   -1.1000 O   0  0  0  0  0  0  0  0  0  0  0  0
   -0.2300   -0.5710   -1.3940 C   0  0  0  0  0  0  0  0  0  0  0  0
   -1.1710    0.4790   -1.8240 C   0  0  0  0  0  0  0  0  0  0  0  0
   -2.5770    0.3480   -1.2530 C   0  0  0  0  0  0  0  0  0  0  0  0
   -2.5170    0.8850    0.0960 N   0  0  0  0  0  0  0  0  0  0  0  0
   -1.7520   -0.0300    0.8890 C   0  0  0  0  0  0  0  0  0  0  0  0
   -0.3050    0.4650    0.8930 C   0  0  2  0  0  0  0  0  0  0  0  0
   -0.2480    1.8040    0.6430 O   0  0  0  0  0  0  0  0  0  0  0  0
    0.1950    0.1610    2.1910 O   0  0  0  0  0  0  0  0  0  0  0  0
   -0.3250    0.8280    3.2890 C   0  0  0  0  0  0  0  0  0  0  0  0
   -1.2230    1.6820    3.0880 O   0  0  0  0  0  0  0  0  0  0  0  0
  1  2  1  0
  3  2  1  1
  3  4  1  0
  3  8  1  0
  3 13  1  0
  4  5  1  0
  5  6  1  0
  5  7  2  0
  8  9  1  0
  9 10  1  0
 10 11  1  0
 11 12  1  0
 12 13  1  0
 13 14  1  6
 13 15  1  0
 15 16  1  0
 16 17  2  0
M  END
