
     RDKit          3D

 17 17  0  0  0  0  0  0  0  0999 V2000
    1.1990   -0.7640    2.0800 N   0  0  0  0  0  0  0  0  0  0  0  0
    0.8730   -0.2590    0.7270 C   0  0  0  0  0  0  0  0  0  0  0  0
    1.9740    0.3980    0.1250 C   0  0  0  0  0  0  0  0  0  0  0  0
    3.1270    0.4710    0.8510 C   0  0  0  0  0  0  0  0  0  0  0  0
    4.2640    1.0730    0.3980 O   0  0  0  0  0  0  0  0  0  0  0  0
    2.0440    1.0190   -1.1990 C   0  0  0  0  0  0  0  0  0  0  0  0
    3.3450    1.5750   -1.4260 O   0  0  0  0  0  0  0  0  0  0  0  0
   -0.3460   -0.5170    0.3610 C   0  0  0  0  0  0  0  0  0  0  0  0
   -1.1810   -1.2680    1.3660 C   0  0  0  0  0  0  0  0  0  0  0  0
   -0.6970   -1.5940    2.4520 O   0  0  0  0  0  0  0  0  0  0  0  0
   -1.0430   -0.2070   -0.8500 C   0  0  0  0  0  0  0  0  0  0  0  0
   -0.5820    0.3890   -1.8060 O   0  0  0  0  0  0  0  0  0  0  0  0
   -2.4810   -0.6380   -0.9960 C   0  0  2  0  0  0  0  0  0  0  0  0
   -3.0120   -0.2550   -2.2940 N   0  0  0  0  0  0  0  0  0  0  0  0
   -4.3590    0.0060   -2.0590 N   0  0  0  0  0  0  0  0  0  0  0  0
   -4.5520    0.2040   -0.7910 C   0  0  0  0  0  0  0  0  0  0  0  0
   -3.3360    0.0810   -0.1410 O   0  0  0  0  0  0  0  0  0  0  0  0
  1  2  1  0
  2  3  1  0
  2  8  2  3
  3  4  2  3
  3  6  1  0
  4  5  1  0
  6  7  1  0
  8  9  1  0
  8 11  1  0
  9 10  2  0
 11 12  2  0
 13 11  1  6
 13 14  1  0
 13 17  1  0
 14 15  1  0
 15 16  2  0
 16 17  1  0
M  END
