
     RDKit          3D

 18 19  0  0  0  0  0  0  0  0999 V2000
   -5.5020    0.4910    0.0330 N   0  0  0  0  0  0  0  0  0  0  0  0
   -4.6180   -0.5150   -0.4000 C   0  0  0  0  0  0  0  0  0  0  0  0
   -5.0060   -1.6000   -0.8860 O   0  0  0  0  0  0  0  0  0  0  0  0
   -3.1740   -0.2520   -0.2630 C   0  0  0  0  0  0  0  0  0  0  0  0
   -2.6870    0.9090    0.2570 C   0  0  0  0  0  0  0  0  0  0  0  0
   -1.3270    1.1130    0.3660 C   0  0  0  0  0  0  0  0  0  0  0  0
   -0.3970    0.1730   -0.0380 C   0  0  0  0  0  0  0  0  0  0  0  0
    1.0380    0.4010    0.0820 C   0  0  0  0  0  0  0  0  0  0  0  0
    1.5920    1.6650   -0.0290 C   0  0  0  0  0  0  0  0  0  0  0  0
    2.9590    1.8670    0.0880 C   0  0  0  0  0  0  0  0  0  0  0  0
    3.8170    0.8140    0.3190 C   0  0  0  0  0  0  0  0  0  0  0  0
    3.2890   -0.4550    0.4340 C   0  0  0  0  0  0  0  0  0  0  0  0
    4.1760   -1.6140    0.6830 C   0  0  0  0  0  0  0  0  0  0  0  0
    3.6930   -2.7660    0.7870 O   0  0  0  0  0  0  0  0  0  0  0  0
    5.5450   -1.4390    0.8030 O   0  0  0  0  0  0  0  0  0  0  0  0
    1.9270   -0.6280    0.3140 C   0  0  0  0  0  0  0  0  0  0  0  0
   -0.9120   -0.9950   -0.5610 C   0  0  0  0  0  0  0  0  0  0  0  0
   -2.2670   -1.2240   -0.6810 C   0  0  0  0  0  0  0  0  0  0  0  0
  1  2  1  0
  2  3  2  0
  2  4  1  0
  4  5  2  0
  4 18  1  0
  5  6  1  0
  6  7  2  0
  7  8  1  0
  7 17  1  0
  8  9  2  0
  8 16  1  0
  9 10  1  0
 10 11  2  0
 11 12  1  0
 12 13  1  0
 12 16  2  0
 13 14  2  0
 13 15  1  0
 17 18  2  0
M  END
