
     RDKit          3D

 15 16  0  0  0  0  0  0  0  0999 V2000
    4.7470    0.2120    0.5580 C   0  0  0  0  0  0  0  0  0  0  0  0
    3.9360   -0.4730   -0.3380 O   0  0  0  0  0  0  0  0  0  0  0  0
    2.5660   -0.3640   -0.2310 C   0  0  0  0  0  0  0  0  0  0  0  0
    2.0310    0.4180    0.7550 C   0  0  0  0  0  0  0  0  0  0  0  0
    0.6480    0.5430    0.8820 C   0  0  0  0  0  0  0  0  0  0  0  0
   -0.1830   -0.1230    0.0120 C   0  0  0  0  0  0  0  0  0  0  0  0
   -1.6470    0.0080    0.1430 C   0  0  0  0  0  0  0  0  0  0  0  0
   -2.4460   -1.1130    0.0640 C   0  0  0  0  0  0  0  0  0  0  0  0
   -3.7900   -1.0200    0.1810 N   0  0  0  0  0  0  0  0  0  0  0  0
   -4.3670    0.1770    0.3790 C   0  0  0  0  0  0  0  0  0  0  0  0
   -3.6230    1.3240    0.4660 C   0  0  0  0  0  0  0  0  0  0  0  0
   -2.2400    1.2470    0.3470 C   0  0  0  0  0  0  0  0  0  0  0  0
   -1.5100    2.2670    0.4190 O   0  0  0  0  0  0  0  0  0  0  0  0
    0.3770   -0.9040   -0.9740 C   0  0  0  0  0  0  0  0  0  0  0  0
    1.7280   -1.0180   -1.0870 C   0  0  0  0  0  0  0  0  0  0  0  0
  1  2  1  0
  2  3  1  0
  3  4  2  0
  3 15  1  0
  4  5  1  0
  5  6  2  0
  6  7  1  0
  6 14  1  0
  7  8  2  0
  7 12  1  0
  8  9  1  0
  9 10  1  0
 10 11  2  0
 11 12  1  0
 12 13  2  0
 14 15  2  0
M  END
