
     RDKit          3D

 15 16  0  0  0  0  0  0  0  0999 V2000
   -2.8520    2.7530    0.4040 C   0  0  0  0  0  0  0  0  0  0  0  0
   -1.8170    1.6680    0.2560 C   0  0  0  0  0  0  0  0  0  0  0  0
   -2.1760    0.4860   -0.1260 C   0  0  0  0  0  0  0  0  0  0  0  0
   -1.3530   -0.6930   -0.3310 C   0  0  0  0  0  0  0  0  0  0  0  0
   -1.9190   -1.8460   -0.7350 C   0  0  0  0  0  0  0  0  0  0  0  0
   -1.1960   -3.0870   -0.9730 C   0  0  0  0  0  0  0  0  0  0  0  0
    0.1820   -3.0410   -0.7550 O   0  0  0  0  0  0  0  0  0  0  0  0
    0.8280   -1.9150   -0.3450 C   0  0  0  0  0  0  0  0  0  0  0  0
    2.2010   -1.9240   -0.1440 C   0  0  0  0  0  0  0  0  0  0  0  0
    2.7910   -0.7530    0.2700 C   0  0  0  0  0  0  0  0  0  0  0  0
    2.0370    0.3820    0.4730 C   0  0  0  0  0  0  0  0  0  0  0  0
    2.6940    1.6630    0.9260 C   0  0  0  0  0  0  0  0  0  0  0  0
    3.0830    2.4070   -0.1860 O   0  0  0  0  0  0  0  0  0  0  0  0
    0.7170    0.3650    0.2720 N   0  0  0  0  0  0  0  0  0  0  0  0
    0.0850   -0.7430   -0.1310 C   0  0  0  0  0  0  0  0  0  0  0  0
  1  2  1  0
  2  3  2  3
  3  4  1  0
  4  5  2  0
  4 15  1  0
  5  6  1  0
  6  7  1  0
  7  8  1  0
  8  9  2  0
  8 15  1  0
  9 10  1  0
 10 11  2  0
 11 12  1  0
 11 14  1  0
 12 13  1  0
 14 15  2  0
M  END
