
     RDKit          3D

 15 16  0  0  0  0  0  0  0  0999 V2000
    4.8390    1.1320   -0.4460 C   0  0  0  0  0  0  0  0  0  0  0  0
    4.0070    0.1210   -0.5250 C   0  0  0  0  0  0  0  0  0  0  0  0
    2.8500    0.0380    0.3410 C   0  0  0  0  0  0  0  0  0  0  0  0
    1.9860   -0.9360    0.3120 C   0  0  0  0  0  0  0  0  0  0  0  0
    0.8000   -1.0200    1.2000 C   0  0  0  0  0  0  0  0  0  0  0  0
   -0.4330   -1.0540    0.4270 N   0  0  0  0  0  0  0  0  0  0  0  0
   -0.9260   -2.1100   -0.4250 C   0  0  0  0  0  0  0  0  0  0  0  0
   -1.8730   -1.4720   -1.2480 O   0  0  0  0  0  0  0  0  0  0  0  0
   -2.2640   -0.2830   -0.6590 C   0  0  0  0  0  0  0  0  0  0  0  0
   -3.3170    0.5800   -0.9470 C   0  0  0  0  0  0  0  0  0  0  0  0
   -4.1600    0.2490   -1.9950 O   0  0  0  0  0  0  0  0  0  0  0  0
   -3.4990    1.7200   -0.2040 C   0  0  0  0  0  0  0  0  0  0  0  0
   -2.6230    2.0010    0.8360 C   0  0  0  0  0  0  0  0  0  0  0  0
   -1.5780    1.1520    1.1290 C   0  0  0  0  0  0  0  0  0  0  0  0
   -1.3930   -0.0080    0.3720 C   0  0  0  0  0  0  0  0  0  0  0  0
  1  2  2  0
  2  3  1  0
  3  4  2  3
  4  5  1  0
  5  6  1  0
  6  7  1  0
  6 15  1  0
  7  8  1  0
  8  9  1  0
  9 10  2  0
  9 15  1  0
 10 11  1  0
 10 12  1  0
 12 13  2  0
 13 14  1  0
 14 15  2  0
M  END
