
     RDKit          3D

 15 16  0  0  0  0  0  0  0  0999 V2000
    2.0180   -1.6870   -1.3630 O   0  0  0  0  0  0  0  0  0  0  0  0
    2.8940   -1.0840   -0.7040 C   0  0  0  0  0  0  0  0  0  0  0  0
    4.2820   -1.4430   -0.8610 N   0  0  0  0  0  0  0  0  0  0  0  0
    5.2100   -0.8520   -0.2070 C   0  0  0  0  0  0  0  0  0  0  0  0
    4.8970    0.2140    0.7300 C   0  0  0  0  0  0  0  0  0  0  0  0
    3.6490    0.6060    0.9340 C   0  0  0  0  0  0  0  0  0  0  0  0
    2.5200   -0.0330    0.2110 C   0  0  0  0  0  0  0  0  0  0  0  0
    1.3080    0.3760    0.4360 C   0  0  0  0  0  0  0  0  0  0  0  0
    0.0970   -0.1120   -0.1590 C   0  0  0  0  0  0  0  0  0  0  0  0
   -1.0780    0.4050    0.1680 C   0  0  0  0  0  0  0  0  0  0  0  0
   -2.3220   -0.0640   -0.4140 C   0  0  0  0  0  0  0  0  0  0  0  0
   -2.2610   -0.9990   -1.2610 O   0  0  0  0  0  0  0  0  0  0  0  0
   -3.6220    0.5150   -0.0450 C   0  0  1  0  0  0  0  0  0  0  0  0
   -4.7110    0.6460   -1.0630 C   0  0  0  0  0  0  0  0  0  0  0  0
   -4.7750   -0.4190   -0.0250 C   0  0  0  0  0  0  0  0  0  0  0  0
  1  2  2  0
  2  3  1  0
  2  7  1  0
  3  4  2  0
  4  5  1  0
  5  6  2  0
  6  7  1  0
  7  8  2  3
  8  9  1  0
  9 10  2  3
 10 11  1  0
 11 12  2  0
 13 11  1  6
 13 14  1  0
 13 15  1  0
 14 15  1  0
M  END
