
     RDKit          3D

 19 19  0  0  0  0  0  0  0  0999 V2000
   -3.2550    2.3090   -0.5220 C   0  0  0  0  0  0  0  0  0  0  0  0
   -3.8140    1.2020   -0.0660 C   0  0  0  0  0  0  0  0  0  0  0  0
   -5.2560    1.1750    0.1300 C   0  0  0  0  0  0  0  0  0  0  0  0
   -6.0240    2.3300   -0.1700 N   0  0  0  0  0  0  0  0  0  0  0  0
   -5.7810    0.1250    0.5620 O   0  0  0  0  0  0  0  0  0  0  0  0
   -3.0540   -0.0160    0.2580 C   0  0  0  0  0  0  0  0  0  0  0  0
   -3.7170   -0.9970    0.6840 O   0  0  0  0  0  0  0  0  0  0  0  0
   -1.6730   -0.1310    0.1190 N   0  0  0  0  0  0  0  0  0  0  0  0
   -0.8870   -1.2590    0.4080 C   0  0  0  0  0  0  0  0  0  0  0  0
   -1.3480   -2.4610    0.8850 C   0  0  0  0  0  0  0  0  0  0  0  0
   -0.4970   -3.5510    1.1520 C   0  0  0  0  0  0  0  0  0  0  0  0
    0.8500   -3.4580    0.9450 C   0  0  0  0  0  0  0  0  0  0  0  0
    1.3260   -2.2510    0.4640 C   0  0  0  0  0  0  0  0  0  0  0  0
    0.5130   -1.1720    0.1960 C   0  0  0  0  0  0  0  0  0  0  0  0
    0.9820    0.0000   -0.2730 O   0  0  0  0  0  0  0  0  0  0  0  0
    2.1850    0.5320   -0.6030 C   0  0  0  0  0  0  0  0  0  0  0  0
    3.2270    0.6750    0.4510 C   0  0  0  0  0  0  0  0  0  0  0  0
    4.4790    1.2950   -0.1610 C   0  0  0  0  0  0  0  0  0  0  0  0
    5.0010    0.4050   -1.2680 C   0  0  0  0  0  0  0  0  0  0  0  0
  1  2  2  0
  2  3  1  0
  2  6  1  0
  3  4  1  0
  3  5  2  0
  6  7  2  0
  6  8  1  0
  8  9  1  0
  9 10  2  0
  9 14  1  0
 10 11  1  0
 11 12  2  0
 12 13  1  0
 13 14  2  0
 14 15  1  0
 15 16  1  0
 16 17  1  0
 17 18  1  0
 18 19  1  0
M  END
