
     RDKit          3D

 19 19  0  0  0  0  0  0  0  0999 V2000
   -6.6400    1.6360   -0.3250 C   0  0  0  0  0  0  0  0  0  0  0  0
   -5.9060    0.6360    0.1360 C   0  0  0  0  0  0  0  0  0  0  0  0
   -5.7020   -0.6310   -0.6220 C   0  0  0  0  0  0  0  0  0  0  0  0
   -4.2830   -0.8050   -0.8700 N   0  0  0  0  0  0  0  0  0  0  0  0
   -3.3190   -0.8920    0.1680 C   0  0  0  0  0  0  0  0  0  0  0  0
   -3.7200   -0.7930    1.3670 O   0  0  0  0  0  0  0  0  0  0  0  0
   -1.9400   -1.0900   -0.0920 N   0  0  0  0  0  0  0  0  0  0  0  0
   -1.0040   -1.1700    1.0020 C   0  0  0  0  0  0  0  0  0  0  0  0
    0.3300   -0.6410    0.7130 C   0  0  0  0  0  0  0  0  0  0  0  0
    0.8300    0.5310    1.2110 C   0  0  0  0  0  0  0  0  0  0  0  0
    2.1070    0.9830    0.9340 C   0  0  0  0  0  0  0  0  0  0  0  0
    2.9210    0.2450    0.1290 C   0  0  0  0  0  0  0  0  0  0  0  0
    4.2100    0.6620   -0.1700 O   0  0  0  0  0  0  0  0  0  0  0  0
    4.6680    1.8810    0.3740 C   0  0  0  0  0  0  0  0  0  0  0  0
    6.0900    2.1990    0.0070 C   0  0  0  0  0  0  0  0  0  0  0  0
    2.4470   -0.9600   -0.4030 C   0  0  0  0  0  0  0  0  0  0  0  0
    3.3300   -1.7780   -1.2860 C   0  0  0  0  0  0  0  0  0  0  0  0
    2.5990   -2.9060   -1.6760 O   0  0  0  0  0  0  0  0  0  0  0  0
    1.1810   -1.3850   -0.1120 C   0  0  0  0  0  0  0  0  0  0  0  0
  1  2  2  0
  2  3  1  0
  3  4  1  0
  4  5  1  0
  5  6  2  0
  5  7  1  0
  7  8  1  0
  8  9  1  0
  9 10  2  0
  9 19  1  0
 10 11  1  0
 11 12  2  0
 12 13  1  0
 12 16  1  0
 13 14  1  0
 14 15  1  0
 16 17  1  0
 16 19  2  0
 17 18  1  0
M  END
