
     RDKit          3D

 19 19  0  0  0  0  0  0  0  0999 V2000
   -3.1850   -2.4520   -1.2670 C   0  0  0  0  0  0  0  0  0  0  0  0
   -2.4240   -1.2950   -1.8660 C   0  0  0  0  0  0  0  0  0  0  0  0
   -2.2690   -0.2370   -0.7140 C   0  0  0  0  0  0  0  0  0  0  0  0
   -1.0710    0.0330   -0.4190 C   0  0  0  0  0  0  0  0  0  0  0  0
   -0.3580    0.8830    0.4860 C   0  0  0  0  0  0  0  0  0  0  0  0
    0.9710    0.7640    0.5360 C   0  0  0  0  0  0  0  0  0  0  0  0
    1.8910   -0.0570   -0.1320 C   0  0  0  0  0  0  0  0  0  0  0  0
    3.1390    0.2370    0.2260 O   0  0  0  0  0  0  0  0  0  0  0  0
    1.9170   -1.0960   -1.0590 N   0  0  0  0  0  0  0  0  0  0  0  0
    3.1210   -1.7610   -1.5590 C   0  0  0  0  0  0  0  0  0  0  0  0
    3.9210   -2.5030   -0.5660 C   0  0  0  0  0  0  0  0  0  0  0  0
    4.4480   -1.8290    0.4960 O   0  0  0  0  0  0  0  0  0  0  0  0
    1.5990    1.7010    1.5830 C   0  0  0  0  0  0  0  0  0  0  0  0
    1.1880    3.1100    1.2480 C   0  0  0  0  0  0  0  0  0  0  0  0
   -0.2780    3.2220    1.4630 C   0  0  0  0  0  0  0  0  0  0  0  0
   -1.0560    1.9410    1.2370 C   0  0  0  0  0  0  0  0  0  0  0  0
   -3.5110    0.0740   -0.1400 C   0  0  0  0  0  0  0  0  0  0  0  0
   -3.7390    0.7830    1.0540 N   0  0  0  0  0  0  0  0  0  0  0  0
   -4.5840   -0.3350   -0.7750 O   0  0  0  0  0  0  0  0  0  0  0  0
  1  2  1  0
  2  3  1  0
  3  4  2  3
  3 17  1  0
  4  5  1  0
  5  6  2  0
  5 16  1  0
  6  7  1  0
  6 13  1  0
  7  8  2  0
  7  9  1  0
  9 10  1  0
 10 11  1  0
 11 12  1  0
 13 14  1  0
 14 15  1  0
 15 16  1  0
 17 18  1  0
 17 19  2  0
M  END
