
     RDKit          3D

 19 19  0  0  0  0  0  0  0  0999 V2000
    7.4740    0.0780   -0.7470 C   0  0  0  0  0  0  0  0  0  0  0  0
    6.5460    0.6550    0.0070 C   0  0  0  0  0  0  0  0  0  0  0  0
    5.3940   -0.1260    0.5360 C   0  0  0  0  0  0  0  0  0  0  0  0
    4.1280    0.4050    0.0730 N   0  0  0  0  0  0  0  0  0  0  0  0
    2.9320   -0.2050    0.4710 C   0  0  0  0  0  0  0  0  0  0  0  0
    2.9840   -1.2080    1.2280 O   0  0  0  0  0  0  0  0  0  0  0  0
    1.5830    0.2570    0.0560 C   0  0  0  0  0  0  0  0  0  0  0  0
    0.5580   -0.5250    0.5920 O   0  0  0  0  0  0  0  0  0  0  0  0
   -0.7630   -0.2410    0.3110 C   0  0  0  0  0  0  0  0  0  0  0  0
   -1.0880    0.8370   -0.5160 C   0  0  0  0  0  0  0  0  0  0  0  0
   -2.3980    1.1460   -0.8150 C   0  0  0  0  0  0  0  0  0  0  0  0
   -2.7220    2.2990   -1.6990 C   0  0  0  0  0  0  0  0  0  0  0  0
   -3.3900    0.3570   -0.2710 C   0  0  0  0  0  0  0  0  0  0  0  0
   -4.7890    0.6980   -0.5980 C   0  0  0  0  0  0  0  0  0  0  0  0
   -5.7420   -0.1840    0.0170 N   0  0  0  0  0  0  0  0  0  0  0  0
   -3.0610   -0.7160    0.5520 C   0  0  0  0  0  0  0  0  0  0  0  0
   -1.7590   -1.0310    0.8560 C   0  0  0  0  0  0  0  0  0  0  0  0
   -1.3820   -2.0850    1.6670 O   0  0  0  0  0  0  0  0  0  0  0  0
   -2.2790   -2.9660    2.2850 C   0  0  0  0  0  0  0  0  0  0  0  0
  1  2  2  0
  2  3  1  0
  3  4  1  0
  4  5  1  0
  5  6  2  0
  5  7  1  0
  7  8  1  0
  8  9  1  0
  9 10  2  0
  9 17  1  0
 10 11  1  0
 11 12  1  0
 11 13  2  0
 13 14  1  0
 13 16  1  0
 14 15  1  0
 16 17  2  0
 17 18  1  0
 18 19  1  0
M  END
