
     RDKit          3D

 28 30  0  0  0  0  0  0  0  0999 V2000
    1.6540    0.5330   -0.2730 O   0  0  0  0  0  0  0  0  0  0  0  0
    1.7670   -0.5270    0.3970 C   0  0  0  0  0  0  0  0  0  0  0  0
    0.5920   -1.1910    0.9810 C   0  0  0  0  0  0  0  0  0  0  0  0
   -0.6610   -0.6710    0.4570 N   0  0  1  0  0  0  0  0  0  0  0  0
   -1.2580   -1.7200   -0.3760 C   0  0  0  0  0  0  0  0  0  0  0  0
   -2.6860   -2.0860    0.0300 C   0  0  0  0  0  0  0  0  0  0  0  0
   -3.4580   -0.8540    0.1980 N   0  0  0  0  0  0  0  0  0  0  0  0
   -4.8300   -0.7550   -0.1170 C   0  0  0  0  0  0  0  0  0  0  0  0
   -5.3900   -1.8370   -0.4790 O   0  0  0  0  0  0  0  0  0  0  0  0
   -5.5620    0.4850   -0.0450 C   0  0  0  0  0  0  0  0  0  0  0  0
   -6.9510    0.5930   -0.2620 C   0  0  0  0  0  0  0  0  0  0  0  0
   -7.2440    1.9270   -0.1080 C   0  0  0  0  0  0  0  0  0  0  0  0
   -6.0220    2.5860    0.2070 C   0  0  0  0  0  0  0  0  0  0  0  0
   -5.1060    1.6620    0.2140 O   0  0  0  0  0  0  0  0  0  0  0  0
   -2.7850    0.3070    0.7550 C   0  0  0  0  0  0  0  0  0  0  0  0
   -1.5250   -0.2080    1.4630 C   0  0  0  0  0  0  0  0  0  0  0  0
    3.0520   -1.0900    0.5630 N   0  0  0  0  0  0  0  0  0  0  0  0
    4.2720   -0.5390    0.0540 C   0  0  0  0  0  0  0  0  0  0  0  0
    4.5200    0.8370    0.0530 C   0  0  0  0  0  0  0  0  0  0  0  0
    5.7460    1.3420   -0.3820 C   0  0  0  0  0  0  0  0  0  0  0  0
    6.0500    2.7970   -0.3410 C   0  0  2  0  0  0  0  0  0  0  0  0
    5.2350    3.3380    0.6250 F   0  0  0  0  0  0  0  0  0  0  0  0
    5.7750    3.4630   -1.5050 F   0  0  0  0  0  0  0  0  0  0  0  0
    7.3830    3.0100   -0.0480 F   0  0  0  0  0  0  0  0  0  0  0  0
    6.7030    0.4590   -0.8110 C   0  0  0  0  0  0  0  0  0  0  0  0
    6.4270   -0.9160   -0.7950 C   0  0  0  0  0  0  0  0  0  0  0  0
    5.2290   -1.4310   -0.3740 C   0  0  0  0  0  0  0  0  0  0  0  0
    4.9580   -3.1470   -0.3570 Cl  0  0  0  0  0  0  0  0  0  0  0  0
  1  2  2  0
  2  3  1  0
  2 17  1  0
  4  3  1  1
  4  5  1  0
  4 16  1  0
  5  6  1  0
  6  7  1  0
  7  8  1  0
  7 15  1  0
  8  9  2  0
  8 10  1  0
 10 11  2  0
 10 14  1  0
 11 12  1  0
 12 13  2  0
 13 14  1  0
 15 16  1  0
 17 18  1  0
 18 19  2  0
 18 27  1  0
 19 20  1  0
 20 21  1  0
 20 25  2  0
 21 22  1  1
 21 23  1  0
 21 24  1  0
 25 26  1  0
 26 27  2  0
 27 28  1  0
M  CHG  1   4   1
M  END
