
     RDKit          3D

 19 20  0  0  0  0  0  0  0  0999 V2000
    5.5040    2.4390   -0.4490 C   0  0  0  0  0  0  0  0  0  0  0  0
    4.3930    1.6690   -0.6750 O   0  0  0  0  0  0  0  0  0  0  0  0
    4.5740    0.3310   -0.3280 C   0  0  0  0  0  0  0  0  0  0  0  0
    3.3450   -0.4960   -0.5830 C   0  0  0  0  0  0  0  0  0  0  0  0
    2.2050   -0.0170    0.1770 N   0  0  0  0  0  0  0  0  0  0  0  0
    0.9300   -0.6190    0.1170 C   0  0  0  0  0  0  0  0  0  0  0  0
    0.6560   -1.7160   -0.6700 C   0  0  0  0  0  0  0  0  0  0  0  0
   -0.6060   -2.2830   -0.7060 C   0  0  0  0  0  0  0  0  0  0  0  0
   -1.6530   -1.7580    0.0590 C   0  0  0  0  0  0  0  0  0  0  0  0
   -2.9070   -2.3650   -0.0110 O   0  0  0  0  0  0  0  0  0  0  0  0
   -4.0450   -1.9650    0.6770 C   0  0  0  0  0  0  0  0  0  0  0  0
   -4.4720   -0.5630    0.3220 C   0  0  0  0  0  0  0  0  0  0  0  0
   -3.9850    0.2080   -0.7160 C   0  0  0  0  0  0  0  0  0  0  0  0
   -4.6500    1.4130   -0.6720 C   0  0  0  0  0  0  0  0  0  0  0  0
   -5.5090    1.3170    0.3890 C   0  0  0  0  0  0  0  0  0  0  0  0
   -5.3750    0.1590    0.9360 O   0  0  0  0  0  0  0  0  0  0  0  0
   -1.3820   -0.6650    0.8450 C   0  0  0  0  0  0  0  0  0  0  0  0
   -0.1010   -0.1070    0.8670 C   0  0  0  0  0  0  0  0  0  0  0  0
    0.1500    1.0250    1.6900 N   0  0  0  0  0  0  0  0  0  0  0  0
  1  2  1  0
  2  3  1  0
  3  4  1  0
  4  5  1  0
  5  6  1  0
  6  7  2  0
  6 18  1  0
  7  8  1  0
  8  9  2  0
  9 10  1  0
  9 17  1  0
 10 11  1  0
 11 12  1  0
 12 13  2  0
 12 16  1  0
 13 14  1  0
 14 15  2  0
 15 16  1  0
 17 18  2  0
 18 19  1  0
M  END
