
     RDKit          3D

 23 26  0  0  0  0  0  0  0  0999 V2000
    7.8270    0.5450   -0.1890 C   0  0  0  0  0  0  0  0  0  0  0  0
    6.4570    0.1710    0.2540 C   0  0  0  0  0  0  0  0  0  0  0  0
    6.2520   -0.2030    1.5680 C   0  0  0  0  0  0  0  0  0  0  0  0
    4.9890   -0.5450    1.9630 C   0  0  0  0  0  0  0  0  0  0  0  0
    3.9120   -0.5320    1.1030 C   0  0  0  0  0  0  0  0  0  0  0  0
    4.0950   -0.1630   -0.2070 C   0  0  0  0  0  0  0  0  0  0  0  0
    5.3830    0.1850   -0.6100 C   0  0  0  0  0  0  0  0  0  0  0  0
    2.8270   -0.2110   -0.9700 C   0  0  0  0  0  0  0  0  0  0  0  0
    1.8480   -0.6430   -0.0080 N   0  0  0  0  0  0  0  0  0  0  0  0
    0.4280   -0.8650   -0.2000 C   0  0  0  0  0  0  0  0  0  0  0  0
   -0.3210    0.4260    0.0820 C   0  0  0  0  0  0  0  0  0  0  0  0
   -1.7850    0.2480   -0.1020 C   0  0  0  0  0  0  0  0  0  0  0  0
   -2.7180    1.2440    0.0830 C   0  0  0  0  0  0  0  0  0  0  0  0
   -3.9570    0.7260   -0.1730 C   0  0  0  0  0  0  0  0  0  0  0  0
   -3.7470   -0.5940   -0.5120 C   0  0  0  0  0  0  0  0  0  0  0  0
   -2.4440   -0.8490   -0.4610 O   0  0  0  0  0  0  0  0  0  0  0  0
   -4.7900   -1.5470   -0.8680 C   0  0  0  0  0  0  0  0  0  0  0  0
   -6.0850   -1.3820   -1.0390 C   0  0  0  0  0  0  0  0  0  0  0  0
   -6.8010   -0.0900   -0.8930 C   0  0  0  0  0  0  0  0  0  0  0  0
   -6.3480    0.6910    0.2260 N   0  0  0  0  0  0  0  0  0  0  0  0
   -5.1990    1.5240   -0.0710 C   0  0  0  0  0  0  0  0  0  0  0  0
    2.4860   -0.8420    1.2540 C   0  0  0  0  0  0  0  0  0  0  0  0
    1.9760   -1.2160    2.3410 O   0  0  0  0  0  0  0  0  0  0  0  0
  1  2  1  0
  2  3  2  0
  2  7  1  0
  3  4  1  0
  4  5  2  0
  5  6  1  0
  5 22  1  0
  6  7  2  0
  6  8  1  0
  8  9  1  0
  9 10  1  0
  9 22  1  0
 10 11  1  0
 11 12  1  0
 12 13  2  0
 12 16  1  0
 13 14  1  0
 14 15  2  0
 14 21  1  0
 15 16  1  0
 15 17  1  0
 17 18  2  0
 18 19  1  0
 19 20  1  0
 20 21  1  0
 22 23  2  0
M  CHG  1  20   1
M  END
