
     RDKit          3D

 12 13  0  0  0  0  0  0  0  0999 V2000
    3.9800   -0.3670    0.1110 C   0  0  0  0  0  0  0  0  0  0  0  0
    2.9410    0.7500    0.0940 C   0  0  0  0  0  0  0  0  0  0  0  0
    1.5780    0.1750    0.0590 C   0  0  0  0  0  0  0  0  0  0  0  0
    1.3990   -1.1300    0.0460 C   0  0  0  0  0  0  0  0  0  0  0  0
    0.0940   -1.6890    0.0130 N   0  0  0  0  0  0  0  0  0  0  0  0
   -1.0210   -0.8000   -0.0070 C   0  0  0  0  0  0  0  0  0  0  0  0
   -2.2510   -1.2360   -0.0390 C   0  0  0  0  0  0  0  0  0  0  0  0
   -3.4490   -0.3650   -0.0600 C   0  0  0  0  0  0  0  0  0  0  0  0
   -3.1900    1.0430   -0.4780 C   0  0  0  0  0  0  0  0  0  0  0  0
   -1.9010    1.5080   -0.0130 N   0  0  0  0  0  0  0  0  0  0  0  0
   -0.7670    0.6350    0.0080 C   0  0  0  0  0  0  0  0  0  0  0  0
    0.4560    1.1150    0.0390 C   0  0  0  0  0  0  0  0  0  0  0  0
  1  2  1  0
  2  3  1  0
  3  4  2  0
  3 12  1  0
  4  5  1  0
  5  6  1  0
  6  7  2  0
  6 11  1  0
  7  8  1  0
  8  9  1  0
  9 10  1  0
 10 11  1  0
 11 12  2  0
M  END
