
     RDKit          3D

 23 25  0  0  0  0  0  0  0  0999 V2000
    6.6950   -1.3690   -0.4490 C   0  0  0  0  0  0  0  0  0  0  0  0
    5.7580   -1.3070    0.7200 C   0  0  0  0  0  0  0  0  0  0  0  0
    4.7150   -0.2580    0.3990 C   0  0  0  0  0  0  0  0  0  0  0  0
    3.4850   -0.6490    0.3590 C   0  0  0  0  0  0  0  0  0  0  0  0
    2.3470    0.2220    0.0660 C   0  0  0  0  0  0  0  0  0  0  0  0
    1.0990   -0.2920    0.0640 C   0  0  0  0  0  0  0  0  0  0  0  0
    0.9330   -1.7220    0.3680 C   0  0  0  0  0  0  0  0  0  0  0  0
   -0.4750   -1.8900    0.9930 C   0  0  0  0  0  0  0  0  0  0  0  0
   -1.4910   -1.4930   -0.0180 C   0  0  0  0  0  0  0  0  0  0  0  0
   -1.2830   -0.0070   -0.2750 C   0  0  0  0  0  0  0  0  0  0  0  0
   -2.4080    0.8000   -0.5590 N   0  0  0  0  0  0  0  0  0  0  0  0
   -2.9330    0.8350   -1.9190 C   0  0  0  0  0  0  0  0  0  0  0  0
   -4.4200    1.1100   -1.8780 C   0  0  0  0  0  0  0  0  0  0  0  0
   -5.3010    0.7790   -0.9440 C   0  0  0  0  0  0  0  0  0  0  0  0
   -5.0280    0.0500    0.3010 C   0  0  0  0  0  0  0  0  0  0  0  0
   -4.0740    0.6870    1.2410 C   0  0  0  0  0  0  0  0  0  0  0  0
   -2.9740    1.4820    0.5830 C   0  0  0  0  0  0  0  0  0  0  0  0
   -0.0650    0.5240   -0.2310 C   0  0  0  0  0  0  0  0  0  0  0  0
    0.0710    1.9690   -0.5410 C   0  0  0  0  0  0  0  0  0  0  0  0
   -0.9290    2.6770   -0.7940 O   0  0  0  0  0  0  0  0  0  0  0  0
    1.3750    2.4940   -0.5340 N   0  0  0  0  0  0  0  0  0  0  0  0
    2.4900    1.6380   -0.2370 C   0  0  0  0  0  0  0  0  0  0  0  0
    3.6490    2.1490   -0.2420 O   0  0  0  0  0  0  0  0  0  0  0  0
  1  2  1  0
  2  3  1  0
  3  4  2  3
  4  5  1  0
  5  6  2  0
  5 22  1  0
  6  7  1  0
  6 18  1  0
  7  8  1  0
  8  9  1  0
  9 10  1  0
 10 11  1  0
 10 18  2  0
 11 12  1  0
 11 17  1  0
 12 13  1  0
 13 14  2  0
 14 15  1  0
 15 16  1  0
 16 17  1  0
 18 19  1  0
 19 20  2  0
 19 21  1  0
 21 22  1  0
 22 23  2  0
M  END
