
     RDKit          3D

 23 25  0  0  0  0  0  0  0  0999 V2000
   -1.7920   -4.3190   -0.8290 C   0  0  0  0  0  0  0  0  0  0  0  0
   -0.6030   -3.5690   -0.5190 C   0  0  0  0  0  0  0  0  0  0  0  0
   -0.3650   -2.2940   -0.4500 C   0  0  0  0  0  0  0  0  0  0  0  0
    0.9400   -1.8500   -0.1020 N   0  0  0  0  0  0  0  0  0  0  0  0
    1.2820   -0.4560    0.0270 C   0  0  0  0  0  0  0  0  0  0  0  0
    2.6760   -0.1930    0.3990 C   0  0  0  0  0  0  0  0  0  0  0  0
    3.3040    0.9050    0.5920 N   0  0  0  0  0  0  0  0  0  0  0  0
    4.6730    0.7530    0.9460 C   0  0  0  0  0  0  0  0  0  0  0  0
    4.8630   -0.7090    0.9590 C   0  0  0  0  0  0  0  0  0  0  0  0
    3.6970   -1.2190    0.6400 C   0  0  0  0  0  0  0  0  0  0  0  0
    0.3780    0.4710   -0.1810 C   0  0  0  0  0  0  0  0  0  0  0  0
    0.6900    1.8820   -0.0650 C   0  0  0  0  0  0  0  0  0  0  0  0
   -0.2290    2.7590   -0.3440 O   0  0  0  0  0  0  0  0  0  0  0  0
    1.8500    2.4980    0.3100 O   0  0  0  0  0  0  0  0  0  0  0  0
    2.0150    3.9010    0.3810 C   0  0  0  0  0  0  0  0  0  0  0  0
   -0.9890    0.1540   -0.5580 C   0  0  2  0  0  0  0  0  0  0  0  0
   -2.1160    0.9030   -0.1010 C   0  0  0  0  0  0  0  0  0  0  0  0
   -2.2550    1.6500    0.9540 C   0  0  0  0  0  0  0  0  0  0  0  0
   -3.5120    2.3540    1.2520 C   0  0  0  0  0  0  0  0  0  0  0  0
   -3.3640    0.6960   -0.9200 C   0  0  0  0  0  0  0  0  0  0  0  0
   -3.5230   -0.4880   -1.4860 C   0  0  0  0  0  0  0  0  0  0  0  0
   -2.5300   -1.5220   -1.3480 C   0  0  0  0  0  0  0  0  0  0  0  0
   -1.3750   -1.3000   -0.6800 C   0  0  0  0  0  0  0  0  0  0  0  0
  1  2  1  0
  2  3  2  3
  3  4  1  0
  3 23  1  0
  4  5  1  0
  5  6  1  0
  5 11  2  0
  6  7  2  0
  6 10  1  0
  7  8  1  0
  8  9  1  0
  9 10  2  0
 11 12  1  0
 16 11  1  1
 12 13  2  0
 12 14  1  0
 14 15  1  0
 16 17  1  0
 16 23  1  0
 17 18  2  3
 17 20  1  0
 18 19  1  0
 20 21  2  0
 21 22  1  0
 22 23  2  0
M  END
