
     RDKit          3D

 23 26  0  0  0  0  0  0  0  0999 V2000
   -4.0760   -0.7250    1.3330 C   0  0  0  0  0  0  0  0  0  0  0  0
   -3.6820   -0.4680    0.1060 C   0  0  0  0  0  0  0  0  0  0  0  0
   -4.6010   -0.2880   -0.9360 O   0  0  0  0  0  0  0  0  0  0  0  0
   -4.2000   -0.6570   -2.1590 O   0  0  0  0  0  0  0  0  0  0  0  0
   -3.0500    0.0780   -2.5240 C   0  0  0  0  0  0  0  0  0  0  0  0
   -1.9850   -0.0920   -1.5040 C   0  0  0  0  0  0  0  0  0  0  0  0
   -2.2670   -0.3530   -0.2410 C   0  0  0  0  0  0  0  0  0  0  0  0
   -1.2820   -0.5410    0.8230 C   0  0  0  0  0  0  0  0  0  0  0  0
    0.1120   -0.3950    0.4410 C   0  0  0  0  0  0  0  0  0  0  0  0
    0.6350    0.8700    0.3160 C   0  0  0  0  0  0  0  0  0  0  0  0
   -0.1770    2.0340    0.5680 C   0  0  2  0  0  0  0  0  0  0  0  0
    0.6750    3.3200    0.5120 C   0  0  0  0  0  0  0  0  0  0  0  0
   -0.3300    3.8930    1.4210 N   0  0  0  0  0  0  0  0  0  0  0  0
   -0.4700    2.5150    1.9340 C   0  0  0  0  0  0  0  0  0  0  0  0
    1.9240    0.9880   -0.0470 N   0  0  0  0  0  0  0  0  0  0  0  0
    2.6960   -0.1120   -0.2840 C   0  0  0  0  0  0  0  0  0  0  0  0
    4.0130    0.0340   -0.6500 C   0  0  0  0  0  0  0  0  0  0  0  0
    4.8210   -1.0410   -0.8940 C   0  0  0  0  0  0  0  0  0  0  0  0
    4.3430   -2.3160   -0.7810 C   0  0  0  0  0  0  0  0  0  0  0  0
    2.9990   -2.4800   -0.4070 C   0  0  0  0  0  0  0  0  0  0  0  0
    2.2000   -1.3960   -0.1660 C   0  0  0  0  0  0  0  0  0  0  0  0
    0.8880   -1.5430    0.2010 C   0  0  0  0  0  0  0  0  0  0  0  0
    0.2460   -2.8650    0.3370 C   0  0  0  0  0  0  0  0  0  0  0  0
  1  2  2  0
  2  3  1  0
  2  7  1  0
  3  4  1  0
  4  5  1  0
  5  6  1  0
  6  7  2  0
  7  8  1  0
  8  9  1  0
  9 10  1  0
  9 22  2  0
 11 10  1  1
 10 15  2  0
 11 12  1  0
 11 14  1  0
 12 13  1  0
 13 14  1  0
 15 16  1  0
 16 17  2  0
 16 21  1  0
 17 18  1  0
 18 19  2  0
 19 20  1  0
 20 21  2  0
 21 22  1  0
 22 23  1  0
M  CHG  1  15   1
M  END
