
     RDKit          3D

 23 26  0  0  0  0  0  0  0  0999 V2000
    5.0320   -0.0540    1.4180 C   0  0  0  0  0  0  0  0  0  0  0  0
    4.1150   -0.2000    0.3400 N   0  0  0  0  0  0  0  0  0  0  0  0
    4.5360    0.4270   -0.8860 C   0  0  0  0  0  0  0  0  0  0  0  0
    3.3880    1.3630   -1.2860 C   0  0  0  0  0  0  0  0  0  0  0  0
    2.2400    0.5090   -1.5120 N   0  0  0  0  0  0  0  0  0  0  0  0
    1.6940    0.0640   -0.2440 C   0  0  1  0  0  0  0  0  0  0  0  0
    0.2540    0.3640   -0.2120 C   0  0  0  0  0  0  0  0  0  0  0  0
   -0.1460    1.6180   -0.6490 C   0  0  0  0  0  0  0  0  0  0  0  0
   -1.4580    1.9760   -0.6520 C   0  0  0  0  0  0  0  0  0  0  0  0
   -2.4170    1.1020   -0.2220 C   0  0  0  0  0  0  0  0  0  0  0  0
   -3.7260    1.5170   -0.2470 C   0  0  0  0  0  0  0  0  0  0  0  0
   -4.7050    0.6540    0.1820 C   0  0  0  0  0  0  0  0  0  0  0  0
   -5.9660    1.0670    0.1530 O   0  0  0  0  0  0  0  0  0  0  0  0
   -6.9440    0.2940    0.5470 C   0  0  0  0  0  0  0  0  0  0  0  0
   -8.1310    0.7430    0.4970 O   0  0  0  0  0  0  0  0  0  0  0  0
   -6.6940   -0.9800    1.0070 C   0  0  0  0  0  0  0  0  0  0  0  0
   -5.3980   -1.4520    1.0550 C   0  0  0  0  0  0  0  0  0  0  0  0
   -4.3910   -0.6020    0.6290 C   0  0  0  0  0  0  0  0  0  0  0  0
   -3.0560   -0.9870    0.6400 C   0  0  0  0  0  0  0  0  0  0  0  0
   -2.0700   -0.1500    0.2200 C   0  0  0  0  0  0  0  0  0  0  0  0
   -0.7240   -0.4890    0.2130 C   0  0  0  0  0  0  0  0  0  0  0  0
    2.0200   -1.3670    0.0310 C   0  0  0  0  0  0  0  0  0  0  0  0
    3.5340   -1.4820    0.1840 C   0  0  0  0  0  0  0  0  0  0  0  0
  1  2  1  0
  2  3  1  0
  2 23  1  0
  3  4  1  0
  4  5  1  0
  5  6  1  0
  6  7  1  6
  6 22  1  0
  7  8  2  0
  7 21  1  0
  8  9  1  0
  9 10  2  0
 10 11  1  0
 10 20  1  0
 11 12  2  0
 12 13  1  0
 12 18  1  0
 13 14  1  0
 14 15  2  0
 14 16  1  0
 16 17  2  0
 17 18  1  0
 18 19  2  0
 19 20  1  0
 20 21  2  0
 22 23  1  0
M  CHG  1   5   1
M  END
