
     RDKit          3D

 23 26  0  0  0  0  0  0  0  0999 V2000
   -4.3320   -3.5190    0.1520 C   0  0  0  0  0  0  0  0  0  0  0  0
   -3.7880   -2.1220    0.0930 C   0  0  0  0  0  0  0  0  0  0  0  0
   -4.6180   -1.0450   -0.0260 C   0  0  0  0  0  0  0  0  0  0  0  0
   -4.0550    0.2420   -0.0770 C   0  0  0  0  0  0  0  0  0  0  0  0
   -2.6980    0.4620   -0.0100 C   0  0  0  0  0  0  0  0  0  0  0  0
   -1.8820   -0.6390    0.1110 C   0  0  0  0  0  0  0  0  0  0  0  0
   -0.4390   -0.4820    0.1870 C   0  0  0  0  0  0  0  0  0  0  0  0
    0.2200   -1.5610    0.2960 O   0  0  0  0  0  0  0  0  0  0  0  0
    0.2550    0.7300    0.1500 N   0  0  0  0  0  0  0  0  0  0  0  0
    1.6580    0.8130    0.2160 C   0  0  0  0  0  0  0  0  0  0  0  0
    2.2350    1.9880    0.7050 C   0  0  0  0  0  0  0  0  0  0  0  0
    3.5800    2.1010    0.7500 C   0  0  0  0  0  0  0  0  0  0  0  0
    4.4020    1.0730    0.3200 C   0  0  0  0  0  0  0  0  0  0  0  0
    5.7350    1.2360    0.3860 N   0  0  0  0  0  0  0  0  0  0  0  0
    6.5240    0.2320   -0.0340 C   0  0  0  0  0  0  0  0  0  0  0  0
    6.0140   -0.9510   -0.5260 C   0  0  0  0  0  0  0  0  0  0  0  0
    4.6520   -1.1220   -0.5960 C   0  0  0  0  0  0  0  0  0  0  0  0
    3.8370   -0.0860   -0.1630 C   0  0  0  0  0  0  0  0  0  0  0  0
    2.4520   -0.2120   -0.2130 C   0  0  0  0  0  0  0  0  0  0  0  0
   -2.4260   -1.9300    0.1620 C   0  0  0  0  0  0  0  0  0  0  0  0
   -2.4480    1.8310   -0.0840 O   0  0  0  0  0  0  0  0  0  0  0  0
   -3.6000    2.4660   -0.6540 C   0  0  0  0  0  0  0  0  0  0  0  0
   -4.7190    1.5690   -0.2000 C   0  0  0  0  0  0  0  0  0  0  0  0
  1  2  1  0
  2  3  2  0
  2 20  1  0
  3  4  1  0
  4  5  2  0
  4 23  1  0
  5  6  1  0
  5 21  1  0
  6  7  1  0
  6 20  2  0
  7  8  2  0
  7  9  1  0
  9 10  1  0
 10 11  2  0
 10 19  1  0
 11 12  1  0
 12 13  2  0
 13 14  1  0
 13 18  1  0
 14 15  2  0
 15 16  1  0
 16 17  2  0
 17 18  1  0
 18 19  2  0
 21 22  1  0
 22 23  1  0
M  CHG  1  14   1
M  END
