
     RDKit          3D

 25 27  0  0  0  0  0  0  0  0999 V2000
   -3.4320    2.9410    1.5100 C   0  0  0  0  0  0  0  0  0  0  0  0
   -2.6680    1.7250    1.1860 C   0  0  0  0  0  0  0  0  0  0  0  0
   -2.6610    1.1910    0.0060 C   0  0  0  0  0  0  0  0  0  0  0  0
   -3.3840    1.6700   -1.1940 C   0  0  0  0  0  0  0  0  0  0  0  0
   -3.2120    0.5010   -2.1510 C   0  0  0  0  0  0  0  0  0  0  0  0
   -3.0070   -0.6140   -1.3310 O   0  0  0  0  0  0  0  0  0  0  0  0
   -1.9340   -0.0310   -0.4420 C   0  0  2  0  0  0  0  0  0  0  0  0
   -1.7930   -1.0710    0.5230 C   0  0  0  0  0  0  0  0  0  0  0  0
   -0.7140   -1.3880    1.1960 C   0  0  0  0  0  0  0  0  0  0  0  0
    0.5780   -0.7330    1.1160 C   0  0  0  0  0  0  0  0  0  0  0  0
    1.5220   -1.0900    1.9630 C   0  0  0  0  0  0  0  0  0  0  0  0
    1.6150   -2.0410    3.0610 C   0  0  0  0  0  0  0  0  0  0  0  0
    0.9230    0.2960    0.0890 C   0  0  2  0  0  0  0  0  0  0  0  0
    1.1590   -0.3960   -1.1030 O   0  0  0  0  0  0  0  0  0  0  0  0
    1.3750    0.4220   -2.1610 C   0  0  0  0  0  0  0  0  0  0  0  0
    2.7680    0.6510   -2.6120 C   0  0  0  0  0  0  0  0  0  0  0  0
    3.8350    0.6770   -1.5940 C   0  0  1  0  0  0  0  0  0  0  0  0
    4.4050    2.0760   -1.5120 C   0  0  0  0  0  0  0  0  0  0  0  0
    3.3690    0.2270   -0.2180 C   0  0  0  0  0  0  0  0  0  0  0  0
    2.2360    1.0220    0.3020 C   0  0  2  0  0  0  0  0  0  0  0  0
    2.4580    1.7030    1.5770 C   0  0  0  0  0  0  0  0  0  0  0  0
   -0.8630   -2.7290    1.9300 C   0  0  0  0  0  0  0  0  0  0  0  0
   -1.5850   -3.6550    0.8760 C   0  0  0  0  0  0  0  0  0  0  0  0
   -2.9230   -3.2080    0.6630 N   0  0  0  0  0  0  0  0  0  0  0  0
   -3.0560   -1.8190    1.0000 C   0  0  0  0  0  0  0  0  0  0  0  0
  1  2  1  0
  2  3  2  3
  3  4  1  0
  3  7  1  0
  4  5  1  0
  5  6  1  0
  6  7  1  0
  7  8  1  1
  8  9  2  0
  8 25  1  0
  9 10  1  0
  9 22  1  0
 10 11  2  3
 13 10  1  1
 11 12  1  0
 13 14  1  0
 13 20  1  0
 14 15  1  0
 15 16  1  0
 16 17  1  0
 17 18  1  1
 17 19  1  0
 19 20  1  0
 20 21  1  1
 22 23  1  0
 23 24  1  0
 24 25  1  0
M  CHG  1  24   1
M  END
