
     RDKit          3D

 25 27  0  0  0  0  0  0  0  0999 V2000
    6.9990    0.5110    0.1450 C   0  0  0  0  0  0  0  0  0  0  0  0
    5.6790    0.0960   -0.4050 C   0  0  0  0  0  0  0  0  0  0  0  0
    4.5080   -0.1710    0.2720 C   0  0  0  0  0  0  0  0  0  0  0  0
    3.5710   -0.5120   -0.6540 C   0  0  0  0  0  0  0  0  0  0  0  0
    2.1580   -0.8900   -0.5080 C   0  0  0  0  0  0  0  0  0  0  0  0
    1.5840   -0.8390    0.8620 C   0  0  1  0  0  0  0  0  0  0  0  0
    2.3890   -1.7750    1.7550 C   0  0  0  0  0  0  0  0  0  0  0  0
    1.5240    0.4950    1.5130 C   0  0  0  0  0  0  0  0  0  0  0  0
    0.8700    1.5370    0.6360 C   0  0  0  0  0  0  0  0  0  0  0  0
   -0.4520    1.0300    0.1710 C   0  0  0  0  0  0  0  0  0  0  0  0
   -0.8930   -0.2930    0.6550 C   0  0  1  0  0  0  0  0  0  0  0  0
   -1.5800   -0.1720    2.0270 C   0  0  0  0  0  0  0  0  0  0  0  0
   -1.9660   -0.8560   -0.2590 C   0  0  0  0  0  0  0  0  0  0  0  0
   -3.1120   -0.2720   -0.4400 O   0  0  0  0  0  0  0  0  0  0  0  0
   -3.4710    0.8840   -0.9550 C   0  0  2  0  0  0  0  0  0  0  0  0
   -4.2660    1.6610    0.1160 C   0  0  0  0  0  0  0  0  0  0  0  0
   -5.1200    0.7200    0.9080 C   0  0  0  0  0  0  0  0  0  0  0  0
   -5.7720   -0.3530    0.4450 C   0  0  0  0  0  0  0  0  0  0  0  0
   -5.7840   -0.8370   -0.9720 C   0  0  0  0  0  0  0  0  0  0  0  0
   -5.7220    0.3270   -1.8130 N   0  0  0  0  0  0  0  0  0  0  0  0
   -4.4010    0.7220   -2.1870 C   0  0  0  0  0  0  0  0  0  0  0  0
    0.1530   -1.3610    0.7520 C   0  0  0  0  0  0  0  0  0  0  0  0
    4.1600   -0.4490   -1.8260 O   0  0  0  0  0  0  0  0  0  0  0  0
    5.3920   -0.0990   -1.7360 C   0  0  0  0  0  0  0  0  0  0  0  0
    6.3510    0.0690   -2.8730 C   0  0  0  0  0  0  0  0  0  0  0  0
  1  2  1  0
  2  3  1  0
  2 24  2  0
  3  4  2  0
  4  5  1  0
  4 23  1  0
  5  6  1  0
  6  7  1  1
  6  8  1  0
  6 22  1  0
  8  9  1  0
  9 10  1  0
 10 11  1  0
 11 12  1  1
 11 13  1  0
 11 22  1  0
 13 14  1  0
 15 14  1  1
 15 16  1  0
 15 21  1  0
 16 17  1  0
 17 18  2  0
 18 19  1  0
 19 20  1  0
 20 21  1  0
 23 24  1  0
 24 25  1  0
M  CHG  1  20   1
M  END
