
     RDKit          3D

 17 18  0  0  0  0  0  0  0  0999 V2000
   -2.0270   -1.8180   -0.3920 C   0  0  0  0  0  0  0  0  0  0  0  0
   -2.5150   -0.4710   -0.0460 C   0  0  0  0  0  0  0  0  0  0  0  0
   -3.8810   -0.2550   -0.0430 C   0  0  0  0  0  0  0  0  0  0  0  0
   -4.3770    0.9950    0.2620 C   0  0  0  0  0  0  0  0  0  0  0  0
   -3.4930    2.0220    0.5630 C   0  0  0  0  0  0  0  0  0  0  0  0
   -2.1300    1.8070    0.5600 C   0  0  0  0  0  0  0  0  0  0  0  0
   -1.6410    0.5280    0.2480 C   0  0  0  0  0  0  0  0  0  0  0  0
   -0.2160    0.2830    0.2550 C   0  0  0  0  0  0  0  0  0  0  0  0
    0.6070    1.1550   -0.4590 C   0  0  0  0  0  0  0  0  0  0  0  0
    1.9740    1.0200   -0.5050 C   0  0  0  0  0  0  0  0  0  0  0  0
    2.5890   -0.0070    0.1700 C   0  0  0  0  0  0  0  0  0  0  0  0
    4.3330   -0.1810    0.1120 S   0  0  1  0  0  0  0  0  0  0  0  0
    4.7660   -1.1820   -1.2200 N   0  0  0  0  0  0  0  0  0  0  0  0
    4.9550    1.1670    0.0480 O   0  0  0  0  0  0  0  0  0  0  0  0
    4.7550   -0.8720    1.3810 O   0  0  0  0  0  0  0  0  0  0  0  0
    1.7870   -0.8710    0.8760 C   0  0  0  0  0  0  0  0  0  0  0  0
    0.3940   -0.7370    0.9260 C   0  0  0  0  0  0  0  0  0  0  0  0
  1  2  1  0
  2  3  2  0
  2  7  1  0
  3  4  1  0
  4  5  2  0
  5  6  1  0
  6  7  2  0
  7  8  1  0
  8  9  2  0
  8 17  1  0
  9 10  1  0
 10 11  2  0
 11 12  1  0
 11 16  1  0
 12 13  1  6
 12 14  2  0
 12 15  2  0
 16 17  2  0
M  END
