
     RDKit          3D

 25 27  0  0  0  0  0  0  0  0999 V2000
   -2.7200   -3.4370   -0.1760 C   0  0  0  0  0  0  0  0  0  0  0  0
   -2.6910   -2.4980    0.9730 C   0  0  0  0  0  0  0  0  0  0  0  0
   -2.0190   -1.2620    0.7600 N   0  0  1  0  0  0  0  0  0  0  0  0
   -0.7810   -1.3740    0.0140 C   0  0  0  0  0  0  0  0  0  0  0  0
    0.3700   -1.8350    0.8940 C   0  0  1  0  0  0  0  0  0  0  0  0
    0.1340   -3.0670    1.4490 O   0  0  0  0  0  0  0  0  0  0  0  0
    1.6590   -1.7640    0.1570 C   0  0  0  0  0  0  0  0  0  0  0  0
    2.1520   -2.7200   -0.7400 C   0  0  0  0  0  0  0  0  0  0  0  0
    3.3650   -2.2460   -1.1790 C   0  0  0  0  0  0  0  0  0  0  0  0
    3.5800   -1.0440   -0.5570 C   0  0  0  0  0  0  0  0  0  0  0  0
    4.7870   -0.2020   -0.7620 C   0  0  1  0  0  0  0  0  0  0  0  0
    4.3170    1.0850   -1.4060 C   0  0  0  0  0  0  0  0  0  0  0  0
    5.4470    2.0820   -1.5460 C   0  0  0  0  0  0  0  0  0  0  0  0
    6.7180    1.5590   -0.9080 C   0  0  0  0  0  0  0  0  0  0  0  0
    6.3920    1.2360    0.5280 C   0  0  0  0  0  0  0  0  0  0  0  0
    5.4760    0.0320    0.5550 C   0  0  0  0  0  0  0  0  0  0  0  0
    2.5540   -0.7960    0.2200 O   0  0  0  0  0  0  0  0  0  0  0  0
   -2.8470   -0.1970    0.2340 C   0  0  1  0  0  0  0  0  0  0  0  0
   -4.2910   -0.5480    0.0980 C   0  0  0  0  0  0  0  0  0  0  0  0
   -5.0310    0.3630   -0.8330 C   0  0  0  0  0  0  0  0  0  0  0  0
   -4.3930    1.7030   -1.0210 C   0  0  0  0  0  0  0  0  0  0  0  0
   -4.4840    2.5670    0.2340 C   0  0  2  0  0  0  0  0  0  0  0  0
   -3.6240    3.7970    0.0240 C   0  0  0  0  0  0  0  0  0  0  0  0
   -3.8580    1.7930    1.3970 C   0  0  0  0  0  0  0  0  0  0  0  0
   -2.6260    1.0930    0.9590 C   0  0  0  0  0  0  0  0  0  0  0  0
  1  2  1  0
  3  2  1  6
  3  4  1  0
  3 18  1  0
  4  5  1  0
  5  6  1  6
  5  7  1  0
  7  8  2  0
  7 17  1  0
  8  9  1  0
  9 10  2  0
 11 10  1  1
 10 17  1  0
 11 12  1  0
 11 16  1  0
 12 13  1  0
 13 14  1  0
 14 15  1  0
 15 16  1  0
 18 19  1  1
 18 25  1  0
 19 20  1  0
 20 21  1  0
 21 22  1  0
 22 23  1  6
 22 24  1  0
 24 25  1  0
M  CHG  1   3   1
M  END
