
     RDKit          3D

 25 27  0  0  0  0  0  0  0  0999 V2000
    5.4840    2.3710   -1.2550 C   0  0  0  0  0  0  0  0  0  0  0  0
    4.4560    1.4750   -0.7530 N   0  0  0  0  0  0  0  0  0  0  0  0
    4.9810    0.3650   -0.0230 C   0  0  2  0  0  0  0  0  0  0  0  0
    6.5040    0.2860   -0.1130 C   0  0  0  0  0  0  0  0  0  0  0  0
    4.3550   -0.9630   -0.4160 C   0  0  2  0  0  0  0  0  0  0  0  0
    4.7650   -1.4190   -1.7730 C   0  0  0  0  0  0  0  0  0  0  0  0
    3.0200   -0.9080   -0.1830 O   0  0  0  0  0  0  0  0  0  0  0  0
    2.5360   -1.7230    0.8130 C   0  0  0  0  0  0  0  0  0  0  0  0
    1.0670   -1.5940    0.9940 C   0  0  0  0  0  0  0  0  0  0  0  0
    0.5170   -0.6940    1.8490 C   0  0  0  0  0  0  0  0  0  0  0  0
   -0.8710   -0.5900    2.0040 C   0  0  0  0  0  0  0  0  0  0  0  0
   -1.7300   -1.3950    1.2970 C   0  0  0  0  0  0  0  0  0  0  0  0
   -3.2220   -1.3410    1.4150 C   0  0  1  0  0  0  0  0  0  0  0  0
   -3.6000   -0.2410    2.3060 C   0  0  0  0  0  0  0  0  0  0  0  0
   -4.4370    0.6790    1.9210 C   0  0  0  0  0  0  0  0  0  0  0  0
   -5.0330    0.6580    0.5990 C   0  0  0  0  0  0  0  0  0  0  0  0
   -5.9240    1.6330    0.1760 C   0  0  0  0  0  0  0  0  0  0  0  0
   -6.4970    1.6280   -1.0720 C   0  0  0  0  0  0  0  0  0  0  0  0
   -7.4460    2.6750   -1.5110 C   0  0  0  0  0  0  0  0  0  0  0  0
   -6.1760    0.6130   -1.9440 C   0  0  0  0  0  0  0  0  0  0  0  0
   -5.2780   -0.3770   -1.5270 C   0  0  0  0  0  0  0  0  0  0  0  0
   -4.7140   -0.3550   -0.2710 C   0  0  0  0  0  0  0  0  0  0  0  0
   -3.8220   -1.3300    0.1560 O   0  0  0  0  0  0  0  0  0  0  0  0
   -1.1510   -2.3170    0.4200 C   0  0  0  0  0  0  0  0  0  0  0  0
    0.2150   -2.4090    0.2770 C   0  0  0  0  0  0  0  0  0  0  0  0
  1  2  1  0
  2  3  1  0
  3  4  1  6
  3  5  1  0
  5  6  1  6
  5  7  1  0
  7  8  1  0
  8  9  1  0
  9 10  2  0
  9 25  1  0
 10 11  1  0
 11 12  2  0
 13 12  1  6
 12 24  1  0
 13 14  1  0
 13 23  1  0
 14 15  2  0
 15 16  1  0
 16 17  2  0
 16 22  1  0
 17 18  1  0
 18 19  1  0
 18 20  2  0
 20 21  1  0
 21 22  2  0
 22 23  1  0
 24 25  2  0
M  CHG  1   2   1
M  END
