
     RDKit          3D

 25 27  0  0  0  0  0  0  0  0999 V2000
    7.2410   -1.3310    1.0120 C   0  0  0  0  0  0  0  0  0  0  0  0
    7.1960    0.0180    1.3080 O   0  0  0  0  0  0  0  0  0  0  0  0
    5.9060    0.4650    1.5670 C   0  0  0  0  0  0  0  0  0  0  0  0
    5.0050    0.2850    0.4020 C   0  0  0  0  0  0  0  0  0  0  0  0
    5.5240    0.2820   -0.8770 C   0  0  0  0  0  0  0  0  0  0  0  0
    4.6770    0.1100   -1.9520 C   0  0  0  0  0  0  0  0  0  0  0  0
    5.2160    0.1020   -3.3590 C   0  0  0  0  0  0  0  0  0  0  0  0
    3.3460   -0.0510   -1.6990 C   0  0  0  0  0  0  0  0  0  0  0  0
    2.7810   -0.0540   -0.4350 C   0  0  0  0  0  0  0  0  0  0  0  0
    1.3470   -0.2370   -0.3270 C   0  0  1  0  0  0  0  0  0  0  0  0
    1.0940   -1.5540    0.4180 C   0  0  0  0  0  0  0  0  0  0  0  0
   -0.4140   -1.7940    0.2950 C   0  0  0  0  0  0  0  0  0  0  0  0
   -1.0500   -0.7500    0.9290 O   0  0  0  0  0  0  0  0  0  0  0  0
   -0.8660    0.4740    0.3530 C   0  0  1  0  0  0  0  0  0  0  0  0
   -1.6790    1.5300    0.9950 C   0  0  0  0  0  0  0  0  0  0  0  0
   -3.1540    1.3210    0.9530 C   0  0  2  0  0  0  0  0  0  0  0  0
   -3.6610    0.0980    1.6200 C   0  0  0  0  0  0  0  0  0  0  0  0
   -4.2780   -0.9300    0.6950 C   0  0  0  0  0  0  0  0  0  0  0  0
   -5.3730   -0.3040   -0.1520 C   0  0  2  0  0  0  0  0  0  0  0  0
   -6.7480   -0.5900    0.4060 C   0  0  0  0  0  0  0  0  0  0  0  0
   -5.2920   -0.9260   -1.5250 C   0  0  0  0  0  0  0  0  0  0  0  0
   -5.1210    1.1900   -0.3050 C   0  0  0  0  0  0  0  0  0  0  0  0
   -3.6930    1.4390   -0.3920 N   0  0  0  0  0  0  0  0  0  0  0  0
    0.6270    0.8300    0.4480 C   0  0  0  0  0  0  0  0  0  0  0  0
    3.6470    0.1190    0.6200 C   0  0  0  0  0  0  0  0  0  0  0  0
  1  2  1  0
  2  3  1  0
  3  4  1  0
  4  5  2  0
  4 25  1  0
  5  6  1  0
  6  7  1  0
  6  8  2  0
  8  9  1  0
 10  9  1  1
  9 25  2  0
 10 11  1  0
 10 24  1  0
 11 12  1  0
 12 13  1  0
 13 14  1  0
 14 15  1  1
 14 24  1  0
 16 15  1  6
 16 17  1  0
 16 23  1  0
 17 18  1  0
 18 19  1  0
 19 20  1  1
 19 21  1  0
 19 22  1  0
 22 23  1  0
M  CHG  1  23   1
M  END
