
     RDKit          3D

 25 27  0  0  0  0  0  0  0  0999 V2000
    1.5790    5.7240    0.9280 C   0  0  0  0  0  0  0  0  0  0  0  0
    0.7950    4.6990    1.1120 C   0  0  0  0  0  0  0  0  0  0  0  0
    1.2540    3.2950    0.9890 C   0  0  0  0  0  0  0  0  0  0  0  0
    0.4520    2.3020    1.1770 C   0  0  0  0  0  0  0  0  0  0  0  0
    0.7340    0.9010    1.0990 C   0  0  0  0  0  0  0  0  0  0  0  0
   -0.2190   -0.1380    1.1860 C   0  0  0  0  0  0  0  0  0  0  0  0
   -1.6790    0.0400    1.3060 C   0  0  0  0  0  0  0  0  0  0  0  0
   -2.3990    0.2340   -0.0040 C   0  0  2  0  0  0  0  0  0  0  0  0
   -1.9570    1.4260   -0.7990 C   0  0  0  0  0  0  0  0  0  0  0  0
   -3.8560    0.4010    0.3410 C   0  0  0  0  0  0  0  0  0  0  0  0
   -4.8010    0.4220   -0.7950 C   0  0  0  0  0  0  0  0  0  0  0  0
   -5.4010   -0.9710   -0.9320 C   0  0  0  0  0  0  0  0  0  0  0  0
   -4.3090   -1.9110   -0.9690 N   0  0  0  0  0  0  0  0  0  0  0  0
   -3.1920   -1.4240   -1.7510 C   0  0  0  0  0  0  0  0  0  0  0  0
   -2.1170   -0.9860   -0.8300 C   0  0  0  0  0  0  0  0  0  0  0  0
    0.4230   -1.2440    1.1330 O   0  0  0  0  0  0  0  0  0  0  0  0
    1.7100   -1.0700    1.0180 C   0  0  0  0  0  0  0  0  0  0  0  0
    1.9840    0.2700    0.9900 C   0  0  0  0  0  0  0  0  0  0  0  0
    3.3840    0.8190    0.8840 C   0  0  0  0  0  0  0  0  0  0  0  0
    4.4520   -0.1990    1.0920 C   0  0  0  0  0  0  0  0  0  0  0  0
    3.9750   -1.4980    1.6690 C   0  0  0  0  0  0  0  0  0  0  0  0
    2.8020   -2.0600    0.9220 C   0  0  2  0  0  0  0  0  0  0  0  0
    3.0700   -2.3670   -0.5150 C   0  0  0  0  0  0  0  0  0  0  0  0
    4.1620   -3.3630   -0.7440 C   0  0  0  0  0  0  0  0  0  0  0  0
    4.2740   -3.5260   -2.1440 O   0  0  0  0  0  0  0  0  0  0  0  0
  1  2  2  0
  2  3  1  0
  3  4  2  3
  4  5  1  0
  5  6  2  0
  5 18  1  0
  6  7  1  0
  6 16  1  0
  7  8  1  0
  8  9  1  6
  8 10  1  0
  8 15  1  0
 10 11  1  0
 11 12  1  0
 12 13  1  0
 13 14  1  0
 14 15  1  0
 16 17  1  0
 17 18  2  0
 17 22  1  0
 18 19  1  0
 19 20  1  0
 20 21  1  0
 21 22  1  0
 22 23  1  6
 23 24  1  0
 24 25  1  0
M  CHG  1  13   1
M  END
