
     RDKit          3D

 20 21  0  0  0  0  0  0  0  0999 V2000
    2.8670   -1.3640   -1.8800 C   0  0  0  0  0  0  0  0  0  0  0  0
    2.9730   -1.7190   -0.6370 C   0  0  0  0  0  0  0  0  0  0  0  0
    2.2600   -1.2560    0.5000 C   0  0  0  0  0  0  0  0  0  0  0  0
    2.5180   -1.8940    1.6620 C   0  0  0  0  0  0  0  0  0  0  0  0
    1.8960   -1.6100    2.9770 C   0  0  0  0  0  0  0  0  0  0  0  0
    0.7200   -0.9950    3.2280 C   0  0  0  0  0  0  0  0  0  0  0  0
   -0.2140   -0.4600    2.2190 C   0  0  0  0  0  0  0  0  0  0  0  0
    0.0250   -0.0370    0.9440 C   0  0  0  0  0  0  0  0  0  0  0  0
   -1.0000    0.4340    0.1600 N   0  0  0  0  0  0  0  0  0  0  0  0
   -1.2160   -0.1540   -1.1830 C   0  0  0  0  0  0  0  0  0  0  0  0
   -2.5320   -0.9000   -1.1140 C   0  0  0  0  0  0  0  0  0  0  0  0
   -3.5640    0.1130   -0.9780 N   0  0  0  0  0  0  0  0  0  0  0  0
   -4.7420    0.0420   -1.7930 C   0  0  0  0  0  0  0  0  0  0  0  0
   -3.3140    1.1270   -0.0140 C   0  0  0  0  0  0  0  0  0  0  0  0
   -4.3240    1.7810    0.3920 O   0  0  0  0  0  0  0  0  0  0  0  0
   -1.9770    1.4600    0.5310 C   0  0  0  0  0  0  0  0  0  0  0  0
    1.3640   -0.0790    0.3710 C   0  0  0  0  0  0  0  0  0  0  0  0
    1.8580    0.9870   -0.1320 C   0  0  0  0  0  0  0  0  0  0  0  0
    3.2550    1.1620   -0.5840 C   0  0  0  0  0  0  0  0  0  0  0  0
    1.0500    2.1690   -0.2730 N   0  0  0  0  0  0  0  0  0  0  0  0
  1  2  2  0
  2  3  1  0
  3  4  2  0
  3 17  1  0
  4  5  1  0
  5  6  2  0
  6  7  1  0
  7  8  2  0
  8  9  1  0
  8 17  1  0
  9 10  1  0
  9 16  1  0
 10 11  1  0
 11 12  1  0
 12 13  1  0
 12 14  1  0
 14 15  2  0
 14 16  1  0
 17 18  2  3
 18 19  1  0
 18 20  1  0
M  CHG  1  20   1
M  END
