
     RDKit          3D

 19 21  0  0  0  0  0  0  0  0999 V2000
   -2.0450   -1.9680   -1.1790 C   0  0  0  0  0  0  0  0  0  0  0  0
   -1.5540   -0.7690   -0.4670 C   0  0  0  0  0  0  0  0  0  0  0  0
   -0.2330   -0.6260   -0.4190 C   0  0  0  0  0  0  0  0  0  0  0  0
    0.4600   -1.6830   -1.0760 N   0  0  0  0  0  0  0  0  0  0  0  0
    1.8640   -1.7770   -1.1480 C   0  0  0  0  0  0  0  0  0  0  0  0
    2.5850   -0.7990   -0.5520 C   0  0  0  0  0  0  0  0  0  0  0  0
    4.0640   -0.9040   -0.6360 C   0  0  0  0  0  0  0  0  0  0  0  0
    4.6940   -0.2000    0.5260 C   0  0  0  0  0  0  0  0  0  0  0  0
    4.1390    1.1840    0.6630 C   0  0  0  0  0  0  0  0  0  0  0  0
    4.8960    2.1430    0.6910 O   0  0  0  0  0  0  0  0  0  0  0  0
    2.7130    1.3290    0.7590 N   0  0  0  0  0  0  0  0  0  0  0  0
    1.9320    0.3040    0.1320 C   0  0  0  0  0  0  0  0  0  0  0  0
    0.5850    0.4100    0.2070 C   0  0  0  0  0  0  0  0  0  0  0  0
    0.2390    1.6630    0.9230 C   0  0  0  0  0  0  0  0  0  0  0  0
   -1.1640    1.9510    0.7220 N   0  0  0  0  0  0  0  0  0  0  0  0
   -2.0720    0.9750    1.2120 C   0  0  0  0  0  0  0  0  0  0  0  0
   -2.6160    0.0940    0.1150 C   0  0  1  0  0  0  0  0  0  0  0  0
   -3.2620    0.9720   -0.9330 C   0  0  0  0  0  0  0  0  0  0  0  0
   -3.6610   -0.8180    0.7220 C   0  0  0  0  0  0  0  0  0  0  0  0
  1  2  1  0
  2  3  2  0
  2 17  1  0
  3  4  1  0
  3 13  1  0
  4  5  1  0
  5  6  2  0
  6  7  1  0
  6 12  1  0
  7  8  1  0
  8  9  1  0
  9 10  2  0
  9 11  1  0
 11 12  1  0
 12 13  2  0
 13 14  1  0
 14 15  1  0
 15 16  1  0
 16 17  1  0
 17 18  1  6
 17 19  1  0
M  CHG  1  15   1
M  END
