
     RDKit          3D

 18 19  0  0  0  0  0  0  0  0999 V2000
    5.5470    0.4710   -0.8420 C   0  0  0  0  0  0  0  0  0  0  0  0
    3.9790    0.8070   -0.0150 S   0  0  0  0  0  0  0  0  0  0  0  0
    2.5960    0.5080   -1.0770 C   0  0  0  0  0  0  0  0  0  0  0  0
    1.4380    0.1590   -0.6610 C   0  0  0  0  0  0  0  0  0  0  0  0
    0.9810   -0.0700    0.6830 C   0  0  0  0  0  0  0  0  0  0  0  0
    1.7990   -0.1270    1.7770 N   0  0  0  0  0  0  0  0  0  0  0  0
    0.9670   -0.4320    2.8110 C   0  0  0  0  0  0  0  0  0  0  0  0
    1.3890   -0.5690    3.9970 O   0  0  0  0  0  0  0  0  0  0  0  0
   -0.2410   -0.5480    2.3900 O   0  0  0  0  0  0  0  0  0  0  0  0
   -0.2980   -0.3290    1.0680 C   0  0  0  0  0  0  0  0  0  0  0  0
   -1.5450   -0.4050    0.3650 C   0  0  0  0  0  0  0  0  0  0  0  0
   -2.4390   -1.4720    0.6480 C   0  0  0  0  0  0  0  0  0  0  0  0
   -3.6700   -1.5320    0.0630 C   0  0  0  0  0  0  0  0  0  0  0  0
   -4.5280   -2.5880    0.3560 O   0  0  0  0  0  0  0  0  0  0  0  0
   -4.1160   -0.5780   -0.8250 C   0  0  0  0  0  0  0  0  0  0  0  0
   -3.2720    0.4600   -1.1100 C   0  0  0  0  0  0  0  0  0  0  0  0
   -1.9960    0.5240   -0.5020 C   0  0  0  0  0  0  0  0  0  0  0  0
   -1.2500    1.7740   -0.8000 C   0  0  0  0  0  0  0  0  0  0  0  0
  1  2  1  0
  2  3  1  0
  3  4  2  3
  4  5  1  0
  5  6  1  0
  5 10  2  0
  6  7  1  0
  7  8  2  0
  7  9  1  0
  9 10  1  0
 10 11  1  0
 11 12  2  0
 11 17  1  0
 12 13  1  0
 13 14  1  0
 13 15  2  0
 15 16  1  0
 16 17  2  0
 17 18  1  0
M  END
