
     RDKit          3D

 18 19  0  0  0  0  0  0  0  0999 V2000
    3.7350    1.7520   -2.0790 C   0  0  0  0  0  0  0  0  0  0  0  0
    2.8720    0.9300   -1.2010 C   0  0  0  0  0  0  0  0  0  0  0  0
    1.1060    1.0030   -1.0720 S   0  0  0  0  0  0  0  0  0  0  0  0
    0.9140   -0.2380    0.1270 C   0  0  0  0  0  0  0  0  0  0  0  0
   -0.3350   -0.6660    0.6720 N   0  0  0  0  0  0  0  0  0  0  0  0
   -1.5590   -0.0970    0.2680 C   0  0  0  0  0  0  0  0  0  0  0  0
   -1.4970    0.8200   -0.6090 O   0  0  0  0  0  0  0  0  0  0  0  0
   -2.8730   -0.4860    0.7830 C   0  0  0  0  0  0  0  0  0  0  0  0
   -3.9980    0.3080    0.1570 C   0  0  2  0  0  0  0  0  0  0  0  0
   -4.0540    0.1290   -1.3400 C   0  0  0  0  0  0  0  0  0  0  0  0
   -3.8590    1.7590    0.5660 C   0  0  0  0  0  0  0  0  0  0  0  0
   -5.2100   -0.1540    0.6660 O   0  0  0  0  0  0  0  0  0  0  0  0
    2.2000   -0.6460    0.3700 C   0  0  0  0  0  0  0  0  0  0  0  0
    3.1920   -0.0680   -0.2890 C   0  0  0  0  0  0  0  0  0  0  0  0
    4.5360   -0.6670    0.1250 C   0  0  0  0  0  0  0  0  0  0  0  0
    4.1640   -1.9740    0.7900 C   0  0  0  0  0  0  0  0  0  0  0  0
    2.7780   -1.6800    1.2910 C   0  0  0  0  0  0  0  0  0  0  0  0
    2.2500   -2.2180    2.2880 O   0  0  0  0  0  0  0  0  0  0  0  0
  1  2  1  0
  2  3  1  0
  2 14  2  0
  3  4  1  0
  4  5  1  0
  4 13  2  0
  5  6  1  0
  6  7  2  0
  6  8  1  0
  8  9  1  0
  9 10  1  6
  9 11  1  0
  9 12  1  0
 13 14  1  0
 13 17  1  0
 14 15  1  0
 15 16  1  0
 16 17  1  0
 17 18  2  0
M  END
