
     RDKit          3D

 20 22  0  0  0  0  0  0  0  0999 V2000
   -4.2530   -2.3900   -0.1200 N   0  0  0  0  0  0  0  0  0  0  0  0
   -4.5930   -1.0160   -0.0270 C   0  0  0  0  0  0  0  0  0  0  0  0
   -5.7190   -0.5100    0.3430 N   0  0  0  0  0  0  0  0  0  0  0  0
   -5.6900    0.9330    0.3110 C   0  0  0  0  0  0  0  0  0  0  0  0
   -4.4380    1.2350   -0.4640 C   0  0  0  0  0  0  0  0  0  0  0  0
   -3.6750    0.0170   -0.3540 N   0  0  0  0  0  0  0  0  0  0  0  0
   -2.2460   -0.0760   -0.5540 C   0  0  0  0  0  0  0  0  0  0  0  0
   -1.5310    0.6580    0.5700 C   0  0  0  0  0  0  0  0  0  0  0  0
   -0.0630    0.5870    0.4070 C   0  0  0  0  0  0  0  0  0  0  0  0
    0.6310    1.5290   -0.3020 C   0  0  0  0  0  0  0  0  0  0  0  0
    2.0220    1.4760   -0.4710 C   0  0  0  0  0  0  0  0  0  0  0  0
    2.7150    0.4200    0.1090 C   0  0  0  0  0  0  0  0  0  0  0  0
    4.1640    0.3590   -0.0670 C   0  0  0  0  0  0  0  0  0  0  0  0
    4.8380   -0.6200    0.4710 C   0  0  0  0  0  0  0  0  0  0  0  0
    6.3270   -0.7350    0.3240 C   0  0  0  0  0  0  0  0  0  0  0  0
    6.8680    0.2940   -0.4390 O   0  0  0  0  0  0  0  0  0  0  0  0
    6.1710    1.3190   -1.0030 C   0  0  0  0  0  0  0  0  0  0  0  0
    4.8530    1.3920   -0.8490 C   0  0  0  0  0  0  0  0  0  0  0  0
    2.0390   -0.5380    0.8260 C   0  0  0  0  0  0  0  0  0  0  0  0
    0.6400   -0.4390    0.9670 C   0  0  0  0  0  0  0  0  0  0  0  0
  1  2  1  0
  2  3  2  0
  2  6  1  0
  3  4  1  0
  4  5  1  0
  5  6  1  0
  6  7  1  0
  7  8  1  0
  8  9  1  0
  9 10  2  0
  9 20  1  0
 10 11  1  0
 11 12  2  0
 12 13  1  0
 12 19  1  0
 13 14  2  0
 13 18  1  0
 14 15  1  0
 15 16  1  0
 16 17  1  0
 17 18  2  0
 19 20  2  0
M  CHG  1   3   1
M  END
