
     RDKit          3D

 20 22  0  0  0  0  0  0  0  0999 V2000
   -5.9260    1.6410   -0.2900 C   0  0  0  0  0  0  0  0  0  0  0  0
   -5.2600    0.3300   -0.0240 C   0  0  0  0  0  0  0  0  0  0  0  0
   -5.8480   -0.8460    0.1370 C   0  0  0  0  0  0  0  0  0  0  0  0
   -4.8120   -1.8950    0.3830 C   0  0  0  0  0  0  0  0  0  0  0  0
   -3.5500   -1.1570    0.3390 C   0  0  0  0  0  0  0  0  0  0  0  0
   -3.8180    0.1160    0.1050 C   0  0  0  0  0  0  0  0  0  0  0  0
   -2.8130    1.1980   -0.0280 C   0  0  0  0  0  0  0  0  0  0  0  0
   -1.4290    0.7330    0.0990 C   0  0  0  0  0  0  0  0  0  0  0  0
   -0.6680    0.7850    1.1920 N   0  0  0  0  0  0  0  0  0  0  0  0
    0.5540    0.2910    0.9360 C   0  0  0  0  0  0  0  0  0  0  0  0
    0.5460   -0.0870   -0.3910 C   0  0  0  0  0  0  0  0  0  0  0  0
    1.6310   -0.6330   -1.2200 C   0  0  0  0  0  0  0  0  0  0  0  0
    2.6930   -1.2940   -0.4090 C   0  0  0  0  0  0  0  0  0  0  0  0
    2.4720   -2.3740    0.1670 O   0  0  0  0  0  0  0  0  0  0  0  0
    3.9860   -0.6930   -0.2770 N   0  0  0  0  0  0  0  0  0  0  0  0
    4.3820    0.5700   -0.8620 C   0  0  0  0  0  0  0  0  0  0  0  0
    5.2350    1.1600    0.2790 C   0  0  0  0  0  0  0  0  0  0  0  0
    6.1130   -0.0750    0.5350 C   0  0  0  0  0  0  0  0  0  0  0  0
    5.1100   -1.2310    0.4340 C   0  0  0  0  0  0  0  0  0  0  0  0
   -0.6920    0.1970   -0.8780 N   0  0  0  0  0  0  0  0  0  0  0  0
  1  2  1  0
  2  3  2  0
  2  6  1  0
  3  4  1  0
  4  5  1  0
  5  6  2  0
  6  7  1  0
  7  8  1  0
  8  9  1  0
  8 20  2  0
  9 10  1  0
 10 11  2  0
 11 12  1  0
 11 20  1  0
 12 13  1  0
 13 14  2  0
 13 15  1  0
 15 16  1  0
 15 19  1  0
 16 17  1  0
 17 18  1  0
 18 19  1  0
M  CHG  1  20   1
M  END
