
     RDKit          3D

 16 17  0  0  0  0  0  0  0  0999 V2000
    5.4820    0.3360    0.2130 C   0  0  0  0  0  0  0  0  0  0  0  0
    4.5780    0.5270    1.2320 O   0  0  0  0  0  0  0  0  0  0  0  0
    3.2940    0.7960    0.8310 C   0  0  0  0  0  0  0  0  0  0  0  0
    2.7580   -0.3270    0.0140 C   0  0  0  0  0  0  0  0  0  0  0  0
    1.3910   -0.0880   -0.4350 N   0  0  0  0  0  0  0  0  0  0  0  0
    0.2430   -0.4020    0.1630 C   0  0  0  0  0  0  0  0  0  0  0  0
   -0.7880    0.0250   -0.6410 C   0  0  0  0  0  0  0  0  0  0  0  0
   -2.2290   -0.1220   -0.3570 C   0  0  0  0  0  0  0  0  0  0  0  0
   -3.1010    0.3350   -1.2170 C   0  0  0  0  0  0  0  0  0  0  0  0
   -4.5330    0.2260   -1.0080 C   0  0  0  0  0  0  0  0  0  0  0  0
   -4.9800   -0.3490    0.0800 C   0  0  0  0  0  0  0  0  0  0  0  0
   -4.0900   -0.8940    1.1070 C   0  0  0  0  0  0  0  0  0  0  0  0
   -2.6370   -0.7780    0.8840 C   0  0  0  0  0  0  0  0  0  0  0  0
   -0.2390    0.5950   -1.7200 N   0  0  0  0  0  0  0  0  0  0  0  0
    1.0850    0.5220   -1.5860 C   0  0  0  0  0  0  0  0  0  0  0  0
    2.1770    1.0960   -2.6740 S   0  0  0  0  0  0  0  0  0  0  0  0
  1  2  1  0
  2  3  1  0
  3  4  1  0
  4  5  1  0
  5  6  1  0
  5 15  1  0
  6  7  2  0
  7  8  1  0
  7 14  1  0
  8  9  2  0
  8 13  1  0
  9 10  1  0
 10 11  2  0
 11 12  1  0
 12 13  1  0
 14 15  1  0
 15 16  2  0
M  END
