
     RDKit          3D

 16 17  0  0  0  0  0  0  0  0999 V2000
    5.6400    0.2330   -0.0460 C   0  0  0  0  0  0  0  0  0  0  0  0
    4.1470    0.0790   -0.0440 C   0  0  0  0  0  0  0  0  0  0  0  0
    3.6610   -1.1500   -0.4340 C   0  0  0  0  0  0  0  0  0  0  0  0
    2.2920   -1.3170   -0.4400 C   0  0  0  0  0  0  0  0  0  0  0  0
    1.4300   -0.2870   -0.0670 C   0  0  0  0  0  0  0  0  0  0  0  0
   -0.0100   -0.4530   -0.0700 C   0  0  0  0  0  0  0  0  0  0  0  0
   -1.0110    0.2080    0.1850 N   0  0  0  0  0  0  0  0  0  0  0  0
   -2.2420   -0.1740    0.1030 C   0  0  0  0  0  0  0  0  0  0  0  0
   -3.4280    0.7220    0.4430 C   0  0  2  0  0  0  0  0  0  0  0  0
   -4.2040    0.0970    1.5880 C   0  0  0  0  0  0  0  0  0  0  0  0
   -4.3150    0.8640   -0.7670 C   0  0  0  0  0  0  0  0  0  0  0  0
   -2.5020   -1.4520   -0.3110 C   0  0  0  0  0  0  0  0  0  0  0  0
   -0.7640   -2.0340   -0.5670 S   0  0  0  0  0  0  0  0  0  0  0  0
    2.0060    0.8860    0.3010 C   0  0  0  0  0  0  0  0  0  0  0  0
    1.2300    1.8350    0.6440 O   0  0  0  0  0  0  0  0  0  0  0  0
    3.3360    1.0770    0.3160 N   0  0  0  0  0  0  0  0  0  0  0  0
  1  2  1  0
  2  3  2  0
  2 16  1  0
  3  4  1  0
  4  5  2  0
  5  6  1  0
  5 14  1  0
  6  7  2  0
  6 13  1  0
  7  8  1  0
  8  9  1  0
  8 12  2  0
  9 10  1  1
  9 11  1  0
 12 13  1  0
 14 15  2  0
 14 16  1  0
M  END
