
     RDKit          3D

 22 23  0  0  0  0  0  0  0  0999 V2000
    0.9200   -2.1560   -0.4400 O   0  0  0  0  0  0  0  0  0  0  0  0
    1.0260   -0.9230   -0.1850 C   0  0  0  0  0  0  0  0  0  0  0  0
    2.2520   -0.3320   -0.4540 C   0  0  0  0  0  0  0  0  0  0  0  0
    3.3120   -1.1260   -1.0410 C   0  0  0  0  0  0  0  0  0  0  0  0
    3.0240   -1.9570   -2.1070 O   0  0  0  0  0  0  0  0  0  0  0  0
    4.5350   -1.0480   -0.5520 C   0  0  0  0  0  0  0  0  0  0  0  0
    4.8120   -0.2150    0.5190 O   0  0  0  0  0  0  0  0  0  0  0  0
    5.5930   -1.7610   -1.0530 F   0  0  0  0  0  0  0  0  0  0  0  0
    2.4300    1.0180   -0.1970 C   0  0  0  0  0  0  0  0  0  0  0  0
    1.3570    1.7140    0.3210 C   0  0  0  0  0  0  0  0  0  0  0  0
    1.5520    3.0600    0.5510 C   0  0  0  0  0  0  0  0  0  0  0  0
    0.5290    3.8350    1.0500 C   0  0  0  0  0  0  0  0  0  0  0  0
    0.6850    5.1710    1.2910 F   0  0  0  0  0  0  0  0  0  0  0  0
   -0.6860    3.2000    1.3040 C   0  0  0  0  0  0  0  0  0  0  0  0
   -0.8690    1.8550    1.0700 C   0  0  0  0  0  0  0  0  0  0  0  0
    0.1600    1.0830    0.5720 C   0  0  0  0  0  0  0  0  0  0  0  0
   -0.0260   -0.2230    0.3300 N   0  0  0  0  0  0  0  0  0  0  0  0
   -1.2150   -0.9410    0.6000 C   0  0  0  0  0  0  0  0  0  0  0  0
   -2.2610   -0.9560   -0.4810 C   0  0  0  0  0  0  0  0  0  0  0  0
   -3.4010   -1.8260    0.0760 C   0  0  0  0  0  0  0  0  0  0  0  0
   -4.5470   -1.9120   -0.8850 C   0  0  0  0  0  0  0  0  0  0  0  0
   -5.1500   -0.2430   -1.1380 Cl  0  0  0  0  0  0  0  0  0  0  0  0
  1  2  2  0
  2  3  1  0
  2 17  1  0
  3  4  1  0
  3  9  2  0
  4  5  1  0
  4  6  2  3
  6  7  1  0
  6  8  1  0
  9 10  1  0
 10 11  2  0
 10 16  1  0
 11 12  1  0
 12 13  1  0
 12 14  2  0
 14 15  1  0
 15 16  2  0
 16 17  1  0
 17 18  1  0
 18 19  1  0
 19 20  1  0
 20 21  1  0
 21 22  1  0
M  END
