
     RDKit          3D

 23 24  0  0  0  0  0  0  0  0999 V2000
    2.5870    1.6980   -3.0220 C   0  0  0  0  0  0  0  0  0  0  0  0
    2.7660    1.2010   -1.6400 C   0  0  0  0  0  0  0  0  0  0  0  0
    1.8580    0.6850   -0.8030 C   0  0  0  0  0  0  0  0  0  0  0  0
    0.4600    0.5230   -1.1400 C   0  0  0  0  0  0  0  0  0  0  0  0
    0.0810    0.8540   -2.3190 O   0  0  0  0  0  0  0  0  0  0  0  0
   -0.5450    0.0330   -0.2840 N   0  0  0  0  0  0  0  0  0  0  0  0
   -1.9230   -0.1480   -0.5790 C   0  0  0  0  0  0  0  0  0  0  0  0
   -2.5500    0.1160   -1.7560 C   0  0  0  0  0  0  0  0  0  0  0  0
   -3.8990   -0.0840   -1.9790 C   0  0  0  0  0  0  0  0  0  0  0  0
   -4.6650   -0.5770   -0.9650 C   0  0  0  0  0  0  0  0  0  0  0  0
   -4.0660   -0.8590    0.2480 C   0  0  0  0  0  0  0  0  0  0  0  0
   -2.7290   -0.6590    0.4630 C   0  0  0  0  0  0  0  0  0  0  0  0
   -2.1730   -0.9560    1.6960 O   0  0  0  0  0  0  0  0  0  0  0  0
   -2.9730   -1.4680    2.7450 C   0  0  0  0  0  0  0  0  0  0  0  0
   -1.8980   -1.7180    4.1530 Cl  0  0  0  0  0  0  0  0  0  0  0  0
    2.5580    0.3100    0.3890 C   0  0  0  0  0  0  0  0  0  0  0  0
    2.3650   -0.6400    1.2690 C   0  0  0  0  0  0  0  0  0  0  0  0
    3.2940   -0.7710    2.4420 C   0  0  2  0  0  0  0  0  0  0  0  0
    4.4390   -1.3720    2.0150 F   0  0  0  0  0  0  0  0  0  0  0  0
    2.6880   -1.5900    3.3700 F   0  0  0  0  0  0  0  0  0  0  0  0
    3.5690    0.4750    2.9760 F   0  0  0  0  0  0  0  0  0  0  0  0
    3.7270    1.2620    0.4280 C   0  0  0  0  0  0  0  0  0  0  0  0
    4.0230    1.2230   -0.9960 O   0  0  0  0  0  0  0  0  0  0  0  0
  1  2  1  0
  2  3  2  0
  2 23  1  0
  3  4  1  0
  3 16  1  0
  4  5  2  0
  4  6  1  0
  6  7  1  0
  7  8  2  0
  7 12  1  0
  8  9  1  0
  9 10  2  0
 10 11  1  0
 11 12  2  0
 12 13  1  0
 13 14  1  0
 14 15  1  0
 16 17  2  3
 16 22  1  0
 17 18  1  0
 18 19  1  6
 18 20  1  0
 18 21  1  0
 22 23  1  0
M  END
