
     RDKit          3D

 23 24  0  0  0  0  0  0  0  0999 V2000
   -2.8540    1.1270   -1.7710 N   0  0  0  0  0  0  0  0  0  0  0  0
   -2.0200    1.7000   -0.7840 C   0  0  0  0  0  0  0  0  0  0  0  0
   -1.4260    0.9460    0.1130 C   0  0  0  0  0  0  0  0  0  0  0  0
   -1.6290   -0.5030    0.0900 C   0  0  0  0  0  0  0  0  0  0  0  0
   -2.7980   -1.1740   -0.1930 C   0  0  0  0  0  0  0  0  0  0  0  0
   -2.4870   -2.5120   -0.0940 C   0  0  0  0  0  0  0  0  0  0  0  0
   -3.4910   -3.5900   -0.3280 C   0  0  0  0  0  0  0  0  0  0  0  0
   -3.6210   -3.7620   -1.7090 O   0  0  0  0  0  0  0  0  0  0  0  0
   -1.2220   -2.6080    0.2240 O   0  0  0  0  0  0  0  0  0  0  0  0
   -0.6480   -1.4470    0.3500 C   0  0  0  0  0  0  0  0  0  0  0  0
    0.7490   -1.1500    0.6950 C   0  0  0  0  0  0  0  0  0  0  0  0
    1.7340   -2.0680    0.9570 C   0  0  0  0  0  0  0  0  0  0  0  0
    2.9040   -1.4040    1.2400 C   0  0  0  0  0  0  0  0  0  0  0  0
    2.5650   -0.0470    1.1340 C   0  0  0  0  0  0  0  0  0  0  0  0
    3.5730    1.0190    1.3700 C   0  0  0  0  0  0  0  0  0  0  0  0
    4.2860    1.3710    0.0650 C   0  0  0  0  0  0  0  0  0  0  0  0
    3.2830    1.8660   -0.9570 C   0  0  0  0  0  0  0  0  0  0  0  0
    2.4720    3.3100   -0.3210 Cl  0  0  0  0  0  0  0  0  0  0  0  0
    1.3110    0.0310    0.8180 O   0  0  0  0  0  0  0  0  0  0  0  0
   -1.8330    3.1740   -0.7870 C   0  0  1  0  0  0  0  0  0  0  0  0
   -1.0020    3.5680    0.2400 F   0  0  0  0  0  0  0  0  0  0  0  0
   -1.2630    3.5230   -2.0100 F   0  0  0  0  0  0  0  0  0  0  0  0
   -3.0010    3.8710   -0.6780 F   0  0  0  0  0  0  0  0  0  0  0  0
  1  2  1  0
  2  3  2  3
  2 20  1  0
  3  4  1  0
  4  5  1  0
  4 10  2  0
  5  6  2  0
  6  7  1  0
  6  9  1  0
  7  8  1  0
  9 10  1  0
 10 11  1  0
 11 12  2  0
 11 19  1  0
 12 13  1  0
 13 14  2  0
 14 15  1  0
 14 19  1  0
 15 16  1  0
 16 17  1  0
 17 18  1  0
 20 21  1  1
 20 22  1  0
 20 23  1  0
M  END
