
     RDKit          3D

 16 17  0  0  0  0  0  0  0  0999 V2000
   -0.6350   -2.7960    0.0380 C   0  0  0  0  0  0  0  0  0  0  0  0
   -0.0770   -1.6140    0.6620 N   0  0  0  0  0  0  0  0  0  0  0  0
   -0.5230   -0.3490    0.2460 C   0  0  0  0  0  0  0  0  0  0  0  0
   -1.6100    0.2400    0.9110 C   0  0  0  0  0  0  0  0  0  0  0  0
   -2.2110   -0.5180    2.0370 C   0  0  0  0  0  0  0  0  0  0  0  0
   -2.1290    1.4600    0.5710 C   0  0  0  0  0  0  0  0  0  0  0  0
   -1.5430    2.1350   -0.4830 C   0  0  0  0  0  0  0  0  0  0  0  0
   -2.0720    3.4650   -0.8920 C   0  0  0  0  0  0  0  0  0  0  0  0
   -0.4800    1.5760   -1.1450 C   0  0  0  0  0  0  0  0  0  0  0  0
    0.0360    0.3220   -0.7780 C   0  0  0  0  0  0  0  0  0  0  0  0
    1.0830   -0.1180   -1.5100 O   0  0  0  0  0  0  0  0  0  0  0  0
    2.3830   -0.4000   -1.1080 C   0  0  0  0  0  0  0  0  0  0  0  0
    3.3940    0.1340   -1.0500 N   0  0  0  0  0  0  0  0  0  0  0  0
    4.5630   -0.2940   -0.6330 C   0  0  0  0  0  0  0  0  0  0  0  0
    4.6120   -1.5680   -0.1950 C   0  0  0  0  0  0  0  0  0  0  0  0
    2.8560   -2.0960   -0.4280 S   0  0  0  0  0  0  0  0  0  0  0  0
  1  2  1  0
  2  3  1  0
  3  4  2  0
  3 10  1  0
  4  5  1  0
  4  6  1  0
  6  7  2  0
  7  8  1  0
  7  9  1  0
  9 10  2  0
 10 11  1  0
 11 12  1  0
 12 13  2  0
 12 16  1  0
 13 14  1  0
 14 15  2  0
 15 16  1  0
M  END
