
     RDKit          3D

 20 22  0  0  0  0  0  0  0  0999 V2000
    5.5190   -0.4050    2.1440 N   0  0  0  0  0  0  0  0  0  0  0  0
    5.1640    0.1940    0.5580 S   0  0  1  0  0  0  0  0  0  0  0  0
    5.5220    1.6430    0.4120 O   0  0  0  0  0  0  0  0  0  0  0  0
    6.0030   -0.6190   -0.4150 O   0  0  0  0  0  0  0  0  0  0  0  0
    3.4630   -0.0180    0.1970 C   0  0  0  0  0  0  0  0  0  0  0  0
    2.9920   -1.1590   -0.4150 C   0  0  0  0  0  0  0  0  0  0  0  0
    1.6460   -1.2940   -0.6860 C   0  0  0  0  0  0  0  0  0  0  0  0
    0.7760   -0.2780   -0.3410 C   0  0  0  0  0  0  0  0  0  0  0  0
   -0.6330   -0.3970   -0.6190 C   0  0  0  0  0  0  0  0  0  0  0  0
   -1.1150   -1.0910   -1.7130 C   0  0  0  0  0  0  0  0  0  0  0  0
   -2.4420   -1.1720   -1.9300 N   0  0  0  0  0  0  0  0  0  0  0  0
   -3.3310   -0.5800   -1.0890 C   0  0  0  0  0  0  0  0  0  0  0  0
   -4.6830   -0.6830   -1.3420 C   0  0  0  0  0  0  0  0  0  0  0  0
   -5.6270   -0.0910   -0.5040 C   0  0  0  0  0  0  0  0  0  0  0  0
   -5.1990    0.6130    0.6030 C   0  0  0  0  0  0  0  0  0  0  0  0
   -3.8320    0.7090    0.8470 C   0  0  0  0  0  0  0  0  0  0  0  0
   -2.9040    0.1260    0.0210 C   0  0  0  0  0  0  0  0  0  0  0  0
   -1.5430    0.2070    0.2420 C   0  0  0  0  0  0  0  0  0  0  0  0
    1.2380    0.8650    0.2700 C   0  0  0  0  0  0  0  0  0  0  0  0
    2.5770    0.9830    0.5320 C   0  0  0  0  0  0  0  0  0  0  0  0
  2  1  1  1
  2  3  2  0
  2  4  2  0
  2  5  1  0
  5  6  2  0
  5 20  1  0
  6  7  1  0
  7  8  2  0
  8  9  1  0
  8 19  1  0
  9 10  2  0
  9 18  1  0
 10 11  1  0
 11 12  2  0
 12 13  1  0
 12 17  1  0
 13 14  2  0
 14 15  1  0
 15 16  2  0
 16 17  1  0
 17 18  2  0
 19 20  2  0
M  END
