
     RDKit          3D

 23 25  0  0  0  0  0  0  0  0999 V2000
    0.1130    4.8130   -0.2120 C   0  0  0  0  0  0  0  0  0  0  0  0
    1.0310    3.6770   -0.2840 C   0  0  0  0  0  0  0  0  0  0  0  0
    0.7400    2.4020   -0.2620 C   0  0  0  0  0  0  0  0  0  0  0  0
    1.7610    1.4310   -0.3370 N   0  0  0  0  0  0  0  0  0  0  0  0
    1.4050    0.0070   -0.3350 C   0  0  0  0  0  0  0  0  0  0  0  0
    2.5720   -0.9050   -0.4910 C   0  0  0  0  0  0  0  0  0  0  0  0
    3.7900   -0.3900   -0.6220 N   0  0  0  0  0  0  0  0  0  0  0  0
    4.8060   -1.3640   -0.7610 C   0  0  0  0  0  0  0  0  0  0  0  0
    4.0860   -2.6310   -0.6970 C   0  0  0  0  0  0  0  0  0  0  0  0
    2.7840   -2.2970   -0.5390 C   0  0  0  0  0  0  0  0  0  0  0  0
    0.1930   -0.4290   -0.2270 C   0  0  0  0  0  0  0  0  0  0  0  0
   -0.3100   -1.7620   -0.2580 C   0  0  0  0  0  0  0  0  0  0  0  0
   -1.6240   -1.8160   -0.2240 O   0  0  0  0  0  0  0  0  0  0  0  0
    0.1900   -3.0160   -0.3110 O   0  0  0  0  0  0  0  0  0  0  0  0
   -0.5500   -4.2190   -0.3300 C   0  0  0  0  0  0  0  0  0  0  0  0
   -0.7540    0.6000    0.4550 C   0  0  2  0  0  0  0  0  0  0  0  0
   -2.0910    0.1880    0.7410 C   0  0  0  0  0  0  0  0  0  0  0  0
   -2.4110   -0.6370    1.7200 C   0  0  0  0  0  0  0  0  0  0  0  0
   -3.7680   -1.0980    2.0640 C   0  0  0  0  0  0  0  0  0  0  0  0
   -3.1760    0.8330   -0.0350 C   0  0  0  0  0  0  0  0  0  0  0  0
   -2.9210    1.9160   -0.7860 C   0  0  0  0  0  0  0  0  0  0  0  0
   -1.5710    2.4840   -0.8810 C   0  0  0  0  0  0  0  0  0  0  0  0
   -0.6070    1.8660   -0.2090 C   0  0  0  0  0  0  0  0  0  0  0  0
  1  2  1  0
  2  3  2  3
  3  4  1  0
  3 23  1  0
  4  5  1  0
  5  6  1  0
  5 11  2  0
  6  7  2  0
  6 10  1  0
  7  8  1  0
  8  9  1  0
  9 10  2  0
 11 12  1  0
 16 11  1  6
 12 13  2  0
 12 14  1  0
 14 15  1  0
 16 17  1  0
 16 23  1  0
 17 18  2  3
 17 20  1  0
 18 19  1  0
 20 21  2  0
 21 22  1  0
 22 23  2  0
M  END
