
     RDKit          3D

 16 17  0  0  0  0  0  0  0  0999 V2000
    4.8580   -0.4020    0.8440 N   0  0  0  0  0  0  0  0  0  0  0  0
    4.0000   -1.1130   -0.4990 S   0  0  1  0  0  0  0  0  0  0  0  0
    4.5760   -0.5790   -1.7730 O   0  0  0  0  0  0  0  0  0  0  0  0
    4.0760   -2.6070   -0.4040 O   0  0  0  0  0  0  0  0  0  0  0  0
    2.3110   -0.6680   -0.3070 C   0  0  0  0  0  0  0  0  0  0  0  0
    1.8410    0.5080   -0.8840 C   0  0  0  0  0  0  0  0  0  0  0  0
    0.5130    0.8390   -0.7220 C   0  0  0  0  0  0  0  0  0  0  0  0
   -0.3530    0.0570   -0.0180 C   0  0  0  0  0  0  0  0  0  0  0  0
   -1.7660    0.3810    0.1720 C   0  0  0  0  0  0  0  0  0  0  0  0
   -2.7050   -0.6240    0.2920 C   0  0  0  0  0  0  0  0  0  0  0  0
   -4.0530   -0.3910    0.4740 C   0  0  0  0  0  0  0  0  0  0  0  0
   -4.4690    0.9220    0.5380 C   0  0  0  0  0  0  0  0  0  0  0  0
   -3.5420    1.9620    0.4200 C   0  0  0  0  0  0  0  0  0  0  0  0
   -2.2030    1.6770    0.2390 C   0  0  0  0  0  0  0  0  0  0  0  0
    0.1510   -1.1090    0.5440 C   0  0  0  0  0  0  0  0  0  0  0  0
    1.4680   -1.4870    0.4120 C   0  0  0  0  0  0  0  0  0  0  0  0
  2  1  1  1
  2  3  2  0
  2  4  2  0
  2  5  1  0
  5  6  2  0
  5 16  1  0
  6  7  1  0
  7  8  2  0
  8  9  1  0
  8 15  1  0
  9 10  2  0
  9 14  1  0
 10 11  1  0
 11 12  2  0
 12 13  1  0
 13 14  2  0
 15 16  2  0
M  END
