
     RDKit          3D

 23 26  0  0  0  0  0  0  0  0999 V2000
    4.1430   -0.5780   -1.7530 C   0  0  0  0  0  0  0  0  0  0  0  0
    3.8340   -0.4120   -0.4660 C   0  0  0  0  0  0  0  0  0  0  0  0
    4.7320   -0.5130    0.5510 O   0  0  0  0  0  0  0  0  0  0  0  0
    4.3290   -0.8110    1.7800 O   0  0  0  0  0  0  0  0  0  0  0  0
    3.2290   -0.0770    2.2030 C   0  0  0  0  0  0  0  0  0  0  0  0
    2.1750    0.0580    1.1630 C   0  0  0  0  0  0  0  0  0  0  0  0
    2.4300   -0.0970   -0.1110 C   0  0  0  0  0  0  0  0  0  0  0  0
    1.4230    0.0050   -1.2080 C   0  0  0  0  0  0  0  0  0  0  0  0
    0.0600    0.2580   -0.7840 C   0  0  0  0  0  0  0  0  0  0  0  0
   -0.7270   -0.8070   -0.3270 C   0  0  0  0  0  0  0  0  0  0  0  0
   -0.2140   -2.1680   -0.2340 C   0  0  2  0  0  0  0  0  0  0  0  0
   -1.2700   -3.2120   -0.1560 C   0  0  0  0  0  0  0  0  0  0  0  0
   -1.1430   -3.3800    1.2510 N   0  0  0  0  0  0  0  0  0  0  0  0
    0.0480   -2.5370    1.2390 C   0  0  0  0  0  0  0  0  0  0  0  0
   -2.0020   -0.5720    0.0530 N   0  0  0  0  0  0  0  0  0  0  0  0
   -2.5840    0.6420    0.0220 C   0  0  0  0  0  0  0  0  0  0  0  0
   -3.9010    0.7960    0.4220 C   0  0  0  0  0  0  0  0  0  0  0  0
   -4.5040    2.0330    0.3850 C   0  0  0  0  0  0  0  0  0  0  0  0
   -3.7740    3.1120   -0.0570 C   0  0  0  0  0  0  0  0  0  0  0  0
   -2.4520    2.9590   -0.4580 C   0  0  0  0  0  0  0  0  0  0  0  0
   -1.8560    1.7160   -0.4170 C   0  0  0  0  0  0  0  0  0  0  0  0
   -0.5280    1.5000   -0.8160 C   0  0  0  0  0  0  0  0  0  0  0  0
    0.2060    2.7030   -1.2560 C   0  0  0  0  0  0  0  0  0  0  0  0
  1  2  2  0
  2  3  1  0
  2  7  1  0
  3  4  1  0
  4  5  1  0
  5  6  1  0
  6  7  2  0
  7  8  1  0
  8  9  1  0
  9 10  1  0
  9 22  2  0
 11 10  1  1
 10 15  2  0
 11 12  1  0
 11 14  1  0
 12 13  1  0
 13 14  1  0
 15 16  1  0
 16 17  2  0
 16 21  1  0
 17 18  1  0
 18 19  2  0
 19 20  1  0
 20 21  2  0
 21 22  1  0
 22 23  1  0
M  CHG  1  15   1
M  END
