
     RDKit          3D

 12 12  0  0  0  0  0  0  0  0999 V2000
   -3.1480    2.3060    0.5290 C   0  0  0  0  0  0  0  0  0  0  0  0
   -2.2970    1.3380    0.2990 C   0  0  0  0  0  0  0  0  0  0  0  0
   -0.8660    1.3990    0.2020 N   0  0  0  0  0  0  0  0  0  0  0  0
   -0.3520    0.1040   -0.0580 C   0  0  0  0  0  0  0  0  0  0  0  0
    1.0830   -0.2450   -0.2250 C   0  0  0  0  0  0  0  0  0  0  0  0
    1.8910    0.0890    1.0050 C   0  0  0  0  0  0  0  0  0  0  0  0
    3.3350   -0.3200    0.6910 C   0  0  0  0  0  0  0  0  0  0  0  0
    3.7950    0.4580   -0.4980 C   0  0  0  0  0  0  0  0  0  0  0  0
   -1.3600   -0.7560   -0.1300 C   0  0  0  0  0  0  0  0  0  0  0  0
   -1.2460   -2.2230   -0.3910 C   0  0  0  0  0  0  0  0  0  0  0  0
   -2.6250   -0.0580    0.0840 C   0  0  0  0  0  0  0  0  0  0  0  0
   -3.7890   -0.5900    0.0800 N   0  0  0  0  0  0  0  0  0  0  0  0
  1  2  2  0
  2  3  1  0
  2 11  1  0
  3  4  1  0
  4  5  1  0
  4  9  2  0
  5  6  1  0
  6  7  1  0
  7  8  1  0
  9 10  1  0
  9 11  1  0
 11 12  2  0
M  CHG  1  12   1
M  END
