
     RDKit          3D

 12 13  0  0  0  0  0  0  0  0999 V2000
    3.5300    1.3180   -0.1400 C   0  0  0  0  0  0  0  0  0  0  0  0
    3.0880    0.0130    0.4840 C   0  0  0  0  0  0  0  0  0  0  0  0
    1.6910   -0.3150    0.2110 C   0  0  0  0  0  0  0  0  0  0  0  0
    1.4070   -1.4340   -0.4300 C   0  0  0  0  0  0  0  0  0  0  0  0
    0.0610   -1.8030   -0.7230 N   0  0  0  0  0  0  0  0  0  0  0  0
   -1.0370   -0.9740   -0.3330 C   0  0  0  0  0  0  0  0  0  0  0  0
   -2.3020   -1.2570   -0.5670 C   0  0  0  0  0  0  0  0  0  0  0  0
   -3.4510   -0.4140   -0.1700 C   0  0  0  0  0  0  0  0  0  0  0  0
   -3.0140    1.0100    0.0190 C   0  0  0  0  0  0  0  0  0  0  0  0
   -1.7940    1.0700    0.7520 N   0  0  0  0  0  0  0  0  0  0  0  0
   -0.6720    0.2520    0.3720 C   0  0  0  0  0  0  0  0  0  0  0  0
    0.5730    0.5600    0.6250 C   0  0  0  0  0  0  0  0  0  0  0  0
  1  2  1  0
  2  3  1  0
  3  4  2  0
  3 12  1  0
  4  5  1  0
  5  6  1  0
  6  7  2  0
  6 11  1  0
  7  8  1  0
  8  9  1  0
  9 10  1  0
 10 11  1  0
 11 12  2  0
M  END
