
     RDKit          3D

 23 25  0  0  0  0  0  0  0  0999 V2000
    6.8800   -0.2290    1.0330 C   0  0  0  0  0  0  0  0  0  0  0  0
    6.0920    0.2440   -0.1670 C   0  0  0  0  0  0  0  0  0  0  0  0
    4.7620   -0.4740   -0.1360 C   0  0  0  0  0  0  0  0  0  0  0  0
    3.6350    0.1660   -0.0610 C   0  0  0  0  0  0  0  0  0  0  0  0
    2.3220   -0.4530   -0.0270 C   0  0  0  0  0  0  0  0  0  0  0  0
    1.2280    0.3360    0.0460 C   0  0  0  0  0  0  0  0  0  0  0  0
    1.3310    1.8030    0.0910 C   0  0  0  0  0  0  0  0  0  0  0  0
    0.1060    2.4050   -0.5680 C   0  0  0  0  0  0  0  0  0  0  0  0
   -1.1150    1.9700    0.2060 C   0  0  0  0  0  0  0  0  0  0  0  0
   -1.2190    0.4700    0.1710 C   0  0  0  0  0  0  0  0  0  0  0  0
   -2.4900   -0.1160    0.2210 N   0  0  0  0  0  0  0  0  0  0  0  0
   -2.9770   -0.4070    1.5520 C   0  0  0  0  0  0  0  0  0  0  0  0
   -4.2260   -1.2410    1.4800 C   0  0  0  0  0  0  0  0  0  0  0  0
   -5.2630   -1.0860    0.7010 C   0  0  0  0  0  0  0  0  0  0  0  0
   -5.6230   -0.1210   -0.3410 C   0  0  0  0  0  0  0  0  0  0  0  0
   -4.4820    0.5580   -1.0170 C   0  0  0  0  0  0  0  0  0  0  0  0
   -3.2320   -0.3510   -1.0040 C   0  0  0  0  0  0  0  0  0  0  0  0
   -0.0970   -0.2660    0.0950 C   0  0  0  0  0  0  0  0  0  0  0  0
   -0.3100   -1.7220    0.0680 C   0  0  0  0  0  0  0  0  0  0  0  0
   -1.4660   -2.2120    0.1120 O   0  0  0  0  0  0  0  0  0  0  0  0
    0.8470   -2.5310   -0.0100 N   0  0  0  0  0  0  0  0  0  0  0  0
    2.1200   -1.8810   -0.0550 C   0  0  0  0  0  0  0  0  0  0  0  0
    3.0990   -2.6890   -0.1240 O   0  0  0  0  0  0  0  0  0  0  0  0
  1  2  1  0
  2  3  1  0
  3  4  2  3
  4  5  1  0
  5  6  2  0
  5 22  1  0
  6  7  1  0
  6 18  1  0
  7  8  1  0
  8  9  1  0
  9 10  1  0
 10 11  1  0
 10 18  2  0
 11 12  1  0
 11 17  1  0
 12 13  1  0
 13 14  2  0
 14 15  1  0
 15 16  1  0
 16 17  1  0
 18 19  1  0
 19 20  2  0
 19 21  1  0
 21 22  1  0
 22 23  2  0
M  END
