
     RDKit          3D

 25 27  0  0  0  0  0  0  0  0999 V2000
   -2.0940    3.6070    1.1000 C   0  0  0  0  0  0  0  0  0  0  0  0
   -1.6090    2.4440    0.2940 C   0  0  0  0  0  0  0  0  0  0  0  0
   -2.3140    1.3370    0.2000 C   0  0  0  0  0  0  0  0  0  0  0  0
   -3.6500    1.2020    0.9050 C   0  0  0  0  0  0  0  0  0  0  0  0
   -4.3650    0.7750   -0.3690 C   0  0  0  0  0  0  0  0  0  0  0  0
   -3.5420    0.0370   -1.1100 O   0  0  0  0  0  0  0  0  0  0  0  0
   -2.1660    0.1110   -0.5190 C   0  0  2  0  0  0  0  0  0  0  0  0
   -2.0930   -1.2160    0.0740 C   0  0  0  0  0  0  0  0  0  0  0  0
   -0.9680   -1.9020    0.0460 C   0  0  0  0  0  0  0  0  0  0  0  0
    0.2970   -1.5120   -0.5020 C   0  0  0  0  0  0  0  0  0  0  0  0
    1.1800   -2.5060   -0.5550 C   0  0  0  0  0  0  0  0  0  0  0  0
    2.5370   -2.4320   -1.0550 C   0  0  0  0  0  0  0  0  0  0  0  0
    0.8960   -0.2080   -0.7630 C   0  0  2  0  0  0  0  0  0  0  0  0
    1.9300   -0.3150   -1.6780 O   0  0  0  0  0  0  0  0  0  0  0  0
    2.2590    0.8410   -2.3360 C   0  0  0  0  0  0  0  0  0  0  0  0
    3.6450    1.2250   -1.8210 C   0  0  0  0  0  0  0  0  0  0  0  0
    3.6000    1.2810   -0.3110 C   0  0  1  0  0  0  0  0  0  0  0  0
    4.5300    2.4460    0.0680 C   0  0  0  0  0  0  0  0  0  0  0  0
    2.2540    1.5970    0.2300 C   0  0  0  0  0  0  0  0  0  0  0  0
    1.3620    0.4540    0.5470 C   0  0  2  0  0  0  0  0  0  0  0  0
    1.9110   -0.4970    1.5610 C   0  0  0  0  0  0  0  0  0  0  0  0
   -1.1130   -3.2130    0.8280 C   0  0  0  0  0  0  0  0  0  0  0  0
   -1.6740   -2.7480    2.2020 C   0  0  0  0  0  0  0  0  0  0  0  0
   -3.0500   -2.3340    2.0440 N   0  0  0  0  0  0  0  0  0  0  0  0
   -3.3080   -1.9060    0.7150 C   0  0  0  0  0  0  0  0  0  0  0  0
  1  2  1  0
  2  3  2  3
  3  4  1  0
  3  7  1  0
  4  5  1  0
  5  6  1  0
  6  7  1  0
  7  8  1  1
  8  9  2  0
  8 25  1  0
  9 10  1  0
  9 22  1  0
 10 11  2  3
 13 10  1  1
 11 12  1  0
 13 14  1  0
 13 20  1  0
 14 15  1  0
 15 16  1  0
 16 17  1  0
 17 18  1  6
 17 19  1  0
 19 20  1  0
 20 21  1  1
 22 23  1  0
 23 24  1  0
 24 25  1  0
M  CHG  1  24   1
M  END
