
     RDKit          3D

 25 27  0  0  0  0  0  0  0  0999 V2000
    1.5970    1.7010    0.2570 C   0  0  0  0  0  0  0  0  0  0  0  0
    1.1020    0.8300   -0.8750 C   0  0  1  0  0  0  0  0  0  0  0  0
    1.1250    1.7870   -2.0930 C   0  0  0  0  0  0  0  0  0  0  0  0
    0.6280    1.2120   -3.2280 O   0  0  0  0  0  0  0  0  0  0  0  0
    2.0960   -0.1940   -1.2030 C   0  0  0  0  0  0  0  0  0  0  0  0
    2.5480   -1.2300   -0.2720 C   0  0  1  0  0  0  0  0  0  0  0  0
    3.5680   -2.0890   -1.0420 C   0  0  0  0  0  0  0  0  0  0  0  0
    4.7970   -2.4020   -0.3620 C   0  0  0  0  0  0  0  0  0  0  0  0
    5.3330   -1.6780    0.5880 C   0  0  0  0  0  0  0  0  0  0  0  0
    4.5950   -0.4410    0.9810 C   0  0  0  0  0  0  0  0  0  0  0  0
    3.1330   -0.8700    1.0290 C   0  0  0  0  0  0  0  0  0  0  0  0
   -0.2500    0.3860   -0.5950 N   0  0  1  0  0  0  0  0  0  0  0  0
   -1.2160    1.4280   -0.7380 C   0  0  0  0  0  0  0  0  0  0  0  0
   -1.4540    2.3190    0.4190 C   0  0  2  0  0  0  0  0  0  0  0  0
   -1.9300    1.6210    1.6850 C   0  0  0  0  0  0  0  0  0  0  0  0
   -2.3730    2.7960    2.5440 C   0  0  0  0  0  0  0  0  0  0  0  0
   -3.0960    3.6870    1.5420 C   0  0  0  0  0  0  0  0  0  0  0  0
   -2.7220    3.1750    0.1640 C   0  0  0  0  0  0  0  0  0  0  0  0
   -0.6720   -0.7210   -1.3830 C   0  0  0  0  0  0  0  0  0  0  0  0
   -1.6800   -1.6610   -0.9050 C   0  0  1  0  0  0  0  0  0  0  0  0
   -1.4060   -2.4100    0.3660 C   0  0  0  0  0  0  0  0  0  0  0  0
   -2.3890   -3.5560    0.4710 C   0  0  0  0  0  0  0  0  0  0  0  0
   -3.6930   -3.1380    0.4550 O   0  0  0  0  0  0  0  0  0  0  0  0
   -3.9430   -2.5640   -0.8000 C   0  0  0  0  0  0  0  0  0  0  0  0
   -3.1230   -1.2560   -0.9210 C   0  0  0  0  0  0  0  0  0  0  0  0
  2  1  1  1
  2  3  1  0
  2  5  1  0
  2 12  1  0
  3  4  1  0
  6  5  1  6
  6  7  1  0
  6 11  1  0
  7  8  1  0
  8  9  2  0
  9 10  1  0
 10 11  1  0
 12 13  1  6
 12 19  1  0
 14 13  1  6
 14 15  1  0
 14 18  1  0
 15 16  1  0
 16 17  1  0
 17 18  1  0
 20 19  1  1
 20 21  1  0
 20 25  1  0
 21 22  1  0
 22 23  1  0
 23 24  1  0
 24 25  1  0
M  CHG  1  12   1
M  END
