
     RDKit          3D

 17 18  0  0  0  0  0  0  0  0999 V2000
    1.8960   -1.9070   -0.3740 C   0  0  0  0  0  0  0  0  0  0  0  0
    2.4400   -0.5430   -0.1170 C   0  0  0  0  0  0  0  0  0  0  0  0
    3.8110   -0.3790   -0.0660 C   0  0  0  0  0  0  0  0  0  0  0  0
    4.3860    0.8410    0.1730 C   0  0  0  0  0  0  0  0  0  0  0  0
    3.5500    1.9270    0.3660 C   0  0  0  0  0  0  0  0  0  0  0  0
    2.1990    1.7610    0.3150 C   0  0  0  0  0  0  0  0  0  0  0  0
    1.5980    0.5180    0.0710 C   0  0  0  0  0  0  0  0  0  0  0  0
    0.1470    0.4090    0.0210 C   0  0  0  0  0  0  0  0  0  0  0  0
   -0.6360    0.9640    1.0080 C   0  0  0  0  0  0  0  0  0  0  0  0
   -2.0260    0.8760    0.9690 C   0  0  0  0  0  0  0  0  0  0  0  0
   -2.6540    0.2360   -0.0490 C   0  0  0  0  0  0  0  0  0  0  0  0
   -4.3880    0.0740   -0.1800 S   0  0  1  0  0  0  0  0  0  0  0  0
   -4.8360   -1.3880    0.6290 N   0  0  0  0  0  0  0  0  0  0  0  0
   -5.0600    1.2550    0.4700 O   0  0  0  0  0  0  0  0  0  0  0  0
   -4.7760    0.0160   -1.6190 O   0  0  0  0  0  0  0  0  0  0  0  0
   -1.8880   -0.3310   -1.0540 C   0  0  0  0  0  0  0  0  0  0  0  0
   -0.4900   -0.2370   -1.0080 C   0  0  0  0  0  0  0  0  0  0  0  0
  1  2  1  0
  2  3  2  0
  2  7  1  0
  3  4  1  0
  4  5  2  0
  5  6  1  0
  6  7  2  0
  7  8  1  0
  8  9  2  0
  8 17  1  0
  9 10  1  0
 10 11  2  0
 11 12  1  0
 11 16  1  0
 12 13  1  1
 12 14  2  0
 12 15  2  0
 16 17  2  0
M  END
