
     RDKit          3D

 25 27  0  0  0  0  0  0  0  0999 V2000
    5.8230    2.9650    1.2130 C   0  0  0  0  0  0  0  0  0  0  0  0
    6.8190    2.0220    1.4610 O   0  0  0  0  0  0  0  0  0  0  0  0
    6.2970    0.8310    1.9330 C   0  0  0  0  0  0  0  0  0  0  0  0
    5.3490    0.1940    0.9830 C   0  0  0  0  0  0  0  0  0  0  0  0
    5.7990   -0.6900    0.0260 C   0  0  0  0  0  0  0  0  0  0  0  0
    4.8530   -1.2530   -0.8340 C   0  0  0  0  0  0  0  0  0  0  0  0
    5.3470   -2.2030   -1.8610 C   0  0  0  0  0  0  0  0  0  0  0  0
    3.5280   -0.9640   -0.7600 C   0  0  0  0  0  0  0  0  0  0  0  0
    3.0760   -0.0720    0.2070 C   0  0  0  0  0  0  0  0  0  0  0  0
    1.6680    0.2820    0.3410 C   0  0  1  0  0  0  0  0  0  0  0  0
    1.1880    1.0340   -0.8780 C   0  0  0  0  0  0  0  0  0  0  0  0
    0.3380    0.2420   -1.8070 C   0  0  0  0  0  0  0  0  0  0  0  0
   -0.5570   -0.6200   -1.2350 O   0  0  0  0  0  0  0  0  0  0  0  0
   -0.6090   -0.5020    0.1290 C   0  0  1  0  0  0  0  0  0  0  0  0
   -1.6940   -1.3450    0.7560 C   0  0  0  0  0  0  0  0  0  0  0  0
   -3.0090   -0.8780    0.1690 C   0  0  2  0  0  0  0  0  0  0  0  0
   -3.1850    0.5700    0.5050 C   0  0  0  0  0  0  0  0  0  0  0  0
   -4.6080    0.7930    0.9670 C   0  0  0  0  0  0  0  0  0  0  0  0
   -5.5860    0.1450    0.0140 C   0  0  1  0  0  0  0  0  0  0  0  0
   -6.9620    0.2380    0.6730 C   0  0  0  0  0  0  0  0  0  0  0  0
   -5.5580    0.9890   -1.2620 C   0  0  0  0  0  0  0  0  0  0  0  0
   -5.2570   -1.2960   -0.2700 C   0  0  0  0  0  0  0  0  0  0  0  0
   -4.1240   -1.6950    0.5800 N   0  0  0  0  0  0  0  0  0  0  0  0
    0.7750   -0.8960    0.6550 C   0  0  0  0  0  0  0  0  0  0  0  0
    4.0040    0.4870    1.0590 C   0  0  0  0  0  0  0  0  0  0  0  0
  1  2  1  0
  2  3  1  0
  3  4  1  0
  4  5  2  0
  4 25  1  0
  5  6  1  0
  6  7  1  0
  6  8  2  0
  8  9  1  0
 10  9  1  6
  9 25  2  0
 10 11  1  0
 10 24  1  0
 11 12  1  0
 12 13  1  0
 13 14  1  0
 14 15  1  1
 14 24  1  0
 16 15  1  1
 16 17  1  0
 16 23  1  0
 17 18  1  0
 18 19  1  0
 19 20  1  1
 19 21  1  0
 19 22  1  0
 22 23  1  0
M  CHG  1  23   1
M  END
