
     RDKit          3D

 18 19  0  0  0  0  0  0  0  0999 V2000
    5.1940   -0.3770   -0.2600 C   0  0  0  0  0  0  0  0  0  0  0  0
    4.1370    0.6920    0.7540 S   0  0  0  0  0  0  0  0  0  0  0  0
    2.8010   -0.1870    1.4970 C   0  0  0  0  0  0  0  0  0  0  0  0
    1.5840   -0.1920    1.0460 C   0  0  0  0  0  0  0  0  0  0  0  0
    1.1100    0.5050   -0.1220 C   0  0  0  0  0  0  0  0  0  0  0  0
    1.8600    1.1430   -1.0750 N   0  0  0  0  0  0  0  0  0  0  0  0
    1.0270    1.6420   -2.0190 C   0  0  0  0  0  0  0  0  0  0  0  0
    1.3790    2.2980   -3.0600 O   0  0  0  0  0  0  0  0  0  0  0  0
   -0.1640    1.3380   -1.6770 O   0  0  0  0  0  0  0  0  0  0  0  0
   -0.1970    0.6420   -0.5230 C   0  0  0  0  0  0  0  0  0  0  0  0
   -1.4460    0.1850    0.0650 C   0  0  0  0  0  0  0  0  0  0  0  0
   -1.6670   -0.1250    1.3750 C   0  0  0  0  0  0  0  0  0  0  0  0
   -2.8930   -0.6350    1.8430 C   0  0  0  0  0  0  0  0  0  0  0  0
   -3.0140   -0.9210    3.1950 O   0  0  0  0  0  0  0  0  0  0  0  0
   -3.9290   -0.8340    0.9550 C   0  0  0  0  0  0  0  0  0  0  0  0
   -3.7450   -0.5300   -0.3780 C   0  0  0  0  0  0  0  0  0  0  0  0
   -2.5380   -0.0370   -0.7960 C   0  0  0  0  0  0  0  0  0  0  0  0
   -2.3660    0.2730   -2.2320 C   0  0  0  0  0  0  0  0  0  0  0  0
  1  2  1  0
  2  3  1  0
  3  4  2  3
  4  5  1  0
  5  6  1  0
  5 10  2  0
  6  7  1  0
  7  8  2  0
  7  9  1  0
  9 10  1  0
 10 11  1  0
 11 12  2  0
 11 17  1  0
 12 13  1  0
 13 14  1  0
 13 15  2  0
 15 16  1  0
 16 17  2  0
 17 18  1  0
M  END
