
     RDKit          3D

 20 22  0  0  0  0  0  0  0  0999 V2000
    4.9050    3.5320    0.0230 O   0  0  0  0  0  0  0  0  0  0  0  0
    4.8570    2.2830   -0.0040 C   0  0  0  0  0  0  0  0  0  0  0  0
    3.6400    1.5910   -0.0240 C   0  0  0  0  0  0  0  0  0  0  0  0
    3.6120    0.2160   -0.0540 C   0  0  0  0  0  0  0  0  0  0  0  0
    2.3000   -0.4740   -0.0750 C   0  0  0  0  0  0  0  0  0  0  0  0
    1.2210    0.1970   -0.0670 N   0  0  0  0  0  0  0  0  0  0  0  0
   -0.0920   -0.3420   -0.0900 C   0  0  0  0  0  0  0  0  0  0  0  0
   -1.0660    0.5220   -0.1950 C   0  0  0  0  0  0  0  0  0  0  0  0
   -2.4920    0.4060   -0.2540 C   0  0  0  0  0  0  0  0  0  0  0  0
   -3.1940    1.5100   -0.3570 N   0  0  0  0  0  0  0  0  0  0  0  0
   -4.6300    1.5290   -0.4260 C   0  0  0  0  0  0  0  0  0  0  0  0
   -5.1010    0.4620    0.5720 C   0  0  0  0  0  0  0  0  0  0  0  0
   -4.6450   -0.8720    0.0210 C   0  0  0  0  0  0  0  0  0  0  0  0
   -3.1460   -0.9120   -0.2150 C   0  0  0  0  0  0  0  0  0  0  0  0
   -0.2450   -1.7920    0.0020 C   0  0  0  0  0  0  0  0  0  0  0  0
    1.0670   -2.5330   -0.0230 C   0  0  0  0  0  0  0  0  0  0  0  0
    2.2230   -1.9220   -0.0550 C   0  0  0  0  0  0  0  0  0  0  0  0
    4.7880   -0.4750   -0.0650 C   0  0  0  0  0  0  0  0  0  0  0  0
    5.9850    0.2520   -0.0440 C   0  0  0  0  0  0  0  0  0  0  0  0
    6.0100    1.6000   -0.0150 N   0  0  0  0  0  0  0  0  0  0  0  0
  1  2  2  0
  2  3  1  0
  2 20  1  0
  3  4  2  0
  4  5  1  0
  4 18  1  0
  5  6  2  0
  5 17  1  0
  6  7  1  0
  7  8  2  3
  7 15  1  0
  8  9  1  0
  9 10  2  0
  9 14  1  0
 10 11  1  0
 11 12  1  0
 12 13  1  0
 13 14  1  0
 15 16  1  0
 16 17  2  0
 18 19  2  0
 19 20  1  0
M  CHG  1  10   1
M  END
