
     RDKit          3D

 18 19  0  0  0  0  0  0  0  0999 V2000
   -5.1980    1.7060    0.5980 C   0  0  0  0  0  0  0  0  0  0  0  0
   -3.7620    1.3120    0.3550 C   0  0  0  0  0  0  0  0  0  0  0  0
   -2.3630    2.2450    0.6440 S   0  0  0  0  0  0  0  0  0  0  0  0
   -1.1250    1.0340    0.0900 C   0  0  0  0  0  0  0  0  0  0  0  0
    0.2380    1.3440    0.1050 N   0  0  0  0  0  0  0  0  0  0  0  0
    1.3110    0.4750   -0.0530 C   0  0  0  0  0  0  0  0  0  0  0  0
    1.1790   -0.7350   -0.2130 O   0  0  0  0  0  0  0  0  0  0  0  0
    2.7330    0.9880   -0.0360 C   0  0  0  0  0  0  0  0  0  0  0  0
    3.7240   -0.1230   -0.2210 C   0  0  2  0  0  0  0  0  0  0  0  0
    3.5940   -1.1370    0.8700 C   0  0  0  0  0  0  0  0  0  0  0  0
    5.1050    0.4900   -0.1230 C   0  0  0  0  0  0  0  0  0  0  0  0
    3.6320   -0.7020   -1.4870 O   0  0  0  0  0  0  0  0  0  0  0  0
   -1.9390    0.0090   -0.2750 C   0  0  0  0  0  0  0  0  0  0  0  0
   -3.2710    0.1450   -0.1390 C   0  0  0  0  0  0  0  0  0  0  0  0
   -3.9390   -1.1520   -0.5930 C   0  0  0  0  0  0  0  0  0  0  0  0
   -2.7960   -2.1440   -0.3160 C   0  0  0  0  0  0  0  0  0  0  0  0
   -1.6960   -1.3280   -0.9210 C   0  0  0  0  0  0  0  0  0  0  0  0
   -0.8680   -1.7180   -1.7210 O   0  0  0  0  0  0  0  0  0  0  0  0
  1  2  1  0
  2  3  1  0
  2 14  2  0
  3  4  1  0
  4  5  1  0
  4 13  2  0
  5  6  1  0
  6  7  2  0
  6  8  1  0
  8  9  1  0
  9 10  1  1
  9 11  1  0
  9 12  1  0
 13 14  1  0
 13 17  1  0
 14 15  1  0
 15 16  1  0
 16 17  1  0
 17 18  2  0
M  END
