
     RDKit          3D

 20 22  0  0  0  0  0  0  0  0999 V2000
    6.2340    2.1940   -0.2760 C   0  0  0  0  0  0  0  0  0  0  0  0
    4.8080    2.4900   -0.2380 N   0  0  0  0  0  0  0  0  0  0  0  0
    3.9480    1.5380   -0.2020 C   0  0  0  0  0  0  0  0  0  0  0  0
    4.2060    0.1080   -0.1920 C   0  0  0  0  0  0  0  0  0  0  0  0
    3.0650   -0.5610   -0.1510 C   0  0  0  0  0  0  0  0  0  0  0  0
    1.9450    0.3730   -0.1300 C   0  0  0  0  0  0  0  0  0  0  0  0
    0.6190    0.0800   -0.0890 C   0  0  0  0  0  0  0  0  0  0  0  0
    0.1640   -1.2660   -0.0590 C   0  0  0  0  0  0  0  0  0  0  0  0
   -0.9980   -1.8190   -0.0190 C   0  0  0  0  0  0  0  0  0  0  0  0
   -1.2740   -3.2860    0.0070 C   0  0  0  0  0  0  0  0  0  0  0  0
   -0.4160   -4.1880   -0.0070 O   0  0  0  0  0  0  0  0  0  0  0  0
   -2.6660   -3.4730    0.0490 N   0  0  0  0  0  0  0  0  0  0  0  0
   -3.3090   -2.2110    0.0520 C   0  0  0  0  0  0  0  0  0  0  0  0
   -4.6410   -1.8720    0.0860 C   0  0  0  0  0  0  0  0  0  0  0  0
   -5.0600   -0.5560    0.0830 C   0  0  0  0  0  0  0  0  0  0  0  0
   -4.1220    0.4450    0.0430 C   0  0  0  0  0  0  0  0  0  0  0  0
   -4.5240    1.8810    0.0370 C   0  0  0  0  0  0  0  0  0  0  0  0
   -2.7810    0.0900    0.0090 C   0  0  0  0  0  0  0  0  0  0  0  0
   -2.3230   -1.2180    0.0120 C   0  0  0  0  0  0  0  0  0  0  0  0
    2.5280    1.6640   -0.1630 N   0  0  0  0  0  0  0  0  0  0  0  0
  1  2  1  0
  2  3  2  3
  3  4  1  0
  3 20  1  0
  4  5  2  0
  5  6  1  0
  6  7  2  3
  6 20  1  0
  7  8  1  0
  8  9  2  3
  9 10  1  0
  9 19  1  0
 10 11  2  0
 10 12  1  0
 12 13  1  0
 13 14  2  0
 13 19  1  0
 14 15  1  0
 15 16  2  0
 16 17  1  0
 16 18  1  0
 18 19  2  0
M  CHG  1   2   1
M  END
