
     RDKit          3D

 20 21  0  0  0  0  0  0  0  0999 V2000
   -2.6730    1.4680    2.0890 C   0  0  0  0  0  0  0  0  0  0  0  0
   -2.9130    0.1980    1.9960 C   0  0  0  0  0  0  0  0  0  0  0  0
   -2.3130   -0.7620    1.1360 C   0  0  0  0  0  0  0  0  0  0  0  0
   -2.6590   -2.0690    1.2790 C   0  0  0  0  0  0  0  0  0  0  0  0
   -2.1540   -3.2240    0.5090 C   0  0  0  0  0  0  0  0  0  0  0  0
   -1.0170   -3.3150   -0.1860 C   0  0  0  0  0  0  0  0  0  0  0  0
   -0.0090   -2.2580   -0.3340 C   0  0  0  0  0  0  0  0  0  0  0  0
   -0.1350   -0.8920   -0.2310 C   0  0  0  0  0  0  0  0  0  0  0  0
    0.9590   -0.0820   -0.4110 N   0  0  0  0  0  0  0  0  0  0  0  0
    1.3240    0.8640    0.6640 C   0  0  0  0  0  0  0  0  0  0  0  0
    2.6770    1.4590    0.4990 C   0  0  0  0  0  0  0  0  0  0  0  0
    3.6580    0.5280    0.0030 N   0  0  0  0  0  0  0  0  0  0  0  0
    4.9790    0.4610    0.5860 C   0  0  0  0  0  0  0  0  0  0  0  0
    3.2460   -0.3010   -1.0760 C   0  0  0  0  0  0  0  0  0  0  0  0
    4.0070   -1.1440   -1.5690 O   0  0  0  0  0  0  0  0  0  0  0  0
    1.8630   -0.0790   -1.5530 C   0  0  0  0  0  0  0  0  0  0  0  0
   -1.4140   -0.2720    0.0820 C   0  0  0  0  0  0  0  0  0  0  0  0
   -1.8610    0.6530   -0.6950 C   0  0  0  0  0  0  0  0  0  0  0  0
   -3.2130    1.2900   -0.6620 C   0  0  0  0  0  0  0  0  0  0  0  0
   -1.0490    1.1510   -1.7440 N   0  0  0  0  0  0  0  0  0  0  0  0
  1  2  2  0
  2  3  1  0
  3  4  2  0
  3 17  1  0
  4  5  1  0
  5  6  2  0
  6  7  1  0
  7  8  2  0
  8  9  1  0
  8 17  1  0
  9 10  1  0
  9 16  1  0
 10 11  1  0
 11 12  1  0
 12 13  1  0
 12 14  1  0
 14 15  2  0
 14 16  1  0
 17 18  2  3
 18 19  1  0
 18 20  1  0
M  CHG  1  20   1
M  END
