
     RDKit          3D

 20 22  0  0  0  0  0  0  0  0999 V2000
    4.0370   -3.5130    0.8270 C   0  0  0  0  0  0  0  0  0  0  0  0
    2.9590   -2.5380    0.6750 N   0  0  0  0  0  0  0  0  0  0  0  0
    3.2630   -1.1930    0.3740 C   0  0  0  0  0  0  0  0  0  0  0  0
    4.5110   -0.9130    0.2490 O   0  0  0  0  0  0  0  0  0  0  0  0
    2.3440   -0.1100    0.1930 C   0  0  0  0  0  0  0  0  0  0  0  0
    2.9490    1.0400   -0.0870 C   0  0  0  0  0  0  0  0  0  0  0  0
    2.5280    2.3920   -0.3540 C   0  0  0  0  0  0  0  0  0  0  0  0
    3.1360    3.4410   -0.7700 N   0  0  0  0  0  0  0  0  0  0  0  0
    1.9170    4.1510   -0.6870 C   0  0  0  0  0  0  0  0  0  0  0  0
    1.2660    3.0890   -0.2580 C   0  0  0  0  0  0  0  0  0  0  0  0
   -0.1470    2.8720    0.1200 C   0  0  0  0  0  0  0  0  0  0  0  0
   -0.6450    1.5150   -0.1020 C   0  0  0  0  0  0  0  0  0  0  0  0
   -0.2780    0.2480   -0.0380 C   0  0  0  0  0  0  0  0  0  0  0  0
   -1.1510   -0.9030   -0.3710 C   0  0  0  0  0  0  0  0  0  0  0  0
   -2.5960   -0.6710   -0.1250 C   0  0  2  0  0  0  0  0  0  0  0  0
   -3.1020   -1.4640    1.0870 C   0  0  0  0  0  0  0  0  0  0  0  0
   -3.3630   -1.2480   -1.3220 C   0  0  0  0  0  0  0  0  0  0  0  0
   -2.9850    0.7520    0.0900 C   0  0  0  0  0  0  0  0  0  0  0  0
   -2.0650    1.7380   -0.5530 C   0  0  0  0  0  0  0  0  0  0  0  0
    0.9500   -0.3910    0.3360 N   0  0  0  0  0  0  0  0  0  0  0  0
  1  2  1  0
  2  3  1  0
  3  4  2  0
  3  5  1  0
  5  6  2  0
  5 20  1  0
  6  7  1  0
  7  8  2  0
  7 10  1  0
  8  9  1  0
  9 10  2  0
 10 11  1  0
 11 12  1  0
 12 13  2  0
 12 19  1  0
 13 14  1  0
 13 20  1  0
 14 15  1  0
 15 16  1  1
 15 17  1  0
 15 18  1  0
 18 19  1  0
M  END
