
     RDKit          3D

 16 17  0  0  0  0  0  0  0  0999 V2000
    2.3530    0.1390    2.7250 C   0  0  0  0  0  0  0  0  0  0  0  0
    1.9330    0.1020    1.4780 C   0  0  0  0  0  0  0  0  0  0  0  0
    0.5200   -0.0740    1.1990 C   0  0  0  0  0  0  0  0  0  0  0  0
    0.1350   -0.1070   -0.0290 N   0  0  0  0  0  0  0  0  0  0  0  0
   -1.2520   -0.2800   -0.2800 C   0  0  0  0  0  0  0  0  0  0  0  0
   -1.9600   -1.4030    0.0650 C   0  0  0  0  0  0  0  0  0  0  0  0
   -3.3050   -1.5470   -0.1890 C   0  0  0  0  0  0  0  0  0  0  0  0
   -3.9660   -0.5150   -0.8200 C   0  0  0  0  0  0  0  0  0  0  0  0
   -3.2980    0.6300   -1.1860 C   0  0  0  0  0  0  0  0  0  0  0  0
   -3.9300    1.6910   -1.8230 O   0  0  0  0  0  0  0  0  0  0  0  0
   -1.9510    0.7380   -0.9140 C   0  0  0  0  0  0  0  0  0  0  0  0
    2.8880    0.2370    0.3870 C   0  0  0  0  0  0  0  0  0  0  0  0
    4.2050    0.4020    0.5790 C   0  0  0  0  0  0  0  0  0  0  0  0
    4.8830    0.5100   -1.0720 S   0  0  0  0  0  0  0  0  0  0  0  0
    3.1650    0.3020   -1.8390 C   0  0  0  0  0  0  0  0  0  0  0  0
    2.5380    0.2100   -0.9020 N   0  0  0  0  0  0  0  0  0  0  0  0
  1  2  2  0
  2  3  1  0
  2 12  1  0
  3  4  2  3
  4  5  1  0
  5  6  2  0
  5 11  1  0
  6  7  1  0
  7  8  2  0
  8  9  1  0
  9 10  1  0
  9 11  2  0
 12 13  2  0
 12 16  1  0
 13 14  1  0
 14 15  1  0
 15 16  2  0
M  END
