
     RDKit          3D

 22 23  0  0  0  0  0  0  0  0999 V2000
    0.6540   -2.5590   -0.1370 O   0  0  0  0  0  0  0  0  0  0  0  0
    0.8280   -1.3210   -0.1340 C   0  0  0  0  0  0  0  0  0  0  0  0
    1.9680   -0.7970    0.4150 C   0  0  0  0  0  0  0  0  0  0  0  0
    3.0100   -1.6100    1.0150 C   0  0  0  0  0  0  0  0  0  0  0  0
    2.6510   -2.7180    1.7790 O   0  0  0  0  0  0  0  0  0  0  0  0
    4.2830   -1.3300    0.8570 C   0  0  0  0  0  0  0  0  0  0  0  0
    4.7660   -0.2600    0.1220 O   0  0  0  0  0  0  0  0  0  0  0  0
    5.2410   -2.1200    1.4390 F   0  0  0  0  0  0  0  0  0  0  0  0
    2.1300    0.5650    0.4030 C   0  0  0  0  0  0  0  0  0  0  0  0
    1.1410    1.3590   -0.1630 C   0  0  0  0  0  0  0  0  0  0  0  0
    1.3560    2.7190   -0.1780 C   0  0  0  0  0  0  0  0  0  0  0  0
    0.4030    3.5250   -0.7610 C   0  0  0  0  0  0  0  0  0  0  0  0
    0.5880    4.8650   -0.7880 F   0  0  0  0  0  0  0  0  0  0  0  0
   -0.7320    2.9280   -1.3080 C   0  0  0  0  0  0  0  0  0  0  0  0
   -0.9270    1.5740   -1.2820 C   0  0  0  0  0  0  0  0  0  0  0  0
    0.0070    0.7540   -0.7040 C   0  0  0  0  0  0  0  0  0  0  0  0
   -0.1650   -0.5620   -0.6970 N   0  0  0  0  0  0  0  0  0  0  0  0
   -1.3510   -1.2230   -1.1360 C   0  0  0  0  0  0  0  0  0  0  0  0
   -2.2700   -1.6450   -0.0500 C   0  0  0  0  0  0  0  0  0  0  0  0
   -2.9160   -0.6980    0.8490 C   0  0  0  0  0  0  0  0  0  0  0  0
   -3.9260    0.2110    0.2330 C   0  0  0  0  0  0  0  0  0  0  0  0
   -4.5960    1.3100    1.5020 Cl  0  0  0  0  0  0  0  0  0  0  0  0
  1  2  2  0
  2  3  1  0
  2 17  1  0
  3  4  1  0
  3  9  2  0
  4  5  1  0
  4  6  2  3
  6  7  1  0
  6  8  1  0
  9 10  1  0
 10 11  2  0
 10 16  1  0
 11 12  1  0
 12 13  1  0
 12 14  2  0
 14 15  1  0
 15 16  2  0
 16 17  1  0
 17 18  1  0
 18 19  1  0
 19 20  1  0
 20 21  1  0
 21 22  1  0
M  END
