
     RDKit          3D

 16 17  0  0  0  0  0  0  0  0999 V2000
    5.0700    1.4440    0.0780 C   0  0  0  0  0  0  0  0  0  0  0  0
    4.8250    0.3890   -0.7530 O   0  0  0  0  0  0  0  0  0  0  0  0
    3.4970    0.0390   -0.9010 C   0  0  0  0  0  0  0  0  0  0  0  0
    2.9200   -0.3450    0.4130 C   0  0  0  0  0  0  0  0  0  0  0  0
    1.5100   -0.7300    0.2450 N   0  0  0  0  0  0  0  0  0  0  0  0
    0.4600    0.1000    0.3240 C   0  0  0  0  0  0  0  0  0  0  0  0
   -0.7200   -0.6040    0.1140 C   0  0  0  0  0  0  0  0  0  0  0  0
   -2.0820   -0.0890    0.1130 C   0  0  0  0  0  0  0  0  0  0  0  0
   -2.2960    1.1980    0.3340 C   0  0  0  0  0  0  0  0  0  0  0  0
   -3.6460    1.7430    0.3400 C   0  0  0  0  0  0  0  0  0  0  0  0
   -4.6910    0.9780    0.1270 C   0  0  0  0  0  0  0  0  0  0  0  0
   -4.5500   -0.4660   -0.1270 C   0  0  0  0  0  0  0  0  0  0  0  0
   -3.1910   -1.0350   -0.1370 C   0  0  0  0  0  0  0  0  0  0  0  0
   -0.3200   -1.8840   -0.0930 N   0  0  0  0  0  0  0  0  0  0  0  0
    1.0270   -1.9600   -0.0130 C   0  0  0  0  0  0  0  0  0  0  0  0
    1.8850   -3.3420   -0.2070 S   0  0  0  0  0  0  0  0  0  0  0  0
  1  2  1  0
  2  3  1  0
  3  4  1  0
  4  5  1  0
  5  6  1  0
  5 15  1  0
  6  7  2  0
  7  8  1  0
  7 14  1  0
  8  9  2  0
  8 13  1  0
  9 10  1  0
 10 11  2  0
 11 12  1  0
 12 13  1  0
 14 15  1  0
 15 16  2  0
M  END
