
     RDKit          3D

 16 17  0  0  0  0  0  0  0  0999 V2000
   -4.1780    1.6530   -0.2550 C   0  0  0  0  0  0  0  0  0  0  0  0
   -4.0680    0.1550   -0.1270 C   0  0  2  0  0  0  0  0  0  0  0  0
   -4.2110   -0.2100    1.3360 C   0  0  0  0  0  0  0  0  0  0  0  0
   -2.7120   -0.3390   -0.5470 C   0  0  0  0  0  0  0  0  0  0  0  0
   -2.5870   -1.3080   -1.5290 C   0  0  0  0  0  0  0  0  0  0  0  0
   -0.8080   -1.4980   -1.6110 S   0  0  0  0  0  0  0  0  0  0  0  0
   -0.4670   -0.2780   -0.3420 C   0  0  0  0  0  0  0  0  0  0  0  0
    0.8800    0.0570    0.0850 N   0  0  0  0  0  0  0  0  0  0  0  0
    2.0070   -0.5660   -0.4810 C   0  0  0  0  0  0  0  0  0  0  0  0
    1.7710   -1.4310   -1.3790 O   0  0  0  0  0  0  0  0  0  0  0  0
    3.3760   -0.2700   -0.0910 C   0  0  0  0  0  0  0  0  0  0  0  0
    4.4420   -0.8450   -0.6110 C   0  0  0  0  0  0  0  0  0  0  0  0
    5.6640   -0.3120    0.0100 C   0  0  0  0  0  0  0  0  0  0  0  0
    5.1540    0.6740    0.9860 C   0  0  0  0  0  0  0  0  0  0  0  0
    3.8400    0.6760    0.9050 C   0  0  0  0  0  0  0  0  0  0  0  0
   -1.6060    0.0970   -0.0320 N   0  0  0  0  0  0  0  0  0  0  0  0
  2  1  1  1
  2  3  1  0
  2  4  1  0
  4  5  2  0
  4 16  1  0
  5  6  1  0
  6  7  1  0
  7  8  1  0
  7 16  2  0
  8  9  1  0
  9 10  2  0
  9 11  1  0
 11 12  2  0
 11 15  1  0
 12 13  1  0
 13 14  1  0
 14 15  2  0
M  END
