
     RDKit          3D

 20 22  0  0  0  0  0  0  0  0999 V2000
    5.9310    0.1390    0.5570 N   0  0  0  0  0  0  0  0  0  0  0  0
    5.0840   -0.4440   -0.8280 S   0  0  1  0  0  0  0  0  0  0  0  0
    5.2870    0.4470   -2.0100 O   0  0  0  0  0  0  0  0  0  0  0  0
    5.4940   -1.8440   -1.1840 O   0  0  0  0  0  0  0  0  0  0  0  0
    3.3810   -0.4670   -0.4360 C   0  0  0  0  0  0  0  0  0  0  0  0
    2.6520    0.6790   -0.7110 C   0  0  0  0  0  0  0  0  0  0  0  0
    1.3030    0.6940   -0.4140 C   0  0  0  0  0  0  0  0  0  0  0  0
    0.6990   -0.4010    0.1410 C   0  0  0  0  0  0  0  0  0  0  0  0
   -0.7310   -0.3240    0.4340 C   0  0  0  0  0  0  0  0  0  0  0  0
   -1.2170   -1.0470    1.5090 C   0  0  0  0  0  0  0  0  0  0  0  0
   -2.5360   -0.9600    1.7600 N   0  0  0  0  0  0  0  0  0  0  0  0
   -3.3770   -0.2050    1.0060 C   0  0  0  0  0  0  0  0  0  0  0  0
   -4.7250   -0.1460    1.3010 C   0  0  0  0  0  0  0  0  0  0  0  0
   -5.5850    0.6190    0.5410 C   0  0  0  0  0  0  0  0  0  0  0  0
   -5.1420    1.3540   -0.5390 C   0  0  0  0  0  0  0  0  0  0  0  0
   -3.7920    1.2940   -0.8340 C   0  0  0  0  0  0  0  0  0  0  0  0
   -2.9300    0.5310   -0.0760 C   0  0  0  0  0  0  0  0  0  0  0  0
   -1.5650    0.4510   -0.3470 C   0  0  0  0  0  0  0  0  0  0  0  0
    1.4300   -1.5430    0.4140 C   0  0  0  0  0  0  0  0  0  0  0  0
    2.7650   -1.5600    0.1210 C   0  0  0  0  0  0  0  0  0  0  0  0
  2  1  1  1
  2  3  2  0
  2  4  2  0
  2  5  1  0
  5  6  2  0
  5 20  1  0
  6  7  1  0
  7  8  2  0
  8  9  1  0
  8 19  1  0
  9 10  2  0
  9 18  1  0
 10 11  1  0
 11 12  2  0
 12 13  1  0
 12 17  1  0
 13 14  2  0
 14 15  1  0
 15 16  2  0
 16 17  1  0
 17 18  2  0
 19 20  2  0
M  END
