
     RDKit          3D

 16 17  0  0  0  0  0  0  0  0999 V2000
   -3.2520    1.2840    1.5010 C   0  0  0  0  0  0  0  0  0  0  0  0
   -3.0440    0.1440    0.5530 C   0  0  0  0  0  0  0  0  0  0  0  0
   -3.9920   -0.4310   -0.1630 C   0  0  0  0  0  0  0  0  0  0  0  0
   -3.3600   -1.5020   -0.9550 C   0  0  0  0  0  0  0  0  0  0  0  0
   -1.9780   -1.4450   -0.5910 N   0  0  0  0  0  0  0  0  0  0  0  0
   -1.7810   -0.5160    0.2650 C   0  0  0  0  0  0  0  0  0  0  0  0
   -0.5170   -0.2580    0.7770 O   0  0  0  0  0  0  0  0  0  0  0  0
    0.6110   -0.1460   -0.0210 C   0  0  0  0  0  0  0  0  0  0  0  0
    0.5890   -0.2710   -1.3820 C   0  0  0  0  0  0  0  0  0  0  0  0
    1.7070   -0.1610   -2.1790 C   0  0  0  0  0  0  0  0  0  0  0  0
    2.9110    0.0880   -1.5670 C   0  0  0  0  0  0  0  0  0  0  0  0
    2.9940    0.2230   -0.2000 C   0  0  0  0  0  0  0  0  0  0  0  0
    4.2760    0.4810    0.3660 N   0  0  0  0  0  0  0  0  0  0  0  0
    4.3550    0.6190    1.7770 C   0  0  0  0  0  0  0  0  0  0  0  0
    4.5790   -0.7190    2.6770 S   0  0  0  0  0  0  0  0  0  0  0  0
    1.8590    0.1070    0.5600 C   0  0  0  0  0  0  0  0  0  0  0  0
  1  2  1  0
  2  3  2  0
  2  6  1  0
  3  4  1  0
  4  5  1  0
  5  6  2  0
  6  7  1  0
  7  8  1  0
  8  9  2  0
  8 16  1  0
  9 10  1  0
 10 11  2  0
 11 12  1  0
 12 13  1  0
 12 16  2  0
 13 14  1  0
 14 15  2  0
M  END
