
     RDKit          3D

 16 17  0  0  0  0  0  0  0  0999 V2000
   -3.6790    0.2580    1.1450 C   0  0  0  0  0  0  0  0  0  0  0  0
   -2.7520    0.3100   -0.0140 C   0  0  0  0  0  0  0  0  0  0  0  0
   -3.2610    0.3900   -1.2900 C   0  0  0  0  0  0  0  0  0  0  0  0
   -4.6310    0.4230   -1.5040 O   0  0  0  0  0  0  0  0  0  0  0  0
   -2.3640    0.4360   -2.3350 C   0  0  0  0  0  0  0  0  0  0  0  0
   -1.0180    0.4050   -2.1430 N   0  0  0  0  0  0  0  0  0  0  0  0
   -0.4980    0.3270   -0.9060 C   0  0  0  0  0  0  0  0  0  0  0  0
    0.8750    0.2940   -0.6890 N   0  0  0  0  0  0  0  0  0  0  0  0
    1.6100   -0.6970   -0.4380 C   0  0  0  0  0  0  0  0  0  0  0  0
    3.0490   -0.4330   -0.2520 C   0  0  0  0  0  0  0  0  0  0  0  0
    4.0760   -1.2220    0.0160 C   0  0  0  0  0  0  0  0  0  0  0  0
    5.3090   -0.7440    0.1410 C   0  0  0  0  0  0  0  0  0  0  0  0
    5.5620    0.6000   -0.0060 C   0  0  0  0  0  0  0  0  0  0  0  0
    3.8240    1.1870   -0.3560 S   0  0  0  0  0  0  0  0  0  0  0  0
   -1.3740    0.2800    0.1550 C   0  0  0  0  0  0  0  0  0  0  0  0
   -0.8280    0.1950    1.5130 C   0  0  0  0  0  0  0  0  0  0  0  0
  1  2  1  0
  2  3  2  0
  2 15  1  0
  3  4  1  0
  3  5  1  0
  5  6  2  0
  6  7  1  0
  7  8  1  0
  7 15  2  0
  8  9  2  3
  9 10  1  0
 10 11  2  0
 10 14  1  0
 11 12  1  0
 12 13  2  0
 13 14  1  0
 15 16  1  0
M  END
