
     RDKit          3D

 23 24  0  0  0  0  0  0  0  0999 V2000
   -3.4230    1.6460    0.9460 N   0  0  0  0  0  0  0  0  0  0  0  0
   -3.0870    1.7550   -0.4250 C   0  0  0  0  0  0  0  0  0  0  0  0
   -2.3290    0.8260   -1.0220 C   0  0  0  0  0  0  0  0  0  0  0  0
   -1.8440   -0.3100   -0.2590 C   0  0  0  0  0  0  0  0  0  0  0  0
   -2.6310   -1.1420    0.5570 C   0  0  0  0  0  0  0  0  0  0  0  0
   -1.7790   -2.0600    1.1060 C   0  0  0  0  0  0  0  0  0  0  0  0
   -2.1510   -3.1490    2.0370 C   0  0  0  0  0  0  0  0  0  0  0  0
   -3.5190   -3.1980    2.2480 O   0  0  0  0  0  0  0  0  0  0  0  0
   -0.5690   -1.8220    0.6730 O   0  0  0  0  0  0  0  0  0  0  0  0
   -0.5600   -0.7720   -0.1540 C   0  0  0  0  0  0  0  0  0  0  0  0
    0.6340   -0.2500   -0.8020 C   0  0  0  0  0  0  0  0  0  0  0  0
    0.8190    0.7780   -1.6690 C   0  0  0  0  0  0  0  0  0  0  0  0
    2.1930    0.8080   -1.9510 C   0  0  0  0  0  0  0  0  0  0  0  0
    2.7660   -0.2010   -1.2400 C   0  0  0  0  0  0  0  0  0  0  0  0
    4.2050   -0.5820   -1.1960 C   0  0  0  0  0  0  0  0  0  0  0  0
    4.8950    0.2000   -0.0850 C   0  0  0  0  0  0  0  0  0  0  0  0
    4.2750   -0.0970    1.2490 C   0  0  0  0  0  0  0  0  0  0  0  0
    5.1390    0.8630    2.4990 Cl  0  0  0  0  0  0  0  0  0  0  0  0
    1.8320   -0.7910   -0.5880 O   0  0  0  0  0  0  0  0  0  0  0  0
   -3.5730    2.9180   -1.1930 C   0  0  1  0  0  0  0  0  0  0  0  0
   -4.9350    3.0300   -1.2150 F   0  0  0  0  0  0  0  0  0  0  0  0
   -3.0760    4.1010   -0.6310 F   0  0  0  0  0  0  0  0  0  0  0  0
   -3.1080    2.7870   -2.4990 F   0  0  0  0  0  0  0  0  0  0  0  0
  1  2  1  0
  2  3  2  3
  2 20  1  0
  3  4  1  0
  4  5  1  0
  4 10  2  0
  5  6  2  0
  6  7  1  0
  6  9  1  0
  7  8  1  0
  9 10  1  0
 10 11  1  0
 11 12  2  0
 11 19  1  0
 12 13  1  0
 13 14  2  0
 14 15  1  0
 14 19  1  0
 15 16  1  0
 16 17  1  0
 17 18  1  0
 20 21  1  6
 20 22  1  0
 20 23  1  0
M  END
