
     RDKit          3D

 16 17  0  0  0  0  0  0  0  0999 V2000
    5.3650    0.3400   -0.7220 C   0  0  0  0  0  0  0  0  0  0  0  0
    3.9210    0.1750   -0.4270 C   0  0  0  0  0  0  0  0  0  0  0  0
    2.9190    0.7030   -1.2090 C   0  0  0  0  0  0  0  0  0  0  0  0
    1.5860    0.5380   -0.9180 C   0  0  0  0  0  0  0  0  0  0  0  0
    1.2550   -0.1900    0.2080 C   0  0  0  0  0  0  0  0  0  0  0  0
   -0.1780   -0.3840    0.5470 C   0  0  0  0  0  0  0  0  0  0  0  0
   -1.2340   -0.1500    0.2180 N   0  0  0  0  0  0  0  0  0  0  0  0
   -2.4040   -0.4890    0.7710 C   0  0  0  0  0  0  0  0  0  0  0  0
   -3.6980   -0.0460    0.1270 C   0  0  1  0  0  0  0  0  0  0  0  0
   -3.7560    1.4760    0.1820 C   0  0  0  0  0  0  0  0  0  0  0  0
   -3.8110   -0.5650   -1.2780 C   0  0  0  0  0  0  0  0  0  0  0  0
   -2.3010   -1.2050    1.8680 C   0  0  0  0  0  0  0  0  0  0  0  0
   -0.5540   -1.4000    2.1170 S   0  0  0  0  0  0  0  0  0  0  0  0
    2.2790   -0.7020    0.9650 C   0  0  0  0  0  0  0  0  0  0  0  0
    2.0150   -1.3580    1.9800 O   0  0  0  0  0  0  0  0  0  0  0  0
    3.5740   -0.5270    0.6590 N   0  0  0  0  0  0  0  0  0  0  0  0
  1  2  1  0
  2  3  2  0
  2 16  1  0
  3  4  1  0
  4  5  2  0
  5  6  1  0
  5 14  1  0
  6  7  2  0
  6 13  1  0
  7  8  1  0
  8  9  1  0
  8 12  2  0
  9 10  1  6
  9 11  1  0
 12 13  1  0
 14 15  2  0
 14 16  1  0
M  END
