
     RDKit          3D

 14 14  0  0  0  0  0  0  0  0999 V2000
   -4.5150    1.4200   -0.1950 C   0  0  0  0  0  0  0  0  0  0  0  0
   -3.6240    0.4370    0.5200 C   0  0  0  0  0  0  0  0  0  0  0  0
   -2.2160    0.8130    0.5170 C   0  0  0  0  0  0  0  0  0  0  0  0
   -1.1940    0.1700    0.0250 C   0  0  0  0  0  0  0  0  0  0  0  0
   -1.3170   -1.1180   -0.6460 C   0  0  0  0  0  0  0  0  0  0  0  0
   -0.2180   -1.7080   -1.1200 C   0  0  0  0  0  0  0  0  0  0  0  0
   -0.4080   -2.9300   -1.7460 O   0  0  0  0  0  0  0  0  0  0  0  0
    1.1160   -1.1300   -1.0040 C   0  0  0  0  0  0  0  0  0  0  0  0
    1.3270    0.0360   -0.4110 C   0  0  0  0  0  0  0  0  0  0  0  0
    2.5980    0.5830   -0.3020 O   0  0  0  0  0  0  0  0  0  0  0  0
    3.6720   -0.1980    0.1930 C   0  0  0  0  0  0  0  0  0  0  0  0
    4.9600    0.5760    0.2310 C   0  0  0  0  0  0  0  0  0  0  0  0
    0.1570    0.7220    0.1250 C   0  0  0  0  0  0  0  0  0  0  0  0
    0.3790    1.8400    0.6910 O   0  0  0  0  0  0  0  0  0  0  0  0
  1  2  1  0
  2  3  1  0
  3  4  2  3
  4  5  1  0
  4 13  1  0
  5  6  2  0
  6  7  1  0
  6  8  1  0
  8  9  2  0
  9 10  1  0
  9 13  1  0
 10 11  1  0
 11 12  1  0
 13 14  2  0
M  END
