
     RDKit          3D

 14 14  0  0  0  0  0  0  0  0999 V2000
    4.9440   -0.3050   -0.2390 C   0  0  0  0  0  0  0  0  0  0  0  0
    4.1770   -1.0730    0.7890 C   0  0  0  0  0  0  0  0  0  0  0  0
    2.9490   -0.4790    1.1410 O   0  0  0  0  0  0  0  0  0  0  0  0
    1.9240   -0.2300    0.2740 C   0  0  0  0  0  0  0  0  0  0  0  0
    2.0380   -0.5350   -0.9340 O   0  0  0  0  0  0  0  0  0  0  0  0
    0.6870    0.4010    0.7780 C   0  0  0  0  0  0  0  0  0  0  0  0
   -0.3770    0.6120   -0.2430 C   0  0  1  0  0  0  0  0  0  0  0  0
    0.1180    1.4370   -1.2550 O   0  0  0  0  0  0  0  0  0  0  0  0
   -0.9560   -0.6200   -0.8460 C   0  0  0  0  0  0  0  0  0  0  0  0
   -1.7450   -1.4550    0.1280 C   0  0  0  0  0  0  0  0  0  0  0  0
   -3.0230   -0.8300    0.5700 C   0  0  0  0  0  0  0  0  0  0  0  0
   -3.5290    0.2360   -0.3530 C   0  0  0  0  0  0  0  0  0  0  0  0
   -2.7290    1.4900   -0.3440 C   0  0  0  0  0  0  0  0  0  0  0  0
   -1.4740    1.4300    0.4590 C   0  0  0  0  0  0  0  0  0  0  0  0
  1  2  1  0
  2  3  1  0
  3  4  1  0
  4  5  2  0
  4  6  1  0
  6  7  1  0
  7  8  1  6
  7  9  1  0
  7 14  1  0
  9 10  1  0
 10 11  1  0
 11 12  1  0
 12 13  1  0
 13 14  1  0
M  END
