
     RDKit          3D

 23 25  0  0  0  0  0  0  0  0999 V2000
   -4.7930   -1.7170    0.5670 C   0  0  0  0  0  0  0  0  0  0  0  0
   -3.8600   -0.8340    0.1910 C   0  0  0  0  0  0  0  0  0  0  0  0
   -3.5820    0.3620    0.9430 C   0  0  0  0  0  0  0  0  0  0  0  0
   -2.6320    1.2260    0.5270 C   0  0  0  0  0  0  0  0  0  0  0  0
   -2.3190    2.4580    1.2690 C   0  0  0  0  0  0  0  0  0  0  0  0
   -2.5730    2.7770    2.4670 N   0  0  0  0  0  0  0  0  0  0  0  0
   -1.4610    3.4570    0.0650 S   0  0  0  0  0  0  0  0  0  0  0  0
   -0.9040    2.0380   -0.9170 C   0  0  0  0  0  0  0  0  0  0  0  0
    0.1230    1.9960   -1.6790 N   0  0  0  0  0  0  0  0  0  0  0  0
    0.6120    0.9630   -2.4550 C   0  0  0  0  0  0  0  0  0  0  0  0
    0.1550    0.7970   -3.6240 O   0  0  0  0  0  0  0  0  0  0  0  0
    1.6620    0.0540   -1.9290 C   0  0  0  0  0  0  0  0  0  0  0  0
    1.9810    0.4430   -0.6290 O   0  0  0  0  0  0  0  0  0  0  0  0
    2.9300   -0.1940    0.1630 C   0  0  0  0  0  0  0  0  0  0  0  0
    3.1920    0.2450    1.4360 C   0  0  0  0  0  0  0  0  0  0  0  0
    4.1400   -0.3750    2.2520 C   0  0  0  0  0  0  0  0  0  0  0  0
    4.8320   -1.4570    1.7730 C   0  0  0  0  0  0  0  0  0  0  0  0
    4.5780   -1.9070    0.4980 C   0  0  0  0  0  0  0  0  0  0  0  0
    3.6260   -1.2780   -0.3140 C   0  0  0  0  0  0  0  0  0  0  0  0
   -1.8870    1.0160   -0.6170 N   0  0  0  0  0  0  0  0  0  0  0  0
   -2.0780   -0.1640   -1.4730 C   0  0  0  0  0  0  0  0  0  0  0  0
   -3.1040   -1.0940   -1.0170 C   0  0  0  0  0  0  0  0  0  0  0  0
   -3.3510   -2.1490   -1.6750 O   0  0  0  0  0  0  0  0  0  0  0  0
  1  2  2  0
  2  3  1  0
  2 22  1  0
  3  4  2  0
  4  5  1  0
  4 20  1  0
  5  6  2  0
  5  7  1  0
  7  8  1  0
  8  9  2  3
  8 20  1  0
  9 10  1  0
 10 11  2  0
 10 12  1  0
 12 13  1  0
 13 14  1  0
 14 15  2  0
 14 19  1  0
 15 16  1  0
 16 17  2  0
 17 18  1  0
 18 19  2  0
 20 21  1  0
 21 22  1  0
 22 23  2  0
M  END
