
     RDKit          3D

 14 14  0  0  0  0  0  0  0  0999 V2000
   -2.7500   -1.7080   -1.0980 C   0  0  0  0  0  0  0  0  0  0  0  0
   -2.8520   -0.6710   -0.3050 C   0  0  0  0  0  0  0  0  0  0  0  0
   -3.8280   -0.4370    0.8140 C   0  0  0  0  0  0  0  0  0  0  0  0
   -4.0150    1.0620    0.7110 C   0  0  0  0  0  0  0  0  0  0  0  0
   -2.6840    1.5160    0.2570 C   0  0  0  0  0  0  0  0  0  0  0  0
   -2.0220    0.5280   -0.3210 C   0  0  0  0  0  0  0  0  0  0  0  0
   -0.7360    0.5590   -0.8780 O   0  0  0  0  0  0  0  0  0  0  0  0
    0.3950    0.2770   -0.1420 C   0  0  0  0  0  0  0  0  0  0  0  0
    0.2600   -0.0190    1.0710 O   0  0  0  0  0  0  0  0  0  0  0  0
    1.7670    0.3000   -0.6970 C   0  0  0  0  0  0  0  0  0  0  0  0
    2.8100   -0.0470    0.3240 C   0  0  0  0  0  0  0  0  0  0  0  0
    4.1760    0.0010   -0.3240 C   0  0  0  0  0  0  0  0  0  0  0  0
    5.2520   -0.3380    0.6530 C   0  0  0  0  0  0  0  0  0  0  0  0
    5.0090   -0.6100    1.8140 O   0  0  0  0  0  0  0  0  0  0  0  0
  1  2  2  0
  2  3  1  0
  2  6  1  0
  3  4  1  0
  4  5  1  0
  5  6  2  0
  6  7  1  0
  7  8  1  0
  8  9  2  0
  8 10  1  0
 10 11  1  0
 11 12  1  0
 12 13  1  0
 13 14  2  0
M  END
