
     RDKit          3D

 14 14  0  0  0  0  0  0  0  0999 V2000
    3.1400    2.0340    0.8550 C   0  0  0  0  0  0  0  0  0  0  0  0
    2.9160    0.5450    0.8950 C   0  0  0  0  0  0  0  0  0  0  0  0
    1.7540    0.0660    0.4820 C   0  0  0  0  0  0  0  0  0  0  0  0
    0.7290    0.9750    0.0040 C   0  0  0  0  0  0  0  0  0  0  0  0
   -0.4690    0.5750   -0.4290 C   0  0  0  0  0  0  0  0  0  0  0  0
   -0.7580   -0.8770   -0.4200 C   0  0  0  0  0  0  0  0  0  0  0  0
   -2.1920   -1.0470   -0.8730 C   0  0  0  0  0  0  0  0  0  0  0  0
   -3.1350   -0.4960    0.1660 C   0  0  0  0  0  0  0  0  0  0  0  0
   -3.6490    0.8740   -0.1860 C   0  0  0  0  0  0  0  0  0  0  0  0
   -2.7110    1.6440   -0.9060 O   0  0  0  0  0  0  0  0  0  0  0  0
   -1.3230    1.6730   -0.8550 C   0  0  0  0  0  0  0  0  0  0  0  0
   -0.7450    2.7420   -1.2070 O   0  0  0  0  0  0  0  0  0  0  0  0
    1.5930   -1.3120    0.5370 O   0  0  0  0  0  0  0  0  0  0  0  0
    2.6040   -2.2020    0.1020 C   0  0  0  0  0  0  0  0  0  0  0  0
  1  2  1  0
  2  3  2  3
  3  4  1  0
  3 13  1  0
  4  5  2  3
  5  6  1  0
  5 11  1  0
  6  7  1  0
  7  8  1  0
  8  9  1  0
  9 10  1  0
 10 11  1  0
 11 12  2  0
 13 14  1  0
M  END
