
     RDKit          3D

 14 14  0  0  0  0  0  0  0  0999 V2000
    4.5240   -0.0690   -1.0560 C   0  0  0  0  0  0  0  0  0  0  0  0
    3.5920    0.3040   -0.2010 C   0  0  0  0  0  0  0  0  0  0  0  0
    3.7830    1.4560    0.7030 C   0  0  0  0  0  0  0  0  0  0  0  0
    2.3390   -0.4730   -0.1750 C   0  0  0  0  0  0  0  0  0  0  0  0
    2.1870   -1.4490   -0.9460 O   0  0  0  0  0  0  0  0  0  0  0  0
    1.3040   -0.1880    0.6610 O   0  0  0  0  0  0  0  0  0  0  0  0
    0.0790   -0.7590    0.8450 C   0  0  0  0  0  0  0  0  0  0  0  0
   -0.8920   -0.7410   -0.3100 C   0  0  2  0  0  0  0  0  0  0  0  0
   -0.3150   -1.4410   -1.3580 O   0  0  0  0  0  0  0  0  0  0  0  0
   -1.0770    0.6730   -0.7690 C   0  0  0  0  0  0  0  0  0  0  0  0
   -2.0410    1.4550    0.0830 C   0  0  0  0  0  0  0  0  0  0  0  0
   -3.3900    0.7460   -0.0790 C   0  0  0  0  0  0  0  0  0  0  0  0
   -3.2410   -0.5780    0.5910 C   0  0  0  0  0  0  0  0  0  0  0  0
   -2.1630   -1.4450    0.0480 C   0  0  0  0  0  0  0  0  0  0  0  0
  1  2  2  0
  2  3  1  0
  2  4  1  0
  4  5  2  0
  4  6  1  0
  6  7  1  0
  7  8  1  0
  8  9  1  6
  8 10  1  0
  8 14  1  0
 10 11  1  0
 11 12  1  0
 12 13  1  0
 13 14  1  0
M  END
