
     RDKit          3D

 24 25  0  0  0  0  0  0  0  0999 V2000
    2.0770    2.0060   -0.0160 C   0  0  0  0  0  0  0  0  0  0  0  0
    2.8060    0.9450   -1.2920 S   0  0  0  0  0  0  0  0  0  0  0  0
    3.9420   -0.2110   -0.5670 C   0  0  0  0  0  0  0  0  0  0  0  0
    5.2740   -0.0330   -0.3470 C   0  0  0  0  0  0  0  0  0  0  0  0
    5.7350   -1.1680    0.2110 N   0  0  0  0  0  0  0  0  0  0  0  0
    4.7220   -2.0340    0.3380 N   0  0  0  0  0  0  0  0  0  0  0  0
    3.5960   -1.4690   -0.1360 C   0  0  0  0  0  0  0  0  0  0  0  0
    2.2700   -2.1060   -0.1680 C   0  0  1  0  0  0  0  0  0  0  0  0
    1.1590   -1.2940    0.2910 C   0  0  0  0  0  0  0  0  0  0  0  0
    1.1980   -0.7510    1.4250 O   0  0  0  0  0  0  0  0  0  0  0  0
    0.0090   -1.0870   -0.5000 N   0  0  0  0  0  0  0  0  0  0  0  0
   -1.0530   -0.2860   -0.0050 C   0  0  0  0  0  0  0  0  0  0  0  0
   -0.9380    0.2160    1.1340 O   0  0  0  0  0  0  0  0  0  0  0  0
   -2.2960   -0.0100   -0.7640 C   0  0  0  0  0  0  0  0  0  0  0  0
   -3.2400    0.8380   -0.0380 C   0  0  0  0  0  0  0  0  0  0  0  0
   -4.0490    0.4190    0.9970 C   0  0  0  0  0  0  0  0  0  0  0  0
   -4.1650   -0.9180    1.5990 C   0  0  0  0  0  0  0  0  0  0  0  0
   -4.7690    1.4840    1.4050 N   0  0  0  0  0  0  0  0  0  0  0  0
   -4.4210    2.4680    0.6730 O   0  0  0  0  0  0  0  0  0  0  0  0
   -3.5120    2.1730   -0.2160 C   0  0  0  0  0  0  0  0  0  0  0  0
   -2.9030    3.0950   -1.2090 C   0  0  0  0  0  0  0  0  0  0  0  0
    1.9600   -2.5990   -1.5180 N   0  0  0  0  0  0  0  0  0  0  0  0
    1.7040   -3.7860   -1.6790 O   0  0  0  0  0  0  0  0  0  0  0  0
    1.9810   -1.6590   -2.5270 O   0  0  0  0  0  0  0  0  0  0  0  0
  1  2  1  0
  2  3  1  0
  3  4  1  0
  3  7  2  0
  4  5  2  0
  5  6  1  0
  6  7  1  0
  7  8  1  0
  8  9  1  6
  8 22  1  0
  9 10  2  0
  9 11  1  0
 11 12  1  0
 12 13  2  0
 12 14  1  0
 14 15  1  0
 15 16  1  0
 15 20  2  0
 16 17  1  0
 16 18  2  0
 18 19  1  0
 19 20  1  0
 20 21  1  0
 22 23  2  0
 22 24  1  0
M  CHG  2  22   1  24  -1
M  END
