
     RDKit          3D

 22 23  0  0  0  0  0  0  0  0999 V2000
   -7.6200    1.0180    0.7630 N   0  0  0  0  0  0  0  0  0  0  0  0
   -6.8250    0.0880   -0.0350 C   0  0  1  0  0  0  0  0  0  0  0  0
   -6.5680    0.7020   -1.3350 C   0  0  0  0  0  0  0  0  0  0  0  0
   -5.2750    0.9380   -1.4240 C   0  0  0  0  0  0  0  0  0  0  0  0
   -4.5920    0.5080   -0.2200 C   0  0  0  0  0  0  0  0  0  0  0  0
   -3.1800    0.6120    0.0310 N   0  0  0  0  0  0  0  0  0  0  0  0
   -2.2970   -0.0760   -0.8730 C   0  0  0  0  0  0  0  0  0  0  0  0
   -2.7480   -0.7350   -1.8340 O   0  0  0  0  0  0  0  0  0  0  0  0
   -0.8350   -0.0000   -0.6580 C   0  0  0  0  0  0  0  0  0  0  0  0
   -0.1210   -0.7960   -1.7240 C   0  0  0  0  0  0  0  0  0  0  0  0
    1.2660   -0.7660   -1.5790 O   0  0  0  0  0  0  0  0  0  0  0  0
    1.9650   -1.2100   -0.4900 C   0  0  0  0  0  0  0  0  0  0  0  0
    1.3430   -1.6900    0.4770 O   0  0  0  0  0  0  0  0  0  0  0  0
    3.4320   -1.1260   -0.4520 C   0  0  1  0  0  0  0  0  0  0  0  0
    3.9590    0.2770   -0.6340 C   0  0  0  0  0  0  0  0  0  0  0  0
    5.4700    0.1980   -0.4410 C   0  0  0  0  0  0  0  0  0  0  0  0
    5.8720    0.8110    0.8590 C   0  0  0  0  0  0  0  0  0  0  0  0
    5.0190    0.4060    2.0270 C   0  0  0  0  0  0  0  0  0  0  0  0
    4.4680   -0.9560    1.9200 C   0  0  0  0  0  0  0  0  0  0  0  0
    4.4260   -1.5880    3.0320 O   0  0  0  0  0  0  0  0  0  0  0  0
    3.9890   -1.6420    0.7750 N   0  0  0  0  0  0  0  0  0  0  0  0
   -5.4940    0.0080    0.6010 C   0  0  0  0  0  0  0  0  0  0  0  0
  2  1  1  1
  2  3  1  0
  2 22  1  0
  3  4  2  0
  4  5  1  0
  5  6  1  0
  5 22  2  0
  6  7  1  0
  7  8  2  0
  7  9  1  0
  9 10  1  0
 10 11  1  0
 11 12  1  0
 12 13  2  0
 14 12  1  1
 14 15  1  0
 14 21  1  0
 15 16  1  0
 16 17  1  0
 17 18  1  0
 18 19  1  0
 19 20  2  0
 19 21  1  0
M  END
