
     RDKit          3D

 24 25  0  0  0  0  0  0  0  0999 V2000
   -5.3790    1.5370   -0.7560 C   0  0  0  0  0  0  0  0  0  0  0  0
   -4.8050    0.4260   -0.3540 C   0  0  0  0  0  0  0  0  0  0  0  0
   -3.4370    0.4890   -0.1060 C   0  0  0  0  0  0  0  0  0  0  0  0
   -2.6810   -0.5780    0.3160 C   0  0  0  0  0  0  0  0  0  0  0  0
   -1.2980   -0.5700    0.5860 N   0  0  0  0  0  0  0  0  0  0  0  0
   -0.4180    0.5060    0.5060 C   0  0  0  0  0  0  0  0  0  0  0  0
   -0.8620    1.6460    0.1570 O   0  0  0  0  0  0  0  0  0  0  0  0
    1.0400    0.4110    0.8160 C   0  0  0  0  0  0  0  0  0  0  0  0
    1.9650    0.4860   -0.7230 S   0  0  0  0  0  0  0  0  0  0  0  0
    3.7370    0.3940   -0.3990 C   0  0  0  0  0  0  0  0  0  0  0  0
    4.6120    0.5410   -1.3860 N   0  0  0  0  0  0  0  0  0  0  0  0
    5.9600    0.5050   -1.1850 C   0  0  0  0  0  0  0  0  0  0  0  0
    6.4500    0.3100    0.0910 C   0  0  0  0  0  0  0  0  0  0  0  0
    7.8430    0.2720    0.3860 N   0  0  0  0  0  0  0  0  0  0  0  0
    8.6400    0.9100   -0.3450 O   0  0  0  0  0  0  0  0  0  0  0  0
    8.3150   -0.4490    1.4590 O   0  0  0  0  0  0  0  0  0  0  0  0
    5.5150    0.1600    1.1010 C   0  0  0  0  0  0  0  0  0  0  0  0
    5.9340   -0.0200    2.2820 O   0  0  0  0  0  0  0  0  0  0  0  0
    4.1900    0.2030    0.8500 N   0  0  0  0  0  0  0  0  0  0  0  0
   -3.4090   -1.7640    0.4820 C   0  0  0  0  0  0  0  0  0  0  0  0
   -2.7920   -2.7760    0.8600 O   0  0  0  0  0  0  0  0  0  0  0  0
   -4.7210   -1.8550    0.2530 N   0  0  0  0  0  0  0  0  0  0  0  0
   -5.4440   -0.7680   -0.1680 C   0  0  0  0  0  0  0  0  0  0  0  0
   -6.7250   -0.8870   -0.3790 C   0  0  0  0  0  0  0  0  0  0  0  0
  1  2  2  0
  2  3  1  0
  2 23  1  0
  3  4  2  0
  4  5  1  0
  4 20  1  0
  5  6  1  0
  6  7  2  0
  6  8  1  0
  8  9  1  0
  9 10  1  0
 10 11  2  0
 10 19  1  0
 11 12  1  0
 12 13  2  0
 13 14  1  0
 13 17  1  0
 14 15  2  0
 14 16  1  0
 17 18  2  0
 17 19  1  0
 20 21  2  0
 20 22  1  0
 22 23  1  0
 23 24  2  0
M  CHG  2  14   1  16  -1
M  END
