
     RDKit          3D

 22 23  0  0  0  0  0  0  0  0999 V2000
    4.6040    2.2280    1.1340 C   0  0  0  0  0  0  0  0  0  0  0  0
    3.9280    1.2280    0.6570 C   0  0  0  0  0  0  0  0  0  0  0  0
    2.7980    0.7270    1.3590 O   0  0  0  0  0  0  0  0  0  0  0  0
    2.6070   -0.6550    1.4460 C   0  0  0  0  0  0  0  0  0  0  0  0
    2.6910   -1.3530    0.1290 C   0  0  1  0  0  0  0  0  0  0  0  0
    3.4830   -2.5200    0.2360 O   0  0  0  0  0  0  0  0  0  0  0  0
    1.3030   -1.8220   -0.3050 C   0  0  0  0  0  0  0  0  0  0  0  0
    0.4730   -0.6420   -0.4220 N   0  0  0  0  0  0  0  0  0  0  0  0
   -0.8910   -0.7730   -0.8160 C   0  0  0  0  0  0  0  0  0  0  0  0
   -1.3110   -1.9480   -1.0490 O   0  0  0  0  0  0  0  0  0  0  0  0
   -1.6890    0.3840   -0.9250 N   0  0  0  0  0  0  0  0  0  0  0  0
   -3.0640    0.2740   -1.3160 C   0  0  0  0  0  0  0  0  0  0  0  0
   -3.8020   -0.5590   -0.3240 C   0  0  2  0  0  0  0  0  0  0  0  0
   -5.2830   -0.7050   -0.6980 C   0  0  0  0  0  0  0  0  0  0  0  0
   -6.0600   -0.4960    0.5850 C   0  0  0  0  0  0  0  0  0  0  0  0
   -5.8230    0.9560    0.9970 C   0  0  0  0  0  0  0  0  0  0  0  0
   -4.4820    1.2040    1.1760 O   0  0  0  0  0  0  0  0  0  0  0  0
   -3.6830    0.0900    1.0420 C   0  0  0  0  0  0  0  0  0  0  0  0
    3.3070   -0.5410   -0.8870 N   0  0  0  0  0  0  0  0  0  0  0  0
    4.2350    0.5570   -0.5760 C   0  0  0  0  0  0  0  0  0  0  0  0
    5.1930    0.8110   -1.3970 C   0  0  0  0  0  0  0  0  0  0  0  0
    6.2320    1.8190   -1.3390 C   0  0  0  0  0  0  0  0  0  0  0  0
  1  2  2  0
  2  3  1  0
  2 20  1  0
  3  4  1  0
  4  5  1  0
  5  6  1  1
  5  7  1  0
  5 19  1  0
  7  8  1  0
  8  9  1  0
  9 10  2  0
  9 11  1  0
 11 12  1  0
 13 12  1  6
 13 14  1  0
 13 18  1  0
 14 15  1  0
 15 16  1  0
 16 17  1  0
 17 18  1  0
 19 20  1  0
 20 21  2  3
 21 22  1  0
M  END
