
     RDKit          3D

 23 23  0  0  0  0  0  0  0  0999 V2000
   -5.2780   -1.7120    0.9170 C   0  0  0  0  0  0  0  0  0  0  0  0
   -3.9750   -1.0850    1.3320 C   0  0  0  0  0  0  0  0  0  0  0  0
   -3.1150   -0.9020    0.0760 C   0  0  0  0  0  0  0  0  0  0  0  0
   -1.8330   -0.2820    0.4980 C   0  0  0  0  0  0  0  0  0  0  0  0
   -0.9290   -0.0740   -0.6890 C   0  0  0  0  0  0  0  0  0  0  0  0
   -1.3760    0.8730   -1.6900 C   0  0  0  0  0  0  0  0  0  0  0  0
   -0.7470    1.1880   -2.7320 O   0  0  0  0  0  0  0  0  0  0  0  0
   -2.6120    1.5480   -1.5590 O   0  0  0  0  0  0  0  0  0  0  0  0
   -3.0340    2.4620   -2.5280 C   0  0  0  0  0  0  0  0  0  0  0  0
   -4.3830    3.0030   -2.0950 C   0  0  0  0  0  0  0  0  0  0  0  0
    0.1830   -0.7210   -0.7380 C   0  0  0  0  0  0  0  0  0  0  0  0
    1.1260   -0.6430   -1.7610 N   0  0  0  0  0  0  0  0  0  0  0  0
    2.5060   -0.9750   -1.6070 C   0  0  0  0  0  0  0  0  0  0  0  0
    3.2890   -0.8670   -2.6130 O   0  0  0  0  0  0  0  0  0  0  0  0
    3.0950   -1.4240   -0.4100 N   0  0  0  0  0  0  0  0  0  0  0  0
    2.3960   -1.6060    0.8020 C   0  0  0  0  0  0  0  0  0  0  0  0
    2.9150   -1.6260    1.9520 N   0  0  0  0  0  0  0  0  0  0  0  0
    4.3100   -1.4510    2.0480 N   0  0  0  0  0  0  0  0  0  0  0  0
    4.9540   -0.2480    1.6790 C   0  0  0  0  0  0  0  0  0  0  0  0
    4.2410    0.6900    1.2530 O   0  0  0  0  0  0  0  0  0  0  0  0
    6.3700   -0.0700    1.7760 N   0  0  0  0  0  0  0  0  0  0  0  0
    6.9520    1.1990    1.3770 C   0  0  0  0  0  0  0  0  0  0  0  0
    0.6060   -1.8250    0.6410 S   0  0  0  0  0  0  0  0  0  0  0  0
  1  2  1  0
  2  3  1  0
  3  4  1  0
  4  5  1  0
  5  6  1  0
  5 11  2  3
  6  7  2  0
  6  8  1  0
  8  9  1  0
  9 10  1  0
 11 12  1  0
 11 23  1  0
 12 13  1  0
 13 14  2  0
 13 15  1  0
 15 16  1  0
 16 17  2  3
 16 23  1  0
 17 18  1  0
 18 19  1  0
 19 20  2  0
 19 21  1  0
 21 22  1  0
M  END
