
     RDKit          3D

 24 25  0  0  0  0  0  0  0  0999 V2000
    6.6370    1.0260    0.5830 C   0  0  0  0  0  0  0  0  0  0  0  0
    5.2520    0.5680    0.8570 C   0  0  0  0  0  0  0  0  0  0  0  0
    4.5100    0.7270    1.9430 O   0  0  0  0  0  0  0  0  0  0  0  0
    3.3280    0.1880    1.7760 N   0  0  0  0  0  0  0  0  0  0  0  0
    3.2680   -0.3410    0.5580 C   0  0  0  0  0  0  0  0  0  0  0  0
    2.1170   -1.0990   -0.1060 C   0  0  0  0  0  0  0  0  0  0  0  0
    1.0770   -0.1620   -0.0630 N   0  0  0  0  0  0  0  0  0  0  0  0
   -0.4370   -0.0230   -0.4770 S   0  0  2  0  0  0  0  0  0  0  0  0
   -0.6490   -0.1610   -2.0380 O   0  0  0  0  0  0  0  0  0  0  0  0
   -0.8660    1.4610   -0.2870 O   0  0  0  0  0  0  0  0  0  0  0  0
   -1.6830   -0.9610    0.2570 C   0  0  0  0  0  0  0  0  0  0  0  0
   -1.4450   -1.9270    1.2290 C   0  0  0  0  0  0  0  0  0  0  0  0
   -2.5190   -2.5170    1.8410 C   0  0  0  0  0  0  0  0  0  0  0  0
   -3.7930   -2.1910    1.5280 C   0  0  0  0  0  0  0  0  0  0  0  0
   -4.0120   -1.2570    0.5880 N   0  0  0  0  0  0  0  0  0  0  0  0
   -3.0280   -0.6390   -0.0510 C   0  0  0  0  0  0  0  0  0  0  0  0
   -3.1990    0.1980   -0.9190 N   0  0  0  0  0  0  0  0  0  0  0  0
   -4.0440    0.9430   -1.6870 C   0  0  0  0  0  0  0  0  0  0  0  0
   -4.4990    2.2670   -1.0960 C   0  0  0  0  0  0  0  0  0  0  0  0
   -5.4670    2.2610   -0.0580 N   0  0  0  0  0  0  0  0  0  0  0  0
   -6.2280    1.3440    0.1920 O   0  0  0  0  0  0  0  0  0  0  0  0
   -5.6190    3.3690    0.7990 O   0  0  0  0  0  0  0  0  0  0  0  0
    4.4660   -0.1330   -0.0610 C   0  0  0  0  0  0  0  0  0  0  0  0
    4.7670   -0.4530   -1.4570 C   0  0  0  0  0  0  0  0  0  0  0  0
  1  2  1  0
  2  3  1  0
  2 23  2  0
  3  4  1  0
  4  5  2  0
  5  6  1  0
  5 23  1  0
  6  7  1  0
  8  7  1  6
  8  9  2  0
  8 10  2  0
  8 11  1  0
 11 12  2  0
 11 16  1  0
 12 13  1  0
 13 14  2  0
 14 15  1  0
 15 16  1  0
 16 17  2  3
 17 18  1  0
 18 19  1  0
 19 20  1  0
 20 21  2  0
 20 22  1  0
 23 24  1  0
M  CHG  2  20   1  22  -1
M  END
