
     RDKit          3D

 24 25  0  0  0  0  0  0  0  0999 V2000
   -7.5840   -1.3060   -1.8810 C   0  0  0  0  0  0  0  0  0  0  0  0
   -6.5410   -0.1560   -1.0200 S   0  0  2  0  0  0  0  0  0  0  0  0
   -7.1210    0.1980    0.3220 O   0  0  0  0  0  0  0  0  0  0  0  0
   -6.5110    1.1280   -1.8250 O   0  0  0  0  0  0  0  0  0  0  0  0
   -4.8870   -0.7850   -0.8560 C   0  0  0  0  0  0  0  0  0  0  0  0
   -4.0290    0.2210   -0.1180 C   0  0  0  0  0  0  0  0  0  0  0  0
   -2.6700   -0.2510    0.0380 N   0  0  0  0  0  0  0  0  0  0  0  0
   -1.7580    0.5990    0.7150 C   0  0  0  0  0  0  0  0  0  0  0  0
   -2.1090    1.7150    1.1620 O   0  0  0  0  0  0  0  0  0  0  0  0
   -0.3580    0.1530    0.8950 C   0  0  0  0  0  0  0  0  0  0  0  0
    0.3900    1.2400    1.6420 C   0  0  0  0  0  0  0  0  0  0  0  0
    1.7640    0.8730    1.8430 N   0  0  0  0  0  0  0  0  0  0  0  0
    2.6540    0.7910    0.7710 C   0  0  0  0  0  0  0  0  0  0  0  0
    2.3740    1.2910   -0.4700 C   0  0  0  0  0  0  0  0  0  0  0  0
    3.3080    1.1600   -1.5050 C   0  0  0  0  0  0  0  0  0  0  0  0
    4.4820    0.5480   -1.2960 N   0  0  0  0  0  0  0  0  0  0  0  0
    4.8040    0.0420   -0.0960 C   0  0  0  0  0  0  0  0  0  0  0  0
    6.0990   -0.6240    0.1080 C   0  0  0  0  0  0  0  0  0  0  0  0
    6.5150   -1.1620    1.2670 N   0  0  0  0  0  0  0  0  0  0  0  0
    7.7540   -1.6550    0.9760 C   0  0  0  0  0  0  0  0  0  0  0  0
    8.5180   -2.3010    1.9490 O   0  0  0  0  0  0  0  0  0  0  0  0
    8.0530   -1.4150   -0.3080 N   0  0  0  0  0  0  0  0  0  0  0  0
    7.0220   -0.7860   -0.8030 O   0  0  0  0  0  0  0  0  0  0  0  0
    3.8890    0.1670    0.9270 C   0  0  0  0  0  0  0  0  0  0  0  0
  2  1  1  6
  2  3  2  0
  2  4  2  0
  2  5  1  0
  5  6  1  0
  6  7  1  0
  7  8  1  0
  8  9  2  0
  8 10  1  0
 10 11  1  0
 11 12  1  0
 12 13  1  0
 13 14  2  0
 13 24  1  0
 14 15  1  0
 15 16  2  0
 16 17  1  0
 17 18  1  0
 17 24  2  0
 18 19  2  0
 18 23  1  0
 19 20  1  0
 20 21  1  0
 20 22  2  0
 22 23  1  0
M  CHG  2  21  -1  22   1
M  END
