
     RDKit          3D

 22 22  0  0  0  0  0  0  0  0999 V2000
    3.0700   -1.6000    0.3620 O   0  0  0  0  0  0  0  0  0  0  0  0
    2.6630   -0.4590   -0.0260 C   0  0  0  0  0  0  0  0  0  0  0  0
    3.6290    0.5340   -0.1130 O   0  0  0  0  0  0  0  0  0  0  0  0
    4.9890    0.3010    0.2070 C   0  0  0  0  0  0  0  0  0  0  0  0
    5.7280    1.6240   -0.0130 C   0  0  0  0  0  0  0  0  0  0  0  0
    7.0690    1.3720    0.3090 O   0  0  0  0  0  0  0  0  0  0  0  0
    1.2290   -0.2260   -0.3610 C   0  0  1  0  0  0  0  0  0  0  0  0
    1.0900    1.0830   -0.7440 O   0  0  0  0  0  0  0  0  0  0  0  0
    0.8220   -1.1550   -1.2740 O   0  0  0  0  0  0  0  0  0  0  0  0
   -0.5720   -1.3670   -1.1070 C   0  0  1  0  0  0  0  0  0  0  0  0
   -0.7130   -2.7710   -1.2370 O   0  0  0  0  0  0  0  0  0  0  0  0
   -0.9220   -0.8580    0.2370 C   0  0  2  0  0  0  0  0  0  0  0  0
   -1.4940   -1.9040    1.0210 O   0  0  0  0  0  0  0  0  0  0  0  0
   -1.8670    0.2820    0.2320 C   0  0  2  0  0  0  0  0  0  0  0  0
   -2.0700    0.7880    1.6710 C   0  0  0  0  0  0  0  0  0  0  0  0
   -3.0050    1.9460    1.6690 C   0  0  0  0  0  0  0  0  0  0  0  0
   -2.5350    2.9820    0.8450 O   0  0  0  0  0  0  0  0  0  0  0  0
   -3.2410   -0.1180   -0.2030 C   0  0  0  0  0  0  0  0  0  0  0  0
   -3.4600   -0.7310   -1.5300 C   0  0  0  0  0  0  0  0  0  0  0  0
   -4.8960   -0.9030   -1.6060 O   0  0  0  0  0  0  0  0  0  0  0  0
    0.4140   -0.5930    0.8540 C   0  0  1  0  0  0  0  0  0  0  0  0
    0.9240   -1.8410    1.2860 O   0  0  0  0  0  0  0  0  0  0  0  0
  1  2  2  0
  2  3  1  0
  2  7  1  0
  3  4  1  0
  4  5  1  0
  5  6  1  0
  7  8  1  6
  7  9  1  0
  7 21  1  0
  9 10  1  0
 10 11  1  1
 10 12  1  0
 12 13  1  1
 12 14  1  0
 12 21  1  0
 14 15  1  1
 14 18  1  0
 15 16  1  0
 16 17  1  0
 18 19  1  0
 19 20  1  0
 21 22  1  6
M  END
