
     RDKit          3D

 22 22  0  0  0  0  0  0  0  0999 V2000
    6.0940    1.3290   -0.6840 C   0  0  0  0  0  0  0  0  0  0  0  0
    4.8190    1.1360   -0.1140 O   0  0  0  0  0  0  0  0  0  0  0  0
    3.7240    0.6880   -0.8540 C   0  0  0  0  0  0  0  0  0  0  0  0
    3.9170    0.4600   -2.0580 O   0  0  0  0  0  0  0  0  0  0  0  0
    2.4400    0.5210   -0.1620 C   0  0  1  0  0  0  0  0  0  0  0  0
    2.5390    0.8550    1.1830 O   0  0  0  0  0  0  0  0  0  0  0  0
    1.3820    1.3900   -0.8560 C   0  0  0  0  0  0  0  0  0  0  0  0
    0.2720    1.3150   -0.0530 O   0  0  0  0  0  0  0  0  0  0  0  0
   -0.1740    0.0490    0.2000 C   0  0  1  0  0  0  0  0  0  0  0  0
   -0.5340   -0.0400    1.5430 O   0  0  0  0  0  0  0  0  0  0  0  0
   -1.5680   -0.0370   -0.5570 C   0  0  1  0  0  0  0  0  0  0  0  0
   -2.0170   -1.4310   -0.2540 C   0  0  0  0  0  0  0  0  0  0  0  0
   -3.1990   -1.7370   -0.8360 O   0  0  0  0  0  0  0  0  0  0  0  0
   -2.3730    1.0530    0.0550 C   0  0  0  0  0  0  0  0  0  0  0  0
   -3.5840    1.3820   -0.2900 O   0  0  0  0  0  0  0  0  0  0  0  0
   -4.7150    0.7100   -0.2980 C   0  0  0  0  0  0  0  0  0  0  0  0
   -5.1330    0.0860    1.0230 C   0  0  0  0  0  0  0  0  0  0  0  0
   -6.3570   -0.5700    0.7630 O   0  0  0  0  0  0  0  0  0  0  0  0
    0.5520   -0.9790   -0.2810 O   0  0  0  0  0  0  0  0  0  0  0  0
    1.9060   -0.8890   -0.2460 C   0  0  2  0  0  0  0  0  0  0  0  0
    2.5520   -1.7650    0.8240 C   0  0  0  0  0  0  0  0  0  0  0  0
    2.2300   -3.0970    0.5850 O   0  0  0  0  0  0  0  0  0  0  0  0
  1  2  1  0
  2  3  1  0
  3  4  2  0
  3  5  1  0
  5  6  1  1
  5  7  1  0
  5 20  1  0
  7  8  1  0
  8  9  1  0
  9 10  1  1
  9 11  1  0
  9 19  1  0
 11 12  1  1
 11 14  1  0
 12 13  1  0
 14 15  1  0
 15 16  1  0
 16 17  1  0
 17 18  1  0
 19 20  1  0
 20 21  1  1
 21 22  1  0
M  END
