
     RDKit          3D

 22 22  0  0  0  0  0  0  0  0999 V2000
   -3.0250    2.9420    0.2590 C   0  0  0  0  0  0  0  0  0  0  0  0
   -2.5870    1.5800    0.3470 O   0  0  0  0  0  0  0  0  0  0  0  0
   -2.8850    0.6520   -0.6430 C   0  0  0  0  0  0  0  0  0  0  0  0
   -3.5580    1.0920   -1.6100 O   0  0  0  0  0  0  0  0  0  0  0  0
   -2.4370   -0.7360   -0.5520 C   0  0  2  0  0  0  0  0  0  0  0  0
   -2.9160   -1.4560    0.6530 C   0  0  0  0  0  0  0  0  0  0  0  0
   -3.5630   -2.5340    0.6090 O   0  0  0  0  0  0  0  0  0  0  0  0
   -2.6600   -0.9520    1.9190 O   0  0  0  0  0  0  0  0  0  0  0  0
   -0.9950   -0.9880   -0.7850 C   0  0  1  0  0  0  0  0  0  0  0  0
   -0.7010   -2.4680   -0.6450 C   0  0  0  0  0  0  0  0  0  0  0  0
   -0.6890   -0.7110   -2.1510 O   0  0  0  0  0  0  0  0  0  0  0  0
   -0.0030   -0.2240    0.0020 C   0  0  1  0  0  0  0  0  0  0  0  0
   -0.1840   -0.4100    1.3660 O   0  0  0  0  0  0  0  0  0  0  0  0
    1.3680   -0.7950   -0.3190 C   0  0  0  0  0  0  0  0  0  0  0  0
    2.4880    0.1180    0.0170 C   0  0  2  0  0  0  0  0  0  0  0  0
    3.5880   -0.2170   -0.8090 O   0  0  0  0  0  0  0  0  0  0  0  0
    2.9970   -0.1060    1.4470 C   0  0  2  0  0  0  0  0  0  0  0  0
    4.0940    0.7230    1.6750 O   0  0  0  0  0  0  0  0  0  0  0  0
    3.4040   -1.4150    1.6150 O   0  0  0  0  0  0  0  0  0  0  0  0
    2.2080    1.5710   -0.2210 C   0  0  0  0  0  0  0  0  0  0  0  0
    0.8560    1.8770    0.4000 C   0  0  0  0  0  0  0  0  0  0  0  0
   -0.0800    1.1290   -0.2910 O   0  0  0  0  0  0  0  0  0  0  0  0
  1  2  1  0
  2  3  1  0
  3  4  2  0
  5  3  1  1
  5  6  1  0
  5  9  1  0
  6  7  2  0
  6  8  1  0
  9 10  1  6
  9 11  1  0
  9 12  1  0
 12 13  1  1
 12 14  1  0
 12 22  1  0
 14 15  1  0
 15 16  1  6
 15 17  1  0
 15 20  1  0
 17 18  1  6
 17 19  1  0
 20 21  1  0
 21 22  1  0
M  END
