
     RDKit          3D

 22 22  0  0  0  0  0  0  0  0999 V2000
   -1.8980    2.6320    0.5510 O   0  0  0  0  0  0  0  0  0  0  0  0
   -2.9120    2.0810    0.0390 C   0  0  0  0  0  0  0  0  0  0  0  0
   -3.5210    2.7480   -1.0130 O   0  0  0  0  0  0  0  0  0  0  0  0
   -3.4540    0.8060    0.4930 C   0  0  0  0  0  0  0  0  0  0  0  0
   -2.7050   -0.4200    0.0660 C   0  0  1  0  0  0  0  0  0  0  0  0
   -1.4450   -0.3360    0.5470 O   0  0  0  0  0  0  0  0  0  0  0  0
   -0.3890   -0.5470   -0.2580 C   0  0  1  0  0  0  0  0  0  0  0  0
   -0.5070   -1.8670   -0.7350 O   0  0  0  0  0  0  0  0  0  0  0  0
   -0.0940    0.4110   -1.3500 C   0  0  0  0  0  0  0  0  0  0  0  0
    1.1900    0.0810   -2.0450 C   0  0  0  0  0  0  0  0  0  0  0  0
    2.1930   -0.4400   -1.3310 O   0  0  0  0  0  0  0  0  0  0  0  0
    2.1080   -0.6450    0.0070 C   0  0  1  0  0  0  0  0  0  0  0  0
    2.6160   -2.1010    0.2950 C   0  0  0  0  0  0  0  0  0  0  0  0
    3.9220   -2.2280   -0.1350 O   0  0  0  0  0  0  0  0  0  0  0  0
    3.1490    0.2180    0.6810 C   0  0  0  0  0  0  0  0  0  0  0  0
    2.9860    1.6800    0.3810 C   0  0  1  0  0  0  0  0  0  0  0  0
    1.8050    2.2540    0.7670 O   0  0  0  0  0  0  0  0  0  0  0  0
    4.0850    2.3980    0.9260 O   0  0  0  0  0  0  0  0  0  0  0  0
    0.8230   -0.5220    0.6900 C   0  0  0  0  0  0  0  0  0  0  0  0
   -3.5110   -1.5740    0.6670 C   0  0  2  0  0  0  0  0  0  0  0  0
   -4.7680   -1.5080    0.0660 O   0  0  0  0  0  0  0  0  0  0  0  0
   -3.6750   -1.4700    2.0210 O   0  0  0  0  0  0  0  0  0  0  0  0
  1  2  2  0
  2  3  1  0
  2  4  1  0
  5  4  1  1
  5  6  1  0
  5 20  1  0
  6  7  1  0
  7  8  1  6
  7  9  1  0
  7 19  1  0
  9 10  1  0
 10 11  1  0
 11 12  1  0
 12 13  1  6
 12 15  1  0
 12 19  1  0
 13 14  1  0
 15 16  1  0
 16 17  1  1
 16 18  1  0
 20 21  1  6
 20 22  1  0
M  END
