
     RDKit          3D

 23 24  0  0  0  0  0  0  0  0999 V2000
    2.9370   -1.8400   -2.6430 O   0  0  0  0  0  0  0  0  0  0  0  0
    2.5220   -0.6800   -1.9710 C   0  0  0  0  0  0  0  0  0  0  0  0
    1.7690   -1.0510   -0.6970 C   0  0  1  0  0  0  0  0  0  0  0  0
    2.5560   -1.7830    0.1680 O   0  0  0  0  0  0  0  0  0  0  0  0
    3.6600   -1.1010    0.6490 C   0  0  2  0  0  0  0  0  0  0  0  0
    4.1180   -1.8180    1.7560 O   0  0  0  0  0  0  0  0  0  0  0  0
    3.3850    0.2960    1.0680 C   0  0  2  0  0  0  0  0  0  0  0  0
    3.9910    0.5460    2.2920 O   0  0  0  0  0  0  0  0  0  0  0  0
    1.9270    0.6750    1.1090 C   0  0  1  0  0  0  0  0  0  0  0  0
    1.8680    2.0690    1.2050 O   0  0  0  0  0  0  0  0  0  0  0  0
    1.1580    0.1630   -0.0810 C   0  0  2  0  0  0  0  0  0  0  0  0
   -0.1740   -0.0890    0.2080 O   0  0  0  0  0  0  0  0  0  0  0  0
   -1.0550    0.6950   -0.5130 C   0  0  2  0  0  0  0  0  0  0  0  0
   -1.6990    1.5370    0.3750 O   0  0  0  0  0  0  0  0  0  0  0  0
   -2.8290    0.9860    0.9450 C   0  0  2  0  0  0  0  0  0  0  0  0
   -2.4960   -0.1560    1.9040 C   0  0  0  0  0  0  0  0  0  0  0  0
   -1.6860    0.2910    2.9410 O   0  0  0  0  0  0  0  0  0  0  0  0
   -3.8820    0.5870   -0.0420 C   0  0  2  0  0  0  0  0  0  0  0  0
   -4.3420   -0.7030    0.1830 O   0  0  0  0  0  0  0  0  0  0  0  0
   -3.2970    0.6660   -1.4240 C   0  0  2  0  0  0  0  0  0  0  0  0
   -4.1530    0.1660   -2.3990 O   0  0  0  0  0  0  0  0  0  0  0  0
   -1.9770   -0.0810   -1.3950 C   0  0  1  0  0  0  0  0  0  0  0  0
   -1.5300   -0.1020   -2.7360 O   0  0  0  0  0  0  0  0  0  0  0  0
  1  2  1  0
  3  2  1  6
  3  4  1  0
  3 11  1  0
  4  5  1  0
  5  6  1  1
  5  7  1  0
  7  8  1  1
  7  9  1  0
  9 10  1  6
  9 11  1  0
 11 12  1  1
 13 12  1  1
 13 14  1  0
 13 22  1  0
 14 15  1  0
 15 16  1  6
 15 18  1  0
 16 17  1  0
 18 19  1  1
 18 20  1  0
 20 21  1  6
 20 22  1  0
 22 23  1  6
M  END
