
     RDKit          3D

 25 27  0  0  0  0  0  0  0  0999 V2000
   -3.6710    1.9110    0.3180 C   0  0  0  0  0  0  0  0  0  0  0  0
   -2.4540    1.0430    0.6760 C   0  0  2  0  0  0  0  0  0  0  0  0
   -1.3780    1.9300    1.1800 C   0  0  0  0  0  0  0  0  0  0  0  0
   -0.3800    2.3930    0.1960 C   0  0  0  0  0  0  0  0  0  0  0  0
   -0.8040    3.1910   -0.7920 C   0  0  0  0  0  0  0  0  0  0  0  0
    0.0400    3.7460   -1.8550 C   0  0  0  0  0  0  0  0  0  0  0  0
    1.3920    3.3930   -1.7210 O   0  0  0  0  0  0  0  0  0  0  0  0
    1.8720    2.5750   -0.7210 C   0  0  0  0  0  0  0  0  0  0  0  0
    1.0440    2.0810    0.2110 C   0  0  0  0  0  0  0  0  0  0  0  0
    1.7100    1.2190    1.2130 C   0  0  0  0  0  0  0  0  0  0  0  0
    2.2620   -0.0630    0.7510 C   0  0  2  0  0  0  0  0  0  0  0  0
    3.8020    0.0280    0.8060 C   0  0  0  0  0  0  0  0  0  0  0  0
    4.3770   -1.3680    1.0140 C   0  0  0  0  0  0  0  0  0  0  0  0
    3.5960   -2.3310    0.1880 C   0  0  0  0  0  0  0  0  0  0  0  0
    2.8430   -1.7270   -0.9420 C   0  0  0  0  0  0  0  0  0  0  0  0
    1.9340   -0.5820   -0.5750 C   0  0  1  0  0  0  0  0  0  0  0  0
    0.5890   -1.0060   -0.8450 N   0  0  0  0  0  0  0  0  0  0  0  0
    0.0340   -1.9880    0.0050 C   0  0  0  0  0  0  0  0  0  0  0  0
   -1.2640   -1.6970    0.6610 C   0  0  2  0  0  0  0  0  0  0  0  0
   -1.7610   -2.9290    1.1550 O   0  0  0  0  0  0  0  0  0  0  0  0
   -2.3410   -1.1140   -0.1800 C   0  0  2  0  0  0  0  0  0  0  0  0
   -3.6570   -1.4310    0.5530 C   0  0  0  0  0  0  0  0  0  0  0  0
   -2.5030   -1.7640   -1.5370 C   0  0  0  0  0  0  0  0  0  0  0  0
   -3.6610   -1.1870   -2.1170 O   0  0  0  0  0  0  0  0  0  0  0  0
   -2.1860    0.2550   -0.3970 O   0  0  0  0  0  0  0  0  0  0  0  0
  2  1  1  6
  2  3  1  0
  2 25  1  0
  3  4  1  0
  4  5  2  0
  4  9  1  0
  5  6  1  0
  6  7  1  0
  7  8  1  0
  8  9  2  0
  9 10  1  0
 11 10  1  6
 11 12  1  0
 11 16  1  0
 12 13  1  0
 13 14  1  0
 14 15  1  0
 16 15  1  1
 16 17  1  0
 17 18  1  0
 18 19  1  0
 19 20  1  6
 19 21  1  0
 21 22  1  1
 21 23  1  0
 21 25  1  0
 23 24  1  0
M  CHG  1  17   1
M  END
