
     RDKit          3D

 19 20  0  0  0  0  0  0  0  0999 V2000
   -5.4120   -0.0830    0.8820 C   0  0  0  0  0  0  0  0  0  0  0  0
   -3.9340    0.9670    0.7870 S   0  0  0  0  0  0  0  0  0  0  0  0
   -3.8320    2.2470    1.4430 O   0  0  0  0  0  0  0  0  0  0  0  0
   -2.4970   -0.2690    1.1520 C   0  0  0  0  0  0  0  0  0  0  0  0
   -1.6750    0.1700   -0.0440 C   0  0  1  0  0  0  0  0  0  0  0  0
   -0.4710   -0.5500   -0.1360 N   0  0  0  0  0  0  0  0  0  0  0  0
    0.7740    0.1230   -0.0380 C   0  0  0  0  0  0  0  0  0  0  0  0
    0.8320    1.3880    0.1350 O   0  0  0  0  0  0  0  0  0  0  0  0
    2.0250   -0.5530   -0.1240 N   0  0  0  0  0  0  0  0  0  0  0  0
    3.2700    0.1910   -0.0160 C   0  0  1  0  0  0  0  0  0  0  0  0
    4.0550   -0.2530    1.2130 C   0  0  0  0  0  0  0  0  0  0  0  0
    5.2750    0.6760    1.1030 C   0  0  0  0  0  0  0  0  0  0  0  0
    5.8000    0.1180   -0.5080 S   0  0  1  0  0  0  0  0  0  0  0  0
    6.6100    1.1010   -1.2300 O   0  0  0  0  0  0  0  0  0  0  0  0
    6.4030   -1.2330   -0.3820 O   0  0  0  0  0  0  0  0  0  0  0  0
    4.1470   -0.0500   -1.2020 C   0  0  0  0  0  0  0  0  0  0  0  0
   -2.5760   -0.0100   -1.2420 C   0  0  0  0  0  0  0  0  0  0  0  0
   -3.6380    1.0590   -1.1850 C   0  0  1  0  0  0  0  0  0  0  0  0
   -5.1800    0.6820   -1.8970 S   0  0  0  0  0  0  0  0  0  0  0  0
  1  2  1  0
  2  3  2  0
  2  4  1  0
  2 18  1  0
  4  5  1  0
  5  6  1  6
  5 17  1  0
  6  7  1  0
  7  8  2  0
  7  9  1  0
 10  9  1  6
 10 11  1  0
 10 16  1  0
 11 12  1  0
 13 12  1  1
 13 14  2  0
 13 15  2  0
 13 16  1  0
 17 18  1  0
 18 19  1  6
M  END
