
     RDKit          3D

 25 26  0  0  0  0  0  0  0  0999 V2000
    5.9540   -0.7280   -0.9340 C   0  0  0  0  0  0  0  0  0  0  0  0
    4.9340   -0.0800   -0.4640 C   0  0  0  0  0  0  0  0  0  0  0  0
    4.9750    0.8170    0.7560 C   0  0  0  0  0  0  0  0  0  0  0  0
    3.7150    0.2690    1.4400 C   0  0  1  0  0  0  0  0  0  0  0  0
    3.3170    1.1130    2.5440 N   0  0  0  0  0  0  0  0  0  0  0  0
    2.7210    0.2900    0.3130 C   0  0  2  0  0  0  0  0  0  0  0  0
    1.7100   -0.6150    0.5370 O   0  0  0  0  0  0  0  0  0  0  0  0
    0.4380   -0.0660    0.6260 C   0  0  2  0  0  0  0  0  0  0  0  0
   -0.1900   -0.3020    1.9800 C   0  0  0  0  0  0  0  0  0  0  0  0
   -1.5640   -0.0970    1.9140 O   0  0  0  0  0  0  0  0  0  0  0  0
   -1.9460    1.2140    2.1260 C   0  0  0  0  0  0  0  0  0  0  0  0
   -3.4100    1.2480    2.4420 C   0  0  0  0  0  0  0  0  0  0  0  0
   -4.2510    1.6990    1.4450 O   0  0  0  0  0  0  0  0  0  0  0  0
   -4.1620    1.6790    0.0920 C   0  0  0  0  0  0  0  0  0  0  0  0
   -4.1830    2.9610   -0.7180 C   0  0  0  0  0  0  0  0  0  0  0  0
   -4.0510    0.5760   -0.6400 C   0  0  0  0  0  0  0  0  0  0  0  0
   -4.0090   -0.8050   -0.0970 C   0  0  0  0  0  0  0  0  0  0  0  0
   -2.6190   -1.4070   -0.3570 C   0  0  1  0  0  0  0  0  0  0  0  0
   -2.5850   -2.0580   -1.7290 C   0  0  0  0  0  0  0  0  0  0  0  0
   -3.6370   -3.1470   -1.7460 C   0  0  0  0  0  0  0  0  0  0  0  0
   -1.7190   -0.3870   -0.2130 O   0  0  0  0  0  0  0  0  0  0  0  0
   -0.4080   -0.6770   -0.4670 C   0  0  0  0  0  0  0  0  0  0  0  0
    3.5550   -0.0090   -0.8900 C   0  0  0  0  0  0  0  0  0  0  0  0
    3.1270   -0.1600   -2.1270 C   0  0  0  0  0  0  0  0  0  0  0  0
    4.0320   -0.4230   -3.2410 C   0  0  0  0  0  0  0  0  0  0  0  0
  1  2  2  0
  2  3  1  0
  2 23  1  0
  3  4  1  0
  4  5  1  1
  4  6  1  0
  6  7  1  1
  6 23  1  0
  8  7  1  1
  8  9  1  0
  8 22  1  0
  9 10  1  0
 10 11  1  0
 11 12  1  0
 12 13  1  0
 13 14  1  0
 14 15  1  0
 14 16  2  0
 16 17  1  0
 17 18  1  0
 18 19  1  6
 18 21  1  0
 19 20  1  0
 21 22  1  0
 23 24  2  3
 24 25  1  0
M  CHG  1   5   1
M  END
