
     RDKit          3D

 23 25  0  0  0  0  0  0  0  0999 V2000
    4.6640    2.0780    0.5740 C   0  0  0  0  0  0  0  0  0  0  0  0
    4.7700    0.8420   -0.3000 C   0  0  2  0  0  0  0  0  0  0  0  0
    5.9330    0.0300    0.2140 C   0  0  0  0  0  0  0  0  0  0  0  0
    5.0480    1.2420   -1.5860 O   0  0  0  0  0  0  0  0  0  0  0  0
    3.5020    0.1210   -0.1830 C   0  0  0  0  0  0  0  0  0  0  0  0
    2.4580   -0.4580   -0.0720 C   0  0  0  0  0  0  0  0  0  0  0  0
    1.2000   -1.1380    0.0710 C   0  0  0  0  0  0  0  0  0  0  0  0
    1.1470   -2.5100    0.2480 C   0  0  0  0  0  0  0  0  0  0  0  0
   -0.0470   -3.1800    0.3860 C   0  0  0  0  0  0  0  0  0  0  0  0
   -1.1980   -2.4200    0.3410 C   0  0  0  0  0  0  0  0  0  0  0  0
   -1.1750   -1.0480    0.1650 C   0  0  0  0  0  0  0  0  0  0  0  0
    0.0420   -0.3880    0.0270 C   0  0  0  0  0  0  0  0  0  0  0  0
   -2.3110   -0.1220    0.0980 C   0  0  0  0  0  0  0  0  0  0  0  0
   -2.2280    1.1690   -0.2720 N   0  0  0  0  0  0  0  0  0  0  0  0
   -3.4590    1.7030   -0.2150 C   0  0  0  0  0  0  0  0  0  0  0  0
   -3.8310    3.0750   -0.5330 C   0  0  0  0  0  0  0  0  0  0  0  0
   -2.8850    4.0350   -0.9550 N   0  0  0  0  0  0  0  0  0  0  0  0
   -5.0250    3.4580   -0.4400 O   0  0  0  0  0  0  0  0  0  0  0  0
   -4.3380    0.7270    0.2000 C   0  0  0  0  0  0  0  0  0  0  0  0
   -3.5990   -0.3820    0.3830 N   0  0  0  0  0  0  0  0  0  0  0  0
   -4.1820   -1.6260    0.8240 C   0  0  0  0  0  0  0  0  0  0  0  0
   -3.6820   -2.8210    0.0570 C   0  0  0  0  0  0  0  0  0  0  0  0
   -2.3710   -3.1860    0.4910 O   0  0  0  0  0  0  0  0  0  0  0  0
  2  1  1  1
  2  3  1  0
  2  4  1  0
  2  5  1  0
  5  6  3  0
  6  7  1  0
  7  8  2  0
  7 12  1  0
  8  9  1  0
  9 10  2  0
 10 11  1  0
 10 23  1  0
 11 12  2  0
 11 13  1  0
 13 14  2  0
 13 20  1  0
 14 15  1  0
 15 16  1  0
 15 19  2  0
 16 17  1  0
 16 18  2  0
 19 20  1  0
 20 21  1  0
 21 22  1  0
 22 23  1  0
M  END
