
     RDKit          3D

 19 20  0  0  0  0  0  0  0  0999 V2000
   -5.6750   -0.7180   -1.2400 O   0  0  0  0  0  0  0  0  0  0  0  0
   -4.8160    0.1700   -1.4440 C   0  0  0  0  0  0  0  0  0  0  0  0
   -4.6580    0.8210   -2.7660 C   0  0  0  0  0  0  0  0  0  0  0  0
   -2.9630    1.3850   -2.9970 S   0  0  0  0  0  0  0  0  0  0  0  0
   -1.9670    0.5600   -1.6950 C   0  0  0  0  0  0  0  0  0  0  0  0
   -2.6590    0.7350   -0.3910 C   0  0  0  0  0  0  0  0  0  0  0  0
   -1.7330    1.1990    1.0610 S   0  0  0  0  0  0  0  0  0  0  0  0
    0.0280    1.2420    0.6620 C   0  0  0  0  0  0  0  0  0  0  0  0
    0.5590   -0.1600    0.3990 C   0  0  2  0  0  0  0  0  0  0  0  0
    0.3620   -0.9280    1.5740 O   0  0  0  0  0  0  0  0  0  0  0  0
    1.9860   -0.1270    0.0350 C   0  0  0  0  0  0  0  0  0  0  0  0
    2.3170    0.5170   -0.9850 O   0  0  0  0  0  0  0  0  0  0  0  0
    2.9880   -0.7890    0.7840 N   0  0  0  0  0  0  0  0  0  0  0  0
    4.3750   -0.7690    0.4460 C   0  0  1  0  0  0  0  0  0  0  0  0
    5.3320   -0.3500    1.5320 C   0  0  0  0  0  0  0  0  0  0  0  0
    5.7080   -1.6950    1.5330 O   0  0  0  0  0  0  0  0  0  0  0  0
    5.0630   -2.0200    0.3980 N   0  0  0  0  0  0  0  0  0  0  0  0
   -3.9640    0.5470   -0.3150 C   0  0  0  0  0  0  0  0  0  0  0  0
   -4.6930    0.7740    1.3280 S   0  0  0  0  0  0  0  0  0  0  0  0
  1  2  2  0
  2  3  1  0
  2 18  1  0
  3  4  1  0
  4  5  1  0
  5  6  1  0
  6  7  1  0
  6 18  2  0
  7  8  1  0
  8  9  1  0
  9 10  1  1
  9 11  1  0
 11 12  2  0
 11 13  1  0
 14 13  1  1
 14 15  1  0
 14 17  1  0
 15 16  1  0
 16 17  1  0
 18 19  1  0
M  END
