
     RDKit          3D

 19 20  0  0  0  0  0  0  0  0999 V2000
    5.5620   -0.5820   -1.8690 N   0  0  0  0  0  0  0  0  0  0  0  0
    4.2580   -0.7660   -1.3830 C   0  0  0  0  0  0  0  0  0  0  0  0
    3.2750   -0.4070   -2.0750 O   0  0  0  0  0  0  0  0  0  0  0  0
    4.0320   -1.3760   -0.0670 C   0  0  0  0  0  0  0  0  0  0  0  0
    2.6060   -1.4620    0.2200 N   0  0  0  0  0  0  0  0  0  0  0  0
    1.8040   -0.2940    0.2740 C   0  0  0  0  0  0  0  0  0  0  0  0
    2.3190    0.8270    0.0740 O   0  0  0  0  0  0  0  0  0  0  0  0
    0.3350   -0.4320    0.5750 C   0  0  0  0  0  0  0  0  0  0  0  0
   -0.2420    0.9420    0.5660 C   0  0  0  0  0  0  0  0  0  0  0  0
   -1.7080    1.0170    0.8700 C   0  0  0  0  0  0  0  0  0  0  0  0
   -2.0780    1.5730    2.0120 C   0  0  0  0  0  0  0  0  0  0  0  0
   -3.8680    1.5200    2.0800 S   0  0  0  0  0  0  0  0  0  0  0  0
   -3.9990    1.4330    0.2230 C   0  0  1  0  0  0  0  0  0  0  0  0
   -2.8440    0.5360    0.0310 C   0  0  0  0  0  0  0  0  0  0  0  0
   -2.9580   -0.4790   -0.7900 C   0  0  0  0  0  0  0  0  0  0  0  0
   -4.5510   -0.6420   -1.5740 S   0  0  0  0  0  0  0  0  0  0  0  0
   -5.4990    0.5670   -0.1150 S   0  0  1  0  0  0  0  0  0  0  0  0
   -5.9860   -0.2390    1.0170 O   0  0  0  0  0  0  0  0  0  0  0  0
   -6.5270    1.4060   -0.7760 O   0  0  0  0  0  0  0  0  0  0  0  0
  1  2  1  0
  2  3  2  0
  2  4  1  0
  4  5  1  0
  5  6  1  0
  6  7  2  0
  6  8  1  0
  8  9  1  0
  9 10  1  0
 10 11  2  0
 10 14  1  0
 11 12  1  0
 13 12  1  1
 13 14  1  0
 13 17  1  0
 14 15  2  0
 15 16  1  0
 17 16  1  6
 17 18  2  0
 17 19  2  0
M  END
