
     RDKit          3D

 19 20  0  0  0  0  0  0  0  0999 V2000
   -2.9100   -1.0420    0.9910 C   0  0  0  0  0  0  0  0  0  0  0  0
   -1.8710   -0.3330    0.1130 C   0  0  2  0  0  0  0  0  0  0  0  0
   -0.5630   -0.8320    0.4930 N   0  0  0  0  0  0  0  0  0  0  0  0
    0.6410   -0.3980   -0.1260 C   0  0  0  0  0  0  0  0  0  0  0  0
    0.5780    0.4660   -1.0580 O   0  0  0  0  0  0  0  0  0  0  0  0
    1.9200   -0.9630    0.3320 C   0  0  0  0  0  0  0  0  0  0  0  0
    3.1140   -0.4360   -0.3850 C   0  0  1  0  0  0  0  0  0  0  0  0
    3.2620    1.3860   -0.1830 S   0  0  0  0  0  0  0  0  0  0  0  0
    5.0210    1.4160    0.2460 C   0  0  0  0  0  0  0  0  0  0  0  0
    5.9260    2.7380    0.6010 S   0  0  0  0  0  0  0  0  0  0  0  0
    5.4040    0.0510    0.1960 N   0  0  0  0  0  0  0  0  0  0  0  0
    4.3510   -0.8530    0.3370 C   0  0  0  0  0  0  0  0  0  0  0  0
    4.4000   -1.9440    1.0100 O   0  0  0  0  0  0  0  0  0  0  0  0
   -1.9190    1.1320    0.3990 C   0  0  0  0  0  0  0  0  0  0  0  0
   -3.1390    1.7160   -0.2180 C   0  0  0  0  0  0  0  0  0  0  0  0
   -3.5110    0.6240   -1.5950 S   0  0  2  0  0  0  0  0  0  0  0  0
   -3.3630    1.3060   -2.9000 O   0  0  0  0  0  0  0  0  0  0  0  0
   -4.8580    0.0170   -1.3790 O   0  0  0  0  0  0  0  0  0  0  0  0
   -2.2030   -0.5760   -1.3120 C   0  0  0  0  0  0  0  0  0  0  0  0
  2  1  1  1
  2  3  1  0
  2 14  1  0
  2 19  1  0
  3  4  1  0
  4  5  2  0
  4  6  1  0
  7  6  1  1
  7  8  1  0
  7 12  1  0
  8  9  1  0
  9 10  2  0
  9 11  1  0
 11 12  1  0
 12 13  2  0
 14 15  1  0
 16 15  1  1
 16 17  2  0
 16 18  2  0
 16 19  1  0
M  END
