
     RDKit          3D

 23 23  0  0  0  0  0  0  0  0999 V2000
   -1.6140   -2.1420   -0.8290 C   0  0  0  0  0  0  0  0  0  0  0  0
   -2.2980   -0.8710   -1.0400 C   0  0  0  0  0  0  0  0  0  0  0  0
   -2.2510    0.1900    0.0190 C   0  0  1  0  0  0  0  0  0  0  0  0
   -2.7930   -0.1890    1.3190 C   0  0  0  0  0  0  0  0  0  0  0  0
   -4.1280   -0.6860    1.5800 C   0  0  0  0  0  0  0  0  0  0  0  0
   -5.3390    0.1250    1.2900 C   0  0  0  0  0  0  0  0  0  0  0  0
   -5.3910    1.3490    1.9450 O   0  0  0  0  0  0  0  0  0  0  0  0
   -0.7370    0.3740    0.2540 C   0  0  0  0  0  0  0  0  0  0  0  0
   -0.1020    1.4080   -0.0620 N   0  0  0  0  0  0  0  0  0  0  0  0
    0.0410   -0.6650    0.8570 N   0  0  0  0  0  0  0  0  0  0  0  0
    1.4890   -0.5930    0.8170 C   0  0  0  0  0  0  0  0  0  0  0  0
    2.0790   -0.7560   -0.5420 C   0  0  0  0  0  0  0  0  0  0  0  0
    3.5780   -0.6500   -0.3940 C   0  0  0  0  0  0  0  0  0  0  0  0
    4.3190   -1.6490   -0.7500 C   0  0  0  0  0  0  0  0  0  0  0  0
    5.7820   -1.7950   -0.7080 C   0  0  0  0  0  0  0  0  0  0  0  0
    6.5390   -0.3650   -0.0640 S   0  0  2  0  0  0  0  0  0  0  0  0
    7.6340    0.2310   -1.0110 N   0  0  0  0  0  0  0  0  0  0  0  0
    7.4000   -0.7220    1.1520 O   0  0  0  0  0  0  0  0  0  0  0  0
    5.3580    0.8240    0.3380 C   0  0  0  0  0  0  0  0  0  0  0  0
    4.0810    0.5880    0.1490 C   0  0  0  0  0  0  0  0  0  0  0  0
   -2.6150    1.4510   -0.5240 N   0  0  1  0  0  0  0  0  0  0  0  0
   -3.8290    1.5750   -1.2400 C   0  0  0  0  0  0  0  0  0  0  0  0
   -2.4920    2.5540    0.3960 C   0  0  0  0  0  0  0  0  0  0  0  0
  1  2  1  0
  3  2  1  6
  3  4  1  0
  3  8  1  0
  3 21  1  0
  4  5  1  0
  5  6  1  0
  6  7  1  0
  8  9  2  0
  8 10  1  0
 10 11  1  0
 11 12  1  0
 12 13  1  0
 13 14  2  0
 13 20  1  0
 14 15  1  0
 16 15  1  6
 16 17  2  0
 16 18  2  0
 16 19  1  0
 19 20  2  0
 21 22  1  1
 21 23  1  0
M  CHG  2  17   1  21   1
M  END
