
     RDKit          3D

 22 22  0  0  0  0  0  0  0  0999 V2000
    5.8690    2.5620   -0.3340 C   0  0  0  0  0  0  0  0  0  0  0  0
    5.1000    1.9140    0.7800 C   0  0  0  0  0  0  0  0  0  0  0  0
    4.7390    0.4720    0.5150 C   0  0  0  0  0  0  0  0  0  0  0  0
    3.9310    0.2870   -0.6440 N   0  0  0  0  0  0  0  0  0  0  0  0
    2.6480   -0.3350   -0.3980 C   0  0  1  0  0  0  0  0  0  0  0  0
    2.7400   -1.7710    0.0440 C   0  0  0  0  0  0  0  0  0  0  0  0
    3.3710   -2.6710   -0.9370 C   0  0  0  0  0  0  0  0  0  0  0  0
    3.5570   -4.0400   -0.5930 N   0  0  0  0  0  0  0  0  0  0  0  0
    3.7400   -2.2650   -2.0470 O   0  0  0  0  0  0  0  0  0  0  0  0
    1.8140    0.4590    0.5760 C   0  0  0  0  0  0  0  0  0  0  0  0
    0.5540   -0.2260    0.7460 N   0  0  0  0  0  0  0  0  0  0  0  0
   -0.2410    0.4170    1.7980 C   0  0  0  0  0  0  0  0  0  0  0  0
   -1.3280   -0.5740    2.1510 C   0  0  0  0  0  0  0  0  0  0  0  0
   -1.5290   -1.5030    1.1340 O   0  0  0  0  0  0  0  0  0  0  0  0
   -1.5630   -0.8930   -0.1230 C   0  0  1  0  0  0  0  0  0  0  0  0
   -2.7010    0.0860   -0.2250 C   0  0  0  0  0  0  0  0  0  0  0  0
   -4.2350   -0.8820    0.0520 S   0  0  0  0  0  0  0  0  0  0  0  0
   -5.6830    0.2090   -0.0050 C   0  0  1  0  0  0  0  0  0  0  0  0
   -5.9200    0.8030   -1.3600 C   0  0  0  0  0  0  0  0  0  0  0  0
   -6.9000   -0.6200    0.3630 C   0  0  0  0  0  0  0  0  0  0  0  0
   -5.5530    1.3190    1.0190 C   0  0  0  0  0  0  0  0  0  0  0  0
   -0.2170   -0.2920   -0.4790 C   0  0  0  0  0  0  0  0  0  0  0  0
  1  2  1  0
  2  3  1  0
  3  4  1  0
  4  5  1  0
  5  6  1  1
  5 10  1  0
  6  7  1  0
  7  8  1  0
  7  9  2  0
 10 11  1  0
 11 12  1  0
 11 22  1  0
 12 13  1  0
 13 14  1  0
 14 15  1  0
 15 16  1  1
 15 22  1  0
 16 17  1  0
 17 18  1  0
 18 19  1  6
 18 20  1  0
 18 21  1  0
M  CHG  1   4   1
M  END
