
     RDKit          3D

 25 28  0  0  0  0  0  0  0  0999 V2000
    2.0430   -0.4750    0.7120 O   0  0  0  0  0  0  0  0  0  0  0  0
    1.9970    0.1770   -0.3190 C   0  0  0  0  0  0  0  0  0  0  0  0
    3.2380    0.5020   -0.9590 N   0  0  0  0  0  0  0  0  0  0  0  0
    4.5090    0.1360   -0.5060 C   0  0  0  0  0  0  0  0  0  0  0  0
    4.7780   -0.5860    0.6150 C   0  0  0  0  0  0  0  0  0  0  0  0
    6.1030   -0.8860    0.9570 C   0  0  0  0  0  0  0  0  0  0  0  0
    7.1590   -0.4680    0.1840 C   0  0  0  0  0  0  0  0  0  0  0  0
    6.8460    0.2570   -0.9370 C   0  0  0  0  0  0  0  0  0  0  0  0
    5.5880    0.5330   -1.2480 N   0  0  0  0  0  0  0  0  0  0  0  0
    0.7590    0.5790   -0.8360 N   0  0  0  0  0  0  0  0  0  0  0  0
   -0.5610    0.3400   -0.4180 C   0  0  0  0  0  0  0  0  0  0  0  0
   -1.8040    1.6710   -0.8780 S   0  0  0  0  0  0  0  0  0  0  0  0
   -3.1920    0.8700   -0.2020 C   0  0  0  0  0  0  0  0  0  0  0  0
   -4.5550    1.4380   -0.2570 C   0  0  0  0  0  0  0  0  0  0  0  0
   -4.8620    2.5380   -0.9800 C   0  0  0  0  0  0  0  0  0  0  0  0
   -6.2840    2.7970   -0.7990 C   0  0  0  0  0  0  0  0  0  0  0  0
   -6.7310    1.6420   -0.3180 C   0  0  0  0  0  0  0  0  0  0  0  0
   -5.7540    1.0720    0.4230 C   0  0  0  0  0  0  0  0  0  0  0  0
   -2.6880   -0.2780    0.2930 C   0  0  0  0  0  0  0  0  0  0  0  0
   -3.5130   -1.2700    0.8840 C   0  0  0  0  0  0  0  0  0  0  0  0
   -3.0390   -2.4720    1.3410 C   0  0  0  0  0  0  0  0  0  0  0  0
   -1.7430   -2.7200    1.2210 N   0  0  0  0  0  0  0  0  0  0  0  0
   -0.9420   -1.8000    0.6660 C   0  0  0  0  0  0  0  0  0  0  0  0
    0.2510   -2.1420    0.5920 O   0  0  0  0  0  0  0  0  0  0  0  0
   -1.3720   -0.5430    0.1830 C   0  0  0  0  0  0  0  0  0  0  0  0
  1  2  2  0
  2  3  1  0
  2 10  1  0
  3  4  1  0
  4  5  2  0
  4  9  1  0
  5  6  1  0
  6  7  2  0
  7  8  1  0
  8  9  2  0
 10 11  1  0
 11 12  1  0
 11 25  2  0
 12 13  1  0
 13 14  1  0
 13 19  2  0
 14 15  2  0
 14 18  1  0
 15 16  1  0
 16 17  2  0
 17 18  2  0
 19 20  1  0
 19 25  1  0
 20 21  2  0
 21 22  1  0
 22 23  1  0
 23 24  2  0
 23 25  1  0
M  END
