
     RDKit          3D

 23 23  0  0  0  0  0  0  0  0999 V2000
   -4.4170   -1.2410    1.9830 C   0  0  0  0  0  0  0  0  0  0  0  0
   -4.7080   -1.4920    0.5120 C   0  0  0  0  0  0  0  0  0  0  0  0
   -4.0000   -0.4300   -0.3630 C   0  0  1  0  0  0  0  0  0  0  0  0
   -4.3400   -0.7520   -1.7530 C   0  0  0  0  0  0  0  0  0  0  0  0
   -3.9530   -2.0950   -2.1060 N   0  0  0  0  0  0  0  0  0  0  0  0
   -4.6050    0.8210    0.1110 N   0  0  0  0  0  0  0  0  0  0  0  0
   -4.2570    2.0860   -0.4010 C   0  0  0  0  0  0  0  0  0  0  0  0
   -4.9280    3.2990    0.1460 C   0  0  0  0  0  0  0  0  0  0  0  0
   -3.4040    2.1620   -1.2920 O   0  0  0  0  0  0  0  0  0  0  0  0
   -2.5600   -0.4240   -0.0890 C   0  0  0  0  0  0  0  0  0  0  0  0
   -2.1370   -0.0160    1.0720 O   0  0  0  0  0  0  0  0  0  0  0  0
   -1.5080   -0.8100   -0.9490 N   0  0  0  0  0  0  0  0  0  0  0  0
   -0.1010   -0.7790   -0.5950 C   0  0  0  0  0  0  0  0  0  0  0  0
    0.4270    0.5700   -0.2560 C   0  0  0  0  0  0  0  0  0  0  0  0
    1.8830    0.5770    0.0980 C   0  0  0  0  0  0  0  0  0  0  0  0
    2.7610    0.0780   -1.0150 C   0  0  0  0  0  0  0  0  0  0  0  0
    4.1520    0.0770   -0.7170 N   0  0  0  0  0  0  0  0  0  0  0  0
    4.7700    1.3540   -0.5760 C   0  0  0  0  0  0  0  0  0  0  0  0
    5.7450    1.2570    0.6050 C   0  0  0  0  0  0  0  0  0  0  0  0
    5.9870   -0.2380    0.6470 C   0  0  2  0  0  0  0  0  0  0  0  0
    6.5460   -0.7240    1.9410 C   0  0  0  0  0  0  0  0  0  0  0  0
    7.0490   -0.6380   -0.7650 S   0  0  0  0  0  0  0  0  0  0  0  0
    4.5610   -0.7470    0.3820 C   0  0  0  0  0  0  0  0  0  0  0  0
  1  2  1  0
  3  2  1  1
  3  4  1  0
  3  6  1  0
  3 10  1  0
  4  5  1  0
  6  7  1  0
  7  8  1  0
  7  9  2  0
 10 11  2  0
 10 12  1  0
 12 13  1  0
 13 14  1  0
 14 15  1  0
 15 16  1  0
 16 17  1  0
 17 18  1  0
 17 23  1  0
 18 19  1  0
 19 20  1  0
 20 21  1  1
 20 22  1  0
 20 23  1  0
M  CHG  1   5   1
M  END
