
     RDKit          3D

 25 28  0  0  0  0  0  0  0  0999 V2000
   -3.2770   -2.6000    2.0580 C   0  0  0  0  0  0  0  0  0  0  0  0
   -2.8880   -2.3310    0.6220 C   0  0  0  0  0  0  0  0  0  0  0  0
   -2.7070   -0.8350    0.4030 C   0  0  0  0  0  0  0  0  0  0  0  0
   -1.5680   -0.3590    0.0130 C   0  0  0  0  0  0  0  0  0  0  0  0
   -1.2690    1.0280   -0.2290 C   0  0  0  0  0  0  0  0  0  0  0  0
   -2.1670    2.0260   -0.0720 C   0  0  0  0  0  0  0  0  0  0  0  0
   -3.5280    1.8630    0.3500 N   0  0  0  0  0  0  0  0  0  0  0  0
   -1.7840    3.3280   -0.3290 N   0  0  0  0  0  0  0  0  0  0  0  0
   -0.5550    3.6570   -0.7300 C   0  0  0  0  0  0  0  0  0  0  0  0
    0.0750    4.8170   -1.0450 N   0  0  0  0  0  0  0  0  0  0  0  0
    1.3260    4.5690   -1.3890 N   0  0  0  0  0  0  0  0  0  0  0  0
    1.5930    3.2720   -1.3260 C   0  0  0  0  0  0  0  0  0  0  0  0
    0.3870    2.6730   -0.9020 C   0  0  0  0  0  0  0  0  0  0  0  0
    0.0390    1.3740   -0.6550 C   0  0  0  0  0  0  0  0  0  0  0  0
    1.0190    0.3320   -0.8320 C   0  0  0  0  0  0  0  0  0  0  0  0
    1.8180   -0.0260    0.2380 C   0  0  0  0  0  0  0  0  0  0  0  0
    2.7330   -1.0260    0.0060 C   0  0  0  0  0  0  0  0  0  0  0  0
    3.5740   -1.4540    1.0070 C   0  0  0  0  0  0  0  0  0  0  0  0
    4.5000   -2.4520    0.8030 C   0  0  0  0  0  0  0  0  0  0  0  0
    4.5580   -3.0060   -0.4260 N   0  0  0  0  0  0  0  0  0  0  0  0
    3.7420   -2.5990   -1.4160 C   0  0  0  0  0  0  0  0  0  0  0  0
    2.8070   -1.6030   -1.2420 C   0  0  0  0  0  0  0  0  0  0  0  0
    2.0040   -1.2070   -2.2290 O   0  0  0  0  0  0  0  0  0  0  0  0
    1.1100   -0.2600   -2.0740 C   0  0  0  0  0  0  0  0  0  0  0  0
    0.3690    0.0790   -3.0500 O   0  0  0  0  0  0  0  0  0  0  0  0
  1  2  1  0
  2  3  1  0
  3  4  2  3
  4  5  1  0
  5  6  2  0
  5 14  1  0
  6  7  1  0
  6  8  1  0
  8  9  2  0
  9 10  1  0
  9 13  1  0
 10 11  1  0
 11 12  2  0
 12 13  1  0
 13 14  2  0
 14 15  1  0
 15 16  2  0
 15 24  1  0
 16 17  1  0
 17 18  2  0
 17 22  1  0
 18 19  1  0
 19 20  2  0
 20 21  1  0
 21 22  2  0
 22 23  1  0
 23 24  1  0
 24 25  2  0
M  END
