
     RDKit          3D

 23 24  0  0  0  0  0  0  0  0999 V2000
    7.0070    0.8400    0.3820 C   0  0  0  0  0  0  0  0  0  0  0  0
    6.1260    1.2060   -0.7700 C   0  0  0  0  0  0  0  0  0  0  0  0
    4.8500    0.4070   -0.7980 C   0  0  0  0  0  0  0  0  0  0  0  0
    4.0430    0.6290    0.4690 C   0  0  0  0  0  0  0  0  0  0  0  0
    2.8180   -0.1370    0.4390 N   0  0  0  0  0  0  0  0  0  0  0  0
    1.5400    0.4980    0.3440 C   0  0  0  0  0  0  0  0  0  0  0  0
    0.5770   -0.1790   -0.3310 C   0  0  0  0  0  0  0  0  0  0  0  0
   -0.7660    0.3790   -0.4840 C   0  0  0  0  0  0  0  0  0  0  0  0
   -1.8740   -0.2720    0.2480 C   0  0  2  0  0  0  0  0  0  0  0  0
   -2.0960   -1.7050   -0.1230 C   0  0  1  0  0  0  0  0  0  0  0  0
   -3.4020   -2.2020    0.5350 C   0  0  0  0  0  0  0  0  0  0  0  0
   -3.6110   -3.6060    0.1820 N   0  0  0  0  0  0  0  0  0  0  0  0
   -2.4850   -1.6980   -1.9180 S   0  0  0  0  0  0  0  0  0  0  0  0
   -3.7020   -0.3720   -2.1320 C   0  0  0  0  0  0  0  0  0  0  0  0
   -3.4570    0.7950   -1.2520 C   0  0  0  0  0  0  0  0  0  0  0  0
   -3.0720    0.5270    0.0920 N   0  0  2  0  0  0  0  0  0  0  0  0
   -2.7720    1.8340    0.7050 C   0  0  0  0  0  0  0  0  0  0  0  0
   -4.0180    2.3840    1.2810 C   0  0  0  0  0  0  0  0  0  0  0  0
   -3.9210    3.6680    1.9280 N   0  0  0  0  0  0  0  0  0  0  0  0
   -5.0760    1.7500    1.1960 O   0  0  0  0  0  0  0  0  0  0  0  0
    1.0770   -1.4500   -0.8950 C   0  0  0  0  0  0  0  0  0  0  0  0
    1.6320   -2.1630    0.1930 O   0  0  0  0  0  0  0  0  0  0  0  0
    2.8700   -1.5980    0.5090 C   0  0  0  0  0  0  0  0  0  0  0  0
  1  2  1  0
  2  3  1  0
  3  4  1  0
  4  5  1  0
  5  6  1  0
  5 23  1  0
  6  7  2  0
  7  8  1  0
  7 21  1  0
  9  8  1  6
  9 10  1  0
  9 16  1  0
 10 11  1  1
 10 13  1  0
 11 12  1  0
 13 14  1  0
 14 15  1  0
 15 16  1  0
 16 17  1  1
 17 18  1  0
 18 19  1  0
 18 20  2  0
 21 22  1  0
 22 23  1  0
M  CHG  2  12   1  16   1
M  END
