
     RDKit          3D

 17 19  0  0  0  0  0  0  0  0999 V2000
    4.0710    1.3080    0.4890 N   0  0  0  0  0  0  0  0  0  0  0  0
    3.8800   -0.0610    0.1880 C   0  0  0  0  0  0  0  0  0  0  0  0
    4.8500   -0.8420    0.0770 O   0  0  0  0  0  0  0  0  0  0  0  0
    2.5360   -0.5700    0.0030 C   0  0  0  0  0  0  0  0  0  0  0  0
    2.3600   -1.9190   -0.2930 C   0  0  0  0  0  0  0  0  0  0  0  0
    1.0790   -2.3730   -0.4630 C   0  0  0  0  0  0  0  0  0  0  0  0
    0.0340   -1.4870   -0.3340 C   0  0  0  0  0  0  0  0  0  0  0  0
    0.2510   -0.1490   -0.0380 C   0  0  0  0  0  0  0  0  0  0  0  0
    1.5050    0.2840    0.1250 N   0  0  0  0  0  0  0  0  0  0  0  0
   -0.7400    0.9360    0.1360 C   0  0  0  0  0  0  0  0  0  0  0  0
   -0.3300    2.6370    0.1940 S   0  0  0  0  0  0  0  0  0  0  0  0
   -2.0920    3.2100    0.4250 C   0  0  0  0  0  0  0  0  0  0  0  0
   -2.7400    2.0570    0.4270 C   0  0  0  0  0  0  0  0  0  0  0  0
   -2.1390    0.8670    0.2870 C   0  0  0  0  0  0  0  0  0  0  0  0
   -2.9090   -0.4570    0.2940 C   0  0  0  0  0  0  0  0  0  0  0  0
   -2.4470   -1.3410   -0.8340 C   0  0  0  0  0  0  0  0  0  0  0  0
   -1.2290   -2.0400   -0.5240 O   0  0  0  0  0  0  0  0  0  0  0  0
  1  2  1  0
  2  3  2  0
  2  4  1  0
  4  5  2  0
  4  9  1  0
  5  6  1  0
  6  7  2  0
  7  8  1  0
  7 17  1  0
  8  9  2  0
  8 10  1  0
 10 11  1  0
 10 14  2  0
 11 12  1  0
 12 13  2  0
 13 14  1  0
 14 15  1  0
 15 16  1  0
 16 17  1  0
M  END
