
     RDKit          3D

 22 22  0  0  0  0  0  0  0  0999 V2000
   -3.9580   -1.1950   -2.8670 C   0  0  0  0  0  0  0  0  0  0  0  0
   -2.8540   -0.3850   -2.2660 C   0  0  0  0  0  0  0  0  0  0  0  0
   -2.4580   -0.9390   -0.9740 N   0  0  0  0  0  0  0  0  0  0  0  0
   -2.7780   -0.1200    0.1250 C   0  0  1  0  0  0  0  0  0  0  0  0
   -3.7440   -0.7460    1.1250 C   0  0  0  0  0  0  0  0  0  0  0  0
   -4.3230    0.3000    2.0130 C   0  0  0  0  0  0  0  0  0  0  0  0
   -3.4630    1.4310    2.3920 C   0  0  0  0  0  0  0  0  0  0  0  0
   -2.3280    1.7840    1.5040 C   0  0  0  0  0  0  0  0  0  0  0  0
   -1.6810    0.5180    0.9010 C   0  0  1  0  0  0  0  0  0  0  0  0
   -1.2050   -0.2380    2.1120 C   0  0  0  0  0  0  0  0  0  0  0  0
   -0.6400   -1.5740    1.9120 C   0  0  0  0  0  0  0  0  0  0  0  0
   -0.5070    0.9100    0.0710 C   0  0  0  0  0  0  0  0  0  0  0  0
    0.5960    1.5540    0.8240 C   0  0  0  0  0  0  0  0  0  0  0  0
    1.9670    1.9880   -0.3340 S   0  0  0  0  0  0  0  0  0  0  0  0
    2.6120    0.3940   -0.9150 C   0  0  0  0  0  0  0  0  0  0  0  0
    3.7700    0.5610   -1.8860 C   0  0  0  0  0  0  0  0  0  0  0  0
    4.8270    1.2230   -1.3350 O   0  0  0  0  0  0  0  0  0  0  0  0
    5.4200    0.6750   -0.2410 C   0  0  0  0  0  0  0  0  0  0  0  0
    6.1250   -0.5910   -0.3850 C   0  0  0  0  0  0  0  0  0  0  0  0
    6.4780   -1.1920    0.6790 O   0  0  0  0  0  0  0  0  0  0  0  0
    6.4440   -1.1860   -1.6140 N   0  0  0  0  0  0  0  0  0  0  0  0
    7.1340   -2.4350   -1.6270 N   0  0  0  0  0  0  0  0  0  0  0  0
  1  2  1  0
  2  3  1  0
  4  3  1  6
  4  5  1  0
  4  9  1  0
  5  6  1  0
  6  7  1  0
  7  8  1  0
  8  9  1  0
  9 10  1  1
  9 12  1  0
 10 11  1  0
 12 13  1  0
 13 14  1  0
 14 15  1  0
 15 16  1  0
 16 17  1  0
 17 18  1  0
 18 19  1  0
 19 20  2  0
 19 21  1  0
 21 22  1  0
M  CHG  1   3   1
M  END
