
     RDKit          3D

 23 24  0  0  0  0  0  0  0  0999 V2000
   -4.9760    2.4880   -1.4050 C   0  0  0  0  0  0  0  0  0  0  0  0
   -5.4550    1.1410   -0.9200 C   0  0  0  0  0  0  0  0  0  0  0  0
   -4.6870    0.1100   -0.6380 C   0  0  0  0  0  0  0  0  0  0  0  0
   -3.2230   -0.1440   -0.6700 C   0  0  0  0  0  0  0  0  0  0  0  0
   -2.7320   -0.8320    0.4740 N   0  0  0  0  0  0  0  0  0  0  0  0
   -1.1590   -1.4580    0.3030 S   0  0  1  0  0  0  0  0  0  0  0  0
   -0.8080   -2.1740    1.6010 O   0  0  0  0  0  0  0  0  0  0  0  0
   -1.1560   -2.5050   -0.7640 O   0  0  0  0  0  0  0  0  0  0  0  0
    0.0220   -0.2400    0.0240 N   0  0  0  0  0  0  0  0  0  0  0  0
    0.5590    0.2470    1.2640 C   0  0  0  0  0  0  0  0  0  0  0  0
    1.5910    1.3090    1.1060 C   0  0  0  0  0  0  0  0  0  0  0  0
    2.7410    0.9190    0.3620 N   0  0  0  0  0  0  0  0  0  0  0  0
    3.5180   -0.0500    1.0680 C   0  0  0  0  0  0  0  0  0  0  0  0
    4.7490   -0.5070    0.3580 C   0  0  1  0  0  0  0  0  0  0  0  0
    4.4770   -1.1240   -0.9210 N   0  0  0  0  0  0  0  0  0  0  0  0
    5.8160    0.5320    0.2380 C   0  0  2  0  0  0  0  0  0  0  0  0
    5.4040    1.7580   -0.5070 C   0  0  0  0  0  0  0  0  0  0  0  0
    7.0390   -0.0910   -0.3950 C   0  0  0  0  0  0  0  0  0  0  0  0
   -3.6230   -1.7890    1.0640 C   0  0  0  0  0  0  0  0  0  0  0  0
   -4.7360   -2.2570    0.1530 C   0  0  0  0  0  0  0  0  0  0  0  0
   -5.5020   -1.0350   -0.1950 C   0  0  0  0  0  0  0  0  0  0  0  0
   -6.7670   -0.6700   -0.2160 C   0  0  0  0  0  0  0  0  0  0  0  0
   -6.8570    0.7320   -0.6740 C   0  0  0  0  0  0  0  0  0  0  0  0
  1  2  1  0
  2  3  2  0
  2 23  1  0
  3  4  1  0
  3 21  1  0
  4  5  1  0
  5  6  1  0
  5 19  1  0
  6  7  2  0
  6  8  2  0
  6  9  1  6
  9 10  1  0
 10 11  1  0
 11 12  1  0
 12 13  1  0
 13 14  1  0
 14 15  1  6
 14 16  1  0
 16 17  1  6
 16 18  1  0
 19 20  1  0
 20 21  1  0
 21 22  2  0
 22 23  1  0
M  CHG  1  15   1
M  END
