
     RDKit          3D

 46 50  0  0  0  0  0  0  0  0999 V2000
   -6.2750    2.6780   -0.0320 C   0  0  0  0  0  0  0  0  0  0  0  0
   -6.9780    1.6660   -0.4710 C   0  0  0  0  0  0  0  0  0  0  0  0
   -8.2350    1.9880   -1.0360 O   0  0  0  0  0  0  0  0  0  0  0  0
   -6.6000    0.2800   -0.4380 C   0  0  0  0  0  0  0  0  0  0  0  0
   -7.5020   -0.5920   -0.9100 C   0  0  0  0  0  0  0  0  0  0  0  0
   -7.3420   -2.0410   -0.9820 C   0  0  0  0  0  0  0  0  0  0  0  0
   -8.3200   -2.7980   -0.2540 N   0  0  0  0  0  0  0  0  0  0  0  0
   -5.3790   -0.1880    0.1820 C   0  0  0  0  0  0  0  0  0  0  0  0
   -5.3500   -1.1240    1.2270 C   0  0  0  0  0  0  0  0  0  0  0  0
   -6.4800   -1.6210    1.9020 O   0  0  0  0  0  0  0  0  0  0  0  0
   -6.3180   -2.5630    2.9400 C   0  0  0  0  0  0  0  0  0  0  0  0
   -4.0650   -1.4920    1.5130 C   0  0  0  0  0  0  0  0  0  0  0  0
   -3.2870   -0.7720    0.6290 C   0  0  0  0  0  0  0  0  0  0  0  0
   -4.0700    0.0000   -0.1590 N   0  0  0  0  0  0  0  0  0  0  0  0
   -3.6480    0.8280   -1.2460 C   0  0  0  0  0  0  0  0  0  0  0  0
   -2.2040    1.0150   -1.2100 N   0  0  0  0  0  0  0  0  0  0  0  0
   -1.6890    2.2210   -0.7050 C   0  0  0  0  0  0  0  0  0  0  0  0
   -0.6360    2.8460   -1.3340 C   0  0  0  0  0  0  0  0  0  0  0  0
   -0.1020    4.0310   -0.8310 C   0  0  0  0  0  0  0  0  0  0  0  0
   -0.6350    4.5900    0.3160 C   0  0  0  0  0  0  0  0  0  0  0  0
   -1.6970    3.9420    0.9340 C   0  0  0  0  0  0  0  0  0  0  0  0
   -2.2030    4.5210    2.0700 F   0  0  0  0  0  0  0  0  0  0  0  0
   -2.2360    2.7660    0.4450 C   0  0  0  0  0  0  0  0  0  0  0  0
   -1.2200    0.0110   -1.6450 C   0  0  0  0  0  0  0  0  0  0  0  0
   -0.9070   -0.7540   -0.4340 N   0  0  0  0  0  0  0  0  0  0  0  0
    0.3430   -1.3460   -0.3020 N   0  0  0  0  0  0  0  0  0  0  0  0
    1.5880   -0.7010   -0.5070 C   0  0  0  0  0  0  0  0  0  0  0  0
    1.5620    0.5160   -0.8360 O   0  0  0  0  0  0  0  0  0  0  0  0
    2.8830   -1.4220   -0.3460 C   0  0  1  0  0  0  0  0  0  0  0  0
    2.9090   -2.7210   -1.0930 C   0  0  0  0  0  0  0  0  0  0  0  0
    2.7120   -2.5830   -2.5680 C   0  0  0  0  0  0  0  0  0  0  0  0
    4.0120   -0.5580   -0.6250 N   0  0  1  0  0  0  0  0  0  0  0  0
    4.1890    0.3010    0.5200 C   0  0  0  0  0  0  0  0  0  0  0  0
    5.4990    0.1530    1.2270 C   0  0  0  0  0  0  0  0  0  0  0  0
    6.6170    0.1350    0.3230 N   0  0  0  0  0  0  0  0  0  0  0  0
    7.8510    0.6900    0.7020 C   0  0  0  0  0  0  0  0  0  0  0  0
    8.9910   -0.1190    0.7260 C   0  0  0  0  0  0  0  0  0  0  0  0
   10.2340    0.3550    1.0840 C   0  0  0  0  0  0  0  0  0  0  0  0
   10.3860    1.6730    1.4370 C   0  0  0  0  0  0  0  0  0  0  0  0
    9.2820    2.5000    1.4250 C   0  0  0  0  0  0  0  0  0  0  0  0
    8.0320    2.0090    1.0610 C   0  0  0  0  0  0  0  0  0  0  0  0
    6.9550    2.8230    1.0520 F   0  0  0  0  0  0  0  0  0  0  0  0
    6.4270   -0.4650   -0.9690 C   0  0  0  0  0  0  0  0  0  0  0  0
    5.1840   -1.3570   -0.7990 C   0  0  0  0  0  0  0  0  0  0  0  0
   -1.8190   -0.9530    0.6500 C   0  0  0  0  0  0  0  0  0  0  0  0
   -1.3190   -1.3310    1.7680 O   0  0  0  0  0  0  0  0  0  0  0  0
  1  2  2  0
  2  3  1  0
  2  4  1  0
  4  5  2  3
  4  8  1  0
  5  6  1  0
  6  7  1  0
  8  9  2  0
  8 14  1  0
  9 10  1  0
  9 12  1  0
 10 11  1  0
 12 13  2  0
 13 14  1  0
 13 45  1  0
 14 15  1  0
 15 16  1  0
 16 17  1  0
 16 24  1  0
 17 18  2  0
 17 23  1  0
 18 19  1  0
 19 20  2  0
 20 21  1  0
 21 22  1  0
 21 23  2  0
 24 25  1  0
 25 26  1  0
 25 45  1  0
 26 27  1  0
 27 28  2  0
 27 29  1  0
 29 30  1  6
 29 32  1  0
 30 31  1  0
 32 33  1  1
 32 44  1  0
 33 34  1  0
 34 35  1  0
 35 36  1  0
 35 43  1  0
 36 37  2  0
 36 41  1  0
 37 38  1  0
 38 39  2  0
 39 40  1  0
 40 41  2  0
 41 42  1  0
 43 44  1  0
 45 46  2  0
M  CHG  2   7   1  32   1
M  END
