
     RDKit          3D

 46 50  0  0  0  0  0  0  0  0999 V2000
   11.5910   -0.1480   -2.7970 C   0  0  0  0  0  0  0  0  0  0  0  0
   10.4220    0.8020   -2.7630 C   0  0  0  0  0  0  0  0  0  0  0  0
    9.4480    0.3420   -1.7360 N   0  0  0  0  0  0  0  0  0  0  0  0
   10.1650    0.3300   -0.5000 C   0  0  0  0  0  0  0  0  0  0  0  0
    9.3710   -0.0550    0.6740 C   0  0  0  0  0  0  0  0  0  0  0  0
    9.9960   -0.0930    1.9360 C   0  0  0  0  0  0  0  0  0  0  0  0
   11.3410    0.2360    2.0030 O   0  0  0  0  0  0  0  0  0  0  0  0
    9.2910   -0.4420    3.0450 C   0  0  0  0  0  0  0  0  0  0  0  0
    9.8620   -0.4900    4.2830 F   0  0  0  0  0  0  0  0  0  0  0  0
    7.9380   -0.7660    2.9330 C   0  0  0  0  0  0  0  0  0  0  0  0
    7.3000   -0.7400    1.7280 C   0  0  0  0  0  0  0  0  0  0  0  0
    5.9470   -1.0460    1.4950 N   0  0  0  0  0  0  0  0  0  0  0  0
    5.0310   -1.4120    2.5020 C   0  0  0  0  0  0  0  0  0  0  0  0
    5.3490   -1.4960    3.7140 O   0  0  0  0  0  0  0  0  0  0  0  0
    3.6950   -1.6960    2.1350 N   0  0  0  0  0  0  0  0  0  0  0  0
    3.2730   -1.6190    0.7670 C   0  0  0  0  0  0  0  0  0  0  0  0
    1.7420   -1.7370    0.6870 C   0  0  0  0  0  0  0  0  0  0  0  0
    1.1630   -0.9020    1.7480 N   0  0  0  0  0  0  0  0  0  0  0  0
    0.2060    0.0700    1.3620 C   0  0  0  0  0  0  0  0  0  0  0  0
    0.5340    1.3920    1.4190 N   0  0  0  0  0  0  0  0  0  0  0  0
   -0.3120    2.3550    1.0540 C   0  0  0  0  0  0  0  0  0  0  0  0
    0.1030    3.7960    1.1360 C   0  0  0  0  0  0  0  0  0  0  0  0
   -1.5610    1.9890    0.6050 C   0  0  0  0  0  0  0  0  0  0  0  0
   -1.9640    0.6610    0.5200 C   0  0  0  0  0  0  0  0  0  0  0  0
   -3.2100    0.3400    0.0780 N   0  0  0  0  0  0  0  0  0  0  0  0
   -3.6460   -0.9210   -0.0140 C   0  0  0  0  0  0  0  0  0  0  0  0
   -4.9230   -1.3300   -0.4590 N   0  0  0  0  0  0  0  0  0  0  0  0
   -5.9630   -0.4920   -0.8880 C   0  0  0  0  0  0  0  0  0  0  0  0
   -5.7960    0.7420   -0.9000 O   0  0  0  0  0  0  0  0  0  0  0  0
   -7.2630   -1.1180   -1.3260 C   0  0  0  0  0  0  0  0  0  0  0  0
   -8.3220   -0.1030   -1.6390 C   0  0  1  0  0  0  0  0  0  0  0  0
   -8.6250    0.7120   -0.4440 C   0  0  0  0  0  0  0  0  0  0  0  0
   -9.6790    1.7740   -0.6150 C   0  0  2  0  0  0  0  0  0  0  0  0
   -9.7930    2.4690    0.7540 C   0  0  0  0  0  0  0  0  0  0  0  0
  -11.0190    1.1280   -0.8590 C   0  0  0  0  0  0  0  0  0  0  0  0
   -7.9070    0.6650   -2.8550 C   0  0  0  0  0  0  0  0  0  0  0  0
   -8.2400   -0.3700   -3.9380 C   0  0  0  0  0  0  0  0  0  0  0  0
   -9.5340   -0.9050   -3.3730 C   0  0  0  0  0  0  0  0  0  0  0  0
   -9.4520   -0.8440   -2.0170 O   0  0  0  0  0  0  0  0  0  0  0  0
   -2.7150   -1.8980    0.3840 C   0  0  0  0  0  0  0  0  0  0  0  0
   -1.4570   -1.6020    0.8330 C   0  0  0  0  0  0  0  0  0  0  0  0
   -1.0430   -0.2900    0.9130 C   0  0  0  0  0  0  0  0  0  0  0  0
    1.5890   -1.0950    3.1080 C   0  0  0  0  0  0  0  0  0  0  0  0
    2.7370   -2.0710    3.1390 C   0  0  0  0  0  0  0  0  0  0  0  0
    8.0560   -0.3760    0.6100 C   0  0  0  0  0  0  0  0  0  0  0  0
    7.4300   -0.3510   -0.5890 F   0  0  0  0  0  0  0  0  0  0  0  0
  1  2  1  0
  2  3  1  0
  3  4  1  0
  4  5  1  0
  5  6  2  0
  5 45  1  0
  6  7  1  0
  6  8  1  0
  8  9  1  0
  8 10  2  0
 10 11  1  0
 11 12  1  0
 11 45  2  0
 12 13  1  0
 13 14  2  0
 13 15  1  0
 15 16  1  0
 15 44  1  0
 16 17  1  0
 17 18  1  0
 18 19  1  0
 18 43  1  0
 19 20  2  0
 19 42  1  0
 20 21  1  0
 21 22  1  0
 21 23  2  0
 23 24  1  0
 24 25  2  0
 24 42  1  0
 25 26  1  0
 26 27  1  0
 26 40  2  0
 27 28  1  0
 28 29  2  0
 28 30  1  0
 31 30  1  1
 31 32  1  0
 31 36  1  0
 31 39  1  0
 32 33  1  0
 33 34  1  1
 33 35  1  0
 36 37  1  0
 37 38  1  0
 38 39  1  0
 40 41  1  0
 41 42  2  0
 43 44  1  0
 45 46  1  0
M  CHG  2   3   1  25   1
M  END
