
     RDKit          3D

 45 49  0  0  0  0  0  0  0  0999 V2000
   14.6660    1.8700    0.2230 C   0  0  0  0  0  0  0  0  0  0  0  0
   13.2400    1.8120   -0.3270 C   0  0  0  0  0  0  0  0  0  0  0  0
   12.4170    1.0590    0.5680 O   0  0  0  0  0  0  0  0  0  0  0  0
   11.0710    0.8770    0.2590 C   0  0  0  0  0  0  0  0  0  0  0  0
   10.2310    0.1610    1.0830 C   0  0  0  0  0  0  0  0  0  0  0  0
    8.8740   -0.0320    0.7860 C   0  0  0  0  0  0  0  0  0  0  0  0
    8.3730    0.5130   -0.3650 C   0  0  0  0  0  0  0  0  0  0  0  0
    6.9610    0.3870   -0.7900 C   0  0  0  0  0  0  0  0  0  0  0  0
    6.6440    0.6980   -1.9700 O   0  0  0  0  0  0  0  0  0  0  0  0
    6.0080   -0.0760    0.1300 N   0  0  0  0  0  0  0  0  0  0  0  0
    4.6150   -0.2510   -0.1600 C   0  0  0  0  0  0  0  0  0  0  0  0
    4.0830   -0.2950   -1.4220 C   0  0  0  0  0  0  0  0  0  0  0  0
    2.7030   -0.4500   -1.6020 C   0  0  0  0  0  0  0  0  0  0  0  0
    1.8270   -0.5640   -0.5500 C   0  0  0  0  0  0  0  0  0  0  0  0
    2.3590   -0.5190    0.7150 C   0  0  0  0  0  0  0  0  0  0  0  0
    3.7140   -0.3670    0.9080 C   0  0  0  0  0  0  0  0  0  0  0  0
    1.2090   -0.6480    1.6620 C   0  0  0  0  0  0  0  0  0  0  0  0
    0.1670   -1.3450    0.8260 C   0  0  2  0  0  0  0  0  0  0  0  0
    0.5490   -2.8250    0.8070 C   0  0  0  0  0  0  0  0  0  0  0  0
    0.4010   -0.7380   -0.4680 N   0  0  0  0  0  0  0  0  0  0  0  0
   -0.5100   -0.3770   -1.4810 C   0  0  0  0  0  0  0  0  0  0  0  0
   -0.1390    0.1230   -2.5680 O   0  0  0  0  0  0  0  0  0  0  0  0
   -1.9340   -0.5870   -1.2660 C   0  0  0  0  0  0  0  0  0  0  0  0
   -2.6730    0.4050   -0.7100 C   0  0  0  0  0  0  0  0  0  0  0  0
   -2.0580    1.7130   -0.3210 C   0  0  0  0  0  0  0  0  0  0  0  0
   -4.0750    0.2190   -0.4800 C   0  0  0  0  0  0  0  0  0  0  0  0
   -4.7470    1.3780    0.0880 C   0  0  0  0  0  0  0  0  0  0  0  0
   -6.1060    1.4600    0.3630 N   0  0  0  0  0  0  0  0  0  0  0  0
   -6.4200    2.7950    0.9610 C   0  0  2  0  0  0  0  0  0  0  0  0
   -7.6960    2.6300    1.7530 C   0  0  0  0  0  0  0  0  0  0  0  0
   -6.5510    3.8430   -0.0950 C   0  0  0  0  0  0  0  0  0  0  0  0
   -4.5700   -0.9910   -0.8530 C   0  0  0  0  0  0  0  0  0  0  0  0
   -5.9680   -1.3620   -0.6150 C   0  0  1  0  0  0  0  0  0  0  0  0
   -6.3120   -2.6250   -1.4570 C   0  0  0  0  0  0  0  0  0  0  0  0
   -7.8090   -2.8710   -1.2820 C   0  0  0  0  0  0  0  0  0  0  0  0
   -8.3990   -2.1700   -0.1950 N   0  0  1  0  0  0  0  0  0  0  0  0
   -8.9390   -0.9980   -0.6340 F   0  0  0  0  0  0  0  0  0  0  0  0
   -9.5210   -2.9180    0.1400 F   0  0  0  0  0  0  0  0  0  0  0  0
   -7.6600   -2.0530    1.0090 C   0  0  0  0  0  0  0  0  0  0  0  0
   -6.1830   -1.8980    0.8020 C   0  0  0  0  0  0  0  0  0  0  0  0
   -3.7750   -1.9600   -1.4140 N   0  0  0  0  0  0  0  0  0  0  0  0
   -2.4740   -1.7880   -1.6280 C   0  0  0  0  0  0  0  0  0  0  0  0
   -1.7900   -2.7180   -2.1500 O   0  0  0  0  0  0  0  0  0  0  0  0
    9.2430    1.2270   -1.1720 C   0  0  0  0  0  0  0  0  0  0  0  0
   10.5440    1.3980   -0.8640 N   0  0  0  0  0  0  0  0  0  0  0  0
  1  2  1  0
  2  3  1  0
  3  4  1  0
  4  5  2  0
  4 45  1  0
  5  6  1  0
  6  7  2  0
  7  8  1  0
  7 44  1  0
  8  9  2  0
  8 10  1  0
 10 11  1  0
 11 12  2  0
 11 16  1  0
 12 13  1  0
 13 14  2  0
 14 15  1  0
 14 20  1  0
 15 16  2  0
 15 17  1  0
 17 18  1  0
 18 19  1  6
 18 20  1  0
 20 21  1  0
 21 22  2  0
 21 23  1  0
 23 24  2  0
 23 42  1  0
 24 25  1  0
 24 26  1  0
 26 27  1  0
 26 32  2  0
 27 28  1  0
 28 29  1  0
 29 30  1  6
 29 31  1  0
 33 32  1  1
 32 41  1  0
 33 34  1  0
 33 40  1  0
 34 35  1  0
 35 36  1  0
 36 37  1  6
 36 38  1  0
 36 39  1  0
 39 40  1  0
 41 42  1  0
 42 43  2  0
 44 45  2  0
M  CHG  2  28   1  36   1
M  END
