
     RDKit          3D

 46 48  0  0  0  0  0  0  0  0999 V2000
    6.5360    0.0260   -0.6820 C   0  0  0  0  0  0  0  0  0  0  0  0
    5.1550    0.0540   -0.4950 O   0  0  0  0  0  0  0  0  0  0  0  0
    4.8640    0.2780    0.7940 C   0  0  1  0  0  0  0  0  0  0  0  0
    4.0570    1.4990    1.1850 C   0  0  0  0  0  0  0  0  0  0  0  0
    3.9680    2.7270    0.8270 C   0  0  0  0  0  0  0  0  0  0  0  0
    3.1360    3.9140    1.2560 C   0  0  0  0  0  0  0  0  0  0  0  0
    1.8910    4.1160    1.5270 C   0  0  0  0  0  0  0  0  0  0  0  0
    1.0420    5.2710    1.9490 C   0  0  0  0  0  0  0  0  0  0  0  0
   -0.3630    5.1690    1.2880 C   0  0  0  0  0  0  0  0  0  0  0  0
   -0.1100    4.8060   -0.0540 O   0  0  0  0  0  0  0  0  0  0  0  0
   -0.5680    3.7140   -0.7260 C   0  0  0  0  0  0  0  0  0  0  0  0
    0.1710    2.8040   -1.2350 O   0  0  0  0  0  0  0  0  0  0  0  0
   -1.9910    3.4770   -0.9330 C   0  0  2  0  0  0  0  0  0  0  0  0
   -2.9090    4.5970   -0.6340 C   0  0  0  0  0  0  0  0  0  0  0  0
   -4.3050    4.1350   -1.0490 C   0  0  0  0  0  0  0  0  0  0  0  0
   -4.6600    2.7980   -0.4740 C   0  0  0  0  0  0  0  0  0  0  0  0
   -3.5250    1.8440   -0.5960 N   0  0  0  0  0  0  0  0  0  0  0  0
   -2.3760    2.3560   -0.0570 N   0  0  0  0  0  0  0  0  0  0  0  0
   -3.7830    0.6180   -1.2160 C   0  0  0  0  0  0  0  0  0  0  0  0
   -4.8740    0.5430   -1.8940 O   0  0  0  0  0  0  0  0  0  0  0  0
   -2.8980   -0.6140   -1.1590 C   0  0  2  0  0  0  0  0  0  0  0  0
   -2.7530   -1.0320    0.2670 C   0  0  0  0  0  0  0  0  0  0  0  0
   -4.0800   -1.3350    0.8390 C   0  0  0  0  0  0  0  0  0  0  0  0
   -4.6350   -2.5740    0.7050 C   0  0  0  0  0  0  0  0  0  0  0  0
   -5.8820   -2.8630    1.2540 C   0  0  0  0  0  0  0  0  0  0  0  0
   -6.5850   -1.9090    1.9460 C   0  0  0  0  0  0  0  0  0  0  0  0
   -6.0300   -0.6560    2.0860 C   0  0  0  0  0  0  0  0  0  0  0  0
   -6.7510    0.2950    2.7870 O   0  0  0  0  0  0  0  0  0  0  0  0
   -4.7770   -0.3790    1.5290 C   0  0  0  0  0  0  0  0  0  0  0  0
   -1.7070   -0.4110   -1.9170 N   0  0  0  0  0  0  0  0  0  0  0  0
   -0.9100   -1.1680   -2.7620 C   0  0  0  0  0  0  0  0  0  0  0  0
   -0.9290   -0.8590   -4.0320 O   0  0  0  0  0  0  0  0  0  0  0  0
    0.0100   -2.3050   -2.5420 C   0  0  2  0  0  0  0  0  0  0  0  0
   -0.4550   -3.3650   -1.6070 C   0  0  1  0  0  0  0  0  0  0  0  0
   -1.7710   -3.8930   -2.1640 C   0  0  0  0  0  0  0  0  0  0  0  0
    0.5110   -4.5450   -1.8280 C   0  0  0  0  0  0  0  0  0  0  0  0
    1.3310   -1.7780   -2.2330 N   0  0  0  0  0  0  0  0  0  0  0  0
    1.9600   -1.5110   -1.0210 C   0  0  0  0  0  0  0  0  0  0  0  0
    2.1060   -0.2710   -0.6500 O   0  0  0  0  0  0  0  0  0  0  0  0
    2.5400   -2.4000    0.0070 C   0  0  2  0  0  0  0  0  0  0  0  0
    1.7850   -2.3750    1.3040 C   0  0  0  0  0  0  0  0  0  0  0  0
    4.0330   -2.0110    0.2610 C   0  0  2  0  0  0  0  0  0  0  0  0
    4.7280   -3.1800    0.5610 O   0  0  0  0  0  0  0  0  0  0  0  0
    5.5660   -3.5850   -0.4610 C   0  0  0  0  0  0  0  0  0  0  0  0
    4.1800   -0.9980    1.3130 C   0  0  1  0  0  0  0  0  0  0  0  0
    4.9650   -1.4940    2.5170 C   0  0  0  0  0  0  0  0  0  0  0  0
  1  2  1  0
  3  2  1  6
  3  4  1  0
  3 45  1  0
  4  5  2  0
  5  6  1  0
  6  7  2  0
  7  8  1  0
  8  9  1  0
  9 10  1  0
 10 11  1  0
 11 12  2  0
 11 13  1  0
 13 14  1  1
 13 18  1  0
 14 15  1  0
 15 16  1  0
 16 17  1  0
 17 18  1  0
 17 19  1  0
 19 20  2  0
 19 21  1  0
 21 22  1  1
 21 30  1  0
 22 23  1  0
 23 24  2  0
 23 29  1  0
 24 25  1  0
 25 26  2  0
 26 27  1  0
 27 28  1  0
 27 29  2  0
 30 31  1  0
 31 32  2  0
 31 33  1  0
 33 34  1  0
 33 37  1  1
 34 35  1  6
 34 36  1  0
 37 38  1  0
 38 39  2  0
 38 40  1  0
 40 41  1  1
 40 42  1  0
 42 43  1  1
 42 45  1  0
 43 44  1  0
 45 46  1  1
M  CHG  1  18   1
M  END
