
     RDKit          3D

 46 50  0  0  0  0  0  0  0  0999 V2000
    9.0780   -3.4050   -0.4630 C   0  0  0  0  0  0  0  0  0  0  0  0
    8.8990   -2.4340    0.6890 C   0  0  0  0  0  0  0  0  0  0  0  0
    7.9810   -1.4140    0.3100 O   0  0  0  0  0  0  0  0  0  0  0  0
    6.6710   -1.7240   -0.0630 C   0  0  0  0  0  0  0  0  0  0  0  0
    5.7690   -0.7540   -0.4320 C   0  0  0  0  0  0  0  0  0  0  0  0
    4.4690   -1.0310   -0.8050 C   0  0  0  0  0  0  0  0  0  0  0  0
    3.5580    0.0870   -1.1980 C   0  0  0  0  0  0  0  0  0  0  0  0
    2.9300    0.7050    0.0030 N   0  0  0  0  0  0  0  0  0  0  0  0
    1.9810   -0.1270    0.5590 C   0  0  0  0  0  0  0  0  0  0  0  0
    2.4340   -1.1010    1.4520 C   0  0  0  0  0  0  0  0  0  0  0  0
    1.6130   -2.0500    2.0240 C   0  0  0  0  0  0  0  0  0  0  0  0
    0.2820   -2.0880    1.7360 C   0  0  0  0  0  0  0  0  0  0  0  0
   -0.6070   -3.0090    2.2660 O   0  0  0  0  0  0  0  0  0  0  0  0
   -0.3030   -4.0270    3.1570 C   0  0  0  0  0  0  0  0  0  0  0  0
   -0.1660   -1.1280    0.8570 C   0  0  0  0  0  0  0  0  0  0  0  0
    0.6550   -0.1500    0.2700 C   0  0  0  0  0  0  0  0  0  0  0  0
    0.0530    0.8970   -0.5370 C   0  0  2  0  0  0  0  0  0  0  0  0
    0.1100    2.1970    0.1730 N   0  0  2  0  0  0  0  0  0  0  0  0
   -1.0220    2.4490    1.0220 C   0  0  0  0  0  0  0  0  0  0  0  0
    0.2210    3.2780   -0.7450 C   0  0  0  0  0  0  0  0  0  0  0  0
    0.8500    4.5060   -0.2320 C   0  0  0  0  0  0  0  0  0  0  0  0
    1.3080    4.6230    1.0530 C   0  0  0  0  0  0  0  0  0  0  0  0
    1.9040    5.7960    1.5150 C   0  0  0  0  0  0  0  0  0  0  0  0
    2.3470    5.8750    2.8020 F   0  0  0  0  0  0  0  0  0  0  0  0
    2.0560    6.8870    0.6930 C   0  0  0  0  0  0  0  0  0  0  0  0
    1.6010    6.7860   -0.6010 C   0  0  0  0  0  0  0  0  0  0  0  0
    1.0160    5.6230   -1.0410 C   0  0  0  0  0  0  0  0  0  0  0  0
    0.6020    5.6260   -2.3500 F   0  0  0  0  0  0  0  0  0  0  0  0
   -1.3990    0.7030   -0.8050 C   0  0  0  0  0  0  0  0  0  0  0  0
   -2.1420   -0.3440   -0.1320 C   0  0  0  0  0  0  0  0  0  0  0  0
   -3.4350   -0.9780   -0.3270 N   0  0  0  0  0  0  0  0  0  0  0  0
   -4.5350   -0.2230   -0.0180 C   0  0  0  0  0  0  0  0  0  0  0  0
   -4.1110    0.8940    0.6140 O   0  0  0  0  0  0  0  0  0  0  0  0
   -5.8760   -0.3330   -0.1800 N   0  0  0  0  0  0  0  0  0  0  0  0
   -6.7180    0.7510    0.4420 C   0  0  0  0  0  0  0  0  0  0  0  0
   -7.4890    1.3300   -0.6830 C   0  0  0  0  0  0  0  0  0  0  0  0
   -7.7300    2.5520   -0.6720 O   0  0  0  0  0  0  0  0  0  0  0  0
   -7.9420    0.4780   -1.7560 N   0  0  0  0  0  0  0  0  0  0  0  0
   -7.1940   -0.6800   -2.1460 C   0  0  0  0  0  0  0  0  0  0  0  0
   -6.6300   -1.3290   -0.8570 C   0  0  1  0  0  0  0  0  0  0  0  0
   -5.8990   -2.5720   -1.2380 C   0  0  0  0  0  0  0  0  0  0  0  0
   -6.9030   -3.5310   -1.9050 C   0  0  0  0  0  0  0  0  0  0  0  0
   -1.5010   -1.1300    0.5900 N   0  0  0  0  0  0  0  0  0  0  0  0
    4.0600   -2.3420   -0.8050 C   0  0  0  0  0  0  0  0  0  0  0  0
    4.9600   -3.3130   -0.4370 C   0  0  0  0  0  0  0  0  0  0  0  0
    6.2180   -2.9990   -0.0800 N   0  0  0  0  0  0  0  0  0  0  0  0
  1  2  1  0
  2  3  1  0
  3  4  1  0
  4  5  2  0
  4 46  1  0
  5  6  1  0
  6  7  1  0
  6 44  2  0
  7  8  1  0
  8  9  1  0
  9 10  2  0
  9 16  1  0
 10 11  1  0
 11 12  2  0
 12 13  1  0
 12 15  1  0
 13 14  1  0
 15 16  2  0
 15 43  1  0
 16 17  1  0
 17 18  1  0
 17 29  1  1
 18 19  1  6
 18 20  1  0
 20 21  1  0
 21 22  2  0
 21 27  1  0
 22 23  1  0
 23 24  1  0
 23 25  2  0
 25 26  1  0
 26 27  2  0
 27 28  1  0
 29 30  1  0
 30 31  1  0
 30 43  2  0
 31 32  1  0
 32 33  2  0
 32 34  1  0
 34 35  1  0
 34 40  1  0
 35 36  1  0
 36 37  2  0
 36 38  1  0
 38 39  1  0
 39 40  1  0
 40 41  1  6
 41 42  1  0
 44 45  1  0
 45 46  2  0
M  CHG  2   8   1  18   1
M  END
