
     RDKit          3D

 46 50  0  0  0  0  0  0  0  0999 V2000
    2.1860    0.8820    1.6730 C   0  0  0  0  0  0  0  0  0  0  0  0
    2.3190   -0.0810    0.5420 C   0  0  0  0  0  0  0  0  0  0  0  0
    3.3940   -0.8660    0.4240 N   0  0  0  0  0  0  0  0  0  0  0  0
    3.5620   -1.7450   -0.5740 C   0  0  0  0  0  0  0  0  0  0  0  0
    4.7980   -2.6050   -0.6170 C   0  0  0  0  0  0  0  0  0  0  0  0
    5.9980   -1.8670   -0.8400 N   0  0  2  0  0  0  0  0  0  0  0  0
    7.0400   -2.4190   -0.0010 C   0  0  0  0  0  0  0  0  0  0  0  0
    8.1730   -1.4210   -0.2070 C   0  0  0  0  0  0  0  0  0  0  0  0
    7.4210   -0.1200   -0.3570 C   0  0  0  0  0  0  0  0  0  0  0  0
    5.9380   -0.5120   -0.3140 C   0  0  0  0  0  0  0  0  0  0  0  0
    2.5960   -1.8250   -1.4870 N   0  0  0  0  0  0  0  0  0  0  0  0
    2.7490   -2.7410   -2.5830 C   0  0  0  0  0  0  0  0  0  0  0  0
    1.4540   -1.0440   -1.4320 C   0  0  0  0  0  0  0  0  0  0  0  0
    0.6540   -1.2500   -2.3740 O   0  0  0  0  0  0  0  0  0  0  0  0
    1.3000   -0.1750   -0.4340 C   0  0  0  0  0  0  0  0  0  0  0  0
    0.1760    0.7350   -0.1850 C   0  0  0  0  0  0  0  0  0  0  0  0
   -0.9350    0.7750   -1.0190 N   0  0  2  0  0  0  0  0  0  0  0  0
   -1.6560    1.9390   -1.3080 C   0  0  0  0  0  0  0  0  0  0  0  0
   -1.3780    3.2350   -0.7380 C   0  0  0  0  0  0  0  0  0  0  0  0
   -0.4900    3.5040    0.0720 O   0  0  0  0  0  0  0  0  0  0  0  0
   -2.1970    4.3820   -1.1290 N   0  0  0  0  0  0  0  0  0  0  0  0
   -1.9290    5.6760   -0.6140 C   0  0  0  0  0  0  0  0  0  0  0  0
   -0.6400    6.1500   -0.4250 C   0  0  0  0  0  0  0  0  0  0  0  0
   -0.3790    7.4090    0.0830 C   0  0  0  0  0  0  0  0  0  0  0  0
   -1.4650    8.2300    0.4180 C   0  0  0  0  0  0  0  0  0  0  0  0
   -2.7190    7.7770    0.2360 C   0  0  0  0  0  0  0  0  0  0  0  0
   -2.9770    6.4940   -0.2830 C   0  0  0  0  0  0  0  0  0  0  0  0
   -1.9060   -0.2650   -0.5670 C   0  0  0  0  0  0  0  0  0  0  0  0
   -2.3890   -0.0680    0.7980 C   0  0  0  0  0  0  0  0  0  0  0  0
   -2.0780    0.8780    1.4950 O   0  0  0  0  0  0  0  0  0  0  0  0
   -3.2830   -1.0170    1.4540 N   0  0  0  0  0  0  0  0  0  0  0  0
   -3.3880   -0.9010    2.8860 C   0  0  0  0  0  0  0  0  0  0  0  0
   -3.5210   -2.1690    3.6230 C   0  0  0  0  0  0  0  0  0  0  0  0
   -3.9480   -2.0600    4.8330 O   0  0  0  0  0  0  0  0  0  0  0  0
   -3.2540   -3.4910    3.2180 N   0  0  0  0  0  0  0  0  0  0  0  0
   -3.6430   -4.0980    1.9760 C   0  0  0  0  0  0  0  0  0  0  0  0
   -3.7370   -5.3880    1.7570 C   0  0  0  0  0  0  0  0  0  0  0  0
   -4.1680   -5.6240    0.3480 C   0  0  0  0  0  0  0  0  0  0  0  0
   -4.3010   -4.2460   -0.2210 C   0  0  0  0  0  0  0  0  0  0  0  0
   -4.0020   -3.4030    0.7130 C   0  0  0  0  0  0  0  0  0  0  0  0
   -4.0100   -1.9040    0.6070 C   0  0  0  0  0  0  0  0  0  0  0  0
   -4.8260   -1.4290   -0.2660 C   0  0  0  0  0  0  0  0  0  0  0  0
   -5.1070   -0.0280   -0.4960 C   0  0  0  0  0  0  0  0  0  0  0  0
   -5.9870    0.3430   -1.4350 C   0  0  0  0  0  0  0  0  0  0  0  0
   -6.2660    1.6360   -1.6700 F   0  0  0  0  0  0  0  0  0  0  0  0
   -6.6060   -0.6190   -2.1430 F   0  0  0  0  0  0  0  0  0  0  0  0
  1  2  1  0
  2  3  1  0
  2 15  2  0
  3  4  2  0
  4  5  1  0
  4 11  1  0
  6  5  1  1
  6  7  1  0
  6 10  1  0
  7  8  1  0
  8  9  1  0
  9 10  1  0
 11 12  1  0
 11 13  1  0
 13 14  2  0
 13 15  1  0
 15 16  1  0
 17 16  1  1
 17 18  1  0
 17 28  1  0
 18 19  1  0
 19 20  2  0
 19 21  1  0
 21 22  1  0
 22 23  2  0
 22 27  1  0
 23 24  1  0
 24 25  2  0
 25 26  1  0
 26 27  2  0
 28 29  1  0
 29 30  2  0
 29 31  1  0
 31 32  1  0
 31 41  1  0
 32 33  1  0
 33 34  2  0
 33 35  1  0
 35 36  1  0
 36 37  2  0
 36 40  1  0
 37 38  1  0
 38 39  1  0
 39 40  2  0
 40 41  1  0
 41 42  2  3
 42 43  1  0
 43 44  2  3
 44 45  1  0
 44 46  1  0
M  CHG  2   6   1  17   1
M  END
