
     RDKit          3D

 46 51  0  0  0  0  0  0  0  0999 V2000
    1.5300    7.5690   -3.3560 C   0  0  0  0  0  0  0  0  0  0  0  0
    1.3200    6.7650   -2.0890 C   0  0  0  0  0  0  0  0  0  0  0  0
   -0.0420    6.4070   -1.9340 O   0  0  0  0  0  0  0  0  0  0  0  0
   -0.4570    5.6570   -0.8370 C   0  0  0  0  0  0  0  0  0  0  0  0
    0.4230    5.2360    0.1390 C   0  0  0  0  0  0  0  0  0  0  0  0
   -0.0140    4.4800    1.2330 C   0  0  0  0  0  0  0  0  0  0  0  0
   -1.3280    4.1200    1.3910 C   0  0  0  0  0  0  0  0  0  0  0  0
   -1.8370    3.3180    2.5100 C   0  0  0  0  0  0  0  0  0  0  0  0
   -1.6530    1.9180    2.4410 N   0  0  2  0  0  0  0  0  0  0  0  0
   -0.2570    1.5080    2.4330 C   0  0  0  0  0  0  0  0  0  0  0  0
   -0.4110    0.0510    2.0650 C   0  0  2  0  0  0  0  0  0  0  0  0
    0.8000   -0.5470    1.5640 N   0  0  0  0  0  0  0  0  0  0  0  0
    1.3270   -1.7640    2.0190 C   0  0  0  0  0  0  0  0  0  0  0  0
    0.6020   -2.3120    2.9390 O   0  0  0  0  0  0  0  0  0  0  0  0
    2.5430   -2.4410    1.5850 C   0  0  0  0  0  0  0  0  0  0  0  0
    2.8820   -3.7520    1.9780 C   0  0  0  0  0  0  0  0  0  0  0  0
    4.0290   -4.0460    1.4190 N   0  0  0  0  0  0  0  0  0  0  0  0
    4.4220   -3.0070    0.7070 N   0  0  0  0  0  0  0  0  0  0  0  0
    3.5510   -1.9950    0.7710 C   0  0  0  0  0  0  0  0  0  0  0  0
    3.6770   -0.7110    0.0940 C   0  0  0  0  0  0  0  0  0  0  0  0
    4.9270   -0.5590   -0.6750 N   0  0  2  0  0  0  0  0  0  0  0  0
    4.9940   -1.3530   -1.8440 C   0  0  0  0  0  0  0  0  0  0  0  0
    6.3520   -1.8270   -2.2320 C   0  0  0  0  0  0  0  0  0  0  0  0
    7.4140   -0.9920   -1.7190 N   0  0  0  0  0  0  0  0  0  0  0  0
    7.3340   -1.0710   -0.2770 C   0  0  0  0  0  0  0  0  0  0  0  0
    6.0580   -0.4790    0.1760 C   0  0  0  0  0  0  0  0  0  0  0  0
   -1.5370    0.1050    1.1340 C   0  0  0  0  0  0  0  0  0  0  0  0
   -2.2390    1.2130    1.3910 C   0  0  0  0  0  0  0  0  0  0  0  0
   -3.4490    1.4610    0.5720 C   0  0  0  0  0  0  0  0  0  0  0  0
   -4.2600    0.1740    0.5450 C   0  0  0  0  0  0  0  0  0  0  0  0
   -3.4350   -0.8550   -0.0350 N   0  0  0  0  0  0  0  0  0  0  0  0
   -4.0220   -1.9590   -0.7020 C   0  0  0  0  0  0  0  0  0  0  0  0
   -3.2790   -2.8690   -1.2100 O   0  0  0  0  0  0  0  0  0  0  0  0
   -5.3840   -2.1530   -0.8610 O   0  0  0  0  0  0  0  0  0  0  0  0
   -5.9380   -3.2550   -1.5080 C   0  0  0  0  0  0  0  0  0  0  0  0
   -5.7000   -4.5610   -0.9070 C   0  0  0  0  0  0  0  0  0  0  0  0
   -5.0340   -4.7680    0.2670 C   0  0  0  0  0  0  0  0  0  0  0  0
   -4.8640   -6.0570    0.7950 C   0  0  0  0  0  0  0  0  0  0  0  0
   -5.3820   -7.1380    0.1140 C   0  0  0  0  0  0  0  0  0  0  0  0
   -6.0530   -6.9470   -1.0640 C   0  0  0  0  0  0  0  0  0  0  0  0
   -6.2070   -5.6650   -1.5650 C   0  0  0  0  0  0  0  0  0  0  0  0
   -6.8750   -5.5160   -2.7260 F   0  0  0  0  0  0  0  0  0  0  0  0
   -1.9880   -0.7970    0.0440 C   0  0  0  0  0  0  0  0  0  0  0  0
   -2.2030    4.5470    0.4110 C   0  0  0  0  0  0  0  0  0  0  0  0
   -1.7820    5.2950   -0.6750 C   0  0  0  0  0  0  0  0  0  0  0  0
   -2.6550    5.7110   -1.6350 F   0  0  0  0  0  0  0  0  0  0  0  0
  1  2  1  0
  2  3  1  0
  3  4  1  0
  4  5  2  0
  4 45  1  0
  5  6  1  0
  6  7  2  0
  7  8  1  0
  7 44  1  0
  9  8  1  6
  9 10  1  0
  9 28  1  0
 10 11  1  0
 11 12  1  6
 11 27  1  0
 12 13  1  0
 13 14  2  0
 13 15  1  0
 15 16  1  0
 15 19  2  0
 16 17  2  0
 17 18  1  0
 18 19  1  0
 19 20  1  0
 21 20  1  1
 21 22  1  0
 21 26  1  0
 22 23  1  0
 23 24  1  0
 24 25  1  0
 25 26  1  0
 27 28  2  0
 27 43  1  0
 28 29  1  0
 29 30  1  0
 30 31  1  0
 31 32  1  0
 31 43  1  0
 32 33  2  0
 32 34  1  0
 34 35  1  0
 35 36  1  0
 36 37  2  0
 36 41  1  0
 37 38  1  0
 38 39  2  0
 39 40  1  0
 40 41  2  0
 41 42  1  0
 44 45  2  0
 45 46  1  0
M  CHG  2   9   1  21   1
M  END
