
     RDKit          3D

 46 50  0  0  0  0  0  0  0  0999 V2000
    8.6300    0.9630    1.1610 C   0  0  0  0  0  0  0  0  0  0  0  0
    7.2120    0.4170    1.3570 C   0  0  0  0  0  0  0  0  0  0  0  0
    7.2230   -0.9210    1.8570 N   0  0  2  0  0  0  0  0  0  0  0  0
    8.5460   -1.2890    2.3220 C   0  0  0  0  0  0  0  0  0  0  0  0
    6.6700   -1.9020    0.9450 C   0  0  0  0  0  0  0  0  0  0  0  0
    5.5710   -1.3710    0.1270 C   0  0  0  0  0  0  0  0  0  0  0  0
    5.8060   -1.0480   -1.1960 C   0  0  0  0  0  0  0  0  0  0  0  0
    4.8120   -0.5460   -2.0000 C   0  0  0  0  0  0  0  0  0  0  0  0
    3.5300   -0.3600   -1.4570 C   0  0  0  0  0  0  0  0  0  0  0  0
    3.2500   -0.6650   -0.1580 C   0  0  0  0  0  0  0  0  0  0  0  0
    1.9830   -0.5070    0.4240 N   0  0  0  0  0  0  0  0  0  0  0  0
    0.7800   -0.2410   -0.2510 C   0  0  0  0  0  0  0  0  0  0  0  0
    0.7330   -0.1230   -1.4750 O   0  0  0  0  0  0  0  0  0  0  0  0
   -0.4720   -0.0880    0.4470 N   0  0  0  0  0  0  0  0  0  0  0  0
   -1.6670    0.1770   -0.2330 N   0  0  0  0  0  0  0  0  0  0  0  0
   -2.3350   -0.9750   -0.8170 C   0  0  0  0  0  0  0  0  0  0  0  0
   -1.7800   -2.0830   -0.6630 O   0  0  0  0  0  0  0  0  0  0  0  0
   -3.5790   -0.8750   -1.5440 C   0  0  0  0  0  0  0  0  0  0  0  0
   -4.0630   -2.1590   -2.0200 N   0  0  0  0  0  0  0  0  0  0  0  0
   -3.6910   -2.7080   -3.2750 C   0  0  0  0  0  0  0  0  0  0  0  0
   -3.1620   -2.0010   -4.1410 O   0  0  0  0  0  0  0  0  0  0  0  0
   -3.9440   -4.1640   -3.5540 C   0  0  0  0  0  0  0  0  0  0  0  0
   -5.0020   -4.6660   -2.7160 N   0  0  0  0  0  0  0  0  0  0  0  0
   -4.7070   -4.3720   -1.3800 N   0  0  0  0  0  0  0  0  0  0  0  0
   -4.9700   -2.9290   -1.2200 C   0  0  1  0  0  0  0  0  0  0  0  0
   -5.0780   -2.5270    0.1860 C   0  0  0  0  0  0  0  0  0  0  0  0
   -6.1030   -1.6230    0.5000 C   0  0  0  0  0  0  0  0  0  0  0  0
   -6.2280   -1.2440    1.8080 C   0  0  0  0  0  0  0  0  0  0  0  0
   -5.3970   -1.7120    2.8030 C   0  0  0  0  0  0  0  0  0  0  0  0
   -4.3990   -2.5990    2.4660 C   0  0  0  0  0  0  0  0  0  0  0  0
   -4.2430   -3.0000    1.1730 C   0  0  0  0  0  0  0  0  0  0  0  0
   -2.2080    1.4540   -0.3590 C   0  0  0  0  0  0  0  0  0  0  0  0
   -3.2990    1.4720   -1.0420 O   0  0  0  0  0  0  0  0  0  0  0  0
   -1.7180    2.7090    0.1600 C   0  0  0  0  0  0  0  0  0  0  0  0
   -0.6360    2.8390    0.8860 C   0  0  0  0  0  0  0  0  0  0  0  0
   -0.0690    4.0800    1.4500 C   0  0  1  0  0  0  0  0  0  0  0  0
    0.2200    3.9310    2.8030 F   0  0  0  0  0  0  0  0  0  0  0  0
    1.2020    4.2510    0.8580 F   0  0  0  0  0  0  0  0  0  0  0  0
   -0.8150    5.3180    1.2350 C   0  0  0  0  0  0  0  0  0  0  0  0
   -2.0020    5.1930    0.3900 C   0  0  0  0  0  0  0  0  0  0  0  0
   -2.6720    6.3840    0.1230 C   0  0  0  0  0  0  0  0  0  0  0  0
   -3.8070    6.3990   -0.6450 C   0  0  0  0  0  0  0  0  0  0  0  0
   -4.2740    5.2190   -1.1490 C   0  0  0  0  0  0  0  0  0  0  0  0
   -3.5790    4.0270   -0.8660 C   0  0  0  0  0  0  0  0  0  0  0  0
   -2.4420    3.9890   -0.1000 C   0  0  0  0  0  0  0  0  0  0  0  0
    4.3180   -1.1730    0.6000 C   0  0  0  0  0  0  0  0  0  0  0  0
  1  2  1  0
  2  3  1  0
  3  4  1  6
  3  5  1  0
  5  6  1  0
  6  7  2  0
  6 46  1  0
  7  8  1  0
  8  9  2  0
  9 10  1  0
 10 11  1  0
 10 46  2  0
 11 12  1  0
 12 13  2  0
 12 14  1  0
 14 15  1  0
 15 16  1  0
 15 32  1  0
 16 17  2  0
 16 18  1  0
 18 19  1  0
 19 20  1  0
 19 25  1  0
 20 21  2  0
 20 22  1  0
 22 23  1  0
 23 24  1  0
 24 25  1  0
 25 26  1  1
 26 27  2  0
 26 31  1  0
 27 28  1  0
 28 29  2  0
 29 30  1  0
 30 31  2  0
 32 33  2  0
 32 34  1  0
 34 35  2  0
 34 45  1  0
 35 36  1  0
 36 37  1  1
 36 38  1  0
 36 39  1  0
 39 40  1  0
 40 41  2  0
 40 45  1  0
 41 42  1  0
 42 43  2  0
 43 44  1  0
 44 45  2  0
M  CHG  2   3   1  23   1
M  END
