
     RDKit          3D

 40 44  0  0  0  0  0  0  0  0999 V2000
   -3.3770    4.6320   -1.5340 C   0  0  0  0  0  0  0  0  0  0  0  0
   -2.9520    4.1510   -0.1740 C   0  0  0  0  0  0  0  0  0  0  0  0
   -1.7340    3.2680   -0.1970 C   0  0  2  0  0  0  0  0  0  0  0  0
   -1.4790    2.9110    1.1450 O   0  0  0  0  0  0  0  0  0  0  0  0
   -0.5050    4.0250   -0.6490 C   0  0  0  0  0  0  0  0  0  0  0  0
   -0.3360    5.1240    0.3340 C   0  0  0  0  0  0  0  0  0  0  0  0
   -0.1910    5.9820    1.0840 N   0  0  0  0  0  0  0  0  0  0  0  0
   -1.9670    2.0060   -0.9620 C   0  0  0  0  0  0  0  0  0  0  0  0
   -0.8110    1.0960   -0.9270 N   0  0  0  0  0  0  0  0  0  0  0  0
    0.2550    1.0680   -1.8530 C   0  0  0  0  0  0  0  0  0  0  0  0
    0.3730    1.8300   -2.8740 O   0  0  0  0  0  0  0  0  0  0  0  0
    1.1700    0.0240   -1.4240 C   0  0  0  0  0  0  0  0  0  0  0  0
    2.3660   -0.2940   -2.1170 O   0  0  0  0  0  0  0  0  0  0  0  0
    3.6210   -0.1500   -1.5340 C   0  0  0  0  0  0  0  0  0  0  0  0
    3.8320    0.7230   -0.5720 C   0  0  0  0  0  0  0  0  0  0  0  0
    5.1230    0.9090    0.0670 C   0  0  0  0  0  0  0  0  0  0  0  0
    6.2410    0.1800   -0.2860 C   0  0  0  0  0  0  0  0  0  0  0  0
    7.4790    0.3650    0.3360 C   0  0  0  0  0  0  0  0  0  0  0  0
    7.6200    1.2950    1.3350 C   0  0  0  0  0  0  0  0  0  0  0  0
    6.5040    2.0220    1.6870 C   0  0  0  0  0  0  0  0  0  0  0  0
    5.2980    1.8360    1.0750 C   0  0  0  0  0  0  0  0  0  0  0  0
    0.7080   -0.5430   -0.3310 C   0  0  0  0  0  0  0  0  0  0  0  0
    1.4620   -1.6600    0.3340 C   0  0  1  0  0  0  0  0  0  0  0  0
    1.7160   -1.2850    1.6770 O   0  0  0  0  0  0  0  0  0  0  0  0
    0.7470   -2.9540    0.2950 C   0  0  0  0  0  0  0  0  0  0  0  0
    1.0420   -3.8770    1.2870 C   0  0  0  0  0  0  0  0  0  0  0  0
    0.4350   -5.1160    1.3020 C   0  0  0  0  0  0  0  0  0  0  0  0
   -0.4820   -5.4950    0.3440 C   0  0  0  0  0  0  0  0  0  0  0  0
   -0.7770   -4.5860   -0.6400 C   0  0  0  0  0  0  0  0  0  0  0  0
   -0.1600   -3.3470   -0.6420 C   0  0  0  0  0  0  0  0  0  0  0  0
   -0.5420    0.0720    0.0400 C   0  0  2  0  0  0  0  0  0  0  0  0
   -1.7010   -0.7730    0.3300 C   0  0  0  0  0  0  0  0  0  0  0  0
   -1.8700   -1.2260    1.6220 C   0  0  0  0  0  0  0  0  0  0  0  0
   -2.9380   -2.0050    2.0170 C   0  0  0  0  0  0  0  0  0  0  0  0
   -3.8970   -2.3560    1.0760 C   0  0  0  0  0  0  0  0  0  0  0  0
   -3.7500   -1.9170   -0.2160 C   0  0  0  0  0  0  0  0  0  0  0  0
   -2.6690   -1.1350   -0.5890 C   0  0  0  0  0  0  0  0  0  0  0  0
   -4.9050   -2.4390   -0.9860 C   0  0  0  0  0  0  0  0  0  0  0  0
   -5.9020   -2.7930    0.0800 C   0  0  0  0  0  0  0  0  0  0  0  0
   -5.0700   -3.1270    1.1970 O   0  0  0  0  0  0  0  0  0  0  0  0
  1  2  1  0
  2  3  1  0
  3  4  1  1
  3  5  1  0
  3  8  1  0
  5  6  1  0
  6  7  3  0
  8  9  1  0
  9 10  1  0
  9 31  1  0
 10 11  2  0
 10 12  1  0
 12 13  1  0
 12 22  2  0
 13 14  1  0
 14 15  2  3
 15 16  1  0
 16 17  2  0
 16 21  1  0
 17 18  1  0
 18 19  2  0
 19 20  1  0
 20 21  2  0
 22 23  1  0
 22 31  1  0
 23 24  1  1
 23 25  1  0
 25 26  2  0
 25 30  1  0
 26 27  1  0
 27 28  2  0
 28 29  1  0
 29 30  2  0
 31 32  1  6
 32 33  2  0
 32 37  1  0
 33 34  1  0
 34 35  2  0
 35 36  1  0
 35 40  1  0
 36 37  2  0
 36 38  1  0
 38 39  1  0
 39 40  1  0
M  END
