
     RDKit          3D

 40 44  0  0  0  0  0  0  0  0999 V2000
    7.3910   -2.5670    2.3660 C   0  0  0  0  0  0  0  0  0  0  0  0
    7.7190   -3.2880    1.3080 C   0  0  0  0  0  0  0  0  0  0  0  0
    7.4310   -2.8000   -0.0670 C   0  0  0  0  0  0  0  0  0  0  0  0
    6.8160   -1.5710   -0.0260 O   0  0  0  0  0  0  0  0  0  0  0  0
    6.5330   -1.0830   -1.2880 C   0  0  2  0  0  0  0  0  0  0  0  0
    7.2140    0.2130   -1.5840 C   0  0  0  0  0  0  0  0  0  0  0  0
    6.2850    1.3450   -1.2710 C   0  0  0  0  0  0  0  0  0  0  0  0
    5.3360    1.0210   -0.1430 C   0  0  0  0  0  0  0  0  0  0  0  0
    4.3540   -0.0690   -0.5410 C   0  0  1  0  0  0  0  0  0  0  0  0
    3.1960    0.5890   -1.1100 N   0  0  0  0  0  0  0  0  0  0  0  0
    1.9510    0.5790   -0.4370 C   0  0  0  0  0  0  0  0  0  0  0  0
    1.9160   -0.0220    0.6660 O   0  0  0  0  0  0  0  0  0  0  0  0
    0.7720    1.1810   -0.9050 N   0  0  0  0  0  0  0  0  0  0  0  0
   -0.4980    1.1780   -0.2200 C   0  0  1  0  0  0  0  0  0  0  0  0
   -0.7930    2.5790    0.1300 C   0  0  0  0  0  0  0  0  0  0  0  0
   -1.9620    3.2460   -0.1150 C   0  0  0  0  0  0  0  0  0  0  0  0
   -2.1160    4.5810    0.2810 C   0  0  0  0  0  0  0  0  0  0  0  0
   -1.1140    5.2710    0.9230 C   0  0  0  0  0  0  0  0  0  0  0  0
    0.0620    4.6070    1.1700 C   0  0  0  0  0  0  0  0  0  0  0  0
    0.2100    3.2780    0.7740 C   0  0  0  0  0  0  0  0  0  0  0  0
    0.9730    5.5530    1.8540 C   0  0  0  0  0  0  0  0  0  0  0  0
    0.0390    6.5110    2.5440 C   0  0  0  0  0  0  0  0  0  0  0  0
   -1.0300    6.6810    1.4500 C   0  0  0  0  0  0  0  0  0  0  0  0
   -1.5890    0.4200   -0.8620 C   0  0  1  0  0  0  0  0  0  0  0  0
   -1.2790   -1.0490   -0.8260 C   0  0  0  0  0  0  0  0  0  0  0  0
   -2.6300   -1.6910   -0.6230 C   0  0  0  0  0  0  0  0  0  0  0  0
   -3.5130   -0.6250   -0.1350 C   0  0  0  0  0  0  0  0  0  0  0  0
   -4.7950   -0.7350    0.1590 C   0  0  0  0  0  0  0  0  0  0  0  0
   -5.5080   -1.9860    0.0230 C   0  0  0  0  0  0  0  0  0  0  0  0
   -4.8620   -2.9980   -0.3930 O   0  0  0  0  0  0  0  0  0  0  0  0
   -6.8630   -2.0880    0.3390 O   0  0  0  0  0  0  0  0  0  0  0  0
   -7.4840   -3.3080    0.1890 C   0  0  0  0  0  0  0  0  0  0  0  0
   -7.4700   -4.2070    1.2280 C   0  0  0  0  0  0  0  0  0  0  0  0
   -8.0940   -5.4510    1.1000 C   0  0  0  0  0  0  0  0  0  0  0  0
   -8.7130   -5.7360   -0.0870 C   0  0  0  0  0  0  0  0  0  0  0  0
   -8.7290   -4.8360   -1.1320 C   0  0  0  0  0  0  0  0  0  0  0  0
   -8.1080   -3.6040   -0.9980 C   0  0  0  0  0  0  0  0  0  0  0  0
   -8.1470   -2.6580   -2.1480 C   0  0  0  0  0  0  0  0  0  0  0  0
   -2.7350    0.5140   -0.0420 O   0  0  0  0  0  0  0  0  0  0  0  0
    5.0270   -1.0130   -1.4810 C   0  0  0  0  0  0  0  0  0  0  0  0
  1  2  2  0
  2  3  1  0
  3  4  1  0
  5  4  1  1
  5  6  1  0
  5 40  1  0
  6  7  1  0
  7  8  1  0
  8  9  1  0
  9 10  1  6
  9 40  1  0
 10 11  1  0
 11 12  2  0
 11 13  1  0
 14 13  1  6
 14 15  1  0
 14 24  1  0
 15 16  2  0
 15 20  1  0
 16 17  1  0
 17 18  2  0
 18 19  1  0
 18 23  1  0
 19 20  2  0
 19 21  1  0
 21 22  1  0
 22 23  1  0
 24 25  1  1
 24 39  1  0
 25 26  1  0
 26 27  1  0
 27 28  2  3
 27 39  1  0
 28 29  1  0
 29 30  2  0
 29 31  1  0
 31 32  1  0
 32 33  2  0
 32 37  1  0
 33 34  1  0
 34 35  2  0
 35 36  1  0
 36 37  2  0
 37 38  1  0
M  END
