
     RDKit          3D

 40 43  0  0  0  0  0  0  0  0999 V2000
   -8.2210    5.3820    0.3130 N   0  0  0  0  0  0  0  0  0  0  0  0
   -9.1110    4.5060    0.0440 N   0  0  0  0  0  0  0  0  0  0  0  0
   -8.7770    3.1470    0.2310 N   0  0  0  0  0  0  0  0  0  0  0  0
   -7.4750    2.6910   -0.0150 N   0  0  0  0  0  0  0  0  0  0  0  0
   -6.9320    3.2880   -1.0810 O   0  0  0  0  0  0  0  0  0  0  0  0
   -7.5150    1.3050   -0.0850 N   0  0  0  0  0  0  0  0  0  0  0  0
   -6.2060    0.7450   -0.3880 C   0  0  1  0  0  0  0  0  0  0  0  0
   -5.5470    1.3060   -1.9170 Cl  0  0  0  0  0  0  0  0  0  0  0  0
   -5.2860    1.0800    0.7710 C   0  0  0  0  0  0  0  0  0  0  0  0
   -4.0230    0.3870    0.6220 N   0  0  0  0  0  0  0  0  0  0  0  0
   -2.9030    0.9310    1.3040 C   0  0  0  0  0  0  0  0  0  0  0  0
   -3.0510    1.9630    2.0240 O   0  0  0  0  0  0  0  0  0  0  0  0
   -1.5890    0.2960    1.1680 C   0  0  0  0  0  0  0  0  0  0  0  0
   -0.5410    1.1900   -0.0400 S   0  0  0  0  0  0  0  0  0  0  0  0
    1.0360    0.3830   -0.2190 C   0  0  0  0  0  0  0  0  0  0  0  0
    1.5430   -0.5470   -0.9850 N   0  0  0  0  0  0  0  0  0  0  0  0
    2.7410   -0.9260   -0.8470 N   0  0  0  0  0  0  0  0  0  0  0  0
    3.5410   -0.4900   -0.0170 C   0  0  0  0  0  0  0  0  0  0  0  0
    4.9120   -0.7210    0.3730 N   0  0  0  0  0  0  0  0  0  0  0  0
    5.9080   -0.5770   -0.6260 C   0  0  0  0  0  0  0  0  0  0  0  0
    7.2580   -0.4310   -0.0110 C   0  0  2  0  0  0  0  0  0  0  0  0
    7.3930    0.8120    0.8000 C   0  0  0  0  0  0  0  0  0  0  0  0
    7.0650    2.0050   -0.0640 C   0  0  0  0  0  0  0  0  0  0  0  0
    8.0150    2.0970   -1.2260 C   0  0  0  0  0  0  0  0  0  0  0  0
    8.1140    0.7930   -1.9900 C   0  0  0  0  0  0  0  0  0  0  0  0
    8.3150   -0.3860   -1.0980 C   0  0  0  0  0  0  0  0  0  0  0  0
    7.5370   -1.6110    0.8990 C   0  0  0  0  0  0  0  0  0  0  0  0
    6.6080   -1.5420    2.0850 C   0  0  0  0  0  0  0  0  0  0  0  0
    5.2530   -1.0820    1.6960 C   0  0  0  0  0  0  0  0  0  0  0  0
    4.4010   -1.0300    2.6280 O   0  0  0  0  0  0  0  0  0  0  0  0
    2.5240    0.7330    0.8330 S   0  0  0  0  0  0  0  0  0  0  0  0
   -3.8600   -0.8080   -0.1510 C   0  0  0  0  0  0  0  0  0  0  0  0
   -5.0500   -1.3660   -0.8300 C   0  0  1  0  0  0  0  0  0  0  0  0
   -4.8630   -1.3150   -2.2280 O   0  0  0  0  0  0  0  0  0  0  0  0
   -5.1330   -2.8180   -0.4570 C   0  0  0  0  0  0  0  0  0  0  0  0
   -5.2420   -3.1240    0.7840 O   0  0  0  0  0  0  0  0  0  0  0  0
   -5.0990   -3.8360   -1.3650 O   0  0  0  0  0  0  0  0  0  0  0  0
   -5.1810   -5.1710   -0.9670 N   0  0  0  0  0  0  0  0  0  0  0  0
   -6.1820   -5.3700   -0.0270 N   0  0  0  0  0  0  0  0  0  0  0  0
   -6.3410   -0.7420   -0.4280 C   0  0  0  0  0  0  0  0  0  0  0  0
  1  2  2  0
  2  3  1  0
  3  4  1  0
  4  5  1  0
  4  6  1  0
  6  7  1  0
  7  8  1  6
  7  9  1  0
  7 40  1  0
  9 10  1  0
 10 11  1  0
 10 32  1  0
 11 12  2  0
 11 13  1  0
 13 14  1  0
 14 15  1  0
 15 16  2  0
 15 31  1  0
 16 17  1  0
 17 18  2  0
 18 19  1  0
 18 31  1  0
 19 20  1  0
 19 29  1  0
 21 20  1  6
 21 22  1  0
 21 26  1  0
 21 27  1  0
 22 23  1  0
 23 24  1  0
 24 25  1  0
 25 26  1  0
 27 28  1  0
 28 29  1  0
 29 30  2  0
 32 33  1  0
 33 34  1  6
 33 35  1  0
 33 40  1  0
 35 36  2  0
 35 37  1  0
 37 38  1  0
 38 39  1  0
M  END
