
     RDKit          3D

 39 43  0  0  0  0  0  0  0  0999 V2000
   -4.8340    2.3580    0.3430 C   0  0  0  0  0  0  0  0  0  0  0  0
   -3.5380    2.5450    0.2870 C   0  0  0  0  0  0  0  0  0  0  0  0
   -2.6140    2.7660    1.4250 C   0  0  0  0  0  0  0  0  0  0  0  0
   -1.4670    1.7630    1.3440 C   0  0  2  0  0  0  0  0  0  0  0  0
   -1.6540    0.4670    1.4170 O   0  0  0  0  0  0  0  0  0  0  0  0
   -2.5370   -0.4630    1.7260 C   0  0  0  0  0  0  0  0  0  0  0  0
   -3.7780   -0.1700    2.2980 C   0  0  0  0  0  0  0  0  0  0  0  0
   -4.6590   -1.2040    2.5890 C   0  0  0  0  0  0  0  0  0  0  0  0
   -4.3450   -2.5180    2.3310 C   0  0  0  0  0  0  0  0  0  0  0  0
   -3.1170   -2.7680    1.7700 C   0  0  0  0  0  0  0  0  0  0  0  0
   -2.1970   -1.7760    1.4570 C   0  0  0  0  0  0  0  0  0  0  0  0
   -0.9640   -2.1950    0.8720 C   0  0  1  0  0  0  0  0  0  0  0  0
   -1.1990   -3.2110   -0.1870 N   0  0  0  0  0  0  0  0  0  0  0  0
   -0.1450   -4.0300   -0.6910 C   0  0  0  0  0  0  0  0  0  0  0  0
   -0.5950   -4.9160   -1.6520 C   0  0  0  0  0  0  0  0  0  0  0  0
    0.2970   -5.7770   -2.2440 C   0  0  0  0  0  0  0  0  0  0  0  0
    1.6540   -5.7790   -1.8970 C   0  0  0  0  0  0  0  0  0  0  0  0
    2.0790   -4.8700   -0.9200 C   0  0  0  0  0  0  0  0  0  0  0  0
    1.1910   -4.0070   -0.3250 C   0  0  0  0  0  0  0  0  0  0  0  0
    1.7370   -3.0870    0.6930 C   0  0  1  0  0  0  0  0  0  0  0  0
    3.1430   -3.1640    0.5730 O   0  0  0  0  0  0  0  0  0  0  0  0
    1.3650   -1.6680    0.5430 C   0  0  0  0  0  0  0  0  0  0  0  0
   -0.0080   -1.3050    0.3530 N   0  0  0  0  0  0  0  0  0  0  0  0
   -0.2020   -0.9360   -1.0100 C   0  0  0  0  0  0  0  0  0  0  0  0
    0.6270    0.1820   -1.4840 C   0  0  0  0  0  0  0  0  0  0  0  0
    0.6940    0.4450   -2.8690 C   0  0  0  0  0  0  0  0  0  0  0  0
    1.4520    1.4680   -3.3740 C   0  0  0  0  0  0  0  0  0  0  0  0
    2.1900    2.2920   -2.5380 C   0  0  0  0  0  0  0  0  0  0  0  0
    2.1520    2.0680   -1.1810 C   0  0  0  0  0  0  0  0  0  0  0  0
    1.3800    1.0350   -0.7180 C   0  0  0  0  0  0  0  0  0  0  0  0
    2.9200    2.8960   -0.2500 C   0  0  0  0  0  0  0  0  0  0  0  0
    2.8670    2.6320    0.9740 O   0  0  0  0  0  0  0  0  0  0  0  0
    3.7370    4.0150   -0.7490 C   0  0  0  0  0  0  0  0  0  0  0  0
    4.1470    3.8100   -2.1950 C   0  0  0  0  0  0  0  0  0  0  0  0
    3.0060    3.4000   -3.0610 C   0  0  0  0  0  0  0  0  0  0  0  0
   -0.3590    2.3710    2.1360 C   0  0  0  0  0  0  0  0  0  0  0  0
    0.3620    1.6130    2.8190 O   0  0  0  0  0  0  0  0  0  0  0  0
   -0.1340    3.7150    2.1200 O   0  0  0  0  0  0  0  0  0  0  0  0
    0.8820    4.3790    2.8340 C   0  0  0  0  0  0  0  0  0  0  0  0
  1  2  2  0
  2  3  1  0
  4  3  1  1
  4  5  1  0
  4 36  1  0
  5  6  1  0
  6  7  2  0
  6 11  1  0
  7  8  1  0
  8  9  2  0
  9 10  1  0
 10 11  2  0
 12 11  1  6
 12 13  1  0
 12 23  1  0
 13 14  1  0
 14 15  2  0
 14 19  1  0
 15 16  1  0
 16 17  2  0
 17 18  1  0
 18 19  2  0
 19 20  1  0
 20 21  1  6
 20 22  1  0
 22 23  1  0
 23 24  1  0
 24 25  1  0
 25 26  2  0
 25 30  1  0
 26 27  1  0
 27 28  2  0
 28 29  1  0
 28 35  1  0
 29 30  2  0
 29 31  1  0
 31 32  2  0
 31 33  1  0
 33 34  1  0
 34 35  1  0
 36 37  2  0
 36 38  1  0
 38 39  1  0
M  END
