
     RDKit          3D

 40 43  0  0  0  0  0  0  0  0999 V2000
    7.4110   -1.1710    2.6170 C   0  0  0  0  0  0  0  0  0  0  0  0
    6.5080   -0.7810    1.7380 C   0  0  0  0  0  0  0  0  0  0  0  0
    6.1940   -1.5590    0.5280 C   0  0  0  0  0  0  0  0  0  0  0  0
    4.7590   -1.9840    0.4580 C   0  0  0  0  0  0  0  0  0  0  0  0
    4.4380   -3.2860    0.7860 C   0  0  0  0  0  0  0  0  0  0  0  0
    3.1510   -3.7540    0.7630 C   0  0  0  0  0  0  0  0  0  0  0  0
    2.8610   -5.0690    1.0970 O   0  0  0  0  0  0  0  0  0  0  0  0
    2.0780   -2.9240    0.4000 C   0  0  0  0  0  0  0  0  0  0  0  0
    0.7740   -3.4830    0.3820 N   0  0  0  0  0  0  0  0  0  0  0  0
   -0.4410   -2.8170    0.1140 C   0  0  0  0  0  0  0  0  0  0  0  0
   -0.4100   -1.6080   -0.1320 O   0  0  0  0  0  0  0  0  0  0  0  0
   -1.7380   -3.5290    0.1200 C   0  0  2  0  0  0  0  0  0  0  0  0
   -1.6610   -4.6000   -0.9780 C   0  0  0  0  0  0  0  0  0  0  0  0
   -3.1350   -4.8240   -1.1790 C   0  0  0  0  0  0  0  0  0  0  0  0
   -3.7820   -5.8490   -1.4200 O   0  0  0  0  0  0  0  0  0  0  0  0
   -3.7640   -3.4820   -1.0280 C   0  0  0  0  0  0  0  0  0  0  0  0
   -4.8630   -2.9190   -1.4430 C   0  0  0  0  0  0  0  0  0  0  0  0
   -5.2370   -1.5340   -1.1610 C   0  0  0  0  0  0  0  0  0  0  0  0
   -4.3950   -0.7980   -0.4640 C   0  0  0  0  0  0  0  0  0  0  0  0
   -4.6500    0.6100   -0.0910 C   0  0  0  0  0  0  0  0  0  0  0  0
   -3.6490    1.3950    0.4380 C   0  0  0  0  0  0  0  0  0  0  0  0
   -3.8790    2.7140    0.8440 C   0  0  0  0  0  0  0  0  0  0  0  0
   -2.7810    3.5100    1.4040 C   0  0  0  0  0  0  0  0  0  0  0  0
   -5.1190    3.2870    0.7310 C   0  0  0  0  0  0  0  0  0  0  0  0
   -5.3130    4.6790    1.1700 C   0  0  0  0  0  0  0  0  0  0  0  0
   -6.1340    2.5280    0.2060 C   0  0  0  0  0  0  0  0  0  0  0  0
   -5.8870    1.1980   -0.1970 C   0  0  0  0  0  0  0  0  0  0  0  0
   -6.9570    0.5180   -0.7040 O   0  0  0  0  0  0  0  0  0  0  0  0
   -8.2610    0.9680   -0.8770 C   0  0  0  0  0  0  0  0  0  0  0  0
   -3.0240   -1.3370   -0.1190 C   0  0  0  0  0  0  0  0  0  0  0  0
   -2.9720   -2.7910    0.0330 C   0  0  2  0  0  0  0  0  0  0  0  0
    2.3970   -1.6490    0.0790 C   0  0  0  0  0  0  0  0  0  0  0  0
    3.7370   -1.1380    0.0960 C   0  0  0  0  0  0  0  0  0  0  0  0
    3.9170    0.1150   -0.2380 O   0  0  0  0  0  0  0  0  0  0  0  0
    4.6970    1.1580   -0.4470 C   0  0  1  0  0  0  0  0  0  0  0  0
    4.6430    1.5750   -1.9480 C   0  0  0  0  0  0  0  0  0  0  0  0
    4.2920    2.4000    0.3530 C   0  0  0  0  0  0  0  0  0  0  0  0
    4.2890    3.4650   -0.1460 N   0  0  0  0  0  0  0  0  0  0  0  0
    4.3110    4.6300   -0.7770 C   0  0  0  0  0  0  0  0  0  0  0  0
    5.7460    5.1510   -1.0050 C   0  0  0  0  0  0  0  0  0  0  0  0
  1  2  2  0
  2  3  1  0
  3  4  1  0
  4  5  2  0
  4 33  1  0
  5  6  1  0
  6  7  1  0
  6  8  2  0
  8  9  1  0
  8 32  1  0
  9 10  1  0
 10 11  2  0
 12 10  1  6
 12 13  1  0
 12 31  1  0
 13 14  1  0
 14 15  2  0
 14 16  1  0
 16 17  2  0
 16 31  1  0
 17 18  1  0
 18 19  2  0
 19 20  1  0
 19 30  1  0
 20 21  2  0
 20 27  1  0
 21 22  1  0
 22 23  1  0
 22 24  2  0
 24 25  1  0
 24 26  1  0
 26 27  2  0
 27 28  1  0
 28 29  1  0
 31 30  1  6
 32 33  2  0
 33 34  1  0
 34 35  1  0
 35 36  1  6
 35 37  1  0
 37 38  2  3
 38 39  1  0
 39 40  1  0
M  END
