
     RDKit          3D

 40 43  0  0  0  0  0  0  0  0999 V2000
    9.9980   -0.7760    0.7960 C   0  0  0  0  0  0  0  0  0  0  0  0
    8.5940   -0.9680    0.7650 O   0  0  0  0  0  0  0  0  0  0  0  0
    7.7560   -0.1370    0.0370 C   0  0  0  0  0  0  0  0  0  0  0  0
    8.2990    0.8080   -0.6040 O   0  0  0  0  0  0  0  0  0  0  0  0
    6.2750   -0.3410    0.0050 C   0  0  2  0  0  0  0  0  0  0  0  0
    6.0200   -1.7600   -0.4330 C   0  0  0  0  0  0  0  0  0  0  0  0
    4.6050   -2.0430   -0.4240 N   0  0  0  0  0  0  0  0  0  0  0  0
    3.7810   -1.9760    0.7250 C   0  0  0  0  0  0  0  0  0  0  0  0
    4.2830   -1.6460    1.8240 O   0  0  0  0  0  0  0  0  0  0  0  0
    2.3860   -2.2800    0.6570 N   0  0  0  0  0  0  0  0  0  0  0  0
    1.5390   -2.2150    1.8250 C   0  0  2  0  0  0  0  0  0  0  0  0
    0.8660   -3.9150    2.1320 S   0  0  0  0  0  0  0  0  0  0  0  0
   -0.8520   -3.4850    1.8290 C   0  0  0  0  0  0  0  0  0  0  0  0
   -2.1050   -3.6150    1.9160 N   0  0  0  0  0  0  0  0  0  0  0  0
   -2.8430   -2.6090    1.2310 C   0  0  0  0  0  0  0  0  0  0  0  0
   -4.1630   -2.4900    1.1380 C   0  0  0  0  0  0  0  0  0  0  0  0
   -4.8090   -1.4220    0.4130 C   0  0  0  0  0  0  0  0  0  0  0  0
   -5.9590   -1.6160   -0.3180 C   0  0  0  0  0  0  0  0  0  0  0  0
   -6.2840   -0.3740   -0.8730 C   0  0  0  0  0  0  0  0  0  0  0  0
   -7.4200   -0.2150   -1.7100 N   0  0  0  0  0  0  0  0  0  0  0  0
   -5.3270    0.4930   -0.4520 C   0  0  0  0  0  0  0  0  0  0  0  0
   -5.2280    1.9230   -0.7630 C   0  0  0  0  0  0  0  0  0  0  0  0
   -6.1030    2.8110    0.0510 C   0  0  1  0  0  0  0  0  0  0  0  0
   -5.9020    4.2700   -0.3590 C   0  0  0  0  0  0  0  0  0  0  0  0
   -7.5590    2.4960   -0.1190 C   0  0  0  0  0  0  0  0  0  0  0  0
   -4.4890   -0.1680    0.2960 O   0  0  0  0  0  0  0  0  0  0  0  0
   -1.8840   -1.7380    0.6530 N   0  0  0  0  0  0  0  0  0  0  0  0
   -1.8870   -0.4960    0.0180 N   0  0  0  0  0  0  0  0  0  0  0  0
   -1.1570    0.3710    0.8410 N   0  0  0  0  0  0  0  0  0  0  0  0
   -0.0740   -0.1150    1.6230 C   0  0  0  0  0  0  0  0  0  0  0  0
    0.7330    0.8310    2.6960 S   0  0  0  0  0  0  0  0  0  0  0  0
    0.3310   -1.4990    1.4650 N   0  0  0  0  0  0  0  0  0  0  0  0
   -0.6280   -2.3700    0.8230 C   0  0  1  0  0  0  0  0  0  0  0  0
    5.6750    0.6320   -0.8050 O   0  0  0  0  0  0  0  0  0  0  0  0
    4.7770    1.5420   -0.2800 C   0  0  0  0  0  0  0  0  0  0  0  0
    4.5150    1.4630    0.9520 O   0  0  0  0  0  0  0  0  0  0  0  0
    4.1600    2.5360   -1.0680 N   0  0  0  0  0  0  0  0  0  0  0  0
    3.0380    3.6630   -0.3940 Cl  0  0  0  0  0  0  0  0  0  0  0  0
    4.4750    2.6060   -2.4460 N   0  0  0  0  0  0  0  0  0  0  0  0
    5.4530    3.3450   -2.8130 N   0  0  0  0  0  0  0  0  0  0  0  0
  1  2  1  0
  2  3  1  0
  3  4  2  0
  3  5  1  0
  5  6  1  6
  5 34  1  0
  6  7  1  0
  7  8  1  0
  8  9  2  0
  8 10  1  0
 11 10  1  6
 11 12  1  0
 11 32  1  0
 12 13  1  0
 13 14  2  0
 13 33  1  0
 14 15  1  0
 15 16  2  3
 15 27  1  0
 16 17  1  0
 17 18  2  0
 17 26  1  0
 18 19  1  0
 19 20  1  0
 19 21  2  0
 21 22  1  0
 21 26  1  0
 22 23  1  0
 23 24  1  6
 23 25  1  0
 27 28  1  0
 33 27  1  1
 28 29  1  0
 29 30  1  0
 30 31  2  0
 30 32  1  0
 32 33  1  0
 34 35  1  0
 35 36  2  0
 35 37  1  0
 37 38  1  0
 37 39  1  0
 39 40  2  0
M  END
