
     RDKit          3D

 45 47  0  0  0  0  0  0  0  0999 V2000
    8.2570   -3.5330   -0.7210 C   0  0  0  0  0  0  0  0  0  0  0  0
    8.3970   -2.1190   -0.5720 O   0  0  0  0  0  0  0  0  0  0  0  0
    8.0310   -1.4530    0.5720 C   0  0  0  0  0  0  0  0  0  0  0  0
    7.5540   -2.1050    1.5300 O   0  0  0  0  0  0  0  0  0  0  0  0
    8.1720   -0.0130    0.7290 C   0  0  0  0  0  0  0  0  0  0  0  0
    9.3150    0.6110    1.2420 C   0  0  0  0  0  0  0  0  0  0  0  0
   10.5710   -0.0570    1.7130 C   0  0  0  0  0  0  0  0  0  0  0  0
    9.0360    1.9220    1.2170 N   0  0  0  0  0  0  0  0  0  0  0  0
    7.8070    2.1560    0.7270 C   0  0  0  0  0  0  0  0  0  0  0  0
    7.2060    3.5230    0.5740 C   0  0  0  0  0  0  0  0  0  0  0  0
    7.2320    0.9450    0.4080 C   0  0  0  0  0  0  0  0  0  0  0  0
    5.8800    0.7250   -0.1630 C   0  0  0  0  0  0  0  0  0  0  0  0
    4.9470    0.2370    0.8550 C   0  0  0  0  0  0  0  0  0  0  0  0
    5.3520    0.0580    2.0260 O   0  0  0  0  0  0  0  0  0  0  0  0
    3.6030   -0.0320    0.5370 N   0  0  0  0  0  0  0  0  0  0  0  0
    2.7030   -0.5110    1.5570 C   0  0  0  0  0  0  0  0  0  0  0  0
    1.6200    0.5820    1.6740 C   0  0  0  0  0  0  0  0  0  0  0  0
    1.0180    0.7340    0.3800 N   0  0  0  0  0  0  0  0  0  0  0  0
   -0.3770    0.5810    0.1850 C   0  0  0  0  0  0  0  0  0  0  0  0
   -0.8030    0.7450   -1.0090 O   0  0  0  0  0  0  0  0  0  0  0  0
   -1.2930    0.2610    1.2390 C   0  0  0  0  0  0  0  0  0  0  0  0
   -2.5810    0.1020    1.1800 C   0  0  0  0  0  0  0  0  0  0  0  0
   -3.4810    0.1920    0.0650 C   0  0  0  0  0  0  0  0  0  0  0  0
   -3.1530    0.4550   -1.1130 O   0  0  0  0  0  0  0  0  0  0  0  0
   -4.8920   -0.0360    0.3030 N   0  0  0  0  0  0  0  0  0  0  0  0
   -5.7790    0.0550   -0.7840 C   0  0  0  0  0  0  0  0  0  0  0  0
   -6.3520   -1.1170   -1.1580 C   0  0  0  0  0  0  0  0  0  0  0  0
   -6.0200   -2.3200   -0.4390 C   0  0  0  0  0  0  0  0  0  0  0  0
   -6.5530   -3.4820   -0.7660 C   0  0  0  0  0  0  0  0  0  0  0  0
   -7.5220   -3.5450   -1.9110 C   0  0  0  0  0  0  0  0  0  0  0  0
   -6.2170   -4.7120   -0.0330 C   0  0  2  0  0  0  0  0  0  0  0  0
   -5.2800   -4.4210    1.1190 C   0  0  0  0  0  0  0  0  0  0  0  0
   -5.5950   -5.7740   -0.9110 C   0  0  0  0  0  0  0  0  0  0  0  0
   -6.0280    1.2550   -1.5190 C   0  0  0  0  0  0  0  0  0  0  0  0
   -5.6600    2.4720   -1.3520 C   0  0  0  0  0  0  0  0  0  0  0  0
   -6.0450    3.5290   -2.2810 N   0  0  0  0  0  0  0  0  0  0  0  0
   -5.6330    4.8330   -1.9100 C   0  0  0  0  0  0  0  0  0  0  0  0
   -6.3810    5.8360   -2.0340 O   0  0  0  0  0  0  0  0  0  0  0  0
   -4.2600    5.0790   -1.3450 C   0  0  0  0  0  0  0  0  0  0  0  0
   -3.7880    3.9130   -0.4870 C   0  0  0  0  0  0  0  0  0  0  0  0
   -4.9140    2.9900   -0.2020 C   0  0  0  0  0  0  0  0  0  0  0  0
   -5.3070    2.6740    1.0370 C   0  0  0  0  0  0  0  0  0  0  0  0
   -4.3290    3.3500    2.3720 S   0  0  0  0  0  0  0  0  0  0  0  0
    1.8510    1.0530   -0.7860 C   0  0  0  0  0  0  0  0  0  0  0  0
    3.0980    0.1640   -0.8000 C   0  0  0  0  0  0  0  0  0  0  0  0
  1  2  1  0
  2  3  1  0
  3  4  2  0
  3  5  1  0
  5  6  2  0
  5 11  1  0
  6  7  1  0
  6  8  1  0
  8  9  1  0
  9 10  1  0
  9 11  2  0
 11 12  1  0
 12 13  1  0
 13 14  2  0
 13 15  1  0
 15 16  1  0
 15 45  1  0
 16 17  1  0
 17 18  1  0
 18 19  1  0
 18 44  1  0
 19 20  2  0
 19 21  1  0
 21 22  2  3
 22 23  1  0
 23 24  2  0
 23 25  1  0
 25 26  1  0
 26 27  2  3
 26 34  1  0
 27 28  1  0
 28 29  2  3
 29 30  1  0
 29 31  1  0
 31 32  1  1
 31 33  1  0
 34 35  2  3
 35 36  1  0
 35 41  1  0
 36 37  1  0
 37 38  2  0
 37 39  1  0
 39 40  1  0
 40 41  1  0
 41 42  2  3
 42 43  1  0
 44 45  1  0
M  END
