
     RDKit          3D

 45 47  0  0  0  0  0  0  0  0999 V2000
    5.9260    2.2170   -0.6060 C   0  0  0  0  0  0  0  0  0  0  0  0
    6.6720    1.1780   -1.3330 C   0  0  2  0  0  0  0  0  0  0  0  0
    5.8370    0.0390   -1.6100 N   0  0  0  0  0  0  0  0  0  0  0  0
    5.8660   -1.1930   -0.9380 C   0  0  0  0  0  0  0  0  0  0  0  0
    6.6840   -1.3590    0.0320 O   0  0  0  0  0  0  0  0  0  0  0  0
    4.9930   -2.3420   -1.2880 C   0  0  0  0  0  0  0  0  0  0  0  0
    3.7120   -2.6750   -0.1250 S   0  0  0  0  0  0  0  0  0  0  0  0
    2.3840   -1.5440   -0.0090 C   0  0  0  0  0  0  0  0  0  0  0  0
    2.2880   -0.4220   -0.7880 C   0  0  0  0  0  0  0  0  0  0  0  0
    1.2450    0.4490   -0.7150 C   0  0  0  0  0  0  0  0  0  0  0  0
    0.2000    0.2190    0.1910 C   0  0  0  0  0  0  0  0  0  0  0  0
   -0.8570    1.1890    0.2660 C   0  0  0  0  0  0  0  0  0  0  0  0
   -0.6030    2.3390   -0.3170 O   0  0  0  0  0  0  0  0  0  0  0  0
   -2.1040    1.0520    0.8810 N   0  0  0  0  0  0  0  0  0  0  0  0
   -2.7060    2.2910    1.3440 C   0  0  0  0  0  0  0  0  0  0  0  0
   -3.4630    3.1080    0.4120 C   0  0  0  0  0  0  0  0  0  0  0  0
   -4.0260    4.1350    0.9560 O   0  0  0  0  0  0  0  0  0  0  0  0
   -3.6530    2.9430   -0.9610 N   0  0  0  0  0  0  0  0  0  0  0  0
   -4.4400    3.8560   -1.7330 C   0  0  0  0  0  0  0  0  0  0  0  0
   -5.8480    3.9200   -1.2760 C   0  0  0  0  0  0  0  0  0  0  0  0
   -6.5240    2.7140   -1.3380 O   0  0  0  0  0  0  0  0  0  0  0  0
   -2.6530   -0.2110    1.2340 C   0  0  0  0  0  0  0  0  0  0  0  0
   -2.9690   -0.4000    2.6070 C   0  0  0  0  0  0  0  0  0  0  0  0
   -3.3860   -1.6000    3.1070 C   0  0  0  0  0  0  0  0  0  0  0  0
   -3.7080   -1.7530    4.5460 C   0  0  0  0  0  0  0  0  0  0  0  0
   -3.6040   -0.7520    5.2690 O   0  0  0  0  0  0  0  0  0  0  0  0
   -4.1220   -2.9650    5.1240 N   0  0  0  0  0  0  0  0  0  0  0  0
   -4.4380   -3.1190    6.5240 C   0  0  0  0  0  0  0  0  0  0  0  0
   -4.3190   -2.0810    7.2210 O   0  0  0  0  0  0  0  0  0  0  0  0
   -3.4890   -2.6370    2.2100 C   0  0  0  0  0  0  0  0  0  0  0  0
   -3.1980   -2.5080    0.8740 C   0  0  0  0  0  0  0  0  0  0  0  0
   -2.7720   -1.2560    0.3720 C   0  0  0  0  0  0  0  0  0  0  0  0
   -2.6370   -1.1860   -1.0950 C   0  0  0  0  0  0  0  0  0  0  0  0
   -3.9360   -1.0920   -1.8510 C   0  0  2  0  0  0  0  0  0  0  0  0
   -3.6380   -0.9820   -3.3630 C   0  0  0  0  0  0  0  0  0  0  0  0
   -4.8850   -0.0400   -1.4700 C   0  0  0  0  0  0  0  0  0  0  0  0
   -4.7370   -2.4250   -1.7320 C   0  0  0  0  0  0  0  0  0  0  0  0
    0.3260   -0.9120    0.9590 C   0  0  0  0  0  0  0  0  0  0  0  0
    1.3690   -1.7380    0.8500 N   0  0  0  0  0  0  0  0  0  0  0  0
    7.9210    0.6970   -0.6410 C   0  0  0  0  0  0  0  0  0  0  0  0
    8.6570   -0.2850   -1.2850 C   0  0  0  0  0  0  0  0  0  0  0  0
    9.8130   -0.7610   -0.7260 C   0  0  0  0  0  0  0  0  0  0  0  0
   10.2860   -0.2910    0.4820 C   0  0  0  0  0  0  0  0  0  0  0  0
    9.5510    0.6870    1.1210 C   0  0  0  0  0  0  0  0  0  0  0  0
    8.3750    1.1700    0.5520 C   0  0  0  0  0  0  0  0  0  0  0  0
  2  1  1  1
  2  3  1  0
  2 40  1  0
  3  4  1  0
  4  5  2  0
  4  6  1  0
  6  7  1  0
  7  8  1  0
  8  9  2  0
  8 39  1  0
  9 10  1  0
 10 11  2  0
 11 12  1  0
 11 38  1  0
 12 13  2  0
 12 14  1  0
 14 15  1  0
 14 22  1  0
 15 16  1  0
 16 17  2  0
 16 18  1  0
 18 19  1  0
 19 20  1  0
 20 21  1  0
 22 23  2  0
 22 32  1  0
 23 24  1  0
 24 25  1  0
 24 30  2  0
 25 26  2  0
 25 27  1  0
 27 28  1  0
 28 29  2  0
 30 31  1  0
 31 32  2  0
 32 33  1  0
 33 34  1  0
 34 35  1  6
 34 36  1  0
 34 37  1  0
 38 39  2  0
 40 41  2  0
 40 45  1  0
 41 42  1  0
 42 43  2  0
 43 44  1  0
 44 45  2  0
M  END
