
     RDKit          3D

 46 49  0  0  0  0  0  0  0  0999 V2000
    7.7610   -2.2350   -0.7520 C   0  0  0  0  0  0  0  0  0  0  0  0
    7.8420   -1.8710    0.7090 C   0  0  0  0  0  0  0  0  0  0  0  0
    6.6510   -1.0690    1.1780 C   0  0  0  0  0  0  0  0  0  0  0  0
    5.4490   -1.8320    1.0710 N   0  0  0  0  0  0  0  0  0  0  0  0
    4.0620   -0.9380    1.5830 S   0  0  2  0  0  0  0  0  0  0  0  0
    4.5600    0.4260    2.0540 O   0  0  0  0  0  0  0  0  0  0  0  0
    3.3410   -1.5900    2.7240 O   0  0  0  0  0  0  0  0  0  0  0  0
    3.0130   -0.6170    0.2240 C   0  0  0  0  0  0  0  0  0  0  0  0
    3.4120   -0.9460   -1.0780 C   0  0  0  0  0  0  0  0  0  0  0  0
    2.6160   -0.6780   -2.1740 C   0  0  0  0  0  0  0  0  0  0  0  0
    3.1290   -1.0550   -3.5140 C   0  0  0  0  0  0  0  0  0  0  0  0
    1.4040   -0.0720   -1.9610 C   0  0  0  0  0  0  0  0  0  0  0  0
    0.9600    0.2780   -0.6810 C   0  0  0  0  0  0  0  0  0  0  0  0
   -0.3700    0.9330   -0.5420 C   0  0  2  0  0  0  0  0  0  0  0  0
   -0.3080    2.1410    0.2100 N   0  0  0  0  0  0  0  0  0  0  0  0
   -1.5270    2.8950    0.2710 C   0  0  1  0  0  0  0  0  0  0  0  0
   -2.0220    3.1260    1.6760 C   0  0  0  0  0  0  0  0  0  0  0  0
   -3.3320    3.8520    1.6170 C   0  0  0  0  0  0  0  0  0  0  0  0
   -3.8850    3.9140    0.4550 O   0  0  0  0  0  0  0  0  0  0  0  0
   -3.9550    4.4340    2.6660 O   0  0  0  0  0  0  0  0  0  0  0  0
   -5.1710    5.1170    2.6750 C   0  0  0  0  0  0  0  0  0  0  0  0
   -1.3400    4.2280   -0.4040 C   0  0  0  0  0  0  0  0  0  0  0  0
   -1.0390    4.2820   -1.7570 C   0  0  0  0  0  0  0  0  0  0  0  0
   -0.7980    5.4720   -2.4020 C   0  0  0  0  0  0  0  0  0  0  0  0
   -0.8520    6.6690   -1.7050 C   0  0  0  0  0  0  0  0  0  0  0  0
   -0.5520    7.8950   -2.4220 C   0  0  0  0  0  0  0  0  0  0  0  0
   -0.3010    8.8830   -3.0150 N   0  0  0  0  0  0  0  0  0  0  0  0
   -1.1480    6.6430   -0.3710 C   0  0  0  0  0  0  0  0  0  0  0  0
   -1.3930    5.4140    0.2810 C   0  0  0  0  0  0  0  0  0  0  0  0
   -1.4240   -0.0340   -0.1510 C   0  0  0  0  0  0  0  0  0  0  0  0
   -2.4710    0.2330    0.4350 O   0  0  0  0  0  0  0  0  0  0  0  0
   -1.1890   -1.4240   -0.4980 N   0  0  0  0  0  0  0  0  0  0  0  0
   -2.0790   -2.4740   -0.2170 C   0  0  0  0  0  0  0  0  0  0  0  0
   -3.4260   -2.3870   -0.0410 C   0  0  0  0  0  0  0  0  0  0  0  0
   -4.2480   -3.4440    0.2890 C   0  0  0  0  0  0  0  0  0  0  0  0
   -5.7330   -3.2760    0.4590 C   0  0  2  0  0  0  0  0  0  0  0  0
   -6.1170   -3.5340    1.7820 F   0  0  0  0  0  0  0  0  0  0  0  0
   -6.4070   -4.1470   -0.3580 F   0  0  0  0  0  0  0  0  0  0  0  0
   -3.7080   -4.6920    0.4680 C   0  0  0  0  0  0  0  0  0  0  0  0
   -4.3930   -5.8290    0.8310 C   0  0  0  0  0  0  0  0  0  0  0  0
   -3.8320   -7.0500    1.0320 C   0  0  0  0  0  0  0  0  0  0  0  0
   -2.4410   -7.2200    0.8690 C   0  0  0  0  0  0  0  0  0  0  0  0
   -1.7830   -6.0260    0.4940 C   0  0  0  0  0  0  0  0  0  0  0  0
   -2.3280   -4.8580    0.3040 C   0  0  0  0  0  0  0  0  0  0  0  0
   -1.5330   -3.7510   -0.0360 C   0  0  0  0  0  0  0  0  0  0  0  0
    1.7890   -0.0130    0.3670 C   0  0  0  0  0  0  0  0  0  0  0  0
  1  2  1  0
  2  3  1  0
  3  4  1  0
  5  4  1  6
  5  6  2  0
  5  7  2  0
  5  8  1  0
  8  9  2  0
  8 46  1  0
  9 10  1  0
 10 11  1  0
 10 12  2  0
 12 13  1  0
 13 14  1  0
 13 46  2  0
 14 15  1  1
 14 30  1  0
 15 16  1  0
 16 17  1  1
 16 22  1  0
 17 18  1  0
 18 19  2  0
 18 20  1  0
 20 21  1  0
 22 23  2  0
 22 29  1  0
 23 24  1  0
 24 25  2  0
 25 26  1  0
 25 28  1  0
 26 27  3  0
 28 29  2  0
 30 31  2  0
 30 32  1  0
 32 33  1  0
 33 34  2  0
 33 45  1  0
 34 35  1  0
 35 36  1  0
 35 39  2  0
 36 37  1  1
 36 38  1  0
 39 40  1  0
 39 44  1  0
 40 41  2  0
 41 42  1  0
 42 43  2  0
 43 44  1  0
 44 45  2  0
M  CHG  1  15   1
M  END
