
     RDKit          3D

 45 48  0  0  0  0  0  0  0  0999 V2000
    5.1050    6.8550    0.9030 C   0  0  0  0  0  0  0  0  0  0  0  0
    3.9610    6.1360    0.2930 C   0  0  0  0  0  0  0  0  0  0  0  0
    2.9130    5.6280    1.0310 C   0  0  0  0  0  0  0  0  0  0  0  0
    1.8410    4.9500    0.4400 C   0  0  0  0  0  0  0  0  0  0  0  0
    0.5760    4.3810    1.4330 S   0  0  2  0  0  0  0  0  0  0  0  0
   -0.7230    4.6190    0.6600 O   0  0  0  0  0  0  0  0  0  0  0  0
    0.4190    5.4810    2.5180 O   0  0  0  0  0  0  0  0  0  0  0  0
    0.6380    2.9230    2.2790 C   0  0  0  0  0  0  0  0  0  0  0  0
    0.7830    1.5670    1.7570 C   0  0  2  0  0  0  0  0  0  0  0  0
    2.0550    1.2760    1.0310 C   0  0  0  0  0  0  0  0  0  0  0  0
    3.1590    2.0980    1.1730 C   0  0  0  0  0  0  0  0  0  0  0  0
    4.3130    1.8480    0.5030 C   0  0  0  0  0  0  0  0  0  0  0  0
    4.4220    0.7540   -0.3470 C   0  0  0  0  0  0  0  0  0  0  0  0
    3.3730   -0.0900   -0.5240 C   0  0  0  0  0  0  0  0  0  0  0  0
    3.4180   -1.2370   -1.3550 N   0  0  0  0  0  0  0  0  0  0  0  0
    4.6110   -1.7990   -1.8470 C   0  0  0  0  0  0  0  0  0  0  0  0
    5.7410   -1.3330   -1.5850 O   0  0  0  0  0  0  0  0  0  0  0  0
    4.5410   -3.0230   -2.7360 C   0  0  2  0  0  0  0  0  0  0  0  0
    4.0090   -4.1190   -1.8330 C   0  0  0  0  0  0  0  0  0  0  0  0
    5.3160   -4.7280   -1.3480 C   0  0  0  0  0  0  0  0  0  0  0  0
    6.1740   -4.5680   -2.5660 C   0  0  0  0  0  0  0  0  0  0  0  0
    5.8160   -3.3550   -3.0890 O   0  0  0  0  0  0  0  0  0  0  0  0
    2.1880    0.1970    0.1840 C   0  0  0  0  0  0  0  0  0  0  0  0
   -0.2950    1.1280    0.8700 N   0  0  2  0  0  0  0  0  0  0  0  0
   -0.1540    1.6360   -0.4550 C   0  0  0  0  0  0  0  0  0  0  0  0
   -1.5920    1.3540    1.4510 C   0  0  0  0  0  0  0  0  0  0  0  0
   -2.5140    0.1000    1.3730 C   0  0  1  0  0  0  0  0  0  0  0  0
   -1.8450   -1.0490    2.1290 C   0  0  0  0  0  0  0  0  0  0  0  0
   -3.7010    0.4980    2.2180 C   0  0  0  0  0  0  0  0  0  0  0  0
   -2.8060   -0.2350   -0.0260 C   0  0  0  0  0  0  0  0  0  0  0  0
   -3.6130   -1.3640   -0.3440 N   0  0  0  0  0  0  0  0  0  0  0  0
   -4.9640   -1.5490   -0.0610 C   0  0  0  0  0  0  0  0  0  0  0  0
   -5.6580   -0.6840    0.5490 O   0  0  0  0  0  0  0  0  0  0  0  0
   -5.6750   -2.7740   -0.4510 C   0  0  0  0  0  0  0  0  0  0  0  0
   -5.4360   -3.4550   -1.6070 C   0  0  0  0  0  0  0  0  0  0  0  0
   -4.5250   -2.9510   -2.6650 C   0  0  0  0  0  0  0  0  0  0  0  0
   -6.1170   -4.6550   -1.8520 C   0  0  0  0  0  0  0  0  0  0  0  0
   -7.0310   -5.1930   -0.9800 C   0  0  0  0  0  0  0  0  0  0  0  0
   -7.6840   -6.3540   -1.2280 F   0  0  0  0  0  0  0  0  0  0  0  0
   -7.2740   -4.5030    0.1850 C   0  0  0  0  0  0  0  0  0  0  0  0
   -6.6090   -3.3210    0.4400 C   0  0  0  0  0  0  0  0  0  0  0  0
   -6.8600   -2.5780    1.7000 C   0  0  0  0  0  0  0  0  0  0  0  0
    1.9490    4.8490   -0.9310 C   0  0  0  0  0  0  0  0  0  0  0  0
    2.9850    5.3500   -1.6690 C   0  0  0  0  0  0  0  0  0  0  0  0
    3.9820    5.9900   -1.0470 N   0  0  0  0  0  0  0  0  0  0  0  0
  1  2  1  0
  2  3  2  0
  2 45  1  0
  3  4  1  0
  4  5  1  0
  4 43  2  0
  5  6  2  0
  5  7  2  0
  5  8  1  1
  9  8  1  6
  9 10  1  0
  9 24  1  0
 10 11  2  0
 10 23  1  0
 11 12  1  0
 12 13  2  0
 13 14  1  0
 14 15  1  0
 14 23  2  0
 15 16  1  0
 16 17  2  0
 18 16  1  1
 18 19  1  0
 18 22  1  0
 19 20  1  0
 20 21  1  0
 21 22  1  0
 24 25  1  6
 24 26  1  0
 26 27  1  0
 27 28  1  1
 27 29  1  0
 27 30  1  0
 30 31  1  0
 31 32  1  0
 32 33  2  0
 32 34  1  0
 34 35  2  0
 34 41  1  0
 35 36  1  0
 35 37  1  0
 37 38  2  0
 38 39  1  0
 38 40  1  0
 40 41  2  0
 41 42  1  0
 43 44  1  0
 44 45  2  0
M  CHG  1  24   1
M  END
