
     RDKit          3D

 45 49  0  0  0  0  0  0  0  0999 V2000
   10.6120   -2.6550    2.2150 C   0  0  0  0  0  0  0  0  0  0  0  0
    9.6140   -2.3170    1.2630 O   0  0  0  0  0  0  0  0  0  0  0  0
    8.7960   -1.1980    1.4490 C   0  0  0  0  0  0  0  0  0  0  0  0
    8.9400   -0.3950    2.5560 C   0  0  0  0  0  0  0  0  0  0  0  0
    8.1060    0.7090    2.7050 C   0  0  0  0  0  0  0  0  0  0  0  0
    7.1550    0.9910    1.7590 C   0  0  0  0  0  0  0  0  0  0  0  0
    7.0330    0.1560    0.6440 C   0  0  0  0  0  0  0  0  0  0  0  0
    7.8440   -0.9360    0.4810 C   0  0  0  0  0  0  0  0  0  0  0  0
    7.6920   -1.7390   -0.6360 O   0  0  0  0  0  0  0  0  0  0  0  0
    6.7480   -1.5220   -1.6250 C   0  0  0  0  0  0  0  0  0  0  0  0
    5.3300   -1.5760   -1.1620 C   0  0  0  0  0  0  0  0  0  0  0  0
    4.2120   -1.3780   -1.4920 N   0  0  0  0  0  0  0  0  0  0  0  0
    3.0980   -1.5350   -0.8400 C   0  0  0  0  0  0  0  0  0  0  0  0
    1.7470   -1.2440   -1.4070 C   0  0  0  0  0  0  0  0  0  0  0  0
    1.3500    0.1230   -1.1910 N   0  0  0  0  0  0  0  0  0  0  0  0
    0.5920    0.6010   -0.1310 C   0  0  0  0  0  0  0  0  0  0  0  0
    0.7080    0.2610    1.0990 O   0  0  0  0  0  0  0  0  0  0  0  0
   -0.4400    1.6080   -0.5250 C   0  0  2  0  0  0  0  0  0  0  0  0
   -0.6730    2.6370    0.5490 C   0  0  0  0  0  0  0  0  0  0  0  0
   -1.6940    0.9460   -0.9610 C   0  0  0  0  0  0  0  0  0  0  0  0
   -1.7600   -0.2890   -0.8560 O   0  0  0  0  0  0  0  0  0  0  0  0
   -2.7310    1.7220   -1.4640 N   0  0  0  0  0  0  0  0  0  0  0  0
   -3.9850    1.2100   -1.9260 C   0  0  1  0  0  0  0  0  0  0  0  0
   -3.3720    0.5430   -3.2490 C   0  0  0  0  0  0  0  0  0  0  0  0
   -4.6050    0.0890   -1.2700 C   0  0  0  0  0  0  0  0  0  0  0  0
   -4.3580   -1.2420   -1.6560 C   0  0  0  0  0  0  0  0  0  0  0  0
   -4.9190   -2.3280   -1.0680 C   0  0  0  0  0  0  0  0  0  0  0  0
   -5.7930   -2.1480   -0.0210 C   0  0  0  0  0  0  0  0  0  0  0  0
   -6.3600   -3.3110    0.5740 N   0  0  0  0  0  0  0  0  0  0  0  0
   -6.0880   -0.9010    0.4170 C   0  0  0  0  0  0  0  0  0  0  0  0
   -6.9720   -0.7360    1.4680 C   0  0  0  0  0  0  0  0  0  0  0  0
   -7.6290   -1.8870    2.1590 C   0  0  0  0  0  0  0  0  0  0  0  0
   -7.2680    0.5300    1.9030 C   0  0  0  0  0  0  0  0  0  0  0  0
   -8.2180    0.7470    3.0330 C   0  0  0  0  0  0  0  0  0  0  0  0
   -6.6970    1.6070    1.3050 C   0  0  0  0  0  0  0  0  0  0  0  0
   -5.7910    1.5020    0.2320 C   0  0  0  0  0  0  0  0  0  0  0  0
   -5.1910    2.6890   -0.3490 C   0  0  0  0  0  0  0  0  0  0  0  0
   -5.4880    0.2380   -0.2130 C   0  0  0  0  0  0  0  0  0  0  0  0
    0.4090    2.3990   -1.9180 S   0  0  0  0  0  0  0  0  0  0  0  0
    1.7510    1.1870   -2.1150 C   0  0  1  0  0  0  0  0  0  0  0  0
    2.9660    1.8580   -1.5930 C   0  0  0  0  0  0  0  0  0  0  0  0
    3.5510    2.8940   -2.3300 N   0  0  0  0  0  0  0  0  0  0  0  0
    3.4690    1.5080   -0.5050 O   0  0  0  0  0  0  0  0  0  0  0  0
    3.2700   -2.0270    0.4850 C   0  0  0  0  0  0  0  0  0  0  0  0
    5.0530   -2.1850    0.5740 S   0  0  0  0  0  0  0  0  0  0  0  0
  1  2  1  0
  2  3  1  0
  3  4  2  0
  3  8  1  0
  4  5  1  0
  5  6  2  0
  6  7  1  0
  7  8  2  0
  8  9  1  0
  9 10  1  0
 10 11  1  0
 11 12  2  0
 11 45  1  0
 12 13  1  0
 13 14  1  0
 13 44  2  0
 14 15  1  0
 15 16  1  0
 15 40  1  0
 16 17  2  0
 16 18  1  0
 18 19  1  1
 18 20  1  0
 18 39  1  0
 20 21  2  0
 20 22  1  0
 22 23  1  0
 23 24  1  6
 23 25  1  0
 25 26  2  0
 25 38  1  0
 26 27  1  0
 27 28  2  0
 28 29  1  0
 28 30  1  0
 30 31  2  0
 30 38  1  0
 31 32  1  0
 31 33  1  0
 33 34  1  0
 33 35  2  0
 35 36  1  0
 36 37  1  0
 36 38  2  0
 39 40  1  0
 40 41  1  1
 41 42  1  0
 41 43  2  0
 44 45  1  0
M  END
