
     RDKit          3D

 45 49  0  0  0  0  0  0  0  0999 V2000
   -9.3950    4.8290   -1.6780 C   0  0  0  0  0  0  0  0  0  0  0  0
   -8.2470    4.8470   -2.3000 C   0  0  0  0  0  0  0  0  0  0  0  0
   -7.1280    3.9290   -2.0870 C   0  0  0  0  0  0  0  0  0  0  0  0
   -7.4330    2.9450   -1.0730 N   0  0  0  0  0  0  0  0  0  0  0  0
   -6.4430    1.9450   -0.7190 C   0  0  0  0  0  0  0  0  0  0  0  0
   -5.3830    2.0250   -1.3430 O   0  0  0  0  0  0  0  0  0  0  0  0
   -6.7070    0.9530    0.2840 C   0  0  0  0  0  0  0  0  0  0  0  0
   -7.8960    1.0530    1.0240 C   0  0  0  0  0  0  0  0  0  0  0  0
   -8.1780    0.1810    2.0510 C   0  0  0  0  0  0  0  0  0  0  0  0
   -9.4430    0.2880    2.8360 C   0  0  0  0  0  0  0  0  0  0  0  0
   -7.2730   -0.7970    2.3450 C   0  0  0  0  0  0  0  0  0  0  0  0
   -6.0860   -0.8990    1.6050 C   0  0  0  0  0  0  0  0  0  0  0  0
   -5.7950   -0.0300    0.5730 C   0  0  0  0  0  0  0  0  0  0  0  0
   -4.6530   -0.2350   -0.2030 N   0  0  0  0  0  0  0  0  0  0  0  0
   -3.4970   -0.9930    0.1160 C   0  0  0  0  0  0  0  0  0  0  0  0
   -3.3940   -1.5530    1.2040 O   0  0  0  0  0  0  0  0  0  0  0  0
   -2.4080   -1.1440   -0.7990 N   0  0  0  0  0  0  0  0  0  0  0  0
   -1.2190   -1.9210   -0.4680 C   0  0  1  0  0  0  0  0  0  0  0  0
   -1.2730   -3.1520   -1.3560 C   0  0  0  0  0  0  0  0  0  0  0  0
   -0.8650   -4.3930   -0.5950 C   0  0  0  0  0  0  0  0  0  0  0  0
    0.1720   -4.1270    0.3280 O   0  0  0  0  0  0  0  0  0  0  0  0
    1.2720   -3.2580    0.2050 C   0  0  0  0  0  0  0  0  0  0  0  0
    2.4590   -3.7940    0.6180 C   0  0  0  0  0  0  0  0  0  0  0  0
    3.6320   -3.0570    0.5550 C   0  0  0  0  0  0  0  0  0  0  0  0
    3.6090   -1.7710    0.0700 C   0  0  0  0  0  0  0  0  0  0  0  0
    4.7780   -0.9280   -0.1190 C   0  0  0  0  0  0  0  0  0  0  0  0
    4.5130    0.3340   -0.2490 O   0  0  0  0  0  0  0  0  0  0  0  0
    6.1200   -1.2770   -0.1790 N   0  0  0  0  0  0  0  0  0  0  0  0
    6.6580   -2.6280   -0.2150 C   0  0  0  0  0  0  0  0  0  0  0  0
    7.4300   -2.8520    1.0610 C   0  0  0  0  0  0  0  0  0  0  0  0
    8.5980   -1.9350    0.9770 N   0  0  0  0  0  0  0  0  0  0  0  0
    8.5030   -0.8450    0.0400 C   0  0  0  0  0  0  0  0  0  0  0  0
    9.4700   -0.4280   -0.6110 O   0  0  0  0  0  0  0  0  0  0  0  0
    7.1520   -0.2060   -0.1320 C   0  0  2  0  0  0  0  0  0  0  0  0
    6.9300    0.7390    1.0230 C   0  0  0  0  0  0  0  0  0  0  0  0
    7.9880    1.7830    1.0730 C   0  0  0  0  0  0  0  0  0  0  0  0
    9.0460    1.5960    1.7170 O   0  0  0  0  0  0  0  0  0  0  0  0
    7.7560    3.0260    0.3520 C   0  0  0  0  0  0  0  0  0  0  0  0
    6.6890    3.4270   -0.4010 C   0  0  0  0  0  0  0  0  0  0  0  0
    6.7090    4.6290   -0.9790 C   0  0  0  0  0  0  0  0  0  0  0  0
    7.7990    5.4420   -0.8090 C   0  0  0  0  0  0  0  0  0  0  0  0
    8.8490    4.3760    0.2600 S   0  0  0  0  0  0  0  0  0  0  0  0
    2.3650   -1.2520   -0.3440 C   0  0  0  0  0  0  0  0  0  0  0  0
    1.1980   -1.9680   -0.2860 C   0  0  0  0  0  0  0  0  0  0  0  0
    0.0250   -1.1770   -0.7830 C   0  0  0  0  0  0  0  0  0  0  0  0
  1  2  2  0
  2  3  1  0
  3  4  1  0
  4  5  1  0
  5  6  2  0
  5  7  1  0
  7  8  2  0
  7 13  1  0
  8  9  1  0
  9 10  1  0
  9 11  2  0
 11 12  1  0
 12 13  2  0
 13 14  1  0
 14 15  1  0
 15 16  2  0
 15 17  1  0
 18 17  1  6
 18 19  1  0
 18 45  1  0
 19 20  1  0
 20 21  1  0
 21 22  1  0
 22 23  2  0
 22 44  1  0
 23 24  1  0
 24 25  2  0
 25 26  1  0
 25 43  1  0
 26 27  2  0
 26 28  1  0
 28 29  1  0
 28 34  1  0
 29 30  1  0
 30 31  1  0
 31 32  1  0
 32 33  2  0
 32 34  1  0
 34 35  1  1
 35 36  1  0
 36 37  2  0
 36 38  1  0
 38 39  2  0
 38 42  1  0
 39 40  1  0
 40 41  2  0
 41 42  1  0
 43 44  2  0
 44 45  1  0
M  END
