
     RDKit          3D

 40 44  0  0  0  0  0  0  0  0999 V2000
    9.5850    2.1380    0.4630 C   0  0  0  0  0  0  0  0  0  0  0  0
    9.7410    1.2060   -0.6470 N   0  0  0  0  0  0  0  0  0  0  0  0
    9.4900   -0.1580   -0.1530 C   0  0  0  0  0  0  0  0  0  0  0  0
    8.0400   -0.4830   -0.2300 C   0  0  0  0  0  0  0  0  0  0  0  0
    7.5230   -1.0820   -1.3600 C   0  0  0  0  0  0  0  0  0  0  0  0
    6.1780   -1.3960   -1.4580 C   0  0  0  0  0  0  0  0  0  0  0  0
    5.3320   -1.1140   -0.4240 C   0  0  0  0  0  0  0  0  0  0  0  0
    3.9940   -1.4310   -0.5320 C   0  0  0  0  0  0  0  0  0  0  0  0
    3.5010   -1.9810   -1.5610 O   0  0  0  0  0  0  0  0  0  0  0  0
    3.2020   -1.1330    0.5120 N   0  0  0  0  0  0  0  0  0  0  0  0
    3.6520   -0.5520    1.6310 C   0  0  0  0  0  0  0  0  0  0  0  0
    2.5010   -0.2030    2.9440 S   0  0  0  0  0  0  0  0  0  0  0  0
    0.8020   -0.7120    2.4340 C   0  0  0  0  0  0  0  0  0  0  0  0
    0.3370    0.1600    1.3290 C   0  0  0  0  0  0  0  0  0  0  0  0
    1.1610    1.0890    0.9980 O   0  0  0  0  0  0  0  0  0  0  0  0
   -0.9030    0.0330    0.6520 N   0  0  0  0  0  0  0  0  0  0  0  0
   -1.3660    0.8220   -0.3570 C   0  0  0  0  0  0  0  0  0  0  0  0
   -0.7390    1.9600   -0.9790 C   0  0  0  0  0  0  0  0  0  0  0  0
    0.3570    2.4160   -0.6850 O   0  0  0  0  0  0  0  0  0  0  0  0
   -1.4140    2.6270   -2.0150 O   0  0  0  0  0  0  0  0  0  0  0  0
   -2.6360    0.3620   -0.7590 C   0  0  0  0  0  0  0  0  0  0  0  0
   -3.4370    0.9220   -1.7940 N   0  0  0  0  0  0  0  0  0  0  0  0
   -2.9390   -0.7030    0.0090 C   0  0  0  0  0  0  0  0  0  0  0  0
   -4.0880   -1.4960   -0.0220 C   0  0  0  0  0  0  0  0  0  0  0  0
   -5.2110   -1.2550   -0.9290 C   0  0  1  0  0  0  0  0  0  0  0  0
   -6.0150   -2.4620   -1.0700 N   0  0  0  0  0  0  0  0  0  0  0  0
   -6.0870   -0.1540   -0.5240 C   0  0  0  0  0  0  0  0  0  0  0  0
   -5.7880    0.6880    0.5260 C   0  0  0  0  0  0  0  0  0  0  0  0
   -6.6410    1.7150    0.8740 C   0  0  0  0  0  0  0  0  0  0  0  0
   -7.8180    1.9270    0.1780 C   0  0  0  0  0  0  0  0  0  0  0  0
   -8.7500    3.0340    0.5440 C   0  0  0  0  0  0  0  0  0  0  0  0
   -8.1190    1.0850   -0.8730 C   0  0  0  0  0  0  0  0  0  0  0  0
   -7.2590    0.0650   -1.2080 C   0  0  0  0  0  0  0  0  0  0  0  0
   -4.1420   -2.5400    0.8750 C   0  0  0  0  0  0  0  0  0  0  0  0
   -3.1100   -2.7720    1.7460 C   0  0  0  0  0  0  0  0  0  0  0  0
   -1.9760   -1.9610    1.7510 C   0  0  0  0  0  0  0  0  0  0  0  0
   -1.8830   -0.8950    0.8590 C   0  0  0  0  0  0  0  0  0  0  0  0
    4.9580   -0.2550    1.7080 N   0  0  0  0  0  0  0  0  0  0  0  0
    5.8260   -0.5160    0.7140 C   0  0  0  0  0  0  0  0  0  0  0  0
    7.1730   -0.1990    0.8190 C   0  0  0  0  0  0  0  0  0  0  0  0
  1  2  1  0
  2  3  1  0
  3  4  1  0
  4  5  2  0
  4 40  1  0
  5  6  1  0
  6  7  2  0
  7  8  1  0
  7 39  1  0
  8  9  2  0
  8 10  1  0
 10 11  1  0
 11 12  1  0
 11 38  2  0
 12 13  1  0
 13 14  1  0
 14 15  2  0
 14 16  1  0
 16 17  1  0
 16 37  1  0
 17 18  1  0
 17 21  2  0
 18 19  2  0
 18 20  1  0
 21 22  1  0
 21 23  1  0
 23 24  2  0
 23 37  1  0
 24 25  1  0
 24 34  1  0
 25 26  1  1
 25 27  1  0
 27 28  2  0
 27 33  1  0
 28 29  1  0
 29 30  2  0
 30 31  1  0
 30 32  1  0
 32 33  2  0
 34 35  2  0
 35 36  1  0
 36 37  2  0
 38 39  1  0
 39 40  2  0
M  CHG  2   2   1  26   1
M  END
