
     RDKit          3D

 40 44  0  0  0  0  0  0  0  0999 V2000
   -6.3320    4.7160    0.8910 N   0  0  0  0  0  0  0  0  0  0  0  0
   -5.5760    3.4890    0.5700 C   0  0  0  0  0  0  0  0  0  0  0  0
   -5.1450    3.4790   -0.8700 C   0  0  0  0  0  0  0  0  0  0  0  0
   -4.4280    2.4260   -1.3150 O   0  0  0  0  0  0  0  0  0  0  0  0
   -4.5910    1.0830   -1.4560 C   0  0  0  0  0  0  0  0  0  0  0  0
   -5.7530    0.4460   -1.1050 C   0  0  0  0  0  0  0  0  0  0  0  0
   -5.8670   -0.9310   -1.2690 C   0  0  0  0  0  0  0  0  0  0  0  0
   -4.8360   -1.6820   -1.7790 C   0  0  0  0  0  0  0  0  0  0  0  0
   -3.6640   -0.9980   -2.1270 C   0  0  0  0  0  0  0  0  0  0  0  0
   -3.5150    0.3280   -1.9850 C   0  0  0  0  0  0  0  0  0  0  0  0
   -2.3630    1.0550   -2.3790 C   0  0  0  0  0  0  0  0  0  0  0  0
   -1.0920    0.9090   -2.1010 C   0  0  0  0  0  0  0  0  0  0  0  0
    0.0220    1.7010   -2.5560 C   0  0  0  0  0  0  0  0  0  0  0  0
   -0.0800    2.6650   -3.3890 O   0  0  0  0  0  0  0  0  0  0  0  0
    1.2080    1.2580   -1.9560 N   0  0  0  0  0  0  0  0  0  0  0  0
    0.9610    0.1490   -1.0700 C   0  0  0  0  0  0  0  0  0  0  0  0
    1.9080   -0.4370   -0.3400 C   0  0  0  0  0  0  0  0  0  0  0  0
    2.0440   -1.4040    0.5110 N   0  0  0  0  0  0  0  0  0  0  0  0
    3.2010   -1.6410    1.0940 C   0  0  0  0  0  0  0  0  0  0  0  0
    3.3140   -2.6220    1.9500 O   0  0  0  0  0  0  0  0  0  0  0  0
    4.2610   -0.8950    0.8230 C   0  0  0  0  0  0  0  0  0  0  0  0
    5.5380   -0.8780    1.2150 C   0  0  0  0  0  0  0  0  0  0  0  0
    6.4500    0.1200    0.7010 C   0  0  0  0  0  0  0  0  0  0  0  0
    7.7130    0.2480    1.0030 C   0  0  0  0  0  0  0  0  0  0  0  0
    8.4830    1.3110    0.3940 C   0  0  0  0  0  0  0  0  0  0  0  0
    8.0430    2.1600   -0.4570 N   0  0  0  0  0  0  0  0  0  0  0  0
    9.0580    3.0470   -0.8320 N   0  0  0  0  0  0  0  0  0  0  0  0
   10.2060    2.6640   -0.1040 C   0  0  0  0  0  0  0  0  0  0  0  0
    9.8730    1.6210    0.6340 C   0  0  0  0  0  0  0  0  0  0  0  0
    3.6190    0.2740   -0.3660 S   0  0  0  0  0  0  0  0  0  0  0  0
   -0.4920   -0.0880   -1.1500 C   0  0  0  0  0  0  0  0  0  0  0  0
   -1.1470   -0.9130   -0.5750 N   0  0  0  0  0  0  0  0  0  0  0  0
   -1.4530   -1.9390    0.2340 C   0  0  0  0  0  0  0  0  0  0  0  0
   -1.5610   -3.2420   -0.2220 C   0  0  0  0  0  0  0  0  0  0  0  0
   -1.8800   -4.2830    0.5970 C   0  0  0  0  0  0  0  0  0  0  0  0
   -2.1140   -4.0770    1.9430 C   0  0  0  0  0  0  0  0  0  0  0  0
   -2.4830   -5.2360    2.7800 C   0  0  0  0  0  0  0  0  0  0  0  0
   -1.4070   -6.0880    2.9870 O   0  0  0  0  0  0  0  0  0  0  0  0
   -2.0150   -2.7860    2.4390 C   0  0  0  0  0  0  0  0  0  0  0  0
   -1.6950   -1.7540    1.6090 C   0  0  0  0  0  0  0  0  0  0  0  0
  1  2  1  0
  2  3  1  0
  3  4  1  0
  4  5  1  0
  5  6  2  0
  5 10  1  0
  6  7  1  0
  7  8  2  0
  8  9  1  0
  9 10  2  0
 10 11  1  0
 11 12  2  3
 12 13  1  0
 12 31  1  0
 13 14  2  0
 13 15  1  0
 15 16  1  0
 16 17  2  3
 16 31  1  0
 17 18  1  0
 17 30  1  0
 18 19  1  0
 19 20  2  0
 19 21  1  0
 21 22  2  3
 21 30  1  0
 22 23  1  0
 23 24  2  3
 24 25  1  0
 25 26  2  0
 25 29  1  0
 26 27  1  0
 27 28  1  0
 28 29  2  0
 31 32  2  3
 32 33  1  0
 33 34  2  0
 33 40  1  0
 34 35  1  0
 35 36  2  0
 36 37  1  0
 36 39  1  0
 37 38  1  0
 39 40  2  0
M  CHG  2   1   1  27   1
M  END
