
     RDKit          3D

 40 42  0  0  0  0  0  0  0  0999 V2000
   -7.1640   -2.1530   -0.9140 C   0  0  0  0  0  0  0  0  0  0  0  0
   -5.7140   -2.5230   -0.5980 C   0  0  0  0  0  0  0  0  0  0  0  0
   -4.9930   -1.5770   -0.1450 C   0  0  0  0  0  0  0  0  0  0  0  0
   -5.6170    0.1170    0.1180 S   0  0  0  0  0  0  0  0  0  0  0  0
   -4.4510    1.1050   -0.8730 C   0  0  0  0  0  0  0  0  0  0  0  0
   -3.0950    0.4500   -0.9330 C   0  0  0  0  0  0  0  0  0  0  0  0
   -2.8440   -0.4080    0.2250 N   0  0  0  0  0  0  0  0  0  0  0  0
   -2.1560    0.0610    1.3730 C   0  0  0  0  0  0  0  0  0  0  0  0
   -0.7890    0.5600    1.3540 C   0  0  2  0  0  0  0  0  0  0  0  0
   -0.5520    1.5990    0.4120 O   0  0  0  0  0  0  0  0  0  0  0  0
   -0.3730    2.9230    0.6730 C   0  0  0  0  0  0  0  0  0  0  0  0
   -0.4220    3.2770    1.8930 O   0  0  0  0  0  0  0  0  0  0  0  0
   -0.1350    3.9410   -0.3320 C   0  0  0  0  0  0  0  0  0  0  0  0
    0.0320    5.2450    0.0520 C   0  0  0  0  0  0  0  0  0  0  0  0
    0.2630    6.2390   -0.9070 C   0  0  0  0  0  0  0  0  0  0  0  0
    0.3150    5.8740   -2.2010 N   0  0  0  0  0  0  0  0  0  0  0  0
    0.1500    4.5900   -2.5780 C   0  0  0  0  0  0  0  0  0  0  0  0
   -0.0790    3.5880   -1.6580 C   0  0  0  0  0  0  0  0  0  0  0  0
    0.3850   -0.2830    1.6160 C   0  0  0  0  0  0  0  0  0  0  0  0
    0.4350   -1.1360    2.5240 O   0  0  0  0  0  0  0  0  0  0  0  0
    1.5650   -0.1500    0.8040 N   0  0  0  0  0  0  0  0  0  0  0  0
    2.7600   -0.8570    0.9050 C   0  0  0  0  0  0  0  0  0  0  0  0
    3.0460   -1.8390    1.8100 C   0  0  0  0  0  0  0  0  0  0  0  0
    4.2480   -2.5080    1.8650 C   0  0  0  0  0  0  0  0  0  0  0  0
    4.5150   -3.4770    2.7670 F   0  0  0  0  0  0  0  0  0  0  0  0
    5.2780   -2.2000    0.9580 C   0  0  0  0  0  0  0  0  0  0  0  0
    6.4600   -2.8940    1.0520 O   0  0  0  0  0  0  0  0  0  0  0  0
    7.5680   -2.7170    0.2420 C   0  0  2  0  0  0  0  0  0  0  0  0
    7.9990   -3.9260   -0.3250 F   0  0  0  0  0  0  0  0  0  0  0  0
    8.6790   -2.2890    1.0020 F   0  0  0  0  0  0  0  0  0  0  0  0
    5.0050   -1.2150    0.0420 C   0  0  0  0  0  0  0  0  0  0  0  0
    3.7840   -0.5470   -0.0020 C   0  0  0  0  0  0  0  0  0  0  0  0
    3.6150    0.4320   -0.9690 O   0  0  0  0  0  0  0  0  0  0  0  0
    4.6470    0.7440   -1.8830 C   0  0  0  0  0  0  0  0  0  0  0  0
   -3.5190   -1.6590    0.2240 C   0  0  0  0  0  0  0  0  0  0  0  0
   -3.1030   -2.8290    0.5650 C   0  0  0  0  0  0  0  0  0  0  0  0
   -3.9980   -3.8910    0.5920 F   0  0  0  0  0  0  0  0  0  0  0  0
   -1.7230   -3.2190    0.8660 C   0  0  2  0  0  0  0  0  0  0  0  0
   -1.4460   -3.3250    2.1970 F   0  0  0  0  0  0  0  0  0  0  0  0
   -0.7540   -2.5670    0.1840 F   0  0  0  0  0  0  0  0  0  0  0  0
  1  2  1  0
  2  3  2  3
  3  4  1  0
  3 35  1  0
  4  5  1  0
  5  6  1  0
  6  7  1  0
  7  8  1  0
  7 35  1  0
  9  8  1  6
  9 10  1  0
  9 19  1  0
 10 11  1  0
 11 12  2  0
 11 13  1  0
 13 14  2  0
 13 18  1  0
 14 15  1  0
 15 16  2  0
 16 17  1  0
 17 18  2  0
 19 20  2  0
 19 21  1  0
 21 22  1  0
 22 23  2  0
 22 32  1  0
 23 24  1  0
 24 25  1  0
 24 26  2  0
 26 27  1  0
 26 31  1  0
 27 28  1  0
 28 29  1  1
 28 30  1  0
 31 32  2  0
 32 33  1  0
 33 34  1  0
 35 36  2  3
 36 37  1  0
 36 38  1  0
 38 39  1  1
 38 40  1  0
M  END
