
     RDKit          3D

 40 44  0  0  0  0  0  0  0  0999 V2000
   -5.9070    1.3430    2.5770 C   0  0  0  0  0  0  0  0  0  0  0  0
   -7.0080    0.6560    1.8840 C   0  0  0  0  0  0  0  0  0  0  0  0
   -8.2840    1.0030    2.1810 C   0  0  0  0  0  0  0  0  0  0  0  0
   -9.3110    0.3670    1.5480 C   0  0  0  0  0  0  0  0  0  0  0  0
   -9.0290   -0.5980    0.6310 C   0  0  0  0  0  0  0  0  0  0  0  0
  -10.0810   -1.2760   -0.0440 N   0  0  0  0  0  0  0  0  0  0  0  0
   -7.6980   -0.9910    0.2880 C   0  0  0  0  0  0  0  0  0  0  0  0
   -7.6090   -2.0010   -0.7450 C   0  0  0  0  0  0  0  0  0  0  0  0
   -6.3660   -2.4380   -1.2400 N   0  0  0  0  0  0  0  0  0  0  0  0
   -6.7090   -0.3550    0.9280 C   0  0  0  0  0  0  0  0  0  0  0  0
   -5.2740   -0.6290    0.7240 C   0  0  0  0  0  0  0  0  0  0  0  0
   -4.7640   -1.7590    0.8910 O   0  0  0  0  0  0  0  0  0  0  0  0
   -4.4280    0.4400    0.3190 N   0  0  0  0  0  0  0  0  0  0  0  0
   -3.0460    0.3700    0.0810 C   0  0  0  0  0  0  0  0  0  0  0  0
   -2.2220   -0.6990    0.2720 C   0  0  0  0  0  0  0  0  0  0  0  0
   -0.8720   -0.6750    0.0030 C   0  0  0  0  0  0  0  0  0  0  0  0
   -0.2840    0.4870   -0.4910 C   0  0  0  0  0  0  0  0  0  0  0  0
   -1.0690    1.5740   -0.6960 C   0  0  0  0  0  0  0  0  0  0  0  0
   -2.4260    1.5170   -0.4150 C   0  0  0  0  0  0  0  0  0  0  0  0
   -0.3610    3.0550   -1.3180 S   0  0  1  0  0  0  0  0  0  0  0  0
   -1.0690    3.4070   -2.5950 O   0  0  0  0  0  0  0  0  0  0  0  0
   -0.5020    4.1820   -0.3210 O   0  0  0  0  0  0  0  0  0  0  0  0
    1.3120    2.7880   -1.5550 N   0  0  0  0  0  0  0  0  0  0  0  0
    1.8190    1.6390   -1.2770 C   0  0  0  0  0  0  0  0  0  0  0  0
    3.2730    1.5340   -1.5240 C   0  0  0  0  0  0  0  0  0  0  0  0
    3.8350    2.2710   -2.5420 C   0  0  0  0  0  0  0  0  0  0  0  0
    5.1950    2.1880   -2.7930 C   0  0  0  0  0  0  0  0  0  0  0  0
    5.9940    1.3470   -2.0020 C   0  0  0  0  0  0  0  0  0  0  0  0
    5.4500    0.6140   -0.9930 C   0  0  0  0  0  0  0  0  0  0  0  0
    6.1670   -0.2400   -0.1390 N   0  0  0  0  0  0  0  0  0  0  0  0
    7.5760   -0.3390    0.0040 C   0  0  0  0  0  0  0  0  0  0  0  0
    8.2680    0.4120   -0.6950 O   0  0  0  0  0  0  0  0  0  0  0  0
    8.1810   -1.2920    0.9430 C   0  0  0  0  0  0  0  0  0  0  0  0
    9.6560   -1.2130    0.9750 C   0  0  0  0  0  0  0  0  0  0  0  0
   10.5110   -0.4680    0.3420 C   0  0  0  0  0  0  0  0  0  0  0  0
   11.9370   -0.7870    0.7420 C   0  0  0  0  0  0  0  0  0  0  0  0
   11.7380   -1.8530    1.7210 C   0  0  0  0  0  0  0  0  0  0  0  0
   10.4730   -2.0920    1.8530 C   0  0  0  0  0  0  0  0  0  0  0  0
    4.0550    0.7260   -0.7670 C   0  0  0  0  0  0  0  0  0  0  0  0
    1.0920    0.5420   -0.7760 N   0  0  0  0  0  0  0  0  0  0  0  0
  1  2  1  0
  2  3  2  0
  2 10  1  0
  3  4  1  0
  4  5  2  0
  5  6  1  0
  5  7  1  0
  7  8  1  0
  7 10  2  0
  8  9  1  0
 10 11  1  0
 11 12  2  0
 11 13  1  0
 13 14  1  0
 14 15  2  0
 14 19  1  0
 15 16  1  0
 16 17  2  0
 17 18  1  0
 17 40  1  0
 18 19  2  0
 18 20  1  0
 20 21  2  0
 20 22  2  0
 20 23  1  6
 23 24  2  0
 24 25  1  0
 24 40  1  0
 25 26  2  0
 25 39  1  0
 26 27  1  0
 27 28  2  0
 28 29  1  0
 29 30  1  0
 29 39  2  0
 30 31  1  0
 31 32  2  0
 31 33  1  0
 33 34  1  0
 34 35  2  0
 34 38  1  0
 35 36  1  0
 36 37  1  0
 37 38  2  0
M  CHG  2   6   1   9   1
M  END
