
     RDKit          3D

 40 44  0  0  0  0  0  0  0  0999 V2000
   11.4370    0.6800    0.5480 C   0  0  0  0  0  0  0  0  0  0  0  0
   10.5920    0.1600    1.6700 C   0  0  0  0  0  0  0  0  0  0  0  0
    9.3340   -0.3120    1.1160 N   0  0  0  0  0  0  0  0  0  0  0  0
    8.5000    0.8590    0.9020 C   0  0  0  0  0  0  0  0  0  0  0  0
    7.9760    0.8280   -0.4850 C   0  0  0  0  0  0  0  0  0  0  0  0
    8.6410    1.4380   -1.5190 C   0  0  0  0  0  0  0  0  0  0  0  0
    8.1050    1.3750   -2.7710 C   0  0  0  0  0  0  0  0  0  0  0  0
    6.8960    0.7040   -3.0320 C   0  0  0  0  0  0  0  0  0  0  0  0
    6.4110    0.6760   -4.3010 O   0  0  0  0  0  0  0  0  0  0  0  0
    6.2220    0.0890   -2.0060 C   0  0  0  0  0  0  0  0  0  0  0  0
    4.9760   -0.6440   -2.1560 C   0  0  0  0  0  0  0  0  0  0  0  0
    4.4530   -0.7530   -3.2730 O   0  0  0  0  0  0  0  0  0  0  0  0
    4.3580   -1.2320   -1.0440 N   0  0  0  0  0  0  0  0  0  0  0  0
    3.0520   -1.3040   -0.9630 C   0  0  0  0  0  0  0  0  0  0  0  0
    2.1350   -0.8690   -1.8420 N   0  0  0  0  0  0  0  0  0  0  0  0
    0.8830   -1.1650   -1.3790 C   0  0  0  0  0  0  0  0  0  0  0  0
   -0.3750   -0.9530   -1.8870 C   0  0  0  0  0  0  0  0  0  0  0  0
   -1.4940   -1.3840   -1.1810 C   0  0  0  0  0  0  0  0  0  0  0  0
   -1.3730   -2.0240    0.0280 C   0  0  0  0  0  0  0  0  0  0  0  0
   -2.8340   -2.5910    0.9320 S   0  0  0  0  0  0  0  0  0  0  0  0
   -3.4280   -1.2250    1.9910 C   0  0  0  0  0  0  0  0  0  0  0  0
   -3.9520   -0.1530    1.1080 C   0  0  0  0  0  0  0  0  0  0  0  0
   -3.1490    0.4920    0.4220 O   0  0  0  0  0  0  0  0  0  0  0  0
   -5.3500    0.1420    1.0390 N   0  0  0  0  0  0  0  0  0  0  0  0
   -6.3260   -0.5200    1.9000 C   0  0  0  0  0  0  0  0  0  0  0  0
   -7.5870    0.3390    1.8100 C   0  0  2  0  0  0  0  0  0  0  0  0
   -8.7170   -0.6200    1.6730 C   0  0  0  0  0  0  0  0  0  0  0  0
  -10.0810   -0.0580    1.5470 C   0  0  0  0  0  0  0  0  0  0  0  0
  -11.0260   -1.1760    1.4910 N   0  0  0  0  0  0  0  0  0  0  0  0
   -7.3320    1.2560    0.7120 C   0  0  0  0  0  0  0  0  0  0  0  0
   -8.1700    2.1940    0.1000 C   0  0  0  0  0  0  0  0  0  0  0  0
   -7.7550    2.9410   -0.9690 C   0  0  0  0  0  0  0  0  0  0  0  0
   -6.4810    2.7530   -1.4400 C   0  0  0  0  0  0  0  0  0  0  0  0
   -5.6230    1.8310   -0.8530 C   0  0  0  0  0  0  0  0  0  0  0  0
   -4.3500    1.7030   -1.3950 O   0  0  0  0  0  0  0  0  0  0  0  0
   -6.0430    1.0740    0.2330 C   0  0  0  0  0  0  0  0  0  0  0  0
   -0.1070   -2.2310    0.5280 C   0  0  0  0  0  0  0  0  0  0  0  0
    1.0240   -1.8040   -0.1700 C   0  0  0  0  0  0  0  0  0  0  0  0
    2.3520   -1.8660    0.0440 N   0  0  0  0  0  0  0  0  0  0  0  0
    6.8020    0.1750   -0.7320 C   0  0  0  0  0  0  0  0  0  0  0  0
  1  2  1  0
  2  3  1  0
  3  4  1  0
  4  5  1  0
  5  6  2  0
  5 40  1  0
  6  7  1  0
  7  8  2  0
  8  9  1  0
  8 10  1  0
 10 11  1  0
 10 40  2  0
 11 12  2  0
 11 13  1  0
 13 14  2  3
 14 15  1  0
 14 39  1  0
 15 16  1  0
 16 17  2  0
 16 38  1  0
 17 18  1  0
 18 19  2  0
 19 20  1  0
 19 37  1  0
 20 21  1  0
 21 22  1  0
 22 23  2  0
 22 24  1  0
 24 25  1  0
 24 36  1  0
 25 26  1  0
 26 27  1  6
 26 30  1  0
 27 28  1  0
 28 29  1  0
 30 31  2  0
 30 36  1  0
 31 32  1  0
 32 33  2  0
 33 34  1  0
 34 35  1  0
 34 36  2  0
 37 38  2  0
 38 39  1  0
M  CHG  2   3   1  29   1
M  END
