
     RDKit          3D

 40 42  0  0  0  0  0  0  0  0999 V2000
   -6.3240   -2.4570    1.9880 C   0  0  0  0  0  0  0  0  0  0  0  0
   -7.4900   -1.8880    1.8120 C   0  0  0  0  0  0  0  0  0  0  0  0
   -7.9220   -1.1690    0.5820 C   0  0  0  0  0  0  0  0  0  0  0  0
   -6.9270   -1.1070   -0.4460 N   0  0  0  0  0  0  0  0  0  0  0  0
   -5.7140   -0.3810   -0.3400 C   0  0  0  0  0  0  0  0  0  0  0  0
   -5.3520    0.3650    0.7580 C   0  0  0  0  0  0  0  0  0  0  0  0
   -4.1440    1.0740    0.8250 C   0  0  0  0  0  0  0  0  0  0  0  0
   -3.2730    1.0470   -0.2130 C   0  0  0  0  0  0  0  0  0  0  0  0
   -1.9290    1.7270   -0.1810 C   0  0  0  0  0  0  0  0  0  0  0  0
   -1.2580    1.9760   -1.2880 N   0  0  0  0  0  0  0  0  0  0  0  0
   -0.0860    2.5130   -1.2810 C   0  0  0  0  0  0  0  0  0  0  0  0
    0.7080    2.8410   -2.2450 N   0  0  0  0  0  0  0  0  0  0  0  0
    1.9580    3.4200   -1.9930 C   0  0  0  0  0  0  0  0  0  0  0  0
    2.2050    4.5660   -2.4280 O   0  0  0  0  0  0  0  0  0  0  0  0
    2.9620    2.6950   -1.2330 C   0  0  0  0  0  0  0  0  0  0  0  0
    2.9270    1.4500   -0.6480 C   0  0  0  0  0  0  0  0  0  0  0  0
    4.1460    1.2350   -0.0440 C   0  0  0  0  0  0  0  0  0  0  0  0
    4.5830    0.0510    0.6980 C   0  0  0  0  0  0  0  0  0  0  0  0
    5.7530   -0.0280    1.1270 O   0  0  0  0  0  0  0  0  0  0  0  0
    3.6910   -0.9670    0.9140 O   0  0  0  0  0  0  0  0  0  0  0  0
    4.0350   -2.1180    1.6070 C   0  0  0  0  0  0  0  0  0  0  0  0
    5.1080   -2.8700    0.8900 C   0  0  0  0  0  0  0  0  0  0  0  0
    4.6950   -3.2530   -0.3960 O   0  0  0  0  0  0  0  0  0  0  0  0
    5.7390   -3.9540   -0.9860 C   0  0  2  0  0  0  0  0  0  0  0  0
    5.9960   -5.0550   -0.1920 F   0  0  0  0  0  0  0  0  0  0  0  0
    6.8370   -3.1540   -1.0630 F   0  0  0  0  0  0  0  0  0  0  0  0
    5.3740   -4.4230   -2.2420 F   0  0  0  0  0  0  0  0  0  0  0  0
    4.8880    2.3540   -0.2790 C   0  0  0  0  0  0  0  0  0  0  0  0
    6.3010    2.6480    0.1580 C   0  0  0  0  0  0  0  0  0  0  0  0
    7.2780    1.8700   -0.6880 C   0  0  0  0  0  0  0  0  0  0  0  0
    4.1660    3.1710   -0.9690 O   0  0  0  0  0  0  0  0  0  0  0  0
    0.2620    2.7640    0.4620 S   0  0  0  0  0  0  0  0  0  0  0  0
   -1.3320    2.0610    1.0020 C   0  0  0  0  0  0  0  0  0  0  0  0
   -1.6870    1.9400    2.4360 C   0  0  0  0  0  0  0  0  0  0  0  0
   -3.6260    0.2990   -1.3280 C   0  0  0  0  0  0  0  0  0  0  0  0
   -4.8280   -0.4020   -1.3860 C   0  0  0  0  0  0  0  0  0  0  0  0
   -5.1360   -1.1640   -2.6110 C   0  0  2  0  0  0  0  0  0  0  0  0
   -6.2970   -0.6880   -3.2130 F   0  0  0  0  0  0  0  0  0  0  0  0
   -5.1700   -2.5250   -2.3980 F   0  0  0  0  0  0  0  0  0  0  0  0
   -4.1420   -0.9610   -3.5780 F   0  0  0  0  0  0  0  0  0  0  0  0
  1  2  2  0
  2  3  1  0
  3  4  1  0
  4  5  1  0
  5  6  2  0
  5 36  1  0
  6  7  1  0
  7  8  2  0
  8  9  1  0
  8 35  1  0
  9 10  1  0
  9 33  2  0
 10 11  1  0
 11 12  2  3
 11 32  1  0
 12 13  1  0
 13 14  2  0
 13 15  1  0
 15 16  2  0
 15 31  1  0
 16 17  1  0
 17 18  1  0
 17 28  2  0
 18 19  2  0
 18 20  1  0
 20 21  1  0
 21 22  1  0
 22 23  1  0
 23 24  1  0
 24 25  1  1
 24 26  1  0
 24 27  1  0
 28 29  1  0
 28 31  1  0
 29 30  1  0
 32 33  1  0
 33 34  1  0
 35 36  2  0
 36 37  1  0
 37 38  1  6
 37 39  1  0
 37 40  1  0
M  END
