
     RDKit          3D

 22 24  0  0  0  0  0  0  0  0999 V2000
    3.7920   -0.3000   -2.0580 C   0  0  0  0  0  0  0  0  0  0  0  0
    3.8450    0.6660   -0.8940 C   0  0  0  0  0  0  0  0  0  0  0  0
    2.5410    0.9020   -0.3940 N   0  0  0  0  0  0  0  0  0  0  0  0
    1.6370   -0.0690    0.1000 C   0  0  0  0  0  0  0  0  0  0  0  0
    2.0360   -1.3140    0.5070 C   0  0  0  0  0  0  0  0  0  0  0  0
    3.4050   -1.7320    0.5360 C   0  0  0  0  0  0  0  0  0  0  0  0
    4.5080   -2.0870    0.5690 N   0  0  0  0  0  0  0  0  0  0  0  0
    1.0570   -2.2090    0.9400 C   0  0  0  0  0  0  0  0  0  0  0  0
    1.4490   -3.3470    1.3090 O   0  0  0  0  0  0  0  0  0  0  0  0
   -0.2480   -1.9020    0.9760 N   0  0  0  0  0  0  0  0  0  0  0  0
   -1.1340   -2.8390    1.4130 C   0  0  0  0  0  0  0  0  0  0  0  0
   -2.4850   -2.5910    1.4720 C   0  0  0  0  0  0  0  0  0  0  0  0
   -2.9570   -1.3470    1.0740 C   0  0  0  0  0  0  0  0  0  0  0  0
   -4.1720   -1.0660    1.1060 O   0  0  0  0  0  0  0  0  0  0  0  0
   -2.0420   -0.4220    0.6380 C   0  0  0  0  0  0  0  0  0  0  0  0
   -2.4710    0.8280    0.2270 C   0  0  0  0  0  0  0  0  0  0  0  0
   -3.9150    1.1330    0.2750 C   0  0  0  0  0  0  0  0  0  0  0  0
   -1.5880    1.7840   -0.2210 C   0  0  0  0  0  0  0  0  0  0  0  0
   -2.0790    3.0950   -0.6490 C   0  0  0  0  0  0  0  0  0  0  0  0
   -0.2330    1.4580   -0.2510 C   0  0  0  0  0  0  0  0  0  0  0  0
    0.2610    0.2410    0.1420 C   0  0  0  0  0  0  0  0  0  0  0  0
   -0.6660   -0.6890    0.5830 C   0  0  0  0  0  0  0  0  0  0  0  0
  1  2  1  0
  2  3  1  0
  3  4  1  0
  4  5  2  0
  4 21  1  0
  5  6  1  0
  5  8  1  0
  6  7  3  0
  8  9  2  0
  8 10  1  0
 10 11  1  0
 10 22  1  0
 11 12  2  0
 12 13  1  0
 13 14  2  0
 13 15  1  0
 15 16  1  0
 15 22  2  0
 16 17  1  0
 16 18  2  0
 18 19  1  0
 18 20  1  0
 20 21  2  0
 21 22  1  0
M  END
