
     RDKit          3D

 19 21  0  0  0  0  0  0  0  0999 V2000
   -4.9080    1.8740   -0.9660 C   0  0  0  0  0  0  0  0  0  0  0  0
   -4.1690    0.8680   -0.1180 C   0  0  0  0  0  0  0  0  0  0  0  0
   -2.7020    1.0060   -0.3090 C   0  0  0  0  0  0  0  0  0  0  0  0
   -2.3040    1.8990   -1.1120 O   0  0  0  0  0  0  0  0  0  0  0  0
   -1.7720    0.1730    0.3770 N   0  0  0  0  0  0  0  0  0  0  0  0
   -2.2300   -0.8380    1.2870 C   0  0  0  0  0  0  0  0  0  0  0  0
   -1.6890   -2.1630    0.8610 C   0  0  0  0  0  0  0  0  0  0  0  0
   -0.2100   -2.0380    0.7100 C   0  0  0  0  0  0  0  0  0  0  0  0
    0.7180   -2.9940    0.8710 N   0  0  0  0  0  0  0  0  0  0  0  0
    1.8800   -2.4440    0.6370 N   0  0  0  0  0  0  0  0  0  0  0  0
    1.7590   -1.1220    0.3180 C   0  0  0  0  0  0  0  0  0  0  0  0
    2.8940   -0.2760    0.0120 C   0  0  0  0  0  0  0  0  0  0  0  0
    4.1880   -0.8010    0.0520 C   0  0  0  0  0  0  0  0  0  0  0  0
    5.3160   -0.0560   -0.2290 C   0  0  0  0  0  0  0  0  0  0  0  0
    5.2020    1.2750   -0.5720 C   0  0  0  0  0  0  0  0  0  0  0  0
    3.9520    1.8110   -0.6190 C   0  0  0  0  0  0  0  0  0  0  0  0
    2.8110    1.0480   -0.3310 C   0  0  0  0  0  0  0  0  0  0  0  0
    0.4180   -0.8570    0.3630 C   0  0  0  0  0  0  0  0  0  0  0  0
   -0.3500    0.3910    0.1190 C   0  0  0  0  0  0  0  0  0  0  0  0
  1  2  1  0
  2  3  1  0
  3  4  2  0
  3  5  1  0
  5  6  1  0
  5 19  1  0
  6  7  1  0
  7  8  1  0
  8  9  2  0
  8 18  1  0
  9 10  1  0
 10 11  1  0
 11 12  1  0
 11 18  2  0
 12 13  2  0
 12 17  1  0
 13 14  1  0
 14 15  2  0
 15 16  1  0
 16 17  2  0
 18 19  1  0
M  END
