
     RDKit          3D

 22 24  0  0  0  0  0  0  0  0999 V2000
    0.4070   -3.4430   -0.0290 C   0  0  0  0  0  0  0  0  0  0  0  0
   -0.5640   -2.5620   -0.0940 C   0  0  0  0  0  0  0  0  0  0  0  0
   -1.9560   -2.9930   -0.2000 N   0  0  0  0  0  0  0  0  0  0  0  0
   -2.7950   -1.8800   -0.2090 C   0  0  0  0  0  0  0  0  0  0  0  0
   -4.0810   -1.8580   -0.2890 O   0  0  0  0  0  0  0  0  0  0  0  0
   -1.9550   -0.7160   -0.1110 C   0  0  0  0  0  0  0  0  0  0  0  0
   -2.3950    0.4950   -0.0890 N   0  0  0  0  0  0  0  0  0  0  0  0
   -3.7250    0.8530   -0.1560 N   0  0  0  0  0  0  0  0  0  0  0  0
   -4.5990    0.6940   -1.1770 C   0  0  0  0  0  0  0  0  0  0  0  0
   -5.7940    1.2220   -0.7310 C   0  0  0  0  0  0  0  0  0  0  0  0
   -5.6650    1.7060    0.5580 C   0  0  0  0  0  0  0  0  0  0  0  0
   -4.3530    1.4600    0.8940 C   0  0  0  0  0  0  0  0  0  0  0  0
   -0.5070   -1.1170   -0.0370 C   0  0  0  0  0  0  0  0  0  0  0  0
    0.4420   -0.2220   -0.0170 C   0  0  0  0  0  0  0  0  0  0  0  0
    1.8350   -0.1170   -0.0460 C   0  0  0  0  0  0  0  0  0  0  0  0
    2.8330   -1.1600   -0.2260 C   0  0  0  0  0  0  0  0  0  0  0  0
    2.3440    1.1530    0.0360 C   0  0  0  0  0  0  0  0  0  0  0  0
    3.7410    1.4650    0.0280 C   0  0  0  0  0  0  0  0  0  0  0  0
    4.3350    2.5070   -0.7020 C   0  0  0  0  0  0  0  0  0  0  0  0
    5.6880    2.4830   -0.4460 C   0  0  0  0  0  0  0  0  0  0  0  0
    5.8690    1.4270    0.4330 C   0  0  0  0  0  0  0  0  0  0  0  0
    4.7190    0.8820    0.6670 O   0  0  0  0  0  0  0  0  0  0  0  0
  1  2  2  0
  2  3  1  0
  2 13  1  0
  3  4  1  0
  4  5  2  0
  4  6  1  0
  6  7  2  3
  6 13  1  0
  7  8  1  0
  8  9  1  0
  8 12  1  0
  9 10  2  0
 10 11  1  0
 11 12  2  0
 13 14  2  3
 14 15  1  0
 15 16  1  0
 15 17  2  3
 17 18  1  0
 18 19  2  0
 18 22  1  0
 19 20  1  0
 20 21  2  0
 21 22  1  0
M  END
