
     RDKit          3D

 22 24  0  0  0  0  0  0  0  0999 V2000
    6.0190   -0.6270   -1.7500 C   0  0  0  0  0  0  0  0  0  0  0  0
    5.1230   -0.8880   -0.8250 C   0  0  0  0  0  0  0  0  0  0  0  0
    5.3050   -1.8800    0.1210 C   0  0  0  0  0  0  0  0  0  0  0  0
    4.3720   -2.1600    1.0940 C   0  0  0  0  0  0  0  0  0  0  0  0
    3.2150   -1.4150    1.1130 C   0  0  0  0  0  0  0  0  0  0  0  0
    3.0190   -0.4190    0.1710 C   0  0  0  0  0  0  0  0  0  0  0  0
    1.9750    0.4720   -0.0480 C   0  0  0  0  0  0  0  0  0  0  0  0
    0.8680    0.5570    0.6510 C   0  0  0  0  0  0  0  0  0  0  0  0
   -0.0910    1.5290    0.2830 N   0  0  0  0  0  0  0  0  0  0  0  0
   -1.4450    1.1810    0.1680 C   0  0  0  0  0  0  0  0  0  0  0  0
   -2.3490    2.1650   -0.1960 C   0  0  0  0  0  0  0  0  0  0  0  0
   -3.6880    1.8690   -0.3210 C   0  0  0  0  0  0  0  0  0  0  0  0
   -4.6090    2.8640   -0.6890 O   0  0  0  0  0  0  0  0  0  0  0  0
   -5.9600    2.4580   -0.7900 C   0  0  0  0  0  0  0  0  0  0  0  0
   -4.0770    0.5610   -0.0700 C   0  0  0  0  0  0  0  0  0  0  0  0
   -3.1800   -0.4160    0.2910 C   0  0  0  0  0  0  0  0  0  0  0  0
   -3.6280   -1.7070    0.5290 O   0  0  0  0  0  0  0  0  0  0  0  0
   -2.7730   -2.7510    0.8990 C   0  0  0  0  0  0  0  0  0  0  0  0
   -1.8440   -0.1100    0.4130 C   0  0  0  0  0  0  0  0  0  0  0  0
    2.3540    1.2240   -1.1360 C   0  0  0  0  0  0  0  0  0  0  0  0
    3.5800    0.8080   -1.5630 N   0  0  0  0  0  0  0  0  0  0  0  0
    3.9680   -0.1890   -0.7570 N   0  0  0  0  0  0  0  0  0  0  0  0
  1  2  2  0
  2  3  1  0
  2 22  1  0
  3  4  2  0
  4  5  1  0
  5  6  2  0
  6  7  1  0
  6 22  1  0
  7  8  2  3
  7 20  1  0
  8  9  1  0
  9 10  1  0
 10 11  2  0
 10 19  1  0
 11 12  1  0
 12 13  1  0
 12 15  2  0
 13 14  1  0
 15 16  1  0
 16 17  1  0
 16 19  2  0
 17 18  1  0
 20 21  2  0
 21 22  1  0
M  END
