
     RDKit          3D

 22 24  0  0  0  0  0  0  0  0999 V2000
    3.8400   -2.7040    0.5330 C   0  0  0  0  0  0  0  0  0  0  0  0
    4.3970   -1.3940    0.9160 C   0  0  0  0  0  0  0  0  0  0  0  0
    3.7140   -0.3040    0.6970 C   0  0  0  0  0  0  0  0  0  0  0  0
    4.2680    1.0100    1.0780 C   0  0  0  0  0  0  0  0  0  0  0  0
    4.2890    1.8710   -0.1750 C   0  0  0  0  0  0  0  0  0  0  0  0
    2.8930    1.9620   -0.6740 C   0  0  0  0  0  0  0  0  0  0  0  0
    2.4570    3.0480   -1.1740 O   0  0  0  0  0  0  0  0  0  0  0  0
    1.9930    0.8680   -0.6220 N   0  0  0  0  0  0  0  0  0  0  0  0
    0.7190    0.9430   -1.2560 C   0  0  1  0  0  0  0  0  0  0  0  0
    0.4720   -0.1050   -2.2940 C   0  0  0  0  0  0  0  0  0  0  0  0
   -0.4250    0.9180   -0.2290 C   0  0  0  0  0  0  0  0  0  0  0  0
   -1.6970    1.0030   -1.0320 C   0  0  0  0  0  0  0  0  0  0  0  0
   -2.9140    0.9970   -0.1820 C   0  0  0  0  0  0  0  0  0  0  0  0
   -3.6770    2.0790    0.1030 N   0  0  0  0  0  0  0  0  0  0  0  0
   -4.6790    1.7120    0.8840 N   0  0  0  0  0  0  0  0  0  0  0  0
   -4.6150    0.3910    1.1390 C   0  0  0  0  0  0  0  0  0  0  0  0
   -3.5040   -0.0690    0.4710 C   0  0  0  0  0  0  0  0  0  0  0  0
   -3.3770   -1.5290    0.7150 C   0  0  0  0  0  0  0  0  0  0  0  0
   -4.8000   -1.9250    1.0400 C   0  0  0  0  0  0  0  0  0  0  0  0
   -5.2820   -0.7510    1.8620 C   0  0  0  0  0  0  0  0  0  0  0  0
    2.3810   -0.3040    0.0700 C   0  0  0  0  0  0  0  0  0  0  0  0
    1.6650   -1.3260    0.1780 O   0  0  0  0  0  0  0  0  0  0  0  0
  1  2  1  0
  2  3  2  3
  3  4  1  0
  3 21  1  0
  4  5  1  0
  5  6  1  0
  6  7  2  0
  6  8  1  0
  8  9  1  0
  8 21  1  0
  9 10  1  6
  9 11  1  0
 11 12  1  0
 12 13  1  0
 13 14  1  0
 13 17  2  0
 14 15  1  0
 15 16  2  0
 16 17  1  0
 16 20  1  0
 17 18  1  0
 18 19  1  0
 19 20  1  0
 21 22  2  0
M  END
