
     RDKit          3D

 22 24  0  0  0  0  0  0  0  0999 V2000
   -4.3450    1.0190    0.8810 C   0  0  0  0  0  0  0  0  0  0  0  0
   -4.4020   -0.1400   -0.1110 C   0  0  2  0  0  0  0  0  0  0  0  0
   -5.8210   -0.6660   -0.2160 C   0  0  0  0  0  0  0  0  0  0  0  0
   -3.5400   -1.2790    0.3700 C   0  0  0  0  0  0  0  0  0  0  0  0
   -2.1550   -0.8790    0.5110 N   0  0  0  0  0  0  0  0  0  0  0  0
   -1.7210   -0.3800    1.6870 C   0  0  0  0  0  0  0  0  0  0  0  0
   -0.4000   -0.0170    1.7660 C   0  0  0  0  0  0  0  0  0  0  0  0
    0.4320   -0.1630    0.6800 C   0  0  0  0  0  0  0  0  0  0  0  0
    1.7690    0.2160    0.7950 C   0  0  0  0  0  0  0  0  0  0  0  0
    2.6490    0.0950   -0.2510 C   0  0  0  0  0  0  0  0  0  0  0  0
    4.0550    0.4760   -0.1830 C   0  0  0  0  0  0  0  0  0  0  0  0
    4.6360    0.9980    0.9500 C   0  0  0  0  0  0  0  0  0  0  0  0
    5.9880    1.3390    0.9370 C   0  0  0  0  0  0  0  0  0  0  0  0
    6.7680    1.1670   -0.1860 C   0  0  0  0  0  0  0  0  0  0  0  0
    7.9940    1.4660   -0.2280 O   0  0  0  0  0  0  0  0  0  0  0  0
    6.1470    0.6530   -1.2630 N   0  0  0  0  0  0  0  0  0  0  0  0
    4.8700    0.3280   -1.2610 N   0  0  0  0  0  0  0  0  0  0  0  0
    2.1620   -0.4190   -1.4310 C   0  0  0  0  0  0  0  0  0  0  0  0
    0.8400   -0.8060   -1.5820 C   0  0  0  0  0  0  0  0  0  0  0  0
   -0.0190   -0.6720   -0.5130 C   0  0  0  0  0  0  0  0  0  0  0  0
   -1.3520   -1.0300   -0.5680 C   0  0  0  0  0  0  0  0  0  0  0  0
   -1.7620   -1.4970   -1.6630 O   0  0  0  0  0  0  0  0  0  0  0  0
  2  1  1  1
  2  3  1  0
  2  4  1  0
  4  5  1  0
  5  6  1  0
  5 21  1  0
  6  7  2  0
  7  8  1  0
  8  9  2  0
  8 20  1  0
  9 10  1  0
 10 11  1  0
 10 18  2  0
 11 12  1  0
 11 17  2  0
 12 13  2  0
 13 14  1  0
 14 15  2  0
 14 16  1  0
 16 17  1  0
 18 19  1  0
 19 20  2  0
 20 21  1  0
 21 22  2  0
M  END
