
     RDKit          3D

 22 25  0  0  0  0  0  0  0  0999 V2000
    2.1580    0.8340    1.9210 O   0  0  0  0  0  0  0  0  0  0  0  0
    2.1670    0.3940    0.7380 C   0  0  0  0  0  0  0  0  0  0  0  0
    0.9960    0.3780   -0.0990 C   0  0  0  0  0  0  0  0  0  0  0  0
   -0.1720    0.8280    0.3220 C   0  0  0  0  0  0  0  0  0  0  0  0
   -0.3230    1.3640    1.6680 C   0  0  0  0  0  0  0  0  0  0  0  0
   -1.7300    1.8710    1.9410 C   0  0  0  0  0  0  0  0  0  0  0  0
   -2.7440    0.9600    1.3260 C   0  0  0  0  0  0  0  0  0  0  0  0
   -3.8800    0.6410    1.9710 N   0  0  0  0  0  0  0  0  0  0  0  0
   -4.7830   -0.1720    1.4210 N   0  0  0  0  0  0  0  0  0  0  0  0
   -4.5570   -0.6890    0.1870 C   0  0  0  0  0  0  0  0  0  0  0  0
   -5.2990   -1.5350   -0.6050 C   0  0  0  0  0  0  0  0  0  0  0  0
   -4.6360   -1.7730   -1.7910 C   0  0  0  0  0  0  0  0  0  0  0  0
   -3.4650   -1.0530   -1.7110 C   0  0  0  0  0  0  0  0  0  0  0  0
   -3.4480   -0.4190   -0.5220 N   0  0  0  0  0  0  0  0  0  0  0  0
   -2.5510    0.4150    0.0740 C   0  0  0  0  0  0  0  0  0  0  0  0
   -1.3080    0.7500   -0.6610 C   0  0  0  0  0  0  0  0  0  0  0  0
    3.4510   -0.1210    0.2210 C   0  0  0  0  0  0  0  0  0  0  0  0
    4.5150   -0.0930    1.0200 C   0  0  0  0  0  0  0  0  0  0  0  0
    5.8170   -0.5890    0.5650 C   0  0  0  0  0  0  0  0  0  0  0  0
    5.7730   -1.0590   -0.7350 O   0  0  0  0  0  0  0  0  0  0  0  0
    4.7120   -1.1030   -1.5750 C   0  0  0  0  0  0  0  0  0  0  0  0
    3.5270   -0.6420   -1.1340 C   0  0  0  0  0  0  0  0  0  0  0  0
  1  2  2  0
  2  3  1  0
  2 17  1  0
  3  4  2  3
  4  5  1  0
  4 16  1  0
  5  6  1  0
  6  7  1  0
  7  8  1  0
  7 15  2  0
  8  9  2  0
  9 10  1  0
 10 11  2  0
 10 14  1  0
 11 12  1  0
 12 13  2  0
 13 14  1  0
 14 15  1  0
 15 16  1  0
 17 18  2  0
 17 22  1  0
 18 19  1  0
 19 20  1  0
 20 21  1  0
 21 22  2  0
M  END
