
     RDKit          3D

 44 47  0  0  0  0  0  0  0  0999 V2000
   10.0700    2.2490    1.0280 C   0  0  0  0  0  0  0  0  0  0  0  0
    8.5730    2.1210    1.2630 C   0  0  0  0  0  0  0  0  0  0  0  0
    8.1990    0.7550    0.9920 N   0  0  0  0  0  0  0  0  0  0  0  0
    8.2220   -0.2270    2.0350 C   0  0  0  0  0  0  0  0  0  0  0  0
    7.8040    0.4030   -0.3460 C   0  0  0  0  0  0  0  0  0  0  0  0
    7.7910    1.2630   -1.2380 O   0  0  0  0  0  0  0  0  0  0  0  0
    7.4200   -0.9900   -0.6250 C   0  0  0  0  0  0  0  0  0  0  0  0
    6.8620   -1.1790   -2.0030 C   0  0  0  0  0  0  0  0  0  0  0  0
    5.6370   -0.3630   -2.1490 C   0  0  0  0  0  0  0  0  0  0  0  0
    5.7380    0.7690   -2.6880 O   0  0  0  0  0  0  0  0  0  0  0  0
    4.3420   -0.8230   -1.6950 C   0  0  0  0  0  0  0  0  0  0  0  0
    4.1520   -1.9810   -1.1260 C   0  0  0  0  0  0  0  0  0  0  0  0
    2.9310   -2.5450   -0.6360 C   0  0  0  0  0  0  0  0  0  0  0  0
    1.7630   -1.9570   -0.6870 C   0  0  0  0  0  0  0  0  0  0  0  0
    0.7150   -2.7970   -0.1050 C   0  0  0  0  0  0  0  0  0  0  0  0
   -0.5740   -2.5480    0.0500 C   0  0  0  0  0  0  0  0  0  0  0  0
   -1.3120   -1.3400   -0.3280 C   0  0  0  0  0  0  0  0  0  0  0  0
   -0.9300   -0.2120   -0.9050 C   0  0  0  0  0  0  0  0  0  0  0  0
   -1.9100    0.8400   -1.1620 C   0  0  2  0  0  0  0  0  0  0  0  0
   -1.4920    2.1600   -0.4950 C   0  0  0  0  0  0  0  0  0  0  0  0
   -2.4200    3.2280   -0.9080 C   0  0  0  0  0  0  0  0  0  0  0  0
   -2.2660    3.8220   -2.0030 O   0  0  0  0  0  0  0  0  0  0  0  0
   -3.4740    3.5980   -0.1030 O   0  0  0  0  0  0  0  0  0  0  0  0
   -3.4250    3.3880    1.2740 C   0  0  0  0  0  0  0  0  0  0  0  0
   -4.7170    3.7660    1.9380 C   0  0  0  0  0  0  0  0  0  0  0  0
   -4.6310    4.4360    2.9970 O   0  0  0  0  0  0  0  0  0  0  0  0
   -5.9470    3.4220    1.4540 O   0  0  0  0  0  0  0  0  0  0  0  0
   -6.3160    2.2170    0.8560 C   0  0  0  0  0  0  0  0  0  0  0  0
   -5.7190    1.0670    1.4910 N   0  0  0  0  0  0  0  0  0  0  0  0
   -5.7100   -0.2300    0.9600 C   0  0  0  0  0  0  0  0  0  0  0  0
   -5.2900   -1.1680    1.7110 O   0  0  0  0  0  0  0  0  0  0  0  0
   -6.1520   -0.6000   -0.4130 C   0  0  2  0  0  0  0  0  0  0  0  0
   -7.1780   -1.6880   -0.2310 C   0  0  0  0  0  0  0  0  0  0  0  0
   -7.1260   -2.9260   -0.6990 C   0  0  0  0  0  0  0  0  0  0  0  0
   -8.3130   -3.6980   -0.3160 C   0  0  0  0  0  0  0  0  0  0  0  0
   -9.1020   -2.7280    0.4650 C   0  0  0  0  0  0  0  0  0  0  0  0
   -8.4320   -1.5750    0.5040 C   0  0  0  0  0  0  0  0  0  0  0  0
   -5.1190   -1.1270   -1.1900 O   0  0  0  0  0  0  0  0  0  0  0  0
   -3.9880   -0.4830   -1.5970 C   0  0  0  0  0  0  0  0  0  0  0  0
   -3.5060   -0.7340   -2.7270 O   0  0  0  0  0  0  0  0  0  0  0  0
   -3.3210    0.5020   -0.7340 C   0  0  0  0  0  0  0  0  0  0  0  0
    0.4560    0.0760   -1.3370 C   0  0  0  0  0  0  0  0  0  0  0  0
    1.5260   -0.6410   -1.2390 C   0  0  0  0  0  0  0  0  0  0  0  0
    2.9060    0.2410   -1.9290 S   0  0  0  0  0  0  0  0  0  0  0  0
  1  2  1  0
  2  3  1  0
  3  4  1  0
  3  5  1  0
  5  6  2  0
  5  7  1  0
  7  8  1  0
  8  9  1  0
  9 10  2  0
  9 11  1  0
 11 12  2  0
 11 44  1  0
 12 13  1  0
 13 14  2  0
 14 15  1  0
 14 43  1  0
 15 16  2  0
 16 17  1  0
 17 18  2  0
 19 18  1  1
 18 42  1  0
 19 20  1  0
 19 41  1  0
 20 21  1  0
 21 22  2  0
 21 23  1  0
 23 24  1  0
 24 25  1  0
 25 26  2  0
 25 27  1  0
 27 28  1  0
 28 29  1  0
 29 30  1  0
 30 31  2  0
 30 32  1  0
 32 33  1  1
 32 38  1  0
 33 34  2  0
 33 37  1  0
 34 35  1  0
 35 36  1  0
 36 37  2  0
 38 39  1  0
 39 40  2  0
 39 41  1  0
 42 43  2  0
 43 44  1  0
M  END
