
     RDKit          3D

 44 46  0  0  0  0  0  0  0  0999 V2000
   -5.5490    5.6510   -1.0350 C   0  0  0  0  0  0  0  0  0  0  0  0
   -5.1220    4.4400   -0.4710 O   0  0  0  0  0  0  0  0  0  0  0  0
   -3.8670    4.0890   -0.9700 C   0  0  0  0  0  0  0  0  0  0  0  0
   -3.3980    2.8100   -0.3760 C   0  0  0  0  0  0  0  0  0  0  0  0
   -4.3400    1.6650   -0.6760 C   0  0  0  0  0  0  0  0  0  0  0  0
   -5.3840    1.8310   -1.3140 O   0  0  0  0  0  0  0  0  0  0  0  0
   -3.9940    0.3710   -0.2020 N   0  0  0  0  0  0  0  0  0  0  0  0
   -4.7310   -0.8140   -0.3740 C   0  0  0  0  0  0  0  0  0  0  0  0
   -5.9490   -0.9540   -0.9860 C   0  0  0  0  0  0  0  0  0  0  0  0
   -6.6260   -2.1660   -1.0990 C   0  0  0  0  0  0  0  0  0  0  0  0
   -8.2030   -2.2850   -1.9100 S   0  0  0  0  0  0  0  0  0  0  0  0
   -9.5040   -2.0270   -0.7020 C   0  0  1  0  0  0  0  0  0  0  0  0
   -9.5740   -3.1310    0.3320 C   0  0  0  0  0  0  0  0  0  0  0  0
   -9.3170   -0.7330    0.0870 C   0  0  0  0  0  0  0  0  0  0  0  0
   -6.0440   -3.2870   -0.5680 C   0  0  0  0  0  0  0  0  0  0  0  0
   -4.8270   -3.1930    0.0520 C   0  0  0  0  0  0  0  0  0  0  0  0
   -4.1880   -1.9710    0.1420 C   0  0  0  0  0  0  0  0  0  0  0  0
   -2.9530   -1.9760    0.7870 O   0  0  0  0  0  0  0  0  0  0  0  0
   -2.3830   -3.1270    1.3250 C   0  0  0  0  0  0  0  0  0  0  0  0
   -1.0360   -2.8070    1.9150 C   0  0  0  0  0  0  0  0  0  0  0  0
   -0.1970   -2.3110    0.8240 N   0  0  0  0  0  0  0  0  0  0  0  0
    0.0250   -0.9860    0.3730 C   0  0  0  0  0  0  0  0  0  0  0  0
   -0.4570    0.0690    0.8580 O   0  0  0  0  0  0  0  0  0  0  0  0
    0.8950   -1.0140   -0.7370 O   0  0  0  0  0  0  0  0  0  0  0  0
    1.6260   -2.2260   -0.5910 C   0  0  1  0  0  0  0  0  0  0  0  0
    2.6160   -1.9850    0.5330 C   0  0  0  0  0  0  0  0  0  0  0  0
    3.5370   -0.8540    0.1930 C   0  0  0  0  0  0  0  0  0  0  0  0
    4.1820   -0.9590   -0.8820 O   0  0  0  0  0  0  0  0  0  0  0  0
    3.7180    0.2660    0.9590 O   0  0  0  0  0  0  0  0  0  0  0  0
    4.6050    1.3210    0.6030 C   0  0  0  0  0  0  0  0  0  0  0  0
    6.0170    0.7960    0.5240 C   0  0  0  0  0  0  0  0  0  0  0  0
    6.2060   -0.4000    0.7810 O   0  0  0  0  0  0  0  0  0  0  0  0
    7.0750    1.6470    0.1700 N   0  0  0  0  0  0  0  0  0  0  0  0
    8.4520    1.3090    0.0610 C   0  0  0  0  0  0  0  0  0  0  0  0
    8.9400    0.0750    0.3520 C   0  0  0  0  0  0  0  0  0  0  0  0
   10.2880   -0.2280    0.2540 C   0  0  0  0  0  0  0  0  0  0  0  0
   11.1720    0.7390   -0.1490 C   0  0  0  0  0  0  0  0  0  0  0  0
   12.5320    0.4960   -0.2660 O   0  0  0  0  0  0  0  0  0  0  0  0
   10.6760    1.9880   -0.4440 C   0  0  0  0  0  0  0  0  0  0  0  0
   11.6140    3.0520   -0.8850 C   0  0  0  0  0  0  0  0  0  0  0  0
    9.3310    2.2970   -0.3480 C   0  0  0  0  0  0  0  0  0  0  0  0
    8.9290    3.5770   -0.6640 O   0  0  0  0  0  0  0  0  0  0  0  0
    0.5820   -3.1380   -0.0620 C   0  0  0  0  0  0  0  0  0  0  0  0
    0.3770   -4.3680   -0.3020 O   0  0  0  0  0  0  0  0  0  0  0  0
  1  2  1  0
  2  3  1  0
  3  4  1  0
  4  5  1  0
  5  6  2  0
  5  7  1  0
  7  8  1  0
  8  9  2  0
  8 17  1  0
  9 10  1  0
 10 11  1  0
 10 15  2  0
 11 12  1  0
 12 13  1  1
 12 14  1  0
 15 16  1  0
 16 17  2  0
 17 18  1  0
 18 19  1  0
 19 20  1  0
 20 21  1  0
 21 22  1  0
 21 43  1  0
 22 23  2  0
 22 24  1  0
 24 25  1  0
 25 26  1  1
 25 43  1  0
 26 27  1  0
 27 28  2  0
 27 29  1  0
 29 30  1  0
 30 31  1  0
 31 32  2  0
 31 33  1  0
 33 34  1  0
 34 35  2  0
 34 41  1  0
 35 36  1  0
 36 37  2  0
 37 38  1  0
 37 39  1  0
 39 40  1  0
 39 41  2  0
 41 42  1  0
 43 44  2  0
M  END
