
     RDKit          3D

 44 48  0  0  0  0  0  0  0  0999 V2000
   -2.0340   -4.7340   -1.8640 C   0  0  0  0  0  0  0  0  0  0  0  0
   -3.0380   -4.0680   -2.5960 O   0  0  0  0  0  0  0  0  0  0  0  0
   -3.1880   -2.7080   -2.4360 C   0  0  0  0  0  0  0  0  0  0  0  0
   -4.1710   -2.0070   -3.1410 C   0  0  0  0  0  0  0  0  0  0  0  0
   -4.3240   -0.6500   -2.9840 C   0  0  0  0  0  0  0  0  0  0  0  0
   -3.4740    0.0340   -2.0980 C   0  0  0  0  0  0  0  0  0  0  0  0
   -3.6090    1.4600   -1.9100 C   0  0  0  0  0  0  0  0  0  0  0  0
   -2.9370    2.2620   -2.5910 O   0  0  0  0  0  0  0  0  0  0  0  0
   -4.5120    1.9760   -0.9460 N   0  0  0  0  0  0  0  0  0  0  0  0
   -4.6760    3.3930   -0.7330 C   0  0  0  0  0  0  0  0  0  0  0  0
   -4.7970    3.7870    0.6820 C   0  0  0  0  0  0  0  0  0  0  0  0
   -4.5410    2.6200    1.5960 C   0  0  0  0  0  0  0  0  0  0  0  0
   -5.5530    1.5500    1.2160 C   0  0  2  0  0  0  0  0  0  0  0  0
   -5.5790    0.4900    2.2670 C   0  0  0  0  0  0  0  0  0  0  0  0
   -5.3000    1.0390   -0.1750 C   0  0  0  0  0  0  0  0  0  0  0  0
   -2.4990   -0.6480   -1.3950 C   0  0  0  0  0  0  0  0  0  0  0  0
   -1.6850    0.0420   -0.5400 O   0  0  0  0  0  0  0  0  0  0  0  0
   -1.7620    0.0820    0.8220 C   0  0  0  0  0  0  0  0  0  0  0  0
   -2.6410   -0.5590    1.4010 O   0  0  0  0  0  0  0  0  0  0  0  0
   -0.7730    0.9050    1.5450 C   0  0  0  0  0  0  0  0  0  0  0  0
    0.3680    0.0780    2.0220 C   0  0  2  0  0  0  0  0  0  0  0  0
    1.0340   -0.5700    0.8030 C   0  0  0  0  0  0  0  0  0  0  0  0
    2.1380   -1.3060    1.3520 N   0  0  0  0  0  0  0  0  0  0  0  0
    3.4810   -0.9840    1.1880 C   0  0  0  0  0  0  0  0  0  0  0  0
    4.3390   -1.7860    1.7400 O   0  0  0  0  0  0  0  0  0  0  0  0
    4.0260    0.1460    0.4720 C   0  0  2  0  0  0  0  0  0  0  0  0
    3.1880    1.0520   -0.0900 O   0  0  0  0  0  0  0  0  0  0  0  0
    5.0040   -0.2820   -0.6380 C   0  0  0  0  0  0  0  0  0  0  0  0
    5.7030    1.0070   -0.8850 C   0  0  0  0  0  0  0  0  0  0  0  0
    6.2920    1.5620   -2.0020 C   0  0  0  0  0  0  0  0  0  0  0  0
    6.8890    2.8050   -1.9710 C   0  0  0  0  0  0  0  0  0  0  0  0
    6.8880    3.5030   -0.7810 C   0  0  0  0  0  0  0  0  0  0  0  0
    7.4750    4.7560   -0.7000 O   0  0  0  0  0  0  0  0  0  0  0  0
    6.3000    2.9560    0.3440 C   0  0  0  0  0  0  0  0  0  0  0  0
    5.7100    1.7170    0.2980 C   0  0  0  0  0  0  0  0  0  0  0  0
    5.0120    0.9110    1.3580 C   0  0  2  0  0  0  0  0  0  0  0  0
    5.8680    0.0120    1.9560 O   0  0  0  0  0  0  0  0  0  0  0  0
    1.7170   -2.4600    2.1690 C   0  0  2  0  0  0  0  0  0  0  0  0
    1.9100   -3.7750    1.5160 C   0  0  0  0  0  0  0  0  0  0  0  0
    1.0550   -4.0680   -0.0140 S   0  0  0  0  0  0  0  0  0  0  0  0
    1.7220   -3.0570   -1.3520 C   0  0  0  0  0  0  0  0  0  0  0  0
    0.3070   -2.1840    2.6250 C   0  0  0  0  0  0  0  0  0  0  0  0
    0.0660   -0.8820    2.9290 O   0  0  0  0  0  0  0  0  0  0  0  0
   -2.3770   -2.0080   -1.5810 C   0  0  0  0  0  0  0  0  0  0  0  0
  1  2  1  0
  2  3  1  0
  3  4  2  0
  3 44  1  0
  4  5  1  0
  5  6  2  0
  6  7  1  0
  6 16  1  0
  7  8  2  0
  7  9  1  0
  9 10  1  0
  9 15  1  0
 10 11  1  0
 11 12  1  0
 12 13  1  0
 13 14  1  1
 13 15  1  0
 16 17  1  0
 16 44  2  0
 17 18  1  0
 18 19  2  0
 18 20  1  0
 21 20  1  6
 21 22  1  0
 21 43  1  0
 22 23  1  0
 23 24  1  0
 23 38  1  0
 24 25  2  0
 24 26  1  0
 26 27  1  6
 26 28  1  0
 26 36  1  0
 28 29  1  0
 29 30  2  0
 29 35  1  0
 30 31  1  0
 31 32  2  0
 32 33  1  0
 32 34  1  0
 34 35  2  0
 35 36  1  0
 36 37  1  6
 38 39  1  6
 38 42  1  0
 39 40  1  0
 40 41  1  0
 42 43  1  0
M  END
