
     RDKit          3D

 44 48  0  0  0  0  0  0  0  0999 V2000
    7.4900   -0.2680   -0.8010 C   0  0  0  0  0  0  0  0  0  0  0  0
    6.6990   -1.2000    0.0880 C   0  0  2  0  0  0  0  0  0  0  0  0
    6.9450   -2.4970   -0.2770 O   0  0  0  0  0  0  0  0  0  0  0  0
    5.7570   -3.2040   -0.2210 C   0  0  0  0  0  0  0  0  0  0  0  0
    4.6290   -2.2400   -0.3360 C   0  0  2  0  0  0  0  0  0  0  0  0
    3.9950   -2.2690   -1.7180 C   0  0  0  0  0  0  0  0  0  0  0  0
    2.9410   -1.3650   -1.8290 O   0  0  0  0  0  0  0  0  0  0  0  0
    1.7940   -1.3700   -1.0730 C   0  0  0  0  0  0  0  0  0  0  0  0
    1.6280   -2.2420   -0.1970 O   0  0  0  0  0  0  0  0  0  0  0  0
    0.7750   -0.3380   -1.3150 C   0  0  1  0  0  0  0  0  0  0  0  0
    0.3750   -0.3010   -2.7920 C   0  0  0  0  0  0  0  0  0  0  0  0
   -0.3650   -0.4500   -0.4900 O   0  0  0  0  0  0  0  0  0  0  0  0
   -0.6420    0.6150    0.3760 C   0  0  0  0  0  0  0  0  0  0  0  0
    0.0960    1.5930    0.4010 O   0  0  0  0  0  0  0  0  0  0  0  0
   -1.8360    0.5810    1.2800 C   0  0  0  0  0  0  0  0  0  0  0  0
   -2.0580    1.6010    2.0440 C   0  0  0  0  0  0  0  0  0  0  0  0
   -1.2260    2.7860    2.0850 C   0  0  0  0  0  0  0  0  0  0  0  0
   -0.4900    3.0960    3.2190 C   0  0  0  0  0  0  0  0  0  0  0  0
    0.2630    4.2330    3.3560 C   0  0  0  0  0  0  0  0  0  0  0  0
    0.3120    5.1410    2.3270 C   0  0  0  0  0  0  0  0  0  0  0  0
   -0.3980    4.8790    1.1880 C   0  0  0  0  0  0  0  0  0  0  0  0
   -1.1550    3.7290    1.0590 C   0  0  0  0  0  0  0  0  0  0  0  0
   -0.3290    5.8230    0.1560 O   0  0  0  0  0  0  0  0  0  0  0  0
    0.5570    6.8990    0.1330 C   0  0  0  0  0  0  0  0  0  0  0  0
    1.0850    7.3110    1.4660 C   0  0  0  0  0  0  0  0  0  0  0  0
    1.0540    6.2850    2.4300 O   0  0  0  0  0  0  0  0  0  0  0  0
   -2.5750   -0.6470    1.2120 C   0  0  0  0  0  0  0  0  0  0  0  0
   -2.2070   -1.4830    0.3020 O   0  0  0  0  0  0  0  0  0  0  0  0
   -3.6440   -1.0670    1.9890 N   0  0  0  0  0  0  0  0  0  0  0  0
   -4.0770   -0.4910    3.2360 C   0  0  0  0  0  0  0  0  0  0  0  0
   -4.4430   -2.0460    4.2170 S   0  0  0  0  0  0  0  0  0  0  0  0
   -4.3890   -3.1790    2.7500 C   0  0  0  0  0  0  0  0  0  0  0  0
   -4.6200   -2.1110    1.7170 C   0  0  2  0  0  0  0  0  0  0  0  0
   -4.7940   -2.6260    0.4030 C   0  0  0  0  0  0  0  0  0  0  0  0
   -5.0760   -3.8750    0.3170 O   0  0  0  0  0  0  0  0  0  0  0  0
   -4.7010   -1.9350   -0.8220 N   0  0  0  0  0  0  0  0  0  0  0  0
   -4.8590   -2.3970   -2.1260 C   0  0  0  0  0  0  0  0  0  0  0  0
   -5.4470   -3.5850   -2.4710 C   0  0  0  0  0  0  0  0  0  0  0  0
   -5.5430   -3.9830   -3.8140 C   0  0  0  0  0  0  0  0  0  0  0  0
   -5.0480   -3.1940   -4.8290 C   0  0  0  0  0  0  0  0  0  0  0  0
   -4.4580   -2.0020   -4.4710 C   0  0  0  0  0  0  0  0  0  0  0  0
   -4.3570   -1.5990   -3.1760 C   0  0  0  0  0  0  0  0  0  0  0  0
    5.2500   -0.9160   -0.0560 C   0  0  1  0  0  0  0  0  0  0  0  0
    4.6460   -0.2180    1.1380 C   0  0  0  0  0  0  0  0  0  0  0  0
  2  1  1  6
  2  3  1  0
  2 43  1  0
  3  4  1  0
  4  5  1  0
  5  6  1  6
  5 43  1  0
  6  7  1  0
  7  8  1  0
  8  9  2  0
  8 10  1  0
 10 11  1  6
 10 12  1  0
 12 13  1  0
 13 14  2  0
 13 15  1  0
 15 16  2  3
 15 27  1  0
 16 17  1  0
 17 18  2  0
 17 22  1  0
 18 19  1  0
 19 20  2  0
 20 21  1  0
 20 26  1  0
 21 22  2  0
 21 23  1  0
 23 24  1  0
 24 25  1  0
 25 26  1  0
 27 28  2  0
 27 29  1  0
 29 30  1  0
 29 33  1  0
 30 31  1  0
 31 32  1  0
 32 33  1  0
 33 34  1  6
 34 35  2  0
 34 36  1  0
 36 37  1  0
 37 38  2  0
 37 42  1  0
 38 39  1  0
 39 40  2  0
 40 41  1  0
 41 42  2  0
 43 44  1  1
M  END
