
     RDKit          3D

 44 48  0  0  0  0  0  0  0  0999 V2000
   11.4260   -0.4290   -0.5010 C   0  0  0  0  0  0  0  0  0  0  0  0
   10.3680   -0.6120   -1.5570 C   0  0  0  0  0  0  0  0  0  0  0  0
    9.1770   -0.0230   -1.1230 O   0  0  0  0  0  0  0  0  0  0  0  0
    8.5290   -0.4190    0.0290 C   0  0  0  0  0  0  0  0  0  0  0  0
    9.0430   -1.3460    0.7010 O   0  0  0  0  0  0  0  0  0  0  0  0
    7.2550    0.2370    0.4600 C   0  0  2  0  0  0  0  0  0  0  0  0
    7.4940    1.7330    0.6860 C   0  0  0  0  0  0  0  0  0  0  0  0
    6.8460   -0.4000    1.7520 C   0  0  0  0  0  0  0  0  0  0  0  0
    6.2640    0.0990   -0.6230 C   0  0  0  0  0  0  0  0  0  0  0  0
    5.8150    1.1000   -1.2280 O   0  0  0  0  0  0  0  0  0  0  0  0
    5.7880   -1.1450   -1.0250 O   0  0  0  0  0  0  0  0  0  0  0  0
    4.8790   -1.3420   -2.0450 C   0  0  0  0  0  0  0  0  0  0  0  0
    3.5500   -0.8240   -1.8290 C   0  0  0  0  0  0  0  0  0  0  0  0
    2.8620   -0.6080   -2.9150 O   0  0  0  0  0  0  0  0  0  0  0  0
    2.9020   -0.5300   -0.6400 N   0  0  0  0  0  0  0  0  0  0  0  0
    3.3570   -0.7310    0.7110 C   0  0  0  0  0  0  0  0  0  0  0  0
    3.3910    0.5900    1.4000 C   0  0  0  0  0  0  0  0  0  0  0  0
    2.0740    1.3090    1.3680 C   0  0  0  0  0  0  0  0  0  0  0  0
    1.0360    0.6360    0.5180 C   0  0  1  0  0  0  0  0  0  0  0  0
    0.0180    1.6590    0.1480 C   0  0  0  0  0  0  0  0  0  0  0  0
    0.2670    2.8750    0.4600 O   0  0  0  0  0  0  0  0  0  0  0  0
   -1.1890    1.3820   -0.5170 N   0  0  0  0  0  0  0  0  0  0  0  0
   -2.1010    2.4580   -0.8490 C   0  0  0  0  0  0  0  0  0  0  0  0
   -3.3680    2.2970   -0.0690 C   0  0  0  0  0  0  0  0  0  0  0  0
   -3.5900    0.8330    0.2650 C   0  0  1  0  0  0  0  0  0  0  0  0
   -2.8360    0.5610    1.4180 O   0  0  0  0  0  0  0  0  0  0  0  0
   -5.0070    0.5740    0.5550 C   0  0  0  0  0  0  0  0  0  0  0  0
   -5.7770    1.5380    1.2140 C   0  0  0  0  0  0  0  0  0  0  0  0
   -7.1070    1.3080    1.4910 C   0  0  0  0  0  0  0  0  0  0  0  0
   -7.7110    0.1060    1.1190 C   0  0  0  0  0  0  0  0  0  0  0  0
   -6.9520   -0.8370    0.4730 C   0  0  0  0  0  0  0  0  0  0  0  0
   -5.6150   -0.5920    0.2000 C   0  0  0  0  0  0  0  0  0  0  0  0
   -4.9220   -1.6130   -0.4620 O   0  0  0  0  0  0  0  0  0  0  0  0
   -3.5830   -1.3980   -0.7480 C   0  0  0  0  0  0  0  0  0  0  0  0
   -2.7820   -2.3770   -0.8790 O   0  0  0  0  0  0  0  0  0  0  0  0
   -3.1240    0.0070   -0.8940 C   0  0  2  0  0  0  0  0  0  0  0  0
   -1.5870    0.0310   -0.8920 C   0  0  0  0  0  0  0  0  0  0  0  0
   -7.5600   -2.1040    0.0710 C   0  0  2  0  0  0  0  0  0  0  0  0
   -8.0180   -2.0950   -1.7050 S   0  0  0  0  0  0  0  0  0  0  0  0
   -9.3280   -0.9140   -2.0310 C   0  0  0  0  0  0  0  0  0  0  0  0
   -8.6820   -2.5890    0.9210 C   0  0  0  0  0  0  0  0  0  0  0  0
   -9.2730   -1.5930    1.8560 C   0  0  0  0  0  0  0  0  0  0  0  0
   -9.1360   -0.1610    1.4080 C   0  0  0  0  0  0  0  0  0  0  0  0
    1.5590    0.0660   -0.7520 C   0  0  0  0  0  0  0  0  0  0  0  0
  1  2  1  0
  2  3  1  0
  3  4  1  0
  4  5  2  0
  4  6  1  0
  6  7  1  1
  6  8  1  0
  6  9  1  0
  9 10  2  0
  9 11  1  0
 11 12  1  0
 12 13  1  0
 13 14  2  0
 13 15  1  0
 15 16  1  0
 15 44  1  0
 16 17  1  0
 17 18  1  0
 18 19  1  0
 19 20  1  6
 19 44  1  0
 20 21  2  0
 20 22  1  0
 22 23  1  0
 22 37  1  0
 23 24  1  0
 24 25  1  0
 25 26  1  1
 25 27  1  0
 25 36  1  0
 27 28  2  0
 27 32  1  0
 28 29  1  0
 29 30  2  0
 30 31  1  0
 30 43  1  0
 31 32  2  0
 31 38  1  0
 32 33  1  0
 33 34  1  0
 34 35  2  0
 34 36  1  0
 36 37  1  1
 38 39  1  6
 38 41  1  0
 39 40  1  0
 41 42  1  0
 42 43  1  0
M  END
