
     RDKit          3D

 26 28  0  0  0  0  0  0  0  0999 V2000
    0.2650    0.8590    2.7550 O   0  0  0  0  0  0  0  0  0  0  0  0
    1.0160    0.3420    1.9170 C   0  0  0  0  0  0  0  0  0  0  0  0
    2.3730   -0.1600    2.3020 C   0  0  0  0  0  0  0  0  0  0  0  0
    3.2140   -0.2610    1.1180 N   0  0  0  0  0  0  0  0  0  0  0  0
    2.8530    0.7960    0.1650 C   0  0  1  0  0  0  0  0  0  0  0  0
    3.8770    0.9520   -0.8660 C   0  0  0  0  0  0  0  0  0  0  0  0
    4.3880    2.1460   -1.3190 C   0  0  0  0  0  0  0  0  0  0  0  0
    5.3200    1.8370   -2.2840 C   0  0  0  0  0  0  0  0  0  0  0  0
    5.3280    0.4630   -2.3680 C   0  0  0  0  0  0  0  0  0  0  0  0
    4.4590   -0.0210   -1.5130 O   0  0  0  0  0  0  0  0  0  0  0  0
    1.5190    0.4630   -0.3780 C   0  0  0  0  0  0  0  0  0  0  0  0
    0.5640    0.2270    0.5460 C   0  0  0  0  0  0  0  0  0  0  0  0
   -0.7720   -0.0950    0.1080 C   0  0  0  0  0  0  0  0  0  0  0  0
   -1.7380   -0.3460    0.9560 C   0  0  0  0  0  0  0  0  0  0  0  0
   -3.1150   -0.6780    0.6620 C   0  0  0  0  0  0  0  0  0  0  0  0
   -4.0370   -0.9090    1.7630 C   0  0  0  0  0  0  0  0  0  0  0  0
   -3.6570   -0.8390    3.0120 C   0  0  0  0  0  0  0  0  0  0  0  0
   -4.5470   -1.0610    4.0400 F   0  0  0  0  0  0  0  0  0  0  0  0
   -3.5690   -0.7680   -0.5710 C   0  0  0  0  0  0  0  0  0  0  0  0
   -5.0170   -1.1210   -0.7630 C   0  0  2  0  0  0  0  0  0  0  0  0
   -5.8690   -0.1740   -0.2680 F   0  0  0  0  0  0  0  0  0  0  0  0
   -5.2020   -2.3800   -0.2330 F   0  0  0  0  0  0  0  0  0  0  0  0
   -2.8190   -0.5480   -1.8160 C   0  0  0  0  0  0  0  0  0  0  0  0
   -1.1290   -0.1500   -1.6250 S   0  0  2  0  0  0  0  0  0  0  0  0
   -0.2580   -1.2100   -2.2830 O   0  0  0  0  0  0  0  0  0  0  0  0
   -0.7900    1.1440   -2.2900 O   0  0  0  0  0  0  0  0  0  0  0  0
  1  2  2  0
  2  3  1  0
  2 12  1  0
  3  4  1  0
  4  5  1  0
  5  6  1  6
  5 11  1  0
  6  7  2  0
  6 10  1  0
  7  8  1  0
  8  9  2  0
  9 10  1  0
 11 12  2  0
 12 13  1  0
 13 14  2  0
 13 24  1  0
 14 15  1  0
 15 16  1  0
 15 19  2  0
 16 17  2  3
 17 18  1  0
 19 20  1  0
 19 23  1  0
 20 21  1  1
 20 22  1  0
 24 23  1  1
 24 25  2  0
 24 26  2  0
M  END
