
     RDKit          3D

 26 27  0  0  0  0  0  0  0  0999 V2000
    0.3410    3.2750    0.6510 C   0  0  0  0  0  0  0  0  0  0  0  0
    0.6610    2.0560   -0.0550 N   0  0  0  0  0  0  0  0  0  0  0  0
   -0.4100    1.3040   -0.6660 C   0  0  0  0  0  0  0  0  0  0  0  0
   -1.4930    1.0590    0.3670 C   0  0  0  0  0  0  0  0  0  0  0  0
   -1.5570    1.8480    1.3750 O   0  0  0  0  0  0  0  0  0  0  0  0
   -2.4840   -0.0060    0.3160 C   0  0  0  0  0  0  0  0  0  0  0  0
   -3.9090    0.4120    0.1370 C   0  0  0  0  0  0  0  0  0  0  0  0
   -4.2400    1.6660   -0.0710 C   0  0  0  0  0  0  0  0  0  0  0  0
   -5.5680    1.9870   -0.2280 F   0  0  0  0  0  0  0  0  0  0  0  0
   -3.3850    2.7030   -0.1580 F   0  0  0  0  0  0  0  0  0  0  0  0
   -2.2700   -1.3110    0.5190 C   0  0  0  0  0  0  0  0  0  0  0  0
   -3.2930   -2.3950    0.4420 C   0  0  0  0  0  0  0  0  0  0  0  0
   -4.5960   -2.3480    0.0790 F   0  0  0  0  0  0  0  0  0  0  0  0
   -2.7110   -3.5170    0.7890 C   0  0  0  0  0  0  0  0  0  0  0  0
   -1.3470   -3.2870    1.1040 C   0  0  0  0  0  0  0  0  0  0  0  0
   -1.0740   -1.9660    0.9460 C   0  0  0  0  0  0  0  0  0  0  0  0
    0.2640   -1.4110    1.2770 C   0  0  0  0  0  0  0  0  0  0  0  0
    1.4990   -2.2800    0.3290 S   0  0  0  0  0  0  0  0  0  0  0  0
    2.0770   -1.4760   -1.1180 C   0  0  0  0  0  0  0  0  0  0  0  0
    1.5530   -1.8290   -2.1900 O   0  0  0  0  0  0  0  0  0  0  0  0
    3.1210   -0.4270   -1.1700 C   0  0  1  0  0  0  0  0  0  0  0  0
    3.9670   -0.4620    0.0800 C   0  0  0  0  0  0  0  0  0  0  0  0
    4.0130   -0.7390   -2.2260 O   0  0  0  0  0  0  0  0  0  0  0  0
    2.5770    0.9440   -1.3500 C   0  0  0  0  0  0  0  0  0  0  0  0
    2.0290    1.5950   -0.1610 C   0  0  0  0  0  0  0  0  0  0  0  0
    2.7660    1.7770    0.8410 O   0  0  0  0  0  0  0  0  0  0  0  0
  1  2  1  0
  2  3  1  0
  2 25  1  0
  3  4  1  0
  4  5  2  0
  4  6  1  0
  6  7  1  0
  6 11  2  0
  7  8  2  3
  8  9  1  0
  8 10  1  0
 11 12  1  0
 11 16  1  0
 12 13  1  0
 12 14  2  0
 14 15  1  0
 15 16  2  0
 16 17  1  0
 17 18  1  0
 18 19  1  0
 19 20  2  0
 19 21  1  0
 21 22  1  1
 21 23  1  0
 21 24  1  0
 24 25  1  0
 25 26  2  0
M  END
