
     RDKit          3D

 26 28  0  0  0  0  0  0  0  0999 V2000
   -5.7010   -2.3990   -0.1310 C   0  0  0  0  0  0  0  0  0  0  0  0
   -5.1790   -0.9640    0.0130 C   0  0  0  0  0  0  0  0  0  0  0  0
   -3.8920   -0.6360   -0.2120 C   0  0  0  0  0  0  0  0  0  0  0  0
   -3.4990    0.6330   -0.0690 C   0  0  0  0  0  0  0  0  0  0  0  0
   -2.2530    1.3000   -0.2230 N   0  0  0  0  0  0  0  0  0  0  0  0
   -1.1010    0.6050   -0.6050 C   0  0  0  0  0  0  0  0  0  0  0  0
   -1.0700   -0.6110   -0.8330 O   0  0  0  0  0  0  0  0  0  0  0  0
    0.1920    1.3140   -0.7620 C   0  0  0  0  0  0  0  0  0  0  0  0
    0.2270    2.5470   -0.5460 O   0  0  0  0  0  0  0  0  0  0  0  0
    1.3420    0.6780   -1.1320 O   0  0  0  0  0  0  0  0  0  0  0  0
    2.5790    1.3050   -1.2930 C   0  0  2  0  0  0  0  0  0  0  0  0
    3.1170    1.0620   -2.6890 C   0  0  0  0  0  0  0  0  0  0  0  0
    3.5380    0.6650   -0.3260 C   0  0  0  0  0  0  0  0  0  0  0  0
    4.4190    1.3560    0.4750 C   0  0  0  0  0  0  0  0  0  0  0  0
    5.1130    0.4070    1.2080 C   0  0  0  0  0  0  0  0  0  0  0  0
    4.6100   -0.8120    0.8070 C   0  0  0  0  0  0  0  0  0  0  0  0
    3.6850   -0.6110   -0.0970 O   0  0  0  0  0  0  0  0  0  0  0  0
    5.1970   -1.8080    1.4410 C   0  0  0  0  0  0  0  0  0  0  0  0
    6.2060   -1.2280    2.3730 C   0  0  0  0  0  0  0  0  0  0  0  0
    6.0490    0.2280    2.1210 C   0  0  0  0  0  0  0  0  0  0  0  0
   -4.9700    1.4680    0.4090 S   0  0  0  0  0  0  0  0  0  0  0  0
   -6.0490    0.0060    0.3820 C   0  0  0  0  0  0  0  0  0  0  0  0
   -7.4830   -0.0080    0.6970 C   0  0  1  0  0  0  0  0  0  0  0  0
   -7.9260    1.2640    1.0260 F   0  0  0  0  0  0  0  0  0  0  0  0
   -8.1670   -0.3770   -0.4570 F   0  0  0  0  0  0  0  0  0  0  0  0
   -7.7640   -0.9270    1.6680 F   0  0  0  0  0  0  0  0  0  0  0  0
  1  2  1  0
  2  3  1  0
  2 22  2  0
  3  4  2  0
  4  5  1  0
  4 21  1  0
  5  6  1  0
  6  7  2  0
  6  8  1  0
  8  9  2  0
  8 10  1  0
 10 11  1  0
 11 12  1  6
 11 13  1  0
 13 14  2  0
 13 17  1  0
 14 15  1  0
 15 16  1  0
 15 20  2  0
 16 17  1  0
 16 18  2  0
 18 19  1  0
 19 20  1  0
 21 22  1  0
 22 23  1  0
 23 24  1  1
 23 25  1  0
 23 26  1  0
M  END
