
     RDKit          3D

 25 27  0  0  0  0  0  0  0  0999 V2000
   -4.2440   -0.0040   -1.9140 C   0  0  0  0  0  0  0  0  0  0  0  0
   -2.9980   -0.6060   -1.3520 C   0  0  2  0  0  0  0  0  0  0  0  0
   -2.3930   -1.2440   -2.4720 F   0  0  0  0  0  0  0  0  0  0  0  0
   -3.3770   -1.6370   -0.4440 F   0  0  0  0  0  0  0  0  0  0  0  0
   -2.0730    0.3080   -0.7170 C   0  0  0  0  0  0  0  0  0  0  0  0
   -0.7720   -0.4260   -0.2290 C   0  0  0  0  0  0  0  0  0  0  0  0
   -0.6250   -1.6710   -0.4210 C   0  0  0  0  0  0  0  0  0  0  0  0
    0.5070   -2.4600   -0.0280 C   0  0  0  0  0  0  0  0  0  0  0  0
    0.4140   -3.7470   -0.3530 O   0  0  0  0  0  0  0  0  0  0  0  0
    1.6550   -2.0960    0.6210 N   0  0  0  0  0  0  0  0  0  0  0  0
    2.7220   -3.1190    0.9200 C   0  0  0  0  0  0  0  0  0  0  0  0
    3.9460   -2.3640    0.4790 C   0  0  2  0  0  0  0  0  0  0  0  0
    4.9560   -2.2220    1.6190 C   0  0  0  0  0  0  0  0  0  0  0  0
    5.5790   -0.8930    1.2290 C   0  0  0  0  0  0  0  0  0  0  0  0
    4.4960   -0.1290    0.8910 O   0  0  0  0  0  0  0  0  0  0  0  0
    3.5380   -0.9050    0.3120 C   0  0  2  0  0  0  0  0  0  0  0  0
    2.2350   -0.9440    1.1700 C   0  0  0  0  0  0  0  0  0  0  0  0
   -2.0050    1.5280   -0.4200 C   0  0  0  0  0  0  0  0  0  0  0  0
   -2.7360    2.7580   -0.4960 C   0  0  0  0  0  0  0  0  0  0  0  0
   -2.2340    3.9390   -0.0070 C   0  0  0  0  0  0  0  0  0  0  0  0
   -3.0390    5.0820   -0.1340 C   0  0  0  0  0  0  0  0  0  0  0  0
   -4.2000    4.9690   -0.6990 C   0  0  0  0  0  0  0  0  0  0  0  0
   -4.2840    3.2350   -1.1120 S   0  0  1  0  0  0  0  0  0  0  0  0
   -4.4490    3.1260   -2.5900 O   0  0  0  0  0  0  0  0  0  0  0  0
   -5.3960    2.6250   -0.3140 O   0  0  0  0  0  0  0  0  0  0  0  0
  2  1  1  6
  2  3  1  0
  2  4  1  0
  2  5  1  0
  5  6  1  0
  5 18  2  3
  6  7  2  3
  7  8  1  0
  8  9  2  0
  8 10  1  0
 10 11  1  0
 10 17  1  0
 12 11  1  1
 12 13  1  0
 12 16  1  0
 13 14  1  0
 14 15  1  0
 15 16  1  0
 16 17  1  1
 18 19  1  0
 19 20  2  0
 19 23  1  0
 20 21  1  0
 21 22  2  0
 23 22  1  6
 23 24  2  0
 23 25  2  0
M  END
