
     RDKit          3D

 26 27  0  0  0  0  0  0  0  0999 V2000
    4.5060   -0.7530    3.3110 C   0  0  0  0  0  0  0  0  0  0  0  0
    4.5110   -1.0180    1.9650 O   0  0  0  0  0  0  0  0  0  0  0  0
    4.7800    0.0290    1.1400 C   0  0  0  0  0  0  0  0  0  0  0  0
    3.7910    1.1640    1.1570 C   0  0  0  0  0  0  0  0  0  0  0  0
    2.5000    0.6310    0.7220 N   0  0  0  0  0  0  0  0  0  0  0  0
    2.2110    0.6160   -0.7010 C   0  0  0  0  0  0  0  0  0  0  0  0
    0.8850    1.1860   -1.0760 C   0  0  2  0  0  0  0  0  0  0  0  0
    0.2040    1.8280   -0.0620 O   0  0  0  0  0  0  0  0  0  0  0  0
    0.0330    0.0740   -1.7330 C   0  0  0  0  0  0  0  0  0  0  0  0
   -1.2220    0.4170   -2.0560 O   0  0  0  0  0  0  0  0  0  0  0  0
   -2.5400    0.1770   -1.9740 C   0  0  0  0  0  0  0  0  0  0  0  0
   -3.2590    0.0280   -3.1060 C   0  0  0  0  0  0  0  0  0  0  0  0
   -2.6820    0.1130   -4.4770 C   0  0  2  0  0  0  0  0  0  0  0  0
   -2.8490    1.3820   -4.9940 F   0  0  0  0  0  0  0  0  0  0  0  0
   -3.3540   -0.7600   -5.3210 F   0  0  0  0  0  0  0  0  0  0  0  0
   -1.3510   -0.2570   -4.4700 F   0  0  0  0  0  0  0  0  0  0  0  0
   -3.3490    0.0540   -0.7430 C   0  0  0  0  0  0  0  0  0  0  0  0
   -4.5220    0.6820   -0.4740 C   0  0  0  0  0  0  0  0  0  0  0  0
   -5.0530    0.3370    0.8360 C   0  0  0  0  0  0  0  0  0  0  0  0
   -4.0410   -0.5990    1.3450 C   0  0  0  0  0  0  0  0  0  0  0  0
   -3.0700   -0.7490    0.4220 C   0  0  0  0  0  0  0  0  0  0  0  0
   -1.9050   -1.6510    0.6290 C   0  0  0  0  0  0  0  0  0  0  0  0
   -0.8110   -0.7840    1.7330 S   0  0  0  0  0  0  0  0  0  0  0  0
    0.9190   -1.1610    1.6310 C   0  0  0  0  0  0  0  0  0  0  0  0
    1.6210    0.1600    1.7100 C   0  0  0  0  0  0  0  0  0  0  0  0
    1.4110    0.8860    2.7150 O   0  0  0  0  0  0  0  0  0  0  0  0
  1  2  1  0
  2  3  1  0
  3  4  1  0
  4  5  1  0
  5  6  1  0
  5 25  1  0
  6  7  1  0
  7  8  1  1
  7  9  1  0
  9 10  1  0
 10 11  1  0
 11 12  2  3
 11 17  1  0
 12 13  1  0
 13 14  1  6
 13 15  1  0
 13 16  1  0
 17 18  2  0
 17 21  1  0
 18 19  1  0
 19 20  1  0
 20 21  2  0
 21 22  1  0
 22 23  1  0
 23 24  1  0
 24 25  1  0
 25 26  2  0
M  END
