
     RDKit          3D

  7  6  0  0  0  0  0  0  0  0999 V2000
    1.8190   -0.6680    0.8190 O   0  0  0  0  0  0  0  0  0  0  0  0
    1.2060   -0.2050   -0.2020 C   0  0  0  0  0  0  0  0  0  0  0  0
    1.7870   -0.4670   -1.4250 O   0  0  0  0  0  0  0  0  0  0  0  0
   -0.0620    0.5680   -0.0400 C   0  0  0  0  0  0  0  0  0  0  0  0
   -1.1870   -0.3370    0.2280 C   0  0  0  0  0  0  0  0  0  0  0  0
   -1.0430   -1.5670    0.2970 O   0  0  0  0  0  0  0  0  0  0  0  0
   -2.4530    0.2010    0.4080 O   0  0  0  0  0  0  0  0  0  0  0  0
  1  2  2  0
  2  3  1  0
  2  4  1  0
  4  5  1  0
  5  6  2  0
  5  7  1  0
M  CHG  2   3  -1   7  -1
M  END
