
     RDKit          3D

 27 31  0  0  0  0  0  0  0  0999 V2000
    1.6750    2.0290    1.6750 C   0  0  0  0  0  0  0  0  0  0  0  0
    1.5950    0.9890    0.6760 N   0  0  0  0  0  0  0  0  0  0  0  0
    2.6550    0.3900    0.1180 C   0  0  0  0  0  0  0  0  0  0  0  0
    4.0810    0.6410    0.3830 C   0  0  2  0  0  0  0  0  0  0  0  0
    4.8820    0.9420   -0.8290 C   0  0  0  0  0  0  0  0  0  0  0  0
    6.3220    0.9380   -0.5220 C   0  0  0  0  0  0  0  0  0  0  0  0
    6.8580    0.3280    0.5050 C   0  0  0  0  0  0  0  0  0  0  0  0
    6.0540   -0.4320    1.4780 C   0  0  0  0  0  0  0  0  0  0  0  0
    4.6760   -0.6460    0.9770 C   0  0  0  0  0  0  0  0  0  0  0  0
    2.2120   -0.5240   -0.7650 N   0  0  0  0  0  0  0  0  0  0  0  0
    0.8710   -0.5010   -0.7640 C   0  0  0  0  0  0  0  0  0  0  0  0
   -0.0410   -1.2080   -1.4570 N   0  0  0  0  0  0  0  0  0  0  0  0
   -1.3570   -1.0000   -1.2790 C   0  0  0  0  0  0  0  0  0  0  0  0
   -2.2860   -1.7120   -1.9770 N   0  0  0  0  0  0  0  0  0  0  0  0
   -3.5970   -1.4840   -1.7800 C   0  0  0  0  0  0  0  0  0  0  0  0
   -4.4900   -2.1310   -2.4150 O   0  0  0  0  0  0  0  0  0  0  0  0
   -4.0650   -0.5440   -0.8860 C   0  0  0  0  0  0  0  0  0  0  0  0
   -5.4720   -0.3030   -0.6780 C   0  0  0  0  0  0  0  0  0  0  0  0
   -5.9360   -0.1850    0.6150 C   0  0  0  0  0  0  0  0  0  0  0  0
   -7.2780    0.0480    0.9010 C   0  0  0  0  0  0  0  0  0  0  0  0
   -8.1290    0.1550   -0.1790 C   0  0  0  0  0  0  0  0  0  0  0  0
   -7.6690    0.0380   -1.4340 N   0  0  0  0  0  0  0  0  0  0  0  0
   -6.3670   -0.1870   -1.7080 C   0  0  0  0  0  0  0  0  0  0  0  0
   -3.1200    0.1770   -0.1800 C   0  0  0  0  0  0  0  0  0  0  0  0
   -1.7700   -0.0430   -0.3680 C   0  0  0  0  0  0  0  0  0  0  0  0
   -0.8740    0.7090    0.3680 C   0  0  0  0  0  0  0  0  0  0  0  0
    0.4720    0.4560    0.1470 C   0  0  0  0  0  0  0  0  0  0  0  0
  1  2  1  0
  2  3  1  0
  2 27  1  0
  4  3  1  6
  3 10  2  0
  4  5  1  0
  4  9  1  0
  5  6  1  0
  6  7  2  0
  7  8  1  0
  8  9  1  0
 10 11  1  0
 11 12  2  0
 11 27  1  0
 12 13  1  0
 13 14  1  0
 13 25  2  0
 14 15  1  0
 15 16  2  0
 15 17  1  0
 17 18  1  0
 17 24  2  0
 18 19  2  0
 18 23  1  0
 19 20  1  0
 20 21  2  0
 21 22  1  0
 22 23  2  0
 24 25  1  0
 25 26  1  0
 26 27  2  0
M  END
