
     RDKit          3D

 27 31  0  0  0  0  0  0  0  0999 V2000
   -4.8560   -3.1000   -0.0900 C   0  0  0  0  0  0  0  0  0  0  0  0
   -3.6700   -2.2100   -0.0950 C   0  0  0  0  0  0  0  0  0  0  0  0
   -3.8460   -0.8860   -0.0450 N   0  0  0  0  0  0  0  0  0  0  0  0
   -2.8150    0.0060   -0.0450 C   0  0  0  0  0  0  0  0  0  0  0  0
   -3.1190    1.4240    0.0110 C   0  0  0  0  0  0  0  0  0  0  0  0
   -2.2230    2.3880    0.0150 C   0  0  0  0  0  0  0  0  0  0  0  0
   -2.9370    3.7150    0.0810 C   0  0  0  0  0  0  0  0  0  0  0  0
   -4.3540    3.2720    0.1110 C   0  0  0  0  0  0  0  0  0  0  0  0
   -4.4160    1.9850    0.0700 N   0  0  0  0  0  0  0  0  0  0  0  0
   -1.5720   -0.4810   -0.0980 N   0  0  0  0  0  0  0  0  0  0  0  0
   -1.2840   -1.7890   -0.1510 C   0  0  0  0  0  0  0  0  0  0  0  0
   -0.0030   -2.2910   -0.2190 C   0  0  0  0  0  0  0  0  0  0  0  0
    1.1640   -1.4420   -0.1800 C   0  0  0  0  0  0  0  0  0  0  0  0
    1.1140   -0.1250    0.1900 C   0  0  0  0  0  0  0  0  0  0  0  0
    2.2640    0.6910    0.2670 C   0  0  0  0  0  0  0  0  0  0  0  0
    3.4890    0.1500   -0.0400 C   0  0  0  0  0  0  0  0  0  0  0  0
    3.5240   -1.1720   -0.4080 C   0  0  0  0  0  0  0  0  0  0  0  0
    4.6530   -1.6710   -0.6900 O   0  0  0  0  0  0  0  0  0  0  0  0
    2.3860   -1.9310   -0.4710 N   0  0  0  0  0  0  0  0  0  0  0  0
    4.7760    0.8980   -0.0000 C   0  0  0  0  0  0  0  0  0  0  0  0
    4.6120    2.0820    0.8920 C   0  0  0  0  0  0  0  0  0  0  0  0
    3.3750    2.8920    0.5390 C   0  0  0  0  0  0  0  0  0  0  0  0
    2.1200    2.1110    0.6760 C   0  0  0  0  0  0  0  0  0  0  0  0
    0.1960   -3.6780   -0.2870 C   0  0  0  0  0  0  0  0  0  0  0  0
   -0.9000   -4.5010   -0.2820 C   0  0  0  0  0  0  0  0  0  0  0  0
   -2.1380   -3.9990   -0.2150 N   0  0  0  0  0  0  0  0  0  0  0  0
   -2.3680   -2.6760   -0.1490 C   0  0  0  0  0  0  0  0  0  0  0  0
  1  2  1  0
  2  3  2  0
  2 27  1  0
  3  4  1  0
  4  5  1  0
  4 10  2  0
  5  6  2  0
  5  9  1  0
  6  7  1  0
  7  8  1  0
  8  9  2  0
 10 11  1  0
 11 12  2  0
 11 27  1  0
 12 13  1  0
 12 24  1  0
 13 14  2  0
 13 19  1  0
 14 15  1  0
 15 16  2  0
 15 23  1  0
 16 17  1  0
 16 20  1  0
 17 18  2  0
 17 19  1  0
 20 21  1  0
 21 22  1  0
 22 23  1  0
 24 25  2  0
 25 26  1  0
 26 27  2  0
M  END
