
     RDKit          3D

 20 22  0  0  0  0  0  0  0  0999 V2000
    1.7030    1.8010   -1.1350 O   0  0  0  0  0  0  0  0  0  0  0  0
    2.1910    0.7850   -0.5860 C   0  0  0  0  0  0  0  0  0  0  0  0
    1.4560   -0.3620   -0.4540 O   0  0  0  0  0  0  0  0  0  0  0  0
    0.1400   -0.4140   -0.9360 C   0  0  1  0  0  0  0  0  0  0  0  0
   -0.0620   -1.5000   -1.9630 C   0  0  0  0  0  0  0  0  0  0  0  0
   -1.5250   -1.7770   -2.0860 C   0  0  0  0  0  0  0  0  0  0  0  0
   -2.3310   -0.7090   -1.7160 O   0  0  0  0  0  0  0  0  0  0  0  0
   -2.2340   -0.4010   -0.3680 C   0  0  1  0  0  0  0  0  0  0  0  0
   -3.2380   -1.1070    0.4870 C   0  0  1  0  0  0  0  0  0  0  0  0
   -3.1800   -0.4620    1.8760 C   0  0  0  0  0  0  0  0  0  0  0  0
   -3.8530    0.8660    1.5970 C   0  0  0  0  0  0  0  0  0  0  0  0
   -4.7200    0.5540    0.4170 C   0  0  0  0  0  0  0  0  0  0  0  0
   -4.5540   -0.8010    0.1250 O   0  0  0  0  0  0  0  0  0  0  0  0
   -0.8570   -0.6860    0.1880 C   0  0  0  0  0  0  0  0  0  0  0  0
    3.5850    0.8890   -0.0930 C   0  0  0  0  0  0  0  0  0  0  0  0
    4.2490    2.0140   -0.2430 C   0  0  0  0  0  0  0  0  0  0  0  0
    5.6300    2.1750    0.2240 C   0  0  0  0  0  0  0  0  0  0  0  0
    6.1390    1.0410    0.8230 O   0  0  0  0  0  0  0  0  0  0  0  0
    5.4620   -0.1320    0.9860 C   0  0  0  0  0  0  0  0  0  0  0  0
    4.2180   -0.2540    0.5570 C   0  0  0  0  0  0  0  0  0  0  0  0
  1  2  2  0
  2  3  1  0
  2 15  1  0
  4  3  1  1
  4  5  1  0
  4 14  1  0
  5  6  1  0
  6  7  1  0
  7  8  1  0
  8  9  1  0
  8 14  1  1
  9 10  1  1
  9 13  1  0
 10 11  1  0
 11 12  1  0
 12 13  1  0
 15 16  2  0
 15 20  1  0
 16 17  1  0
 17 18  1  0
 18 19  1  0
 19 20  2  0
M  END
