
     RDKit          3D

 20 22  0  0  0  0  0  0  0  0999 V2000
   -0.2700    2.5370   -1.2590 C   0  0  0  0  0  0  0  0  0  0  0  0
    0.8230    1.5980   -0.8850 C   0  0  0  0  0  0  0  0  0  0  0  0
    0.4590    0.5680    0.1710 C   0  0  2  0  0  0  0  0  0  0  0  0
    1.6680   -0.2480    0.4010 C   0  0  2  0  0  0  0  0  0  0  0  0
    2.0170   -1.0090   -0.8520 C   0  0  0  0  0  0  0  0  0  0  0  0
    3.5140   -1.2430   -0.7830 C   0  0  0  0  0  0  0  0  0  0  0  0
    3.8380   -2.0520    0.4200 C   0  0  0  0  0  0  0  0  0  0  0  0
    3.0430   -1.7930    1.5610 O   0  0  0  0  0  0  0  0  0  0  0  0
    1.7520   -1.2090    1.4740 C   0  0  0  0  0  0  0  0  0  0  0  0
    0.9450   -1.6150    2.3090 O   0  0  0  0  0  0  0  0  0  0  0  0
   -0.5970   -0.3930   -0.2720 C   0  0  0  0  0  0  0  0  0  0  0  0
   -2.0090   -0.0210   -0.0390 C   0  0  1  0  0  0  0  0  0  0  0  0
   -2.7610   -0.1690   -1.3520 C   0  0  0  0  0  0  0  0  0  0  0  0
   -3.9020   -1.0930   -1.0910 C   0  0  0  0  0  0  0  0  0  0  0  0
   -4.0150   -1.1710    0.2920 O   0  0  0  0  0  0  0  0  0  0  0  0
   -2.7620   -1.0290    0.8230 C   0  0  0  0  0  0  0  0  0  0  0  0
   -2.2520    1.2180    0.4590 O   0  0  0  0  0  0  0  0  0  0  0  0
   -1.4420    1.6180    1.4820 C   0  0  0  0  0  0  0  0  0  0  0  0
    0.0060    1.3510    1.3660 C   0  0  1  0  0  0  0  0  0  0  0  0
    0.4590    0.8920    2.5920 O   0  0  0  0  0  0  0  0  0  0  0  0
  1  2  1  0
  3  2  1  6
  3  4  1  0
  3 11  1  0
  3 19  1  0
  4  5  1  6
  4  9  1  0
  5  6  1  0
  6  7  1  0
  7  8  1  0
  8  9  1  0
  9 10  2  0
 12 11  1  6
 12 13  1  0
 12 16  1  0
 12 17  1  0
 13 14  1  0
 14 15  1  0
 15 16  1  0
 17 18  1  0
 18 19  1  0
 19 20  1  1
M  END
