
     RDKit          3D

 27 30  0  0  0  0  0  0  0  0999 V2000
    8.5150   -2.1520    0.4870 C   0  0  0  0  0  0  0  0  0  0  0  0
    7.9000   -0.9820    0.2400 C   0  0  0  0  0  0  0  0  0  0  0  0
    6.4560   -0.9090    0.2270 C   0  0  0  0  0  0  0  0  0  0  0  0
    5.8170    0.2140   -0.0110 C   0  0  0  0  0  0  0  0  0  0  0  0
    6.4360    1.4950   -0.2840 C   0  0  0  0  0  0  0  0  0  0  0  0
    5.7060    2.5840   -0.5150 C   0  0  0  0  0  0  0  0  0  0  0  0
    4.3370    2.4670   -0.4890 O   0  0  0  0  0  0  0  0  0  0  0  0
    3.6490    1.3060   -0.2400 C   0  0  0  0  0  0  0  0  0  0  0  0
    2.2920    1.2560   -0.2270 N   0  0  0  0  0  0  0  0  0  0  0  0
    1.6460    0.1180    0.0160 C   0  0  0  0  0  0  0  0  0  0  0  0
    0.2520   -0.1910    0.0870 C   0  0  0  0  0  0  0  0  0  0  0  0
   -0.7270    0.8320   -0.1400 C   0  0  0  0  0  0  0  0  0  0  0  0
   -2.0750    0.7640   -0.1080 N   0  0  0  0  0  0  0  0  0  0  0  0
   -2.5660    2.1040   -0.4740 C   0  0  0  0  0  0  0  0  0  0  0  0
   -3.9890    2.3760   -0.3390 C   0  0  0  0  0  0  0  0  0  0  0  0
   -4.4460    2.2630    1.0900 C   0  0  0  0  0  0  0  0  0  0  0  0
   -3.0210   -0.1910   -0.0400 C   0  0  2  0  0  0  0  0  0  0  0  0
   -3.2040   -1.0790    1.1510 C   0  0  0  0  0  0  0  0  0  0  0  0
   -4.7170   -1.4400    1.1810 C   0  0  0  0  0  0  0  0  0  0  0  0
   -4.9630   -2.2900   -0.0500 C   0  0  0  0  0  0  0  0  0  0  0  0
   -4.4830   -1.6830   -1.3220 C   0  0  0  0  0  0  0  0  0  0  0  0
   -3.0580   -1.1610   -1.2580 C   0  0  0  0  0  0  0  0  0  0  0  0
    0.2110   -1.4700    0.3610 N   0  0  0  0  0  0  0  0  0  0  0  0
    1.4540   -1.9870    0.4670 N   0  0  0  0  0  0  0  0  0  0  0  0
    2.3560   -1.0180    0.2570 C   0  0  0  0  0  0  0  0  0  0  0  0
    3.7170   -1.0180    0.2550 N   0  0  0  0  0  0  0  0  0  0  0  0
    4.3470    0.1500    0.0050 C   0  0  0  0  0  0  0  0  0  0  0  0
  1  2  2  0
  2  3  1  0
  3  4  2  3
  4  5  1  0
  4 27  1  0
  5  6  2  0
  6  7  1  0
  7  8  1  0
  8  9  2  0
  8 27  1  0
  9 10  1  0
 10 11  2  0
 10 25  1  0
 11 12  1  0
 11 23  1  0
 12 13  1  0
 13 14  1  0
 17 13  1  1
 14 15  1  0
 15 16  1  0
 17 18  1  0
 17 22  1  0
 18 19  1  0
 19 20  1  0
 20 21  1  0
 21 22  1  0
 23 24  1  0
 24 25  2  0
 25 26  1  0
 26 27  2  0
M  END
