
     RDKit          3D

 27 31  0  0  0  0  0  0  0  0999 V2000
    7.3560   -0.0410   -0.9980 C   0  0  0  0  0  0  0  0  0  0  0  0
    5.9100   -0.0650   -0.6030 C   0  0  0  0  0  0  0  0  0  0  0  0
    5.3490   -0.9030    0.2860 N   0  0  0  0  0  0  0  0  0  0  0  0
    4.0330   -0.6410    0.3940 C   0  0  0  0  0  0  0  0  0  0  0  0
    3.0070   -1.1780    1.1360 C   0  0  0  0  0  0  0  0  0  0  0  0
    1.7430   -0.6730    1.0150 C   0  0  0  0  0  0  0  0  0  0  0  0
    1.4590    0.3620    0.1700 C   0  0  0  0  0  0  0  0  0  0  0  0
    0.1670    0.8630    0.0570 N   0  0  0  0  0  0  0  0  0  0  0  0
   -1.0370    0.1430   -0.0400 C   0  0  0  0  0  0  0  0  0  0  0  0
   -1.2780   -1.1870   -0.2290 C   0  0  0  0  0  0  0  0  0  0  0  0
   -2.6680   -1.3990   -0.1620 C   0  0  0  0  0  0  0  0  0  0  0  0
   -3.2290   -0.2100    0.0590 N   0  0  0  0  0  0  0  0  0  0  0  0
   -2.2930    0.6970    0.1310 N   0  0  0  0  0  0  0  0  0  0  0  0
   -2.4900    2.1040    0.3590 C   0  0  0  0  0  0  0  0  0  0  0  0
   -1.8760    2.7880    1.3630 C   0  0  0  0  0  0  0  0  0  0  0  0
   -2.1090    4.1410    1.5280 C   0  0  0  0  0  0  0  0  0  0  0  0
   -2.9710    4.7820    0.6580 C   0  0  0  0  0  0  0  0  0  0  0  0
   -3.5800    4.1150   -0.3340 N   0  0  0  0  0  0  0  0  0  0  0  0
   -3.3470    2.8120   -0.4810 C   0  0  0  0  0  0  0  0  0  0  0  0
   -4.0160    2.0620   -1.5770 C   0  0  0  0  0  0  0  0  0  0  0  0
   -3.1010   -2.8010   -0.3350 C   0  0  0  0  0  0  0  0  0  0  0  0
   -2.2960   -3.8150    0.4010 C   0  0  0  0  0  0  0  0  0  0  0  0
   -0.8700   -3.3850    0.6140 C   0  0  0  0  0  0  0  0  0  0  0  0
   -0.5150   -2.4110   -0.5170 C   0  0  0  0  0  0  0  0  0  0  0  0
    2.5210    0.9000   -0.5820 C   0  0  0  0  0  0  0  0  0  0  0  0
    3.7990    0.4000   -0.4690 C   0  0  0  0  0  0  0  0  0  0  0  0
    4.9560    0.7160   -1.0490 O   0  0  0  0  0  0  0  0  0  0  0  0
  1  2  1  0
  2  3  2  0
  2 27  1  0
  3  4  1  0
  4  5  2  0
  4 26  1  0
  5  6  1  0
  6  7  2  0
  7  8  1  0
  7 25  1  0
  8  9  1  0
  9 10  2  0
  9 13  1  0
 10 11  1  0
 10 24  1  0
 11 12  2  0
 11 21  1  0
 12 13  1  0
 13 14  1  0
 14 15  2  0
 14 19  1  0
 15 16  1  0
 16 17  2  0
 17 18  1  0
 18 19  2  0
 19 20  1  0
 21 22  1  0
 22 23  1  0
 23 24  1  0
 25 26  2  0
 26 27  1  0
M  END
