
     RDKit          3D

 27 31  0  0  0  0  0  0  0  0999 V2000
    2.1190    1.4940   -1.4970 O   0  0  0  0  0  0  0  0  0  0  0  0
    2.5100    0.6750   -0.6170 C   0  0  0  0  0  0  0  0  0  0  0  0
    3.3940   -0.3090   -1.0270 C   0  0  0  0  0  0  0  0  0  0  0  0
    3.8320   -0.3940   -2.3460 C   0  0  0  0  0  0  0  0  0  0  0  0
    4.7020   -1.3750   -2.7100 C   0  0  0  0  0  0  0  0  0  0  0  0
    5.1400   -2.2780   -1.7640 C   0  0  0  0  0  0  0  0  0  0  0  0
    4.7040   -2.1890   -0.4590 C   0  0  0  0  0  0  0  0  0  0  0  0
    3.8170   -1.1970   -0.0630 C   0  0  0  0  0  0  0  0  0  0  0  0
    3.3760   -1.0900    1.2070 N   0  0  0  0  0  0  0  0  0  0  0  0
    2.5290   -0.1180    1.5180 N   0  0  0  0  0  0  0  0  0  0  0  0
    2.0820    0.7640    0.6580 N   0  0  0  0  0  0  0  0  0  0  0  0
    1.1760    1.8100    0.9720 C   0  0  0  0  0  0  0  0  0  0  0  0
    1.6440    3.1090    0.9740 C   0  0  0  0  0  0  0  0  0  0  0  0
    0.7450    4.1240    1.2820 C   0  0  0  0  0  0  0  0  0  0  0  0
   -0.5660    3.8130    1.5730 C   0  0  0  0  0  0  0  0  0  0  0  0
   -1.0050    2.4760    1.5600 C   0  0  0  0  0  0  0  0  0  0  0  0
   -0.1190    1.4760    1.2560 C   0  0  0  0  0  0  0  0  0  0  0  0
   -0.5170    0.1350    1.2580 N   0  0  0  0  0  0  0  0  0  0  0  0
   -1.8900   -0.2980    1.4210 C   0  0  2  0  0  0  0  0  0  0  0  0
   -1.9390   -1.7930    1.6790 C   0  0  0  0  0  0  0  0  0  0  0  0
   -3.4050   -2.2120    1.5170 C   0  0  0  0  0  0  0  0  0  0  0  0
   -3.6070   -2.2770    0.0260 C   0  0  0  0  0  0  0  0  0  0  0  0
   -3.4010   -0.8700   -0.4830 C   0  0  0  0  0  0  0  0  0  0  0  0
   -2.6540   -0.0280    0.1340 C   0  0  0  0  0  0  0  0  0  0  0  0
   -2.6580    1.1960   -0.5930 N   0  0  0  0  0  0  0  0  0  0  0  0
   -3.3900    1.1210   -1.6390 C   0  0  0  0  0  0  0  0  0  0  0  0
   -3.9690   -0.2190   -1.7100 C   0  0  0  0  0  0  0  0  0  0  0  0
  1  2  2  0
  2  3  1  0
  2 11  1  0
  3  4  2  0
  3  8  1  0
  4  5  1  0
  5  6  2  0
  6  7  1  0
  7  8  2  0
  8  9  1  0
  9 10  2  0
 10 11  1  0
 11 12  1  0
 12 13  2  0
 12 17  1  0
 13 14  1  0
 14 15  2  0
 15 16  1  0
 16 17  2  0
 17 18  1  0
 19 18  1  6
 19 20  1  0
 19 24  1  0
 20 21  1  0
 21 22  1  0
 22 23  1  0
 23 24  2  0
 23 27  1  0
 24 25  1  0
 25 26  2  0
 26 27  1  0
M  END
