
     RDKit          3D

 27 28  0  0  0  0  0  0  0  0999 V2000
    8.2580    0.5410   -1.9370 C   0  0  0  0  0  0  0  0  0  0  0  0
    7.4100    0.6340   -0.7080 C   0  0  0  0  0  0  0  0  0  0  0  0
    5.9770    0.2760   -0.9780 C   0  0  0  0  0  0  0  0  0  0  0  0
    5.1380    0.3780    0.2830 C   0  0  0  0  0  0  0  0  0  0  0  0
    3.8080    0.0470    0.0360 O   0  0  0  0  0  0  0  0  0  0  0  0
    3.1180    0.1620    1.2160 C   0  0  0  0  0  0  0  0  0  0  0  0
    1.6500   -0.1720    1.0890 C   0  0  1  0  0  0  0  0  0  0  0  0
    1.1170    0.0010    2.3880 O   0  0  0  0  0  0  0  0  0  0  0  0
    0.9230    0.7920    0.2040 C   0  0  0  0  0  0  0  0  0  0  0  0
   -0.4570    0.6190    0.1410 O   0  0  0  0  0  0  0  0  0  0  0  0
   -1.0610   -0.5780   -0.3300 C   0  0  0  0  0  0  0  0  0  0  0  0
   -0.2390   -1.4200   -0.6690 O   0  0  0  0  0  0  0  0  0  0  0  0
   -2.5140   -0.6360   -0.3450 C   0  0  0  0  0  0  0  0  0  0  0  0
   -3.1920   -1.7450   -0.7710 C   0  0  0  0  0  0  0  0  0  0  0  0
   -2.5750   -2.9580   -1.2770 C   0  0  0  0  0  0  0  0  0  0  0  0
   -3.4330   -4.0890   -1.5840 N   0  0  0  0  0  0  0  0  0  0  0  0
   -1.3780   -3.1780   -1.4910 O   0  0  0  0  0  0  0  0  0  0  0  0
   -4.5980   -1.7050   -0.7340 C   0  0  0  0  0  0  0  0  0  0  0  0
   -5.2760   -0.6110   -0.2940 C   0  0  0  0  0  0  0  0  0  0  0  0
   -6.6600   -0.5970   -0.2670 C   0  0  0  0  0  0  0  0  0  0  0  0
   -7.3540    0.4870    0.1690 C   0  0  0  0  0  0  0  0  0  0  0  0
   -6.6700    1.6100    0.6000 C   0  0  0  0  0  0  0  0  0  0  0  0
   -7.4020    2.7140    1.0450 O   0  0  0  0  0  0  0  0  0  0  0  0
   -5.2950    1.6410    0.5920 C   0  0  0  0  0  0  0  0  0  0  0  0
   -4.6170    0.5140    0.1380 C   0  0  0  0  0  0  0  0  0  0  0  0
   -3.2480    0.4730    0.1020 C   0  0  0  0  0  0  0  0  0  0  0  0
   -2.5460    1.6200    0.5420 N   0  0  0  0  0  0  0  0  0  0  0  0
  1  2  1  0
  2  3  1  0
  3  4  1  0
  4  5  1  0
  5  6  1  0
  6  7  1  0
  7  8  1  1
  7  9  1  0
  9 10  1  0
 10 11  1  0
 11 12  2  0
 11 13  1  0
 13 14  2  0
 13 26  1  0
 14 15  1  0
 14 18  1  0
 15 16  1  0
 15 17  2  0
 18 19  2  0
 19 20  1  0
 19 25  1  0
 20 21  2  0
 21 22  1  0
 22 23  1  0
 22 24  2  0
 24 25  1  0
 25 26  2  0
 26 27  1  0
M  END
