
     RDKit          3D

 27 28  0  0  0  0  0  0  0  0999 V2000
    2.2630   -0.4310    0.0080 O   0  0  0  0  0  0  0  0  0  0  0  0
    3.1310    0.4740   -0.1450 C   0  0  0  0  0  0  0  0  0  0  0  0
    2.8520    1.7960    0.2270 N   0  0  0  0  0  0  0  0  0  0  0  0
    1.5800    2.1530    0.7930 C   0  0  0  0  0  0  0  0  0  0  0  0
    1.3800    1.4090    2.0930 C   0  0  0  0  0  0  0  0  0  0  0  0
    0.0830    1.7680    2.7410 C   0  0  0  0  0  0  0  0  0  0  0  0
   -1.0830    1.4620    1.8730 C   0  0  0  0  0  0  0  0  0  0  0  0
   -1.1510   -0.0150    1.5720 C   0  0  0  0  0  0  0  0  0  0  0  0
   -2.2670   -0.3890    0.7260 N   0  0  0  0  0  0  0  0  0  0  0  0
   -3.6020   -0.1910    1.1380 C   0  0  0  0  0  0  0  0  0  0  0  0
   -3.7170    0.3310    2.3080 O   0  0  0  0  0  0  0  0  0  0  0  0
   -4.7870   -0.5190    0.3720 C   0  0  0  0  0  0  0  0  0  0  0  0
   -6.0050   -0.2260    1.0030 C   0  0  0  0  0  0  0  0  0  0  0  0
   -7.1970   -0.4940    0.3700 C   0  0  0  0  0  0  0  0  0  0  0  0
   -7.1620   -1.0560   -0.8910 C   0  0  0  0  0  0  0  0  0  0  0  0
   -5.9740   -1.3520   -1.5290 C   0  0  0  0  0  0  0  0  0  0  0  0
   -6.0690   -1.9110   -2.7860 O   0  0  0  0  0  0  0  0  0  0  0  0
   -4.7750   -1.0740   -0.8760 C   0  0  0  0  0  0  0  0  0  0  0  0
   -3.6050   -1.3670   -1.5060 O   0  0  0  0  0  0  0  0  0  0  0  0
    4.4140    0.1010   -0.7120 C   0  0  0  0  0  0  0  0  0  0  0  0
    5.4020    1.0360   -0.9040 C   0  0  0  0  0  0  0  0  0  0  0  0
    6.6140    0.6100   -1.4550 C   0  0  0  0  0  0  0  0  0  0  0  0
    6.8000   -0.7080   -1.7900 C   0  0  0  0  0  0  0  0  0  0  0  0
    5.8060   -1.6540   -1.5970 C   0  0  0  0  0  0  0  0  0  0  0  0
    6.0550   -2.9630   -1.9550 O   0  0  0  0  0  0  0  0  0  0  0  0
    4.6230   -1.2360   -1.0590 C   0  0  0  0  0  0  0  0  0  0  0  0
    3.6170   -2.1680   -0.8600 O   0  0  0  0  0  0  0  0  0  0  0  0
  1  2  2  0
  2  3  1  0
  2 20  1  0
  3  4  1  0
  4  5  1  0
  5  6  1  0
  6  7  1  0
  7  8  1  0
  8  9  1  0
  9 10  1  0
 10 11  2  0
 10 12  1  0
 12 13  2  0
 12 18  1  0
 13 14  1  0
 14 15  2  0
 15 16  1  0
 16 17  1  0
 16 18  2  0
 18 19  1  0
 20 21  2  0
 20 26  1  0
 21 22  1  0
 22 23  2  0
 23 24  1  0
 24 25  1  0
 24 26  2  0
 26 27  1  0
M  END
