
     RDKit          3D

 27 28  0  0  0  0  0  0  0  0999 V2000
    0.1800   -1.8170    3.2730 C   0  0  0  0  0  0  0  0  0  0  0  0
   -0.6060   -1.1270    2.1260 C   0  0  1  0  0  0  0  0  0  0  0  0
   -0.8200    0.1720    2.5910 O   0  0  0  0  0  0  0  0  0  0  0  0
    0.2360   -1.1250    0.9370 C   0  0  0  0  0  0  0  0  0  0  0  0
   -0.0770   -0.7950   -0.2610 C   0  0  0  0  0  0  0  0  0  0  0  0
    1.0140   -0.9080   -1.2250 O   0  0  0  0  0  0  0  0  0  0  0  0
    1.5980    0.3330   -1.5640 C   0  0  0  0  0  0  0  0  0  0  0  0
    2.1750    0.9680   -0.3330 C   0  0  0  0  0  0  0  0  0  0  0  0
    3.1470    0.3070    0.3400 O   0  0  0  0  0  0  0  0  0  0  0  0
    4.3980   -0.1240    0.0870 C   0  0  0  0  0  0  0  0  0  0  0  0
    4.9980    0.1050   -1.1320 C   0  0  0  0  0  0  0  0  0  0  0  0
    6.2760   -0.3200   -1.4360 C   0  0  0  0  0  0  0  0  0  0  0  0
    6.9880   -1.0050   -0.4810 C   0  0  0  0  0  0  0  0  0  0  0  0
    6.4190   -1.2480    0.7410 C   0  0  0  0  0  0  0  0  0  0  0  0
    5.1540   -0.8190    1.0220 C   0  0  0  0  0  0  0  0  0  0  0  0
    4.5990   -1.0690    2.2440 O   0  0  0  0  0  0  0  0  0  0  0  0
   -1.2860   -0.3390   -0.8370 C   0  0  0  0  0  0  0  0  0  0  0  0
   -1.2470   -0.1080   -2.1170 O   0  0  0  0  0  0  0  0  0  0  0  0
   -2.5110   -0.1050   -0.2130 N   0  0  0  0  0  0  0  0  0  0  0  0
   -3.6540    0.3470   -0.9470 C   0  0  0  0  0  0  0  0  0  0  0  0
   -3.8460    0.0570   -2.2480 C   0  0  0  0  0  0  0  0  0  0  0  0
   -4.9710    0.5670   -2.8860 C   0  0  0  0  0  0  0  0  0  0  0  0
   -5.8620    1.3440   -2.2060 C   0  0  0  0  0  0  0  0  0  0  0  0
   -7.0140    1.8820   -2.8100 O   0  0  0  0  0  0  0  0  0  0  0  0
   -5.6660    1.6400   -0.8740 C   0  0  0  0  0  0  0  0  0  0  0  0
   -6.5960    2.4540   -0.1550 N   0  0  0  0  0  0  0  0  0  0  0  0
   -4.5640    1.1410   -0.2500 C   0  0  0  0  0  0  0  0  0  0  0  0
  2  1  1  1
  2  3  1  0
  2  4  1  0
  4  5  2  3
  5  6  1  0
  5 17  1  0
  6  7  1  0
  7  8  1  0
  8  9  1  0
  9 10  1  0
 10 11  2  0
 10 15  1  0
 11 12  1  0
 12 13  2  0
 13 14  1  0
 14 15  2  0
 15 16  1  0
 17 18  2  0
 17 19  1  0
 19 20  1  0
 20 21  2  0
 20 27  1  0
 21 22  1  0
 22 23  2  0
 23 24  1  0
 23 25  1  0
 25 26  1  0
 25 27  2  0
M  END
