
     RDKit          3D

 27 28  0  0  0  0  0  0  0  0999 V2000
   -3.9910   -1.4690    0.8330 N   0  0  0  0  0  0  0  0  0  0  0  0
   -4.4970   -0.4820   -0.0660 C   0  0  0  0  0  0  0  0  0  0  0  0
   -3.6350    0.3000   -0.6940 C   0  0  0  0  0  0  0  0  0  0  0  0
   -2.2230    0.0590   -0.3970 C   0  0  0  0  0  0  0  0  0  0  0  0
   -1.7790   -0.7970    0.3690 O   0  0  0  0  0  0  0  0  0  0  0  0
   -1.2600    0.8920   -1.0530 N   0  0  0  0  0  0  0  0  0  0  0  0
    0.1690    0.7470   -0.8370 C   0  0  0  0  0  0  0  0  0  0  0  0
    0.6400   -0.6320   -1.2420 C   0  0  0  0  0  0  0  0  0  0  0  0
    2.1530   -0.6480   -0.9660 C   0  0  0  0  0  0  0  0  0  0  0  0
    2.2990   -0.4060    0.3830 O   0  0  0  0  0  0  0  0  0  0  0  0
    3.6210   -0.4000    0.7910 C   0  0  0  0  0  0  0  0  0  0  0  0
    4.4750    0.6340    0.1270 C   0  0  0  0  0  0  0  0  0  0  0  0
    5.8680    0.5770    0.6230 C   0  0  0  0  0  0  0  0  0  0  0  0
    6.3700    1.2720    1.6920 C   0  0  0  0  0  0  0  0  0  0  0  0
    7.7030    0.9180    1.7930 C   0  0  0  0  0  0  0  0  0  0  0  0
    7.9390    0.0280    0.7790 C   0  0  0  0  0  0  0  0  0  0  0  0
    9.2100   -0.6480    0.4530 C   0  0  0  0  0  0  0  0  0  0  0  0
   10.1810   -0.2370    1.3590 O   0  0  0  0  0  0  0  0  0  0  0  0
    6.8170   -0.1380    0.1160 O   0  0  0  0  0  0  0  0  0  0  0  0
   -3.9000    1.4140   -1.6790 C   0  0  0  0  0  0  0  0  0  0  0  0
   -5.2730    1.5820   -1.7390 O   0  0  0  0  0  0  0  0  0  0  0  0
   -5.9040    0.5780   -2.4670 C   0  0  0  0  0  0  0  0  0  0  0  0
   -6.6570   -0.3680   -1.5680 C   0  0  0  0  0  0  0  0  0  0  0  0
   -5.9650   -0.4880   -0.2280 C   0  0  0  0  0  0  0  0  0  0  0  0
   -6.7390   -0.5640    0.8120 C   0  0  0  0  0  0  0  0  0  0  0  0
   -6.3330   -0.6390    2.2010 C   0  0  0  0  0  0  0  0  0  0  0  0
   -6.7620   -1.8070    2.8440 O   0  0  0  0  0  0  0  0  0  0  0  0
  1  2  1  0
  2  3  2  0
  2 24  1  0
  3  4  1  0
  3 20  1  0
  4  5  2  0
  4  6  1  0
  6  7  1  0
  7  8  1  0
  8  9  1  0
  9 10  1  0
 10 11  1  0
 11 12  1  0
 12 13  1  0
 13 14  2  0
 13 19  1  0
 14 15  1  0
 15 16  2  0
 16 17  1  0
 16 19  1  0
 17 18  1  0
 20 21  1  0
 21 22  1  0
 22 23  1  0
 23 24  1  0
 24 25  2  3
 25 26  1  0
 26 27  1  0
M  END
