
     RDKit          3D

 27 28  0  0  0  0  0  0  0  0999 V2000
   -6.6450    2.3980    0.5000 C   0  0  0  0  0  0  0  0  0  0  0  0
   -5.9910    1.1580    0.0570 N   0  0  0  0  0  0  0  0  0  0  0  0
   -4.6870    1.1750   -0.4960 C   0  0  0  0  0  0  0  0  0  0  0  0
   -4.0620    2.2680   -0.6140 O   0  0  0  0  0  0  0  0  0  0  0  0
   -4.0440   -0.0970   -0.9400 C   0  0  0  0  0  0  0  0  0  0  0  0
   -2.6500    0.1860   -1.4640 C   0  0  0  0  0  0  0  0  0  0  0  0
   -2.2320    1.3200   -1.4030 O   0  0  0  0  0  0  0  0  0  0  0  0
   -1.8890   -0.9630   -2.0220 C   0  0  0  0  0  0  0  0  0  0  0  0
   -1.4300   -1.8830   -0.9740 C   0  0  1  0  0  0  0  0  0  0  0  0
   -0.7320   -2.9630   -1.6110 O   0  0  0  0  0  0  0  0  0  0  0  0
   -0.5080   -1.4030    0.0460 C   0  0  0  0  0  0  0  0  0  0  0  0
    0.2470   -0.2780    0.0470 C   0  0  0  0  0  0  0  0  0  0  0  0
    1.1110    0.0870    1.0620 C   0  0  0  0  0  0  0  0  0  0  0  0
    1.8780    1.2640    1.0240 O   0  0  0  0  0  0  0  0  0  0  0  0
    3.1350    1.2690    0.4260 C   0  0  0  0  0  0  0  0  0  0  0  0
    3.8700    2.4220    0.4530 C   0  0  0  0  0  0  0  0  0  0  0  0
    5.1240    2.4430   -0.1410 C   0  0  0  0  0  0  0  0  0  0  0  0
    5.6550    1.3370   -0.7590 C   0  0  0  0  0  0  0  0  0  0  0  0
    6.9690    1.4250   -1.3640 C   0  0  0  0  0  0  0  0  0  0  0  0
    7.6670    2.4660   -1.3580 O   0  0  0  0  0  0  0  0  0  0  0  0
    7.4980    0.3170   -1.9860 O   0  0  0  0  0  0  0  0  0  0  0  0
    4.9030    0.1930   -0.7740 C   0  0  0  0  0  0  0  0  0  0  0  0
    3.6450    0.1510   -0.1860 C   0  0  0  0  0  0  0  0  0  0  0  0
    1.2060   -0.7560    2.1480 C   0  0  0  0  0  0  0  0  0  0  0  0
    0.4590   -1.9140    2.1960 C   0  0  0  0  0  0  0  0  0  0  0  0
   -0.3890   -2.2430    1.1660 C   0  0  0  0  0  0  0  0  0  0  0  0
   -1.1450   -3.4580    1.2670 N   0  0  0  0  0  0  0  0  0  0  0  0
  1  2  1  0
  2  3  1  0
  3  4  2  0
  3  5  1  0
  5  6  1  0
  6  7  2  0
  6  8  1  0
  8  9  1  0
  9 10  1  6
  9 11  1  0
 11 12  2  0
 11 26  1  0
 12 13  1  0
 13 14  1  0
 13 24  2  0
 14 15  1  0
 15 16  2  0
 15 23  1  0
 16 17  1  0
 17 18  2  0
 18 19  1  0
 18 22  1  0
 19 20  2  0
 19 21  1  0
 22 23  2  0
 24 25  1  0
 25 26  2  0
 26 27  1  0
M  END
