
     RDKit          3D

 27 28  0  0  0  0  0  0  0  0999 V2000
   -5.9450   -1.2320   -2.3150 C   0  0  0  0  0  0  0  0  0  0  0  0
   -5.7240   -2.0620   -1.3110 C   0  0  0  0  0  0  0  0  0  0  0  0
   -6.5240   -3.1790   -1.0010 O   0  0  0  0  0  0  0  0  0  0  0  0
   -5.9760   -3.8090    0.1210 C   0  0  0  0  0  0  0  0  0  0  0  0
   -4.7940   -3.0070    0.4740 C   0  0  0  0  0  0  0  0  0  0  0  0
   -4.6360   -1.9910   -0.3480 C   0  0  0  0  0  0  0  0  0  0  0  0
   -3.5780   -0.9690   -0.3260 C   0  0  0  0  0  0  0  0  0  0  0  0
   -4.0960    0.3740   -0.1610 N   0  0  0  0  0  0  0  0  0  0  0  0
   -3.1650    1.4520   -0.1290 C   0  0  0  0  0  0  0  0  0  0  0  0
   -3.5660    2.7570    0.0390 C   0  0  0  0  0  0  0  0  0  0  0  0
   -2.6660    3.7990    0.0700 C   0  0  0  0  0  0  0  0  0  0  0  0
   -1.3250    3.5160   -0.0730 C   0  0  0  0  0  0  0  0  0  0  0  0
   -0.3690    4.5400   -0.0490 O   0  0  0  0  0  0  0  0  0  0  0  0
   -0.8440    2.2170   -0.2470 C   0  0  0  0  0  0  0  0  0  0  0  0
    0.5450    2.0190   -0.3840 N   0  0  0  0  0  0  0  0  0  0  0  0
    1.2280    0.8050   -0.5770 C   0  0  0  0  0  0  0  0  0  0  0  0
    0.5810   -0.2570   -0.6430 O   0  0  0  0  0  0  0  0  0  0  0  0
    2.7410    0.7810   -0.7050 C   0  0  0  0  0  0  0  0  0  0  0  0
    3.1670   -0.6540   -0.9110 C   0  0  2  0  0  0  0  0  0  0  0  0
    2.7590   -1.4130    0.1910 O   0  0  0  0  0  0  0  0  0  0  0  0
    4.6520   -0.7850   -1.0370 C   0  0  0  0  0  0  0  0  0  0  0  0
    5.2910   -0.2840    0.1910 C   0  0  0  0  0  0  0  0  0  0  0  0
    5.4420    0.9400    0.3590 O   0  0  0  0  0  0  0  0  0  0  0  0
    5.7210   -1.1700    1.1510 O   0  0  0  0  0  0  0  0  0  0  0  0
    6.3380   -0.7260    2.3410 C   0  0  0  0  0  0  0  0  0  0  0  0
    7.5820    0.0430    1.9790 C   0  0  0  0  0  0  0  0  0  0  0  0
   -1.7930    1.2220   -0.2680 C   0  0  0  0  0  0  0  0  0  0  0  0
  1  2  2  0
  2  3  1  0
  2  6  1  0
  3  4  1  0
  4  5  1  0
  5  6  2  0
  6  7  1  0
  7  8  1  0
  8  9  1  0
  9 10  2  0
  9 27  1  0
 10 11  1  0
 11 12  2  0
 12 13  1  0
 12 14  1  0
 14 15  1  0
 14 27  2  0
 15 16  1  0
 16 17  2  0
 16 18  1  0
 18 19  1  0
 19 20  1  1
 19 21  1  0
 21 22  1  0
 22 23  2  0
 22 24  1  0
 24 25  1  0
 25 26  1  0
M  END
