
     RDKit          3D

 27 28  0  0  0  0  0  0  0  0999 V2000
    6.6700    1.4910    0.7420 C   0  0  0  0  0  0  0  0  0  0  0  0
    6.4050    0.3800   -0.2610 C   0  0  2  0  0  0  0  0  0  0  0  0
    6.9540   -0.9380    0.2090 C   0  0  0  0  0  0  0  0  0  0  0  0
    6.4320   -1.3830    1.3970 O   0  0  0  0  0  0  0  0  0  0  0  0
    7.1190    0.7770   -1.5330 C   0  0  0  0  0  0  0  0  0  0  0  0
    8.4730    0.9240   -1.3580 O   0  0  0  0  0  0  0  0  0  0  0  0
    4.9330    0.3110   -0.5030 C   0  0  0  0  0  0  0  0  0  0  0  0
    4.5420    0.4770   -1.6650 O   0  0  0  0  0  0  0  0  0  0  0  0
    4.0630    0.0670    0.5700 N   0  0  0  0  0  0  0  0  0  0  0  0
    2.6600   -0.0180    0.4320 C   0  0  0  0  0  0  0  0  0  0  0  0
    1.9270   -0.0880    1.6360 C   0  0  0  0  0  0  0  0  0  0  0  0
    0.5650   -0.1830    1.5900 C   0  0  0  0  0  0  0  0  0  0  0  0
   -0.1640   -0.2140    0.3940 C   0  0  0  0  0  0  0  0  0  0  0  0
   -1.5480   -0.3120    0.5030 N   0  0  0  0  0  0  0  0  0  0  0  0
   -2.5000   -0.3620   -0.5500 C   0  0  0  0  0  0  0  0  0  0  0  0
   -2.1010   -0.3150   -1.7190 O   0  0  0  0  0  0  0  0  0  0  0  0
   -3.9440   -0.4670   -0.2270 C   0  0  0  0  0  0  0  0  0  0  0  0
   -4.5240   -0.5280    1.0180 C   0  0  0  0  0  0  0  0  0  0  0  0
   -5.9130   -0.6220    0.8430 C   0  0  0  0  0  0  0  0  0  0  0  0
   -6.0850   -0.6100   -0.5170 C   0  0  0  0  0  0  0  0  0  0  0  0
   -7.3850   -0.6850   -1.2180 C   0  0  0  0  0  0  0  0  0  0  0  0
   -8.5820   -0.5350   -0.3600 C   0  0  0  0  0  0  0  0  0  0  0  0
   -8.7490    0.7770    0.3260 C   0  0  0  0  0  0  0  0  0  0  0  0
   -8.8370    1.7760   -0.6580 O   0  0  0  0  0  0  0  0  0  0  0  0
   -4.9010   -0.5190   -1.1070 O   0  0  0  0  0  0  0  0  0  0  0  0
    0.5320   -0.1480   -0.7540 C   0  0  0  0  0  0  0  0  0  0  0  0
    1.9320   -0.0510   -0.7100 C   0  0  0  0  0  0  0  0  0  0  0  0
  2  1  1  1
  2  3  1  0
  2  5  1  0
  2  7  1  0
  3  4  1  0
  5  6  1  0
  7  8  2  0
  7  9  1  0
  9 10  1  0
 10 11  2  0
 10 27  1  0
 11 12  1  0
 12 13  2  0
 13 14  1  0
 13 26  1  0
 14 15  1  0
 15 16  2  0
 15 17  1  0
 17 18  2  0
 17 25  1  0
 18 19  1  0
 19 20  2  0
 20 21  1  0
 20 25  1  0
 21 22  1  0
 22 23  1  0
 23 24  1  0
 26 27  2  0
M  END
