
     RDKit          3D

 19 19  0  0  0  0  0  0  0  0999 V2000
    3.0720   -1.0810   -2.0320 C   0  0  0  0  0  0  0  0  0  0  0  0
    3.8230   -0.5230   -1.1070 C   0  0  0  0  0  0  0  0  0  0  0  0
    5.2670   -0.8790   -1.0120 C   0  0  0  0  0  0  0  0  0  0  0  0
    5.9810   -0.1880    0.0570 C   0  0  0  0  0  0  0  0  0  0  0  0
    5.4300    0.6770    0.8810 C   0  0  0  0  0  0  0  0  0  0  0  0
    4.0370    0.9840    0.7460 C   0  0  0  0  0  0  0  0  0  0  0  0
    3.2500    0.4280   -0.1910 C   0  0  0  0  0  0  0  0  0  0  0  0
    1.8560    0.8480   -0.1930 C   0  0  0  0  0  0  0  0  0  0  0  0
    1.5120    1.7040    0.6940 O   0  0  0  0  0  0  0  0  0  0  0  0
    0.8550    0.4570   -1.0110 O   0  0  0  0  0  0  0  0  0  0  0  0
   -0.4670    0.7680   -1.1080 C   0  0  0  0  0  0  0  0  0  0  0  0
   -1.3490    0.4270    0.0830 C   0  0  2  0  0  0  0  0  0  0  0  0
   -0.9180    1.0970    1.1940 O   0  0  0  0  0  0  0  0  0  0  0  0
   -1.1850   -1.0510    0.3100 C   0  0  0  0  0  0  0  0  0  0  0  0
   -1.5860   -1.8820   -0.7740 N   0  0  0  0  0  0  0  0  0  0  0  0
   -2.7200    0.8860   -0.2560 C   0  0  0  0  0  0  0  0  0  0  0  0
   -3.7920    0.6980    0.7360 C   0  0  2  0  0  0  0  0  0  0  0  0
   -4.1310   -0.6650    1.1910 C   0  0  0  0  0  0  0  0  0  0  0  0
   -5.0610    1.3420    0.1460 C   0  0  0  0  0  0  0  0  0  0  0  0
  1  2  2  0
  2  3  1  0
  2  7  1  0
  3  4  1  0
  4  5  2  0
  5  6  1  0
  6  7  2  0
  7  8  1  0
  8  9  2  0
  8 10  1  0
 10 11  1  0
 11 12  1  0
 12 13  1  1
 12 14  1  0
 12 16  1  0
 14 15  1  0
 16 17  1  0
 17 18  1  6
 17 19  1  0
M  CHG  1  15   1
M  END
