
     RDKit          3D

 19 20  0  0  0  0  0  0  0  0999 V2000
   -5.2310    1.5990   -0.4830 C   0  0  0  0  0  0  0  0  0  0  0  0
   -4.8530    0.2680   -0.3230 O   0  0  0  0  0  0  0  0  0  0  0  0
   -3.5630   -0.1760   -0.0890 C   0  0  0  0  0  0  0  0  0  0  0  0
   -3.3710   -1.5360    0.0440 C   0  0  0  0  0  0  0  0  0  0  0  0
   -2.0820   -2.0250    0.2820 C   0  0  0  0  0  0  0  0  0  0  0  0
   -1.8920   -3.3900    0.4150 O   0  0  0  0  0  0  0  0  0  0  0  0
   -0.9960   -1.1830    0.3860 C   0  0  0  0  0  0  0  0  0  0  0  0
   -1.1930    0.1770    0.2520 C   0  0  0  0  0  0  0  0  0  0  0  0
   -0.0980    1.1620    0.3460 C   0  0  2  0  0  0  0  0  0  0  0  0
   -0.2480    2.1160   -0.7400 N   0  0  0  0  0  0  0  0  0  0  0  0
    1.2410    0.5200    0.2720 C   0  0  0  0  0  0  0  0  0  0  0  0
    1.7510    0.0650   -0.9250 C   0  0  0  0  0  0  0  0  0  0  0  0
    2.9930   -0.5330   -1.0110 C   0  0  0  0  0  0  0  0  0  0  0  0
    3.7850   -0.7030    0.1050 C   0  0  0  0  0  0  0  0  0  0  0  0
    5.1220   -1.3490   -0.0010 C   0  0  0  0  0  0  0  0  0  0  0  0
    6.1240   -0.4050   -0.2470 O   0  0  0  0  0  0  0  0  0  0  0  0
    3.2790   -0.2480    1.3050 C   0  0  0  0  0  0  0  0  0  0  0  0
    2.0360    0.3490    1.3870 C   0  0  0  0  0  0  0  0  0  0  0  0
   -2.4680    0.6460    0.0180 C   0  0  0  0  0  0  0  0  0  0  0  0
  1  2  1  0
  2  3  1  0
  3  4  2  0
  3 19  1  0
  4  5  1  0
  5  6  1  0
  5  7  2  0
  7  8  1  0
  8  9  1  0
  8 19  2  0
  9 10  1  6
  9 11  1  0
 11 12  2  0
 11 18  1  0
 12 13  1  0
 13 14  2  0
 14 15  1  0
 14 17  1  0
 15 16  1  0
 17 18  2  0
M  CHG  1  10   1
M  END
