
     RDKit          3D

 19 20  0  0  0  0  0  0  0  0999 V2000
    6.7480    0.1650    0.6500 C   0  0  0  0  0  0  0  0  0  0  0  0
    5.5340    0.7630   -0.0130 C   0  0  2  0  0  0  0  0  0  0  0  0
    5.3500    2.0420    0.5020 O   0  0  0  0  0  0  0  0  0  0  0  0
    4.3520   -0.1020    0.2070 C   0  0  0  0  0  0  0  0  0  0  0  0
    4.4370   -1.4040    0.6530 C   0  0  0  0  0  0  0  0  0  0  0  0
    3.1370   -1.8620    0.7280 C   0  0  0  0  0  0  0  0  0  0  0  0
    2.3150   -0.8260    0.3270 C   0  0  0  0  0  0  0  0  0  0  0  0
    0.8370   -0.9550    0.2810 C   0  0  0  0  0  0  0  0  0  0  0  0
    0.1900    0.3270   -0.1920 C   0  0  0  0  0  0  0  0  0  0  0  0
   -1.3090    0.2210   -0.2480 C   0  0  1  0  0  0  0  0  0  0  0  0
   -1.7860    1.4640   -0.6970 O   0  0  0  0  0  0  0  0  0  0  0  0
   -1.7830   -0.8130   -1.2400 C   0  0  0  0  0  0  0  0  0  0  0  0
   -3.1770   -0.4070   -1.6740 C   0  0  0  0  0  0  0  0  0  0  0  0
   -4.1570   -0.4570   -0.5180 C   0  0  0  0  0  0  0  0  0  0  0  0
   -4.1250    0.7700    0.3320 C   0  0  1  0  0  0  0  0  0  0  0  0
   -5.4230    0.8640    1.0110 N   0  0  0  0  0  0  0  0  0  0  0  0
   -3.0730    0.7690    1.3880 C   0  0  0  0  0  0  0  0  0  0  0  0
   -1.9080   -0.1250    1.0930 C   0  0  0  0  0  0  0  0  0  0  0  0
    3.0770    0.1830    0.0330 O   0  0  0  0  0  0  0  0  0  0  0  0
  2  1  1  1
  2  3  1  0
  2  4  1  0
  4  5  2  0
  4 19  1  0
  5  6  1  0
  6  7  2  0
  7  8  1  0
  7 19  1  0
  8  9  1  0
  9 10  1  0
 10 11  1  6
 10 12  1  0
 10 18  1  0
 12 13  1  0
 13 14  1  0
 14 15  1  0
 15 16  1  1
 15 17  1  0
 17 18  1  0
M  CHG  1  16   1
M  END
