
     RDKit          3D

 19 20  0  0  0  0  0  0  0  0999 V2000
    3.7190   -0.9400   -0.2660 C   0  0  0  0  0  0  0  0  0  0  0  0
    3.1540   -1.4210    0.8110 C   0  0  0  0  0  0  0  0  0  0  0  0
    3.8110   -2.1300    1.8920 C   0  0  0  0  0  0  0  0  0  0  0  0
    2.8910   -2.4520    2.7940 C   0  0  0  0  0  0  0  0  0  0  0  0
    1.6110   -1.9610    2.3240 C   0  0  0  0  0  0  0  0  0  0  0  0
    1.7350   -1.3520    1.1620 C   0  0  0  0  0  0  0  0  0  0  0  0
    0.7030   -0.7910    0.4760 O   0  0  0  0  0  0  0  0  0  0  0  0
    0.3740    0.5220    0.3620 C   0  0  0  0  0  0  0  0  0  0  0  0
    1.2130    1.4060    1.0440 C   0  0  0  0  0  0  0  0  0  0  0  0
    0.9600    2.7600    0.9790 C   0  0  0  0  0  0  0  0  0  0  0  0
   -0.1060    3.1840    0.2470 C   0  0  0  0  0  0  0  0  0  0  0  0
   -0.3340    4.5730    0.2030 O   0  0  0  0  0  0  0  0  0  0  0  0
   -0.9200    2.2850   -0.4170 C   0  0  0  0  0  0  0  0  0  0  0  0
   -0.7090    0.9260   -0.3810 C   0  0  0  0  0  0  0  0  0  0  0  0
   -1.6500   -0.0090   -1.0720 C   0  0  2  0  0  0  0  0  0  0  0  0
   -2.3960    0.6200   -2.1820 C   0  0  0  0  0  0  0  0  0  0  0  0
   -3.3430   -0.3100   -2.7460 N   0  0  0  0  0  0  0  0  0  0  0  0
   -2.6120   -0.3520   -0.1020 O   0  0  0  0  0  0  0  0  0  0  0  0
   -2.5220   -1.6840    0.2130 C   0  0  0  0  0  0  0  0  0  0  0  0
  1  2  2  0
  2  3  1  0
  2  6  1  0
  3  4  2  0
  4  5  1  0
  5  6  2  0
  6  7  1  0
  7  8  1  0
  8  9  2  0
  8 14  1  0
  9 10  1  0
 10 11  2  0
 11 12  1  0
 11 13  1  0
 13 14  2  0
 14 15  1  0
 15 16  1  6
 15 18  1  0
 16 17  1  0
 18 19  1  0
M  CHG  1  17   1
M  END
