
     RDKit          3D

 19 20  0  0  0  0  0  0  0  0999 V2000
   -6.0950   -0.0230    0.1180 C   0  0  0  0  0  0  0  0  0  0  0  0
   -6.0550   -1.1700    1.0450 C   0  0  0  0  0  0  0  0  0  0  0  0
   -4.9130   -1.6590    1.4510 C   0  0  0  0  0  0  0  0  0  0  0  0
   -3.6710   -1.0300    0.9570 C   0  0  0  0  0  0  0  0  0  0  0  0
   -2.5380   -1.5400    1.3810 C   0  0  0  0  0  0  0  0  0  0  0  0
   -1.2690   -1.0150    0.9700 C   0  0  0  0  0  0  0  0  0  0  0  0
   -1.1840    0.0480    0.1120 C   0  0  0  0  0  0  0  0  0  0  0  0
    0.0540    0.5720   -0.2970 C   0  0  0  0  0  0  0  0  0  0  0  0
    1.1750   -0.0370    0.2070 C   0  0  0  0  0  0  0  0  0  0  0  0
    1.0940   -1.1080    1.0700 C   0  0  0  0  0  0  0  0  0  0  0  0
   -0.1060   -1.6100    1.4630 C   0  0  0  0  0  0  0  0  0  0  0  0
   -0.1910   -2.7000    2.3420 O   0  0  0  0  0  0  0  0  0  0  0  0
    2.4110    0.4730   -0.1930 O   0  0  0  0  0  0  0  0  0  0  0  0
    2.5490    1.6180   -0.9900 C   0  0  1  0  0  0  0  0  0  0  0  0
    3.7700    1.4780   -1.8880 C   0  0  0  0  0  0  0  0  0  0  0  0
    5.0340    1.3090   -1.0890 C   0  0  0  0  0  0  0  0  0  0  0  0
    5.0330    0.1540   -0.2420 N   0  0  0  0  0  0  0  0  0  0  0  0
    1.3560    1.8780   -1.8740 C   0  0  0  0  0  0  0  0  0  0  0  0
    0.1440    1.6410   -1.1590 O   0  0  0  0  0  0  0  0  0  0  0  0
  1  2  1  0
  2  3  2  3
  3  4  1  0
  4  5  2  3
  5  6  1  0
  6  7  2  0
  6 11  1  0
  7  8  1  0
  8  9  2  0
  8 19  1  0
  9 10  1  0
  9 13  1  0
 10 11  2  0
 11 12  1  0
 13 14  1  0
 14 15  1  6
 14 18  1  0
 15 16  1  0
 16 17  1  0
 18 19  1  0
M  CHG  1  17   1
M  END
