
     RDKit          3D

 10 11  0  0  0  0  0  0  0  0999 V2000
   -1.9950   -1.5540   -0.1020 N   0  0  0  0  0  0  0  0  0  0  0  0
   -1.2450   -0.3590   -0.0960 C   0  0  0  0  0  0  0  0  0  0  0  0
   -1.8750    0.8130   -0.2110 N   0  0  0  0  0  0  0  0  0  0  0  0
   -1.2020    2.0010   -0.2120 C   0  0  0  0  0  0  0  0  0  0  0  0
    0.1360    1.9260   -0.0900 N   0  0  0  0  0  0  0  0  0  0  0  0
    0.8260    0.7880    0.0280 C   0  0  0  0  0  0  0  0  0  0  0  0
    2.1290    0.4510    0.1600 N   0  0  0  0  0  0  0  0  0  0  0  0
    2.2690   -0.8790    0.2390 C   0  0  0  0  0  0  0  0  0  0  0  0
    1.0360   -1.3950    0.1570 N   0  0  0  0  0  0  0  0  0  0  0  0
    0.1180   -0.4170    0.0260 C   0  0  0  0  0  0  0  0  0  0  0  0
  1  2  1  0
  2  3  2  0
  2 10  1  0
  3  4  1  0
  4  5  2  0
  5  6  1  0
  6  7  1  0
  6 10  2  0
  7  8  1  0
  8  9  2  0
  9 10  1  0
M  END
