
     RDKit          3D

 16 17  0  0  0  0  0  0  0  0999 V2000
   -1.2400   -1.7690   -0.7800 N   0  0  0  0  0  0  0  0  0  0  0  0
   -1.7620   -0.9250    0.2580 C   0  0  2  0  0  0  0  0  0  0  0  0
   -2.2310    0.3680   -0.3720 C   0  0  0  0  0  0  0  0  0  0  0  0
   -1.1160    1.3670   -0.4060 C   0  0  2  0  0  0  0  0  0  0  0  0
   -1.3270    2.3790   -1.3320 O   0  0  0  0  0  0  0  0  0  0  0  0
    0.1690    0.6330   -0.6710 C   0  0  0  0  0  0  0  0  0  0  0  0
    0.5200   -0.1240    0.6160 C   0  0  2  0  0  0  0  0  0  0  0  0
   -0.7240   -0.5960    1.3100 C   0  0  0  0  0  0  0  0  0  0  0  0
    1.2780    0.7750    1.3960 O   0  0  0  0  0  0  0  0  0  0  0  0
    2.5180    1.1590    0.9150 C   0  0  0  0  0  0  0  0  0  0  0  0
    3.0250    2.2970    1.2040 O   0  0  0  0  0  0  0  0  0  0  0  0
    3.2640    0.2450    0.0590 C   0  0  0  0  0  0  0  0  0  0  0  0
    4.3790    0.5070   -0.4140 O   0  0  0  0  0  0  0  0  0  0  0  0
    2.6580   -1.0290   -0.2430 N   0  0  0  0  0  0  0  0  0  0  0  0
    1.3780   -1.3000    0.3140 C   0  0  0  0  0  0  0  0  0  0  0  0
    0.9770   -2.4670    0.5460 O   0  0  0  0  0  0  0  0  0  0  0  0
  2  1  1  6
  2  3  1  0
  2  8  1  0
  3  4  1  0
  4  5  1  6
  4  6  1  0
  7  6  1  6
  7  8  1  0
  7  9  1  0
  7 15  1  0
  9 10  1  0
 10 11  2  0
 10 12  1  0
 12 13  2  0
 12 14  1  0
 14 15  1  0
 15 16  2  0
M  END
