
     RDKit          3D

 22 24  0  0  0  0  0  0  0  0999 V2000
    6.7920   -0.6700    0.2820 N   0  0  0  0  0  0  0  0  0  0  0  0
    6.0050    0.6160   -0.5230 S   0  0  2  0  0  0  0  0  0  0  0  0
    6.6190    0.8150   -1.8930 O   0  0  0  0  0  0  0  0  0  0  0  0
    6.2320    1.8960    0.2520 O   0  0  0  0  0  0  0  0  0  0  0  0
    4.2880    0.3490   -0.6830 C   0  0  0  0  0  0  0  0  0  0  0  0
    3.8450   -0.3050   -1.8120 C   0  0  0  0  0  0  0  0  0  0  0  0
    2.4890   -0.5220   -1.9500 C   0  0  0  0  0  0  0  0  0  0  0  0
    1.5840   -0.0970   -0.9820 C   0  0  0  0  0  0  0  0  0  0  0  0
    0.2890   -0.1680   -0.8600 O   0  0  0  0  0  0  0  0  0  0  0  0
   -0.1180    0.3870    0.2510 C   0  0  0  0  0  0  0  0  0  0  0  0
   -1.4970    0.4690    0.6730 N   0  0  0  0  0  0  0  0  0  0  0  0
   -2.5440   -0.0570   -0.0990 C   0  0  0  0  0  0  0  0  0  0  0  0
   -2.2230   -0.6120   -1.1940 O   0  0  0  0  0  0  0  0  0  0  0  0
   -3.9290    0.0330    0.3400 C   0  0  0  0  0  0  0  0  0  0  0  0
   -4.3070    0.6230    1.5120 C   0  0  0  0  0  0  0  0  0  0  0  0
   -5.6450    0.6780    1.8750 C   0  0  0  0  0  0  0  0  0  0  0  0
   -6.5880    0.1310    1.0440 C   0  0  0  0  0  0  0  0  0  0  0  0
   -6.2000   -0.4580   -0.1280 C   0  0  0  0  0  0  0  0  0  0  0  0
   -4.8790   -0.5180   -0.4980 C   0  0  0  0  0  0  0  0  0  0  0  0
    0.9420    0.8420    0.8890 N   0  0  0  0  0  0  0  0  0  0  0  0
    2.0250    0.5580    0.1480 C   0  0  0  0  0  0  0  0  0  0  0  0
    3.3840    0.7650    0.2660 C   0  0  0  0  0  0  0  0  0  0  0  0
  2  1  1  1
  2  3  2  0
  2  4  2  0
  2  5  1  0
  5  6  2  0
  5 22  1  0
  6  7  1  0
  7  8  2  0
  8  9  1  0
  8 21  1  0
  9 10  1  0
 10 11  1  0
 10 20  2  0
 11 12  1  0
 12 13  2  0
 12 14  1  0
 14 15  2  0
 14 19  1  0
 15 16  1  0
 16 17  2  0
 17 18  1  0
 18 19  2  0
 20 21  1  0
 21 22  2  0
M  END
