
     RDKit          3D

 17 18  0  0  0  0  0  0  0  0999 V2000
   -0.4830   -1.0870    1.3970 C   0  0  0  0  0  0  0  0  0  0  0  0
   -0.9170   -0.1620    0.2840 C   0  0  2  0  0  0  0  0  0  0  0  0
   -0.2030   -0.3280   -0.9970 C   0  0  0  0  0  0  0  0  0  0  0  0
    1.2860   -0.1150   -0.9750 C   0  0  1  0  0  0  0  0  0  0  0  0
    1.6790    1.1720   -0.5470 N   0  0  0  0  0  0  0  0  0  0  0  0
    2.9600    1.4040   -0.0160 C   0  0  0  0  0  0  0  0  0  0  0  0
    3.4070    2.5960    0.1600 O   0  0  0  0  0  0  0  0  0  0  0  0
    3.8310    0.3360    0.3550 N   0  0  0  0  0  0  0  0  0  0  0  0
    3.3290   -0.9530    0.1560 N   0  0  0  0  0  0  0  0  0  0  0  0
    2.0470   -1.2060   -0.3770 C   0  0  0  0  0  0  0  0  0  0  0  0
    1.5590   -2.3570   -0.3420 O   0  0  0  0  0  0  0  0  0  0  0  0
   -0.9390    1.1690    0.7620 O   0  0  0  0  0  0  0  0  0  0  0  0
   -2.2330    1.6600    0.8270 C   0  0  0  0  0  0  0  0  0  0  0  0
   -2.5720    2.8640    0.9840 O   0  0  0  0  0  0  0  0  0  0  0  0
   -3.2020    0.5500    0.6830 C   0  0  0  0  0  0  0  0  0  0  0  0
   -2.3880   -0.5090    0.0120 C   0  0  1  0  0  0  0  0  0  0  0  0
   -2.6560   -0.5370   -1.3500 O   0  0  0  0  0  0  0  0  0  0  0  0
  2  1  1  1
  2  3  1  0
  2 12  1  0
  2 16  1  0
  4  3  1  1
  4  5  1  0
  4 10  1  0
  5  6  1  0
  6  7  2  0
  6  8  1  0
  8  9  1  0
  9 10  1  0
 10 11  2  0
 12 13  1  0
 13 14  2  0
 13 15  1  0
 15 16  1  0
 16 17  1  6
M  END
