
     RDKit          3D

 17 17  0  0  0  0  0  0  0  0999 V2000
    3.2600    0.4430   -0.8810 C   0  0  0  0  0  0  0  0  0  0  0  0
    2.4890    0.1050    0.4000 C   0  0  2  0  0  0  0  0  0  0  0  0
    1.0790   -0.0370    0.0980 N   0  0  0  0  0  0  0  0  0  0  0  0
    0.3950   -1.2470    0.3550 C   0  0  0  0  0  0  0  0  0  0  0  0
    0.9990   -2.2230    0.8500 O   0  0  0  0  0  0  0  0  0  0  0  0
   -1.0410   -1.3440    0.0310 C   0  0  2  0  0  0  0  0  0  0  0  0
   -1.2870   -2.4690   -0.9640 C   0  0  0  0  0  0  0  0  0  0  0  0
   -1.4950   -0.1650   -0.4980 O   0  0  0  0  0  0  0  0  0  0  0  0
   -2.3650    0.4280    0.3750 C   0  0  1  0  0  0  0  0  0  0  0  0
   -3.6150    0.8730   -0.3650 C   0  0  0  0  0  0  0  0  0  0  0  0
   -3.2500    1.8220   -1.3990 N   0  0  0  0  0  0  0  0  0  0  0  0
   -2.6530   -0.4670    1.4000 O   0  0  0  0  0  0  0  0  0  0  0  0
   -1.8570   -1.5790    1.2470 C   0  0  0  0  0  0  0  0  0  0  0  0
   -1.8420   -2.5750    1.9940 O   0  0  0  0  0  0  0  0  0  0  0  0
    2.7080    1.2160    1.3460 C   0  0  0  0  0  0  0  0  0  0  0  0
    4.0170    1.5270    1.7730 N   0  0  0  0  0  0  0  0  0  0  0  0
    1.7300    1.9070    1.7880 O   0  0  0  0  0  0  0  0  0  0  0  0
  2  1  1  6
  2  3  1  0
  2 15  1  0
  3  4  1  0
  4  5  2  0
  4  6  1  0
  6  7  1  6
  6  8  1  0
  6 13  1  0
  8  9  1  0
  9 10  1  6
  9 12  1  0
 10 11  1  0
 12 13  1  0
 13 14  2  0
 15 16  1  0
 15 17  2  0
M  END
