
     RDKit          3D

 17 18  0  0  0  0  0  0  0  0999 V2000
    2.7080   -2.3930    1.0880 N   0  0  0  0  0  0  0  0  0  0  0  0
    1.6410   -1.6460    0.5350 C   0  0  0  0  0  0  0  0  0  0  0  0
    0.5640   -2.2260    0.4670 O   0  0  0  0  0  0  0  0  0  0  0  0
    1.8670   -0.3090    0.1040 C   0  0  0  0  0  0  0  0  0  0  0  0
    0.8850    0.4080   -0.4340 C   0  0  0  0  0  0  0  0  0  0  0  0
   -0.4610    0.0370   -0.6790 C   0  0  2  0  0  0  0  0  0  0  0  0
   -1.4960    0.3820    0.3950 C   0  0  0  0  0  0  0  0  0  0  0  0
   -2.6950   -0.1770   -0.3500 C   0  0  2  0  0  0  0  0  0  0  0  0
   -3.8440   -0.4720    0.5800 C   0  0  0  0  0  0  0  0  0  0  0  0
   -4.3070    0.6740    1.2160 O   0  0  0  0  0  0  0  0  0  0  0  0
   -2.2110   -1.2770   -0.9940 O   0  0  0  0  0  0  0  0  0  0  0  0
   -0.8940   -1.2080   -1.1270 N   0  0  0  0  0  0  0  0  0  0  0  0
    1.2710    1.7730   -0.7410 N   0  0  0  0  0  0  0  0  0  0  0  0
    2.5520    2.2970   -0.4980 C   0  0  0  0  0  0  0  0  0  0  0  0
    2.7790    3.5230   -0.3920 O   0  0  0  0  0  0  0  0  0  0  0  0
    3.6700    1.3350   -0.3650 C   0  0  0  0  0  0  0  0  0  0  0  0
    3.1660    0.1840    0.2830 O   0  0  0  0  0  0  0  0  0  0  0  0
  1  2  1  0
  2  3  2  0
  2  4  1  0
  4  5  2  0
  4 17  1  0
  6  5  1  1
  5 13  1  0
  6  7  1  0
  6 12  1  0
  7  8  1  0
  8  9  1  1
  8 11  1  0
  9 10  1  0
 11 12  1  0
 13 14  1  0
 14 15  2  0
 14 16  1  0
 16 17  1  0
M  END
