
     RDKit          3D

 16 17  0  0  0  0  0  0  0  0999 V2000
    5.8970   -0.3270   -0.6660 N   0  0  0  0  0  0  0  0  0  0  0  0
    4.5970   -0.7130   -0.8090 O   0  0  0  0  0  0  0  0  0  0  0  0
    3.6270   -0.0630   -0.0460 C   0  0  0  0  0  0  0  0  0  0  0  0
    3.9320    0.8710    0.7680 O   0  0  0  0  0  0  0  0  0  0  0  0
    2.2640   -0.4490   -0.1790 N   0  0  0  0  0  0  0  0  0  0  0  0
    1.2070    0.1530    0.5530 C   0  0  0  0  0  0  0  0  0  0  0  0
    1.4870    1.0760    1.3620 O   0  0  0  0  0  0  0  0  0  0  0  0
   -0.2150   -0.2460    0.4180 C   0  0  1  0  0  0  0  0  0  0  0  0
   -0.8090   -0.4880    1.7850 C   0  0  0  0  0  0  0  0  0  0  0  0
   -1.6690    0.7420    1.5870 C   0  0  0  0  0  0  0  0  0  0  0  0
   -1.1000    0.9360    0.2040 C   0  0  2  0  0  0  0  0  0  0  0  0
   -2.0440    0.6500   -0.9280 C   0  0  2  0  0  0  0  0  0  0  0  0
   -3.0200    1.7230   -0.9890 N   0  0  0  0  0  0  0  0  0  0  0  0
   -2.6860   -0.6990   -0.8230 C   0  0  0  0  0  0  0  0  0  0  0  0
   -1.6320   -1.7430   -0.6360 C   0  0  0  0  0  0  0  0  0  0  0  0
   -0.3580   -1.2550   -0.4930 O   0  0  0  0  0  0  0  0  0  0  0  0
  1  2  1  0
  2  3  1  0
  3  4  2  0
  3  5  1  0
  5  6  1  0
  6  7  2  0
  8  6  1  1
  8  9  1  0
  8 11  1  0
  8 16  1  0
  9 10  1  0
 11 10  1  1
 11 12  1  0
 12 13  1  1
 12 14  1  0
 14 15  1  0
 15 16  1  0
M  END
