
     RDKit          3D

 12 12  0  0  0  0  0  0  0  0999 V2000
   -2.7730    0.1820    1.4790 C   0  0  0  0  0  0  0  0  0  0  0  0
   -2.6360   -0.1560    0.0190 C   0  0  1  0  0  0  0  0  0  0  0  0
   -3.4960   -1.3790   -0.3330 C   0  0  0  0  0  0  0  0  0  0  0  0
   -3.2360    0.9960   -0.7670 C   0  0  0  0  0  0  0  0  0  0  0  0
   -1.3120   -0.3640   -0.4310 N   0  0  0  0  0  0  0  0  0  0  0  0
   -0.3930    0.7120   -0.3550 C   0  0  0  0  0  0  0  0  0  0  0  0
    0.5770   -0.1310    0.4470 C   0  0  2  0  0  0  0  0  0  0  0  0
    1.7740   -0.1720   -0.2030 O   0  0  0  0  0  0  0  0  0  0  0  0
    2.8810    0.1650    0.5330 C   0  0  0  0  0  0  0  0  0  0  0  0
    4.0750    0.0530   -0.3950 C   0  0  0  0  0  0  0  0  0  0  0  0
    5.3120    0.3860    0.2660 N   0  0  0  0  0  0  0  0  0  0  0  0
   -0.4140   -1.2010    0.2860 C   0  0  0  0  0  0  0  0  0  0  0  0
  2  1  1  1
  2  3  1  0
  2  4  1  0
  2  5  1  0
  5  6  1  0
  5 12  1  0
  6  7  1  0
  7  8  1  6
  7 12  1  0
  8  9  1  0
  9 10  1  0
 10 11  1  0
M  CHG  1  11   1
M  END
