
     RDKit          3D

 14 14  0  0  0  0  0  0  0  0999 V2000
    5.0810    0.1430   -0.3530 C   0  0  0  0  0  0  0  0  0  0  0  0
    3.7360    0.5690   -0.3830 O   0  0  0  0  0  0  0  0  0  0  0  0
    2.6580   -0.2740   -0.2340 C   0  0  0  0  0  0  0  0  0  0  0  0
    2.8780   -1.4990   -0.0610 O   0  0  0  0  0  0  0  0  0  0  0  0
    1.2690    0.1950   -0.2690 C   0  0  2  0  0  0  0  0  0  0  0  0
    1.0520    1.2090    0.8500 C   0  0  0  0  0  0  0  0  0  0  0  0
    0.0640   -1.1250   -0.1280 S   0  0  0  0  0  0  0  0  0  0  0  0
   -1.5860   -0.3920   -0.2060 C   0  0  0  0  0  0  0  0  0  0  0  0
   -1.9060    0.8820   -0.3520 C   0  0  0  0  0  0  0  0  0  0  0  0
   -3.3810    1.0440   -0.3650 C   0  0  2  0  0  0  0  0  0  0  0  0
   -3.6990    1.8270    0.7680 O   0  0  0  0  0  0  0  0  0  0  0  0
   -3.8450   -0.3010   -0.2080 N   0  0  0  0  0  0  0  0  0  0  0  0
   -2.8590   -1.1200   -0.1170 C   0  0  0  0  0  0  0  0  0  0  0  0
   -2.9670   -2.6010    0.0540 C   0  0  0  0  0  0  0  0  0  0  0  0
  1  2  1  0
  2  3  1  0
  3  4  2  0
  3  5  1  0
  5  6  1  1
  5  7  1  0
  7  8  1  0
  8  9  2  0
  8 13  1  0
  9 10  1  0
 10 11  1  1
 10 12  1  0
 12 13  2  0
 13 14  1  0
M  END
