
     RDKit          3D

 12 12  0  0  0  0  0  0  0  0999 V2000
   -2.6220   -1.3790    0.2340 C   0  0  0  0  0  0  0  0  0  0  0  0
   -2.4200   -0.2960    1.2640 C   0  0  1  0  0  0  0  0  0  0  0  0
   -0.9160   -0.0420    1.3820 C   0  0  0  0  0  0  0  0  0  0  0  0
   -0.4450   -0.1260   -0.0190 N   0  0  0  0  0  0  0  0  0  0  0  0
    0.9990    0.0480    0.0840 C   0  0  0  0  0  0  0  0  0  0  0  0
    1.6350   -0.1900   -1.2450 C   0  0  0  0  0  0  0  0  0  0  0  0
    3.1060    0.0180   -1.2540 C   0  0  0  0  0  0  0  0  0  0  0  0
    3.9100   -0.8390   -0.3230 C   0  0  0  0  0  0  0  0  0  0  0  0
    3.5970   -0.6580    1.0160 O   0  0  0  0  0  0  0  0  0  0  0  0
   -0.9780    1.0450   -0.7110 C   0  0  0  0  0  0  0  0  0  0  0  0
   -2.4410    1.2450   -0.5330 C   0  0  0  0  0  0  0  0  0  0  0  0
   -2.9700    0.9520    0.7590 N   0  0  0  0  0  0  0  0  0  0  0  0
  2  1  1  6
  2  3  1  0
  2 12  1  0
  3  4  1  0
  4  5  1  0
  4 10  1  0
  5  6  1  0
  6  7  1  0
  7  8  1  0
  8  9  1  0
 10 11  1  0
 11 12  1  0
M  CHG  1  12   1
M  END
