
     RDKit          3D

  8  8  0  0  0  0  0  0  0  0999 V2000
    2.0450    1.3520   -0.5270 O   0  0  0  0  0  0  0  0  0  0  0  0
    0.9200    0.5990   -0.3710 N   0  0  0  0  0  0  0  0  0  0  0  0
    1.0410   -0.8460   -0.2900 C   0  0  0  0  0  0  0  0  0  0  0  0
   -0.0190   -1.2940    0.6790 C   0  0  0  0  0  0  0  0  0  0  0  0
   -1.2090   -0.7280    0.7170 C   0  0  0  0  0  0  0  0  0  0  0  0
   -1.5350    0.3830   -0.2100 C   0  0  0  0  0  0  0  0  0  0  0  0
   -0.3370    1.2510   -0.2920 C   0  0  0  0  0  0  0  0  0  0  0  0
   -0.5250    2.8660   -0.2870 S   0  0  0  0  0  0  0  0  0  0  0  0
  1  2  1  0
  2  3  1  0
  2  7  1  0
  3  4  1  0
  4  5  2  0
  5  6  1  0
  6  7  1  0
  7  8  2  0
M  END
