
     RDKit          3D

 14 14  0  0  0  0  0  0  0  0999 V2000
   -1.8360    2.0790    0.8000 N   0  0  0  0  0  0  0  0  0  0  0  0
   -2.3100    0.9680    1.2260 C   0  0  0  0  0  0  0  0  0  0  0  0
   -2.1920   -0.2460    0.4050 C   0  0  0  0  0  0  0  0  0  0  0  0
   -2.7140   -1.3350    0.9130 C   0  0  0  0  0  0  0  0  0  0  0  0
   -2.6940   -2.6100    0.2500 C   0  0  0  0  0  0  0  0  0  0  0  0
   -3.3470   -3.9650    0.9120 S   0  0  0  0  0  0  0  0  0  0  0  0
   -1.5620   -0.1530   -0.7970 O   0  0  0  0  0  0  0  0  0  0  0  0
   -0.3530   -0.6420   -1.2340 C   0  0  0  0  0  0  0  0  0  0  0  0
    0.7790   -0.0820   -0.4030 C   0  0  1  0  0  0  0  0  0  0  0  0
    2.0480   -0.7780   -0.7760 C   0  0  0  0  0  0  0  0  0  0  0  0
    3.1940   -0.1360   -0.4860 O   0  0  0  0  0  0  0  0  0  0  0  0
    3.1110    1.0960    0.0960 C   0  0  0  0  0  0  0  0  0  0  0  0
    1.9370    1.9240   -0.2820 C   0  0  0  0  0  0  0  0  0  0  0  0
    0.7880    1.2620   -0.5650 O   0  0  0  0  0  0  0  0  0  0  0  0
  1  2  2  0
  2  3  1  0
  3  4  2  3
  3  7  1  0
  4  5  1  0
  5  6  2  0
  7  8  1  0
  9  8  1  6
  9 10  1  0
  9 14  1  0
 10 11  1  0
 11 12  1  0
 12 13  1  0
 13 14  1  0
M  END
