
     RDKit          3D

 14 14  0  0  0  0  0  0  0  0999 V2000
    5.1000    1.0490    1.1970 C   0  0  0  0  0  0  0  0  0  0  0  0
    4.2290    0.1390    0.5680 O   0  0  0  0  0  0  0  0  0  0  0  0
    2.8870   -0.0510    0.8810 C   0  0  0  0  0  0  0  0  0  0  0  0
    2.3960    0.6460    1.8030 O   0  0  0  0  0  0  0  0  0  0  0  0
    2.0570   -1.0480    0.1390 C   0  0  2  0  0  0  0  0  0  0  0  0
    2.8410   -1.7000   -0.8500 O   0  0  0  0  0  0  0  0  0  0  0  0
    0.9150   -0.4250   -0.5960 C   0  0  0  0  0  0  0  0  0  0  0  0
   -0.2810    0.4350    0.4400 S   0  0  0  0  0  0  0  0  0  0  0  0
   -1.9350   -0.0340   -0.1230 C   0  0  0  0  0  0  0  0  0  0  0  0
   -2.1900   -0.8010   -1.1350 N   0  0  0  0  0  0  0  0  0  0  0  0
   -3.5940   -0.9840   -1.3310 C   0  0  0  0  0  0  0  0  0  0  0  0
   -4.2100   -0.1830   -0.2480 C   0  0  0  0  0  0  0  0  0  0  0  0
   -3.2200    0.3590    0.4410 C   0  0  0  0  0  0  0  0  0  0  0  0
   -3.4760    1.2350    1.6230 C   0  0  0  0  0  0  0  0  0  0  0  0
  1  2  1  0
  2  3  1  0
  3  4  2  0
  3  5  1  0
  5  6  1  6
  5  7  1  0
  7  8  1  0
  8  9  1  0
  9 10  2  0
  9 13  1  0
 10 11  1  0
 11 12  1  0
 12 13  2  0
 13 14  1  0
M  END
