
     RDKit          3D

 11 11  0  0  0  0  0  0  0  0999 V2000
   -2.4240    1.1570    1.9890 N   0  0  0  0  0  0  0  0  0  0  0  0
   -2.5690   -0.1550    1.3850 C   0  0  0  0  0  0  0  0  0  0  0  0
   -1.5400   -0.3430    0.2730 C   0  0  1  0  0  0  0  0  0  0  0  0
   -1.7260    0.6710   -0.8340 C   0  0  0  0  0  0  0  0  0  0  0  0
   -0.4380    1.2760   -1.2820 C   0  0  0  0  0  0  0  0  0  0  0  0
    0.6940    0.2750   -1.3500 C   0  0  0  0  0  0  0  0  0  0  0  0
    0.8620   -0.3010    0.0240 C   0  0  0  0  0  0  0  0  0  0  0  0
    1.9920   -0.8480    0.4140 C   0  0  0  0  0  0  0  0  0  0  0  0
    3.1430   -0.9300   -0.4570 C   0  0  0  0  0  0  0  0  0  0  0  0
    4.2290   -1.4710   -0.0380 N   0  0  0  0  0  0  0  0  0  0  0  0
   -0.2490   -0.2170    0.8510 O   0  0  0  0  0  0  0  0  0  0  0  0
  1  2  1  0
  3  2  1  1
  3  4  1  0
  3 11  1  0
  4  5  1  0
  5  6  1  0
  6  7  1  0
  7  8  2  3
  7 11  1  0
  8  9  1  0
  9 10  2  0
M  CHG  1  10   1
M  END
