
     RDKit          3D

 14 14  0  0  0  0  0  0  0  0999 V2000
   -4.2190    0.0920    0.1060 C   0  0  0  0  0  0  0  0  0  0  0  0
   -3.0340    0.7070   -0.5800 C   0  0  2  0  0  0  0  0  0  0  0  0
   -2.1520   -0.3280   -1.2470 C   0  0  0  0  0  0  0  0  0  0  0  0
   -0.7940   -0.2310   -0.5440 C   0  0  2  0  0  0  0  0  0  0  0  0
    0.1110   -1.1570   -1.0940 N   0  0  0  0  0  0  0  0  0  0  0  0
    1.3920   -1.2160   -0.5090 C   0  0  0  0  0  0  0  0  0  0  0  0
    2.2230    0.0150   -0.7450 C   0  0  0  0  0  0  0  0  0  0  0  0
    3.8060   -0.2450    0.0570 S   0  0  2  0  0  0  0  0  0  0  0  0
    4.8690    1.1570   -0.1590 C   0  0  0  0  0  0  0  0  0  0  0  0
    4.4250   -1.4540   -0.6030 O   0  0  0  0  0  0  0  0  0  0  0  0
    3.5600   -0.5590    1.4980 O   0  0  0  0  0  0  0  0  0  0  0  0
   -1.1010   -0.3770    0.9190 C   0  0  0  0  0  0  0  0  0  0  0  0
   -1.7350    0.9560    1.3400 C   0  0  0  0  0  0  0  0  0  0  0  0
   -2.3250    1.5550    0.2520 O   0  0  0  0  0  0  0  0  0  0  0  0
  2  1  1  1
  2  3  1  0
  2 14  1  0
  3  4  1  0
  4  5  1  6
  4 12  1  0
  5  6  1  0
  6  7  1  0
  7  8  1  0
  8  9  1  1
  8 10  2  0
  8 11  2  0
 12 13  1  0
 13 14  1  0
M  END
