
     RDKit          3D

 14 14  0  0  0  0  0  0  0  0999 V2000
   -4.3350    2.2220    0.4210 C   0  0  0  0  0  0  0  0  0  0  0  0
   -3.8520    0.7960    0.4960 C   0  0  0  0  0  0  0  0  0  0  0  0
   -2.1700    0.7290   -0.1060 S   0  0  0  0  0  0  0  0  0  0  0  0
   -1.4760   -0.9020   -0.0710 C   0  0  0  0  0  0  0  0  0  0  0  0
   -0.1830   -1.0860   -0.1940 C   0  0  0  0  0  0  0  0  0  0  0  0
    0.8800   -0.1010   -0.3690 C   0  0  0  0  0  0  0  0  0  0  0  0
    2.0330   -0.6830   -0.0410 C   0  0  0  0  0  0  0  0  0  0  0  0
    3.3400    0.0030   -0.0920 C   0  0  0  0  0  0  0  0  0  0  0  0
    4.3990   -0.5740    0.2220 O   0  0  0  0  0  0  0  0  0  0  0  0
    3.4190    1.3200   -0.4950 O   0  0  0  0  0  0  0  0  0  0  0  0
    4.6590    2.0220   -0.5590 C   0  0  0  0  0  0  0  0  0  0  0  0
    1.7930   -1.9900    0.3390 O   0  0  0  0  0  0  0  0  0  0  0  0
    0.5490   -2.3800   -0.1850 C   0  0  1  0  0  0  0  0  0  0  0  0
   -0.1070   -3.3790    0.6150 N   0  0  0  0  0  0  0  0  0  0  0  0
  1  2  1  0
  2  3  1  0
  3  4  1  0
  4  5  2  3
  5  6  1  0
  5 13  1  0
  6  7  2  0
  7  8  1  0
  7 12  1  0
  8  9  2  0
  8 10  1  0
 10 11  1  0
 12 13  1  0
 13 14  1  1
M  END
