
     RDKit          3D

 11 11  0  0  0  0  0  0  0  0999 V2000
   -2.7330   -1.1820   -1.2450 C   0  0  0  0  0  0  0  0  0  0  0  0
   -1.8530   -0.3290   -0.3750 C   0  0  0  0  0  0  0  0  0  0  0  0
   -0.5440   -0.3840   -0.5540 C   0  0  0  0  0  0  0  0  0  0  0  0
    0.2950    0.4390    0.2860 C   0  0  0  0  0  0  0  0  0  0  0  0
    1.5030    0.0440    0.6300 C   0  0  0  0  0  0  0  0  0  0  0  0
    2.1250   -1.2320    0.2200 C   0  0  0  0  0  0  0  0  0  0  0  0
    3.3880   -0.9690   -0.5650 C   0  0  0  0  0  0  0  0  0  0  0  0
    3.1160   -0.2240   -1.7150 O   0  0  0  0  0  0  0  0  0  0  0  0
   -0.2300    1.7300    0.7490 C   0  0  0  0  0  0  0  0  0  0  0  0
   -1.6870    1.7420    1.0300 C   0  0  0  0  0  0  0  0  0  0  0  0
   -2.4450    0.5320    0.6400 C   0  0  0  0  0  0  0  0  0  0  0  0
  1  2  1  0
  2  3  2  0
  2 11  1  0
  3  4  1  0
  4  5  2  3
  4  9  1  0
  5  6  1  0
  6  7  1  0
  7  8  1  0
  9 10  1  0
 10 11  1  0
M  END
