
     RDKit          3D

 12 12  0  0  0  0  0  0  0  0999 V2000
   -2.3480   -0.1830    1.4740 C   0  0  0  0  0  0  0  0  0  0  0  0
   -1.4840   -0.2740    0.2090 C   0  0  1  0  0  0  0  0  0  0  0  0
   -1.7760   -1.6530   -0.3800 C   0  0  0  0  0  0  0  0  0  0  0  0
   -1.9350    0.7810   -0.7210 C   0  0  0  0  0  0  0  0  0  0  0  0
   -0.8960    1.3680   -1.6020 C   0  0  0  0  0  0  0  0  0  0  0  0
    0.4230    1.6070   -0.9050 C   0  0  0  0  0  0  0  0  0  0  0  0
    0.8970    0.2330   -0.4130 C   0  0  1  0  0  0  0  0  0  0  0  0
    0.9020   -0.6070   -1.4990 O   0  0  0  0  0  0  0  0  0  0  0  0
    2.2580    0.4470    0.1880 C   0  0  0  0  0  0  0  0  0  0  0  0
    2.8640   -0.8250    0.7220 C   0  0  0  0  0  0  0  0  0  0  0  0
    4.1220   -0.4790    1.2500 O   0  0  0  0  0  0  0  0  0  0  0  0
   -0.0650   -0.2110    0.6360 C   0  0  0  0  0  0  0  0  0  0  0  0
  2  1  1  1
  2  3  1  0
  2  4  1  0
  2 12  1  0
  4  5  1  0
  5  6  1  0
  6  7  1  0
  7  8  1  6
  7  9  1  0
  7 12  1  0
  9 10  1  0
 10 11  1  0
M  END
