
     RDKit          3D

 12 12  0  0  0  0  0  0  0  0999 V2000
    3.5970    0.7880    0.5330 C   0  0  0  0  0  0  0  0  0  0  0  0
    2.9350   -0.0540    1.5450 C   0  0  0  0  0  0  0  0  0  0  0  0
    1.6240   -0.2110    1.5240 C   0  0  0  0  0  0  0  0  0  0  0  0
    0.8300    0.4690    0.4700 C   0  0  0  0  0  0  0  0  0  0  0  0
    0.0860   -0.5400   -0.3630 C   0  0  2  0  0  0  0  0  0  0  0  0
    1.0250   -1.3940   -0.9590 O   0  0  0  0  0  0  0  0  0  0  0  0
   -0.6350    0.1570   -1.4930 C   0  0  0  0  0  0  0  0  0  0  0  0
   -1.6560    1.1050   -0.9140 C   0  0  0  0  0  0  0  0  0  0  0  0
   -2.6080    0.3680   -0.0300 C   0  0  2  0  0  0  0  0  0  0  0  0
   -2.6410    0.9500    1.2380 O   0  0  0  0  0  0  0  0  0  0  0  0
   -2.3020   -1.1110    0.0550 C   0  0  0  0  0  0  0  0  0  0  0  0
   -0.8670   -1.3170    0.4890 C   0  0  0  0  0  0  0  0  0  0  0  0
  1  2  1  0
  2  3  2  3
  3  4  1  0
  4  5  1  0
  5  6  1  6
  5  7  1  0
  5 12  1  0
  7  8  1  0
  8  9  1  0
  9 10  1  1
  9 11  1  0
 11 12  1  0
M  END
