
     RDKit          3D

 12 12  0  0  0  0  0  0  0  0999 V2000
    4.4580   -0.2740    0.2630 C   0  0  0  0  0  0  0  0  0  0  0  0
    2.9970   -0.2250    0.1750 C   0  0  0  0  0  0  0  0  0  0  0  0
    1.7750   -0.1640    0.1020 C   0  0  0  0  0  0  0  0  0  0  0  0
    0.3450   -0.1000    0.0390 C   0  0  0  0  0  0  0  0  0  0  0  0
   -0.2760    1.0450   -0.4150 C   0  0  0  0  0  0  0  0  0  0  0  0
   -1.6460    1.1240   -0.4810 C   0  0  0  0  0  0  0  0  0  0  0  0
   -2.3360    2.3680   -0.9750 C   0  0  0  0  0  0  0  0  0  0  0  0
   -2.3740    0.0280   -0.0820 C   0  0  0  0  0  0  0  0  0  0  0  0
   -1.7980   -1.1540    0.3850 C   0  0  0  0  0  0  0  0  0  0  0  0
   -2.5830   -2.2220    0.7720 O   0  0  0  0  0  0  0  0  0  0  0  0
   -0.4170   -1.1890    0.4350 C   0  0  0  0  0  0  0  0  0  0  0  0
    0.2880   -2.2920    0.8750 O   0  0  0  0  0  0  0  0  0  0  0  0
  1  2  1  0
  2  3  3  0
  3  4  1  0
  4  5  2  0
  4 11  1  0
  5  6  1  0
  6  7  1  0
  6  8  2  0
  8  9  1  0
  9 10  1  0
  9 11  2  0
 11 12  1  0
M  END
