
     RDKit          3D

 12 12  0  0  0  0  0  0  0  0999 V2000
   -2.2130    1.4230   -0.7580 C   0  0  0  0  0  0  0  0  0  0  0  0
   -1.9810    0.0180   -0.3100 C   0  0  2  0  0  0  0  0  0  0  0  0
   -3.3010   -0.7360   -0.4300 C   0  0  0  0  0  0  0  0  0  0  0  0
   -1.5050    0.0460    1.1170 C   0  0  0  0  0  0  0  0  0  0  0  0
   -0.0310   -0.1940    1.0640 C   0  0  0  0  0  0  0  0  0  0  0  0
    0.3790   -0.1760   -0.3690 C   0  0  1  0  0  0  0  0  0  0  0  0
    0.6440    1.0450   -0.9150 O   0  0  0  0  0  0  0  0  0  0  0  0
    1.5110   -1.1230   -0.5710 C   0  0  0  0  0  0  0  0  0  0  0  0
    2.6880   -0.7740    0.2780 C   0  0  0  0  0  0  0  0  0  0  0  0
    3.2910    0.5720    0.0490 C   0  0  0  0  0  0  0  0  0  0  0  0
    4.4090    0.7670    0.8890 O   0  0  0  0  0  0  0  0  0  0  0  0
   -0.8930   -0.6870   -1.0450 C   0  0  0  0  0  0  0  0  0  0  0  0
  2  1  1  6
  2  3  1  0
  2  4  1  0
  2 12  1  0
  4  5  1  0
  5  6  1  0
  6  7  1  6
  6  8  1  0
  6 12  1  0
  8  9  1  0
  9 10  1  0
 10 11  1  0
M  END
