
     RDKit          3D

 12 12  0  0  0  0  0  0  0  0999 V2000
    0.7590   -2.0570   -0.4050 C   0  0  0  0  0  0  0  0  0  0  0  0
    0.8070   -0.6090    0.2310 C   0  0  1  0  0  0  0  0  0  0  0  0
    0.9720   -0.9380    1.7190 C   0  0  0  0  0  0  0  0  0  0  0  0
    1.9920   -0.0020   -0.3670 C   0  0  0  0  0  0  0  0  0  0  0  0
    2.4430    1.3530   -0.0230 C   0  0  0  0  0  0  0  0  0  0  0  0
    1.6360    2.4180   -0.2710 O   0  0  0  0  0  0  0  0  0  0  0  0
   -0.5420   -0.1320    0.0200 C   0  0  2  0  0  0  0  0  0  0  0  0
   -1.3900   -1.0730    0.7170 O   0  0  0  0  0  0  0  0  0  0  0  0
   -1.1040   -0.1450   -1.3830 C   0  0  0  0  0  0  0  0  0  0  0  0
   -2.5620    0.2480   -1.0770 C   0  0  0  0  0  0  0  0  0  0  0  0
   -2.5380    0.9030    0.3020 C   0  0  0  0  0  0  0  0  0  0  0  0
   -1.0120    1.1910    0.4890 C   0  0  0  0  0  0  0  0  0  0  0  0
  2  1  1  6
  2  3  1  0
  2  4  1  0
  2  7  1  0
  4  5  1  0
  5  6  1  0
  7  8  1  1
  7  9  1  0
  7 12  1  0
  9 10  1  0
 10 11  1  0
 11 12  1  0
M  END
