
     RDKit          3D

 12 12  0  0  0  0  0  0  0  0999 V2000
    3.2500   -0.5670    0.8690 O   0  0  0  0  0  0  0  0  0  0  0  0
    3.3880    0.3400   -0.1590 C   0  0  0  0  0  0  0  0  0  0  0  0
    2.1890    1.0790   -0.5930 C   0  0  0  0  0  0  0  0  0  0  0  0
    1.0310    0.3490   -1.1600 C   0  0  0  0  0  0  0  0  0  0  0  0
    0.3670   -0.6440   -0.3020 C   0  0  2  0  0  0  0  0  0  0  0  0
    1.2110   -1.6620    0.0720 O   0  0  0  0  0  0  0  0  0  0  0  0
   -0.8180   -1.3170   -1.1170 C   0  0  0  0  0  0  0  0  0  0  0  0
   -1.9680   -0.7470   -0.5680 C   0  0  0  0  0  0  0  0  0  0  0  0
   -3.1640   -0.2130   -0.0670 C   0  0  0  0  0  0  0  0  0  0  0  0
   -2.7010    0.6970    1.1340 C   0  0  0  0  0  0  0  0  0  0  0  0
   -1.1950    0.9780    1.0360 C   0  0  0  0  0  0  0  0  0  0  0  0
   -0.1910   -0.0360    0.9830 C   0  0  0  0  0  0  0  0  0  0  0  0
  1  2  1  0
  2  3  1  0
  3  4  1  0
  4  5  1  0
  5  6  1  1
  5  7  1  0
  5 12  1  0
  7  8  1  0
  8  9  1  0
  9 10  1  0
 10 11  1  0
 11 12  1  0
M  END
