
     RDKit          3D

 12 12  0  0  0  0  0  0  0  0999 V2000
   -1.2260    1.7250   -0.1490 C   0  0  0  0  0  0  0  0  0  0  0  0
   -1.5170    0.3210    0.3630 C   0  0  2  0  0  0  0  0  0  0  0  0
   -2.5700   -0.2610   -0.5230 C   0  0  0  0  0  0  0  0  0  0  0  0
   -1.9470    0.4590    1.6850 O   0  0  0  0  0  0  0  0  0  0  0  0
   -0.2310   -0.5200    0.3670 C   0  0  2  0  0  0  0  0  0  0  0  0
   -0.6810   -1.8920    0.9020 C   0  0  0  0  0  0  0  0  0  0  0  0
    0.7460    0.0060    1.3340 C   0  0  0  0  0  0  0  0  0  0  0  0
    1.9210    0.7220    0.7990 C   0  0  0  0  0  0  0  0  0  0  0  0
    2.5140   -0.0860   -0.3630 C   0  0  2  0  0  0  0  0  0  0  0  0
    3.6690    0.5260   -0.8300 O   0  0  0  0  0  0  0  0  0  0  0  0
    1.4380    0.0150   -1.4450 C   0  0  0  0  0  0  0  0  0  0  0  0
    0.2040   -0.7050   -1.0270 C   0  0  0  0  0  0  0  0  0  0  0  0
  2  1  1  6
  2  3  1  0
  2  4  1  0
  2  5  1  0
  5  6  1  1
  5  7  1  0
  5 12  1  0
  7  8  1  0
  8  9  1  0
  9 10  1  6
  9 11  1  0
 11 12  1  0
M  END
