
     RDKit          3D

 36 37  0  0  0  0  0  0  0  0999 V2000
   -0.7200   -3.0140    0.1090 O   0  0  0  0  0  0  0  0  0  0  0  0
   -1.6610   -2.3000    0.6740 C   0  0  0  0  0  0  0  0  0  0  0  0
   -1.3060   -2.4430    2.1050 C   0  0  0  0  0  0  0  0  0  0  0  0
   -0.1340   -1.6670    2.3990 O   0  0  0  0  0  0  0  0  0  0  0  0
    0.5310   -0.7010    1.7320 C   0  0  0  0  0  0  0  0  0  0  0  0
    0.3570    0.5210    2.0850 O   0  0  0  0  0  0  0  0  0  0  0  0
    1.5020   -0.8160    0.5840 C   0  0  1  0  0  0  0  0  0  0  0  0
    2.6220   -0.0040    0.8850 O   0  0  0  0  0  0  0  0  0  0  0  0
    3.6820   -0.0840    0.0660 C   0  0  0  0  0  0  0  0  0  0  0  0
    4.7670    0.8460    0.6220 C   0  0  0  0  0  0  0  0  0  0  0  0
    5.8800    0.7790   -0.2150 O   0  0  0  0  0  0  0  0  0  0  0  0
    6.8200    1.5560    0.2260 O   0  0  0  0  0  0  0  0  0  0  0  0
    6.4310    2.8290    0.1990 O   0  0  0  0  0  0  0  0  0  0  0  0
    7.1200    3.4650    1.1180 O   0  0  0  0  0  0  0  0  0  0  0  0
    2.1040   -2.1230    0.6200 O   0  0  0  0  0  0  0  0  0  0  0  0
    2.8230   -2.5380    1.6980 C   0  0  0  0  0  0  0  0  0  0  0  0
    2.9650   -1.7710    2.6810 O   0  0  0  0  0  0  0  0  0  0  0  0
    3.3870   -3.8040    1.6940 O   0  0  0  0  0  0  0  0  0  0  0  0
    1.0160   -0.4350   -0.7640 C   0  0  0  0  0  0  0  0  0  0  0  0
   -0.2070    0.3990   -0.8660 C   0  0  2  0  0  0  0  0  0  0  0  0
   -1.0910    0.3200   -2.0340 C   0  0  0  0  0  0  0  0  0  0  0  0
   -1.7030   -0.8570   -2.5200 N   0  0  0  0  0  0  0  0  0  0  0  0
   -3.0040   -1.4040   -2.4120 C   0  0  0  0  0  0  0  0  0  0  0  0
   -3.8330   -1.5460   -3.3430 O   0  0  0  0  0  0  0  0  0  0  0  0
   -3.5990   -1.9200   -1.0820 C   0  0  1  0  0  0  0  0  0  0  0  0
   -2.6230   -1.6640   -0.0550 N   0  0  0  0  0  0  0  0  0  0  0  0
   -4.8640   -1.1320   -0.8180 C   0  0  0  0  0  0  0  0  0  0  0  0
   -5.9650   -1.6720   -1.2080 O   0  0  0  0  0  0  0  0  0  0  0  0
   -4.9180    0.0780   -0.2090 O   0  0  0  0  0  0  0  0  0  0  0  0
   -4.6400    1.3730   -0.6200 C   0  0  0  0  0  0  0  0  0  0  0  0
   -3.8530    2.1580    0.4410 C   0  0  0  0  0  0  0  0  0  0  0  0
   -2.9570    2.9970   -0.2100 O   0  0  0  0  0  0  0  0  0  0  0  0
   -1.6940    2.7730    0.3080 C   0  0  0  0  0  0  0  0  0  0  0  0
   -0.7110    2.8060   -0.6870 O   0  0  0  0  0  0  0  0  0  0  0  0
    0.2560    1.8510   -0.8110 C   0  0  0  0  0  0  0  0  0  0  0  0
    1.4610    2.0860   -0.8820 O   0  0  0  0  0  0  0  0  0  0  0  0
  1  2  2  0
  2  3  1  0
  2 26  1  0
  3  4  1  0
  4  5  1  0
  5  6  2  0
  5  7  1  0
  7  8  1  1
  7 15  1  0
  7 19  1  0
  8  9  1  0
  9 10  1  0
 10 11  1  0
 11 12  1  0
 12 13  1  0
 13 14  1  0
 15 16  1  0
 16 17  2  0
 16 18  1  0
 20 19  1  6
 20 21  1  0
 20 35  1  0
 21 22  1  0
 22 23  1  0
 23 24  2  0
 23 25  1  0
 25 26  1  1
 25 27  1  0
 27 28  2  0
 27 29  1  0
 29 30  1  0
 30 31  1  0
 31 32  1  0
 32 33  1  0
 33 34  1  0
 34 35  1  0
 35 36  2  0
M  END
