
     RDKit          3D

 38 40  0  0  0  0  0  0  0  0999 V2000
   -2.8390    2.8280    2.3490 C   0  0  0  0  0  0  0  0  0  0  0  0
   -2.3310    3.2480    1.0340 C   0  0  0  0  0  0  0  0  0  0  0  0
   -2.3190    4.4630    0.7700 O   0  0  0  0  0  0  0  0  0  0  0  0
   -1.8660    2.2940    0.0910 N   0  0  0  0  0  0  0  0  0  0  0  0
   -1.3590    2.6000   -1.1080 O   0  0  0  0  0  0  0  0  0  0  0  0
   -0.2280    2.4740   -1.7680 N   0  0  0  0  0  0  0  0  0  0  0  0
    1.0050    2.4930   -1.4560 C   0  0  0  0  0  0  0  0  0  0  0  0
    2.0630    2.3140   -2.4900 C   0  0  0  0  0  0  0  0  0  0  0  0
    1.7140    2.1350   -3.6970 O   0  0  0  0  0  0  0  0  0  0  0  0
    1.4140    2.6720   -0.1090 N   0  0  0  0  0  0  0  0  0  0  0  0
    0.7700    2.2570    1.0330 N   0  0  0  0  0  0  0  0  0  0  0  0
    0.8340    3.1360    2.0920 N   0  0  0  0  0  0  0  0  0  0  0  0
    1.0500    0.9280    1.4750 C   0  0  0  0  0  0  0  0  0  0  0  0
    1.6620    0.0970    0.3720 C   0  0  0  0  0  0  0  0  0  0  0  0
    2.9200   -0.1340    0.4440 N   0  0  0  0  0  0  0  0  0  0  0  0
    3.7440   -0.8800   -0.4560 C   0  0  2  0  0  0  0  0  0  0  0  0
    4.8500    0.0460   -1.0160 C   0  0  0  0  0  0  0  0  0  0  0  0
    2.9920   -1.4310   -1.5760 C   0  0  0  0  0  0  0  0  0  0  0  0
    3.7250   -2.2520   -2.5870 C   0  0  0  0  0  0  0  0  0  0  0  0
    4.9750   -2.5170   -2.5370 C   0  0  0  0  0  0  0  0  0  0  0  0
    5.5200   -3.2890   -3.5460 O   0  0  0  0  0  0  0  0  0  0  0  0
    4.0840   -4.0380   -4.2910 P   0  0  0  0  0  0  0  0  0  0  0  0
    3.0130   -2.7740   -3.6700 O   0  0  0  0  0  0  0  0  0  0  0  0
    1.7250   -1.2070   -1.6640 C   0  0  0  0  0  0  0  0  0  0  0  0
    1.0580   -1.7680   -2.7770 O   0  0  0  0  0  0  0  0  0  0  0  0
    0.9220   -0.4360   -0.7260 N   0  0  0  0  0  0  0  0  0  0  0  0
   -0.4000   -0.2770   -0.9130 O   0  0  0  0  0  0  0  0  0  0  0  0
   -1.5340   -0.1600   -0.1840 C   0  0  0  0  0  0  0  0  0  0  0  0
   -2.3700   -1.1780   -0.0130 N   0  0  0  0  0  0  0  0  0  0  0  0
   -3.5710   -1.2130    0.7060 C   0  0  2  0  0  0  0  0  0  0  0  0
   -4.5600   -0.1110    0.4160 C   0  0  0  0  0  0  0  0  0  0  0  0
   -4.9220   -0.1480   -0.9440 O   0  0  0  0  0  0  0  0  0  0  0  0
   -3.3960   -1.2930    2.2110 C   0  0  0  0  0  0  0  0  0  0  0  0
   -2.4990   -2.7640    2.6700 Cl  0  0  0  0  0  0  0  0  0  0  0  0
   -4.4580   -2.8040    0.2330 P   0  0  0  0  0  0  0  0  0  0  0  0
   -3.2870   -3.9580   -0.3260 O   0  0  0  0  0  0  0  0  0  0  0  0
   -5.3020   -3.4610    1.6020 O   0  0  0  0  0  0  0  0  0  0  0  0
   -1.9900    0.9760    0.4690 O   0  0  0  0  0  0  0  0  0  0  0  0
  1  2  1  0
  2  3  2  0
  2  4  1  0
  4  5  1  0
  4 38  1  0
  5  6  1  0
  6  7  2  0
  7  8  1  0
  7 10  1  0
  8  9  2  0
 10 11  1  0
 11 12  1  0
 11 13  1  0
 13 14  1  0
 14 15  2  0
 14 26  1  0
 15 16  1  0
 16 17  1  6
 16 18  1  0
 18 19  1  0
 18 24  2  0
 19 20  2  0
 19 23  1  0
 20 21  1  0
 21 22  1  0
 22 23  1  0
 24 25  1  0
 24 26  1  0
 26 27  1  0
 27 28  1  0
 28 29  2  3
 28 38  1  0
 29 30  1  0
 30 31  1  1
 30 33  1  0
 30 35  1  0
 31 32  1  0
 33 34  1  0
 35 36  1  0
 35 37  1  0
M  END
