
     RDKit          3D

 12 11  0  0  0  0  0  0  0  0999 V2000
   -1.2390   -1.6650    1.8870 C   0  0  0  0  0  0  0  0  0  0  0  0
   -1.7580   -0.6220    1.2080 C   0  0  0  0  0  0  0  0  0  0  0  0
   -3.0170   -0.1900    1.5850 O   0  0  0  0  0  0  0  0  0  0  0  0
   -1.0220    0.0110    0.1340 C   0  0  0  0  0  0  0  0  0  0  0  0
    0.2400   -0.5010   -0.1690 O   0  0  0  0  0  0  0  0  0  0  0  0
    1.0990    0.0400   -1.1100 C   0  0  0  0  0  0  0  0  0  0  0  0
    2.4030   -0.7240   -1.2260 C   0  0  0  0  0  0  0  0  0  0  0  0
    3.1550   -0.7400    0.0840 C   0  0  0  0  0  0  0  0  0  0  0  0
    3.4700    0.5460    0.5200 O   0  0  0  0  0  0  0  0  0  0  0  0
   -1.5480    1.0280   -0.5160 C   0  0  0  0  0  0  0  0  0  0  0  0
   -2.8870    1.5600   -0.1830 C   0  0  0  0  0  0  0  0  0  0  0  0
   -0.8280    1.6480   -1.5670 O   0  0  0  0  0  0  0  0  0  0  0  0
  1  2  2  0
  2  3  1  0
  2  4  1  0
  4  5  1  0
  4 10  2  3
  5  6  1  0
  6  7  1  0
  7  8  1  0
  8  9  1  0
 10 11  1  0
 10 12  1  0
M  END
