
     RDKit          3D

 26 28  0  0  0  0  0  0  0  0999 V2000
   -5.7850    0.3830    1.9370 C   0  0  0  0  0  0  0  0  0  0  0  0
   -5.6160   -0.5510    0.7910 C   0  0  1  0  0  0  0  0  0  0  0  0
   -6.1170   -1.8210    1.1210 O   0  0  0  0  0  0  0  0  0  0  0  0
   -6.4050   -0.0830   -0.4440 C   0  0  0  0  0  0  0  0  0  0  0  0
   -5.3910    0.1530   -1.4910 N   0  0  0  0  0  0  0  0  0  0  0  0
   -4.2740    0.5260   -0.7190 C   0  0  2  0  0  0  0  0  0  0  0  0
   -2.9150    0.3680   -1.2550 C   0  0  0  0  0  0  0  0  0  0  0  0
   -2.1470    0.0230   -0.0440 N   0  0  0  0  0  0  0  0  0  0  0  0
   -0.7320   -0.0080    0.0530 C   0  0  0  0  0  0  0  0  0  0  0  0
   -0.2300   -0.3180    1.1610 O   0  0  0  0  0  0  0  0  0  0  0  0
    0.0750    0.3150   -1.1140 C   0  0  0  0  0  0  0  0  0  0  0  0
   -0.4500    0.6190   -2.2150 O   0  0  0  0  0  0  0  0  0  0  0  0
    1.4660    0.3070   -1.0860 O   0  0  0  0  0  0  0  0  0  0  0  0
    2.2090    0.6340   -2.2700 C   0  0  0  0  0  0  0  0  0  0  0  0
    3.6710    0.5600   -2.0000 C   0  0  0  0  0  0  0  0  0  0  0  0
    4.4410    0.8210   -2.9440 O   0  0  0  0  0  0  0  0  0  0  0  0
    4.1990    0.2110   -0.7400 N   0  0  0  0  0  0  0  0  0  0  0  0
    5.5590    0.1120   -0.3780 C   0  0  0  0  0  0  0  0  0  0  0  0
    6.6410    0.3370   -1.1900 C   0  0  0  0  0  0  0  0  0  0  0  0
    7.9560    0.2070   -0.7200 C   0  0  0  0  0  0  0  0  0  0  0  0
    8.2200   -0.1530    0.5800 C   0  0  0  0  0  0  0  0  0  0  0  0
    7.1380   -0.3800    1.4000 C   0  0  0  0  0  0  0  0  0  0  0  0
    5.8420   -0.2510    0.9310 C   0  0  0  0  0  0  0  0  0  0  0  0
    4.7700   -0.4980    1.8250 N   0  0  0  0  0  0  0  0  0  0  0  0
   -3.0960   -0.2890    1.0470 C   0  0  0  0  0  0  0  0  0  0  0  0
   -4.2690   -0.6770    0.2590 C   0  0  1  0  0  0  0  0  0  0  0  0
  2  1  1  1
  2  3  1  0
  2  4  1  0
  2 26  1  0
  4  5  1  0
  5  6  1  0
  6  7  1  6
  6 26  1  0
  7  8  1  0
  8  9  1  0
  8 25  1  0
  9 10  2  0
  9 11  1  0
 11 12  2  0
 11 13  1  0
 13 14  1  0
 14 15  1  0
 15 16  2  0
 15 17  1  0
 17 18  1  0
 18 19  2  0
 18 23  1  0
 19 20  1  0
 20 21  2  0
 21 22  1  0
 22 23  2  0
 23 24  1  0
 26 25  1  1
M  END
