
     RDKit          3D

 12 12  0  0  0  0  0  0  0  0999 V2000
   -3.1120   -1.3740   -0.2030 C   0  0  0  0  0  0  0  0  0  0  0  0
   -2.3870   -0.1100   -0.0100 C   0  0  0  0  0  0  0  0  0  0  0  0
   -2.8900    1.0880   -0.0930 O   0  0  0  0  0  0  0  0  0  0  0  0
   -1.9990    2.0000    0.1290 C   0  0  0  0  0  0  0  0  0  0  0  0
   -0.7930    1.3400    0.3840 C   0  0  0  0  0  0  0  0  0  0  0  0
    0.3940    1.9970    0.6730 O   0  0  0  0  0  0  0  0  0  0  0  0
   -1.0130   -0.0140    0.3000 C   0  0  0  0  0  0  0  0  0  0  0  0
   -0.1140   -1.1500    0.5330 C   0  0  0  0  0  0  0  0  0  0  0  0
    1.1980   -0.8270    0.7200 O   0  0  0  0  0  0  0  0  0  0  0  0
    1.8310   -0.3760   -0.4190 C   0  0  0  0  0  0  0  0  0  0  0  0
    3.2770   -0.0150   -0.1050 C   0  0  0  0  0  0  0  0  0  0  0  0
    3.2960    0.9720    0.8500 O   0  0  0  0  0  0  0  0  0  0  0  0
  1  2  1  0
  2  3  1  0
  2  7  2  0
  3  4  1  0
  4  5  2  0
  5  6  1  0
  5  7  1  0
  7  8  1  0
  8  9  1  0
  9 10  1  0
 10 11  1  0
 11 12  1  0
M  END
