
     RDKit          3D

 26 28  0  0  0  0  0  0  0  0999 V2000
    1.6150   -3.7520    1.2620 C   0  0  0  0  0  0  0  0  0  0  0  0
    1.2720   -3.2710    0.0800 C   0  0  0  0  0  0  0  0  0  0  0  0
   -0.0660   -2.6660   -0.1170 C   0  0  0  0  0  0  0  0  0  0  0  0
    0.1600   -1.2330   -0.5420 C   0  0  0  0  0  0  0  0  0  0  0  0
   -0.2730   -0.2100    0.1930 C   0  0  0  0  0  0  0  0  0  0  0  0
   -0.9770   -0.4840    1.4010 N   0  0  0  0  0  0  0  0  0  0  0  0
   -1.5280    0.4070    2.3300 C   0  0  0  0  0  0  0  0  0  0  0  0
   -1.4600    1.6260    2.1870 O   0  0  0  0  0  0  0  0  0  0  0  0
   -2.2430   -0.1220    3.5680 C   0  0  2  0  0  0  0  0  0  0  0  0
   -3.3720   -0.9830    3.0710 C   0  0  0  0  0  0  0  0  0  0  0  0
   -4.4340   -0.8770    3.9650 O   0  0  0  0  0  0  0  0  0  0  0  0
   -5.0430    0.3450    3.7970 C   0  0  0  0  0  0  0  0  0  0  0  0
   -4.0820    1.3870    4.2850 C   0  0  0  0  0  0  0  0  0  0  0  0
   -4.4160    2.5300    4.6280 O   0  0  0  0  0  0  0  0  0  0  0  0
   -2.7100    1.0020    4.3460 N   0  0  0  0  0  0  0  0  0  0  0  0
    0.0820    1.1390   -0.1980 C   0  0  0  0  0  0  0  0  0  0  0  0
   -0.2940    2.1680    0.4270 O   0  0  0  0  0  0  0  0  0  0  0  0
    0.9020    1.3930   -1.3490 N   0  0  0  0  0  0  0  0  0  0  0  0
    1.3710    0.3080   -2.0940 C   0  0  0  0  0  0  0  0  0  0  0  0
    2.3240    0.4410   -2.9850 C   0  0  0  0  0  0  0  0  0  0  0  0
    3.0690    1.5680   -3.4100 C   0  0  0  0  0  0  0  0  0  0  0  0
    4.0540    1.4820   -4.3650 C   0  0  0  0  0  0  0  0  0  0  0  0
    4.6330    2.8310   -4.5710 C   0  0  0  0  0  0  0  0  0  0  0  0
    4.3490    3.4260   -3.3250 O   0  0  0  0  0  0  0  0  0  0  0  0
    3.0790    2.9530   -3.1170 N   0  0  0  0  0  0  0  0  0  0  0  0
    0.7760   -1.0240   -1.8470 C   0  0  0  0  0  0  0  0  0  0  0  0
  1  2  2  0
  2  3  1  0
  3  4  1  0
  4  5  2  0
  4 26  1  0
  5  6  1  0
  5 16  1  0
  6  7  1  0
  7  8  2  0
  9  7  1  6
  9 10  1  0
  9 15  1  0
 10 11  1  0
 11 12  1  0
 12 13  1  0
 13 14  2  0
 13 15  1  0
 16 17  2  0
 16 18  1  0
 18 19  1  0
 19 20  2  3
 19 26  1  0
 20 21  1  0
 21 22  2  0
 21 25  1  0
 22 23  1  0
 23 24  1  0
 24 25  1  0
M  END
