
     RDKit          3D

 27 30  0  0  0  0  0  0  0  0999 V2000
    1.9490    1.9220    2.8600 C   0  0  0  0  0  0  0  0  0  0  0  0
    2.8780    1.5730    1.7670 C   0  0  0  0  0  0  0  0  0  0  0  0
    4.1340    2.0300    1.6300 N   0  0  0  0  0  0  0  0  0  0  0  0
    4.6390    1.4950    0.5350 N   0  0  0  0  0  0  0  0  0  0  0  0
    3.6880    0.6980   -0.0140 C   0  0  0  0  0  0  0  0  0  0  0  0
    3.7060   -0.0820   -1.1530 C   0  0  0  0  0  0  0  0  0  0  0  0
    4.8680   -0.1060   -1.9270 C   0  0  0  0  0  0  0  0  0  0  0  0
    4.8840   -0.8730   -3.0470 C   0  0  0  0  0  0  0  0  0  0  0  0
    3.7840   -1.6010   -3.4010 C   0  0  0  0  0  0  0  0  0  0  0  0
    2.6230   -1.5760   -2.6280 C   0  0  0  0  0  0  0  0  0  0  0  0
    2.5920   -0.7990   -1.4840 C   0  0  0  0  0  0  0  0  0  0  0  0
    1.4580   -0.7360   -0.6730 C   0  0  0  0  0  0  0  0  0  0  0  0
    0.2810   -1.4730   -0.9840 N   0  0  0  0  0  0  0  0  0  0  0  0
   -0.8540   -1.3560   -0.1030 C   0  0  1  0  0  0  0  0  0  0  0  0
   -0.4190   -1.7750    1.2830 C   0  0  0  0  0  0  0  0  0  0  0  0
   -1.4740   -0.0100   -0.0120 C   0  0  2  0  0  0  0  0  0  0  0  0
   -2.6170   -0.1260    0.9450 C   0  0  0  0  0  0  0  0  0  0  0  0
   -2.5090    0.2990    2.2490 C   0  0  0  0  0  0  0  0  0  0  0  0
   -3.5450    0.2020    3.1560 C   0  0  0  0  0  0  0  0  0  0  0  0
   -4.7500   -0.3440    2.7470 C   0  0  0  0  0  0  0  0  0  0  0  0
   -4.8740   -0.7760    1.4380 C   0  0  0  0  0  0  0  0  0  0  0  0
   -3.8230   -0.6680    0.5520 C   0  0  0  0  0  0  0  0  0  0  0  0
   -1.8910    0.5380   -1.2780 N   0  0  1  0  0  0  0  0  0  0  0  0
   -3.0280    1.4130   -1.1730 C   0  0  0  0  0  0  0  0  0  0  0  0
   -0.7980    1.2890   -1.8680 C   0  0  0  0  0  0  0  0  0  0  0  0
    1.5210    0.0450    0.4180 N   0  0  0  0  0  0  0  0  0  0  0  0
    2.5930    0.7280    0.7250 N   0  0  0  0  0  0  0  0  0  0  0  0
  1  2  1  0
  2  3  2  0
  2 27  1  0
  3  4  1  0
  4  5  2  0
  5  6  1  0
  5 27  1  0
  6  7  2  0
  6 11  1  0
  7  8  1  0
  8  9  2  0
  9 10  1  0
 10 11  2  0
 11 12  1  0
 12 13  1  0
 12 26  2  0
 13 14  1  0
 14 15  1  1
 14 16  1  0
 16 17  1  1
 16 23  1  0
 17 18  2  0
 17 22  1  0
 18 19  1  0
 19 20  2  0
 20 21  1  0
 21 22  2  0
 23 24  1  1
 23 25  1  0
 26 27  1  0
M  CHG  1  23   1
M  END
