
     RDKit          3D

 12 11  0  0  0  0  0  0  0  0999 V2000
   -1.2860    2.4180   -0.3800 C   0  0  0  0  0  0  0  0  0  0  0  0
   -1.6300    1.1590   -0.5840 C   0  0  0  0  0  0  0  0  0  0  0  0
   -3.0030    1.0110   -0.8870 O   0  0  0  0  0  0  0  0  0  0  0  0
   -0.7050    0.0450   -0.5060 C   0  0  0  0  0  0  0  0  0  0  0  0
   -1.1230   -1.1870   -0.7250 C   0  0  0  0  0  0  0  0  0  0  0  0
   -2.4380   -1.6880   -1.0570 C   0  0  0  0  0  0  0  0  0  0  0  0
   -2.9370   -2.5960   -0.1030 O   0  0  0  0  0  0  0  0  0  0  0  0
    0.5930    0.2060   -0.2140 O   0  0  0  0  0  0  0  0  0  0  0  0
    1.5290    1.1040    0.0970 C   0  0  0  0  0  0  0  0  0  0  0  0
    2.8550    0.3040    0.2730 C   0  0  0  0  0  0  0  0  0  0  0  0
    2.5700   -0.6720    1.3930 C   0  0  0  0  0  0  0  0  0  0  0  0
    2.2380    0.0550    2.5340 O   0  0  0  0  0  0  0  0  0  0  0  0
  1  2  2  0
  2  3  1  0
  2  4  1  0
  4  5  2  3
  4  8  1  0
  5  6  1  0
  6  7  1  0
  8  9  1  0
  9 10  1  0
 10 11  1  0
 11 12  1  0
M  END
