
     RDKit          3D

 26 28  0  0  0  0  0  0  0  0999 V2000
   -3.7500    3.4060    0.3780 C   0  0  0  0  0  0  0  0  0  0  0  0
   -4.2760    2.0410    0.0380 C   0  0  0  0  0  0  0  0  0  0  0  0
   -5.5290    1.6750   -0.1670 N   0  0  0  0  0  0  0  0  0  0  0  0
   -5.6220    0.3770   -0.4480 C   0  0  0  0  0  0  0  0  0  0  0  0
   -4.3100   -0.1850   -0.4290 C   0  0  0  0  0  0  0  0  0  0  0  0
   -4.1600   -1.6110   -0.6010 C   0  0  0  0  0  0  0  0  0  0  0  0
   -3.3040   -2.2870   -0.0360 O   0  0  0  0  0  0  0  0  0  0  0  0
   -5.0270   -2.3210   -1.4660 O   0  0  0  0  0  0  0  0  0  0  0  0
   -3.4970    0.8570   -0.1310 C   0  0  0  0  0  0  0  0  0  0  0  0
   -2.0630    0.9520    0.0320 C   0  0  0  0  0  0  0  0  0  0  0  0
   -1.1900   -0.1170   -0.2170 N   0  0  0  0  0  0  0  0  0  0  0  0
    0.2030    0.1120    0.1370 C   0  0  0  0  0  0  0  0  0  0  0  0
    0.4990    1.2160    0.6270 O   0  0  0  0  0  0  0  0  0  0  0  0
    1.1770   -0.8670   -0.0640 N   0  0  0  0  0  0  0  0  0  0  0  0
    0.9610   -2.1820   -0.6340 C   0  0  2  0  0  0  0  0  0  0  0  0
    0.3270   -3.1220    0.3160 C   0  0  0  0  0  0  0  0  0  0  0  0
   -0.0330   -2.7680    1.6450 N   0  0  0  0  0  0  0  0  0  0  0  0
    0.1020   -4.2890   -0.0870 O   0  0  0  0  0  0  0  0  0  0  0  0
    2.3100   -2.7170   -1.0050 C   0  0  0  0  0  0  0  0  0  0  0  0
    3.2900   -1.5920   -0.7770 C   0  0  0  0  0  0  0  0  0  0  0  0
    2.5750   -0.7540    0.2510 C   0  0  1  0  0  0  0  0  0  0  0  0
    3.1050    0.6130    0.4100 C   0  0  1  0  0  0  0  0  0  0  0  0
    4.6280    0.6320    0.5840 C   0  0  0  0  0  0  0  0  0  0  0  0
    4.8570    2.1440    0.5100 C   0  0  0  0  0  0  0  0  0  0  0  0
    3.6620    2.5770   -0.3130 C   0  0  0  0  0  0  0  0  0  0  0  0
    2.9790    1.4220   -0.6950 O   0  0  0  0  0  0  0  0  0  0  0  0
  1  2  1  0
  2  3  1  0
  2  9  2  0
  3  4  1  0
  4  5  2  0
  5  6  1  0
  5  9  1  0
  6  7  2  0
  6  8  1  0
  9 10  1  0
 10 11  1  0
 11 12  1  0
 12 13  2  0
 12 14  1  0
 14 15  1  0
 14 21  1  0
 15 16  1  1
 15 19  1  0
 16 17  1  0
 16 18  2  0
 19 20  1  0
 21 20  1  6
 21 22  1  0
 22 23  1  6
 22 26  1  0
 23 24  1  0
 24 25  1  0
 25 26  1  0
M  END
