
     RDKit          3D

 26 28  0  0  0  0  0  0  0  0999 V2000
   -2.6270   -2.9800   -2.4080 C   0  0  0  0  0  0  0  0  0  0  0  0
   -2.2620   -1.9730   -1.6380 C   0  0  0  0  0  0  0  0  0  0  0  0
   -1.2680   -1.0860   -1.8360 N   0  0  0  0  0  0  0  0  0  0  0  0
   -1.2030   -0.2090   -0.8350 C   0  0  0  0  0  0  0  0  0  0  0  0
   -0.2750    0.9040   -0.6660 C   0  0  0  0  0  0  0  0  0  0  0  0
   -0.3380    1.6500    0.3400 O   0  0  0  0  0  0  0  0  0  0  0  0
    0.7150    1.2000   -1.5900 O   0  0  0  0  0  0  0  0  0  0  0  0
    1.6270    2.2470   -1.4830 C   0  0  1  0  0  0  0  0  0  0  0  0
    3.0640    1.7970   -1.3700 C   0  0  0  0  0  0  0  0  0  0  0  0
    3.2720    0.9460   -0.1760 C   0  0  0  0  0  0  0  0  0  0  0  0
    4.0870    1.1850    0.8330 C   0  0  0  0  0  0  0  0  0  0  0  0
    3.9340    0.0550    1.7620 C   0  0  0  0  0  0  0  0  0  0  0  0
    4.5180   -0.1330    2.8530 O   0  0  0  0  0  0  0  0  0  0  0  0
    2.9470   -0.8210    1.1440 C   0  0  0  0  0  0  0  0  0  0  0  0
    2.4290   -2.1200    1.6830 C   0  0  0  0  0  0  0  0  0  0  0  0
    2.5980   -0.2810    0.0490 N   0  0  0  0  0  0  0  0  0  0  0  0
    1.4880    3.2630   -2.5500 C   0  0  0  0  0  0  0  0  0  0  0  0
    2.3550    4.3780   -2.5560 N   0  0  0  0  0  0  0  0  0  0  0  0
    0.6260    3.1880   -3.4670 O   0  0  0  0  0  0  0  0  0  0  0  0
   -2.2060   -0.5570    0.0420 C   0  0  0  0  0  0  0  0  0  0  0  0
   -2.8870   -1.6610   -0.4370 C   0  0  0  0  0  0  0  0  0  0  0  0
   -3.9130   -2.2060    0.2260 C   0  0  0  0  0  0  0  0  0  0  0  0
   -4.3040   -1.5910    1.4980 C   0  0  1  0  0  0  0  0  0  0  0  0
   -3.6550   -2.1330    2.5960 O   0  0  0  0  0  0  0  0  0  0  0  0
   -4.0240   -0.1650    1.4970 N   0  0  0  0  0  0  0  0  0  0  0  0
   -2.5930    0.0810    1.3360 C   0  0  0  0  0  0  0  0  0  0  0  0
  1  2  2  0
  2  3  1  0
  2 21  1  0
  3  4  1  0
  4  5  1  0
  4 20  2  0
  5  6  2  0
  5  7  1  0
  7  8  1  0
  8  9  1  6
  8 17  1  0
  9 10  1  0
 10 11  2  0
 10 16  1  0
 11 12  1  0
 12 13  2  0
 12 14  1  0
 14 15  1  0
 14 16  2  0
 17 18  1  0
 17 19  2  0
 20 21  1  0
 20 26  1  0
 21 22  2  0
 22 23  1  0
 23 24  1  1
 23 25  1  0
 25 26  1  0
M  END
