
     RDKit          3D

 16 17  0  0  0  0  0  0  0  0999 V2000
    2.4820    1.7910   -0.8450 O   0  0  0  0  0  0  0  0  0  0  0  0
    1.6960    1.2370   -0.0090 C   0  0  0  0  0  0  0  0  0  0  0  0
    0.6770    2.0110    0.7280 C   0  0  0  0  0  0  0  0  0  0  0  0
   -0.3050    0.9690    1.7990 S   0  0  0  0  0  0  0  0  0  0  0  0
   -1.3270   -0.1440    0.8730 C   0  0  0  0  0  0  0  0  0  0  0  0
   -0.9750   -1.3930    0.5260 N   0  0  0  0  0  0  0  0  0  0  0  0
   -1.9800   -1.9150   -0.1590 N   0  0  0  0  0  0  0  0  0  0  0  0
   -2.9920   -1.0150   -0.2640 C   0  0  0  0  0  0  0  0  0  0  0  0
   -2.6210    0.0950    0.3650 C   0  0  0  0  0  0  0  0  0  0  0  0
   -3.5610    1.2240    0.3830 C   0  0  0  0  0  0  0  0  0  0  0  0
   -5.1240    0.3820   -0.0010 S   0  0  0  0  0  0  0  0  0  0  0  0
   -4.3330   -1.0240   -0.8880 C   0  0  0  0  0  0  0  0  0  0  0  0
    1.8080   -0.1190    0.2070 O   0  0  0  0  0  0  0  0  0  0  0  0
    2.7550   -0.8990   -0.4570 C   0  0  0  0  0  0  0  0  0  0  0  0
    4.1740   -0.4950   -0.1810 C   0  0  0  0  0  0  0  0  0  0  0  0
    5.0390   -1.3410   -0.8950 O   0  0  0  0  0  0  0  0  0  0  0  0
  1  2  2  0
  2  3  1  0
  2 13  1  0
  3  4  1  0
  4  5  1  0
  5  6  1  0
  5  9  2  0
  6  7  1  0
  7  8  2  0
  8  9  1  0
  8 12  1  0
  9 10  1  0
 10 11  1  0
 11 12  1  0
 13 14  1  0
 14 15  1  0
 15 16  1  0
M  END
