
     RDKit          3D

 15 15  0  0  0  0  0  0  0  0999 V2000
    5.0290    0.4440    0.5220 C   0  0  0  0  0  0  0  0  0  0  0  0
    4.3370    1.4070   -0.4510 C   0  0  0  0  0  0  0  0  0  0  0  0
    3.1940    0.8170   -0.9450 O   0  0  0  0  0  0  0  0  0  0  0  0
    2.1680    0.4220   -0.0820 C   0  0  0  0  0  0  0  0  0  0  0  0
    2.2030    0.5650    1.1300 O   0  0  0  0  0  0  0  0  0  0  0  0
    1.0290   -0.1690   -0.5760 N   0  0  0  0  0  0  0  0  0  0  0  0
   -0.1550   -0.6850   -0.1420 C   0  0  0  0  0  0  0  0  0  0  0  0
   -0.7630   -1.0850   -1.1990 O   0  0  0  0  0  0  0  0  0  0  0  0
   -0.8750   -0.9090    0.9920 N   0  0  0  0  0  0  0  0  0  0  0  0
   -2.1770   -1.5360    0.9190 C   0  0  0  0  0  0  0  0  0  0  0  0
   -3.1340   -0.7220    0.0860 C   0  0  0  0  0  0  0  0  0  0  0  0
   -3.7240   -1.1400   -0.9900 C   0  0  0  0  0  0  0  0  0  0  0  0
   -4.7950    0.0400   -1.7580 S   0  0  0  0  0  0  0  0  0  0  0  0
   -5.0760    1.2330   -0.4000 C   0  0  0  0  0  0  0  0  0  0  0  0
   -3.5470    0.9530    0.5370 S   0  0  0  0  0  0  0  0  0  0  0  0
  1  2  1  0
  2  3  1  0
  3  4  1  0
  4  5  2  0
  4  6  1  0
  6  7  1  0
  7  8  2  0
  7  9  1  0
  9 10  1  0
 10 11  1  0
 11 12  2  0
 11 15  1  0
 12 13  1  0
 13 14  1  0
 14 15  1  0
M  END
