
     RDKit          3D

 16 16  0  0  0  0  0  0  0  0999 V2000
   -6.3740    0.1270    0.2330 C   0  0  0  0  0  0  0  0  0  0  0  0
   -5.0890    0.0950    0.0720 C   0  0  0  0  0  0  0  0  0  0  0  0
   -3.8610    0.1400    1.3530 S   0  0  0  0  0  0  0  0  0  0  0  0
   -2.4200    0.0570    0.2510 C   0  0  0  0  0  0  0  0  0  0  0  0
   -1.0840    0.0590    0.7460 N   0  0  0  0  0  0  0  0  0  0  0  0
    0.0870   -0.0020   -0.0350 C   0  0  0  0  0  0  0  0  0  0  0  0
   -0.0190   -0.0650   -1.2790 O   0  0  0  0  0  0  0  0  0  0  0  0
    1.4560    0.0040    0.5500 C   0  0  0  0  0  0  0  0  0  0  0  0
    2.4770   -0.0660   -0.4500 N   0  0  0  0  0  0  0  0  0  0  0  0
    3.8290   -0.0670   -0.0100 C   0  0  0  0  0  0  0  0  0  0  0  0
    4.0880   -0.0070    1.2380 O   0  0  0  0  0  0  0  0  0  0  0  0
    4.9010   -0.1320   -0.8810 O   0  0  0  0  0  0  0  0  0  0  0  0
    6.2190   -0.1280   -0.3610 C   0  0  0  0  0  0  0  0  0  0  0  0
   -2.8950    0.0030   -0.9460 C   0  0  0  0  0  0  0  0  0  0  0  0
   -4.3070    0.0180   -1.1380 C   0  0  0  0  0  0  0  0  0  0  0  0
   -5.0750   -0.0450   -2.6130 S   0  0  0  0  0  0  0  0  0  0  0  0
  1  2  2  0
  2  3  1  0
  2 15  1  0
  3  4  1  0
  4  5  1  0
  4 14  2  0
  5  6  1  0
  6  7  2  0
  6  8  1  0
  8  9  1  0
  9 10  1  0
 10 11  2  0
 10 12  1  0
 12 13  1  0
 14 15  1  0
 15 16  2  0
M  END
