
     RDKit          3D

 16 16  0  0  0  0  0  0  0  0999 V2000
    6.0050   -0.6190   -0.3390 C   0  0  0  0  0  0  0  0  0  0  0  0
    5.4500    1.0800   -0.2400 S   0  0  0  0  0  0  0  0  0  0  0  0
    3.6730    1.1350   -0.2000 C   0  0  0  0  0  0  0  0  0  0  0  0
    2.8760    2.5710   -0.1050 S   0  0  0  0  0  0  0  0  0  0  0  0
    2.9440   -0.0740   -0.2500 N   0  0  0  0  0  0  0  0  0  0  0  0
    1.5470   -0.0540   -0.2190 N   0  0  0  0  0  0  0  0  0  0  0  0
    0.9010   -0.2960    1.0260 C   0  0  0  0  0  0  0  0  0  0  0  0
    1.5770   -0.5210    2.0610 O   0  0  0  0  0  0  0  0  0  0  0  0
   -0.5610   -0.2910    1.1300 C   0  0  0  0  0  0  0  0  0  0  0  0
   -1.1740   -0.0230   -0.1420 O   0  0  0  0  0  0  0  0  0  0  0  0
   -2.5540    0.0270   -0.2640 C   0  0  0  0  0  0  0  0  0  0  0  0
   -3.2710    0.9770    0.2990 C   0  0  0  0  0  0  0  0  0  0  0  0
   -4.7450    1.1020    0.2170 C   0  0  0  0  0  0  0  0  0  0  0  0
   -5.3160    0.0880   -0.5360 O   0  0  0  0  0  0  0  0  0  0  0  0
   -4.5560   -0.8940   -1.1160 C   0  0  0  0  0  0  0  0  0  0  0  0
   -3.2370   -0.9920   -1.0330 C   0  0  0  0  0  0  0  0  0  0  0  0
  1  2  1  0
  2  3  1  0
  3  4  2  0
  3  5  1  0
  5  6  1  0
  6  7  1  0
  7  8  2  0
  7  9  1  0
  9 10  1  0
 10 11  1  0
 11 12  2  0
 11 16  1  0
 12 13  1  0
 13 14  1  0
 14 15  1  0
 15 16  2  0
M  END
