
     RDKit          3D

 16 17  0  0  0  0  0  0  0  0999 V2000
   -4.4150    0.5000   -0.0630 C   0  0  0  0  0  0  0  0  0  0  0  0
   -3.0050    0.5790    0.5360 C   0  0  0  0  0  0  0  0  0  0  0  0
   -2.3360   -1.0470    0.4550 S   0  0  1  0  0  0  0  0  0  0  0  0
   -3.2600   -2.0200    1.1970 O   0  0  0  0  0  0  0  0  0  0  0  0
   -2.3010   -1.4600   -1.0110 O   0  0  0  0  0  0  0  0  0  0  0  0
   -0.7800   -1.2000    1.1090 N   0  0  0  0  0  0  0  0  0  0  0  0
    0.3670   -0.5460    0.6610 C   0  0  0  0  0  0  0  0  0  0  0  0
    0.5670    0.7760    0.4740 C   0  0  0  0  0  0  0  0  0  0  0  0
    1.7460    1.3230    0.0480 C   0  0  0  0  0  0  0  0  0  0  0  0
    2.8730    0.5160   -0.2340 C   0  0  0  0  0  0  0  0  0  0  0  0
    4.0400    0.9380   -0.6440 N   0  0  0  0  0  0  0  0  0  0  0  0
    5.0140    0.0560   -0.8700 C   0  0  0  0  0  0  0  0  0  0  0  0
    6.2200    0.1480   -1.2610 O   0  0  0  0  0  0  0  0  0  0  0  0
    4.2150   -1.5280   -0.4670 S   0  0  0  0  0  0  0  0  0  0  0  0
    2.6600   -0.8140   -0.0410 C   0  0  0  0  0  0  0  0  0  0  0  0
    1.4640   -1.3710    0.3900 C   0  0  0  0  0  0  0  0  0  0  0  0
  1  2  1  0
  3  2  1  6
  3  4  2  0
  3  5  2  0
  3  6  1  0
  6  7  1  0
  7  8  2  0
  7 16  1  0
  8  9  1  0
  9 10  2  0
 10 11  1  0
 10 15  1  0
 11 12  1  0
 12 13  2  0
 12 14  1  0
 14 15  1  0
 15 16  2  0
M  END
