
     RDKit          3D

 20 22  0  0  0  0  0  0  0  0999 V2000
    5.2500    0.8270    0.9010 C   0  0  0  0  0  0  0  0  0  0  0  0
    4.1380    0.0940    0.1800 C   0  0  2  0  0  0  0  0  0  0  0  0
    4.1960    0.2460   -1.3470 C   0  0  0  0  0  0  0  0  0  0  0  0
    3.1430    0.9240   -0.5390 C   0  0  1  0  0  0  0  0  0  0  0  0
    1.6990    0.5020   -0.6450 C   0  0  1  0  0  0  0  0  0  0  0  0
    1.5430   -0.8180   -1.3410 C   0  0  0  0  0  0  0  0  0  0  0  0
    0.1160   -1.2210   -1.2870 C   0  0  0  0  0  0  0  0  0  0  0  0
   -0.5920   -1.5020   -2.2840 O   0  0  0  0  0  0  0  0  0  0  0  0
   -0.4560   -1.2790    0.0390 N   0  0  0  0  0  0  0  0  0  0  0  0
   -1.7140   -1.8830    0.3090 C   0  0  0  0  0  0  0  0  0  0  0  0
   -2.8100   -0.8710    0.1310 C   0  0  0  0  0  0  0  0  0  0  0  0
   -3.7610   -1.0790   -0.7800 C   0  0  0  0  0  0  0  0  0  0  0  0
   -4.8740   -0.1850   -1.0540 C   0  0  0  0  0  0  0  0  0  0  0  0
   -4.9550    1.0550   -0.2380 C   0  0  0  0  0  0  0  0  0  0  0  0
   -3.8670    1.2150    0.7510 C   0  0  0  0  0  0  0  0  0  0  0  0
   -2.8940    0.3450    0.9210 C   0  0  0  0  0  0  0  0  0  0  0  0
   -1.9440    0.6340    1.8900 O   0  0  0  0  0  0  0  0  0  0  0  0
    0.3530   -0.7130    1.0680 C   0  0  0  0  0  0  0  0  0  0  0  0
    0.3900   -1.2800    2.2190 O   0  0  0  0  0  0  0  0  0  0  0  0
    1.1200    0.5130    0.7550 C   0  0  0  0  0  0  0  0  0  0  0  0
  2  1  1  1
  2  3  1  0
  2  4  1  0
  4  3  1  6
  4  5  1  0
  5  6  1  1
  5 20  1  0
  6  7  1  0
  7  8  2  0
  7  9  1  0
  9 10  1  0
  9 18  1  0
 10 11  1  0
 11 12  2  0
 11 16  1  0
 12 13  1  0
 13 14  1  0
 14 15  1  0
 15 16  2  0
 16 17  1  0
 18 19  2  0
 18 20  1  0
M  END
