
     RDKit          3D

 16 17  0  0  0  0  0  0  0  0999 V2000
    6.1260    0.1250   -1.6370 O   0  0  0  0  0  0  0  0  0  0  0  0
    5.0820    0.3770   -1.0180 C   0  0  0  0  0  0  0  0  0  0  0  0
    4.7120    1.5320   -0.3110 N   0  0  0  0  0  0  0  0  0  0  0  0
    3.4650    1.5300    0.2890 C   0  0  0  0  0  0  0  0  0  0  0  0
    2.9900    2.5120    0.9670 O   0  0  0  0  0  0  0  0  0  0  0  0
    2.6700    0.3320    0.1230 C   0  0  0  0  0  0  0  0  0  0  0  0
    1.4900    0.0640    0.5680 N   0  0  0  0  0  0  0  0  0  0  0  0
    0.8310   -1.1970    0.3080 C   0  0  0  0  0  0  0  0  0  0  0  0
   -0.6530   -1.0110    0.2320 C   0  0  0  0  0  0  0  0  0  0  0  0
   -1.6640   -1.8970    0.0100 C   0  0  0  0  0  0  0  0  0  0  0  0
   -2.9230   -1.4580   -0.0070 C   0  0  0  0  0  0  0  0  0  0  0  0
   -3.2290   -0.1520    0.1900 C   0  0  0  0  0  0  0  0  0  0  0  0
   -4.4310    0.6280    0.2350 C   0  0  0  0  0  0  0  0  0  0  0  0
   -4.1420    1.9700    0.4810 O   0  0  0  0  0  0  0  0  0  0  0  0
   -1.5130    0.5520    0.4330 S   0  0  0  0  0  0  0  0  0  0  0  0
    3.7100   -0.7510   -0.8720 S   0  0  0  0  0  0  0  0  0  0  0  0
  1  2  2  0
  2  3  1  0
  2 16  1  0
  3  4  1  0
  4  5  2  0
  4  6  1  0
  6  7  2  3
  6 16  1  0
  7  8  1  0
  8  9  1  0
  9 10  2  0
  9 15  1  0
 10 11  1  0
 11 12  2  0
 12 13  1  0
 12 15  1  0
 13 14  1  0
M  END
