
     RDKit          3D

 10 10  0  0  0  0  0  0  0  0999 V2000
    3.4580    0.4090    0.2030 N   0  0  0  0  0  0  0  0  0  0  0  0
    2.1430   -0.0510   -0.1410 C   0  0  0  0  0  0  0  0  0  0  0  0
    1.5550   -0.6430   -0.9340 N   0  0  0  0  0  0  0  0  0  0  0  0
    0.2770   -0.8860   -0.9300 N   0  0  0  0  0  0  0  0  0  0  0  0
   -0.4780   -0.5530   -0.1380 C   0  0  0  0  0  0  0  0  0  0  0  0
   -2.1790   -0.5790    0.3630 S   0  0  2  0  0  0  0  0  0  0  0  0
   -2.9870    0.7950   -0.3120 N   0  0  0  0  0  0  0  0  0  0  0  0
   -2.3030   -0.5250    1.8540 O   0  0  0  0  0  0  0  0  0  0  0  0
   -2.7400   -1.8660   -0.1480 O   0  0  0  0  0  0  0  0  0  0  0  0
    0.7070    0.3880    1.0460 S   0  0  0  0  0  0  0  0  0  0  0  0
  1  2  1  0
  2  3  2  0
  2 10  1  0
  3  4  1  0
  4  5  2  0
  5  6  1  0
  5 10  1  0
  6  7  1  6
  6  8  2  0
  6  9  2  0
M  END
