
     RDKit          3D

  9  8  0  0  0  0  0  0  0  0999 V2000
   -2.8300    0.9910    0.0790 N   0  0  0  0  0  0  0  0  0  0  0  0
   -1.8320   -0.0210    0.3200 C   0  0  0  0  0  0  0  0  0  0  0  0
   -1.8590   -0.7450    1.3410 O   0  0  0  0  0  0  0  0  0  0  0  0
   -0.7690   -0.2420   -0.5920 N   0  0  0  0  0  0  0  0  0  0  0  0
    0.1840   -1.2250   -0.3380 N   0  0  0  0  0  0  0  0  0  0  0  0
    1.5680   -0.9160   -0.3120 C   0  0  0  0  0  0  0  0  0  0  0  0
    2.7000   -2.0460   -0.0190 S   0  0  0  0  0  0  0  0  0  0  0  0
    2.1330    0.7460   -0.6030 S   0  0  0  0  0  0  0  0  0  0  0  0
    3.8400    0.8560   -0.5190 O   0  0  0  0  0  0  0  0  0  0  0  0
  1  2  1  0
  2  3  2  0
  2  4  1  0
  4  5  1  0
  5  6  1  0
  6  7  2  0
  6  8  1  0
  8  9  1  0
M  END
