
     RDKit          3D

 11 10  0  0  0  0  0  0  0  0999 V2000
    2.2540    1.1020   -0.8440 O   0  0  0  0  0  0  0  0  0  0  0  0
    2.9010    0.4780    0.1840 C   0  0  0  0  0  0  0  0  0  0  0  0
    1.9410   -0.1440    1.1940 C   0  0  0  0  0  0  0  0  0  0  0  0
    1.1200   -1.0540    0.7460 O   0  0  0  0  0  0  0  0  0  0  0  0
    0.1580   -1.0580   -0.1360 C   0  0  0  0  0  0  0  0  0  0  0  0
   -1.0290   -0.2090    0.1900 C   0  0  1  0  0  0  0  0  0  0  0  0
   -1.5580   -0.5410    1.4370 O   0  0  0  0  0  0  0  0  0  0  0  0
   -0.7860    1.2400   -0.0290 C   0  0  0  0  0  0  0  0  0  0  0  0
   -1.9900    1.9840    0.0680 O   0  0  0  0  0  0  0  0  0  0  0  0
   -2.1920   -0.5880   -0.7870 C   0  0  0  0  0  0  0  0  0  0  0  0
   -2.5010   -1.9210   -0.6970 O   0  0  0  0  0  0  0  0  0  0  0  0
  1  2  1  0
  2  3  1  0
  3  4  1  0
  4  5  1  0
  5  6  1  0
  6  7  1  1
  6  8  1  0
  6 10  1  0
  8  9  1  0
 10 11  1  0
M  END
