
     RDKit          3D

  9  8  0  0  0  0  0  0  0  0999 V2000
    3.9170    0.5370    0.0960 N   0  0  0  0  0  0  0  0  0  0  0  0
    2.7470    1.0620    0.4910 O   0  0  0  0  0  0  0  0  0  0  0  0
    1.4010    0.3710   -0.2670 S   0  0  0  0  0  0  0  0  0  0  0  0
    0.3530   -0.4330    0.9200 C   0  0  0  0  0  0  0  0  0  0  0  0
    0.6760   -0.4190    2.1270 O   0  0  0  0  0  0  0  0  0  0  0  0
   -0.8250   -1.0640    0.4320 N   0  0  0  0  0  0  0  0  0  0  0  0
   -1.7860   -0.4140   -0.1260 C   0  0  0  0  0  0  0  0  0  0  0  0
   -1.6900    0.9920   -0.2710 N   0  0  0  0  0  0  0  0  0  0  0  0
   -2.9140   -1.1480   -0.5760 N   0  0  0  0  0  0  0  0  0  0  0  0
  1  2  1  0
  2  3  1  0
  3  4  1  0
  4  5  2  0
  4  6  1  0
  6  7  2  3
  7  8  1  0
  7  9  1  0
M  END
