
     RDKit          3D

 10  9  0  0  0  0  0  0  0  0999 V2000
    3.4910   -0.0320   -0.1180 N   0  0  0  0  0  0  0  0  0  0  0  0
    2.2260   -0.5520   -0.3680 C   0  0  0  0  0  0  0  0  0  0  0  0
    1.7390   -1.5330   -0.7530 O   0  0  0  0  0  0  0  0  0  0  0  0
    1.0190    0.6560    0.0330 N   0  0  0  0  0  0  0  0  0  0  0  0
   -0.1010   -0.0750   -0.2800 C   0  0  0  0  0  0  0  0  0  0  0  0
   -0.3290   -1.1570   -0.7110 O   0  0  0  0  0  0  0  0  0  0  0  0
   -1.3390    0.7680    0.0270 N   0  0  0  0  0  0  0  0  0  0  0  0
   -2.5320    0.2300   -0.1730 N   0  0  0  0  0  0  0  0  0  0  0  0
   -2.6510   -1.2580   -1.0270 S   0  0  0  0  0  0  0  0  0  0  0  0
   -3.7390    0.5240    1.0340 S   0  0  0  0  0  0  0  0  0  0  0  0
  1  2  1  0
  2  3  2  0
  2  4  1  0
  4  5  1  0
  5  6  2  0
  5  7  1  0
  7  8  1  0
  8  9  1  0
  8 10  1  0
M  END
