
     RDKit          3D

 11 10  0  0  0  0  0  0  0  0999 V2000
   -2.3170    1.4690    0.8510 O   0  0  0  0  0  0  0  0  0  0  0  0
   -3.2290    0.6640    0.2280 C   0  0  0  0  0  0  0  0  0  0  0  0
   -2.7650   -0.0810   -0.9780 C   0  0  0  0  0  0  0  0  0  0  0  0
   -1.7340   -0.9510   -0.7760 O   0  0  0  0  0  0  0  0  0  0  0  0
   -0.5830   -0.3930   -0.3240 C   0  0  0  0  0  0  0  0  0  0  0  0
    0.5310   -1.4510   -0.1890 C   0  0  2  0  0  0  0  0  0  0  0  0
    0.1360   -2.4370    0.7090 O   0  0  0  0  0  0  0  0  0  0  0  0
    1.7570   -0.6970    0.2830 C   0  0  0  0  0  0  0  0  0  0  0  0
    2.0540    0.2500   -0.6810 O   0  0  0  0  0  0  0  0  0  0  0  0
    3.1730    0.9860   -0.3180 C   0  0  0  0  0  0  0  0  0  0  0  0
    2.8790    1.6150    0.8940 O   0  0  0  0  0  0  0  0  0  0  0  0
  1  2  1  0
  2  3  1  0
  3  4  1  0
  4  5  1  0
  5  6  1  0
  6  7  1  1
  6  8  1  0
  8  9  1  0
  9 10  1  0
 10 11  1  0
M  END
