
     RDKit          3D

  9  8  0  0  0  0  0  0  0  0999 V2000
   -2.9470   -0.0920    1.2720 N   0  0  0  0  0  0  0  0  0  0  0  0
   -1.8930    0.0270    0.3390 C   0  0  0  0  0  0  0  0  0  0  0  0
   -2.0640    1.0960   -0.8690 S   0  0  0  0  0  0  0  0  0  0  0  0
   -0.7210   -0.7470    0.4340 N   0  0  0  0  0  0  0  0  0  0  0  0
    0.2890   -0.5870   -0.5180 N   0  0  0  0  0  0  0  0  0  0  0  0
    1.5710   -0.0470   -0.1480 C   0  0  0  0  0  0  0  0  0  0  0  0
    1.7310    0.2690    1.0670 O   0  0  0  0  0  0  0  0  0  0  0  0
    2.8080    0.1330   -1.3960 S   0  0  0  0  0  0  0  0  0  0  0  0
    4.2580    0.7990   -0.7650 O   0  0  0  0  0  0  0  0  0  0  0  0
  1  2  1  0
  2  3  2  0
  2  4  1  0
  4  5  1  0
  5  6  1  0
  6  7  2  0
  6  8  1  0
  8  9  1  0
M  END
