
     RDKit          3D

 18 18  0  0  0  0  0  0  0  0999 V2000
    6.2340    0.3330    0.3660 C   0  0  0  0  0  0  0  0  0  0  0  0
    4.8450    0.2180    0.8270 C   0  0  0  0  0  0  0  0  0  0  0  0
    4.5020    0.0760    2.5170 Cl  0  0  0  0  0  0  0  0  0  0  0  0
    3.8530    0.2230   -0.0440 C   0  0  0  0  0  0  0  0  0  0  0  0
    2.5010    0.1090    0.4400 C   0  0  0  0  0  0  0  0  0  0  0  0
    1.3960    0.0970   -0.2790 C   0  0  0  0  0  0  0  0  0  0  0  0
    0.1150   -0.0310    0.4510 C   0  0  0  0  0  0  0  0  0  0  0  0
    0.1490   -0.1140    1.7000 O   0  0  0  0  0  0  0  0  0  0  0  0
   -1.1250   -0.0650   -0.1910 N   0  0  0  0  0  0  0  0  0  0  0  0
   -2.3890   -0.1930    0.5710 C   0  0  2  0  0  0  0  0  0  0  0  0
   -3.1640   -1.3990    0.0830 C   0  0  0  0  0  0  0  0  0  0  0  0
   -4.4780   -0.8650   -0.4510 C   0  0  0  0  0  0  0  0  0  0  0  0
   -4.6590    0.3730    0.4390 C   0  0  0  0  0  0  0  0  0  0  0  0
   -3.2850    0.9960    0.2910 C   0  0  0  0  0  0  0  0  0  0  0  0
    1.2870    0.2070   -1.7360 C   0  0  2  0  0  0  0  0  0  0  0  0
    0.6200   -0.9130   -2.2590 F   0  0  0  0  0  0  0  0  0  0  0  0
    2.4280    0.4370   -2.4270 F   0  0  0  0  0  0  0  0  0  0  0  0
    0.4570    1.3080   -1.9990 F   0  0  0  0  0  0  0  0  0  0  0  0
  1  2  1  0
  2  3  1  0
  2  4  2  3
  4  5  1  0
  5  6  2  3
  6  7  1  0
  6 15  1  0
  7  8  2  0
  7  9  1  0
 10  9  1  6
 10 11  1  0
 10 14  1  0
 11 12  1  0
 12 13  1  0
 13 14  1  0
 15 16  1  6
 15 17  1  0
 15 18  1  0
M  END
