
     RDKit          3D

 18 18  0  0  0  0  0  0  0  0999 V2000
   -0.3630   -3.3380   -0.3480 C   0  0  0  0  0  0  0  0  0  0  0  0
   -1.2930   -2.2520   -0.2630 C   0  0  0  0  0  0  0  0  0  0  0  0
   -1.1590   -0.9550   -0.0530 C   0  0  0  0  0  0  0  0  0  0  0  0
   -2.4440   -0.1330   -0.0350 C   0  0  0  0  0  0  0  0  0  0  0  0
   -2.2270    1.2550    0.3420 C   0  0  0  0  0  0  0  0  0  0  0  0
   -3.4520    2.1120    0.4510 C   0  0  2  0  0  0  0  0  0  0  0  0
   -4.1300    2.1800   -0.7510 F   0  0  0  0  0  0  0  0  0  0  0  0
   -3.1210    3.3960    0.8160 F   0  0  0  0  0  0  0  0  0  0  0  0
   -4.3320    1.6130    1.3900 F   0  0  0  0  0  0  0  0  0  0  0  0
   -1.0460    1.7910    0.5890 C   0  0  0  0  0  0  0  0  0  0  0  0
    0.1830    1.0020    0.5080 C   0  0  0  0  0  0  0  0  0  0  0  0
    0.1120   -0.3120    0.1890 C   0  0  0  0  0  0  0  0  0  0  0  0
    1.3740   -1.0730    0.0230 C   0  0  0  0  0  0  0  0  0  0  0  0
    2.5500   -0.2160    0.1780 N   0  0  0  0  0  0  0  0  0  0  0  0
    2.8050    0.8230   -0.7530 C   0  0  0  0  0  0  0  0  0  0  0  0
    2.0280    1.0400   -1.7550 O   0  0  0  0  0  0  0  0  0  0  0  0
    4.0010    1.6830   -0.5680 C   0  0  0  0  0  0  0  0  0  0  0  0
    4.8590    1.1420    0.8800 Cl  0  0  0  0  0  0  0  0  0  0  0  0
  1  2  1  0
  2  3  2  3
  3  4  1  0
  3 12  1  0
  4  5  1  0
  5  6  1  0
  5 10  2  0
  6  7  1  6
  6  8  1  0
  6  9  1  0
 10 11  1  0
 11 12  2  0
 12 13  1  0
 13 14  1  0
 14 15  1  0
 15 16  2  0
 15 17  1  0
 17 18  1  0
M  END
