
     RDKit          3D

 17 17  0  0  0  0  0  0  0  0999 V2000
   -3.7320   -1.3040   -2.0950 C   0  0  0  0  0  0  0  0  0  0  0  0
   -3.6670   -0.6210   -0.7870 C   0  0  0  0  0  0  0  0  0  0  0  0
   -2.5200   -0.2400   -0.2120 C   0  0  0  0  0  0  0  0  0  0  0  0
   -1.2600   -0.4850   -0.8600 C   0  0  0  0  0  0  0  0  0  0  0  0
   -0.0810   -0.1360   -0.3610 C   0  0  0  0  0  0  0  0  0  0  0  0
    0.0370    0.5530    0.9340 C   0  0  0  0  0  0  0  0  0  0  0  0
    1.4070    1.0060    1.3270 C   0  0  0  0  0  0  0  0  0  0  0  0
    2.1910    1.2250    0.0520 C   0  0  0  0  0  0  0  0  0  0  0  0
    2.3510    0.0080   -0.6770 N   0  0  0  0  0  0  0  0  0  0  0  0
    3.2330   -0.9550   -0.1150 C   0  0  0  0  0  0  0  0  0  0  0  0
    4.6820   -0.6040   -0.1090 C   0  0  1  0  0  0  0  0  0  0  0  0
    4.9620    0.5380    0.6010 F   0  0  0  0  0  0  0  0  0  0  0  0
    5.3430   -1.6460    0.5560 F   0  0  0  0  0  0  0  0  0  0  0  0
    5.2250   -0.5290   -1.3760 F   0  0  0  0  0  0  0  0  0  0  0  0
    1.1290   -0.4840   -1.1670 C   0  0  0  0  0  0  0  0  0  0  0  0
   -2.5420    0.3970    1.0220 O   0  0  0  0  0  0  0  0  0  0  0  0
   -3.4950    1.4050    1.3210 C   0  0  0  0  0  0  0  0  0  0  0  0
  1  2  1  0
  2  3  2  3
  3  4  1  0
  3 16  1  0
  4  5  2  3
  5  6  1  0
  5 15  1  0
  6  7  1  0
  7  8  1  0
  8  9  1  0
  9 10  1  0
  9 15  1  0
 10 11  1  0
 11 12  1  1
 11 13  1  0
 11 14  1  0
 16 17  1  0
M  END
