
     RDKit          3D

 18 18  0  0  0  0  0  0  0  0999 V2000
    3.7640   -1.4560   -0.0350 C   0  0  0  0  0  0  0  0  0  0  0  0
    2.3510   -1.0660    0.0020 C   0  0  0  0  0  0  0  0  0  0  0  0
    1.3750   -2.0270   -0.1280 C   0  0  0  0  0  0  0  0  0  0  0  0
    0.0860   -1.6930   -0.0970 N   0  0  0  0  0  0  0  0  0  0  0  0
   -0.3530   -0.3900    0.0650 C   0  0  0  0  0  0  0  0  0  0  0  0
   -1.8280   -0.2400   -0.1030 C   0  0  0  0  0  0  0  0  0  0  0  0
   -2.5330    0.6120    0.5230 C   0  0  0  0  0  0  0  0  0  0  0  0
   -3.8970    1.0650    0.6380 C   0  0  0  0  0  0  0  0  0  0  0  0
   -5.1920    0.3960   -0.2720 Cl  0  0  0  0  0  0  0  0  0  0  0  0
   -2.3780   -1.1900   -1.1360 C   0  0  0  0  0  0  0  0  0  0  0  0
   -3.6630   -1.1570   -1.4280 O   0  0  0  0  0  0  0  0  0  0  0  0
    0.5790    0.5850    0.1950 C   0  0  0  0  0  0  0  0  0  0  0  0
    0.2490    1.9960    0.3560 C   0  0  2  0  0  0  0  0  0  0  0  0
   -0.2170    2.3540    1.5570 F   0  0  0  0  0  0  0  0  0  0  0  0
   -0.7090    2.2530   -0.6710 F   0  0  0  0  0  0  0  0  0  0  0  0
    1.2680    2.8720    0.0110 F   0  0  0  0  0  0  0  0  0  0  0  0
    1.9450    0.2190    0.1610 C   0  0  0  0  0  0  0  0  0  0  0  0
    2.9760    1.2620    0.3180 C   0  0  0  0  0  0  0  0  0  0  0  0
  1  2  1  0
  2  3  2  0
  2 17  1  0
  3  4  1  0
  4  5  2  0
  5  6  1  0
  5 12  1  0
  6  7  2  3
  6 10  1  0
  7  8  1  0
  8  9  1  0
 10 11  1  0
 12 13  1  0
 12 17  2  0
 13 14  1  1
 13 15  1  0
 13 16  1  0
 17 18  1  0
M  END
