
     RDKit          3D

 18 18  0  0  0  0  0  0  0  0999 V2000
    4.2150    0.2640    0.6200 C   0  0  0  0  0  0  0  0  0  0  0  0
    4.3060   -0.5120   -0.4310 C   0  0  0  0  0  0  0  0  0  0  0  0
    3.1950   -1.2420   -1.0040 C   0  0  0  0  0  0  0  0  0  0  0  0
    3.3520   -2.0160   -2.0530 C   0  0  0  0  0  0  0  0  0  0  0  0
    1.9720   -2.8680   -2.6950 Cl  0  0  0  0  0  0  0  0  0  0  0  0
    1.9140   -1.1260   -0.4210 N   0  0  0  0  0  0  0  0  0  0  0  0
    1.1970    0.1170   -0.4080 C   0  0  0  0  0  0  0  0  0  0  0  0
    1.7330    1.1230   -0.9410 O   0  0  0  0  0  0  0  0  0  0  0  0
   -0.1250    0.2070    0.2110 C   0  0  1  0  0  0  0  0  0  0  0  0
   -0.6310    1.6250    0.0740 C   0  0  0  0  0  0  0  0  0  0  0  0
   -1.8290    1.6770    1.0150 C   0  0  0  0  0  0  0  0  0  0  0  0
   -2.9190    0.8950    0.3680 C   0  0  2  0  0  0  0  0  0  0  0  0
   -3.8870    0.4670    1.4820 C   0  0  2  0  0  0  0  0  0  0  0  0
   -4.3950    1.6080    2.1060 F   0  0  0  0  0  0  0  0  0  0  0  0
   -3.1720   -0.2530    2.4020 F   0  0  0  0  0  0  0  0  0  0  0  0
   -4.9370   -0.2690    0.9670 F   0  0  0  0  0  0  0  0  0  0  0  0
   -2.5090   -0.2420   -0.4660 C   0  0  0  0  0  0  0  0  0  0  0  0
   -1.1320   -0.7600   -0.3200 C   0  0  0  0  0  0  0  0  0  0  0  0
  1  2  2  0
  2  3  1  0
  3  4  2  3
  3  6  1  0
  4  5  1  0
  6  7  1  0
  7  8  2  0
  9  7  1  6
  9 10  1  0
  9 18  1  0
 10 11  1  0
 12 11  1  1
 12 13  1  0
 12 17  1  0
 13 14  1  1
 13 15  1  0
 13 16  1  0
 17 18  1  0
M  END
