
     RDKit          3D

 18 18  0  0  0  0  0  0  0  0999 V2000
   -5.2140    1.2440    0.1200 C   0  0  0  0  0  0  0  0  0  0  0  0
   -4.4710   -0.0730    0.0630 C   0  0  0  0  0  0  0  0  0  0  0  0
   -2.9990    0.2420   -0.0680 C   0  0  0  0  0  0  0  0  0  0  0  0
   -2.1930   -0.9630   -0.1360 N   0  0  0  0  0  0  0  0  0  0  0  0
   -0.7880   -0.5800   -0.2620 C   0  0  1  0  0  0  0  0  0  0  0  0
   -0.2840    0.1680    0.9040 C   0  0  0  0  0  0  0  0  0  0  0  0
    0.9800   -0.2630    1.5460 C   0  0  0  0  0  0  0  0  0  0  0  0
    1.8170   -1.2280    0.7750 C   0  0  2  0  0  0  0  0  0  0  0  0
    3.1980   -1.1210    1.0470 O   0  0  0  0  0  0  0  0  0  0  0  0
    3.8830    0.0770    0.8110 C   0  0  0  0  0  0  0  0  0  0  0  0
    4.3830    1.1090    2.1400 Cl  0  0  0  0  0  0  0  0  0  0  0  0
    4.1640    0.4480   -0.4150 C   0  0  0  0  0  0  0  0  0  0  0  0
    4.8890    1.7180   -0.6470 C   0  0  2  0  0  0  0  0  0  0  0  0
    4.5280    2.6190    0.3430 F   0  0  0  0  0  0  0  0  0  0  0  0
    4.6500    2.2160   -1.9040 F   0  0  0  0  0  0  0  0  0  0  0  0
    6.2520    1.4300   -0.5240 F   0  0  0  0  0  0  0  0  0  0  0  0
    1.4980   -1.2230   -0.7080 C   0  0  0  0  0  0  0  0  0  0  0  0
    0.0490   -1.7410   -0.7330 C   0  0  0  0  0  0  0  0  0  0  0  0
  1  2  1  0
  2  3  1  0
  3  4  1  0
  5  4  1  1
  5  6  1  0
  5 18  1  0
  6  7  1  0
  7  8  1  0
  8  9  1  6
  8 17  1  0
  9 10  1  0
 10 11  1  0
 10 12  2  3
 12 13  1  0
 13 14  1  1
 13 15  1  0
 13 16  1  0
 17 18  1  0
M  END
