
     RDKit          3D

 28 31  0  0  0  0  0  0  0  0999 V2000
   -5.0980    4.1300   -1.2430 C   0  0  0  0  0  0  0  0  0  0  0  0
   -3.7530    4.2550   -1.6500 O   0  0  0  0  0  0  0  0  0  0  0  0
   -2.8130    3.3400   -1.1960 C   0  0  0  0  0  0  0  0  0  0  0  0
   -3.1810    2.3190   -0.3560 C   0  0  0  0  0  0  0  0  0  0  0  0
   -2.1830    1.4430    0.0560 C   0  0  0  0  0  0  0  0  0  0  0  0
   -2.4620    0.4200    0.8770 N   0  0  0  0  0  0  0  0  0  0  0  0
   -1.5520   -0.4650    1.3170 C   0  0  0  0  0  0  0  0  0  0  0  0
   -1.9090   -1.5310    2.1910 N   0  0  0  0  0  0  0  0  0  0  0  0
   -0.9090   -2.4690    2.6200 C   0  0  0  0  0  0  0  0  0  0  0  0
   -1.5800   -3.4200    3.6070 C   0  0  0  0  0  0  0  0  0  0  0  0
   -2.7400   -3.9520    3.0730 O   0  0  0  0  0  0  0  0  0  0  0  0
   -3.7450   -3.0430    2.8730 C   0  0  0  0  0  0  0  0  0  0  0  0
   -3.2610   -1.6520    2.6320 C   0  0  0  0  0  0  0  0  0  0  0  0
   -0.2840   -0.3040    0.9000 N   0  0  0  0  0  0  0  0  0  0  0  0
    0.1090    0.6990    0.0680 C   0  0  0  0  0  0  0  0  0  0  0  0
    1.4530    0.8210   -0.3340 N   0  0  0  0  0  0  0  0  0  0  0  0
    2.4630   -0.1460    0.1420 C   0  0  2  0  0  0  0  0  0  0  0  0
    3.8310    0.1620   -0.3720 C   0  0  0  0  0  0  0  0  0  0  0  0
    4.2600   -0.6420   -1.5560 C   0  0  0  0  0  0  0  0  0  0  0  0
    3.8590   -2.0220   -1.5170 N   0  0  1  0  0  0  0  0  0  0  0  0
    4.9860   -2.9090   -1.7340 C   0  0  0  0  0  0  0  0  0  0  0  0
    3.2490   -2.3970   -0.2640 C   0  0  0  0  0  0  0  0  0  0  0  0
    1.9840   -1.5290   -0.1730 C   0  0  0  0  0  0  0  0  0  0  0  0
   -0.8470    1.5850   -0.3620 C   0  0  0  0  0  0  0  0  0  0  0  0
   -0.5320    2.6130   -1.1940 C   0  0  0  0  0  0  0  0  0  0  0  0
   -1.5090    3.4950   -1.6160 C   0  0  0  0  0  0  0  0  0  0  0  0
   -1.1750    4.5480   -2.4700 O   0  0  0  0  0  0  0  0  0  0  0  0
    0.1610    4.6710   -2.8730 C   0  0  0  0  0  0  0  0  0  0  0  0
  1  2  1  0
  2  3  1  0
  3  4  2  0
  3 26  1  0
  4  5  1  0
  5  6  2  0
  5 24  1  0
  6  7  1  0
  7  8  1  0
  7 14  2  0
  8  9  1  0
  8 13  1  0
  9 10  1  0
 10 11  1  0
 11 12  1  0
 12 13  1  0
 14 15  1  0
 15 16  1  0
 15 24  2  0
 17 16  1  6
 17 18  1  0
 17 23  1  0
 18 19  1  0
 19 20  1  0
 20 21  1  1
 20 22  1  0
 22 23  1  0
 24 25  1  0
 25 26  2  0
 26 27  1  0
 27 28  1  0
M  CHG  1  20   1
M  END
