
     RDKit          3D

 28 31  0  0  0  0  0  0  0  0999 V2000
    7.1700    1.2900   -0.6530 C   0  0  0  0  0  0  0  0  0  0  0  0
    5.7800    0.8420   -0.3830 C   0  0  0  0  0  0  0  0  0  0  0  0
    5.0760    0.1230   -1.3170 C   0  0  0  0  0  0  0  0  0  0  0  0
    3.7780   -0.2550   -0.9760 C   0  0  0  0  0  0  0  0  0  0  0  0
    3.2120    0.0610    0.2190 C   0  0  0  0  0  0  0  0  0  0  0  0
    3.9210    0.7670    1.1190 N   0  0  0  0  0  0  0  0  0  0  0  0
    5.1740    1.1450    0.8190 C   0  0  0  0  0  0  0  0  0  0  0  0
    5.9470    1.9280    1.8300 C   0  0  0  0  0  0  0  0  0  0  0  0
    1.8380   -0.3400    0.5750 C   0  0  0  0  0  0  0  0  0  0  0  0
    1.1260   -1.0270   -0.4320 N   0  0  0  0  0  0  0  0  0  0  0  0
   -0.1010   -0.4600   -0.8740 C   0  0  0  0  0  0  0  0  0  0  0  0
   -1.1220   -0.5530    0.2470 C   0  0  1  0  0  0  0  0  0  0  0  0
   -2.3310    0.2290   -0.1500 C   0  0  0  0  0  0  0  0  0  0  0  0
   -3.4930   -0.4940   -0.4670 N   0  0  0  0  0  0  0  0  0  0  0  0
   -4.6310   -0.3960    0.3640 C   0  0  0  0  0  0  0  0  0  0  0  0
   -5.1390    0.9430    0.4550 N   0  0  0  0  0  0  0  0  0  0  0  0
   -4.8430    1.9780    1.3750 C   0  0  0  0  0  0  0  0  0  0  0  0
   -4.3010    1.8600    2.5000 O   0  0  0  0  0  0  0  0  0  0  0  0
   -5.2840    3.2880    0.8070 C   0  0  0  0  0  0  0  0  0  0  0  0
   -6.3670    2.8610   -0.0820 N   0  0  0  0  0  0  0  0  0  0  0  0
   -6.0990    1.5060   -0.4590 C   0  0  0  0  0  0  0  0  0  0  0  0
   -6.6540    0.9600   -1.4460 O   0  0  0  0  0  0  0  0  0  0  0  0
   -3.1720   -1.7850   -0.9660 C   0  0  0  0  0  0  0  0  0  0  0  0
   -2.2370   -2.5680   -0.1130 C   0  0  2  0  0  0  0  0  0  0  0  0
   -2.9850   -3.4860    0.8330 C   0  0  0  0  0  0  0  0  0  0  0  0
   -1.3450   -1.8460    0.6150 O   0  0  0  0  0  0  0  0  0  0  0  0
    1.8680   -1.7820   -1.3740 C   0  0  0  0  0  0  0  0  0  0  0  0
    3.0230   -1.0320   -1.9900 C   0  0  0  0  0  0  0  0  0  0  0  0
  1  2  1  0
  2  3  2  0
  2  7  1  0
  3  4  1  0
  4  5  2  0
  4 28  1  0
  5  6  1  0
  5  9  1  0
  6  7  2  0
  7  8  1  0
  9 10  1  0
 10 11  1  0
 10 27  1  0
 12 11  1  6
 12 13  1  0
 12 26  1  0
 13 14  1  0
 14 15  1  0
 14 23  1  0
 15 16  1  0
 16 17  1  0
 16 21  1  0
 17 18  2  0
 17 19  1  0
 19 20  1  0
 20 21  1  0
 21 22  2  0
 23 24  1  0
 24 25  1  1
 24 26  1  0
 27 28  1  0
M  CHG  1   6   1
M  END
