
     RDKit          3D

 20 19  0  0  0  0  0  0  0  0999 V2000
    5.9600    0.4190   -0.4730 C   0  0  0  0  0  0  0  0  0  0  0  0
    5.1690   -0.5710    0.1530 O   0  0  0  0  0  0  0  0  0  0  0  0
    4.1720   -1.1790   -0.5940 C   0  0  0  0  0  0  0  0  0  0  0  0
    4.5580   -2.0640   -1.6780 C   0  0  0  0  0  0  0  0  0  0  0  0
    3.6510   -2.6130   -2.3540 O   0  0  0  0  0  0  0  0  0  0  0  0
    2.8940   -0.9410   -0.3040 C   0  0  0  0  0  0  0  0  0  0  0  0
    2.5690   -0.1000    0.7250 O   0  0  0  0  0  0  0  0  0  0  0  0
    1.3860    0.4710    0.8950 O   0  0  0  0  0  0  0  0  0  0  0  0
    0.6650    0.4490   -0.1890 O   0  0  0  0  0  0  0  0  0  0  0  0
   -0.3700   -0.3180   -0.0770 O   0  0  0  0  0  0  0  0  0  0  0  0
   -1.4660    0.3340    0.5330 C   0  0  1  0  0  0  0  0  0  0  0  0
   -1.0120    0.7530    1.8860 C   0  0  0  0  0  0  0  0  0  0  0  0
   -1.7360    1.5390   -0.3000 C   0  0  2  0  0  0  0  0  0  0  0  0
   -3.1420    2.5690    0.2990 P   0  0  0  0  0  0  0  0  0  0  0  0
   -1.9110    1.1070   -2.1030 P   0  0  0  0  0  0  0  0  0  0  0  0
   -2.9360    1.8010   -3.0260 O   0  0  0  0  0  0  0  0  0  0  0  0
   -2.5530   -0.6730    0.6010 C   0  0  2  0  0  0  0  0  0  0  0  0
   -2.8930   -1.2740   -0.7370 C   0  0  0  0  0  0  0  0  0  0  0  0
   -3.8210   -0.2290    1.2530 C   0  0  0  0  0  0  0  0  0  0  0  0
   -2.0590   -1.7430    1.3800 O   0  0  0  0  0  0  0  0  0  0  0  0
  1  2  1  0
  2  3  1  0
  3  4  1  0
  3  6  2  3
  4  5  2  0
  6  7  1  0
  7  8  1  0
  8  9  1  0
  9 10  1  0
 10 11  1  0
 11 12  1  1
 11 13  1  0
 11 17  1  0
 13 14  1  1
 13 15  1  0
 15 16  2  0
 17 18  1  6
 17 19  1  0
 17 20  1  0
M  END
