
     RDKit          3D

 20 20  0  0  0  0  0  0  0  0999 V2000
    5.6330    0.6110   -0.0940 C   0  0  0  0  0  0  0  0  0  0  0  0
    4.7180   -0.5680    0.0570 C   0  0  0  0  0  0  0  0  0  0  0  0
    4.8640   -1.6190   -0.6290 O   0  0  0  0  0  0  0  0  0  0  0  0
    3.6780   -0.5280    0.9660 O   0  0  0  0  0  0  0  0  0  0  0  0
    2.8250   -1.5510    1.1480 O   0  0  0  0  0  0  0  0  0  0  0  0
    1.7800   -1.5680   -0.2230 S   0  0  0  0  0  0  0  0  0  0  0  0
    0.8100    0.2640   -0.5440 P   0  0  0  0  0  0  0  0  0  0  0  0
   -0.9940    0.2240   -0.4700 C   0  0  0  0  0  0  0  0  0  0  0  0
   -1.6410    1.3580   -0.4240 C   0  0  0  0  0  0  0  0  0  0  0  0
   -0.9520    2.6440   -0.4140 C   0  0  0  0  0  0  0  0  0  0  0  0
    0.2780    2.7680   -0.4460 O   0  0  0  0  0  0  0  0  0  0  0  0
   -1.6990    3.8140   -0.3660 O   0  0  0  0  0  0  0  0  0  0  0  0
   -3.1040    1.3330   -0.5100 C   0  0  0  0  0  0  0  0  0  0  0  0
   -3.7270    0.1830   -0.6450 C   0  0  0  0  0  0  0  0  0  0  0  0
   -3.0740   -1.1200   -0.7290 C   0  0  0  0  0  0  0  0  0  0  0  0
   -1.6440   -1.0920   -0.3580 C   0  0  1  0  0  0  0  0  0  0  0  0
   -0.8960   -2.0530   -1.0650 O   0  0  0  0  0  0  0  0  0  0  0  0
   -1.5720   -1.5040    1.1070 C   0  0  0  0  0  0  0  0  0  0  0  0
   -0.3070   -1.6250    1.6390 O   0  0  0  0  0  0  0  0  0  0  0  0
   -2.9490   -1.7760    1.9570 P   0  0  0  0  0  0  0  0  0  0  0  0
  1  2  1  0
  2  3  2  0
  2  4  1  0
  4  5  1  0
  5  6  1  0
  6  7  1  0
  7  8  1  0
  8  9  2  0
  8 16  1  0
  9 10  1  0
  9 13  1  0
 10 11  2  0
 10 12  1  0
 13 14  2  0
 14 15  1  0
 15 16  1  0
 16 17  1  6
 16 18  1  0
 18 19  1  0
 18 20  2  0
M  END
