
     RDKit          3D

 20 20  0  0  0  0  0  0  0  0999 V2000
    5.2190   -2.3620    0.4520 C   0  0  0  0  0  0  0  0  0  0  0  0
    5.1860   -0.5790    0.9220 P   0  0  0  0  0  0  0  0  0  0  0  0
    6.8030    0.2030    0.5300 C   0  0  0  0  0  0  0  0  0  0  0  0
    3.7660    0.3290    0.1820 C   0  0  0  0  0  0  0  0  0  0  0  0
    2.7700   -0.5340   -0.2730 O   0  0  0  0  0  0  0  0  0  0  0  0
    1.7620    0.1100   -0.7980 O   0  0  0  0  0  0  0  0  0  0  0  0
    0.8190    0.3900    0.2110 C   0  0  0  0  0  0  0  0  0  0  0  0
   -0.2880    1.0820   -0.2970 O   0  0  0  0  0  0  0  0  0  0  0  0
   -1.0500    0.4850   -1.2910 C   0  0  0  0  0  0  0  0  0  0  0  0
   -2.3750    0.3780   -1.1720 C   0  0  0  0  0  0  0  0  0  0  0  0
   -3.1310   -0.2200   -2.1690 O   0  0  0  0  0  0  0  0  0  0  0  0
   -4.5210   -0.3170   -2.0150 C   0  0  0  0  0  0  0  0  0  0  0  0
   -5.2180   -0.8600   -2.9190 O   0  0  0  0  0  0  0  0  0  0  0  0
   -5.1810    0.2000   -0.8250 C   0  0  0  0  0  0  0  0  0  0  0  0
   -6.5580    0.1230   -0.6350 O   0  0  0  0  0  0  0  0  0  0  0  0
   -4.4150    0.7620    0.0980 C   0  0  0  0  0  0  0  0  0  0  0  0
   -5.0910    1.2950    1.3240 C   0  0  0  0  0  0  0  0  0  0  0  0
   -6.9130    1.0310    1.2540 P   0  0  0  0  0  0  0  0  0  0  0  0
   -7.6400   -0.1510    1.9480 O   0  0  0  0  0  0  0  0  0  0  0  0
   -3.0390    0.8590   -0.0520 O   0  0  0  0  0  0  0  0  0  0  0  0
  1  2  1  0
  2  3  1  0
  2  4  1  0
  4  5  1  0
  5  6  1  0
  6  7  1  0
  7  8  1  0
  8  9  1  0
  9 10  2  3
 10 11  1  0
 10 20  1  0
 11 12  1  0
 12 13  2  0
 12 14  1  0
 14 15  1  0
 14 16  2  0
 16 17  1  0
 16 20  1  0
 17 18  1  0
 18 19  2  0
M  END
