
     RDKit          3D

 20 19  0  0  0  0  0  0  0  0999 V2000
   -5.0700   -0.0980   -3.1230 C   0  0  0  0  0  0  0  0  0  0  0  0
   -4.5150    1.1200   -2.7770 O   0  0  0  0  0  0  0  0  0  0  0  0
   -4.0180    1.1090   -1.5590 O   0  0  0  0  0  0  0  0  0  0  0  0
   -2.8250    0.4370   -1.5420 C   0  0  0  0  0  0  0  0  0  0  0  0
   -2.1800    0.3660   -0.2180 C   0  0  0  0  0  0  0  0  0  0  0  0
   -0.8680   -0.3640   -0.1610 C   0  0  0  0  0  0  0  0  0  0  0  0
    0.0020    0.2890   -1.0070 O   0  0  0  0  0  0  0  0  0  0  0  0
    1.1840   -0.2430   -1.0530 O   0  0  0  0  0  0  0  0  0  0  0  0
    1.9930    0.3110   -0.1470 O   0  0  0  0  0  0  0  0  0  0  0  0
    2.9970   -0.4690    0.4280 C   0  0  0  0  0  0  0  0  0  0  0  0
    2.6660   -2.0000    0.9720 P   0  0  0  0  0  0  0  0  0  0  0  0
    4.5890    0.2330    0.5430 S   0  0  2  0  0  0  0  0  0  0  0  0
    4.7850    1.0970    2.0750 C   0  0  0  0  0  0  0  0  0  0  0  0
    4.7940    1.1730   -0.6040 O   0  0  0  0  0  0  0  0  0  0  0  0
    5.8880   -1.1890    0.3610 P   0  0  0  0  0  0  0  0  0  0  0  0
    6.4220   -1.6260   -1.3770 C   0  0  0  0  0  0  0  0  0  0  0  0
   -2.6770    0.8900    0.8740 C   0  0  0  0  0  0  0  0  0  0  0  0
   -3.9550    1.6150    0.8830 C   0  0  0  0  0  0  0  0  0  0  0  0
   -1.9720    0.7570    2.0760 O   0  0  0  0  0  0  0  0  0  0  0  0
   -2.3440   -0.3020    2.9340 C   0  0  0  0  0  0  0  0  0  0  0  0
  1  2  1  0
  2  3  1  0
  3  4  1  0
  4  5  1  0
  5  6  1  0
  5 17  2  3
  6  7  1  0
  7  8  1  0
  8  9  1  0
  9 10  1  0
 10 11  2  0
 10 12  1  0
 12 13  1  1
 12 14  2  0
 12 15  2  0
 15 16  1  0
 17 18  1  0
 17 19  1  0
 19 20  1  0
M  END
