
     RDKit          3D

 23 25  0  0  0  0  0  0  0  0999 V2000
   -5.6030    2.0580    0.5020 N   0  0  0  0  0  0  0  0  0  0  0  0
   -4.7840    0.9340    0.2190 C   0  0  0  0  0  0  0  0  0  0  0  0
   -5.3060   -0.1290   -0.4180 N   0  0  0  0  0  0  0  0  0  0  0  0
   -4.5750   -1.2240   -0.7120 C   0  0  0  0  0  0  0  0  0  0  0  0
   -3.2830   -1.2200   -0.3420 N   0  0  0  0  0  0  0  0  0  0  0  0
   -2.6890   -0.1990    0.2960 C   0  0  0  0  0  0  0  0  0  0  0  0
   -3.4560    0.9080    0.5860 C   0  0  0  0  0  0  0  0  0  0  0  0
   -2.6390    1.7710    1.2140 N   0  0  0  0  0  0  0  0  0  0  0  0
   -1.3980    1.2110    1.3110 C   0  0  0  0  0  0  0  0  0  0  0  0
   -1.4250   -0.0100    0.7430 N   0  0  0  0  0  0  0  0  0  0  0  0
   -0.3610   -0.9860    0.5980 C   0  0  2  0  0  0  0  0  0  0  0  0
    0.8470   -0.4850    1.0040 O   0  0  0  0  0  0  0  0  0  0  0  0
    1.8080   -0.8290    0.0710 C   0  0  2  0  0  0  0  0  0  0  0  0
    3.0020    0.0900    0.1330 C   0  0  0  0  0  0  0  0  0  0  0  0
    3.6190    0.0640    1.3770 O   0  0  0  0  0  0  0  0  0  0  0  0
    4.9330    1.1350    1.3020 P   0  0  1  0  0  0  0  0  0  0  0  0
    5.0280    1.9720    2.5550 O   0  0  0  0  0  0  0  0  0  0  0  0
    6.3570    0.2790    1.0750 O   0  0  0  0  0  0  0  0  0  0  0  0
    4.7410    2.1950   -0.0170 O   0  0  0  0  0  0  0  0  0  0  0  0
    1.0580   -0.6460   -1.2320 C   0  0  1  0  0  0  0  0  0  0  0  0
    1.6720   -1.2380   -2.3060 O   0  0  0  0  0  0  0  0  0  0  0  0
   -0.2650   -1.3280   -0.8660 C   0  0  1  0  0  0  0  0  0  0  0  0
   -0.0370   -2.7060   -1.0030 O   0  0  0  0  0  0  0  0  0  0  0  0
  1  2  1  0
  2  3  2  0
  2  7  1  0
  3  4  1  0
  4  5  2  0
  5  6  1  0
  6  7  2  0
  6 10  1  0
  7  8  1  0
  8  9  2  0
  9 10  1  0
 11 10  1  6
 11 12  1  0
 11 22  1  0
 12 13  1  0
 13 14  1  6
 13 20  1  0
 14 15  1  0
 15 16  1  0
 16 17  2  0
 16 18  1  6
 16 19  1  0
 20 21  1  6
 20 22  1  0
 22 23  1  1
M  END
