
     RDKit          3D

 20 19  0  0  0  0  0  0  0  0999 V2000
    4.4040    1.8620    0.5380 C   0  0  0  0  0  0  0  0  0  0  0  0
    3.3060    1.0930    0.4870 O   0  0  0  0  0  0  0  0  0  0  0  0
    3.3090   -0.2250    0.6930 C   0  0  2  0  0  0  0  0  0  0  0  0
    3.8260   -0.6250    2.0790 C   0  0  0  0  0  0  0  0  0  0  0  0
    4.0970   -1.0220   -0.2890 C   0  0  0  0  0  0  0  0  0  0  0  0
    5.8680   -0.5770   -0.2780 P   0  0  0  0  0  0  0  0  0  0  0  0
    1.8750   -0.7100    0.6040 C   0  0  0  0  0  0  0  0  0  0  0  0
    1.5980   -1.9180    0.7600 O   0  0  0  0  0  0  0  0  0  0  0  0
    0.8380    0.2630    0.3320 C   0  0  0  0  0  0  0  0  0  0  0  0
    1.1110    1.4820    0.1730 O   0  0  0  0  0  0  0  0  0  0  0  0
   -0.4920   -0.1720    0.2470 O   0  0  0  0  0  0  0  0  0  0  0  0
   -1.4350    0.7220   -0.0010 O   0  0  0  0  0  0  0  0  0  0  0  0
   -2.5520    0.4010    0.6320 O   0  0  0  0  0  0  0  0  0  0  0  0
   -3.7610    0.5590   -0.0500 C   0  0  0  0  0  0  0  0  0  0  0  0
   -3.8610    1.5360   -0.9170 C   0  0  0  0  0  0  0  0  0  0  0  0
   -5.0450    1.7190   -1.6090 O   0  0  0  0  0  0  0  0  0  0  0  0
   -4.8990   -0.3370    0.1850 C   0  0  1  0  0  0  0  0  0  0  0  0
   -5.2930   -0.2380    1.6600 C   0  0  0  0  0  0  0  0  0  0  0  0
   -5.9790    0.0750   -0.5610 O   0  0  0  0  0  0  0  0  0  0  0  0
   -4.5080   -2.1060   -0.2170 P   0  0  0  0  0  0  0  0  0  0  0  0
  1  2  1  0
  2  3  1  0
  3  4  1  1
  3  5  1  0
  3  7  1  0
  5  6  1  0
  7  8  2  0
  7  9  1  0
  9 10  2  0
  9 11  1  0
 11 12  1  0
 12 13  1  0
 13 14  1  0
 14 15  2  3
 14 17  1  0
 15 16  1  0
 17 18  1  1
 17 19  1  0
 17 20  1  0
M  END
