
     RDKit          3D

 20 20  0  0  0  0  0  0  0  0999 V2000
    4.0750   -0.9270   -0.3810 C   0  0  0  0  0  0  0  0  0  0  0  0
    3.7460    0.8460   -0.7110 P   0  0  0  0  0  0  0  0  0  0  0  0
    2.0950    1.4190   -0.1330 C   0  0  0  0  0  0  0  0  0  0  0  0
    1.0910    0.2920   -0.2170 C   0  0  2  0  0  0  0  0  0  0  0  0
    0.9860   -0.1670   -1.6420 C   0  0  0  0  0  0  0  0  0  0  0  0
   -0.2750    0.7470    0.3050 C   0  0  1  0  0  0  0  0  0  0  0  0
   -0.1290    1.1350    1.6150 O   0  0  0  0  0  0  0  0  0  0  0  0
   -0.7920    1.7460   -0.4730 O   0  0  0  0  0  0  0  0  0  0  0  0
   -2.3100    2.2730    0.1170 P   0  0  0  0  0  0  0  0  0  0  0  0
   -2.0810    3.7900    0.9370 O   0  0  0  0  0  0  0  0  0  0  0  0
   -3.0850    1.1820    1.1850 O   0  0  0  0  0  0  0  0  0  0  0  0
   -1.1320   -0.4880    0.1880 C   0  0  0  0  0  0  0  0  0  0  0  0
   -1.5740   -1.0650    1.2860 C   0  0  0  0  0  0  0  0  0  0  0  0
   -2.4050   -2.2600    1.1860 C   0  0  0  0  0  0  0  0  0  0  0  0
   -2.9520   -2.9760    2.5260 S   0  0  0  0  0  0  0  0  0  0  0  0
   -2.7280   -2.7930   -0.1250 C   0  0  0  0  0  0  0  0  0  0  0  0
   -3.4360   -3.8160   -0.2890 O   0  0  0  0  0  0  0  0  0  0  0  0
   -2.1850   -2.0750   -1.2830 C   0  0  0  0  0  0  0  0  0  0  0  0
   -2.4690   -2.5420   -2.4290 O   0  0  0  0  0  0  0  0  0  0  0  0
   -1.4160   -0.9610   -1.0780 O   0  0  0  0  0  0  0  0  0  0  0  0
  1  2  1  0
  2  3  1  0
  3  4  1  0
  4  5  1  6
  4  6  1  0
  6  7  1  1
  6  8  1  0
  6 12  1  0
  8  9  1  0
  9 10  1  0
  9 11  1  0
 12 13  2  0
 12 20  1  0
 13 14  1  0
 14 15  2  0
 14 16  1  0
 16 17  2  0
 16 18  1  0
 18 19  2  0
 18 20  1  0
M  END
