
     RDKit          3D

 19 19  0  0  0  0  0  0  0  0999 V2000
   -4.0860    1.6110    0.3700 C   0  0  0  0  0  0  0  0  0  0  0  0
   -3.1390    0.0360    0.2720 P   0  0  0  0  0  0  0  0  0  0  0  0
   -3.7140   -1.2250    1.4790 C   0  0  0  0  0  0  0  0  0  0  0  0
   -1.3160    0.2810    0.2990 C   0  0  0  0  0  0  0  0  0  0  0  0
   -0.7160   -0.6280   -0.7430 C   0  0  2  0  0  0  0  0  0  0  0  0
   -1.2530   -0.2960   -2.0900 C   0  0  0  0  0  0  0  0  0  0  0  0
   -1.0590   -2.0340   -0.3240 C   0  0  0  0  0  0  0  0  0  0  0  0
   -2.1180   -2.6700   -0.5490 O   0  0  0  0  0  0  0  0  0  0  0  0
    0.0720   -2.4600    0.3710 O   0  0  0  0  0  0  0  0  0  0  0  0
    1.0140   -1.5320    0.3790 O   0  0  0  0  0  0  0  0  0  0  0  0
    0.7900   -0.6800   -0.6780 C   0  0  2  0  0  0  0  0  0  0  0  0
    1.4000    0.6890   -0.4240 C   0  0  0  0  0  0  0  0  0  0  0  0
    2.7680    0.4870   -0.2540 O   0  0  0  0  0  0  0  0  0  0  0  0
    3.4360    1.6880   -0.0110 C   0  0  0  0  0  0  0  0  0  0  0  0
    4.9140    1.4710    0.1720 C   0  0  0  0  0  0  0  0  0  0  0  0
    5.1590    0.6250    1.2510 O   0  0  0  0  0  0  0  0  0  0  0  0
    1.3010   -1.1390   -1.8770 O   0  0  0  0  0  0  0  0  0  0  0  0
    0.7410   -2.7260   -2.2730 P   0  0  0  0  0  0  0  0  0  0  0  0
    1.2370   -3.9730   -1.4780 O   0  0  0  0  0  0  0  0  0  0  0  0
  1  2  1  0
  2  3  1  0
  2  4  1  0
  4  5  1  0
  5  6  1  6
  5  7  1  0
  5 11  1  0
  7  8  2  0
  7  9  1  0
  9 10  1  0
 10 11  1  0
 11 12  1  1
 11 17  1  0
 12 13  1  0
 13 14  1  0
 14 15  1  0
 15 16  1  0
 17 18  1  0
 18 19  2  0
M  END
