
     RDKit          3D

 20 20  0  0  0  0  0  0  0  0999 V2000
    3.4030   -2.8490   -0.5890 C   0  0  0  0  0  0  0  0  0  0  0  0
    2.9380   -1.6220   -0.9980 O   0  0  0  0  0  0  0  0  0  0  0  0
    3.5430   -0.4210    0.1100 P   0  0  0  0  0  0  0  0  0  0  0  0
    5.1190    0.3090   -0.5270 C   0  0  0  0  0  0  0  0  0  0  0  0
    2.3440    0.8820    0.2480 O   0  0  0  0  0  0  0  0  0  0  0  0
    1.1670    0.6970    0.9610 C   0  0  0  0  0  0  0  0  0  0  0  0
    1.0050   -0.4310    1.4970 O   0  0  0  0  0  0  0  0  0  0  0  0
    0.1550    1.7690    1.0890 C   0  0  1  0  0  0  0  0  0  0  0  0
    0.6290    2.9060    0.3800 O   0  0  0  0  0  0  0  0  0  0  0  0
   -0.1670    4.0100    0.1060 C   0  0  0  0  0  0  0  0  0  0  0  0
    0.5120    5.5080   -0.6010 S   0  0  0  0  0  0  0  0  0  0  0  0
   -1.7760    3.7890    0.4960 P   0  0  0  0  0  0  0  0  0  0  0  0
   -2.1360    2.2240    1.1680 O   0  0  0  0  0  0  0  0  0  0  0  0
   -1.1850    1.3840    0.5700 C   0  0  2  0  0  0  0  0  0  0  0  0
   -1.5580    0.0610    0.8930 O   0  0  0  0  0  0  0  0  0  0  0  0
   -2.8240   -0.3420    0.4180 C   0  0  0  0  0  0  0  0  0  0  0  0
   -3.8540    0.5880    0.4070 O   0  0  0  0  0  0  0  0  0  0  0  0
   -3.0550   -1.5500   -0.0080 C   0  0  0  0  0  0  0  0  0  0  0  0
   -4.3890   -1.9360   -0.4970 C   0  0  0  0  0  0  0  0  0  0  0  0
   -1.9670   -2.5490   -0.0010 C   0  0  0  0  0  0  0  0  0  0  0  0
  1  2  1  0
  2  3  1  0
  3  4  1  0
  3  5  1  0
  5  6  1  0
  6  7  2  0
  8  6  1  6
  8  9  1  0
  8 14  1  0
  9 10  1  0
 10 11  1  0
 10 12  2  0
 12 13  1  0
 13 14  1  0
 14 15  1  1
 15 16  1  0
 16 17  1  0
 16 18  2  3
 18 19  1  0
 18 20  1  0
M  END
