
     RDKit          3D

 13 14  0  0  0  0  0  0  0  0999 V2000
    3.2930    1.9950    0.3510 O   0  0  0  0  0  0  0  0  0  0  0  0
    2.6800    0.9710   -0.0320 C   0  0  0  0  0  0  0  0  0  0  0  0
    2.7870   -0.3580    0.4670 N   0  0  0  0  0  0  0  0  0  0  0  0
    1.8810   -1.1290   -0.3130 C   0  0  0  0  0  0  0  0  0  0  0  0
    1.8460   -2.3710   -0.3370 O   0  0  0  0  0  0  0  0  0  0  0  0
    1.0050   -0.2010   -1.0750 C   0  0  1  0  0  0  0  0  0  0  0  0
   -0.3180   -0.0550   -0.4330 C   0  0  0  0  0  0  0  0  0  0  0  0
   -1.1180    1.0430   -0.7200 C   0  0  0  0  0  0  0  0  0  0  0  0
   -2.3550    1.1960   -0.1320 C   0  0  0  0  0  0  0  0  0  0  0  0
   -2.8420    0.2650    0.7630 C   0  0  0  0  0  0  0  0  0  0  0  0
   -2.0370   -0.8210    1.0390 C   0  0  0  0  0  0  0  0  0  0  0  0
   -0.7870   -0.9940    0.4570 C   0  0  0  0  0  0  0  0  0  0  0  0
    1.7450    0.9910   -1.0720 O   0  0  0  0  0  0  0  0  0  0  0  0
  1  2  2  0
  2  3  1  0
  2 13  1  0
  3  4  1  0
  4  5  2  0
  4  6  1  0
  6  7  1  1
  6 13  1  0
  7  8  2  0
  7 12  1  0
  8  9  1  0
  9 10  2  0
 10 11  1  0
 11 12  2  0
M  END
