
     RDKit          3D

 15 16  0  0  0  0  0  0  0  0999 V2000
    3.5670    1.7670    1.3940 O   0  0  0  0  0  0  0  0  0  0  0  0
    2.7970    1.2400    0.5320 C   0  0  0  0  0  0  0  0  0  0  0  0
    1.7070    0.3560    0.8080 N   0  0  0  0  0  0  0  0  0  0  0  0
    1.3580   -0.1260   -0.5230 C   0  0  1  0  0  0  0  0  0  0  0  0
    2.5460   -0.8480   -0.8840 O   0  0  0  0  0  0  0  0  0  0  0  0
    0.2550   -1.0090   -0.6480 C   0  0  2  0  0  0  0  0  0  0  0  0
    0.1270   -1.3370   -2.0380 O   0  0  0  0  0  0  0  0  0  0  0  0
   -1.1010   -0.8600   -0.1720 C   0  0  2  0  0  0  0  0  0  0  0  0
   -1.8410    0.3400   -0.7330 C   0  0  0  0  0  0  0  0  0  0  0  0
   -2.5880    0.8810    0.3090 O   0  0  0  0  0  0  0  0  0  0  0  0
   -1.7170    0.7420    1.3930 C   0  0  0  0  0  0  0  0  0  0  0  0
   -1.4160   -0.7520    1.2620 C   0  0  1  0  0  0  0  0  0  0  0  0
   -2.6680   -1.3460    1.5550 O   0  0  0  0  0  0  0  0  0  0  0  0
    1.5220    1.1360   -1.2810 C   0  0  0  0  0  0  0  0  0  0  0  0
    2.8830    1.4380   -0.8660 O   0  0  0  0  0  0  0  0  0  0  0  0
  1  2  2  0
  2  3  1  0
  2 15  1  0
  3  4  1  0
  4  5  1  6
  4  6  1  0
  4 14  1  0
  6  7  1  6
  6  8  1  0
  8  9  1  6
  8 12  1  0
  9 10  1  0
 10 11  1  0
 11 12  1  0
 12 13  1  6
 14 15  1  0
M  END
