
     RDKit          3D

 15 15  0  0  0  0  0  0  0  0999 V2000
    4.7960    1.1830   -0.1670 N   0  0  0  0  0  0  0  0  0  0  0  0
    3.3550    0.9620   -0.2230 C   0  0  0  0  0  0  0  0  0  0  0  0
    2.9990   -0.0380    0.6690 O   0  0  0  0  0  0  0  0  0  0  0  0
    1.6060   -0.2780    0.6760 C   0  0  0  0  0  0  0  0  0  0  0  0
    1.1270   -0.7070   -0.6640 C   0  0  1  0  0  0  0  0  0  0  0  0
    1.8800   -1.8600   -1.0200 O   0  0  0  0  0  0  0  0  0  0  0  0
   -0.3450   -1.1100   -0.7070 C   0  0  2  0  0  0  0  0  0  0  0  0
   -0.6270   -1.5450   -2.0220 O   0  0  0  0  0  0  0  0  0  0  0  0
   -1.2380    0.0380   -0.3310 C   0  0  2  0  0  0  0  0  0  0  0  0
   -1.0040    0.4160    0.9570 O   0  0  0  0  0  0  0  0  0  0  0  0
   -2.1710    0.4120    1.7440 C   0  0  0  0  0  0  0  0  0  0  0  0
   -3.2000    1.2080    0.9830 C   0  0  0  0  0  0  0  0  0  0  0  0
   -3.6040    0.4740   -0.1080 O   0  0  0  0  0  0  0  0  0  0  0  0
   -2.6640   -0.4030   -0.5810 C   0  0  1  0  0  0  0  0  0  0  0  0
   -2.8140   -0.4760   -1.9790 O   0  0  0  0  0  0  0  0  0  0  0  0
  1  2  1  0
  2  3  1  0
  3  4  1  0
  4  5  1  0
  5  6  1  1
  5  7  1  0
  7  8  1  6
  7  9  1  0
  9 10  1  1
  9 14  1  0
 10 11  1  0
 11 12  1  0
 12 13  1  0
 13 14  1  0
 14 15  1  6
M  END
