
     RDKit          3D

 14 15  0  0  0  0  0  0  0  0999 V2000
   -3.1420    0.9610   -0.4760 N   0  0  0  0  0  0  0  0  0  0  0  0
   -1.7830    1.0900   -0.9050 C   0  0  1  0  0  0  0  0  0  0  0  0
   -1.2760    2.3720   -0.6370 O   0  0  0  0  0  0  0  0  0  0  0  0
   -0.9150    0.0330   -0.1910 C   0  0  2  0  0  0  0  0  0  0  0  0
    0.4940    0.1330   -0.6060 C   0  0  2  0  0  0  0  0  0  0  0  0
    0.5050   -0.0840   -2.0100 O   0  0  0  0  0  0  0  0  0  0  0  0
    1.4840   -0.8000   -0.0400 C   0  0  1  0  0  0  0  0  0  0  0  0
    2.8660   -0.3530   -0.5420 C   0  0  0  0  0  0  0  0  0  0  0  0
    3.6660   -0.4140    0.5790 O   0  0  0  0  0  0  0  0  0  0  0  0
    2.7780    0.0490    1.5740 C   0  0  0  0  0  0  0  0  0  0  0  0
    1.6710   -0.7750    1.3150 O   0  0  0  0  0  0  0  0  0  0  0  0
   -1.5380   -1.3500   -0.2880 C   0  0  0  0  0  0  0  0  0  0  0  0
   -1.4790   -0.5530    1.0020 C   0  0  1  0  0  0  0  0  0  0  0  0
   -0.8050   -1.0950    2.0640 O   0  0  0  0  0  0  0  0  0  0  0  0
  2  1  1  1
  2  3  1  0
  2  4  1  0
  4  5  1  0
  4 12  1  6
  4 13  1  0
  5  6  1  6
  5  7  1  0
  7  8  1  6
  7 11  1  0
  8  9  1  0
  9 10  1  0
 10 11  1  0
 12 13  1  0
 13 14  1  1
M  END
