
     RDKit          3D

 14 14  0  0  0  0  0  0  0  0999 V2000
   -3.1170    0.6180   -0.9610 C   0  0  0  0  0  0  0  0  0  0  0  0
   -2.1120    1.3450   -0.1220 C   0  0  1  0  0  0  0  0  0  0  0  0
   -2.5500    1.3770    1.1930 O   0  0  0  0  0  0  0  0  0  0  0  0
   -1.7410    0.4210    1.7890 C   0  0  0  0  0  0  0  0  0  0  0  0
   -0.4780    0.6650    1.2540 O   0  0  0  0  0  0  0  0  0  0  0  0
   -0.7450    0.7600   -0.1260 C   0  0  1  0  0  0  0  0  0  0  0  0
   -0.5920   -0.5790   -0.7000 C   0  0  1  0  0  0  0  0  0  0  0  0
   -0.8660   -0.7040   -2.0650 O   0  0  0  0  0  0  0  0  0  0  0  0
    0.7990   -1.0940   -0.5080 C   0  0  2  0  0  0  0  0  0  0  0  0
    0.8620   -2.5280   -0.8860 N   0  0  0  0  0  0  0  0  0  0  0  0
    1.3720   -0.9620    0.7140 O   0  0  0  0  0  0  0  0  0  0  0  0
    2.6550   -0.5080    0.7760 C   0  0  0  0  0  0  0  0  0  0  0  0
    2.9600    0.8450    0.2240 C   0  0  0  0  0  0  0  0  0  0  0  0
    2.2560    1.8350    0.8740 O   0  0  0  0  0  0  0  0  0  0  0  0
  2  1  1  6
  2  3  1  0
  2  6  1  0
  3  4  1  0
  4  5  1  0
  6  5  1  1
  6  7  1  0
  7  8  1  6
  7  9  1  0
  9 10  1  1
  9 11  1  0
 11 12  1  0
 12 13  1  0
 13 14  1  0
M  END
