
     RDKit          3D

 13 14  0  0  0  0  0  0  0  0999 V2000
    4.4740   -0.3590    0.2170 C   0  0  0  0  0  0  0  0  0  0  0  0
    3.0950   -0.0350    0.1730 O   0  0  0  0  0  0  0  0  0  0  0  0
    2.0930   -0.9850    0.0390 C   0  0  0  0  0  0  0  0  0  0  0  0
    2.4490   -2.1860   -0.0460 O   0  0  0  0  0  0  0  0  0  0  0  0
    0.6720   -0.5940   -0.0010 C   0  0  0  0  0  0  0  0  0  0  0  0
    0.2010    0.6830    0.0850 C   0  0  0  0  0  0  0  0  0  0  0  0
   -1.1880    0.6860    0.0130 C   0  0  0  0  0  0  0  0  0  0  0  0
   -1.5330   -0.6420   -0.1200 C   0  0  0  0  0  0  0  0  0  0  0  0
   -0.3970   -1.3890   -0.1250 N   0  0  0  0  0  0  0  0  0  0  0  0
   -2.8220   -0.9260   -0.2110 C   0  0  0  0  0  0  0  0  0  0  0  0
   -3.7890    0.0600   -0.1760 O   0  0  0  0  0  0  0  0  0  0  0  0
   -3.4850    1.4120   -0.0430 C   0  0  0  0  0  0  0  0  0  0  0  0
   -2.0420    1.6750    0.0550 C   0  0  0  0  0  0  0  0  0  0  0  0
  1  2  1  0
  2  3  1  0
  3  4  2  0
  3  5  1  0
  5  6  2  0
  5  9  1  0
  6  7  1  0
  7  8  1  0
  7 13  2  0
  8  9  1  0
  8 10  2  0
 10 11  1  0
 11 12  1  0
 12 13  1  0
M  END
