
     RDKit          3D

 14 14  0  0  0  0  0  0  0  0999 V2000
   -2.9300    1.0620   -1.0950 N   0  0  0  0  0  0  0  0  0  0  0  0
   -1.9200    1.3360   -0.0980 C   0  0  0  0  0  0  0  0  0  0  0  0
   -1.4810    0.0980    0.6270 C   0  0  1  0  0  0  0  0  0  0  0  0
   -2.5820   -0.5000    1.2960 O   0  0  0  0  0  0  0  0  0  0  0  0
   -0.8490   -0.9020   -0.3170 C   0  0  2  0  0  0  0  0  0  0  0  0
   -1.7890   -1.3360   -1.2650 O   0  0  0  0  0  0  0  0  0  0  0  0
   -0.3940   -2.1410    0.4180 C   0  0  0  0  0  0  0  0  0  0  0  0
    0.9970   -2.2150    0.3820 O   0  0  0  0  0  0  0  0  0  0  0  0
    1.6040   -1.1030    0.9160 C   0  0  0  0  0  0  0  0  0  0  0  0
    1.3690    0.0780    0.0210 C   0  0  1  0  0  0  0  0  0  0  0  0
    2.5540    0.5540   -0.5450 O   0  0  0  0  0  0  0  0  0  0  0  0
    2.8770    1.8310   -0.1710 C   0  0  0  0  0  0  0  0  0  0  0  0
    4.0710    2.1690   -0.8080 O   0  0  0  0  0  0  0  0  0  0  0  0
    0.3330   -0.2550   -0.9890 C   0  0  0  0  0  0  0  0  0  0  0  0
  1  2  1  0
  2  3  1  0
  3  4  1  6
  3  5  1  0
  5  6  1  6
  5  7  1  0
  5 14  1  0
  7  8  1  0
  8  9  1  0
  9 10  1  0
 10 11  1  6
 10 14  1  0
 11 12  1  0
 12 13  1  0
M  END
