
     RDKit          3D

 14 14  0  0  0  0  0  0  0  0999 V2000
    4.0870    0.8640   -1.0320 C   0  0  0  0  0  0  0  0  0  0  0  0
    3.2610   -0.0150   -1.9260 C   0  0  0  0  0  0  0  0  0  0  0  0
    2.2790   -0.7810   -1.1500 N   0  0  0  0  0  0  0  0  0  0  0  0
    2.6100   -2.0490   -0.6350 C   0  0  0  0  0  0  0  0  0  0  0  0
    3.7200   -2.5820   -0.5830 O   0  0  0  0  0  0  0  0  0  0  0  0
    1.0940   -2.7820   -0.0490 S   0  0  0  0  0  0  0  0  0  0  0  0
    0.1590   -1.2220   -0.0880 C   0  0  0  0  0  0  0  0  0  0  0  0
   -0.9980   -1.0790    0.5020 C   0  0  0  0  0  0  0  0  0  0  0  0
   -1.7690    0.1510    0.4910 C   0  0  0  0  0  0  0  0  0  0  0  0
   -2.9480    0.2540    1.1080 C   0  0  0  0  0  0  0  0  0  0  0  0
   -3.7350    1.4870    1.1040 C   0  0  0  0  0  0  0  0  0  0  0  0
   -3.4460   -0.9490    1.8140 C   0  0  0  0  0  0  0  0  0  0  0  0
    0.9900   -0.3430   -0.8640 C   0  0  0  0  0  0  0  0  0  0  0  0
    0.5330    0.7930   -1.2620 O   0  0  0  0  0  0  0  0  0  0  0  0
  1  2  1  0
  2  3  1  0
  3  4  1  0
  3 13  1  0
  4  5  2  0
  4  6  1  0
  6  7  1  0
  7  8  2  3
  7 13  1  0
  8  9  1  0
  9 10  2  3
 10 11  1  0
 10 12  1  0
 13 14  2  0
M  END
