
     RDKit          3D

 14 14  0  0  0  0  0  0  0  0999 V2000
   -4.1390    0.3350    0.8710 C   0  0  0  0  0  0  0  0  0  0  0  0
   -3.3290    0.7510   -0.3270 C   0  0  0  0  0  0  0  0  0  0  0  0
   -2.5680   -0.3970   -0.9360 C   0  0  0  0  0  0  0  0  0  0  0  0
   -1.5980   -1.0220    0.0510 C   0  0  0  0  0  0  0  0  0  0  0  0
   -0.6360    0.0140    0.4750 C   0  0  0  0  0  0  0  0  0  0  0  0
    0.6620   -0.1920    0.2330 C   0  0  0  0  0  0  0  0  0  0  0  0
    1.6720    0.7620    0.6110 C   0  0  0  0  0  0  0  0  0  0  0  0
    2.9430    0.5370    0.3610 C   0  0  0  0  0  0  0  0  0  0  0  0
    4.2970    1.6940    0.8070 S   0  0  0  0  0  0  0  0  0  0  0  0
    5.5550    0.4320    0.7090 C   0  0  0  0  0  0  0  0  0  0  0  0
    6.6680    0.4960    1.2480 O   0  0  0  0  0  0  0  0  0  0  0  0
    5.0300   -0.5910   -0.0730 N   0  0  0  0  0  0  0  0  0  0  0  0
    3.6430   -0.5450   -0.2640 C   0  0  0  0  0  0  0  0  0  0  0  0
    3.0380   -1.4240   -0.9620 O   0  0  0  0  0  0  0  0  0  0  0  0
  1  2  1  0
  2  3  1  0
  3  4  1  0
  4  5  1  0
  5  6  2  3
  6  7  1  0
  7  8  2  3
  8  9  1  0
  8 13  1  0
  9 10  1  0
 10 11  2  0
 10 12  1  0
 12 13  1  0
 13 14  2  0
M  END
