
     RDKit          3D

 14 14  0  0  0  0  0  0  0  0999 V2000
    3.2450   -1.4040   -0.1600 C   0  0  0  0  0  0  0  0  0  0  0  0
    2.9020   -0.1410   -0.2060 C   0  0  0  0  0  0  0  0  0  0  0  0
    4.1560    1.0780    0.1460 S   0  0  0  0  0  0  0  0  0  0  0  0
    5.7230    0.2770    0.5130 C   0  0  0  0  0  0  0  0  0  0  0  0
    1.5690    0.3310   -0.5260 C   0  0  0  0  0  0  0  0  0  0  0  0
    1.2790    1.5690   -0.5600 O   0  0  0  0  0  0  0  0  0  0  0  0
    0.4550   -0.5040   -0.8310 N   0  0  0  0  0  0  0  0  0  0  0  0
   -0.8400   -0.0560   -1.1410 C   0  0  0  0  0  0  0  0  0  0  0  0
   -1.5860    0.7480   -0.1590 C   0  0  2  0  0  0  0  0  0  0  0  0
   -1.7460   -0.0850    1.1060 C   0  0  0  0  0  0  0  0  0  0  0  0
   -2.8880   -1.0690    0.9720 C   0  0  0  0  0  0  0  0  0  0  0  0
   -4.1080   -0.4580    0.7830 O   0  0  0  0  0  0  0  0  0  0  0  0
   -4.0220    0.8510    0.3450 C   0  0  0  0  0  0  0  0  0  0  0  0
   -2.9650    1.0440   -0.7220 C   0  0  0  0  0  0  0  0  0  0  0  0
  1  2  2  0
  2  3  1  0
  2  5  1  0
  3  4  1  0
  5  6  2  0
  5  7  1  0
  7  8  1  0
  9  8  1  6
  9 10  1  0
  9 14  1  0
 10 11  1  0
 11 12  1  0
 12 13  1  0
 13 14  1  0
M  END
