
     RDKit          3D

 14 14  0  0  0  0  0  0  0  0999 V2000
    3.6990   -0.1060    1.4840 C   0  0  0  0  0  0  0  0  0  0  0  0
    2.9840   -0.6340    0.5000 C   0  0  0  0  0  0  0  0  0  0  0  0
    3.1520   -0.1890   -0.9100 C   0  0  0  0  0  0  0  0  0  0  0  0
    1.8140   -1.8780    0.8300 S   0  0  1  0  0  0  0  0  0  0  0  0
    1.8050   -2.8250   -0.3270 O   0  0  0  0  0  0  0  0  0  0  0  0
    2.2700   -2.6220    2.0520 O   0  0  0  0  0  0  0  0  0  0  0  0
    0.2650   -1.2210    1.1680 N   0  0  0  0  0  0  0  0  0  0  0  0
   -0.2760   -0.4670    0.0520 C   0  0  1  0  0  0  0  0  0  0  0  0
   -1.5710   -1.0520   -0.4070 C   0  0  0  0  0  0  0  0  0  0  0  0
   -2.7730   -0.4360    0.2490 C   0  0  0  0  0  0  0  0  0  0  0  0
   -3.0470    0.9690   -0.1720 C   0  0  0  0  0  0  0  0  0  0  0  0
   -2.1350    1.4960   -1.2300 C   0  0  0  0  0  0  0  0  0  0  0  0
   -0.8380    1.8910   -0.6070 C   0  0  0  0  0  0  0  0  0  0  0  0
   -0.3810    0.9630    0.4860 C   0  0  0  0  0  0  0  0  0  0  0  0
  1  2  2  0
  2  3  1  0
  2  4  1  0
  4  5  2  0
  4  6  2  0
  4  7  1  1
  8  7  1  1
  8  9  1  0
  8 14  1  0
  9 10  1  0
 10 11  1  0
 11 12  1  0
 12 13  1  0
 13 14  1  0
M  END
