
     RDKit          3D

 14 14  0  0  0  0  0  0  0  0999 V2000
    4.5860    1.1150   -0.5610 C   0  0  0  0  0  0  0  0  0  0  0  0
    3.7310    0.2560   -0.0190 C   0  0  0  0  0  0  0  0  0  0  0  0
    2.8320    0.6860    1.0600 C   0  0  0  0  0  0  0  0  0  0  0  0
    1.4590    0.5380    0.7260 O   0  0  0  0  0  0  0  0  0  0  0  0
    0.8830   -0.6750    0.4070 C   0  0  0  0  0  0  0  0  0  0  0  0
    1.6320   -1.6840    0.4190 O   0  0  0  0  0  0  0  0  0  0  0  0
   -0.5410   -0.7880    0.0670 C   0  0  0  0  0  0  0  0  0  0  0  0
   -1.3710    0.3110    0.0510 C   0  0  0  0  0  0  0  0  0  0  0  0
   -2.7090    0.2270   -0.2650 C   0  0  0  0  0  0  0  0  0  0  0  0
   -3.5020    1.4830   -0.2490 C   0  0  0  0  0  0  0  0  0  0  0  0
   -3.2230   -0.9550   -0.5660 N   0  0  0  0  0  0  0  0  0  0  0  0
   -2.4510   -2.0620   -0.5630 C   0  0  0  0  0  0  0  0  0  0  0  0
   -3.1240   -3.5010   -0.9400 S   0  0  0  0  0  0  0  0  0  0  0  0
   -1.0930   -2.0100   -0.2480 C   0  0  0  0  0  0  0  0  0  0  0  0
  1  2  2  0
  2  3  1  0
  3  4  1  0
  4  5  1  0
  5  6  2  0
  5  7  1  0
  7  8  1  0
  7 14  2  0
  8  9  2  0
  9 10  1  0
  9 11  1  0
 11 12  1  0
 12 13  2  0
 12 14  1  0
M  END
