
     RDKit          3D

 14 14  0  0  0  0  0  0  0  0999 V2000
   -2.5140    0.6040    2.0500 C   0  0  0  0  0  0  0  0  0  0  0  0
   -2.9380    0.4170    0.8250 C   0  0  0  0  0  0  0  0  0  0  0  0
   -4.0140    1.1940    0.3220 O   0  0  0  0  0  0  0  0  0  0  0  0
   -4.2980    0.7920   -0.9730 C   0  0  0  0  0  0  0  0  0  0  0  0
   -3.3230   -0.2550   -1.2480 C   0  0  0  0  0  0  0  0  0  0  0  0
   -2.5080   -0.4950   -0.2020 C   0  0  0  0  0  0  0  0  0  0  0  0
   -1.5120   -1.5590   -0.2100 C   0  0  0  0  0  0  0  0  0  0  0  0
   -0.1440   -1.3110   -0.3270 N   0  0  0  0  0  0  0  0  0  0  0  0
    0.8100   -0.6200    0.4170 C   0  0  0  0  0  0  0  0  0  0  0  0
    0.5080   -0.0460    1.4530 O   0  0  0  0  0  0  0  0  0  0  0  0
    2.2620   -0.5410   -0.0100 C   0  0  0  0  0  0  0  0  0  0  0  0
    3.0650    0.2510    0.9690 C   0  0  0  0  0  0  0  0  0  0  0  0
    4.7740    0.3020    0.3950 S   0  0  0  0  0  0  0  0  0  0  0  0
    4.9210    1.2400   -1.1510 C   0  0  0  0  0  0  0  0  0  0  0  0
  1  2  2  0
  2  3  1  0
  2  6  1  0
  3  4  1  0
  4  5  1  0
  5  6  2  0
  6  7  1  0
  7  8  1  0
  8  9  1  0
  9 10  2  0
  9 11  1  0
 11 12  1  0
 12 13  1  0
 13 14  1  0
M  END
