
     RDKit          3D

 26 28  0  0  0  0  0  0  0  0999 V2000
    7.2890   -0.3570    0.1040 C   0  0  0  0  0  0  0  0  0  0  0  0
    6.1000    0.4990   -0.2770 C   0  0  0  0  0  0  0  0  0  0  0  0
    4.9870   -0.4110   -0.5350 N   0  0  0  0  0  0  0  0  0  0  0  0
    3.7170    0.0880   -0.9190 C   0  0  0  0  0  0  0  0  0  0  0  0
    3.5250    1.3060   -1.0420 O   0  0  0  0  0  0  0  0  0  0  0  0
    2.6050   -0.9310   -1.1700 C   0  0  0  0  0  0  0  0  0  0  0  0
    1.3760   -0.2400   -1.5530 C   0  0  0  0  0  0  0  0  0  0  0  0
    0.1830   -0.2720   -1.0600 C   0  0  0  0  0  0  0  0  0  0  0  0
   -1.0270    0.4890   -1.5250 C   0  0  0  0  0  0  0  0  0  0  0  0
   -1.6330    0.8430   -0.1620 C   0  0  1  0  0  0  0  0  0  0  0  0
   -3.0650    1.1900   -0.3510 C   0  0  0  0  0  0  0  0  0  0  0  0
   -3.9300    0.3830    0.0320 O   0  0  0  0  0  0  0  0  0  0  0  0
   -3.4480    2.3990   -0.9470 O   0  0  0  0  0  0  0  0  0  0  0  0
   -4.8350    2.6290   -1.0780 C   0  0  0  0  0  0  0  0  0  0  0  0
   -5.1500    3.9390   -1.7220 C   0  0  0  0  0  0  0  0  0  0  0  0
   -4.6600    5.0280   -1.0270 O   0  0  0  0  0  0  0  0  0  0  0  0
   -1.4040   -0.3650    0.6320 C   0  0  0  0  0  0  0  0  0  0  0  0
   -0.3290   -1.0530    0.0490 C   0  0  0  0  0  0  0  0  0  0  0  0
    0.0440   -2.2600    0.6200 C   0  0  0  0  0  0  0  0  0  0  0  0
   -0.5940   -2.7860    1.7170 C   0  0  0  0  0  0  0  0  0  0  0  0
   -1.6400   -2.0850    2.2660 C   0  0  0  0  0  0  0  0  0  0  0  0
   -2.0600   -0.8660    1.7320 C   0  0  0  0  0  0  0  0  0  0  0  0
   -3.1120   -0.1880    2.3100 O   0  0  0  0  0  0  0  0  0  0  0  0
   -2.1280   -2.8030    3.3610 O   0  0  0  0  0  0  0  0  0  0  0  0
   -1.6650   -4.1310    3.2180 C   0  0  0  0  0  0  0  0  0  0  0  0
   -0.4430   -3.9420    2.4830 O   0  0  0  0  0  0  0  0  0  0  0  0
  1  2  1  0
  2  3  1  0
  3  4  1  0
  4  5  2  0
  4  6  1  0
  6  7  1  0
  7  8  2  3
  8  9  1  0
  8 18  1  0
  9 10  1  0
 10 11  1  6
 10 17  1  0
 11 12  2  0
 11 13  1  0
 13 14  1  0
 14 15  1  0
 15 16  1  0
 17 18  2  0
 17 22  1  0
 18 19  1  0
 19 20  2  0
 20 21  1  0
 20 26  1  0
 21 22  2  0
 21 24  1  0
 22 23  1  0
 24 25  1  0
 25 26  1  0
M  END
