
     RDKit          3D

 26 28  0  0  0  0  0  0  0  0999 V2000
    6.2780    1.8980   -0.9060 C   0  0  0  0  0  0  0  0  0  0  0  0
    5.0250    1.6480   -0.0940 C   0  0  1  0  0  0  0  0  0  0  0  0
    3.9550    1.2360   -1.0320 C   0  0  0  0  0  0  0  0  0  0  0  0
    3.5190    0.0230   -0.7260 C   0  0  0  0  0  0  0  0  0  0  0  0
    2.5360   -0.7570   -1.3240 O   0  0  0  0  0  0  0  0  0  0  0  0
    2.2770   -2.0090   -0.7910 C   0  0  0  0  0  0  0  0  0  0  0  0
    1.2090   -2.8290   -1.4580 C   0  0  0  0  0  0  0  0  0  0  0  0
    0.0180   -2.0970   -1.3780 O   0  0  0  0  0  0  0  0  0  0  0  0
   -0.5790   -1.7030   -0.1830 C   0  0  0  0  0  0  0  0  0  0  0  0
   -0.0130   -2.0250    0.9010 O   0  0  0  0  0  0  0  0  0  0  0  0
   -1.7420   -0.9890   -0.1110 O   0  0  0  0  0  0  0  0  0  0  0  0
   -2.3050   -0.6140    1.1490 C   0  0  0  0  0  0  0  0  0  0  0  0
   -3.5600    0.1500    0.9410 C   0  0  0  0  0  0  0  0  0  0  0  0
   -4.0720    0.4350   -0.3070 C   0  0  0  0  0  0  0  0  0  0  0  0
   -5.2280    1.1390   -0.5090 C   0  0  0  0  0  0  0  0  0  0  0  0
   -5.7610    1.4360   -1.8320 C   0  0  0  0  0  0  0  0  0  0  0  0
   -6.8220    2.0820   -1.9900 O   0  0  0  0  0  0  0  0  0  0  0  0
   -5.0900    0.9980   -2.9610 O   0  0  0  0  0  0  0  0  0  0  0  0
   -5.9060    1.5810    0.6290 C   0  0  0  0  0  0  0  0  0  0  0  0
   -5.4110    1.3070    1.8870 C   0  0  0  0  0  0  0  0  0  0  0  0
   -4.2420    0.5940    2.0520 C   0  0  0  0  0  0  0  0  0  0  0  0
   -3.7640    0.3310    3.3490 O   0  0  0  0  0  0  0  0  0  0  0  0
    2.9310   -2.4760    0.2570 C   0  0  0  0  0  0  0  0  0  0  0  0
    3.9550   -1.6820    0.8920 C   0  0  0  0  0  0  0  0  0  0  0  0
    4.2450   -0.4630    0.4160 C   0  0  0  0  0  0  0  0  0  0  0  0
    5.1730    0.5390    0.8060 N   0  0  0  0  0  0  0  0  0  0  0  0
  2  1  1  6
  2  3  1  0
  2 26  1  0
  3  4  2  0
  4  5  1  0
  4 25  1  0
  5  6  1  0
  6  7  1  0
  6 23  2  0
  7  8  1  0
  8  9  1  0
  9 10  2  0
  9 11  1  0
 11 12  1  0
 12 13  1  0
 13 14  2  0
 13 21  1  0
 14 15  1  0
 15 16  1  0
 15 19  2  0
 16 17  2  0
 16 18  1  0
 19 20  1  0
 20 21  2  0
 21 22  1  0
 23 24  1  0
 24 25  2  0
 25 26  1  0
M  END
