
     RDKit          3D

 26 28  0  0  0  0  0  0  0  0999 V2000
    4.3400    0.5610    2.7810 C   0  0  0  0  0  0  0  0  0  0  0  0
    3.9210    0.7470    1.3550 C   0  0  0  0  0  0  0  0  0  0  0  0
    2.6550    0.3990    0.9260 C   0  0  0  0  0  0  0  0  0  0  0  0
    1.7290   -0.1660    1.9410 C   0  0  0  0  0  0  0  0  0  0  0  0
    0.4480   -0.4970    1.4030 N   0  0  0  0  0  0  0  0  0  0  0  0
   -0.3790    0.4210    1.0640 C   0  0  0  0  0  0  0  0  0  0  0  0
   -0.0290    1.7760    1.2200 N   0  0  0  0  0  0  0  0  0  0  0  0
   -1.6670    0.1350    0.5180 N   0  0  0  0  0  0  0  0  0  0  0  0
   -2.0490    0.5610   -0.8270 C   0  0  0  0  0  0  0  0  0  0  0  0
   -2.9590   -0.6070   -1.2090 C   0  0  0  0  0  0  0  0  0  0  0  0
   -3.5330   -0.9880    0.1220 C   0  0  0  0  0  0  0  0  0  0  0  0
   -4.7710   -1.7450    0.2620 C   0  0  0  0  0  0  0  0  0  0  0  0
   -5.3690   -2.1360    1.4420 C   0  0  0  0  0  0  0  0  0  0  0  0
   -6.4910   -2.8110    1.1540 N   0  0  0  0  0  0  0  0  0  0  0  0
   -6.6040   -2.8500   -0.1620 N   0  0  0  0  0  0  0  0  0  0  0  0
   -5.5840   -2.2160   -0.7440 C   0  0  0  0  0  0  0  0  0  0  0  0
   -5.3980   -2.0730   -2.1430 N   0  0  0  0  0  0  0  0  0  0  0  0
   -2.7560   -0.5390    1.0460 N   0  0  0  0  0  0  0  0  0  0  0  0
    2.3270    0.5870   -0.3780 C   0  0  0  0  0  0  0  0  0  0  0  0
    3.2520    1.1220   -1.2620 C   0  0  0  0  0  0  0  0  0  0  0  0
    2.9390    1.3310   -2.6320 N   0  0  0  0  0  0  0  0  0  0  0  0
    4.5240    1.4740   -0.8400 C   0  0  0  0  0  0  0  0  0  0  0  0
    5.4390    2.0120   -1.7530 O   0  0  0  0  0  0  0  0  0  0  0  0
    4.8520    1.2810    0.4800 C   0  0  0  0  0  0  0  0  0  0  0  0
    6.1700    1.6450    0.9180 C   0  0  0  0  0  0  0  0  0  0  0  0
    7.2370    1.9210    1.2750 N   0  0  0  0  0  0  0  0  0  0  0  0
  1  2  1  0
  2  3  2  0
  2 24  1  0
  3  4  1  0
  3 19  1  0
  4  5  1  0
  5  6  2  3
  6  7  1  0
  6  8  1  0
  8  9  1  0
  8 18  1  0
  9 10  1  0
 10 11  1  0
 11 12  1  0
 11 18  2  0
 12 13  1  0
 12 16  2  0
 13 14  2  0
 14 15  1  0
 15 16  1  0
 16 17  1  0
 19 20  2  0
 20 21  1  0
 20 22  1  0
 22 23  1  0
 22 24  2  0
 24 25  1  0
 25 26  3  0
M  CHG  1   5   1
M  END
