
     RDKit          3D

 26 28  0  0  0  0  0  0  0  0999 V2000
    1.3170   -1.9990    0.7580 O   0  0  0  0  0  0  0  0  0  0  0  0
    1.1090   -1.1620   -0.2500 C   0  0  0  0  0  0  0  0  0  0  0  0
    2.3820   -0.7610   -0.8500 N   0  0  0  0  0  0  0  0  0  0  0  0
    3.4870   -1.3460   -0.1260 C   0  0  0  0  0  0  0  0  0  0  0  0
    4.5600   -0.4650    0.3280 C   0  0  0  0  0  0  0  0  0  0  0  0
    5.3880    0.2950   -0.3950 C   0  0  0  0  0  0  0  0  0  0  0  0
    6.5180    0.9180    0.1810 C   0  0  0  0  0  0  0  0  0  0  0  0
    7.3830    1.7030   -0.5080 O   0  0  0  0  0  0  0  0  0  0  0  0
    6.7800    0.7290    1.5360 C   0  0  0  0  0  0  0  0  0  0  0  0
    5.9480   -0.0400    2.3000 C   0  0  0  0  0  0  0  0  0  0  0  0
    4.8720   -0.6230    1.7190 C   0  0  0  0  0  0  0  0  0  0  0  0
    4.0390   -1.4080    2.4970 O   0  0  0  0  0  0  0  0  0  0  0  0
   -0.2150   -0.8570   -0.5170 C   0  0  1  0  0  0  0  0  0  0  0  0
   -0.8040    0.1120    0.5540 C   0  0  0  0  0  0  0  0  0  0  0  0
   -1.1020    1.3600   -0.0290 O   0  0  0  0  0  0  0  0  0  0  0  0
   -2.2900    1.2080   -0.7060 C   0  0  0  0  0  0  0  0  0  0  0  0
   -2.0860    0.0270   -1.6640 C   0  0  0  0  0  0  0  0  0  0  0  0
   -3.1330   -0.5000   -2.1760 C   0  0  0  0  0  0  0  0  0  0  0  0
   -4.3810    0.1110   -1.6980 C   0  0  0  0  0  0  0  0  0  0  0  0
   -5.1090    1.1580   -1.9530 C   0  0  0  0  0  0  0  0  0  0  0  0
   -6.2290    1.1510   -1.0590 C   0  0  0  0  0  0  0  0  0  0  0  0
   -6.0470    0.0210   -0.2950 C   0  0  0  0  0  0  0  0  0  0  0  0
   -6.9330   -0.4740    0.8240 C   0  0  0  0  0  0  0  0  0  0  0  0
   -6.1750   -1.4260    1.5660 O   0  0  0  0  0  0  0  0  0  0  0  0
   -4.9880   -0.5680   -0.6700 O   0  0  0  0  0  0  0  0  0  0  0  0
   -0.6950   -0.2700   -1.7410 O   0  0  0  0  0  0  0  0  0  0  0  0
  1  2  2  0
  2  3  1  0
 13  2  1  6
  3  4  1  0
  4  5  1  0
  5  6  2  0
  5 11  1  0
  6  7  1  0
  7  8  1  0
  7  9  2  0
  9 10  1  0
 10 11  2  0
 11 12  1  0
 13 14  1  0
 13 26  1  0
 14 15  1  0
 15 16  1  0
 16 17  1  0
 17 18  2  3
 17 26  1  0
 18 19  1  0
 19 20  2  0
 19 25  1  0
 20 21  1  0
 21 22  2  0
 22 23  1  0
 22 25  1  0
 23 24  1  0
M  END
