
     RDKit          3D

 26 28  0  0  0  0  0  0  0  0999 V2000
    5.7600   -2.5520   -0.7040 C   0  0  0  0  0  0  0  0  0  0  0  0
    5.4590   -1.0760   -0.5460 C   0  0  1  0  0  0  0  0  0  0  0  0
    4.0350   -0.7450   -0.8370 C   0  0  0  0  0  0  0  0  0  0  0  0
    3.2100   -0.6860    0.3870 C   0  0  0  0  0  0  0  0  0  0  0  0
    1.8610   -0.4580    0.3310 C   0  0  0  0  0  0  0  0  0  0  0  0
    1.0380   -0.3970    1.4660 C   0  0  0  0  0  0  0  0  0  0  0  0
   -0.2600   -0.1680    1.2570 O   0  0  0  0  0  0  0  0  0  0  0  0
   -1.2310    0.0390    0.5920 C   0  0  0  0  0  0  0  0  0  0  0  0
   -2.3870    0.2860   -0.1990 C   0  0  0  0  0  0  0  0  0  0  0  0
   -2.6740   -0.3890   -1.2570 O   0  0  0  0  0  0  0  0  0  0  0  0
   -3.3670    1.3080    0.0820 N   0  0  0  0  0  0  0  0  0  0  0  0
   -4.4760    1.5140   -0.7510 C   0  0  0  0  0  0  0  0  0  0  0  0
   -5.6860    1.1200   -0.3160 C   0  0  0  0  0  0  0  0  0  0  0  0
   -6.8980    1.2910   -1.1120 C   0  0  0  0  0  0  0  0  0  0  0  0
   -8.1590    0.8920   -0.6850 O   0  0  0  0  0  0  0  0  0  0  0  0
   -6.8260    1.8520   -2.3040 C   0  0  0  0  0  0  0  0  0  0  0  0
   -5.6140    2.2800   -2.8060 O   0  0  0  0  0  0  0  0  0  0  0  0
   -4.4440    2.1300   -2.0680 C   0  0  0  0  0  0  0  0  0  0  0  0
   -3.2810    2.5610   -2.5600 C   0  0  0  0  0  0  0  0  0  0  0  0
   -2.1070    2.4430   -1.8550 O   0  0  0  0  0  0  0  0  0  0  0  0
    1.6340   -0.5770    2.6760 C   0  0  0  0  0  0  0  0  0  0  0  0
    0.8780   -0.5260    3.8140 O   0  0  0  0  0  0  0  0  0  0  0  0
    2.9930   -0.8070    2.7360 C   0  0  0  0  0  0  0  0  0  0  0  0
    3.7970   -0.8660    1.6210 C   0  0  0  0  0  0  0  0  0  0  0  0
    5.2440   -1.1170    1.7490 C   0  0  0  0  0  0  0  0  0  0  0  0
    5.9050   -0.5710    0.6480 O   0  0  0  0  0  0  0  0  0  0  0  0
  2  1  1  1
  2  3  1  0
  2 26  1  0
  3  4  1  0
  4  5  2  0
  4 24  1  0
  5  6  1  0
  6  7  1  0
  6 21  2  0
  7  8  1  0
  8  9  1  0
  9 10  2  0
  9 11  1  0
 11 12  1  0
 12 13  2  0
 12 18  1  0
 13 14  1  0
 14 15  1  0
 14 16  2  0
 16 17  1  0
 17 18  1  0
 18 19  2  3
 19 20  1  0
 21 22  1  0
 21 23  1  0
 23 24  2  0
 24 25  1  0
 25 26  1  0
M  END
