
     RDKit          3D

 37 40  0  0  0  0  0  0  0  0999 V2000
   -3.0110   -1.4650   -0.8710 O   0  0  0  0  0  0  0  0  0  0  0  0
   -3.6050   -0.4630   -0.0580 C   0  0  1  0  0  0  0  0  0  0  0  0
   -4.0410    0.7470   -0.7640 C   0  0  0  0  0  0  0  0  0  0  0  0
   -3.0850    1.5150   -1.4830 N   0  0  0  0  0  0  0  0  0  0  0  0
   -2.3840    2.5560   -1.0420 C   0  0  0  0  0  0  0  0  0  0  0  0
   -1.5880    3.0060   -2.0070 N   0  0  0  0  0  0  0  0  0  0  0  0
   -1.7880    2.2440   -3.0670 N   0  0  0  0  0  0  0  0  0  0  0  0
   -2.6880    1.3500   -2.7480 N   0  0  0  0  0  0  0  0  0  0  0  0
   -4.8770   -1.0980    0.5020 C   0  0  0  0  0  0  0  0  0  0  0  0
   -5.0640   -1.1600    1.8480 C   0  0  0  0  0  0  0  0  0  0  0  0
   -6.2320   -1.7250    2.4040 C   0  0  0  0  0  0  0  0  0  0  0  0
   -7.1690   -2.2070    1.5330 C   0  0  0  0  0  0  0  0  0  0  0  0
   -8.3370   -2.7720    1.9940 F   0  0  0  0  0  0  0  0  0  0  0  0
   -6.9810   -2.1420    0.1700 C   0  0  0  0  0  0  0  0  0  0  0  0
   -5.8370   -1.5900   -0.3630 C   0  0  0  0  0  0  0  0  0  0  0  0
   -5.6160   -1.5330   -1.6930 F   0  0  0  0  0  0  0  0  0  0  0  0
   -2.6620   -0.3060    1.0970 C   0  0  2  0  0  0  0  0  0  0  0  0
   -2.6570   -1.5790    1.7390 F   0  0  0  0  0  0  0  0  0  0  0  0
   -2.9550    0.6960    1.9560 F   0  0  0  0  0  0  0  0  0  0  0  0
   -1.2190   -0.1720    0.6980 C   0  0  0  0  0  0  0  0  0  0  0  0
   -0.5340    0.9440    1.0820 C   0  0  0  0  0  0  0  0  0  0  0  0
    0.8080    1.0110    0.7730 C   0  0  0  0  0  0  0  0  0  0  0  0
    1.4560   -0.0190    0.0930 C   0  0  0  0  0  0  0  0  0  0  0  0
    2.8710    0.0120   -0.2030 C   0  0  0  0  0  0  0  0  0  0  0  0
    3.6950    0.6660    0.6900 C   0  0  0  0  0  0  0  0  0  0  0  0
    5.0510    0.7220    0.5210 C   0  0  0  0  0  0  0  0  0  0  0  0
    5.6390    0.1060   -0.5820 C   0  0  0  0  0  0  0  0  0  0  0  0
    6.9990    0.1360   -0.7930 O   0  0  0  0  0  0  0  0  0  0  0  0
    7.8960    0.7930    0.0850 C   0  0  0  0  0  0  0  0  0  0  0  0
    9.3180    0.6310   -0.3940 C   0  0  2  0  0  0  0  0  0  0  0  0
    9.4770    1.1600   -1.6470 F   0  0  0  0  0  0  0  0  0  0  0  0
    9.6390   -0.7130   -0.3960 F   0  0  0  0  0  0  0  0  0  0  0  0
   10.2020    1.2250    0.5020 F   0  0  0  0  0  0  0  0  0  0  0  0
    4.8010   -0.5400   -1.4620 C   0  0  0  0  0  0  0  0  0  0  0  0
    3.4190   -0.5970   -1.2900 C   0  0  0  0  0  0  0  0  0  0  0  0
    0.7010   -1.1140   -0.2650 C   0  0  0  0  0  0  0  0  0  0  0  0
   -0.6340   -1.2100    0.0270 N   0  0  0  0  0  0  0  0  0  0  0  0
  2  1  1  6
  2  3  1  0
  2  9  1  0
  2 17  1  0
  3  4  1  0
  4  5  1  0
  4  8  1  0
  5  6  2  0
  6  7  1  0
  7  8  2  0
  9 10  2  0
  9 15  1  0
 10 11  1  0
 11 12  2  0
 12 13  1  0
 12 14  1  0
 14 15  2  0
 15 16  1  0
 17 18  1  1
 17 19  1  0
 17 20  1  0
 20 21  2  0
 20 37  1  0
 21 22  1  0
 22 23  2  0
 23 24  1  0
 23 36  1  0
 24 25  2  0
 24 35  1  0
 25 26  1  0
 26 27  2  0
 27 28  1  0
 27 34  1  0
 28 29  1  0
 29 30  1  0
 30 31  1  6
 30 32  1  0
 30 33  1  0
 34 35  2  0
 36 37  2  0
M  END
