
     RDKit          3D

 17 16  0  0  0  0  0  0  0  0999 V2000
   -3.7690    1.3620   -0.9800 C   0  0  0  0  0  0  0  0  0  0  0  0
   -3.3440    1.2200    0.4850 C   0  0  1  0  0  0  0  0  0  0  0  0
   -3.6610    2.3940    1.1390 F   0  0  0  0  0  0  0  0  0  0  0  0
   -4.0890    0.2060    1.0490 F   0  0  0  0  0  0  0  0  0  0  0  0
   -1.5540    0.8590    0.5830 S   0  0  0  0  0  0  0  0  0  0  0  0
   -1.2370   -0.7600   -0.1090 C   0  0  2  0  0  0  0  0  0  0  0  0
   -1.8130   -1.8780    0.7240 C   0  0  0  0  0  0  0  0  0  0  0  0
   -1.5400   -3.1020    0.1440 F   0  0  0  0  0  0  0  0  0  0  0  0
    0.5310   -1.0260   -0.4950 S   0  0  0  0  0  0  0  0  0  0  0  0
    1.0090    0.3380   -2.0830 S   0  0  0  0  0  0  0  0  0  0  0  0
    1.6830    2.1150   -1.1250 S   0  0  0  0  0  0  0  0  0  0  0  0
    3.7540    2.0070   -0.8770 S   0  0  0  0  0  0  0  0  0  0  0  0
    4.3480    1.1170    0.9490 S   0  0  0  0  0  0  0  0  0  0  0  0
    4.5580   -0.9830    0.6780 S   0  0  0  0  0  0  0  0  0  0  0  0
    6.5300   -1.4940    0.0810 S   0  0  0  0  0  0  0  0  0  0  0  0
    7.7790   -1.8720    1.7520 S   0  0  0  0  0  0  0  0  0  0  0  0
    8.5570   -0.4610    2.2940 F   0  0  0  0  0  0  0  0  0  0  0  0
  2  1  1  6
  2  3  1  0
  2  4  1  0
  2  5  1  0
  5  6  1  0
  6  7  1  1
  6  9  1  0
  7  8  1  0
  9 10  1  0
 10 11  1  0
 11 12  1  0
 12 13  1  0
 13 14  1  0
 14 15  1  0
 15 16  1  0
 16 17  1  0
M  END
