
     RDKit          3D

 20 24  0  0  0  0  0  0  0  0999 V2000
   -4.3740   -1.1670    0.2110 C   0  0  0  0  0  0  0  0  0  0  0  0
   -4.6780   -0.1680   -0.8610 C   0  0  0  0  0  0  0  0  0  0  0  0
   -3.8610    1.4080   -0.6930 S   0  0  0  0  0  0  0  0  0  0  0  0
   -1.7710    1.3480   -0.9550 S   0  0  0  0  0  0  0  0  0  0  0  0
   -0.8610    1.0590    0.5560 C   0  0  2  0  0  0  0  0  0  0  0  0
   -1.1330    2.2300    1.4970 C   0  0  0  0  0  0  0  0  0  0  0  0
    0.9460    1.0480    0.2420 S   0  0  0  0  0  0  0  0  0  0  0  0
    1.5180    3.0060   -0.3490 S   0  0  0  0  0  0  0  0  0  0  0  0
    2.0370    4.1070    1.3960 S   0  0  0  0  0  0  0  0  0  0  0  0
   -1.2490   -0.4610    1.4110 S   0  0  0  0  0  0  0  0  0  0  0  0
   -0.6090   -2.1820    0.3450 S   0  0  0  0  0  0  0  0  0  0  0  0
    1.3850   -2.7240    0.8950 S   0  0  0  0  0  0  0  0  0  0  0  0
    2.7360   -1.8460   -0.2500 S   0  0  2  0  0  0  0  0  0  0  0  0
    3.4860   -1.7870   -1.2620 S   0  0  0  0  0  0  0  0  0  0  0  0
    4.9990   -3.6530    0.0080 S   0  0  0  0  0  0  0  0  0  0  0  0
    5.0620   -1.3330   -0.8120 S   0  0  2  0  0  0  0  0  0  0  0  0
    6.2120   -0.2890   -1.9880 S   0  0  0  0  0  0  0  0  0  0  0  0
    6.0670    1.4250   -1.7980 F   0  0  0  0  0  0  0  0  0  0  0  0
    3.4060   -2.6230   -2.4990 S   0  0  1  0  0  0  0  0  0  0  0  0
    4.0460   -3.8730   -2.0310 S   0  0  2  0  0  0  0  0  0  0  0  0
  1  2  1  0
  2  3  1  0
  3  4  1  0
  4  5  1  0
  5  6  1  1
  5  7  1  0
  5 10  1  0
  7  8  1  0
  8  9  1  0
 10 11  1  0
 11 12  1  0
 13 12  1  1
 13 14  1  0
 14 15  2  0
 14 16  1  0
 19 14  1  1
 20 14  1  1
 16 17  1  6
 17 18  1  0
 19 20  1  0
 16 15  1  0
 16 13  1  0
 19 13  1  0
 15 20  1  6
M  END
