
     RDKit          3D

 24 25  0  0  0  0  0  0  0  0999 V2000
    6.0220    1.8630    1.0380 F   0  0  0  0  0  0  0  0  0  0  0  0
    6.3770    0.6580   -0.1200 S   0  0  0  0  0  0  0  0  0  0  0  0
    4.8870   -0.3210   -0.4980 C   0  0  2  0  0  0  0  0  0  0  0  0
    4.5550   -1.0050    0.6210 F   0  0  0  0  0  0  0  0  0  0  0  0
    5.3250   -1.5960   -1.7550 S   0  0  0  0  0  0  0  0  0  0  0  0
    3.5640    0.7150   -1.0870 S   0  0  0  0  0  0  0  0  0  0  0  0
    1.7530   -0.2050   -1.4330 S   0  0  0  0  0  0  0  0  0  0  0  0
    0.5150   -0.1470   -0.1130 C   0  0  2  0  0  0  0  0  0  0  0  0
   -0.1680    1.5630   -0.1680 S   0  0  2  0  0  0  0  0  0  0  0  0
   -0.2970    2.0940   -1.7350 F   0  0  0  0  0  0  0  0  0  0  0  0
    1.5870    2.3910    0.7690 S   0  0  0  0  0  0  0  0  0  0  0  0
    2.0980    0.4600    1.5130 S   0  0  0  0  0  0  0  0  0  0  0  0
    0.9320   -0.5760    1.3070 S   0  0  0  0  0  0  0  0  0  0  0  0
    0.0370    0.6580    2.5820 F   0  0  0  0  0  0  0  0  0  0  0  0
   -0.5390   -1.1270    1.0420 C   0  0  0  0  0  0  0  0  0  0  0  0
   -0.5690   -1.1400   -0.4520 C   0  0  2  0  0  0  0  0  0  0  0  0
    0.0020   -2.3990   -0.8160 F   0  0  0  0  0  0  0  0  0  0  0  0
   -1.9260   -0.6170   -1.2690 S   0  0  0  0  0  0  0  0  0  0  0  0
   -3.3720    0.5010   -0.4650 S   0  0  1  0  0  0  0  0  0  0  0  0
   -3.2080    2.0310   -1.1290 F   0  0  0  0  0  0  0  0  0  0  0  0
   -4.8320   -0.3730   -1.0620 C   0  0  0  0  0  0  0  0  0  0  0  0
   -4.7610   -0.3360   -2.8750 S   0  0  0  0  0  0  0  0  0  0  0  0
   -3.8870    0.8680    1.4610 S   0  0  0  0  0  0  0  0  0  0  0  0
   -2.9090    0.3880    2.6250 F   0  0  0  0  0  0  0  0  0  0  0  0
  1  2  1  0
  2  3  1  0
  3  4  1  1
  3  5  1  0
  3  6  1  0
  6  7  1  0
  8  7  1  6
  8  9  1  0
  8 13  1  0
  8 16  1  0
  9 10  1  6
  9 11  1  0
 11 12  1  0
 12 13  1  0
 13 14  1  0
 13 15  2  0
 15 16  1  0
 16 17  1  6
 16 18  1  0
 18 19  1  0
 19 20  1  6
 19 21  1  0
 19 23  1  0
 21 22  1  0
 23 24  1  0
M  END
