
     RDKit          3D

 17 17  0  0  0  0  0  0  0  0999 V2000
    5.9260   -0.7450   -0.3050 C   0  0  0  0  0  0  0  0  0  0  0  0
    4.6110   -0.7010   -0.2370 C   0  0  0  0  0  0  0  0  0  0  0  0
    3.9500    0.5270    0.1520 C   0  0  0  0  0  0  0  0  0  0  0  0
    2.6010    0.6220    0.2360 C   0  0  0  0  0  0  0  0  0  0  0  0
    1.6970   -0.4410   -0.0380 C   0  0  0  0  0  0  0  0  0  0  0  0
    0.4120   -0.2040    0.0850 C   0  0  0  0  0  0  0  0  0  0  0  0
   -0.6920   -1.1620   -0.1500 C   0  0  0  0  0  0  0  0  0  0  0  0
   -0.4510   -2.3360   -0.5050 O   0  0  0  0  0  0  0  0  0  0  0  0
   -1.9800   -0.7370    0.0290 O   0  0  0  0  0  0  0  0  0  0  0  0
   -3.1040   -1.5580   -0.1650 C   0  0  0  0  0  0  0  0  0  0  0  0
   -4.3200   -0.7800    0.1150 C   0  0  0  0  0  0  0  0  0  0  0  0
   -5.4410   -1.3380   -0.0020 O   0  0  0  0  0  0  0  0  0  0  0  0
   -4.3050    0.5430    0.5030 O   0  0  0  0  0  0  0  0  0  0  0  0
   -5.5220    1.2560    0.7630 C   0  0  0  0  0  0  0  0  0  0  0  0
    0.2300    1.4950    0.5920 S   0  0  0  0  0  0  0  0  0  0  0  0
    1.9720    1.8800    0.6320 C   0  0  0  0  0  0  0  0  0  0  0  0
    2.5090    2.9970    0.9380 N   0  0  0  0  0  0  0  0  0  0  0  0
  1  2  2  0
  2  3  1  0
  3  4  2  3
  4  5  1  0
  4 16  1  0
  5  6  2  0
  6  7  1  0
  6 15  1  0
  7  8  2  0
  7  9  1  0
  9 10  1  0
 10 11  1  0
 11 12  2  0
 11 13  1  0
 13 14  1  0
 15 16  1  0
 16 17  2  0
M  END
