
     RDKit          3D

 17 18  0  0  0  0  0  0  0  0999 V2000
    2.1520   -1.8780   -1.3580 C   0  0  0  0  0  0  0  0  0  0  0  0
    1.7150   -0.8730   -0.3210 C   0  0  2  0  0  0  0  0  0  0  0  0
    0.3380   -0.5030   -0.6550 N   0  0  0  0  0  0  0  0  0  0  0  0
   -0.6920   -0.6620    0.2920 C   0  0  0  0  0  0  0  0  0  0  0  0
   -0.3260   -1.1380    1.4180 O   0  0  0  0  0  0  0  0  0  0  0  0
   -2.0760   -0.3150    0.0250 C   0  0  0  0  0  0  0  0  0  0  0  0
   -2.4150    0.1720   -1.1430 C   0  0  0  0  0  0  0  0  0  0  0  0
   -4.1340    0.5950   -1.4510 S   0  0  0  0  0  0  0  0  0  0  0  0
   -5.0170    0.4170    0.1190 C   0  0  0  0  0  0  0  0  0  0  0  0
   -4.4710   -0.8680    0.7560 C   0  0  0  0  0  0  0  0  0  0  0  0
   -3.0480   -0.5390    1.1140 C   0  0  0  0  0  0  0  0  0  0  0  0
   -2.6510   -0.4470    2.2960 O   0  0  0  0  0  0  0  0  0  0  0  0
    2.5180    0.4200   -0.4390 C   0  0  2  0  0  0  0  0  0  0  0  0
    3.8470    0.2370   -0.1540 O   0  0  0  0  0  0  0  0  0  0  0  0
    4.3080    1.3850    0.4560 C   0  0  0  0  0  0  0  0  0  0  0  0
    3.0730    2.0380    0.9880 C   0  0  0  0  0  0  0  0  0  0  0  0
    2.0100    1.3390    0.4650 O   0  0  0  0  0  0  0  0  0  0  0  0
  2  1  1  6
  2  3  1  0
  2 13  1  0
  3  4  1  0
  4  5  2  0
  4  6  1  0
  6  7  2  0
  6 11  1  0
  7  8  1  0
  8  9  1  0
  9 10  1  0
 10 11  1  0
 11 12  2  0
 13 14  1  1
 13 17  1  0
 14 15  1  0
 15 16  1  0
 16 17  1  0
M  END
