
     RDKit          3D

 17 18  0  0  0  0  0  0  0  0999 V2000
    4.1900   -1.1940    0.1510 C   0  0  0  0  0  0  0  0  0  0  0  0
    3.3450   -0.1040   -0.0320 O   0  0  0  0  0  0  0  0  0  0  0  0
    1.9800   -0.1160    0.0020 C   0  0  0  0  0  0  0  0  0  0  0  0
    1.2090   -1.2410    0.2290 C   0  0  0  0  0  0  0  0  0  0  0  0
   -0.1840   -1.1460    0.2440 C   0  0  0  0  0  0  0  0  0  0  0  0
   -0.8260    0.0460    0.0380 C   0  0  0  0  0  0  0  0  0  0  0  0
   -2.3260    0.1520    0.0530 C   0  0  1  0  0  0  0  0  0  0  0  0
   -2.7890   -0.5410   -1.0900 O   0  0  0  0  0  0  0  0  0  0  0  0
   -3.2210   -1.8120   -0.7390 C   0  0  0  0  0  0  0  0  0  0  0  0
   -3.5720   -3.0280   -1.7630 S   0  0  0  0  0  0  0  0  0  0  0  0
   -3.3040   -1.8630    0.6800 N   0  0  0  0  0  0  0  0  0  0  0  0
   -2.9090   -0.5840    1.1900 C   0  0  0  0  0  0  0  0  0  0  0  0
   -3.0150   -0.1310    2.3540 O   0  0  0  0  0  0  0  0  0  0  0  0
   -0.0720    1.1700   -0.1890 C   0  0  0  0  0  0  0  0  0  0  0  0
   -0.6930    2.3960   -0.4030 O   0  0  0  0  0  0  0  0  0  0  0  0
    0.1000    3.5400   -0.6340 C   0  0  0  0  0  0  0  0  0  0  0  0
    1.3070    1.0700   -0.2030 C   0  0  0  0  0  0  0  0  0  0  0  0
  1  2  1  0
  2  3  1  0
  3  4  2  0
  3 17  1  0
  4  5  1  0
  5  6  2  0
  7  6  1  1
  6 14  1  0
  7  8  1  0
  7 12  1  0
  8  9  1  0
  9 10  2  0
  9 11  1  0
 11 12  1  0
 12 13  2  0
 14 15  1  0
 14 17  2  0
 15 16  1  0
M  END
