
     RDKit          3D

 17 18  0  0  0  0  0  0  0  0999 V2000
    0.0980   -0.2910   -1.0580 O   0  0  0  0  0  0  0  0  0  0  0  0
   -0.1190    0.8740   -0.6360 C   0  0  0  0  0  0  0  0  0  0  0  0
    0.9040    1.8970   -0.7700 C   0  0  0  0  0  0  0  0  0  0  0  0
    1.7250    2.0870    0.4730 C   0  0  0  0  0  0  0  0  0  0  0  0
    2.4690    0.8990    0.9430 C   0  0  1  0  0  0  0  0  0  0  0  0
    1.4160   -0.5260    1.3730 S   0  0  0  0  0  0  0  0  0  0  0  0
    2.4330   -1.7850    0.6300 C   0  0  0  0  0  0  0  0  0  0  0  0
    2.2140   -2.9940    0.6160 O   0  0  0  0  0  0  0  0  0  0  0  0
    3.5270   -1.0930    0.0740 N   0  0  0  0  0  0  0  0  0  0  0  0
    3.3040    0.2740   -0.1320 C   0  0  0  0  0  0  0  0  0  0  0  0
    3.7340    0.9820   -1.1080 O   0  0  0  0  0  0  0  0  0  0  0  0
   -1.3740    1.0850   -0.0530 O   0  0  0  0  0  0  0  0  0  0  0  0
   -2.3030    0.0350    0.0340 C   0  0  0  0  0  0  0  0  0  0  0  0
   -2.4800   -0.8450    0.9870 C   0  0  0  0  0  0  0  0  0  0  0  0
   -3.5990   -1.7780    0.6340 C   0  0  0  0  0  0  0  0  0  0  0  0
   -4.0310   -1.2840   -0.6770 C   0  0  0  0  0  0  0  0  0  0  0  0
   -3.2810   -0.2480   -1.0070 C   0  0  0  0  0  0  0  0  0  0  0  0
  1  2  2  0
  2  3  1  0
  2 12  1  0
  3  4  1  0
  5  4  1  6
  5  6  1  0
  5 10  1  0
  6  7  1  0
  7  8  2  0
  7  9  1  0
  9 10  1  0
 10 11  2  0
 12 13  1  0
 13 14  2  0
 13 17  1  0
 14 15  1  0
 15 16  1  0
 16 17  2  0
M  END
