
     RDKit          3D

 17 18  0  0  0  0  0  0  0  0999 V2000
    2.6850    1.3480    1.3540 C   0  0  0  0  0  0  0  0  0  0  0  0
    2.9210    0.3040    0.6140 C   0  0  0  0  0  0  0  0  0  0  0  0
    4.1100   -0.3990    0.8450 O   0  0  0  0  0  0  0  0  0  0  0  0
    4.4060   -1.5120    0.0900 C   0  0  0  0  0  0  0  0  0  0  0  0
    3.5760   -1.9320   -0.8590 C   0  0  0  0  0  0  0  0  0  0  0  0
    2.3300   -1.2120   -1.1150 C   0  0  0  0  0  0  0  0  0  0  0  0
    1.9860   -0.1160   -0.4110 C   0  0  0  0  0  0  0  0  0  0  0  0
    0.5110    0.7410   -0.7500 S   0  0  2  0  0  0  0  0  0  0  0  0
    0.1020    0.4550   -2.1830 O   0  0  0  0  0  0  0  0  0  0  0  0
    0.7630    2.2090   -0.6890 O   0  0  0  0  0  0  0  0  0  0  0  0
   -0.7820    0.2310    0.2640 N   0  0  0  0  0  0  0  0  0  0  0  0
   -1.1130   -1.1450    0.1040 C   0  0  0  0  0  0  0  0  0  0  0  0
   -2.5640   -1.2180   -0.3490 C   0  0  0  0  0  0  0  0  0  0  0  0
   -2.7440    0.1800   -0.9380 C   0  0  0  0  0  0  0  0  0  0  0  0
   -1.9680    1.0190    0.0280 C   0  0  1  0  0  0  0  0  0  0  0  0
   -2.6720    1.1990    1.3420 C   0  0  0  0  0  0  0  0  0  0  0  0
   -3.8230    1.9420    1.2250 O   0  0  0  0  0  0  0  0  0  0  0  0
  1  2  2  0
  2  3  1  0
  2  7  1  0
  3  4  1  0
  4  5  2  0
  5  6  1  0
  6  7  2  0
  7  8  1  0
  8  9  2  0
  8 10  2  0
  8 11  1  1
 11 12  1  0
 11 15  1  0
 12 13  1  0
 13 14  1  0
 14 15  1  0
 15 16  1  1
 16 17  1  0
M  END
