
     RDKit          3D

 17 18  0  0  0  0  0  0  0  0999 V2000
   -0.0270    1.4940   -0.1170 O   0  0  0  0  0  0  0  0  0  0  0  0
    0.4510    0.7850   -1.0480 C   0  0  0  0  0  0  0  0  0  0  0  0
    1.9220    0.4770   -1.1230 C   0  0  0  0  0  0  0  0  0  0  0  0
    2.1840   -0.6740   -0.1890 C   0  0  2  0  0  0  0  0  0  0  0  0
    1.6830   -0.1000    1.4760 S   0  0  0  0  0  0  0  0  0  0  0  0
    3.3230    0.4670    1.9960 C   0  0  0  0  0  0  0  0  0  0  0  0
    3.5860    1.0160    3.0890 O   0  0  0  0  0  0  0  0  0  0  0  0
    4.1570    0.1350    0.8940 N   0  0  0  0  0  0  0  0  0  0  0  0
    3.6350   -0.8670    0.0720 C   0  0  0  0  0  0  0  0  0  0  0  0
    4.2610   -1.8630   -0.4340 O   0  0  0  0  0  0  0  0  0  0  0  0
   -0.4470    0.3090   -1.9890 O   0  0  0  0  0  0  0  0  0  0  0  0
   -1.8160    0.5950   -1.9190 C   0  0  0  0  0  0  0  0  0  0  0  0
   -2.4080    0.0800   -0.6320 C   0  0  0  0  0  0  0  0  0  0  0  0
   -2.9980    0.8220    0.2850 C   0  0  0  0  0  0  0  0  0  0  0  0
   -3.4440   -0.0330    1.3910 C   0  0  0  0  0  0  0  0  0  0  0  0
   -3.0220   -1.3910    0.9760 C   0  0  0  0  0  0  0  0  0  0  0  0
   -2.4230   -1.3100   -0.1970 C   0  0  0  0  0  0  0  0  0  0  0  0
  1  2  2  0
  2  3  1  0
  2 11  1  0
  4  3  1  6
  4  5  1  0
  4  9  1  0
  5  6  1  0
  6  7  2  0
  6  8  1  0
  8  9  1  0
  9 10  2  0
 11 12  1  0
 12 13  1  0
 13 14  2  0
 13 17  1  0
 14 15  1  0
 15 16  1  0
 16 17  2  0
M  END
