
     RDKit          3D

 17 18  0  0  0  0  0  0  0  0999 V2000
    5.3390    0.9480   -0.3920 C   0  0  0  0  0  0  0  0  0  0  0  0
    4.9160    0.0480    1.1300 S   0  0  0  0  0  0  0  0  0  0  0  0
    3.1300    0.0900    1.3420 C   0  0  0  0  0  0  0  0  0  0  0  0
    2.4020   -0.6750    0.2730 C   0  0  0  0  0  0  0  0  0  0  0  0
    0.9310   -0.5910    0.5220 C   0  0  0  0  0  0  0  0  0  0  0  0
    0.5150    0.0500    1.5050 O   0  0  0  0  0  0  0  0  0  0  0  0
   -0.0190   -1.2180   -0.3230 N   0  0  0  0  0  0  0  0  0  0  0  0
   -1.3960   -1.0890   -0.0290 C   0  0  0  0  0  0  0  0  0  0  0  0
   -2.0890   -2.1840    0.3000 C   0  0  0  0  0  0  0  0  0  0  0  0
   -3.4320   -2.0730    0.5890 O   0  0  0  0  0  0  0  0  0  0  0  0
   -4.1430   -0.8630    0.5470 C   0  0  0  0  0  0  0  0  0  0  0  0
   -3.3210    0.2970    0.1750 C   0  0  0  0  0  0  0  0  0  0  0  0
   -2.0220    0.2190   -0.1020 C   0  0  0  0  0  0  0  0  0  0  0  0
   -1.5910    1.5490   -0.4330 C   0  0  0  0  0  0  0  0  0  0  0  0
   -0.3970    1.8500   -0.7560 O   0  0  0  0  0  0  0  0  0  0  0  0
   -2.6580    2.4530   -0.3510 O   0  0  0  0  0  0  0  0  0  0  0  0
   -3.7720    1.7230    0.0450 C   0  0  0  0  0  0  0  0  0  0  0  0
  1  2  1  0
  2  3  1  0
  3  4  1  0
  4  5  1  0
  5  6  2  0
  5  7  1  0
  7  8  1  0
  8  9  2  0
  8 13  1  0
  9 10  1  0
 10 11  1  0
 11 12  1  0
 12 13  2  0
 12 17  1  0
 13 14  1  0
 14 15  2  0
 14 16  1  0
 16 17  1  0
M  END
