
     RDKit          3D

 21 23  0  0  0  0  0  0  0  0999 V2000
    0.0770    2.2040   -1.2620 C   0  0  0  0  0  0  0  0  0  0  0  0
    0.8990    1.1470   -0.6330 C   0  0  0  0  0  0  0  0  0  0  0  0
    2.2600    1.3270   -0.4140 C   0  0  0  0  0  0  0  0  0  0  0  0
    3.0850    0.3940    0.1560 C   0  0  0  0  0  0  0  0  0  0  0  0
    2.5410   -0.8140    0.5440 C   0  0  0  0  0  0  0  0  0  0  0  0
    1.2000   -1.0160    0.3380 C   0  0  0  0  0  0  0  0  0  0  0  0
    0.3450   -0.0670   -0.2440 C   0  0  0  0  0  0  0  0  0  0  0  0
   -1.0930   -0.3620   -0.4370 C   0  0  1  0  0  0  0  0  0  0  0  0
   -1.3440   -0.2860   -1.8070 O   0  0  0  0  0  0  0  0  0  0  0  0
   -1.3140   -1.8020   -0.0530 C   0  0  0  0  0  0  0  0  0  0  0  0
   -2.7630   -2.2130   -0.1840 C   0  0  0  0  0  0  0  0  0  0  0  0
   -3.4880   -1.3740    0.8770 C   0  0  0  0  0  0  0  0  0  0  0  0
   -3.4370    0.0260    0.3880 C   0  0  1  0  0  0  0  0  0  0  0  0
   -4.2100    0.1170   -0.9050 C   0  0  0  0  0  0  0  0  0  0  0  0
   -4.1580    0.9100    1.4000 C   0  0  0  0  0  0  0  0  0  0  0  0
   -2.0340    0.5660    0.2690 C   0  0  0  0  0  0  0  0  0  0  0  0
    3.4990   -1.6490    1.1000 O   0  0  0  0  0  0  0  0  0  0  0  0
    4.7580   -1.1300    0.7790 C   0  0  0  0  0  0  0  0  0  0  0  0
    4.5240    0.3240    0.4960 C   0  0  1  0  0  0  0  0  0  0  0  0
    5.4090    0.7440   -0.6550 C   0  0  0  0  0  0  0  0  0  0  0  0
    5.1860    2.0340   -1.0770 O   0  0  0  0  0  0  0  0  0  0  0  0
  1  2  1  0
  2  3  2  0
  2  7  1  0
  3  4  1  0
  4  5  2  0
  4 19  1  0
  5  6  1  0
  5 17  1  0
  6  7  2  0
  7  8  1  0
  8  9  1  6
  8 10  1  0
  8 16  1  0
 10 11  1  0
 11 12  1  0
 12 13  1  0
 13 14  1  6
 13 15  1  0
 13 16  1  0
 17 18  1  0
 18 19  1  0
 19 20  1  6
 20 21  1  0
M  END
