
     RDKit          3D

 28 29  0  0  0  0  0  0  0  0999 V2000
    3.5760    2.7280    0.1180 C   0  0  0  0  0  0  0  0  0  0  0  0
    4.3310    1.6900    0.1680 C   0  0  0  0  0  0  0  0  0  0  0  0
    5.7890    1.7180    0.6470 C   0  0  0  0  0  0  0  0  0  0  0  0
    6.2880    0.8600   -0.5210 C   0  0  0  0  0  0  0  0  0  0  0  0
    7.3270    1.1020   -1.1270 O   0  0  0  0  0  0  0  0  0  0  0  0
    5.2700   -0.1920   -0.6590 C   0  0  0  0  0  0  0  0  0  0  0  0
    5.5510   -1.5410   -1.1850 C   0  0  0  0  0  0  0  0  0  0  0  0
    4.0880    0.3310   -0.2270 C   0  0  0  0  0  0  0  0  0  0  0  0
    2.9370   -0.4330   -0.2300 N   0  0  0  0  0  0  0  0  0  0  0  0
    1.6300   -0.1290    0.1870 C   0  0  0  0  0  0  0  0  0  0  0  0
    1.3570    0.9690    0.6670 O   0  0  0  0  0  0  0  0  0  0  0  0
    0.5240   -1.1200    0.0650 C   0  0  0  0  0  0  0  0  0  0  0  0
    0.7500   -2.2530   -0.4190 O   0  0  0  0  0  0  0  0  0  0  0  0
   -0.7800   -0.8010    0.4870 N   0  0  0  0  0  0  0  0  0  0  0  0
   -1.9260   -1.6350    0.4380 C   0  0  0  0  0  0  0  0  0  0  0  0
   -1.8990   -2.9740    0.1740 C   0  0  0  0  0  0  0  0  0  0  0  0
   -3.0240   -3.8010    0.2020 C   0  0  0  0  0  0  0  0  0  0  0  0
   -4.2500   -3.2570    0.5130 C   0  0  0  0  0  0  0  0  0  0  0  0
   -4.3200   -1.9230    0.7830 C   0  0  0  0  0  0  0  0  0  0  0  0
   -3.1760   -1.1130    0.7470 C   0  0  0  0  0  0  0  0  0  0  0  0
   -3.2970    0.2290    1.0150 O   0  0  0  0  0  0  0  0  0  0  0  0
   -3.6460    1.2020    0.0820 C   0  0  2  0  0  0  0  0  0  0  0  0
   -3.6740    2.5700    0.7950 C   0  0  0  0  0  0  0  0  0  0  0  0
   -5.0840    0.9220   -0.3390 C   0  0  0  0  0  0  0  0  0  0  0  0
   -2.7490    1.3970   -1.0900 C   0  0  2  0  0  0  0  0  0  0  0  0
   -2.5650    0.2790   -1.8710 F   0  0  0  0  0  0  0  0  0  0  0  0
   -1.5980    2.0340   -0.7080 F   0  0  0  0  0  0  0  0  0  0  0  0
   -3.4410    2.3460   -1.9070 F   0  0  0  0  0  0  0  0  0  0  0  0
  1  2  2  0
  2  3  1  0
  2  8  1  0
  3  4  1  0
  4  5  2  0
  4  6  1  0
  6  7  1  0
  6  8  2  0
  8  9  1  0
  9 10  1  0
 10 11  2  0
 10 12  1  0
 12 13  2  0
 12 14  1  0
 14 15  1  0
 15 16  2  0
 15 20  1  0
 16 17  1  0
 17 18  2  0
 18 19  1  0
 19 20  2  0
 20 21  1  0
 21 22  1  0
 22 23  1  1
 22 24  1  0
 22 25  1  0
 25 26  1  6
 25 27  1  0
 25 28  1  0
M  END
