
     RDKit          3D

 21 24  0  0  0  0  0  0  0  0999 V2000
    4.9550   -1.0010   -0.3750 C   0  0  0  0  0  0  0  0  0  0  0  0
    3.6670   -0.2660   -0.1790 C   0  0  0  0  0  0  0  0  0  0  0  0
    2.5110   -1.0140   -0.1510 C   0  0  0  0  0  0  0  0  0  0  0  0
    1.2570   -0.4180    0.0270 C   0  0  0  0  0  0  0  0  0  0  0  0
    1.2350    0.9500    0.1730 C   0  0  0  0  0  0  0  0  0  0  0  0
    2.4040    1.6880    0.1430 C   0  0  0  0  0  0  0  0  0  0  0  0
    3.6390    1.1020   -0.0320 C   0  0  0  0  0  0  0  0  0  0  0  0
    4.8950    1.8900   -0.0650 C   0  0  0  0  0  0  0  0  0  0  0  0
   -0.0100    1.5520    0.3510 O   0  0  0  0  0  0  0  0  0  0  0  0
   -1.0050    0.7490    1.0010 C   0  0  1  0  0  0  0  0  0  0  0  0
   -2.2240    1.5930    1.1460 C   0  0  0  0  0  0  0  0  0  0  0  0
   -2.7790    1.8570   -0.2400 C   0  0  2  0  0  0  0  0  0  0  0  0
   -3.9480    2.6200   -0.0610 O   0  0  0  0  0  0  0  0  0  0  0  0
   -3.1740    0.5550   -0.8360 C   0  0  0  0  0  0  0  0  0  0  0  0
   -2.1060   -0.4720   -0.9030 C   0  0  2  0  0  0  0  0  0  0  0  0
   -1.3910   -0.3010   -2.0840 O   0  0  0  0  0  0  0  0  0  0  0  0
   -2.7630   -1.8380   -0.9690 C   0  0  0  0  0  0  0  0  0  0  0  0
   -2.4180   -2.5590    0.3020 C   0  0  0  0  0  0  0  0  0  0  0  0
   -2.0710   -1.4210    1.2390 C   0  0  0  0  0  0  0  0  0  0  0  0
   -1.2220   -0.5430    0.3100 C   0  0  2  0  0  0  0  0  0  0  0  0
    0.0440   -1.2690    0.0490 C   0  0  0  0  0  0  0  0  0  0  0  0
  1  2  1  0
  2  3  2  0
  2  7  1  0
  3  4  1  0
  4  5  2  0
  4 21  1  0
  5  6  1  0
  5  9  1  0
  6  7  2  0
  7  8  1  0
  9 10  1  0
 10 11  1  6
 10 20  1  0
 11 12  1  0
 12 13  1  1
 12 14  1  0
 14 15  1  0
 15 16  1  6
 15 17  1  0
 15 20  1  0
 17 18  1  0
 18 19  1  0
 20 19  1  1
 20 21  1  0
M  END
