
     RDKit          3D

 28 29  0  0  0  0  0  0  0  0999 V2000
   -6.3270   -0.9440   -1.6200 C   0  0  0  0  0  0  0  0  0  0  0  0
   -5.3850   -0.3650   -0.6300 C   0  0  0  0  0  0  0  0  0  0  0  0
   -4.3620   -1.0010   -0.1020 C   0  0  0  0  0  0  0  0  0  0  0  0
   -3.5600   -0.3400    0.8140 O   0  0  0  0  0  0  0  0  0  0  0  0
   -2.4690    0.3800    0.3640 C   0  0  0  0  0  0  0  0  0  0  0  0
   -2.2440    0.3940   -0.8710 O   0  0  0  0  0  0  0  0  0  0  0  0
   -1.5650    1.1260    1.2510 C   0  0  1  0  0  0  0  0  0  0  0  0
   -0.8970    0.2760    2.2470 C   0  0  0  0  0  0  0  0  0  0  0  0
    0.1280   -0.6550    1.6390 C   0  0  0  0  0  0  0  0  0  0  0  0
    1.0250    0.0570    0.7680 N   0  0  0  0  0  0  0  0  0  0  0  0
    2.2460   -0.5480    0.4260 C   0  0  0  0  0  0  0  0  0  0  0  0
    2.2170   -1.9480    0.3400 C   0  0  0  0  0  0  0  0  0  0  0  0
    3.3040   -2.7170    0.0440 C   0  0  0  0  0  0  0  0  0  0  0  0
    4.4980   -2.0530   -0.1810 C   0  0  0  0  0  0  0  0  0  0  0  0
    4.5600   -0.6740   -0.1040 C   0  0  0  0  0  0  0  0  0  0  0  0
    5.7670   -0.0510   -0.3360 O   0  0  0  0  0  0  0  0  0  0  0  0
    6.9100   -0.7990   -0.6420 C   0  0  0  0  0  0  0  0  0  0  0  0
    3.4380    0.0860    0.1990 C   0  0  0  0  0  0  0  0  0  0  0  0
    0.6380    1.3250    0.2720 C   0  0  0  0  0  0  0  0  0  0  0  0
    1.5700    2.1030   -0.5140 N   0  0  0  0  0  0  0  0  0  0  0  0
   -0.5410    1.8940    0.4500 C   0  0  0  0  0  0  0  0  0  0  0  0
   -0.9060    3.1960   -0.0820 C   0  0  0  0  0  0  0  0  0  0  0  0
   -0.1130    4.1160   -0.8840 C   0  0  0  0  0  0  0  0  0  0  0  0
   -2.1040    3.5930    0.1960 O   0  0  0  0  0  0  0  0  0  0  0  0
   -4.0330   -2.4130   -0.4580 C   0  0  1  0  0  0  0  0  0  0  0  0
   -2.8000   -2.4800   -1.0960 F   0  0  0  0  0  0  0  0  0  0  0  0
   -3.8760   -3.1510    0.7240 F   0  0  0  0  0  0  0  0  0  0  0  0
   -5.0200   -3.0380   -1.1700 F   0  0  0  0  0  0  0  0  0  0  0  0
  1  2  1  0
  2  3  2  3
  3  4  1  0
  3 25  1  0
  4  5  1  0
  5  6  2  0
  7  5  1  6
  7  8  1  0
  7 21  1  0
  8  9  1  0
  9 10  1  0
 10 11  1  0
 10 19  1  0
 11 12  2  0
 11 18  1  0
 12 13  1  0
 13 14  2  0
 14 15  1  0
 15 16  1  0
 15 18  2  0
 16 17  1  0
 19 20  1  0
 19 21  2  0
 21 22  1  0
 22 23  1  0
 22 24  2  0
 25 26  1  6
 25 27  1  0
 25 28  1  0
M  END
