
     RDKit          3D

 21 23  0  0  0  0  0  0  0  0999 V2000
   -2.2550    1.5620   -3.8140 C   0  0  0  0  0  0  0  0  0  0  0  0
   -2.1350    1.0010   -2.4420 C   0  0  0  0  0  0  0  0  0  0  0  0
   -3.1900    1.0270   -1.5550 C   0  0  0  0  0  0  0  0  0  0  0  0
   -3.0720    0.5030   -0.2810 C   0  0  0  0  0  0  0  0  0  0  0  0
   -1.8740   -0.0630    0.1260 C   0  0  0  0  0  0  0  0  0  0  0  0
   -0.8180   -0.0830   -0.7660 C   0  0  0  0  0  0  0  0  0  0  0  0
    0.5530   -0.5710   -0.4250 C   0  0  0  0  0  0  0  0  0  0  0  0
    1.3990    0.5380    0.1260 C   0  0  1  0  0  0  0  0  0  0  0  0
    0.9370    1.1530    1.2640 O   0  0  0  0  0  0  0  0  0  0  0  0
    2.8100    0.0850    0.4290 C   0  0  2  0  0  0  0  0  0  0  0  0
    3.6750    1.3080    0.7610 C   0  0  0  0  0  0  0  0  0  0  0  0
    3.4920   -0.6320   -0.6840 C   0  0  0  0  0  0  0  0  0  0  0  0
    4.7280   -1.1740    0.0540 C   0  0  0  0  0  0  0  0  0  0  0  0
    4.3110   -0.9930    1.5160 C   0  0  0  0  0  0  0  0  0  0  0  0
    2.9110   -0.7970    1.4760 O   0  0  0  0  0  0  0  0  0  0  0  0
   -0.9400    0.4490   -2.0630 C   0  0  0  0  0  0  0  0  0  0  0  0
   -1.7130   -0.7130    1.4400 C   0  0  2  0  0  0  0  0  0  0  0  0
   -1.3860   -2.0770    1.1730 O   0  0  0  0  0  0  0  0  0  0  0  0
   -2.9900   -0.8080    2.2490 C   0  0  0  0  0  0  0  0  0  0  0  0
   -4.2290   -0.7830    1.4000 C   0  0  0  0  0  0  0  0  0  0  0  0
   -4.2070    0.5430    0.6700 C   0  0  0  0  0  0  0  0  0  0  0  0
  1  2  1  0
  2  3  2  0
  2 16  1  0
  3  4  1  0
  4  5  2  0
  4 21  1  0
  5  6  1  0
  5 17  1  0
  6  7  1  0
  6 16  2  0
  7  8  1  0
  8  9  1  1
  8 10  1  0
 10 11  1  1
 10 12  1  0
 10 15  1  0
 12 13  1  0
 13 14  1  0
 14 15  1  0
 17 18  1  6
 17 19  1  0
 19 20  1  0
 20 21  1  0
M  END
