
     RDKit          3D

 19 20  0  0  0  0  0  0  0  0999 V2000
    4.3680   -0.4450    0.0900 C   0  0  0  0  0  0  0  0  0  0  0  0
    3.5760   -0.0230   -0.8910 O   0  0  0  0  0  0  0  0  0  0  0  0
    2.3350   -0.3900   -1.1500 C   0  0  0  0  0  0  0  0  0  0  0  0
    1.2450   -0.2010   -0.1040 C   0  0  1  0  0  0  0  0  0  0  0  0
    1.4680   -1.2020    1.0430 C   0  0  0  0  0  0  0  0  0  0  0  0
    1.5810   -2.4610    0.4980 O   0  0  0  0  0  0  0  0  0  0  0  0
    1.3350    1.1640    0.4300 C   0  0  0  0  0  0  0  0  0  0  0  0
    0.0730    1.8100    0.8910 C   0  0  1  0  0  0  0  0  0  0  0  0
    0.2390    3.1790    1.0060 O   0  0  0  0  0  0  0  0  0  0  0  0
   -0.9840    1.4620   -0.1680 C   0  0  2  0  0  0  0  0  0  0  0  0
   -2.2160    2.1040    0.1830 N   0  0  0  0  0  0  0  0  0  0  0  0
   -1.0570   -0.0510   -0.1260 C   0  0  1  0  0  0  0  0  0  0  0  0
   -2.3570   -0.5580   -0.7100 C   0  0  1  0  0  0  0  0  0  0  0  0
   -2.5070   -0.2530   -2.0460 O   0  0  0  0  0  0  0  0  0  0  0  0
   -2.3850   -2.0590   -0.4640 C   0  0  0  0  0  0  0  0  0  0  0  0
   -3.7390   -2.2520   -0.1960 O   0  0  0  0  0  0  0  0  0  0  0  0
   -4.2230   -1.1240    0.3180 N   0  0  0  0  0  0  0  0  0  0  0  0
   -3.3990   -0.1200    0.0580 O   0  0  0  0  0  0  0  0  0  0  0  0
    0.0450   -0.5600   -0.7360 O   0  0  0  0  0  0  0  0  0  0  0  0
  1  2  1  0
  2  3  1  0
  4  3  1  6
  4  5  1  0
  4  7  1  0
  4 19  1  0
  5  6  1  0
  7  8  1  0
  8  9  1  6
  8 10  1  0
 10 11  1  1
 10 12  1  0
 12 13  1  0
 12 19  1  6
 13 14  1  6
 13 15  1  0
 13 18  1  0
 15 16  1  0
 16 17  1  0
 17 18  1  0
M  CHG  1  11   1
M  END
