
     RDKit          3D

 17 18  0  0  0  0  0  0  0  0999 V2000
   -2.0680   -1.9200    2.1520 C   0  0  0  0  0  0  0  0  0  0  0  0
   -2.2860   -1.3070    0.8580 N   0  0  0  0  0  0  0  0  0  0  0  0
   -1.3990   -0.1650    0.6310 C   0  0  2  0  0  0  0  0  0  0  0  0
   -2.1790    1.1290    0.6630 C   0  0  0  0  0  0  0  0  0  0  0  0
   -2.8740    1.4410   -0.6190 C   0  0  2  0  0  0  0  0  0  0  0  0
   -4.2150    1.7530   -0.3040 O   0  0  0  0  0  0  0  0  0  0  0  0
   -2.8460    0.3550   -1.6510 C   0  0  0  0  0  0  0  0  0  0  0  0
   -1.5140   -0.2710   -1.8640 C   0  0  0  0  0  0  0  0  0  0  0  0
   -0.6410   -0.2730   -0.6280 C   0  0  1  0  0  0  0  0  0  0  0  0
    0.3850    0.7950   -0.7880 C   0  0  0  0  0  0  0  0  0  0  0  0
    1.4770    0.8840    0.2030 C   0  0  1  0  0  0  0  0  0  0  0  0
    1.0430    1.1150    1.4710 O   0  0  0  0  0  0  0  0  0  0  0  0
    2.3770   -0.3640    0.1740 C   0  0  2  0  0  0  0  0  0  0  0  0
    3.5740   -0.1970    1.0470 C   0  0  0  0  0  0  0  0  0  0  0  0
    4.6600    0.1620    0.0240 C   0  0  0  0  0  0  0  0  0  0  0  0
    4.1430   -0.5960   -1.1800 C   0  0  0  0  0  0  0  0  0  0  0  0
    2.7780   -0.5430   -1.1170 O   0  0  0  0  0  0  0  0  0  0  0  0
  1  2  1  0
  3  2  1  6
  3  4  1  0
  3  9  1  0
  4  5  1  0
  5  6  1  1
  5  7  1  0
  7  8  1  0
  8  9  1  0
  9 10  1  6
 10 11  1  0
 11 12  1  1
 11 13  1  0
 13 14  1  1
 13 17  1  0
 14 15  1  0
 15 16  1  0
 16 17  1  0
M  CHG  1   2   1
M  END
