
     RDKit          3D

 19 20  0  0  0  0  0  0  0  0999 V2000
    5.7300   -0.3600    0.3670 N   0  0  0  0  0  0  0  0  0  0  0  0
    4.6060    0.3710   -0.0700 C   0  0  0  0  0  0  0  0  0  0  0  0
    4.8170    1.4810   -0.6620 O   0  0  0  0  0  0  0  0  0  0  0  0
    3.3030   -0.0230    0.0940 O   0  0  0  0  0  0  0  0  0  0  0  0
    2.2330    0.7500   -0.3630 C   0  0  1  0  0  0  0  0  0  0  0  0
    1.4140   -0.0330   -1.3900 C   0  0  0  0  0  0  0  0  0  0  0  0
   -0.0240    0.4510   -1.2310 C   0  0  0  0  0  0  0  0  0  0  0  0
   -0.5130   -0.0920    0.0930 C   0  0  2  0  0  0  0  0  0  0  0  0
    0.6160    0.0970    1.0900 C   0  0  0  0  0  0  0  0  0  0  0  0
    1.4350    1.1660    0.7030 O   0  0  0  0  0  0  0  0  0  0  0  0
   -0.7410   -1.4670    0.0030 O   0  0  0  0  0  0  0  0  0  0  0  0
   -1.7660   -1.7440    0.9130 C   0  0  2  0  0  0  0  0  0  0  0  0
   -2.3340   -3.0280    0.7150 N   0  0  0  0  0  0  0  0  0  0  0  0
   -2.7460   -0.6130    0.5520 C   0  0  2  0  0  0  0  0  0  0  0  0
   -3.2250   -0.9310   -0.7160 O   0  0  0  0  0  0  0  0  0  0  0  0
   -1.7880    0.5320    0.5550 C   0  0  1  0  0  0  0  0  0  0  0  0
   -1.6200    0.9370    1.8870 O   0  0  0  0  0  0  0  0  0  0  0  0
   -2.2280    1.7190   -0.2280 C   0  0  0  0  0  0  0  0  0  0  0  0
   -2.4390    1.4890   -1.5630 O   0  0  0  0  0  0  0  0  0  0  0  0
  1  2  1  0
  2  3  2  0
  2  4  1  0
  5  4  1  1
  5  6  1  0
  5 10  1  0
  6  7  1  0
  8  7  1  6
  8  9  1  0
  8 11  1  0
  8 16  1  0
  9 10  1  0
 11 12  1  0
 12 13  1  6
 12 14  1  0
 14 15  1  6
 14 16  1  0
 16 17  1  1
 16 18  1  0
 18 19  1  0
M  END
