
     RDKit          3D

 17 18  0  0  0  0  0  0  0  0999 V2000
   -1.8250    3.7390   -0.1700 C   0  0  0  0  0  0  0  0  0  0  0  0
   -1.3540    2.4460    0.1510 O   0  0  0  0  0  0  0  0  0  0  0  0
   -1.1260    1.4570   -0.7900 C   0  0  0  0  0  0  0  0  0  0  0  0
   -1.3330    1.6810   -1.9860 O   0  0  0  0  0  0  0  0  0  0  0  0
   -0.6260    0.1240   -0.3250 C   0  0  2  0  0  0  0  0  0  0  0  0
   -1.6130   -0.4060    0.6550 C   0  0  0  0  0  0  0  0  0  0  0  0
   -2.7570    0.1660    1.0270 C   0  0  0  0  0  0  0  0  0  0  0  0
   -3.4050   -0.6890    1.9960 C   0  0  0  0  0  0  0  0  0  0  0  0
   -2.7670   -1.8440    1.8580 C   0  0  0  0  0  0  0  0  0  0  0  0
   -1.5330   -1.6620    1.4070 C   0  0  0  0  0  0  0  0  0  0  0  0
    0.7200    0.3990    0.3120 C   0  0  0  0  0  0  0  0  0  0  0  0
    1.6920    0.4750   -0.7570 N   0  0  0  0  0  0  0  0  0  0  0  0
    2.2760   -0.7910   -1.0700 C   0  0  1  0  0  0  0  0  0  0  0  0
    3.6260   -0.8680   -0.3950 C   0  0  0  0  0  0  0  0  0  0  0  0
    1.4290   -1.9600   -0.6690 C   0  0  0  0  0  0  0  0  0  0  0  0
    0.0670   -1.8940   -1.2800 C   0  0  0  0  0  0  0  0  0  0  0  0
   -0.4720   -0.6530   -1.4380 O   0  0  0  0  0  0  0  0  0  0  0  0
  1  2  1  0
  2  3  1  0
  3  4  2  0
  5  3  1  6
  5  6  1  0
  5 11  1  0
  5 17  1  0
  6  7  2  0
  6 10  1  0
  7  8  1  0
  8  9  2  0
  9 10  2  0
 11 12  1  0
 12 13  1  0
 13 14  1  1
 13 15  1  0
 15 16  1  0
 16 17  1  0
M  CHG  1  12   1
M  END
