
     RDKit          3D

 17 18  0  0  0  0  0  0  0  0999 V2000
    4.3190    0.0040   -0.8550 C   0  0  0  0  0  0  0  0  0  0  0  0
    3.1930    0.6550   -1.6640 C   0  0  0  0  0  0  0  0  0  0  0  0
    2.1440   -0.1900   -1.6820 O   0  0  0  0  0  0  0  0  0  0  0  0
    1.5660   -0.5220   -0.4420 C   0  0  2  0  0  0  0  0  0  0  0  0
    1.8580   -1.9560   -0.1100 C   0  0  0  0  0  0  0  0  0  0  0  0
    1.3780   -2.4080    1.1590 N   0  0  0  0  0  0  0  0  0  0  0  0
    0.1410   -0.1440   -0.5820 C   0  0  2  0  0  0  0  0  0  0  0  0
    0.0240    1.3580   -0.9120 C   0  0  0  0  0  0  0  0  0  0  0  0
    0.0980    2.1820    0.3470 C   0  0  0  0  0  0  0  0  0  0  0  0
   -1.2820    2.2460    0.9850 C   0  0  0  0  0  0  0  0  0  0  0  0
   -2.1590    1.5640    0.1520 O   0  0  0  0  0  0  0  0  0  0  0  0
   -2.1320    0.2140    0.2450 C   0  0  1  0  0  0  0  0  0  0  0  0
   -3.1090   -0.1920    1.3690 C   0  0  0  0  0  0  0  0  0  0  0  0
   -4.4120   -0.1100    0.6170 C   0  0  0  0  0  0  0  0  0  0  0  0
   -4.1500   -0.1190   -0.7250 O   0  0  0  0  0  0  0  0  0  0  0  0
   -2.8160   -0.4630   -0.9060 C   0  0  0  0  0  0  0  0  0  0  0  0
   -0.7740   -0.4020    0.5710 C   0  0  0  0  0  0  0  0  0  0  0  0
  1  2  1  0
  2  3  1  0
  3  4  1  0
  4  5  1  6
  4  7  1  0
  5  6  1  0
  7  8  1  1
  7 17  1  0
  8  9  1  0
  9 10  1  0
 10 11  1  0
 11 12  1  0
 12 13  1  1
 12 16  1  0
 12 17  1  0
 13 14  1  0
 14 15  1  0
 15 16  1  0
M  CHG  1   6   1
M  END
