
     RDKit          3D

 26 26  0  0  0  0  0  0  0  0999 V2000
    5.8640   -2.0030    2.5720 C   0  0  0  0  0  0  0  0  0  0  0  0
    6.1440   -1.6720    1.1350 C   0  0  0  0  0  0  0  0  0  0  0  0
    6.2580   -0.1690    0.8860 C   0  0  0  0  0  0  0  0  0  0  0  0
    4.9400    0.4350    1.2820 C   0  0  0  0  0  0  0  0  0  0  0  0
    4.8960    1.8120    1.1040 O   0  0  0  0  0  0  0  0  0  0  0  0
    5.1100    2.1860   -0.2150 C   0  0  0  0  0  0  0  0  0  0  0  0
    4.0830    1.6010   -1.1590 C   0  0  0  0  0  0  0  0  0  0  0  0
    2.6920    2.0610   -0.7840 C   0  0  0  0  0  0  0  0  0  0  0  0
    1.8280    1.4730   -1.6870 O   0  0  0  0  0  0  0  0  0  0  0  0
    0.4930    1.7930   -1.4830 C   0  0  1  0  0  0  0  0  0  0  0  0
   -0.2120    2.3870   -2.6420 C   0  0  0  0  0  0  0  0  0  0  0  0
   -0.1310    0.4940   -0.9790 C   0  0  0  0  0  0  0  0  0  0  0  0
   -1.5520    0.5830   -0.6900 C   0  0  0  0  0  0  0  0  0  0  0  0
   -2.1970    1.6150   -0.9470 O   0  0  0  0  0  0  0  0  0  0  0  0
   -2.2530   -0.4990   -0.1070 N   0  0  0  0  0  0  0  0  0  0  0  0
   -3.6440   -0.4120    0.1790 C   0  0  2  0  0  0  0  0  0  0  0  0
   -3.8880   -0.2720    1.6990 C   0  0  0  0  0  0  0  0  0  0  0  0
   -3.2860   -1.4820    2.4010 C   0  0  0  0  0  0  0  0  0  0  0  0
   -3.9750   -2.6770    1.8680 C   0  0  0  0  0  0  0  0  0  0  0  0
   -4.0710   -3.7070    2.5980 O   0  0  0  0  0  0  0  0  0  0  0  0
   -4.5130   -2.6810    0.5850 N   0  0  0  0  0  0  0  0  0  0  0  0
   -4.4860   -1.5350   -0.3060 C   0  0  1  0  0  0  0  0  0  0  0  0
   -5.9040   -1.0400   -0.4030 C   0  0  0  0  0  0  0  0  0  0  0  0
   -6.9630   -1.6380    0.3840 S   0  0  0  0  0  0  0  0  0  0  0  0
   -6.2820    0.0780   -1.3000 C   0  0  0  0  0  0  0  0  0  0  0  0
   -5.9160   -0.3580   -2.7150 C   0  0  0  0  0  0  0  0  0  0  0  0
  1  2  1  0
  2  3  1  0
  3  4  1  0
  4  5  1  0
  5  6  1  0
  6  7  1  0
  7  8  1  0
  8  9  1  0
  9 10  1  0
 10 11  1  6
 10 12  1  0
 12 13  1  0
 13 14  2  0
 13 15  1  0
 16 15  1  1
 16 17  1  0
 16 22  1  0
 17 18  1  0
 18 19  1  0
 19 20  2  0
 19 21  1  0
 21 22  1  0
 22 23  1  1
 23 24  2  0
 23 25  1  0
 25 26  1  0
M  END
