
     RDKit          3D

 26 27  0  0  0  0  0  0  0  0999 V2000
    8.2990   -0.1390    0.9720 C   0  0  0  0  0  0  0  0  0  0  0  0
    7.4460   -0.0740    2.0320 O   0  0  0  0  0  0  0  0  0  0  0  0
    6.4310   -0.9800    2.0970 C   0  0  0  0  0  0  0  0  0  0  0  0
    5.5320   -0.8630    0.9280 C   0  0  0  0  0  0  0  0  0  0  0  0
    6.0060   -1.0530   -0.3410 O   0  0  0  0  0  0  0  0  0  0  0  0
    4.2630   -0.5760    1.1190 C   0  0  0  0  0  0  0  0  0  0  0  0
    3.2860   -0.4360    0.0580 C   0  0  0  0  0  0  0  0  0  0  0  0
    2.0250   -0.1450    0.3090 C   0  0  0  0  0  0  0  0  0  0  0  0
    0.9870    0.0120   -0.6990 C   0  0  0  0  0  0  0  0  0  0  0  0
   -0.3690    0.3360   -0.2650 C   0  0  0  0  0  0  0  0  0  0  0  0
   -0.6220    0.4740    0.9600 O   0  0  0  0  0  0  0  0  0  0  0  0
   -1.4670    0.5150   -1.1450 N   0  0  0  0  0  0  0  0  0  0  0  0
   -2.7900    0.8350   -0.6660 C   0  0  1  0  0  0  0  0  0  0  0  0
   -3.2640    2.1850   -1.1160 C   0  0  0  0  0  0  0  0  0  0  0  0
   -2.1230    3.4400   -0.4940 S   0  0  0  0  0  0  0  0  0  0  0  0
   -2.1730    3.5660    1.3050 C   0  0  0  0  0  0  0  0  0  0  0  0
   -3.7620   -0.2690   -1.0060 C   0  0  1  0  0  0  0  0  0  0  0  0
   -3.8570   -0.4990   -2.5000 C   0  0  0  0  0  0  0  0  0  0  0  0
   -3.2510   -1.5450   -0.3870 C   0  0  0  0  0  0  0  0  0  0  0  0
   -3.4720   -1.6590    1.0810 C   0  0  0  0  0  0  0  0  0  0  0  0
   -4.8150   -1.3560    1.5240 N   0  0  0  0  0  0  0  0  0  0  0  0
   -5.3070   -0.1120    0.9730 C   0  0  0  0  0  0  0  0  0  0  0  0
   -5.1400   -0.0220   -0.5060 C   0  0  0  0  0  0  0  0  0  0  0  0
    1.3500   -0.1510   -1.9510 C   0  0  0  0  0  0  0  0  0  0  0  0
    2.6640   -0.4580   -2.2690 O   0  0  0  0  0  0  0  0  0  0  0  0
    3.7070   -0.6270   -1.3440 C   0  0  0  0  0  0  0  0  0  0  0  0
  1  2  1  0
  2  3  1  0
  3  4  1  0
  4  5  1  0
  4  6  2  3
  6  7  1  0
  7  8  2  0
  7 26  1  0
  8  9  1  0
  9 10  1  0
  9 24  2  0
 10 11  2  0
 10 12  1  0
 12 13  1  0
 13 14  1  6
 13 17  1  0
 14 15  1  0
 15 16  1  0
 17 18  1  6
 17 19  1  0
 17 23  1  0
 19 20  1  0
 20 21  1  0
 21 22  1  0
 22 23  1  0
 24 25  1  0
 25 26  1  0
M  END
