
     RDKit          3D

 26 26  0  0  0  0  0  0  0  0999 V2000
   -2.6540    2.0220   -2.1000 C   0  0  0  0  0  0  0  0  0  0  0  0
   -2.3160    2.1730   -0.6180 C   0  0  1  0  0  0  0  0  0  0  0  0
   -3.5750    2.2350    0.2020 C   0  0  0  0  0  0  0  0  0  0  0  0
   -4.4800    1.0740    0.1020 C   0  0  0  0  0  0  0  0  0  0  0  0
   -3.9760   -0.2600    0.4970 C   0  0  2  0  0  0  0  0  0  0  0  0
   -5.1440   -1.2550    0.3000 C   0  0  0  0  0  0  0  0  0  0  0  0
   -5.7670   -1.2700    1.6880 C   0  0  0  0  0  0  0  0  0  0  0  0
   -4.5430   -1.4260    2.5580 C   0  0  0  0  0  0  0  0  0  0  0  0
   -3.5790   -0.4240    1.9150 C   0  0  0  0  0  0  0  0  0  0  0  0
   -1.2620    0.8400   -0.0250 S   0  0  0  0  0  0  0  0  0  0  0  0
    0.3840    0.8960   -0.7950 C   0  0  1  0  0  0  0  0  0  0  0  0
    1.0390    2.1790   -0.2870 C   0  0  0  0  0  0  0  0  0  0  0  0
    1.1470   -0.2860   -0.3380 C   0  0  0  0  0  0  0  0  0  0  0  0
    0.6610   -0.9630    0.5960 O   0  0  0  0  0  0  0  0  0  0  0  0
    2.3700   -0.6060   -0.9520 N   0  0  0  0  0  0  0  0  0  0  0  0
    2.8060    0.1690   -2.1320 C   0  0  0  0  0  0  0  0  0  0  0  0
    3.2600   -1.6140   -0.4320 C   0  0  0  0  0  0  0  0  0  0  0  0
    4.4430   -1.1660    0.2830 C   0  0  0  0  0  0  0  0  0  0  0  0
    5.6580   -1.4500   -0.2430 C   0  0  0  0  0  0  0  0  0  0  0  0
    6.0580   -2.1260   -1.4070 C   0  0  0  0  0  0  0  0  0  0  0  0
    5.2190   -2.7080   -2.3700 N   0  0  0  0  0  0  0  0  0  0  0  0
    7.3380   -2.2520   -1.6590 O   0  0  0  0  0  0  0  0  0  0  0  0
    4.4940   -0.4460    1.5320 C   0  0  0  0  0  0  0  0  0  0  0  0
    5.8130   -0.1100    2.0390 O   0  0  0  0  0  0  0  0  0  0  0  0
    3.5060   -0.0630    2.2550 C   0  0  0  0  0  0  0  0  0  0  0  0
    3.7870    0.6430    3.4630 O   0  0  0  0  0  0  0  0  0  0  0  0
  2  1  1  6
  2  3  1  0
  2 10  1  0
  3  4  1  0
  5  4  1  1
  5  6  1  0
  5  9  1  0
  6  7  1  0
  7  8  1  0
  8  9  1  0
 10 11  1  0
 11 12  1  1
 11 13  1  0
 13 14  2  0
 13 15  1  0
 15 16  1  0
 15 17  1  0
 17 18  1  0
 18 19  2  3
 18 23  1  0
 19 20  1  0
 20 21  1  0
 20 22  2  0
 23 24  1  0
 23 25  2  3
 25 26  1  0
M  END
