
     RDKit          3D

 26 27  0  0  0  0  0  0  0  0999 V2000
    8.1720   -0.2510   -0.6630 C   0  0  0  0  0  0  0  0  0  0  0  0
    7.9050    0.0010    0.8020 C   0  0  0  0  0  0  0  0  0  0  0  0
    6.5270   -0.5160    1.1600 C   0  0  0  0  0  0  0  0  0  0  0  0
    5.5200    0.2140    0.3180 C   0  0  0  0  0  0  0  0  0  0  0  0
    4.1120   -0.2100    0.5810 C   0  0  0  0  0  0  0  0  0  0  0  0
    3.1940    0.5600   -0.2920 C   0  0  0  0  0  0  0  0  0  0  0  0
    3.6490    1.4100   -1.0900 O   0  0  0  0  0  0  0  0  0  0  0  0
    1.7990    0.3470   -0.2350 N   0  0  0  0  0  0  0  0  0  0  0  0
    0.7870    1.0420   -1.0440 C   0  0  0  0  0  0  0  0  0  0  0  0
   -0.5460    0.5470   -0.4690 C   0  0  1  0  0  0  0  0  0  0  0  0
   -1.5600    0.6540   -1.5540 C   0  0  0  0  0  0  0  0  0  0  0  0
   -2.9420    0.2060   -1.1480 C   0  0  0  0  0  0  0  0  0  0  0  0
   -3.5150    0.9810   -0.0190 C   0  0  0  0  0  0  0  0  0  0  0  0
   -4.8800    0.5130    0.3300 C   0  0  0  0  0  0  0  0  0  0  0  0
   -5.4520   -0.4690   -0.3370 C   0  0  0  0  0  0  0  0  0  0  0  0
   -6.7820   -0.9980   -0.0730 C   0  0  0  0  0  0  0  0  0  0  0  0
   -7.3170   -2.0370   -0.8200 O   0  0  0  0  0  0  0  0  0  0  0  0
   -7.6710   -0.4000    1.0870 S   0  0  2  0  0  0  0  0  0  0  0  0
   -8.9750    0.1380    0.5530 O   0  0  0  0  0  0  0  0  0  0  0  0
   -6.7720    0.8780    1.8600 C   0  0  0  0  0  0  0  0  0  0  0  0
   -5.5740    1.1830    1.4460 C   0  0  0  0  0  0  0  0  0  0  0  0
   -4.8790    2.2310    2.1050 N   0  0  0  0  0  0  0  0  0  0  0  0
   -0.1550   -0.8390   -0.0800 C   0  0  1  0  0  0  0  0  0  0  0  0
   -0.0530   -1.8250   -1.1890 C   0  0  0  0  0  0  0  0  0  0  0  0
    0.8580   -1.5230   -2.1650 O   0  0  0  0  0  0  0  0  0  0  0  0
    1.1460   -0.6110    0.6490 C   0  0  0  0  0  0  0  0  0  0  0  0
  1  2  1  0
  2  3  1  0
  3  4  1  0
  4  5  1  0
  5  6  1  0
  6  7  2  0
  6  8  1  0
  8  9  1  0
  8 26  1  0
  9 10  1  0
 10 11  1  6
 10 23  1  0
 11 12  1  0
 12 13  1  0
 13 14  1  0
 14 15  2  0
 14 21  1  0
 15 16  1  0
 16 17  1  0
 16 18  2  0
 18 19  2  0
 18 20  1  6
 20 21  2  0
 21 22  1  0
 23 24  1  6
 23 26  1  0
 24 25  1  0
M  END
