
     RDKit          3D

 18 19  0  0  0  0  0  0  0  0999 V2000
   -4.4640    1.1230    0.2330 C   0  0  0  0  0  0  0  0  0  0  0  0
   -3.5120    1.6260   -0.6860 O   0  0  0  0  0  0  0  0  0  0  0  0
   -2.2690    1.0080   -0.7260 C   0  0  0  0  0  0  0  0  0  0  0  0
   -1.3300    1.4850   -1.6140 C   0  0  0  0  0  0  0  0  0  0  0  0
   -0.0810    0.9030   -1.6910 C   0  0  0  0  0  0  0  0  0  0  0  0
    0.2150   -0.1640   -0.8660 C   0  0  0  0  0  0  0  0  0  0  0  0
    1.5390   -0.8280   -0.9190 C   0  0  0  0  0  0  0  0  0  0  0  0
    2.3440   -0.4600    0.2740 C   0  0  1  0  0  0  0  0  0  0  0  0
    3.9970   -1.2780    0.2260 S   0  0  0  0  0  0  0  0  0  0  0  0
    4.9050    0.0750    0.9340 C   0  0  0  0  0  0  0  0  0  0  0  0
    6.0900    0.0630    1.2570 O   0  0  0  0  0  0  0  0  0  0  0  0
    3.9900    1.1360    1.0410 N   0  0  0  0  0  0  0  0  0  0  0  0
    2.7970    0.9450    0.3260 C   0  0  0  0  0  0  0  0  0  0  0  0
    2.1510    1.8950   -0.2330 O   0  0  0  0  0  0  0  0  0  0  0  0
   -0.7180   -0.6600    0.0370 C   0  0  0  0  0  0  0  0  0  0  0  0
   -0.3480   -1.7250    0.8260 O   0  0  0  0  0  0  0  0  0  0  0  0
   -1.1190   -2.3690    1.7840 C   0  0  0  0  0  0  0  0  0  0  0  0
   -1.9500   -0.0580    0.0870 C   0  0  0  0  0  0  0  0  0  0  0  0
  1  2  1  0
  2  3  1  0
  3  4  2  0
  3 18  1  0
  4  5  1  0
  5  6  2  0
  6  7  1  0
  6 15  1  0
  8  7  1  6
  8  9  1  0
  8 13  1  0
  9 10  1  0
 10 11  2  0
 10 12  1  0
 12 13  1  0
 13 14  2  0
 15 16  1  0
 15 18  2  0
 16 17  1  0
M  END
