
     RDKit          3D

 26 26  0  0  0  0  0  0  0  0999 V2000
    0.4840    1.1580   -4.8960 C   0  0  0  0  0  0  0  0  0  0  0  0
    0.5160    0.4210   -3.5390 C   0  0  0  0  0  0  0  0  0  0  0  0
    1.3320    1.1590   -2.5530 C   0  0  0  0  0  0  0  0  0  0  0  0
    1.5070    0.5850   -1.2010 C   0  0  2  0  0  0  0  0  0  0  0  0
    2.1080   -0.6550   -1.1220 O   0  0  0  0  0  0  0  0  0  0  0  0
    3.3190   -0.7150   -0.5320 C   0  0  0  0  0  0  0  0  0  0  0  0
    3.4640   -0.3210    0.8860 C   0  0  2  0  0  0  0  0  0  0  0  0
    4.8540   -0.4590    1.1760 O   0  0  0  0  0  0  0  0  0  0  0  0
    2.8020   -1.2800    1.8540 C   0  0  0  0  0  0  0  0  0  0  0  0
    3.2370   -2.5890    1.6570 O   0  0  0  0  0  0  0  0  0  0  0  0
    2.5980   -3.4230    2.5710 C   0  0  0  0  0  0  0  0  0  0  0  0
    0.3030    0.5950   -0.3070 C   0  0  2  0  0  0  0  0  0  0  0  0
   -0.4960   -0.6320   -0.4500 C   0  0  0  0  0  0  0  0  0  0  0  0
   -1.9750   -0.6200    0.6410 S   0  0  0  0  0  0  0  0  0  0  0  0
   -2.8830   -2.1390    0.4040 C   0  0  0  0  0  0  0  0  0  0  0  0
   -2.5460   -3.1140   -0.4230 C   0  0  0  0  0  0  0  0  0  0  0  0
   -3.5230   -4.2170   -0.3630 C   0  0  0  0  0  0  0  0  0  0  0  0
   -4.5050   -3.7420    0.6390 C   0  0  0  0  0  0  0  0  0  0  0  0
   -4.1150   -2.5660    1.0530 C   0  0  0  0  0  0  0  0  0  0  0  0
   -4.8480   -1.7620    2.0680 C   0  0  0  0  0  0  0  0  0  0  0  0
   -0.3840    1.8530   -0.4110 N   0  0  0  0  0  0  0  0  0  0  0  0
   -0.4850    2.8160    0.6160 C   0  0  0  0  0  0  0  0  0  0  0  0
    0.0690    2.5540    1.7130 O   0  0  0  0  0  0  0  0  0  0  0  0
   -1.1860    4.0190    0.3990 N   0  0  0  0  0  0  0  0  0  0  0  0
   -1.2890    4.9980    1.4480 C   0  0  0  0  0  0  0  0  0  0  0  0
    0.1070    5.4300    1.8210 C   0  0  0  0  0  0  0  0  0  0  0  0
  1  2  1  0
  2  3  1  0
  4  3  1  6
  4  5  1  0
  4 12  1  0
  5  6  1  0
  6  7  1  0
  7  8  1  1
  7  9  1  0
  9 10  1  0
 10 11  1  0
 12 13  1  6
 12 21  1  0
 13 14  1  0
 14 15  1  0
 15 16  2  0
 15 19  1  0
 16 17  1  0
 17 18  1  0
 18 19  2  0
 19 20  1  0
 21 22  1  0
 22 23  2  0
 22 24  1  0
 24 25  1  0
 25 26  1  0
M  END
