
     RDKit          3D

 12 13  0  0  0  0  0  0  0  0999 V2000
    3.6240    0.5880    1.4940 N   0  0  0  0  0  0  0  0  0  0  0  0
    2.8200   -0.2140    0.6240 C   0  0  0  0  0  0  0  0  0  0  0  0
    1.4060    0.0840    0.7060 N   0  0  0  0  0  0  0  0  0  0  0  0
    0.6540   -0.3490   -0.2530 C   0  0  0  0  0  0  0  0  0  0  0  0
    1.0000   -1.0550   -1.3450 N   0  0  0  0  0  0  0  0  0  0  0  0
   -0.0850   -1.2890   -2.0650 N   0  0  0  0  0  0  0  0  0  0  0  0
   -1.1750   -0.7380   -1.4580 C   0  0  0  0  0  0  0  0  0  0  0  0
   -0.6980   -0.1630   -0.3410 N   0  0  0  0  0  0  0  0  0  0  0  0
   -1.5780    0.5350    0.5760 C   0  0  0  0  0  0  0  0  0  0  0  0
   -3.0040    0.1320    0.3620 C   0  0  0  0  0  0  0  0  0  0  0  0
   -3.2820    0.3240   -1.1350 C   0  0  0  0  0  0  0  0  0  0  0  0
   -2.5260   -0.6880   -1.7780 O   0  0  0  0  0  0  0  0  0  0  0  0
  1  2  1  0
  2  3  1  0
  3  4  2  3
  4  5  1  0
  4  8  1  0
  5  6  1  0
  6  7  2  0
  7  8  1  0
  7 12  1  0
  8  9  1  0
  9 10  1  0
 10 11  1  0
 11 12  1  0
M  CHG  1   1   1
M  END
