
     RDKit          3D

 12 13  0  0  0  0  0  0  0  0999 V2000
    3.2970    0.7030   -0.1930 C   0  0  0  0  0  0  0  0  0  0  0  0
    1.9580    0.2280    0.0970 N   0  0  0  0  0  0  0  0  0  0  0  0
    0.9140    0.6950   -0.6080 C   0  0  0  0  0  0  0  0  0  0  0  0
   -0.3520    0.2130   -0.2970 C   0  0  0  0  0  0  0  0  0  0  0  0
   -1.5740    0.4630   -0.7910 N   0  0  0  0  0  0  0  0  0  0  0  0
   -2.5170   -0.2580   -0.1570 C   0  0  0  0  0  0  0  0  0  0  0  0
   -3.8010   -0.2520   -0.3910 N   0  0  0  0  0  0  0  0  0  0  0  0
   -1.8620   -0.9830    0.7660 N   0  0  0  0  0  0  0  0  0  0  0  0
   -0.5510   -0.7150    0.7010 C   0  0  0  0  0  0  0  0  0  0  0  0
    0.5570   -1.1310    1.3600 N   0  0  0  0  0  0  0  0  0  0  0  0
    1.7880   -0.6790    1.0760 C   0  0  0  0  0  0  0  0  0  0  0  0
    2.7810   -1.1130    1.7350 O   0  0  0  0  0  0  0  0  0  0  0  0
  1  2  1  0
  2  3  1  0
  2 11  1  0
  3  4  2  0
  4  5  1  0
  4  9  1  0
  5  6  1  0
  6  7  2  0
  6  8  1  0
  8  9  1  0
  9 10  2  0
 10 11  1  0
 11 12  2  0
M  CHG  1   7   1
M  END
