
     RDKit          3D

 12 13  0  0  0  0  0  0  0  0999 V2000
    3.1630   -0.3310    0.5410 N   0  0  0  0  0  0  0  0  0  0  0  0
    1.8650    0.1970    0.1200 C   0  0  0  0  0  0  0  0  0  0  0  0
    1.7070    1.4570    0.3270 N   0  0  0  0  0  0  0  0  0  0  0  0
    0.5760    2.2680    0.0380 C   0  0  0  0  0  0  0  0  0  0  0  0
    0.7000    3.4410   -0.3480 O   0  0  0  0  0  0  0  0  0  0  0  0
   -0.8250    1.8200    0.1600 C   0  0  0  0  0  0  0  0  0  0  0  0
   -1.2240    0.5600    0.0360 C   0  0  0  0  0  0  0  0  0  0  0  0
   -2.5610    0.1000    0.1510 N   0  0  0  0  0  0  0  0  0  0  0  0
   -2.5640   -1.3030   -0.0500 C   0  0  0  0  0  0  0  0  0  0  0  0
   -1.3550   -1.6630   -0.2660 N   0  0  0  0  0  0  0  0  0  0  0  0
   -0.4460   -0.5980   -0.2370 N   0  0  0  0  0  0  0  0  0  0  0  0
    0.9720   -0.7840   -0.4760 C   0  0  0  0  0  0  0  0  0  0  0  0
  1  2  1  0
  2  3  2  0
  2 12  1  0
  3  4  1  0
  4  5  2  0
  4  6  1  0
  6  7  2  0
  7  8  1  0
  7 11  1  0
  8  9  1  0
  9 10  2  0
 10 11  1  0
 11 12  1  0
M  CHG  1  10   1
M  END
