
     RDKit          3D

 12 13  0  0  0  0  0  0  0  0999 V2000
   -1.9870   -1.7990    0.4000 C   0  0  0  0  0  0  0  0  0  0  0  0
   -1.4300   -0.4720    0.2440 C   0  0  0  0  0  0  0  0  0  0  0  0
   -2.2290    0.6070    0.2950 N   0  0  0  0  0  0  0  0  0  0  0  0
   -1.7910    1.8590    0.1600 C   0  0  0  0  0  0  0  0  0  0  0  0
   -0.4810    2.0790   -0.0400 N   0  0  0  0  0  0  0  0  0  0  0  0
    0.4000    1.0680   -0.1060 C   0  0  0  0  0  0  0  0  0  0  0  0
   -0.0810   -0.2400    0.0380 C   0  0  0  0  0  0  0  0  0  0  0  0
    0.7970   -1.3380   -0.0230 N   0  0  0  0  0  0  0  0  0  0  0  0
    2.1560   -1.0970   -0.2300 N   0  0  0  0  0  0  0  0  0  0  0  0
    2.6710    0.2420   -0.3820 C   0  0  0  0  0  0  0  0  0  0  0  0
    3.9000    0.3840   -0.5650 O   0  0  0  0  0  0  0  0  0  0  0  0
    1.7770    1.3420   -0.3180 N   0  0  0  0  0  0  0  0  0  0  0  0
  1  2  1  0
  2  3  2  0
  2  7  1  0
  3  4  1  0
  4  5  2  0
  5  6  1  0
  6  7  2  0
  6 12  1  0
  7  8  1  0
  8  9  1  0
  9 10  1  0
 10 11  2  0
 10 12  1  0
M  CHG  1   5   1
M  END
