
     RDKit          3D

 12 13  0  0  0  0  0  0  0  0999 V2000
   -2.4700    1.2250   -0.1970 C   0  0  0  0  0  0  0  0  0  0  0  0
   -1.7660   -0.0350   -0.2950 N   0  0  0  0  0  0  0  0  0  0  0  0
   -2.2420   -1.2520   -0.5780 C   0  0  0  0  0  0  0  0  0  0  0  0
   -1.2390   -2.1290   -0.5630 N   0  0  0  0  0  0  0  0  0  0  0  0
   -0.1140   -1.4750   -0.2700 C   0  0  0  0  0  0  0  0  0  0  0  0
    1.2080   -1.8560   -0.1210 C   0  0  0  0  0  0  0  0  0  0  0  0
    1.5210   -3.0620   -0.2730 O   0  0  0  0  0  0  0  0  0  0  0  0
    2.1000   -0.9020    0.1850 N   0  0  0  0  0  0  0  0  0  0  0  0
    1.7930    0.3870    0.3530 C   0  0  0  0  0  0  0  0  0  0  0  0
    2.7910    1.3650    0.6800 N   0  0  0  0  0  0  0  0  0  0  0  0
    0.5200    0.7730    0.2110 N   0  0  0  0  0  0  0  0  0  0  0  0
   -0.4300   -0.1450   -0.0970 C   0  0  0  0  0  0  0  0  0  0  0  0
  1  2  1  0
  2  3  1  0
  2 12  1  0
  3  4  2  0
  4  5  1  0
  5  6  1  0
  5 12  2  0
  6  7  2  0
  6  8  1  0
  8  9  2  0
  9 10  1  0
  9 11  1  0
 11 12  1  0
M  CHG  1   8   1
M  END
