
     RDKit          3D

 21 24  0  0  0  0  0  0  0  0999 V2000
   -3.6540   -1.2210    0.3170 C   0  0  0  0  0  0  0  0  0  0  0  0
   -2.7470   -0.4770   -0.5890 C   0  0  2  0  0  0  0  0  0  0  0  0
   -3.5960    0.5440   -1.3560 C   0  0  0  0  0  0  0  0  0  0  0  0
   -2.0940   -1.3230   -1.6270 C   0  0  0  0  0  0  0  0  0  0  0  0
   -2.6050   -2.1570   -2.3200 O   0  0  0  0  0  0  0  0  0  0  0  0
   -0.6370   -0.9190   -1.6380 C   0  0  0  0  0  0  0  0  0  0  0  0
   -0.4620   -0.7270   -0.1530 C   0  0  2  0  0  0  0  0  0  0  0  0
   -0.8100   -2.0900    0.4660 C   0  0  0  0  0  0  0  0  0  0  0  0
   -1.6090    0.2210    0.0650 C   0  0  2  0  0  0  0  0  0  0  0  0
   -1.7200    0.5720    1.4710 C   0  0  0  0  0  0  0  0  0  0  0  0
   -1.0120    1.8640    1.7210 C   0  0  0  0  0  0  0  0  0  0  0  0
    0.4300    1.8950    1.5670 C   0  0  0  0  0  0  0  0  0  0  0  0
    1.0840    1.1740    0.4450 C   0  0  1  0  0  0  0  0  0  0  0  0
    2.5370    1.5770    0.5050 C   0  0  0  0  0  0  0  0  0  0  0  0
    3.5420    0.5760    0.1290 C   0  0  2  0  0  0  0  0  0  0  0  0
    3.6450    0.5110   -1.4010 C   0  0  0  0  0  0  0  0  0  0  0  0
    2.3730   -0.2980   -1.6930 C   0  0  0  0  0  0  0  0  0  0  0  0
    1.9500   -0.9730   -0.4560 C   0  0  1  0  0  0  0  0  0  0  0  0
    3.2050   -0.8560    0.4210 C   0  0  0  0  0  0  0  0  0  0  0  0
    0.8520   -0.2780    0.3260 C   0  0  2  0  0  0  0  0  0  0  0  0
    0.9790   -0.8330    1.6280 O   0  0  0  0  0  0  0  0  0  0  0  0
  2  1  1  1
  2  3  1  0
  2  4  1  0
  2  9  1  0
  4  5  2  0
  4  6  1  0
  6  7  1  0
  7  8  1  1
  7  9  1  0
  7 20  1  0
  9 10  1  1
 10 11  1  0
 11 12  1  0
 13 12  1  1
 13 14  1  0
 13 20  1  0
 15 14  1  6
 15 16  1  0
 15 19  1  0
 16 17  1  0
 18 17  1  6
 18 19  1  0
 18 20  1  0
 20 21  1  1
M  END
