
     RDKit          3D

 12 13  0  0  0  0  0  0  0  0999 V2000
    3.4330    0.9420    0.1460 C   0  0  0  0  0  0  0  0  0  0  0  0
    2.8040   -0.2850   -0.3080 N   0  0  0  0  0  0  0  0  0  0  0  0
    1.3730   -0.4020   -0.2600 C   0  0  0  0  0  0  0  0  0  0  0  0
    0.7960   -1.5770   -0.6970 C   0  0  0  0  0  0  0  0  0  0  0  0
   -0.5370   -1.7470   -0.6770 N   0  0  0  0  0  0  0  0  0  0  0  0
   -1.3040   -0.7230   -0.2110 C   0  0  0  0  0  0  0  0  0  0  0  0
   -0.7360    0.4510    0.2260 C   0  0  0  0  0  0  0  0  0  0  0  0
    0.6140    0.6070    0.1990 N   0  0  0  0  0  0  0  0  0  0  0  0
   -1.5770    1.4510    0.6870 O   0  0  0  0  0  0  0  0  0  0  0  0
   -2.9480    1.2800    0.7090 N   0  0  0  0  0  0  0  0  0  0  0  0
   -3.5240    0.2130    0.3160 C   0  0  0  0  0  0  0  0  0  0  0  0
   -2.7200   -0.8470   -0.1670 N   0  0  0  0  0  0  0  0  0  0  0  0
  1  2  1  0
  2  3  1  0
  3  4  2  0
  3  8  1  0
  4  5  1  0
  5  6  2  0
  6  7  1  0
  6 12  1  0
  7  8  2  0
  7  9  1  0
  9 10  1  0
 10 11  2  0
 11 12  1  0
M  CHG  1  10   1
M  END
