
     RDKit          3D

 12 13  0  0  0  0  0  0  0  0999 V2000
    3.8980   -0.0960    0.0450 N   0  0  0  0  0  0  0  0  0  0  0  0
    2.5750   -0.4790    0.3370 C   0  0  0  0  0  0  0  0  0  0  0  0
    2.3630   -1.4550    1.0610 O   0  0  0  0  0  0  0  0  0  0  0  0
    1.4760    0.2770   -0.2160 C   0  0  0  0  0  0  0  0  0  0  0  0
    1.5340    1.3660   -1.0220 N   0  0  0  0  0  0  0  0  0  0  0  0
    0.3020    1.7430   -1.2930 N   0  0  0  0  0  0  0  0  0  0  0  0
   -0.5710    0.9190   -0.6780 C   0  0  0  0  0  0  0  0  0  0  0  0
    0.1590    0.0170   -0.0150 N   0  0  0  0  0  0  0  0  0  0  0  0
   -0.4860   -0.9950    0.7370 C   0  0  0  0  0  0  0  0  0  0  0  0
   -1.7980   -1.0170    0.7600 C   0  0  0  0  0  0  0  0  0  0  0  0
   -2.6370   -0.1150    0.0980 N   0  0  0  0  0  0  0  0  0  0  0  0
   -2.0280    0.9120   -0.6620 C   0  0  0  0  0  0  0  0  0  0  0  0
  1  2  1  0
  2  3  2  0
  2  4  1  0
  4  5  2  0
  4  8  1  0
  5  6  1  0
  6  7  2  0
  7  8  1  0
  7 12  1  0
  8  9  1  0
  9 10  2  0
 10 11  1  0
 11 12  1  0
M  CHG  1  11   1
M  END
