
     RDKit          3D

 13 12  0  0  0  0  0  0  0  0999 V2000
    1.9260    1.1750    0.0840 O   0  0  0  0  0  0  0  0  0  0  0  0
    1.8270   -0.1600    0.4960 C   0  0  1  0  0  0  0  0  0  0  0  0
    3.0800   -0.7410    0.1710 F   0  0  0  0  0  0  0  0  0  0  0  0
    1.7630   -0.3040    1.8580 F   0  0  0  0  0  0  0  0  0  0  0  0
    0.9040   -0.8140   -0.2360 O   0  0  0  0  0  0  0  0  0  0  0  0
   -0.3850   -0.4430   -0.2780 C   0  0  2  0  0  0  0  0  0  0  0  0
   -1.0390   -1.3630   -1.1460 O   0  0  0  0  0  0  0  0  0  0  0  0
   -0.6770    0.9280   -0.8380 C   0  0  0  0  0  0  0  0  0  0  0  0
   -2.0710    1.0840   -0.7900 F   0  0  0  0  0  0  0  0  0  0  0  0
   -1.1680   -0.5570    1.0170 C   0  0  1  0  0  0  0  0  0  0  0  0
   -0.6770    0.1990    2.0310 F   0  0  0  0  0  0  0  0  0  0  0  0
   -2.4800   -0.1880    0.7970 F   0  0  0  0  0  0  0  0  0  0  0  0
   -1.1640   -1.9130    1.3430 F   0  0  0  0  0  0  0  0  0  0  0  0
  2  1  1  1
  2  3  1  0
  2  4  1  0
  2  5  1  0
  5  6  1  0
  6  7  1  6
  6  8  1  0
  6 10  1  0
  8  9  1  0
 10 11  1  1
 10 12  1  0
 10 13  1  0
M  END
