
     RDKit          3D

 12 11  0  0  0  0  0  0  0  0999 V2000
    1.1860    0.2850   -1.8570 O   0  0  0  0  0  0  0  0  0  0  0  0
    1.2980    0.0380   -0.6290 C   0  0  0  0  0  0  0  0  0  0  0  0
    0.2020   -0.3130    0.1210 O   0  0  0  0  0  0  0  0  0  0  0  0
   -1.0970   -0.4200   -0.4180 C   0  0  1  0  0  0  0  0  0  0  0  0
   -1.6710   -1.6630   -0.1780 O   0  0  0  0  0  0  0  0  0  0  0  0
   -2.0000    0.6110    0.2610 C   0  0  2  0  0  0  0  0  0  0  0  0
   -3.2660    0.4780   -0.2930 F   0  0  0  0  0  0  0  0  0  0  0  0
   -1.5270    1.8510   -0.0670 F   0  0  0  0  0  0  0  0  0  0  0  0
    2.6690    0.1470   -0.0420 C   0  0  1  0  0  0  0  0  0  0  0  0
    2.9920   -1.0960    0.4670 F   0  0  0  0  0  0  0  0  0  0  0  0
    3.5780    0.6090   -0.9580 F   0  0  0  0  0  0  0  0  0  0  0  0
    2.6740    1.0290    1.0210 F   0  0  0  0  0  0  0  0  0  0  0  0
  1  2  2  0
  2  3  1  0
  2  9  1  0
  3  4  1  0
  4  5  1  1
  4  6  1  0
  6  7  1  6
  6  8  1  0
  9 10  1  1
  9 11  1  0
  9 12  1  0
M  END
