
     RDKit          3D

 12 11  0  0  0  0  0  0  0  0999 V2000
   -1.6770   -1.6390   -0.4260 O   0  0  0  0  0  0  0  0  0  0  0  0
   -0.8870   -0.4600   -0.3620 C   0  0  2  0  0  0  0  0  0  0  0  0
   -0.1610   -0.4310    0.8030 O   0  0  0  0  0  0  0  0  0  0  0  0
    1.1950   -0.4720    0.6990 C   0  0  1  0  0  0  0  0  0  0  0  0
    1.6660   -0.4690    2.0330 F   0  0  0  0  0  0  0  0  0  0  0  0
    1.7030   -1.6090    0.1280 F   0  0  0  0  0  0  0  0  0  0  0  0
    1.8580    0.7110    0.0620 C   0  0  0  0  0  0  0  0  0  0  0  0
    1.6030    1.8420    0.7750 F   0  0  0  0  0  0  0  0  0  0  0  0
   -1.8240    0.7140   -0.3950 C   0  0  2  0  0  0  0  0  0  0  0  0
   -1.1150    1.8870   -0.3410 F   0  0  0  0  0  0  0  0  0  0  0  0
   -2.6230    0.6610    0.7400 F   0  0  0  0  0  0  0  0  0  0  0  0
   -2.6370    0.7020   -1.5160 F   0  0  0  0  0  0  0  0  0  0  0  0
  2  1  1  1
  2  3  1  0
  2  9  1  0
  3  4  1  0
  4  5  1  1
  4  6  1  0
  4  7  1  0
  7  8  1  0
  9 10  1  1
  9 11  1  0
  9 12  1  0
M  END
