
     RDKit          3D

 12 11  0  0  0  0  0  0  0  0999 V2000
    1.6020   -0.7220   -1.3220 O   0  0  0  0  0  0  0  0  0  0  0  0
    1.4520   -0.1350   -0.2210 C   0  0  0  0  0  0  0  0  0  0  0  0
    0.1890    0.2050    0.1800 O   0  0  0  0  0  0  0  0  0  0  0  0
   -0.9150   -0.1080   -0.6480 C   0  0  1  0  0  0  0  0  0  0  0  0
   -0.7100    0.5440   -1.8490 F   0  0  0  0  0  0  0  0  0  0  0  0
   -0.9980   -1.4830   -0.8730 F   0  0  0  0  0  0  0  0  0  0  0  0
   -2.2140    0.3850   -0.0530 C   0  0  0  0  0  0  0  0  0  0  0  0
   -2.4410   -0.1960    1.1950 O   0  0  0  0  0  0  0  0  0  0  0  0
    2.6470    0.1660    0.6000 C   0  0  2  0  0  0  0  0  0  0  0  0
    2.6040   -0.4320    1.8440 F   0  0  0  0  0  0  0  0  0  0  0  0
    2.7790    1.5350    0.8140 F   0  0  0  0  0  0  0  0  0  0  0  0
    3.7940   -0.2510   -0.0250 F   0  0  0  0  0  0  0  0  0  0  0  0
  1  2  2  0
  2  3  1  0
  2  9  1  0
  3  4  1  0
  4  5  1  6
  4  6  1  0
  4  7  1  0
  7  8  1  0
  9 10  1  1
  9 11  1  0
  9 12  1  0
M  END
