
     RDKit          3D

 23 25  0  0  0  0  0  0  0  0999 V2000
   -4.4830    2.3780    0.7040 N   0  0  0  0  0  0  0  0  0  0  0  0
   -3.6450    1.3220    0.0920 C   0  0  0  0  0  0  0  0  0  0  0  0
   -4.3500    0.0990   -0.0080 N   0  0  0  0  0  0  0  0  0  0  0  0
   -3.9620   -1.0980    0.2190 C   0  0  0  0  0  0  0  0  0  0  0  0
   -2.6420   -1.3540    0.6380 N   0  0  0  0  0  0  0  0  0  0  0  0
   -1.4660   -0.8500    0.0420 C   0  0  0  0  0  0  0  0  0  0  0  0
   -1.4420   -0.3330   -1.2310 C   0  0  0  0  0  0  0  0  0  0  0  0
   -0.2480    0.1520   -1.7200 C   0  0  0  0  0  0  0  0  0  0  0  0
    0.9400    0.1610   -1.0250 C   0  0  0  0  0  0  0  0  0  0  0  0
    0.9060   -0.3620    0.2580 C   0  0  0  0  0  0  0  0  0  0  0  0
   -0.2800   -0.8580    0.7780 C   0  0  0  0  0  0  0  0  0  0  0  0
    2.1120   -0.3750    1.0200 N   0  0  0  0  0  0  0  0  0  0  0  0
    3.3140    0.1550    0.4250 C   0  0  0  0  0  0  0  0  0  0  0  0
    4.4420    0.1600    1.1050 C   0  0  0  0  0  0  0  0  0  0  0  0
    4.4520   -0.3480    2.3830 F   0  0  0  0  0  0  0  0  0  0  0  0
    5.6840    0.7090    0.5370 C   0  0  0  0  0  0  0  0  0  0  0  0
    5.6570    0.5490   -0.9590 C   0  0  0  0  0  0  0  0  0  0  0  0
    4.4670    1.1770   -1.4300 O   0  0  0  0  0  0  0  0  0  0  0  0
    3.2620    0.6890   -0.9390 C   0  0  0  0  0  0  0  0  0  0  0  0
    2.1500    0.6770   -1.5810 N   0  0  0  0  0  0  0  0  0  0  0  0
   -4.9280   -2.2030    0.0710 C   0  0  1  0  0  0  0  0  0  0  0  0
   -4.5260   -3.0600   -0.9070 F   0  0  0  0  0  0  0  0  0  0  0  0
   -4.9480   -2.9120    1.2580 F   0  0  0  0  0  0  0  0  0  0  0  0
  1  2  1  0
  2  3  1  0
  3  4  2  3
  4  5  1  0
  4 21  1  0
  5  6  1  0
  6  7  2  0
  6 11  1  0
  7  8  1  0
  8  9  2  0
  9 10  1  0
  9 20  1  0
 10 11  2  0
 10 12  1  0
 12 13  1  0
 13 14  2  0
 13 19  1  0
 14 15  1  0
 14 16  1  0
 16 17  1  0
 17 18  1  0
 18 19  1  0
 19 20  2  0
 21 22  1  6
 21 23  1  0
M  END
