
     RDKit          3D

 12 11  0  0  0  0  0  0  0  0999 V2000
   -1.2950   -1.3500   -0.6130 O   0  0  0  0  0  0  0  0  0  0  0  0
   -1.0080   -0.0560   -0.2630 C   0  0  2  0  0  0  0  0  0  0  0  0
   -0.9230    0.6850   -1.4630 O   0  0  0  0  0  0  0  0  0  0  0  0
    0.2360    0.0950    0.3560 O   0  0  0  0  0  0  0  0  0  0  0  0
    1.2730   -0.3160   -0.4580 C   0  0  0  0  0  0  0  0  0  0  0  0
    2.5690   -0.1140    0.2980 C   0  0  1  0  0  0  0  0  0  0  0  0
    2.6660    1.2270    0.5900 F   0  0  0  0  0  0  0  0  0  0  0  0
    2.5630   -0.8210    1.4880 F   0  0  0  0  0  0  0  0  0  0  0  0
    3.5980   -0.5310   -0.5380 F   0  0  0  0  0  0  0  0  0  0  0  0
   -2.1180    0.5350    0.5370 C   0  0  2  0  0  0  0  0  0  0  0  0
   -2.3710   -0.1400    1.7030 F   0  0  0  0  0  0  0  0  0  0  0  0
   -3.2740    0.4630   -0.2380 F   0  0  0  0  0  0  0  0  0  0  0  0
  2  1  1  6
  2  3  1  0
  2  4  1  0
  2 10  1  0
  4  5  1  0
  5  6  1  0
  6  7  1  1
  6  8  1  0
  6  9  1  0
 10 11  1  1
 10 12  1  0
M  END
