
     RDKit          3D

 23 25  0  0  0  0  0  0  0  0999 V2000
   -6.9370   -1.1600    0.8370 N   0  0  0  0  0  0  0  0  0  0  0  0
   -5.5520   -0.9280    0.6260 C   0  0  0  0  0  0  0  0  0  0  0  0
   -5.1130    0.2100    0.1160 C   0  0  0  0  0  0  0  0  0  0  0  0
   -3.6980    0.4410   -0.0970 C   0  0  0  0  0  0  0  0  0  0  0  0
   -3.1800    1.5680   -0.6080 N   0  0  0  0  0  0  0  0  0  0  0  0
   -1.8890    1.4140   -0.6510 N   0  0  0  0  0  0  0  0  0  0  0  0
   -1.5840    0.2030   -0.1740 C   0  0  0  0  0  0  0  0  0  0  0  0
   -0.2060   -0.2960   -0.0800 C   0  0  0  0  0  0  0  0  0  0  0  0
    0.9590    0.3480   -0.4450 C   0  0  0  0  0  0  0  0  0  0  0  0
    2.0460   -0.4620   -0.1980 C   0  0  0  0  0  0  0  0  0  0  0  0
    3.4610   -0.1990   -0.4250 C   0  0  0  0  0  0  0  0  0  0  0  0
    4.1240   -0.7290   -1.4100 C   0  0  0  0  0  0  0  0  0  0  0  0
    5.3630   -0.4690   -1.6020 C   0  0  0  0  0  0  0  0  0  0  0  0
    6.2950    0.0010   -0.5410 C   0  0  0  0  0  0  0  0  0  0  0  0
    5.5370    0.0660    0.7900 C   0  0  0  0  0  0  0  0  0  0  0  0
    4.2060    0.7060    0.4880 C   0  0  0  0  0  0  0  0  0  0  0  0
    1.5160   -1.5870    0.3130 N   0  0  0  0  0  0  0  0  0  0  0  0
    0.2010   -1.4980    0.3860 N   0  0  0  0  0  0  0  0  0  0  0  0
   -2.6920   -0.3900    0.1650 O   0  0  0  0  0  0  0  0  0  0  0  0
   -6.0810    1.2500   -0.2360 C   0  0  1  0  0  0  0  0  0  0  0  0
   -6.0150    1.5590   -1.5890 F   0  0  0  0  0  0  0  0  0  0  0  0
   -7.3780    0.8670    0.0180 F   0  0  0  0  0  0  0  0  0  0  0  0
   -5.7400    2.4060    0.4510 F   0  0  0  0  0  0  0  0  0  0  0  0
  1  2  1  0
  2  3  2  3
  3  4  1  0
  3 20  1  0
  4  5  2  0
  4 19  1  0
  5  6  1  0
  6  7  2  0
  7  8  1  0
  7 19  1  0
  8  9  1  0
  8 18  2  0
  9 10  2  0
 10 11  1  0
 10 17  1  0
 11 12  2  0
 11 16  1  0
 12 13  2  0
 13 14  1  0
 14 15  1  0
 15 16  1  0
 17 18  1  0
 20 21  1  6
 20 22  1  0
 20 23  1  0
M  END
