
     RDKit          3D

 25 27  0  0  0  0  0  0  0  0999 V2000
    3.7760    1.3830    2.9140 C   0  0  0  0  0  0  0  0  0  0  0  0
    3.3090    1.1430    1.5010 C   0  0  0  0  0  0  0  0  0  0  0  0
    4.0920    1.3090    0.3840 C   0  0  0  0  0  0  0  0  0  0  0  0
    3.2920    0.9890   -0.6920 C   0  0  0  0  0  0  0  0  0  0  0  0
    2.0640    0.6440   -0.1950 C   0  0  0  0  0  0  0  0  0  0  0  0
    2.1360    0.7550    1.1090 O   0  0  0  0  0  0  0  0  0  0  0  0
    0.9010    0.2270   -1.0510 C   0  0  2  0  0  0  0  0  0  0  0  0
    0.6630   -1.1190   -1.0170 O   0  0  0  0  0  0  0  0  0  0  0  0
   -0.3790   -1.9060   -0.7210 C   0  0  0  0  0  0  0  0  0  0  0  0
   -0.1910   -3.2880   -0.8170 C   0  0  0  0  0  0  0  0  0  0  0  0
   -1.1660   -4.1960   -0.5450 C   0  0  0  0  0  0  0  0  0  0  0  0
   -2.3940   -3.7140   -0.1570 C   0  0  0  0  0  0  0  0  0  0  0  0
   -2.5980   -2.3500   -0.0570 C   0  0  0  0  0  0  0  0  0  0  0  0
   -1.6000   -1.4140   -0.3350 C   0  0  0  0  0  0  0  0  0  0  0  0
   -1.8730   -0.0790   -0.2140 O   0  0  0  0  0  0  0  0  0  0  0  0
   -3.0340    0.5610    0.1630 C   0  0  2  0  0  0  0  0  0  0  0  0
   -3.5780    1.4350   -0.9860 C   0  0  0  0  0  0  0  0  0  0  0  0
   -3.8470    0.6140   -2.0990 O   0  0  0  0  0  0  0  0  0  0  0  0
   -2.7800    1.5550    1.3030 C   0  0  0  0  0  0  0  0  0  0  0  0
   -2.2390    0.8480    2.4850 C   0  0  0  0  0  0  0  0  0  0  0  0
   -2.0500   -0.3880    2.4620 O   0  0  0  0  0  0  0  0  0  0  0  0
   -1.9170    1.5010    3.6660 O   0  0  0  0  0  0  0  0  0  0  0  0
    1.2370    0.5710   -2.5150 C   0  0  0  0  0  0  0  0  0  0  0  0
    2.6290   -0.0200   -2.7680 C   0  0  0  0  0  0  0  0  0  0  0  0
    3.5940    0.9820   -2.1720 C   0  0  0  0  0  0  0  0  0  0  0  0
  1  2  1  0
  2  3  2  0
  2  6  1  0
  3  4  1  0
  4  5  2  0
  4 25  1  0
  5  6  1  0
  5  7  1  0
  7  8  1  6
  7 23  1  0
  8  9  1  0
  9 10  2  0
  9 14  1  0
 10 11  1  0
 11 12  2  0
 12 13  1  0
 13 14  2  0
 14 15  1  0
 15 16  1  0
 16 17  1  6
 16 19  1  0
 17 18  1  0
 19 20  1  0
 20 21  2  0
 20 22  1  0
 23 24  1  0
 24 25  1  0
M  END
