
     RDKit          3D

 25 27  0  0  0  0  0  0  0  0999 V2000
   -5.4830   -2.0050   -1.6010 O   0  0  0  0  0  0  0  0  0  0  0  0
   -5.7200   -1.0910   -0.5830 C   0  0  0  0  0  0  0  0  0  0  0  0
   -6.9850   -0.9460   -0.1070 C   0  0  0  0  0  0  0  0  0  0  0  0
   -7.2150   -0.0440    0.8990 C   0  0  0  0  0  0  0  0  0  0  0  0
   -6.1860    0.6900    1.4040 C   0  0  0  0  0  0  0  0  0  0  0  0
   -4.9020    0.5370    0.9140 C   0  0  0  0  0  0  0  0  0  0  0  0
   -4.6350   -0.3530   -0.0870 C   0  0  0  0  0  0  0  0  0  0  0  0
   -3.3820   -0.5620   -0.6270 O   0  0  0  0  0  0  0  0  0  0  0  0
   -2.2100    0.0660   -0.2690 C   0  0  1  0  0  0  0  0  0  0  0  0
   -1.1370   -0.8890    0.2210 C   0  0  0  0  0  0  0  0  0  0  0  0
    0.1300   -0.1690    0.3750 C   0  0  0  0  0  0  0  0  0  0  0  0
    1.1700   -0.8270    1.0610 O   0  0  0  0  0  0  0  0  0  0  0  0
    2.4230   -1.0510    0.4290 C   0  0  0  0  0  0  0  0  0  0  0  0
    3.2980   -1.7750    1.4430 C   0  0  0  0  0  0  0  0  0  0  0  0
    4.5730   -2.0190    0.8410 O   0  0  0  0  0  0  0  0  0  0  0  0
    5.3370   -0.9200    0.4040 C   0  0  0  0  0  0  0  0  0  0  0  0
    5.4220   -0.4330   -0.8100 C   0  0  0  0  0  0  0  0  0  0  0  0
    6.3330    0.7220   -0.8260 C   0  0  1  0  0  0  0  0  0  0  0  0
    5.6280    1.8670   -1.2020 O   0  0  0  0  0  0  0  0  0  0  0  0
    6.7750    0.8410    0.5800 C   0  0  0  0  0  0  0  0  0  0  0  0
    6.1900   -0.1080    1.2570 C   0  0  0  0  0  0  0  0  0  0  0  0
    0.3940    1.0330   -0.0650 C   0  0  0  0  0  0  0  0  0  0  0  0
   -0.6220    1.8250   -0.8030 C   0  0  2  0  0  0  0  0  0  0  0  0
   -1.3890    2.5650    0.1170 O   0  0  0  0  0  0  0  0  0  0  0  0
   -1.5650    0.8130   -1.4470 C   0  0  0  0  0  0  0  0  0  0  0  0
  1  2  1  0
  2  3  2  0
  2  7  1  0
  3  4  1  0
  4  5  2  0
  5  6  1  0
  6  7  2  0
  7  8  1  0
  9  8  1  6
  9 10  1  0
  9 25  1  0
 10 11  1  0
 11 12  1  0
 11 22  2  0
 12 13  1  0
 13 14  1  0
 14 15  1  0
 15 16  1  0
 16 17  2  0
 16 21  1  0
 17 18  1  0
 18 19  1  1
 18 20  1  0
 20 21  2  0
 22 23  1  0
 23 24  1  1
 23 25  1  0
M  END
