
     RDKit          3D

 25 27  0  0  0  0  0  0  0  0999 V2000
   -0.1420   -0.2600   -1.3270 C   0  0  0  0  0  0  0  0  0  0  0  0
   -0.8550    0.6690   -0.3750 C   0  0  0  0  0  0  0  0  0  0  0  0
   -0.4180    1.8180    0.2160 C   0  0  0  0  0  0  0  0  0  0  0  0
    0.9120    2.4250    0.0830 C   0  0  0  0  0  0  0  0  0  0  0  0
    1.9920    1.9320    0.9540 C   0  0  0  0  0  0  0  0  0  0  0  0
    2.3250    0.5120    0.8000 C   0  0  0  0  0  0  0  0  0  0  0  0
    1.6030   -0.3770    1.3050 O   0  0  0  0  0  0  0  0  0  0  0  0
    3.4710    0.1210    0.0860 O   0  0  0  0  0  0  0  0  0  0  0  0
    3.8770   -1.2100   -0.0990 C   0  0  2  0  0  0  0  0  0  0  0  0
    5.1860   -1.4990    0.6260 C   0  0  0  0  0  0  0  0  0  0  0  0
    3.9680   -1.6160   -1.5410 C   0  0  1  0  0  0  0  0  0  0  0  0
    2.7300   -1.5040   -2.1310 O   0  0  0  0  0  0  0  0  0  0  0  0
    5.0400   -0.8520   -2.2960 C   0  0  0  0  0  0  0  0  0  0  0  0
    4.7870    0.5000   -2.4020 O   0  0  0  0  0  0  0  0  0  0  0  0
   -1.4030    2.3090    0.9440 O   0  0  0  0  0  0  0  0  0  0  0  0
   -2.4630    1.5720    0.8840 C   0  0  0  0  0  0  0  0  0  0  0  0
   -3.7260    1.6750    1.4670 C   0  0  0  0  0  0  0  0  0  0  0  0
   -4.6930    0.7260    1.2260 C   0  0  0  0  0  0  0  0  0  0  0  0
   -4.4080   -0.3390    0.3990 C   0  0  0  0  0  0  0  0  0  0  0  0
   -3.1410   -0.4400   -0.1840 C   0  0  0  0  0  0  0  0  0  0  0  0
   -2.1780    0.5090    0.0590 C   0  0  0  0  0  0  0  0  0  0  0  0
   -5.3770   -1.2940    0.1550 O   0  0  0  0  0  0  0  0  0  0  0  0
   -6.6780   -1.3030    0.6530 C   0  0  0  0  0  0  0  0  0  0  0  0
   -6.9310   -0.1480    1.5300 C   0  0  0  0  0  0  0  0  0  0  0  0
   -6.0340    0.7750    1.7940 C   0  0  0  0  0  0  0  0  0  0  0  0
  1  2  1  0
  2  3  2  0
  2 21  1  0
  3  4  1  0
  3 15  1  0
  4  5  1  0
  5  6  1  0
  6  7  2  0
  6  8  1  0
  8  9  1  0
  9 10  1  6
  9 11  1  0
 11 12  1  6
 11 13  1  0
 13 14  1  0
 15 16  1  0
 16 17  2  0
 16 21  1  0
 17 18  1  0
 18 19  2  0
 18 25  1  0
 19 20  1  0
 19 22  1  0
 20 21  2  0
 22 23  1  0
 23 24  1  0
 24 25  2  0
M  END
