
     RDKit          3D

 25 27  0  0  0  0  0  0  0  0999 V2000
   -7.0860   -0.3040   -0.0480 C   0  0  0  0  0  0  0  0  0  0  0  0
   -5.8470    0.5470   -0.5190 C   0  0  0  0  0  0  0  0  0  0  0  0
   -4.9160    0.4810    0.6130 C   0  0  1  0  0  0  0  0  0  0  0  0
   -4.7890   -0.8320    1.1850 O   0  0  0  0  0  0  0  0  0  0  0  0
   -3.4700    0.7630    0.1460 C   0  0  0  0  0  0  0  0  0  0  0  0
   -2.7760    1.7460    0.7400 C   0  0  0  0  0  0  0  0  0  0  0  0
   -1.3700    1.6630    0.8280 C   0  0  0  0  0  0  0  0  0  0  0  0
   -0.7090    0.5880    0.2890 C   0  0  0  0  0  0  0  0  0  0  0  0
    0.6710    0.5930    0.4060 O   0  0  0  0  0  0  0  0  0  0  0  0
    1.4290   -0.1940   -0.4830 C   0  0  0  0  0  0  0  0  0  0  0  0
    2.7900   -0.3000   -0.0240 C   0  0  0  0  0  0  0  0  0  0  0  0
    3.0630   -1.3060    0.9020 C   0  0  0  0  0  0  0  0  0  0  0  0
    4.4290   -1.4730    1.1740 C   0  0  0  0  0  0  0  0  0  0  0  0
    5.4810   -0.8760    0.7180 C   0  0  0  0  0  0  0  0  0  0  0  0
    6.6440   -0.6650    0.5830 O   0  0  0  0  0  0  0  0  0  0  0  0
    7.9100   -0.4380    0.4390 C   0  0  0  0  0  0  0  0  0  0  0  0
    5.0130    0.2480   -0.3310 C   0  0  0  0  0  0  0  0  0  0  0  0
    3.7910    0.4330   -0.5870 C   0  0  0  0  0  0  0  0  0  0  0  0
    3.6380    1.5990   -1.4860 O   0  0  0  0  0  0  0  0  0  0  0  0
    4.9260    2.0370   -1.7050 C   0  0  0  0  0  0  0  0  0  0  0  0
    5.7860    1.1210   -1.0640 O   0  0  0  0  0  0  0  0  0  0  0  0
   -1.3920   -0.3880   -0.2950 C   0  0  0  0  0  0  0  0  0  0  0  0
   -2.7700   -0.3340   -0.3930 C   0  0  0  0  0  0  0  0  0  0  0  0
   -3.5370   -1.3030   -1.1760 C   0  0  0  0  0  0  0  0  0  0  0  0
   -2.7050   -2.3570   -1.5650 O   0  0  0  0  0  0  0  0  0  0  0  0
  1  2  1  0
  2  3  1  0
  3  4  1  6
  3  5  1  0
  5  6  2  0
  5 23  1  0
  6  7  1  0
  7  8  2  0
  8  9  1  0
  8 22  1  0
  9 10  1  0
 10 11  1  0
 11 12  2  0
 11 18  1  0
 12 13  1  0
 13 14  2  0
 14 15  1  0
 14 17  1  0
 15 16  1  0
 17 18  2  0
 17 21  1  0
 18 19  1  0
 19 20  1  0
 20 21  1  0
 22 23  2  0
 23 24  1  0
 24 25  1  0
M  END
