
     RDKit          3D

 25 27  0  0  0  0  0  0  0  0999 V2000
    3.1470    2.5020    0.8190 O   0  0  0  0  0  0  0  0  0  0  0  0
    4.0680    1.4900    0.4660 C   0  0  0  0  0  0  0  0  0  0  0  0
    5.1290    1.3720    1.2540 C   0  0  0  0  0  0  0  0  0  0  0  0
    6.2080    0.3720    1.0520 C   0  0  0  0  0  0  0  0  0  0  0  0
    5.6730   -0.9950    0.7460 C   0  0  0  0  0  0  0  0  0  0  0  0
    5.1980   -1.2300   -0.6170 C   0  0  1  0  0  0  0  0  0  0  0  0
    4.7440   -2.5710   -0.6820 O   0  0  0  0  0  0  0  0  0  0  0  0
    4.1560   -0.3780   -1.1470 C   0  0  0  0  0  0  0  0  0  0  0  0
    3.6580    0.7600   -0.7270 C   0  0  0  0  0  0  0  0  0  0  0  0
    2.6250    1.3390   -1.4970 O   0  0  0  0  0  0  0  0  0  0  0  0
    1.2660    1.1090   -1.1770 C   0  0  0  0  0  0  0  0  0  0  0  0
    1.0100   -0.3680   -1.2600 C   0  0  0  0  0  0  0  0  0  0  0  0
   -0.4200   -0.7470   -0.9420 C   0  0  0  0  0  0  0  0  0  0  0  0
   -0.7710   -0.3170    0.4540 C   0  0  0  0  0  0  0  0  0  0  0  0
   -2.0480   -0.5960    0.8840 O   0  0  0  0  0  0  0  0  0  0  0  0
   -3.2720   -0.1970    0.4700 C   0  0  0  0  0  0  0  0  0  0  0  0
   -3.4870    0.6790   -0.5600 C   0  0  0  0  0  0  0  0  0  0  0  0
   -4.7520    1.0630   -0.9600 C   0  0  0  0  0  0  0  0  0  0  0  0
   -5.8380    0.5590   -0.3130 C   0  0  0  0  0  0  0  0  0  0  0  0
   -5.6320   -0.3240    0.7250 C   0  0  0  0  0  0  0  0  0  0  0  0
   -4.3900   -0.7170    1.1360 C   0  0  0  0  0  0  0  0  0  0  0  0
   -4.1680   -1.5980    2.1720 O   0  0  0  0  0  0  0  0  0  0  0  0
   -6.9990   -0.6790    1.2070 C   0  0  0  0  0  0  0  0  0  0  0  0
   -7.7760    0.4030    0.7980 O   0  0  0  0  0  0  0  0  0  0  0  0
   -7.3130    0.7370   -0.4600 C   0  0  0  0  0  0  0  0  0  0  0  0
  1  2  1  0
  2  3  2  0
  2  9  1  0
  3  4  1  0
  4  5  1  0
  5  6  1  0
  6  7  1  1
  6  8  1  0
  8  9  2  0
  9 10  1  0
 10 11  1  0
 11 12  1  0
 12 13  1  0
 13 14  1  0
 14 15  1  0
 15 16  1  0
 16 17  2  0
 16 21  1  0
 17 18  1  0
 18 19  2  0
 19 20  1  0
 19 25  1  0
 20 21  2  0
 20 23  1  0
 21 22  1  0
 23 24  1  0
 24 25  1  0
M  END
