
     RDKit          3D

 23 26  0  0  0  0  0  0  0  0999 V2000
    5.9250    1.4020   -1.2600 C   0  0  0  0  0  0  0  0  0  0  0  0
    6.2990    0.1030   -1.5160 C   0  0  0  0  0  0  0  0  0  0  0  0
    5.5450   -0.9430   -1.0310 C   0  0  0  0  0  0  0  0  0  0  0  0
    4.4100   -0.6790   -0.2880 C   0  0  0  0  0  0  0  0  0  0  0  0
    3.9970    0.6070   -0.0100 C   0  0  0  0  0  0  0  0  0  0  0  0
    4.7880    1.6380   -0.5170 C   0  0  0  0  0  0  0  0  0  0  0  0
    2.8150    0.8310    0.7030 N   0  0  0  0  0  0  0  0  0  0  0  0
    2.0210   -0.1230    1.1450 C   0  0  0  0  0  0  0  0  0  0  0  0
    0.8020    0.2780    1.9000 C   0  0  0  0  0  0  0  0  0  0  0  0
   -0.3760   -0.0790    1.2650 N   0  0  0  0  0  0  0  0  0  0  0  0
   -0.8160   -1.4090    1.1770 C   0  0  0  0  0  0  0  0  0  0  0  0
   -1.1630   -1.7420   -0.2630 C   0  0  0  0  0  0  0  0  0  0  0  0
   -2.5720   -1.3600   -0.6360 C   0  0  0  0  0  0  0  0  0  0  0  0
   -2.8320    0.0440   -0.4060 N   0  0  0  0  0  0  0  0  0  0  0  0
   -4.1950    0.4020   -0.4730 C   0  0  0  0  0  0  0  0  0  0  0  0
   -4.7550    1.6450   -0.2810 C   0  0  0  0  0  0  0  0  0  0  0  0
   -6.0990    1.5850   -0.4320 N   0  0  0  0  0  0  0  0  0  0  0  0
   -6.3860    0.3060   -0.7180 C   0  0  0  0  0  0  0  0  0  0  0  0
   -5.2550   -0.4080   -0.7450 N   0  0  0  0  0  0  0  0  0  0  0  0
   -1.9040    1.1090   -0.1230 C   0  0  0  0  0  0  0  0  0  0  0  0
   -1.4400    0.9040    1.3260 C   0  0  0  0  0  0  0  0  0  0  0  0
    2.3740   -1.5050    0.8190 C   0  0  0  0  0  0  0  0  0  0  0  0
    3.6210   -1.6930    0.2280 O   0  0  0  0  0  0  0  0  0  0  0  0
  1  2  2  0
  1  6  1  0
  2  3  1  0
  3  4  2  0
  4  5  1  0
  4 23  1  0
  5  6  2  0
  5  7  1  0
  7  8  2  0
  8  9  1  0
  8 22  1  0
  9 10  1  0
 10 11  1  0
 10 21  1  0
 11 12  1  0
 12 13  1  0
 13 14  1  0
 14 15  1  0
 14 20  1  0
 15 16  2  0
 15 19  1  0
 16 17  1  0
 17 18  1  0
 18 19  2  0
 20 21  1  0
 22 23  1  0
M  END
