
     RDKit          3D

 23 26  0  0  0  0  0  0  0  0999 V2000
   -1.0910   -2.9430    2.5840 C   0  0  0  0  0  0  0  0  0  0  0  0
   -1.6660   -1.9060    1.6850 C   0  0  0  0  0  0  0  0  0  0  0  0
   -3.0160   -1.7290    1.5290 C   0  0  0  0  0  0  0  0  0  0  0  0
   -3.5150   -0.7550    0.6860 C   0  0  0  0  0  0  0  0  0  0  0  0
   -4.8080   -0.3620    0.3440 C   0  0  0  0  0  0  0  0  0  0  0  0
   -4.6870    0.6770   -0.5550 C   0  0  0  0  0  0  0  0  0  0  0  0
   -3.3860    0.9430   -0.7820 N   0  0  0  0  0  0  0  0  0  0  0  0
   -2.8390    1.9760   -1.6730 C   0  0  0  0  0  0  0  0  0  0  0  0
   -2.6830    0.0770   -0.0320 C   0  0  0  0  0  0  0  0  0  0  0  0
   -1.3000   -0.0910    0.1160 C   0  0  0  0  0  0  0  0  0  0  0  0
   -0.8120   -1.0640    0.9590 C   0  0  0  0  0  0  0  0  0  0  0  0
    0.5780   -1.3030    1.1160 N   0  0  0  0  0  0  0  0  0  0  0  0
    1.5190   -0.3710    0.6140 C   0  0  0  0  0  0  0  0  0  0  0  0
    1.3900    0.9980    0.7210 C   0  0  0  0  0  0  0  0  0  0  0  0
    2.3130    1.8280    0.1950 N   0  0  0  0  0  0  0  0  0  0  0  0
    3.4040    1.4060   -0.4590 C   0  0  0  0  0  0  0  0  0  0  0  0
    4.3260    2.2890   -0.9830 C   0  0  0  0  0  0  0  0  0  0  0  0
    5.4310    1.7990   -1.6460 C   0  0  0  0  0  0  0  0  0  0  0  0
    6.2820    2.6120   -2.1300 O   0  0  0  0  0  0  0  0  0  0  0  0
    5.5660    0.4730   -1.7550 N   0  0  0  0  0  0  0  0  0  0  0  0
    4.6790   -0.3680   -1.2500 N   0  0  0  0  0  0  0  0  0  0  0  0
    3.5750    0.0510   -0.5890 C   0  0  0  0  0  0  0  0  0  0  0  0
    2.6580   -0.8230   -0.0680 C   0  0  0  0  0  0  0  0  0  0  0  0
  1  2  1  0
  2  3  2  0
  2 11  1  0
  3  4  1  0
  4  5  1  0
  4  9  2  0
  5  6  2  0
  6  7  1  0
  7  8  1  0
  7  9  1  0
  9 10  1  0
 10 11  2  0
 11 12  1  0
 12 13  1  0
 13 14  1  0
 13 23  2  0
 14 15  2  0
 15 16  1  0
 16 17  2  0
 16 22  1  0
 17 18  1  0
 18 19  2  0
 18 20  1  0
 20 21  1  0
 21 22  2  0
 22 23  1  0
M  END
