
     RDKit          3D

 23 25  0  0  0  0  0  0  0  0999 V2000
    6.9570   -1.1830   -0.7650 C   0  0  0  0  0  0  0  0  0  0  0  0
    5.8430   -0.1650   -1.0170 C   0  0  0  0  0  0  0  0  0  0  0  0
    4.6370   -0.6690   -0.2610 C   0  0  0  0  0  0  0  0  0  0  0  0
    3.4780    0.1880   -0.3920 N   0  0  0  0  0  0  0  0  0  0  0  0
    3.7220    1.4200    0.2840 C   0  0  0  0  0  0  0  0  0  0  0  0
    2.9590    1.4770    1.6060 C   0  0  0  0  0  0  0  0  0  0  0  0
    1.4950    1.4990    1.2840 C   0  0  0  0  0  0  0  0  0  0  0  0
    1.1540    0.3360    0.3810 C   0  0  2  0  0  0  0  0  0  0  0  0
    0.5610    0.9020   -0.8890 C   0  0  0  0  0  0  0  0  0  0  0  0
   -0.8550    1.1870   -0.4370 C   0  0  0  0  0  0  0  0  0  0  0  0
   -1.1810   -0.0260    0.2820 N   0  0  0  0  0  0  0  0  0  0  0  0
   -2.4910   -0.5920    0.3420 C   0  0  0  0  0  0  0  0  0  0  0  0
   -3.5460   -0.0330   -0.2650 N   0  0  0  0  0  0  0  0  0  0  0  0
   -4.7930   -0.5320   -0.2280 C   0  0  0  0  0  0  0  0  0  0  0  0
   -5.8980    0.1670   -0.9360 C   0  0  2  0  0  0  0  0  0  0  0  0
   -6.7270    0.8280    0.1560 C   0  0  0  0  0  0  0  0  0  0  0  0
   -6.7100   -0.7230   -1.8090 C   0  0  0  0  0  0  0  0  0  0  0  0
   -4.9990   -1.6690    0.4660 N   0  0  0  0  0  0  0  0  0  0  0  0
   -3.9880   -2.2580    1.0830 N   0  0  0  0  0  0  0  0  0  0  0  0
   -2.7370   -1.7630    1.0490 C   0  0  0  0  0  0  0  0  0  0  0  0
   -1.8230   -2.3590    1.6470 O   0  0  0  0  0  0  0  0  0  0  0  0
    0.0330   -0.5190    0.8960 C   0  0  0  0  0  0  0  0  0  0  0  0
    2.3410   -0.5480    0.1150 C   0  0  0  0  0  0  0  0  0  0  0  0
  1  2  1  0
  2  3  1  0
  3  4  1  0
  4  5  1  0
  4 23  1  0
  5  6  1  0
  6  7  1  0
  8  7  1  1
  8  9  1  0
  8 22  1  0
  8 23  1  0
  9 10  1  0
 10 11  1  0
 11 12  1  0
 11 22  1  0
 12 13  2  0
 12 20  1  0
 13 14  1  0
 14 15  1  0
 14 18  2  0
 15 16  1  1
 15 17  1  0
 18 19  1  0
 19 20  1  0
 20 21  2  0
M  END
