
     RDKit          3D

 12 13  0  0  0  0  0  0  0  0999 V2000
    3.3850   -0.7840   -0.1450 N   0  0  0  0  0  0  0  0  0  0  0  0
    2.0580   -0.2710   -0.1130 C   0  0  0  0  0  0  0  0  0  0  0  0
    1.8120    1.0960   -0.2610 C   0  0  0  0  0  0  0  0  0  0  0  0
    0.5250    1.5910   -0.2290 C   0  0  0  0  0  0  0  0  0  0  0  0
   -0.5680    0.7720   -0.0520 C   0  0  0  0  0  0  0  0  0  0  0  0
   -1.8640    1.2530   -0.0180 C   0  0  0  0  0  0  0  0  0  0  0  0
   -2.0440    2.4990   -0.1560 O   0  0  0  0  0  0  0  0  0  0  0  0
   -2.9430    0.4680    0.1540 N   0  0  0  0  0  0  0  0  0  0  0  0
   -2.7250   -0.8500    0.2990 C   0  0  0  0  0  0  0  0  0  0  0  0
   -1.4470   -1.3820    0.2720 C   0  0  0  0  0  0  0  0  0  0  0  0
   -0.3370   -0.5800    0.0960 C   0  0  0  0  0  0  0  0  0  0  0  0
    0.9500   -1.0750    0.0640 C   0  0  0  0  0  0  0  0  0  0  0  0
  1  2  1  0
  2  3  2  0
  2 12  1  0
  3  4  1  0
  4  5  2  0
  5  6  1  0
  5 11  1  0
  6  7  2  0
  6  8  1  0
  8  9  1  0
  9 10  2  0
 10 11  1  0
 11 12  2  0
M  END
