
     RDKit          3D

 23 26  0  0  0  0  0  0  0  0999 V2000
   -2.7370    1.5470    0.8460 C   0  0  0  0  0  0  0  0  0  0  0  0
   -3.7060    0.4770    0.5150 C   0  0  0  0  0  0  0  0  0  0  0  0
   -5.0280    0.7940    0.2650 C   0  0  0  0  0  0  0  0  0  0  0  0
   -5.9390   -0.1890    0.0230 C   0  0  0  0  0  0  0  0  0  0  0  0
   -5.5930   -1.5030    0.0180 N   0  0  0  0  0  0  0  0  0  0  0  0
   -4.3400   -1.8460    0.2540 C   0  0  0  0  0  0  0  0  0  0  0  0
   -3.3890   -0.8720    0.5000 C   0  0  0  0  0  0  0  0  0  0  0  0
   -1.9750   -1.2380    0.6800 C   0  0  0  0  0  0  0  0  0  0  0  0
   -1.6150   -2.1220    1.5210 O   0  0  0  0  0  0  0  0  0  0  0  0
   -0.9390   -0.6200   -0.0880 N   0  0  0  0  0  0  0  0  0  0  0  0
    0.4450   -0.8960    0.0320 C   0  0  0  0  0  0  0  0  0  0  0  0
    0.9100   -2.1060    0.4570 C   0  0  0  0  0  0  0  0  0  0  0  0
    2.2750   -2.2930    0.5910 C   0  0  0  0  0  0  0  0  0  0  0  0
    3.1850   -1.2940    0.3060 C   0  0  0  0  0  0  0  0  0  0  0  0
    4.5070   -1.4610    0.4360 N   0  0  0  0  0  0  0  0  0  0  0  0
    5.3950   -0.4970    0.1710 C   0  0  0  0  0  0  0  0  0  0  0  0
    4.9180    0.7440   -0.2640 C   0  0  0  0  0  0  0  0  0  0  0  0
    5.5310    1.8990   -0.6060 N   0  0  0  0  0  0  0  0  0  0  0  0
    4.6150    2.8190   -0.9620 C   0  0  0  0  0  0  0  0  0  0  0  0
    3.3840    2.1870   -0.8280 C   0  0  0  0  0  0  0  0  0  0  0  0
    3.5920    0.9240   -0.4000 N   0  0  0  0  0  0  0  0  0  0  0  0
    2.7140   -0.0780   -0.1210 C   0  0  0  0  0  0  0  0  0  0  0  0
    1.3600    0.1220   -0.2580 C   0  0  0  0  0  0  0  0  0  0  0  0
  1  2  1  0
  2  3  2  0
  2  7  1  0
  3  4  1  0
  4  5  2  0
  5  6  1  0
  6  7  2  0
  7  8  1  0
  8  9  2  0
  8 10  1  0
 10 11  1  0
 11 12  2  0
 11 23  1  0
 12 13  1  0
 13 14  2  0
 14 15  1  0
 14 22  1  0
 15 16  2  0
 16 17  1  0
 17 18  2  0
 17 21  1  0
 18 19  1  0
 19 20  2  0
 20 21  1  0
 21 22  1  0
 22 23  2  0
M  END
