
     RDKit          3D

 17 18  0  0  0  0  0  0  0  0999 V2000
   -5.8780   -0.8120    0.7030 C   0  0  0  0  0  0  0  0  0  0  0  0
   -4.6320   -0.0590    0.8720 N   0  0  0  0  0  0  0  0  0  0  0  0
   -3.7360    0.0170   -0.2180 C   0  0  0  0  0  0  0  0  0  0  0  0
   -3.9770   -0.5420   -1.3100 O   0  0  0  0  0  0  0  0  0  0  0  0
   -2.4820    0.7840   -0.0600 C   0  0  0  0  0  0  0  0  0  0  0  0
   -1.4630    0.7680   -1.5300 S   0  0  0  0  0  0  0  0  0  0  0  0
    0.2430    0.5500   -1.0250 C   0  0  0  0  0  0  0  0  0  0  0  0
    1.1370    1.5320   -0.7690 N   0  0  0  0  0  0  0  0  0  0  0  0
    2.3180    1.0110   -0.4310 C   0  0  0  0  0  0  0  0  0  0  0  0
    3.5540    1.5230   -0.0790 C   0  0  0  0  0  0  0  0  0  0  0  0
    3.6880    2.7560   -0.0440 O   0  0  0  0  0  0  0  0  0  0  0  0
    4.6130    0.7420    0.2260 N   0  0  0  0  0  0  0  0  0  0  0  0
    4.4240   -0.5940    0.1730 C   0  0  0  0  0  0  0  0  0  0  0  0
    5.5390   -1.4020    0.4930 N   0  0  0  0  0  0  0  0  0  0  0  0
    3.2340   -1.1120   -0.1670 N   0  0  0  0  0  0  0  0  0  0  0  0
    2.1590   -0.3550   -0.4760 C   0  0  0  0  0  0  0  0  0  0  0  0
    0.8900   -0.6050   -0.8390 N   0  0  0  0  0  0  0  0  0  0  0  0
  1  2  1  0
  2  3  1  0
  3  4  2  0
  3  5  1  0
  5  6  1  0
  6  7  1  0
  7  8  2  0
  7 17  1  0
  8  9  1  0
  9 10  1  0
  9 16  2  0
 10 11  2  0
 10 12  1  0
 12 13  1  0
 13 14  1  0
 13 15  2  0
 15 16  1  0
 16 17  1  0
M  END
