
     RDKit          3D

 23 23  0  0  0  0  0  0  0  0999 V2000
   -1.4190    4.3330    0.0630 C   0  0  0  0  0  0  0  0  0  0  0  0
   -0.1740    3.9260    0.0580 C   0  0  0  0  0  0  0  0  0  0  0  0
    0.2980    2.6080    0.4620 C   0  0  0  0  0  0  0  0  0  0  0  0
    1.5950    2.3590    0.4000 C   0  0  0  0  0  0  0  0  0  0  0  0
    2.2520    1.0850    0.7690 C   0  0  0  0  0  0  0  0  0  0  0  0
    3.0870    0.5910   -0.3350 C   0  0  0  0  0  0  0  0  0  0  0  0
    3.2550   -0.6410   -0.7300 C   0  0  0  0  0  0  0  0  0  0  0  0
    4.0930   -0.9760   -1.8110 O   0  0  0  0  0  0  0  0  0  0  0  0
    5.4590   -0.6570   -1.7840 C   0  0  0  0  0  0  0  0  0  0  0  0
    2.5500   -1.7400   -0.0310 C   0  0  0  0  0  0  0  0  0  0  0  0
    1.4470   -2.0850   -0.8170 O   0  0  0  0  0  0  0  0  0  0  0  0
    0.2020   -2.5070   -0.3810 C   0  0  0  0  0  0  0  0  0  0  0  0
   -0.4430   -3.2210   -1.2080 O   0  0  0  0  0  0  0  0  0  0  0  0
   -0.3800   -2.1940    0.9070 C   0  0  0  0  0  0  0  0  0  0  0  0
   -1.6320   -1.4630    1.0280 C   0  0  2  0  0  0  0  0  0  0  0  0
   -2.7640   -2.5060    1.0620 C   0  0  0  0  0  0  0  0  0  0  0  0
   -2.8050   -3.2880   -0.0640 O   0  0  0  0  0  0  0  0  0  0  0  0
   -2.0350   -0.3730    0.1450 C   0  0  2  0  0  0  0  0  0  0  0  0
   -3.0970    0.4310    0.9330 C   0  0  0  0  0  0  0  0  0  0  0  0
   -2.7700   -0.7640   -1.1040 C   0  0  0  0  0  0  0  0  0  0  0  0
   -0.9820    0.6480   -0.1840 C   0  0  1  0  0  0  0  0  0  0  0  0
   -1.4240    1.3890   -1.2670 O   0  0  0  0  0  0  0  0  0  0  0  0
   -0.6680    1.5860    0.9330 C   0  0  0  0  0  0  0  0  0  0  0  0
  1  2  2  0
  2  3  1  0
  3  4  2  0
  3 23  1  0
  4  5  1  0
  5  6  1  0
  6  7  2  0
  7  8  1  0
  7 10  1  0
  8  9  1  0
 10 11  1  0
 11 12  1  0
 12 13  2  0
 12 14  1  0
 14 15  1  0
 15 16  1  6
 15 18  1  0
 16 17  1  0
 18 19  1  1
 18 20  1  0
 18 21  1  0
 21 22  1  6
 21 23  1  0
M  END
