
     RDKit          3D

 23 24  0  0  0  0  0  0  0  0999 V2000
   -2.2910   -1.7390   -0.8300 C   0  0  0  0  0  0  0  0  0  0  0  0
   -1.1230   -0.8740   -0.2420 C   0  0  1  0  0  0  0  0  0  0  0  0
   -1.3670   -0.9000    1.1990 C   0  0  0  0  0  0  0  0  0  0  0  0
    0.0900   -1.4050   -0.8570 C   0  0  0  0  0  0  0  0  0  0  0  0
    0.9830   -2.3850   -0.2410 C   0  0  2  0  0  0  0  0  0  0  0  0
    1.3950   -3.3800   -1.3440 C   0  0  0  0  0  0  0  0  0  0  0  0
    0.4980   -3.2040    0.8900 C   0  0  0  0  0  0  0  0  0  0  0  0
    2.3160   -1.7500    0.1330 C   0  0  0  0  0  0  0  0  0  0  0  0
    3.3450   -2.3690    0.0170 O   0  0  0  0  0  0  0  0  0  0  0  0
    2.3800   -0.3640    0.6470 C   0  0  1  0  0  0  0  0  0  0  0  0
    3.1110   -0.3770    1.8340 O   0  0  0  0  0  0  0  0  0  0  0  0
    2.8390    0.6760   -0.3120 C   0  0  0  0  0  0  0  0  0  0  0  0
    2.0020    1.9600   -0.2430 C   0  0  1  0  0  0  0  0  0  0  0  0
    1.1860    2.0910   -1.3900 O   0  0  0  0  0  0  0  0  0  0  0  0
    1.3060    2.1920    1.0220 C   0  0  0  0  0  0  0  0  0  0  0  0
   -0.0380    2.1520    1.1570 O   0  0  0  0  0  0  0  0  0  0  0  0
   -1.2170    2.4460    0.5430 C   0  0  0  0  0  0  0  0  0  0  0  0
   -1.8910    3.6210    0.8240 C   0  0  0  0  0  0  0  0  0  0  0  0
   -3.0830    4.0350    0.2660 C   0  0  0  0  0  0  0  0  0  0  0  0
   -3.6500    3.1960   -0.6560 C   0  0  0  0  0  0  0  0  0  0  0  0
   -3.0040    2.0130   -0.9580 C   0  0  0  0  0  0  0  0  0  0  0  0
   -1.8130    1.5910   -0.4030 C   0  0  0  0  0  0  0  0  0  0  0  0
   -1.3350    0.3970   -0.8180 O   0  0  0  0  0  0  0  0  0  0  0  0
  2  1  1  6
  2  3  1  0
  2  4  1  0
  2 23  1  0
  4  5  1  0
  5  6  1  6
  5  7  1  0
  5  8  1  0
  8  9  2  0
  8 10  1  0
 10 11  1  1
 10 12  1  0
 12 13  1  0
 13 14  1  6
 13 15  1  0
 15 16  1  0
 16 17  1  0
 17 18  2  0
 17 22  1  0
 18 19  1  0
 19 20  2  0
 20 21  1  0
 21 22  2  0
 22 23  1  0
M  END
