
     RDKit          3D

 23 25  0  0  0  0  0  0  0  0999 V2000
   -0.1480   -2.1790    2.5100 O   0  0  0  0  0  0  0  0  0  0  0  0
    0.1640   -1.6140    1.3990 C   0  0  0  0  0  0  0  0  0  0  0  0
    1.4110   -1.8330    0.8850 O   0  0  0  0  0  0  0  0  0  0  0  0
    1.7930   -2.1280   -0.4140 C   0  0  0  0  0  0  0  0  0  0  0  0
    3.2270   -2.6150   -0.4430 C   0  0  0  0  0  0  0  0  0  0  0  0
    4.2300   -1.4820   -0.4550 C   0  0  0  0  0  0  0  0  0  0  0  0
    3.6850   -0.3280   -1.2080 C   0  0  0  0  0  0  0  0  0  0  0  0
    3.1350    0.7340   -0.6540 C   0  0  0  0  0  0  0  0  0  0  0  0
    2.9660    0.9620    0.7800 C   0  0  0  0  0  0  0  0  0  0  0  0
    1.5290    1.2060    1.1750 C   0  0  1  0  0  0  0  0  0  0  0  0
    1.4030    2.7120    1.4610 C   0  0  0  0  0  0  0  0  0  0  0  0
    2.2360    3.0620    2.5070 O   0  0  0  0  0  0  0  0  0  0  0  0
    0.6390    0.9760    0.0990 O   0  0  0  0  0  0  0  0  0  0  0  0
   -0.6330    0.4370    0.1850 C   0  0  0  0  0  0  0  0  0  0  0  0
   -1.7140    1.1070   -0.3460 C   0  0  0  0  0  0  0  0  0  0  0  0
   -3.0300    0.6230   -0.2940 C   0  0  0  0  0  0  0  0  0  0  0  0
   -3.2680   -0.5730    0.3110 C   0  0  0  0  0  0  0  0  0  0  0  0
   -2.1780   -1.2680    0.8570 C   0  0  0  0  0  0  0  0  0  0  0  0
   -0.8860   -0.7770    0.7970 C   0  0  0  0  0  0  0  0  0  0  0  0
   -4.7200   -0.9010    0.2540 C   0  0  0  0  0  0  0  0  0  0  0  0
   -5.2140    0.0120   -0.8540 C   0  0  0  0  0  0  0  0  0  0  0  0
   -4.3060    1.2070   -0.8070 C   0  0  1  0  0  0  0  0  0  0  0  0
   -4.8480    2.1060    0.1310 O   0  0  0  0  0  0  0  0  0  0  0  0
  1  2  2  0
  2  3  1  0
  2 19  1  0
  3  4  1  0
  4  5  1  0
  5  6  1  0
  6  7  1  0
  7  8  2  0
  8  9  1  0
  9 10  1  0
 10 11  1  6
 10 13  1  0
 11 12  1  0
 13 14  1  0
 14 15  2  0
 14 19  1  0
 15 16  1  0
 16 17  2  0
 16 22  1  0
 17 18  1  0
 17 20  1  0
 18 19  2  0
 20 21  1  0
 21 22  1  0
 22 23  1  1
M  END
