
     RDKit          3D

 10 10  0  0  0  0  0  0  0  0999 V2000
   -1.5290    1.9110    0.3410 O   0  0  0  0  0  0  0  0  0  0  0  0
   -1.0840    1.0150   -0.6500 C   0  0  0  0  0  0  0  0  0  0  0  0
   -0.6460   -0.2340    0.0610 C   0  0  2  0  0  0  0  0  0  0  0  0
   -1.7080   -0.7680    0.7600 O   0  0  0  0  0  0  0  0  0  0  0  0
    0.4990    0.1630    0.9950 C   0  0  0  0  0  0  0  0  0  0  0  0
    1.6450    0.1180   -0.0150 C   0  0  1  0  0  0  0  0  0  0  0  0
    2.8770    0.1050    0.6220 O   0  0  0  0  0  0  0  0  0  0  0  0
    1.3990   -1.0330   -0.7160 O   0  0  0  0  0  0  0  0  0  0  0  0
    0.0490   -1.2210   -0.8320 C   0  0  1  0  0  0  0  0  0  0  0  0
   -0.2370   -2.5030   -0.3110 O   0  0  0  0  0  0  0  0  0  0  0  0
  1  2  1  0
  2  3  1  0
  3  4  1  1
  3  5  1  0
  3  9  1  0
  5  6  1  0
  6  7  1  1
  6  8  1  0
  8  9  1  0
  9 10  1  1
M  END
