
     RDKit          3D

 23 24  0  0  0  0  0  0  0  0999 V2000
   -4.1540    1.2670   -0.9040 C   0  0  0  0  0  0  0  0  0  0  0  0
   -2.8050    0.7390   -0.4670 C   0  0  2  0  0  0  0  0  0  0  0  0
   -2.8800   -0.7310   -0.1760 C   0  0  0  0  0  0  0  0  0  0  0  0
   -2.0150   -1.0850    1.0270 C   0  0  0  0  0  0  0  0  0  0  0  0
   -1.3080   -2.3760    0.7220 C   0  0  0  0  0  0  0  0  0  0  0  0
   -0.4960   -2.3430   -0.5320 C   0  0  1  0  0  0  0  0  0  0  0  0
   -0.2280   -1.0710   -0.9730 O   0  0  0  0  0  0  0  0  0  0  0  0
    0.7520   -3.1740   -0.3810 C   0  0  0  0  0  0  0  0  0  0  0  0
    0.5580   -4.5430   -0.4670 O   0  0  0  0  0  0  0  0  0  0  0  0
    1.9450   -2.6950   -0.1820 C   0  0  0  0  0  0  0  0  0  0  0  0
    2.4620   -1.3170   -0.0450 C   0  0  0  0  0  0  0  0  0  0  0  0
    3.6440   -1.1910   -0.8210 C   0  0  0  0  0  0  0  0  0  0  0  0
    4.3650   -0.0330   -0.9170 C   0  0  0  0  0  0  0  0  0  0  0  0
    3.8690    1.0190   -0.2050 C   0  0  0  0  0  0  0  0  0  0  0  0
    2.6900    0.9450    0.5890 C   0  0  0  0  0  0  0  0  0  0  0  0
    1.9830   -0.2340    0.6690 C   0  0  0  0  0  0  0  0  0  0  0  0
    2.4820    2.2810    1.2000 C   0  0  0  0  0  0  0  0  0  0  0  0
    1.2890    2.8000    1.5100 O   0  0  0  0  0  0  0  0  0  0  0  0
    0.6710    3.3900    0.3860 C   0  0  0  0  0  0  0  0  0  0  0  0
   -0.4310    2.4890   -0.1280 C   0  0  0  0  0  0  0  0  0  0  0  0
   -1.2370    2.0480    0.9450 O   0  0  0  0  0  0  0  0  0  0  0  0
   -2.4520    1.4350    0.8150 C   0  0  0  0  0  0  0  0  0  0  0  0
   -3.2560    1.4670    1.7770 O   0  0  0  0  0  0  0  0  0  0  0  0
  2  1  1  1
  2  3  1  0
  2 22  1  0
  3  4  1  0
  4  5  1  0
  5  6  1  0
  6  7  1  1
  6  8  1  0
  8  9  1  0
  8 10  2  0
 10 11  1  0
 11 12  1  0
 11 16  2  0
 12 13  2  0
 13 14  1  0
 14 15  2  0
 15 16  1  0
 15 17  1  0
 17 18  1  0
 18 19  1  0
 19 20  1  0
 20 21  1  0
 21 22  1  0
 22 23  2  0
M  END
