
     RDKit          3D

 23 24  0  0  0  0  0  0  0  0999 V2000
    5.8800   -0.3380   -0.4330 C   0  0  0  0  0  0  0  0  0  0  0  0
    4.5680    0.2730   -0.0680 C   0  0  0  0  0  0  0  0  0  0  0  0
    4.4930    1.6420    0.0410 C   0  0  0  0  0  0  0  0  0  0  0  0
    3.2670    2.1830    0.3790 C   0  0  0  0  0  0  0  0  0  0  0  0
    2.1230    1.4160    0.6110 C   0  0  0  0  0  0  0  0  0  0  0  0
    2.2090    0.0320    0.4980 C   0  0  0  0  0  0  0  0  0  0  0  0
    3.4410   -0.4860    0.1600 C   0  0  0  0  0  0  0  0  0  0  0  0
    1.1290   -0.9290    0.7180 C   0  0  2  0  0  0  0  0  0  0  0  0
    1.5310   -1.9670    1.6040 O   0  0  0  0  0  0  0  0  0  0  0  0
    0.6570   -1.6370   -0.5150 C   0  0  0  0  0  0  0  0  0  0  0  0
   -0.2800   -2.7540   -0.2440 C   0  0  0  0  0  0  0  0  0  0  0  0
   -1.5070   -2.7340    0.1530 C   0  0  0  0  0  0  0  0  0  0  0  0
   -2.4200   -1.6190    0.4810 C   0  0  0  0  0  0  0  0  0  0  0  0
   -2.7390   -0.6480   -0.5790 C   0  0  1  0  0  0  0  0  0  0  0  0
   -3.8880   -1.0180   -1.3260 O   0  0  0  0  0  0  0  0  0  0  0  0
   -3.1180    0.6730    0.1110 C   0  0  2  0  0  0  0  0  0  0  0  0
   -4.5660    0.5460    0.5920 C   0  0  0  0  0  0  0  0  0  0  0  0
   -3.0990    1.7230   -0.9660 C   0  0  0  0  0  0  0  0  0  0  0  0
   -2.3340    0.9530    1.2110 O   0  0  0  0  0  0  0  0  0  0  0  0
   -1.3450    1.8650    1.3750 C   0  0  0  0  0  0  0  0  0  0  0  0
   -1.1960    2.6520    2.3410 O   0  0  0  0  0  0  0  0  0  0  0  0
   -0.3130    1.9670    0.3150 C   0  0  0  0  0  0  0  0  0  0  0  0
    0.9490    2.0620    0.9420 O   0  0  0  0  0  0  0  0  0  0  0  0
  1  2  1  0
  2  3  2  0
  2  7  1  0
  3  4  1  0
  4  5  2  0
  5  6  1  0
  5 23  1  0
  6  7  2  0
  6  8  1  0
  8  9  1  1
  8 10  1  0
 10 11  1  0
 11 12  2  0
 12 13  1  0
 13 14  1  0
 14 15  1  1
 14 16  1  0
 16 17  1  1
 16 18  1  0
 16 19  1  0
 19 20  1  0
 20 21  2  0
 20 22  1  0
 22 23  1  0
M  END
