
     RDKit          3D

 23 26  0  0  0  0  0  0  0  0999 V2000
   -3.7970    3.0620    0.5870 C   0  0  0  0  0  0  0  0  0  0  0  0
   -3.9630    1.7070   -0.0240 C   0  0  0  0  0  0  0  0  0  0  0  0
   -2.8580    0.9820   -0.1740 C   0  0  0  0  0  0  0  0  0  0  0  0
   -1.5550    1.4920    0.2390 C   0  0  0  0  0  0  0  0  0  0  0  0
   -0.4510    0.7310    0.0700 C   0  0  0  0  0  0  0  0  0  0  0  0
    0.7910    1.3110    0.5060 C   0  0  0  0  0  0  0  0  0  0  0  0
    2.0110    0.7980    0.4610 C   0  0  0  0  0  0  0  0  0  0  0  0
    2.2550   -0.5080   -0.0720 C   0  0  0  0  0  0  0  0  0  0  0  0
    3.4930   -1.0200   -0.1130 C   0  0  0  0  0  0  0  0  0  0  0  0
    4.0180   -2.2210   -0.5590 O   0  0  0  0  0  0  0  0  0  0  0  0
    5.4210   -2.0930   -0.6030 C   0  0  0  0  0  0  0  0  0  0  0  0
    5.7340   -0.9810    0.2330 O   0  0  0  0  0  0  0  0  0  0  0  0
    4.5670   -0.2010    0.4010 C   0  0  0  0  0  0  0  0  0  0  0  0
    4.4010    1.0000    0.9000 C   0  0  0  0  0  0  0  0  0  0  0  0
    3.1060    1.6650    1.0000 C   0  0  1  0  0  0  0  0  0  0  0  0
    3.1030    2.9140    0.3710 O   0  0  0  0  0  0  0  0  0  0  0  0
   -0.5350   -0.5120   -0.4840 O   0  0  0  0  0  0  0  0  0  0  0  0
   -1.6380   -1.1000   -1.1040 C   0  0  1  0  0  0  0  0  0  0  0  0
   -1.7740   -2.5050   -0.5520 C   0  0  0  0  0  0  0  0  0  0  0  0
   -3.0180   -3.1920   -1.0600 C   0  0  0  0  0  0  0  0  0  0  0  0
   -3.9530   -2.2520   -1.5800 O   0  0  0  0  0  0  0  0  0  0  0  0
   -4.0240   -0.9660   -1.0130 C   0  0  0  0  0  0  0  0  0  0  0  0
   -2.8980   -0.3500   -0.7590 C   0  0  0  0  0  0  0  0  0  0  0  0
  1  2  1  0
  2  3  2  3
  3  4  1  0
  3 23  1  0
  4  5  2  0
  5  6  1  0
  5 17  1  0
  6  7  2  3
  7  8  1  0
  7 15  1  0
  8  9  2  0
  9 10  1  0
  9 13  1  0
 10 11  1  0
 11 12  1  0
 12 13  1  0
 13 14  2  0
 14 15  1  0
 15 16  1  6
 17 18  1  0
 18 19  1  1
 18 23  1  0
 19 20  1  0
 20 21  1  0
 21 22  1  0
 22 23  2  0
M  END
