
     RDKit          3D

 23 24  0  0  0  0  0  0  0  0999 V2000
    3.9590   -1.1930    2.0040 C   0  0  0  0  0  0  0  0  0  0  0  0
    4.5280   -0.4910    1.0070 C   0  0  0  0  0  0  0  0  0  0  0  0
    5.8460   -0.7510    0.6520 O   0  0  0  0  0  0  0  0  0  0  0  0
    6.3920   -0.0040   -0.3800 C   0  0  0  0  0  0  0  0  0  0  0  0
    5.7480    0.9260   -1.0360 C   0  0  0  0  0  0  0  0  0  0  0  0
    4.3850    1.2260   -0.7030 C   0  0  0  0  0  0  0  0  0  0  0  0
    3.8090    0.5370    0.2810 C   0  0  0  0  0  0  0  0  0  0  0  0
    2.4840    0.8060    0.6030 N   0  0  0  0  0  0  0  0  0  0  0  0
    1.4270   -0.2690    0.3420 C   0  0  0  0  0  0  0  0  0  0  0  0
    1.9240   -1.2740   -0.1350 O   0  0  0  0  0  0  0  0  0  0  0  0
    0.2380    0.2150    0.7120 N   0  0  0  0  0  0  0  0  0  0  0  0
   -0.7240   -1.1250    0.2250 C   0  0  0  0  0  0  0  0  0  0  0  0
   -0.1040   -2.0410   -0.1860 O   0  0  0  0  0  0  0  0  0  0  0  0
   -2.1200   -0.8740    0.4170 C   0  0  0  0  0  0  0  0  0  0  0  0
   -2.8960    0.2540    0.4560 C   0  0  0  0  0  0  0  0  0  0  0  0
   -2.4710    1.6650    0.2350 C   0  0  0  0  0  0  0  0  0  0  0  0
   -3.7000    2.4850   -0.2210 C   0  0  0  0  0  0  0  0  0  0  0  0
   -3.1530    3.8480   -0.3650 N   0  0  0  0  0  0  0  0  0  0  0  0
   -4.1950   -0.1040    0.7230 N   0  0  0  0  0  0  0  0  0  0  0  0
   -4.2460   -1.4060    0.8450 N   0  0  0  0  0  0  0  0  0  0  0  0
   -3.0420   -1.9360    0.6770 C   0  0  0  0  0  0  0  0  0  0  0  0
   -2.5580   -3.6580    0.7810 S   0  0  0  0  0  0  0  0  0  0  0  0
   -2.7910   -4.4600   -0.8100 C   0  0  0  0  0  0  0  0  0  0  0  0
  1  2  2  0
  2  3  1  0
  2  7  1  0
  3  4  1  0
  4  5  2  0
  5  6  1  0
  6  7  2  0
  7  8  1  0
  8  9  1  0
  9 10  2  0
  9 11  1  0
 11 12  1  0
 12 13  2  0
 12 14  1  0
 14 15  1  0
 14 21  2  0
 15 16  1  0
 15 19  2  0
 16 17  1  0
 17 18  1  0
 19 20  1  0
 20 21  1  0
 21 22  1  0
 22 23  1  0
M  CHG  1  18   1
M  END
