
     RDKit          3D

 23 24  0  0  0  0  0  0  0  0999 V2000
   -5.2330   -0.9030    1.4950 C   0  0  0  0  0  0  0  0  0  0  0  0
   -4.6890   -1.6010   -0.0720 S   0  0  0  0  0  0  0  0  0  0  0  0
   -4.0390   -0.2690   -1.0640 C   0  0  0  0  0  0  0  0  0  0  0  0
   -4.7990    0.4680   -1.9170 C   0  0  0  0  0  0  0  0  0  0  0  0
   -4.3120    1.4710   -2.6650 N   0  0  0  0  0  0  0  0  0  0  0  0
   -3.0170    1.7530   -2.5590 C   0  0  0  0  0  0  0  0  0  0  0  0
   -2.1580    1.0460   -1.7050 C   0  0  0  0  0  0  0  0  0  0  0  0
   -2.6770    0.0210   -0.9470 C   0  0  0  0  0  0  0  0  0  0  0  0
   -1.8670   -0.7220   -0.0730 N   0  0  0  0  0  0  0  0  0  0  0  0
   -0.4940   -0.5610    0.1590 C   0  0  0  0  0  0  0  0  0  0  0  0
    0.1560    0.3020   -0.4210 O   0  0  0  0  0  0  0  0  0  0  0  0
    0.2230   -1.3940    1.0850 N   0  0  0  0  0  0  0  0  0  0  0  0
    1.6150   -1.2340    1.3240 C   0  0  0  0  0  0  0  0  0  0  0  0
    2.3390   -0.2880    0.6910 N   0  0  0  0  0  0  0  0  0  0  0  0
    3.6500   -0.1520    0.9290 C   0  0  0  0  0  0  0  0  0  0  0  0
    4.4940    0.8010    0.3240 N   0  0  0  0  0  0  0  0  0  0  0  0
    3.9970    1.7170   -0.6160 C   0  0  0  0  0  0  0  0  0  0  0  0
    4.9070    2.7290   -1.2560 C   0  0  0  0  0  0  0  0  0  0  0  0
    2.7920    1.7040   -0.9330 O   0  0  0  0  0  0  0  0  0  0  0  0
    4.2710   -1.0060    1.8490 C   0  0  0  0  0  0  0  0  0  0  0  0
    3.5700   -1.9770    2.5090 C   0  0  0  0  0  0  0  0  0  0  0  0
    2.2080   -2.0870    2.2350 C   0  0  0  0  0  0  0  0  0  0  0  0
    1.5300   -3.0800    2.9210 O   0  0  0  0  0  0  0  0  0  0  0  0
  1  2  1  0
  2  3  1  0
  3  4  2  0
  3  8  1  0
  4  5  1  0
  5  6  2  0
  6  7  1  0
  7  8  2  0
  8  9  1  0
  9 10  1  0
 10 11  2  0
 10 12  1  0
 12 13  1  0
 13 14  2  0
 13 22  1  0
 14 15  1  0
 15 16  1  0
 15 20  2  0
 16 17  1  0
 17 18  1  0
 17 19  2  0
 20 21  1  0
 21 22  2  0
 22 23  1  0
M  CHG  1   5   1
M  END
