
     RDKit          3D

 23 25  0  0  0  0  0  0  0  0999 V2000
   -0.9410    2.5730    0.4730 C   0  0  0  0  0  0  0  0  0  0  0  0
   -2.0570    1.6120    0.2820 C   0  0  0  0  0  0  0  0  0  0  0  0
   -3.4220    1.9330    0.3020 C   0  0  0  0  0  0  0  0  0  0  0  0
   -4.1440    0.8260    0.1060 N   0  0  0  0  0  0  0  0  0  0  0  0
   -3.3150   -0.2410   -0.0480 C   0  0  0  0  0  0  0  0  0  0  0  0
   -3.7460   -1.5840   -0.2650 N   0  0  0  0  0  0  0  0  0  0  0  0
   -5.1860   -1.8450   -0.3580 C   0  0  0  0  0  0  0  0  0  0  0  0
   -5.7820   -1.1850   -1.5270 C   0  0  0  0  0  0  0  0  0  0  0  0
   -5.0860   -0.5120   -2.3230 O   0  0  0  0  0  0  0  0  0  0  0  0
   -7.1370   -1.3140   -1.7460 O   0  0  0  0  0  0  0  0  0  0  0  0
   -2.0140    0.2590    0.0630 C   0  0  0  0  0  0  0  0  0  0  0  0
   -0.8240   -0.5800   -0.0350 C   0  0  0  0  0  0  0  0  0  0  0  0
   -0.9220   -1.8330   -0.2070 O   0  0  0  0  0  0  0  0  0  0  0  0
    0.5560   -0.0560    0.0540 C   0  0  0  0  0  0  0  0  0  0  0  0
    1.7400   -1.4400   -0.0080 S   0  0  0  0  0  0  0  0  0  0  0  0
    3.4110   -0.8360    0.0960 C   0  0  0  0  0  0  0  0  0  0  0  0
    3.8630    0.4240    0.2070 N   0  0  0  0  0  0  0  0  0  0  0  0
    5.2070    0.4210    0.2530 C   0  0  0  0  0  0  0  0  0  0  0  0
    6.3720    1.1510    0.3490 C   0  0  0  0  0  0  0  0  0  0  0  0
    7.4300    0.2630    0.3180 C   0  0  0  0  0  0  0  0  0  0  0  0
    6.9550   -0.9770    0.2070 N   0  0  0  0  0  0  0  0  0  0  0  0
    5.6230   -0.8990    0.1670 C   0  0  0  0  0  0  0  0  0  0  0  0
    4.4860   -1.6270    0.0730 N   0  0  0  0  0  0  0  0  0  0  0  0
  1  2  1  0
  2  3  2  0
  2 11  1  0
  3  4  1  0
  4  5  1  0
  5  6  1  0
  5 11  2  0
  6  7  1  0
  7  8  1  0
  8  9  2  0
  8 10  1  0
 11 12  1  0
 12 13  2  0
 12 14  1  0
 14 15  1  0
 15 16  1  0
 16 17  1  0
 16 23  2  0
 17 18  1  0
 18 19  1  0
 18 22  2  0
 19 20  2  0
 20 21  1  0
 21 22  1  0
 22 23  1  0
M  CHG  1  23   1
M  END
