
     RDKit          3D

 23 25  0  0  0  0  0  0  0  0999 V2000
   -6.8520    1.4010   -0.3800 C   0  0  0  0  0  0  0  0  0  0  0  0
   -5.8740    1.0200   -1.3050 O   0  0  0  0  0  0  0  0  0  0  0  0
   -4.6900    0.3830   -0.9870 C   0  0  0  0  0  0  0  0  0  0  0  0
   -3.8090    0.0620   -1.9950 C   0  0  0  0  0  0  0  0  0  0  0  0
   -2.6090   -0.5710   -1.7730 C   0  0  0  0  0  0  0  0  0  0  0  0
   -2.3040   -0.8890   -0.4490 C   0  0  0  0  0  0  0  0  0  0  0  0
   -1.0580   -1.5580   -0.1250 C   0  0  0  0  0  0  0  0  0  0  0  0
   -0.2590   -1.8490   -1.0510 O   0  0  0  0  0  0  0  0  0  0  0  0
   -0.7080   -1.9060    1.2730 C   0  0  0  0  0  0  0  0  0  0  0  0
    0.8980   -2.7330    1.3740 S   0  0  0  0  0  0  0  0  0  0  0  0
    2.2090   -1.6260    0.9060 C   0  0  0  0  0  0  0  0  0  0  0  0
    3.5330   -1.8560    0.8480 N   0  0  0  0  0  0  0  0  0  0  0  0
    4.1740   -0.7250    0.4380 C   0  0  0  0  0  0  0  0  0  0  0  0
    5.4590   -0.4090    0.2160 N   0  0  0  0  0  0  0  0  0  0  0  0
    5.7920    0.8410   -0.2000 C   0  0  0  0  0  0  0  0  0  0  0  0
    7.1670    1.1470   -0.4290 N   0  0  0  0  0  0  0  0  0  0  0  0
    4.8400    1.7730   -0.3930 N   0  0  0  0  0  0  0  0  0  0  0  0
    3.5580    1.4950   -0.1820 C   0  0  0  0  0  0  0  0  0  0  0  0
    2.6290    2.3490   -0.3540 O   0  0  0  0  0  0  0  0  0  0  0  0
    3.1980    0.2320    0.2400 C   0  0  0  0  0  0  0  0  0  0  0  0
    2.0160   -0.3400    0.5310 N   0  0  0  0  0  0  0  0  0  0  0  0
   -3.1700   -0.5780    0.5790 C   0  0  0  0  0  0  0  0  0  0  0  0
   -4.3660    0.0580    0.3250 C   0  0  0  0  0  0  0  0  0  0  0  0
  1  2  1  0
  2  3  1  0
  3  4  2  0
  3 23  1  0
  4  5  1  0
  5  6  2  0
  6  7  1  0
  6 22  1  0
  7  8  2  0
  7  9  1  0
  9 10  1  0
 10 11  1  0
 11 12  2  0
 11 21  1  0
 12 13  1  0
 13 14  1  0
 13 20  2  0
 14 15  2  0
 15 16  1  0
 15 17  1  0
 17 18  1  0
 18 19  2  0
 18 20  1  0
 20 21  1  0
 22 23  2  0
M  CHG  1  14   1
M  END
