
     RDKit          3D

 24 26  0  0  0  0  0  0  0  0999 V2000
    3.1100   -0.0440    2.1840 C   0  0  0  0  0  0  0  0  0  0  0  0
    1.7480   -0.4010    1.6590 C   0  0  0  0  0  0  0  0  0  0  0  0
    0.6540   -0.0940    2.4170 N   0  0  0  0  0  0  0  0  0  0  0  0
   -0.6000   -0.4190    2.0530 C   0  0  0  0  0  0  0  0  0  0  0  0
   -1.5200   -0.0710    2.8530 O   0  0  0  0  0  0  0  0  0  0  0  0
   -0.8740   -1.0910    0.8790 C   0  0  0  0  0  0  0  0  0  0  0  0
   -2.2470   -1.4220    0.5280 C   0  0  0  0  0  0  0  0  0  0  0  0
   -2.6880   -2.5520    0.9390 O   0  0  0  0  0  0  0  0  0  0  0  0
   -3.0880   -0.5840   -0.2190 N   0  0  0  0  0  0  0  0  0  0  0  0
   -4.4270   -0.9830   -0.5220 C   0  0  0  0  0  0  0  0  0  0  0  0
   -5.2260    0.1810   -1.0930 C   0  0  0  0  0  0  0  0  0  0  0  0
   -4.8480    1.4670   -0.4210 C   0  0  0  0  0  0  0  0  0  0  0  0
   -3.5670    1.7170   -0.2190 C   0  0  0  0  0  0  0  0  0  0  0  0
   -3.1020    2.8670    0.3900 O   0  0  0  0  0  0  0  0  0  0  0  0
   -2.6050    0.6840   -0.6840 C   0  0  0  0  0  0  0  0  0  0  0  0
    0.2180   -1.4070    0.1030 C   0  0  0  0  0  0  0  0  0  0  0  0
    1.5270   -1.0670    0.4830 C   0  0  0  0  0  0  0  0  0  0  0  0
    2.6250   -1.3760   -0.4010 C   0  0  0  0  0  0  0  0  0  0  0  0
    2.8140   -2.5830   -0.7780 O   0  0  0  0  0  0  0  0  0  0  0  0
    3.5610   -0.3810   -0.9140 C   0  0  0  0  0  0  0  0  0  0  0  0
    3.5050    0.9040   -0.6810 C   0  0  0  0  0  0  0  0  0  0  0  0
    4.6400    1.5660   -1.3820 C   0  0  0  0  0  0  0  0  0  0  0  0
    5.3500    0.4760   -2.0480 C   0  0  0  0  0  0  0  0  0  0  0  0
    4.7220   -0.6340   -1.7720 C   0  0  0  0  0  0  0  0  0  0  0  0
  1  2  1  0
  2  3  1  0
  2 17  2  0
  3  4  1  0
  4  5  2  0
  4  6  1  0
  6  7  1  0
  6 16  2  0
  7  8  2  0
  7  9  1  0
  9 10  1  0
  9 15  1  0
 10 11  1  0
 11 12  1  0
 12 13  2  0
 13 14  1  0
 13 15  1  0
 16 17  1  0
 17 18  1  0
 18 19  2  0
 18 20  1  0
 20 21  2  0
 20 24  1  0
 21 22  1  0
 22 23  1  0
 23 24  2  0
M  END
