
     RDKit          3D

 23 25  0  0  0  0  0  0  0  0999 V2000
    0.2840    1.6210   -1.4740 C   0  0  0  0  0  0  0  0  0  0  0  0
   -0.1060    0.1870   -1.3750 C   0  0  2  0  0  0  0  0  0  0  0  0
   -0.7700   -0.2210   -0.0990 C   0  0  0  0  0  0  0  0  0  0  0  0
   -1.9910    0.4330    0.2030 N   0  0  0  0  0  0  0  0  0  0  0  0
   -2.0250    1.8300    0.5790 C   0  0  0  0  0  0  0  0  0  0  0  0
   -3.2800    2.2430    1.2900 C   0  0  0  0  0  0  0  0  0  0  0  0
   -4.0590    1.1910    1.7890 O   0  0  0  0  0  0  0  0  0  0  0  0
   -4.3140    0.1140    0.9490 C   0  0  0  0  0  0  0  0  0  0  0  0
   -5.5300   -0.5500    0.8990 C   0  0  0  0  0  0  0  0  0  0  0  0
   -5.6990   -1.6120    0.0340 C   0  0  0  0  0  0  0  0  0  0  0  0
   -4.6270   -1.9810   -0.7660 C   0  0  0  0  0  0  0  0  0  0  0  0
   -3.3970   -1.3130   -0.7190 C   0  0  0  0  0  0  0  0  0  0  0  0
   -3.2560   -0.2640    0.1460 C   0  0  0  0  0  0  0  0  0  0  0  0
    1.0120   -0.7000   -1.7050 N   0  0  0  0  0  0  0  0  0  0  0  0
    2.2160   -0.6240   -0.9680 C   0  0  0  0  0  0  0  0  0  0  0  0
    3.3250   -0.1590   -1.4920 C   0  0  0  0  0  0  0  0  0  0  0  0
    4.4600   -0.1120   -0.6570 N   0  0  0  0  0  0  0  0  0  0  0  0
    4.9890   -0.8710    0.6360 S   0  0  0  0  0  0  0  0  0  0  0  0
    5.4820    0.4470    1.5080 N   0  0  0  0  0  0  0  0  0  0  0  0
    5.8610   -1.7270   -0.3000 O   0  0  0  0  0  0  0  0  0  0  0  0
    3.2800   -1.3410    1.0480 C   0  0  0  0  0  0  0  0  0  0  0  0
    3.0440   -1.9340    2.3320 O   0  0  0  0  0  0  0  0  0  0  0  0
    2.2960   -1.1800    0.2960 N   0  0  0  0  0  0  0  0  0  0  0  0
  2  1  1  1
  2  3  1  0
  2 14  1  0
  3  4  1  0
  4  5  1  0
  4 13  1  0
  5  6  1  0
  6  7  1  0
  7  8  1  0
  8  9  2  0
  8 13  1  0
  9 10  1  0
 10 11  2  0
 11 12  1  0
 12 13  2  0
 14 15  1  0
 15 16  2  0
 15 23  1  0
 16 17  1  0
 17 18  1  0
 18 19  1  0
 18 20  2  0
 18 21  1  0
 21 22  1  0
 21 23  2  0
M  CHG  1  19   1
M  END
