
     RDKit          3D

 23 25  0  0  0  0  0  0  0  0999 V2000
   -6.8770    0.4620    1.7970 N   0  0  0  0  0  0  0  0  0  0  0  0
   -6.1830    0.3270    0.5580 C   0  0  0  0  0  0  0  0  0  0  0  0
   -5.0610    1.1940    0.3770 N   0  0  0  0  0  0  0  0  0  0  0  0
   -3.8650    0.5180    0.1470 C   0  0  0  0  0  0  0  0  0  0  0  0
   -3.2390    0.4250   -1.1640 C   0  0  0  0  0  0  0  0  0  0  0  0
   -3.6390    0.7950   -2.3760 O   0  0  0  0  0  0  0  0  0  0  0  0
   -2.7350    0.4890   -3.2650 C   0  0  0  0  0  0  0  0  0  0  0  0
   -1.6720   -0.1120   -2.6270 C   0  0  0  0  0  0  0  0  0  0  0  0
   -1.9610   -0.1660   -1.2930 C   0  0  0  0  0  0  0  0  0  0  0  0
   -1.1590   -0.6030   -0.2210 N   0  0  0  0  0  0  0  0  0  0  0  0
    0.0490   -1.3680   -0.3670 C   0  0  0  0  0  0  0  0  0  0  0  0
    0.4110   -1.6940   -1.5100 O   0  0  0  0  0  0  0  0  0  0  0  0
    0.8320   -1.7450    0.7530 N   0  0  0  0  0  0  0  0  0  0  0  0
    2.0540   -1.4230    0.7300 C   0  0  0  0  0  0  0  0  0  0  0  0
    2.7930   -0.7870   -0.1580 N   0  0  0  0  0  0  0  0  0  0  0  0
    4.0490   -0.5390    0.0070 C   0  0  0  0  0  0  0  0  0  0  0  0
    4.6770   -0.9550    1.1830 C   0  0  0  0  0  0  0  0  0  0  0  0
    3.2890   -1.7380    2.0290 S   0  0  0  0  0  0  0  0  0  0  0  0
    6.0530   -0.7310    1.4710 C   0  0  0  0  0  0  0  0  0  0  0  0
    6.6230   -1.4390    2.3300 O   0  0  0  0  0  0  0  0  0  0  0  0
    6.8680    0.3230    0.7810 C   0  0  0  0  0  0  0  0  0  0  0  0
    5.8920    1.1220   -0.1010 C   0  0  0  0  0  0  0  0  0  0  0  0
    5.0480    0.1640   -0.9200 C   0  0  0  0  0  0  0  0  0  0  0  0
  1  2  1  0
  2  3  1  0
  3  4  1  0
  4  5  1  0
  5  6  1  0
  5  9  2  0
  6  7  1  0
  7  8  2  0
  8  9  1  0
  9 10  1  0
 10 11  1  0
 11 12  2  0
 11 13  1  0
 13 14  2  3
 14 15  1  0
 14 18  1  0
 15 16  1  0
 16 17  2  0
 16 23  1  0
 17 18  1  0
 17 19  1  0
 19 20  2  0
 19 21  1  0
 21 22  1  0
 22 23  1  0
M  CHG  1   1   1
M  END
