
     RDKit          3D

 23 25  0  0  0  0  0  0  0  0999 V2000
   -2.2530   -2.1530   -1.2760 N   0  0  0  0  0  0  0  0  0  0  0  0
   -3.1520   -1.0480   -0.9490 C   0  0  0  0  0  0  0  0  0  0  0  0
   -2.4270    0.0500   -0.2050 C   0  0  0  0  0  0  0  0  0  0  0  0
   -1.1440   -0.0140    0.0860 N   0  0  0  0  0  0  0  0  0  0  0  0
   -0.4620    0.7380    0.6390 C   0  0  0  0  0  0  0  0  0  0  0  0
    0.8780    1.0220    1.1240 N   0  0  0  0  0  0  0  0  0  0  0  0
    1.9110    0.0750    0.9070 C   0  0  0  0  0  0  0  0  0  0  0  0
    1.5850   -0.9720    0.2920 O   0  0  0  0  0  0  0  0  0  0  0  0
    3.2590    0.3820    1.4070 C   0  0  0  0  0  0  0  0  0  0  0  0
    4.2350   -0.6920    1.1020 C   0  0  0  0  0  0  0  0  0  0  0  0
    4.7790   -1.6590    1.8940 C   0  0  0  0  0  0  0  0  0  0  0  0
    5.6140   -2.4010    1.1630 N   0  0  0  0  0  0  0  0  0  0  0  0
    5.6110   -1.9280   -0.0670 N   0  0  0  0  0  0  0  0  0  0  0  0
    4.7750   -0.8710   -0.1580 C   0  0  0  0  0  0  0  0  0  0  0  0
    4.4810   -0.0490   -1.3690 C   0  0  0  0  0  0  0  0  0  0  0  0
    5.1760   -0.4790   -2.4720 O   0  0  0  0  0  0  0  0  0  0  0  0
   -1.7330    2.0960    1.0060 S   0  0  0  0  0  0  0  0  0  0  0  0
   -3.0610    1.1740    0.2040 C   0  0  0  0  0  0  0  0  0  0  0  0
   -4.4250    1.6930    0.1260 C   0  0  0  0  0  0  0  0  0  0  0  0
   -5.4840    1.0780   -0.4410 C   0  0  0  0  0  0  0  0  0  0  0  0
   -6.5760    1.9400   -0.2820 C   0  0  0  0  0  0  0  0  0  0  0  0
   -6.1040    3.0450    0.3850 C   0  0  0  0  0  0  0  0  0  0  0  0
   -4.8390    2.8490    0.6000 O   0  0  0  0  0  0  0  0  0  0  0  0
  1  2  1  0
  2  3  1  0
  3  4  1  0
  3 18  2  0
  4  5  2  0
  5  6  1  0
  5 17  1  0
  6  7  1  0
  7  8  2  0
  7  9  1  0
  9 10  1  0
 10 11  2  0
 10 14  1  0
 11 12  1  0
 12 13  1  0
 13 14  2  0
 14 15  1  0
 15 16  1  0
 17 18  1  0
 18 19  1  0
 19 20  2  0
 19 23  1  0
 20 21  1  0
 21 22  2  0
 22 23  1  0
M  CHG  1   1   1
M  END
