
     RDKit          3D

  9  8  0  0  0  0  0  0  0  0999 V2000
    2.9450    0.2740    0.8570 O   0  0  0  0  0  0  0  0  0  0  0  0
    2.0680    1.3220    0.9910 C   0  0  0  0  0  0  0  0  0  0  0  0
    0.7810    0.9020    0.5920 O   0  0  0  0  0  0  0  0  0  0  0  0
    0.8920    0.5090   -0.7310 C   0  0  0  0  0  0  0  0  0  0  0  0
   -0.3110    0.0760   -1.2320 O   0  0  0  0  0  0  0  0  0  0  0  0
   -0.8400   -1.0150   -0.5460 C   0  0  2  0  0  0  0  0  0  0  0  0
   -1.0520   -2.0900   -1.4330 O   0  0  0  0  0  0  0  0  0  0  0  0
   -2.1750   -0.5770    0.0180 C   0  0  0  0  0  0  0  0  0  0  0  0
   -1.9440    0.4960    0.8700 O   0  0  0  0  0  0  0  0  0  0  0  0
  1  2  1  0
  2  3  1  0
  3  4  1  0
  4  5  1  0
  5  6  1  0
  6  7  1  6
  6  8  1  0
  8  9  1  0
M  END
