
     RDKit          3D

 24 25  0  0  0  0  0  0  0  0999 V2000
   -6.3460   -0.1250   -0.7360 N   0  0  0  0  0  0  0  0  0  0  0  0
   -6.4790    0.8630    0.3480 C   0  0  0  0  0  0  0  0  0  0  0  0
   -5.6330    0.3310    1.4790 C   0  0  0  0  0  0  0  0  0  0  0  0
   -4.2770    0.2150    1.0160 N   0  0  0  0  0  0  0  0  0  0  0  0
   -3.4970    1.3600    0.7530 C   0  0  0  0  0  0  0  0  0  0  0  0
   -4.0840    2.8620    0.9900 S   0  0  0  0  0  0  0  0  0  0  0  0
   -2.1460    1.1650    0.2800 N   0  0  0  0  0  0  0  0  0  0  0  0
   -1.6400   -0.1080    0.0920 N   0  0  0  0  0  0  0  0  0  0  0  0
   -0.4880   -0.6140    0.8100 C   0  0  0  0  0  0  0  0  0  0  0  0
    0.0180    0.1810    1.6120 O   0  0  0  0  0  0  0  0  0  0  0  0
   -0.0140   -1.9930    0.5420 C   0  0  0  0  0  0  0  0  0  0  0  0
    1.0730   -1.9650   -0.8910 S   0  0  0  0  0  0  0  0  0  0  0  0
    2.6110   -1.2050   -0.5040 C   0  0  0  0  0  0  0  0  0  0  0  0
    2.9430   -0.8880    0.7920 C   0  0  0  0  0  0  0  0  0  0  0  0
    4.1370   -0.2680    1.0880 C   0  0  0  0  0  0  0  0  0  0  0  0
    5.0280    0.0440    0.0530 C   0  0  0  0  0  0  0  0  0  0  0  0
    6.1880    0.6380    0.2920 N   0  0  0  0  0  0  0  0  0  0  0  0
    7.0230    0.9240   -0.7120 C   0  0  0  0  0  0  0  0  0  0  0  0
    8.1310    1.4870   -0.5240 O   0  0  0  0  0  0  0  0  0  0  0  0
    6.7080    0.6100   -2.0350 C   0  0  0  0  0  0  0  0  0  0  0  0
    7.5020    0.8870   -2.9560 O   0  0  0  0  0  0  0  0  0  0  0  0
    5.5450    0.0180   -2.2530 N   0  0  0  0  0  0  0  0  0  0  0  0
    4.6810   -0.2810   -1.2400 C   0  0  0  0  0  0  0  0  0  0  0  0
    3.4910   -0.9000   -1.5520 C   0  0  0  0  0  0  0  0  0  0  0  0
  1  2  1  0
  2  3  1  0
  3  4  1  0
  4  5  1  0
  5  6  2  0
  5  7  1  0
  7  8  1  0
  8  9  1  0
  9 10  2  0
  9 11  1  0
 11 12  1  0
 12 13  1  0
 13 14  2  0
 13 24  1  0
 14 15  1  0
 15 16  2  0
 16 17  1  0
 16 23  1  0
 17 18  1  0
 18 19  2  0
 18 20  1  0
 20 21  2  0
 20 22  1  0
 22 23  1  0
 23 24  2  0
M  CHG  1   1   1
M  END
