
     RDKit          3D

 24 25  0  0  0  0  0  0  0  0999 V2000
    2.5450    0.2450    1.6840 C   0  0  0  0  0  0  0  0  0  0  0  0
    2.4680    0.3120    0.3750 C   0  0  0  0  0  0  0  0  0  0  0  0
    1.2730    0.3100   -0.3880 N   0  0  0  0  0  0  0  0  0  0  0  0
   -0.0180    0.2340    0.1420 C   0  0  0  0  0  0  0  0  0  0  0  0
   -0.2230    0.1610    1.3640 O   0  0  0  0  0  0  0  0  0  0  0  0
   -1.1880    0.2370   -0.7120 N   0  0  0  0  0  0  0  0  0  0  0  0
   -2.4890    0.1480   -0.0800 C   0  0  0  0  0  0  0  0  0  0  0  0
   -3.3210    1.1540   -0.1680 C   0  0  0  0  0  0  0  0  0  0  0  0
   -4.6350    1.2650    0.3930 C   0  0  0  0  0  0  0  0  0  0  0  0
   -5.6120    2.7630    0.1090 S   0  0  0  0  0  0  0  0  0  0  0  0
   -4.7190    3.9720    0.1960 O   0  0  0  0  0  0  0  0  0  0  0  0
   -5.1660    0.3030    1.1120 C   0  0  0  0  0  0  0  0  0  0  0  0
   -4.3370   -1.2160    1.4790 S   0  0  0  0  0  0  0  0  0  0  0  0
   -2.7980   -1.1440    0.5170 C   0  0  0  0  0  0  0  0  0  0  0  0
   -2.0880   -2.2260    0.3610 C   0  0  0  0  0  0  0  0  0  0  0  0
   -0.9190   -2.3020   -0.4120 N   0  0  0  0  0  0  0  0  0  0  0  0
   -2.5150   -3.4200    1.0120 N   0  0  0  0  0  0  0  0  0  0  0  0
    3.7680    0.4230   -0.3360 C   0  0  0  0  0  0  0  0  0  0  0  0
    3.8620    0.0470   -1.6520 C   0  0  0  0  0  0  0  0  0  0  0  0
    5.0710    0.1680   -2.3470 C   0  0  0  0  0  0  0  0  0  0  0  0
    6.1440    0.6500   -1.7360 N   0  0  0  0  0  0  0  0  0  0  0  0
    6.0310    1.0130   -0.4480 C   0  0  0  0  0  0  0  0  0  0  0  0
    7.0700    1.4680    0.1030 O   0  0  0  0  0  0  0  0  0  0  0  0
    4.8710    0.9040    0.2430 N   0  0  0  0  0  0  0  0  0  0  0  0
  1  2  2  0
  2  3  1  0
  2 18  1  0
  3  4  1  0
  4  5  2  0
  4  6  1  0
  6  7  1  0
  7  8  2  0
  7 14  1  0
  8  9  1  0
  9 10  1  0
  9 12  2  0
 10 11  2  0
 12 13  1  0
 13 14  1  0
 14 15  2  3
 15 16  1  0
 15 17  1  0
 18 19  2  0
 18 24  1  0
 19 20  1  0
 20 21  2  0
 21 22  1  0
 22 23  2  0
 22 24  1  0
M  END
