
     RDKit          3D

 24 25  0  0  0  0  0  0  0  0999 V2000
    7.9050    2.2550   -1.6950 N   0  0  0  0  0  0  0  0  0  0  0  0
    6.5840    2.0460   -1.2710 N   0  0  0  0  0  0  0  0  0  0  0  0
    5.7960    1.0180   -1.8020 C   0  0  0  0  0  0  0  0  0  0  0  0
    6.2830    0.2680   -2.6770 O   0  0  0  0  0  0  0  0  0  0  0  0
    4.4290    0.8830   -1.2940 C   0  0  0  0  0  0  0  0  0  0  0  0
    3.6310    1.3390   -0.5330 N   0  0  0  0  0  0  0  0  0  0  0  0
    2.4360    0.9600   -0.3150 N   0  0  0  0  0  0  0  0  0  0  0  0
    1.9580   -0.0720   -0.9920 C   0  0  0  0  0  0  0  0  0  0  0  0
    0.7000   -0.7050   -0.9650 N   0  0  0  0  0  0  0  0  0  0  0  0
   -0.3240   -0.2730   -0.1220 C   0  0  0  0  0  0  0  0  0  0  0  0
   -0.0510    0.7290    0.6230 O   0  0  0  0  0  0  0  0  0  0  0  0
   -1.6670   -0.8790   -0.0330 C   0  0  0  0  0  0  0  0  0  0  0  0
   -2.0140   -1.9060   -0.7650 C   0  0  0  0  0  0  0  0  0  0  0  0
   -3.2630   -2.6060   -0.8010 C   0  0  0  0  0  0  0  0  0  0  0  0
   -3.5220   -3.6640   -1.5960 C   0  0  0  0  0  0  0  0  0  0  0  0
   -4.8890   -4.0960   -1.3460 C   0  0  0  0  0  0  0  0  0  0  0  0
   -5.2050   -3.4680   -0.2230 C   0  0  0  0  0  0  0  0  0  0  0  0
   -4.4800   -2.3660   -0.0560 C   0  0  0  0  0  0  0  0  0  0  0  0
   -2.8620   -0.1950    1.1160 S   0  0  0  0  0  0  0  0  0  0  0  0
   -2.1500    1.1980    2.0010 C   0  0  0  0  0  0  0  0  0  0  0  0
   -3.2100    1.7160    2.9450 C   0  0  0  0  0  0  0  0  0  0  0  0
   -2.8620    2.8270    3.7530 N   0  0  0  0  0  0  0  0  0  0  0  0
   -4.3160    1.2140    3.0200 O   0  0  0  0  0  0  0  0  0  0  0  0
    3.3490   -0.5000   -2.0000 S   0  0  0  0  0  0  0  0  0  0  0  0
  1  2  1  0
  2  3  1  0
  3  4  2  0
  3  5  1  0
  5  6  2  0
  5 24  1  0
  6  7  1  0
  7  8  2  0
  8  9  1  0
  8 24  1  0
  9 10  1  0
 10 11  2  0
 10 12  1  0
 12 13  2  3
 12 19  1  0
 13 14  1  0
 14 15  2  0
 14 18  1  0
 15 16  1  0
 16 17  2  0
 17 18  2  0
 19 20  1  0
 20 21  1  0
 21 22  1  0
 21 23  2  0
M  CHG  1  22   1
M  END
