
     RDKit          3D

 24 26  0  0  0  0  0  0  0  0999 V2000
   -6.3510    0.2880   -1.2050 N   0  0  0  0  0  0  0  0  0  0  0  0
   -5.6690   -1.1800   -0.6060 S   0  0  1  0  0  0  0  0  0  0  0  0
   -6.6430   -1.8440    0.3060 O   0  0  0  0  0  0  0  0  0  0  0  0
   -5.3250   -2.0380   -1.8000 O   0  0  0  0  0  0  0  0  0  0  0  0
   -4.1690   -0.8640    0.2560 C   0  0  0  0  0  0  0  0  0  0  0  0
   -2.9450   -0.8620   -0.3860 C   0  0  0  0  0  0  0  0  0  0  0  0
   -1.7470   -0.6190    0.2510 C   0  0  0  0  0  0  0  0  0  0  0  0
   -1.7590   -0.3630    1.5990 C   0  0  0  0  0  0  0  0  0  0  0  0
   -0.5350   -0.0850    2.3950 C   0  0  0  0  0  0  0  0  0  0  0  0
   -0.2040    1.3730    2.4470 C   0  0  0  0  0  0  0  0  0  0  0  0
    0.0990    2.1190    0.8520 S   0  0  0  0  0  0  0  0  0  0  0  0
    1.6020    1.5140    0.1230 C   0  0  0  0  0  0  0  0  0  0  0  0
    2.1000    1.8270   -1.1020 N   0  0  0  0  0  0  0  0  0  0  0  0
    3.2450    1.1940   -1.3440 C   0  0  0  0  0  0  0  0  0  0  0  0
    4.1310    1.1270   -2.3350 N   0  0  0  0  0  0  0  0  0  0  0  0
    5.2430    0.3790   -2.3150 C   0  0  0  0  0  0  0  0  0  0  0  0
    6.0580    0.3690   -3.3260 N   0  0  0  0  0  0  0  0  0  0  0  0
    5.4930   -0.3660   -1.2110 N   0  0  0  0  0  0  0  0  0  0  0  0
    4.6400   -0.3440   -0.1740 C   0  0  0  0  0  0  0  0  0  0  0  0
    4.8530   -1.0360    0.8760 O   0  0  0  0  0  0  0  0  0  0  0  0
    3.5030    0.4320   -0.2170 C   0  0  0  0  0  0  0  0  0  0  0  0
    2.4860    0.6510    0.6520 N   0  0  0  0  0  0  0  0  0  0  0  0
   -2.9610   -0.3590    2.2550 C   0  0  0  0  0  0  0  0  0  0  0  0
   -4.1610   -0.6030    1.6130 C   0  0  0  0  0  0  0  0  0  0  0  0
  2  1  1  6
  2  3  2  0
  2  4  2  0
  2  5  1  0
  5  6  2  0
  5 24  1  0
  6  7  1  0
  7  8  2  0
  8  9  1  0
  8 23  1  0
  9 10  1  0
 10 11  1  0
 11 12  1  0
 12 13  2  0
 12 22  1  0
 13 14  1  0
 14 15  1  0
 14 21  2  0
 15 16  1  0
 16 17  2  0
 16 18  1  0
 18 19  1  0
 19 20  2  0
 19 21  1  0
 21 22  1  0
 23 24  2  0
M  CHG  1  17   1
M  END
