
     RDKit          3D

 24 25  0  0  0  0  0  0  0  0999 V2000
   -1.2890    2.2110    0.7980 C   0  0  0  0  0  0  0  0  0  0  0  0
   -2.1390    0.9280    0.5500 C   0  0  1  0  0  0  0  0  0  0  0  0
   -2.8900    0.7260    1.8220 C   0  0  0  0  0  0  0  0  0  0  0  0
   -2.9380    1.2390   -0.6580 C   0  0  0  0  0  0  0  0  0  0  0  0
   -3.8540    0.2310   -1.2090 C   0  0  0  0  0  0  0  0  0  0  0  0
   -4.9590   -0.2370   -0.3100 C   0  0  0  0  0  0  0  0  0  0  0  0
   -5.7900   -1.2210   -1.0470 N   0  0  0  0  0  0  0  0  0  0  0  0
   -1.1800   -0.1740    0.3700 C   0  0  0  0  0  0  0  0  0  0  0  0
   -1.2170   -1.1510    1.1490 O   0  0  0  0  0  0  0  0  0  0  0  0
   -0.1930   -0.1760   -0.6720 N   0  0  0  0  0  0  0  0  0  0  0  0
    0.6690   -1.2480   -0.7720 N   0  0  0  0  0  0  0  0  0  0  0  0
    1.9320   -1.1090   -0.5580 C   0  0  0  0  0  0  0  0  0  0  0  0
    2.7460   -2.1770   -0.6650 N   0  0  0  0  0  0  0  0  0  0  0  0
    4.0550   -2.1920   -0.4770 C   0  0  0  0  0  0  0  0  0  0  0  0
    4.6620   -3.3110   -0.6250 O   0  0  0  0  0  0  0  0  0  0  0  0
    4.8640   -1.1390   -0.1360 C   0  0  0  0  0  0  0  0  0  0  0  0
    6.2120   -1.3110    0.0250 N   0  0  0  0  0  0  0  0  0  0  0  0
    7.0310   -0.3160    0.3540 C   0  0  0  0  0  0  0  0  0  0  0  0
    8.6480   -0.5850    0.5340 S   0  0  0  0  0  0  0  0  0  0  0  0
    6.6200    0.9470    0.5610 N   0  0  0  0  0  0  0  0  0  0  0  0
    5.2920    1.1600    0.4130 C   0  0  0  0  0  0  0  0  0  0  0  0
    4.8070    2.3020    0.5830 O   0  0  0  0  0  0  0  0  0  0  0  0
    4.4220    0.1500    0.0720 C   0  0  0  0  0  0  0  0  0  0  0  0
    2.7320    0.3350   -0.1360 S   0  0  0  0  0  0  0  0  0  0  0  0
  2  1  1  1
  2  3  1  0
  2  4  1  0
  2  8  1  0
  4  5  1  0
  5  6  1  0
  6  7  1  0
  8  9  2  0
  8 10  1  0
 10 11  1  0
 11 12  2  3
 12 13  1  0
 12 24  1  0
 13 14  1  0
 14 15  2  0
 14 16  1  0
 16 17  1  0
 16 23  2  0
 17 18  1  0
 18 19  2  0
 18 20  1  0
 20 21  1  0
 21 22  2  0
 21 23  1  0
 23 24  1  0
M  CHG  1   7   1
M  END
