
     RDKit          3D

 24 25  0  0  0  0  0  0  0  0999 V2000
   -5.9600   -0.3320   -1.6650 N   0  0  0  0  0  0  0  0  0  0  0  0
   -5.8730    0.3350   -0.3930 C   0  0  0  0  0  0  0  0  0  0  0  0
   -4.4820    0.8370   -0.0970 C   0  0  2  0  0  0  0  0  0  0  0  0
   -4.0220    1.7790   -1.0810 N   0  0  0  0  0  0  0  0  0  0  0  0
   -3.5580   -0.3530    0.0240 C   0  0  0  0  0  0  0  0  0  0  0  0
   -2.1730    0.1270    0.3170 N   0  0  0  0  0  0  0  0  0  0  0  0
   -1.1260   -0.7740    0.4760 C   0  0  0  0  0  0  0  0  0  0  0  0
   -1.5700   -2.0390    0.3270 O   0  0  0  0  0  0  0  0  0  0  0  0
    0.2460   -0.6460    0.7500 C   0  0  0  0  0  0  0  0  0  0  0  0
    1.1090    0.2860    0.9640 C   0  0  0  0  0  0  0  0  0  0  0  0
    0.8820    1.6440    0.9870 C   0  0  0  0  0  0  0  0  0  0  0  0
   -0.2390    2.1120    0.7920 O   0  0  0  0  0  0  0  0  0  0  0  0
    1.8490    2.5380    1.2200 N   0  0  0  0  0  0  0  0  0  0  0  0
    3.0970    2.1320    1.4430 C   0  0  0  0  0  0  0  0  0  0  0  0
    3.9930    2.9860    1.6600 O   0  0  0  0  0  0  0  0  0  0  0  0
    3.3830    0.8390    1.4350 N   0  0  0  0  0  0  0  0  0  0  0  0
    2.4440   -0.1140    1.2050 C   0  0  0  0  0  0  0  0  0  0  0  0
    2.8220   -1.3770    1.2160 C   0  0  0  0  0  0  0  0  0  0  0  0
    4.5830   -1.7250    1.5410 S   0  0  0  0  0  0  0  0  0  0  0  0
    5.5340   -1.3250    0.0960 C   0  0  0  0  0  0  0  0  0  0  0  0
    5.4010   -0.9060   -1.0120 N   0  0  0  0  0  0  0  0  0  0  0  0
    6.2350   -0.6760   -1.9490 C   0  0  0  0  0  0  0  0  0  0  0  0
    7.6110   -0.9580   -1.6660 C   0  0  0  0  0  0  0  0  0  0  0  0
    7.3980   -1.5650    0.0850 S   0  0  0  0  0  0  0  0  0  0  0  0
  1  2  1  0
  2  3  1  0
  3  4  1  6
  3  5  1  0
  5  6  1  0
  6  7  1  0
  7  8  2  0
  7  9  1  0
  9 10  2  3
 10 11  1  0
 10 17  1  0
 11 12  2  0
 11 13  1  0
 13 14  1  0
 14 15  2  0
 14 16  1  0
 16 17  1  0
 17 18  2  3
 18 19  1  0
 19 20  1  0
 20 21  2  0
 20 24  1  0
 21 22  1  0
 22 23  2  0
 23 24  1  0
M  CHG  1   4   1
M  END
