
     RDKit          3D

 24 25  0  0  0  0  0  0  0  0999 V2000
    6.4890    1.2820   -1.4210 N   0  0  0  0  0  0  0  0  0  0  0  0
    5.5320    0.9460   -0.4370 C   0  0  0  0  0  0  0  0  0  0  0  0
    4.8890    1.8390    0.1910 O   0  0  0  0  0  0  0  0  0  0  0  0
    5.2580   -0.4210   -0.1180 N   0  0  0  0  0  0  0  0  0  0  0  0
    4.3160   -0.8290    0.8560 C   0  0  0  0  0  0  0  0  0  0  0  0
    3.6640    0.0580    1.4870 O   0  0  0  0  0  0  0  0  0  0  0  0
    4.0600   -2.2380    1.1730 C   0  0  0  0  0  0  0  0  0  0  0  0
    2.9360   -3.0780    0.0610 S   0  0  0  0  0  0  0  0  0  0  0  0
    1.2530   -2.4530    0.0860 C   0  0  0  0  0  0  0  0  0  0  0  0
    1.1960   -1.1380   -0.5900 C   0  0  0  0  0  0  0  0  0  0  0  0
    2.3000   -0.6650   -1.0940 O   0  0  0  0  0  0  0  0  0  0  0  0
    0.0860   -0.3160   -0.7670 N   0  0  0  0  0  0  0  0  0  0  0  0
   -1.0000   -0.3310   -0.0990 C   0  0  0  0  0  0  0  0  0  0  0  0
   -1.1250   -1.2610    0.9310 N   0  0  0  0  0  0  0  0  0  0  0  0
   -2.0450    0.6560   -0.4740 C   0  0  0  0  0  0  0  0  0  0  0  0
   -1.7890    1.4770   -1.4800 C   0  0  0  0  0  0  0  0  0  0  0  0
   -0.5270    1.3580   -2.1370 N   0  0  0  0  0  0  0  0  0  0  0  0
   -2.9730    2.6920   -2.0050 S   0  0  0  0  0  0  0  0  0  0  0  0
   -4.3830    2.6160   -0.9300 C   0  0  0  0  0  0  0  0  0  0  0  0
   -4.2600    1.5410    0.0860 C   0  0  0  0  0  0  0  0  0  0  0  0
   -3.2910    0.7160    0.2870 C   0  0  0  0  0  0  0  0  0  0  0  0
   -3.6470   -0.1920    1.4440 C   0  0  0  0  0  0  0  0  0  0  0  0
   -5.1460   -0.0620    1.5070 C   0  0  0  0  0  0  0  0  0  0  0  0
   -5.3110    1.2990    1.0890 N   0  0  0  0  0  0  0  0  0  0  0  0
  1  2  1  0
  2  3  2  0
  2  4  1  0
  4  5  1  0
  5  6  2  0
  5  7  1  0
  7  8  1  0
  8  9  1  0
  9 10  1  0
 10 11  2  0
 10 12  1  0
 12 13  2  3
 13 14  1  0
 13 15  1  0
 15 16  2  0
 15 21  1  0
 16 17  1  0
 16 18  1  0
 18 19  1  0
 19 20  1  0
 20 21  2  0
 20 24  1  0
 21 22  1  0
 22 23  1  0
 23 24  1  0
M  END
