
     RDKit          3D

 24 25  0  0  0  0  0  0  0  0999 V2000
   -7.4490    2.4310   -0.2320 N   0  0  0  0  0  0  0  0  0  0  0  0
   -6.4100    1.5440   -0.4030 C   0  0  0  0  0  0  0  0  0  0  0  0
   -6.3000    0.4090   -0.6490 O   0  0  0  0  0  0  0  0  0  0  0  0
   -4.8550    2.3090   -0.1930 N   0  0  0  0  0  0  0  0  0  0  0  0
   -4.0760    1.2030   -0.4010 C   0  0  0  0  0  0  0  0  0  0  0  0
   -4.2400    0.0300   -0.6770 O   0  0  0  0  0  0  0  0  0  0  0  0
   -2.6450    1.6040   -0.2230 N   0  0  0  0  0  0  0  0  0  0  0  0
   -1.6020    0.7560   -0.3000 N   0  0  0  0  0  0  0  0  0  0  0  0
   -0.3070    1.3450   -0.0630 C   0  0  0  0  0  0  0  0  0  0  0  0
   -0.1550    2.6070   -0.0120 O   0  0  0  0  0  0  0  0  0  0  0  0
    0.8130    0.4580    0.1230 C   0  0  0  0  0  0  0  0  0  0  0  0
    2.0380    0.9660    0.3690 C   0  0  0  0  0  0  0  0  0  0  0  0
    3.1560    0.0690    0.5570 C   0  0  0  0  0  0  0  0  0  0  0  0
    4.3940    0.4090    0.8060 C   0  0  0  0  0  0  0  0  0  0  0  0
    5.1910   -0.8280    0.9260 C   0  0  2  0  0  0  0  0  0  0  0  0
    6.4790   -0.9490   -0.3440 S   0  0  0  0  0  0  0  0  0  0  0  0
    7.6980    0.3160   -0.0820 N   0  0  0  0  0  0  0  0  0  0  0  0
    4.2250   -1.8590    0.7110 N   0  0  0  0  0  0  0  0  0  0  0  0
    3.0750   -1.3800    0.5030 C   0  0  0  0  0  0  0  0  0  0  0  0
   -1.7110   -0.6550   -0.5330 C   0  0  0  0  0  0  0  0  0  0  0  0
   -1.6880   -1.6760    0.3610 C   0  0  0  0  0  0  0  0  0  0  0  0
   -1.8180   -2.9260   -0.0680 C   0  0  0  0  0  0  0  0  0  0  0  0
   -1.9710   -3.1320   -1.4170 C   0  0  0  0  0  0  0  0  0  0  0  0
   -1.9230   -1.4370   -2.0860 S   0  0  0  0  0  0  0  0  0  0  0  0
  1  2  1  0
  2  3  2  0
  2  4  1  0
  4  5  1  0
  5  6  2  0
  5  7  1  0
  7  8  1  0
  8  9  1  0
  8 20  1  0
  9 10  2  0
  9 11  1  0
 11 12  2  3
 12 13  1  0
 13 14  2  0
 13 19  1  0
 14 15  1  0
 15 16  1  6
 15 18  1  0
 16 17  1  0
 18 19  2  0
 20 21  2  0
 20 24  1  0
 21 22  1  0
 22 23  2  0
 23 24  1  0
M  CHG  1  17   1
M  END
