
     RDKit          3D

 17 17  0  0  0  0  0  0  0  0999 V2000
    5.1670   -1.9590   -0.8250 C   0  0  0  0  0  0  0  0  0  0  0  0
    4.2540   -1.8660    0.0880 N   0  0  0  0  0  0  0  0  0  0  0  0
    3.4120   -0.6440    0.0960 C   0  0  0  0  0  0  0  0  0  0  0  0
    4.0490    0.4470    0.0460 C   0  0  0  0  0  0  0  0  0  0  0  0
    3.5740    1.8240    0.0350 C   0  0  0  0  0  0  0  0  0  0  0  0
    4.2380    2.7080    1.4730 Cl  0  0  0  0  0  0  0  0  0  0  0  0
    2.0010   -0.9490    0.1620 C   0  0  0  0  0  0  0  0  0  0  0  0
    0.8670    0.4120    0.1860 S   0  0  0  0  0  0  0  0  0  0  0  0
   -0.8220   -0.1350    0.2910 C   0  0  0  0  0  0  0  0  0  0  0  0
   -1.8050    0.8360    0.3060 C   0  0  0  0  0  0  0  0  0  0  0  0
   -3.1440    0.5540    0.3860 C   0  0  0  0  0  0  0  0  0  0  0  0
   -4.1560    1.6280    0.3980 C   0  0  0  0  0  0  0  0  0  0  0  0
   -4.5230    1.8890   -0.9970 N   0  0  0  0  0  0  0  0  0  0  0  0
   -3.4960   -0.7850    0.4540 C   0  0  0  0  0  0  0  0  0  0  0  0
   -2.5440   -1.7800    0.4410 C   0  0  0  0  0  0  0  0  0  0  0  0
   -1.2130   -1.4560    0.3610 C   0  0  0  0  0  0  0  0  0  0  0  0
   -0.2260   -2.4340    0.3460 O   0  0  0  0  0  0  0  0  0  0  0  0
  1  2  2  0
  2  3  1  0
  3  4  2  3
  3  7  1  0
  4  5  1  0
  5  6  1  0
  7  8  1  0
  8  9  1  0
  9 10  2  0
  9 16  1  0
 10 11  1  0
 11 12  1  0
 11 14  2  0
 12 13  1  0
 14 15  1  0
 15 16  2  0
 16 17  1  0
M  CHG  1  13   1
M  END
