
     RDKit          3D

 10 10  0  0  0  0  0  0  0  0999 V2000
   -2.3110    2.0770    0.6880 C   0  0  0  0  0  0  0  0  0  0  0  0
   -0.9940    1.5260    0.2810 C   0  0  0  0  0  0  0  0  0  0  0  0
   -0.8310    0.2810   -0.0940 C   0  0  0  0  0  0  0  0  0  0  0  0
   -1.8740   -0.7670   -0.1820 C   0  0  0  0  0  0  0  0  0  0  0  0
   -1.0590   -1.9710    0.3110 C   0  0  0  0  0  0  0  0  0  0  0  0
    0.2560   -1.7530   -0.3910 C   0  0  0  0  0  0  0  0  0  0  0  0
    0.4010   -0.3170   -0.4970 N   0  0  0  0  0  0  0  0  0  0  0  0
    1.5570    0.4490   -0.9280 C   0  0  0  0  0  0  0  0  0  0  0  0
    2.7000    0.3750    0.0340 C   0  0  0  0  0  0  0  0  0  0  0  0
    3.1950   -0.8790    0.2690 O   0  0  0  0  0  0  0  0  0  0  0  0
  1  2  1  0
  2  3  2  3
  3  4  1  0
  3  7  1  0
  4  5  1  0
  5  6  1  0
  6  7  1  0
  7  8  1  0
  8  9  1  0
  9 10  1  0
M  END
