
     RDKit          3D

 26 30  0  0  0  0  0  0  0  0999 V2000
   -3.3050   -3.3880    2.6080 O   0  0  0  0  0  0  0  0  0  0  0  0
   -2.6690   -2.5800    1.9110 C   0  0  0  0  0  0  0  0  0  0  0  0
   -3.2050   -1.4750    1.2940 C   0  0  0  0  0  0  0  0  0  0  0  0
   -2.3030   -0.7170    0.5670 C   0  0  0  0  0  0  0  0  0  0  0  0
   -2.8400    0.4590   -0.0970 N   0  0  0  0  0  0  0  0  0  0  0  0
   -4.2430    0.7810    0.0280 C   0  0  0  0  0  0  0  0  0  0  0  0
   -4.3730    2.2530   -0.3270 C   0  0  0  0  0  0  0  0  0  0  0  0
   -4.0110    2.4980   -1.6300 O   0  0  0  0  0  0  0  0  0  0  0  0
   -2.9060    1.8060   -2.0510 C   0  0  0  0  0  0  0  0  0  0  0  0
   -2.0210    1.3350   -0.8910 C   0  0  0  0  0  0  0  0  0  0  0  0
   -1.0480   -0.9930    0.4530 O   0  0  0  0  0  0  0  0  0  0  0  0
   -0.4470   -2.0560    1.0260 C   0  0  0  0  0  0  0  0  0  0  0  0
    0.8590   -2.4160    0.9570 C   0  0  0  0  0  0  0  0  0  0  0  0
    1.8710   -1.6180    0.1740 C   0  0  0  0  0  0  0  0  0  0  0  0
    2.7770   -2.2230   -0.6560 C   0  0  0  0  0  0  0  0  0  0  0  0
    3.7100   -1.4660   -1.3760 C   0  0  0  0  0  0  0  0  0  0  0  0
    3.7250   -0.1040   -1.2570 C   0  0  0  0  0  0  0  0  0  0  0  0
    2.8070    0.5320   -0.4150 C   0  0  0  0  0  0  0  0  0  0  0  0
    1.9020   -0.2550    0.2780 C   0  0  0  0  0  0  0  0  0  0  0  0
    2.8710    1.8970   -0.3380 O   0  0  0  0  0  0  0  0  0  0  0  0
    4.0950    2.5980   -0.4440 C   0  0  0  0  0  0  0  0  0  0  0  0
    5.1020    1.9180   -1.3090 C   0  0  0  0  0  0  0  0  0  0  0  0
    4.6050    0.7340   -1.9240 O   0  0  0  0  0  0  0  0  0  0  0  0
    1.2650   -3.5310    1.6110 C   0  0  0  0  0  0  0  0  0  0  0  0
   -0.2920   -4.1200    2.3810 S   0  0  0  0  0  0  0  0  0  0  0  0
   -1.2840   -2.8600    1.7690 C   0  0  0  0  0  0  0  0  0  0  0  0
  1  2  2  0
  2  3  1  0
  2 26  1  0
  3  4  2  0
  4  5  1  0
  4 11  1  0
  5  6  1  0
  5 10  1  0
  6  7  1  0
  7  8  1  0
  8  9  1  0
  9 10  1  0
 11 12  1  0
 12 13  1  0
 12 26  2  0
 13 14  1  0
 13 24  2  0
 14 15  2  0
 14 19  1  0
 15 16  1  0
 16 17  2  0
 17 18  1  0
 17 23  1  0
 18 19  2  0
 18 20  1  0
 20 21  1  0
 21 22  1  0
 22 23  1  0
 24 25  1  0
 25 26  1  0
M  END
