
     RDKit          3D

 10 10  0  0  0  0  0  0  0  0999 V2000
    3.2510    1.1230   -0.1220 C   0  0  0  0  0  0  0  0  0  0  0  0
    2.1520    0.1750   -0.4720 C   0  0  0  0  0  0  0  0  0  0  0  0
    1.0260    0.3830    0.3570 O   0  0  0  0  0  0  0  0  0  0  0  0
   -0.1100   -0.4170    0.1760 C   0  0  0  0  0  0  0  0  0  0  0  0
   -0.1180   -1.6790   -0.2210 C   0  0  0  0  0  0  0  0  0  0  0  0
   -1.5040   -2.2060   -0.3010 C   0  0  0  0  0  0  0  0  0  0  0  0
   -2.2430   -1.2650    0.6260 C   0  0  0  0  0  0  0  0  0  0  0  0
   -1.4980   -0.0010    0.3930 C   0  0  0  0  0  0  0  0  0  0  0  0
   -1.9560    1.2400    0.3790 C   0  0  0  0  0  0  0  0  0  0  0  0
   -1.1580    2.3710    0.1460 N   0  0  0  0  0  0  0  0  0  0  0  0
  1  2  1  0
  2  3  1  0
  3  4  1  0
  4  5  2  0
  4  8  1  0
  5  6  1  0
  6  7  1  0
  7  8  1  0
  8  9  2  3
  9 10  1  0
M  END
