
     RDKit          3D

 17 17  0  0  0  0  0  0  0  0999 V2000
    6.3680    0.7810    0.7520 N   0  0  0  0  0  0  0  0  0  0  0  0
    5.4050    0.8420   -0.2720 C   0  0  0  0  0  0  0  0  0  0  0  0
    5.7350    1.6400   -1.6430 S   0  0  0  0  0  0  0  0  0  0  0  0
    4.1270    0.2000   -0.1060 C   0  0  0  0  0  0  0  0  0  0  0  0
    3.1970    0.2340   -1.0420 C   0  0  0  0  0  0  0  0  0  0  0  0
    1.9150   -0.4000   -0.8970 C   0  0  0  0  0  0  0  0  0  0  0  0
    1.0850   -0.3050   -1.8680 O   0  0  0  0  0  0  0  0  0  0  0  0
    1.4860   -1.1220    0.2240 N   0  0  0  0  0  0  0  0  0  0  0  0
    0.1830   -1.7260    0.3010 C   0  0  0  0  0  0  0  0  0  0  0  0
   -0.8630   -0.6550    0.2060 C   0  0  0  0  0  0  0  0  0  0  0  0
   -2.2670   -1.2460    0.2850 C   0  0  0  0  0  0  0  0  0  0  0  0
   -3.2790   -0.1600    0.1890 C   0  0  0  0  0  0  0  0  0  0  0  0
   -4.1830    0.1290    1.1180 C   0  0  0  0  0  0  0  0  0  0  0  0
   -5.0280    1.2720    0.6860 C   0  0  0  0  0  0  0  0  0  0  0  0
   -4.4860    1.6150   -0.6410 C   0  0  0  0  0  0  0  0  0  0  0  0
   -3.4870    0.7810   -0.9000 C   0  0  0  0  0  0  0  0  0  0  0  0
   -2.5070    0.7790   -2.3760 Cl  0  0  0  0  0  0  0  0  0  0  0  0
  1  2  1  0
  2  3  2  0
  2  4  1  0
  4  5  2  3
  5  6  1  0
  6  7  2  0
  6  8  1  0
  8  9  1  0
  9 10  1  0
 10 11  1  0
 11 12  1  0
 12 13  2  0
 12 16  1  0
 13 14  1  0
 14 15  1  0
 15 16  2  0
 16 17  1  0
M  END
