
     RDKit          3D

 17 17  0  0  0  0  0  0  0  0999 V2000
   -2.1830    2.2730   -1.3140 N   0  0  0  0  0  0  0  0  0  0  0  0
   -3.1020    1.5650   -0.5560 C   0  0  0  0  0  0  0  0  0  0  0  0
   -3.0700    0.4500    0.0530 C   0  0  0  0  0  0  0  0  0  0  0  0
   -2.1690   -0.6230    0.3060 C   0  0  0  0  0  0  0  0  0  0  0  0
   -2.4860   -1.7350    0.9580 C   0  0  0  0  0  0  0  0  0  0  0  0
   -3.6630   -2.2640    1.5860 C   0  0  0  0  0  0  0  0  0  0  0  0
   -5.1580   -1.3900    1.5980 Cl  0  0  0  0  0  0  0  0  0  0  0  0
   -0.7760   -0.6090   -0.1840 C   0  0  0  0  0  0  0  0  0  0  0  0
   -0.2470   -1.8170   -0.6140 C   0  0  0  0  0  0  0  0  0  0  0  0
    1.0870   -1.8670   -0.9450 C   0  0  0  0  0  0  0  0  0  0  0  0
    1.8670   -0.7820   -0.8590 N   0  0  0  0  0  0  0  0  0  0  0  0
    1.3890    0.4020   -0.4470 C   0  0  0  0  0  0  0  0  0  0  0  0
    2.4160    1.8620   -0.3260 S   0  0  0  0  0  0  0  0  0  0  0  0
    4.0930    1.4200   -0.8370 C   0  0  0  0  0  0  0  0  0  0  0  0
    4.6430    0.4500    0.1890 C   0  0  0  0  0  0  0  0  0  0  0  0
    5.9360    0.0500   -0.1210 O   0  0  0  0  0  0  0  0  0  0  0  0
    0.0470    0.4870   -0.1030 C   0  0  0  0  0  0  0  0  0  0  0  0
  1  2  1  0
  2  3  2  3
  3  4  1  0
  4  5  2  3
  4  8  1  0
  5  6  1  0
  6  7  1  0
  8  9  2  0
  8 17  1  0
  9 10  1  0
 10 11  2  0
 11 12  1  0
 12 13  1  0
 12 17  2  0
 13 14  1  0
 14 15  1  0
 15 16  1  0
M  CHG  1   1   1
M  END
