
     RDKit          3D

 17 17  0  0  0  0  0  0  0  0999 V2000
   -3.5190    1.4360   -1.0430 C   0  0  0  0  0  0  0  0  0  0  0  0
   -3.2820    0.4520   -0.2150 C   0  0  0  0  0  0  0  0  0  0  0  0
   -1.9160    0.2070    0.2930 C   0  0  0  0  0  0  0  0  0  0  0  0
   -1.5980   -0.7580    1.1110 C   0  0  0  0  0  0  0  0  0  0  0  0
   -0.2720   -1.0700    1.6600 C   0  0  0  0  0  0  0  0  0  0  0  0
    0.8160   -0.2720    1.2590 N   0  0  0  0  0  0  0  0  0  0  0  0
    1.2420   -0.1870   -0.0820 C   0  0  0  0  0  0  0  0  0  0  0  0
    0.6460   -0.8370   -0.9640 O   0  0  0  0  0  0  0  0  0  0  0  0
    2.4140    0.6810   -0.4760 C   0  0  0  0  0  0  0  0  0  0  0  0
    3.8160   -0.4600   -0.6040 S   0  0  0  0  0  0  0  0  0  0  0  0
    5.3610    0.3460   -1.0160 C   0  0  0  0  0  0  0  0  0  0  0  0
    5.8610    1.2400    0.0980 C   0  0  0  0  0  0  0  0  0  0  0  0
   -2.6900   -1.6470    1.5400 C   0  0  0  0  0  0  0  0  0  0  0  0
   -3.9400   -1.5180    1.1490 C   0  0  0  0  0  0  0  0  0  0  0  0
   -5.2030   -2.6250    1.7090 Cl  0  0  0  0  0  0  0  0  0  0  0  0
   -4.3460   -0.4410    0.2250 C   0  0  0  0  0  0  0  0  0  0  0  0
   -5.5660   -0.3370   -0.1350 N   0  0  0  0  0  0  0  0  0  0  0  0
  1  2  2  0
  2  3  1  0
  2 16  1  0
  3  4  2  0
  4  5  1  0
  4 13  1  0
  5  6  1  0
  6  7  1  0
  7  8  2  0
  7  9  1  0
  9 10  1  0
 10 11  1  0
 11 12  1  0
 13 14  2  0
 14 15  1  0
 14 16  1  0
 16 17  2  0
M  CHG  1  17   1
M  END
