
     RDKit          3D

 17 17  0  0  0  0  0  0  0  0999 V2000
   -3.7120   -0.9640   -1.0720 C   0  0  0  0  0  0  0  0  0  0  0  0
   -2.8730   -0.1920   -0.0530 C   0  0  1  0  0  0  0  0  0  0  0  0
   -2.9960   -0.8940    1.2610 C   0  0  0  0  0  0  0  0  0  0  0  0
   -4.3010   -0.9570    1.8080 N   0  0  0  0  0  0  0  0  0  0  0  0
   -2.0360   -1.4050    1.8710 O   0  0  0  0  0  0  0  0  0  0  0  0
   -1.5030   -0.1340   -0.5290 C   0  0  0  0  0  0  0  0  0  0  0  0
   -0.7850    0.8900   -0.8350 C   0  0  0  0  0  0  0  0  0  0  0  0
    0.6350    0.7360   -1.3130 C   0  0  0  0  0  0  0  0  0  0  0  0
    1.1620   -0.5610   -1.2970 N   0  0  0  0  0  0  0  0  0  0  0  0
    1.4970   -1.0970   -0.0030 C   0  0  0  0  0  0  0  0  0  0  0  0
    2.6980   -0.3830    0.6040 C   0  0  0  0  0  0  0  0  0  0  0  0
    3.9210   -0.5250   -0.2660 C   0  0  0  0  0  0  0  0  0  0  0  0
    5.1150    0.1900    0.3360 C   0  0  0  0  0  0  0  0  0  0  0  0
    4.7330    1.9380    0.5060 Cl  0  0  0  0  0  0  0  0  0  0  0  0
   -1.2100    2.2970   -0.7520 C   0  0  0  0  0  0  0  0  0  0  0  0
   -2.4030    2.6420   -0.3430 C   0  0  0  0  0  0  0  0  0  0  0  0
   -3.5820    1.4340    0.1380 S   0  0  0  0  0  0  0  0  0  0  0  0
  2  1  1  6
  2  3  1  0
  2  6  1  0
  2 17  1  0
  3  4  1  0
  3  5  2  0
  6  7  2  0
  7  8  1  0
  7 15  1  0
  8  9  1  0
  9 10  1  0
 10 11  1  0
 11 12  1  0
 12 13  1  0
 13 14  1  0
 15 16  2  0
 16 17  1  0
M  END
