
     RDKit          3D

 25 28  0  0  0  0  0  0  0  0999 V2000
   -4.1110   -0.2450    2.2310 Br  0  0  0  0  0  0  0  0  0  0  0  0
   -3.1590   -1.5440    1.1250 C   0  0  0  0  0  0  0  0  0  0  0  0
   -3.5800   -1.2850   -0.2760 C   0  0  0  0  0  0  0  0  0  0  0  0
   -5.4420   -1.4550   -0.6550 Br  0  0  0  0  0  0  0  0  0  0  0  0
   -2.7080   -0.9500   -1.2220 C   0  0  0  0  0  0  0  0  0  0  0  0
   -3.1930   -0.7190   -2.5380 N   0  0  0  0  0  0  0  0  0  0  0  0
   -4.6540   -1.7470   -3.2060 Br  0  0  0  0  0  0  0  0  0  0  0  0
   -1.3190   -0.8180   -0.9610 N   0  0  0  0  0  0  0  0  0  0  0  0
   -0.7360    0.4100   -0.6010 C   0  0  0  0  0  0  0  0  0  0  0  0
   -1.4260    1.5770   -0.4680 N   0  0  0  0  0  0  0  0  0  0  0  0
   -0.5660    2.5540   -0.1150 C   0  0  0  0  0  0  0  0  0  0  0  0
   -0.7310    3.8990    0.1440 C   0  0  0  0  0  0  0  0  0  0  0  0
    0.3700    4.6480    0.4890 C   0  0  0  0  0  0  0  0  0  0  0  0
    0.2570    6.5240    0.8700 Br  0  0  0  0  0  0  0  0  0  0  0  0
    1.6100    4.0440    0.5680 C   0  0  0  0  0  0  0  0  0  0  0  0
    1.7830    2.7000    0.3100 C   0  0  0  0  0  0  0  0  0  0  0  0
    0.6700    1.9440   -0.0380 C   0  0  0  0  0  0  0  0  0  0  0  0
    0.5610    0.6360   -0.3350 N   0  0  0  0  0  0  0  0  0  0  0  0
    1.6030   -0.3710   -0.3750 C   0  0  0  0  0  0  0  0  0  0  0  0
    1.7840   -1.0520    0.9580 C   0  0  0  0  0  0  0  0  0  0  0  0
    2.8420   -2.0320    0.8040 N   0  0  0  0  0  0  0  0  0  0  0  0
    2.6600   -3.3330    0.4300 C   0  0  0  0  0  0  0  0  0  0  0  0
    3.8860   -3.9550    0.3930 C   0  0  0  0  0  0  0  0  0  0  0  0
    4.7900   -3.0320    0.7410 N   0  0  0  0  0  0  0  0  0  0  0  0
    4.1500   -1.8920    0.9830 N   0  0  0  0  0  0  0  0  0  0  0  0
  1  2  1  0
  2  3  1  0
  3  4  1  0
  3  5  2  0
  5  6  1  0
  5  8  1  0
  6  7  1  0
  8  9  1  0
  9 10  2  0
  9 18  1  0
 10 11  1  0
 11 12  2  0
 11 17  1  0
 12 13  1  0
 13 14  1  0
 13 15  2  0
 15 16  1  0
 16 17  2  0
 17 18  1  0
 18 19  1  0
 19 20  1  0
 20 21  1  0
 21 22  1  0
 21 25  1  0
 22 23  2  0
 23 24  1  0
 24 25  2  0
  7  4  1  0
M  CHG  1  10   1
M  END
