
     RDKit          3D

 25 26  0  0  0  0  0  0  0  0999 V2000
   -1.7030    2.1700   -2.5550 C   0  0  0  0  0  0  0  0  0  0  0  0
   -0.3040    1.8830   -2.1440 C   0  0  0  0  0  0  0  0  0  0  0  0
   -0.2290    1.1340   -0.8710 N   0  0  0  0  0  0  0  0  0  0  0  0
    1.0720    0.8240   -0.4420 C   0  0  0  0  0  0  0  0  0  0  0  0
    1.2750   -0.1710    0.5650 N   0  0  0  0  0  0  0  0  0  0  0  0
    2.6000   -0.4530    0.9810 C   0  0  0  0  0  0  0  0  0  0  0  0
    2.9920    0.0860    2.2760 C   0  0  0  0  0  0  0  0  0  0  0  0
    2.2630    0.7810    3.0900 C   0  0  0  0  0  0  0  0  0  0  0  0
    0.4600    1.2620    2.7560 Br  0  0  0  0  0  0  0  0  0  0  0  0
    3.0370    1.3770    4.7500 Br  0  0  0  0  0  0  0  0  0  0  0  0
    3.4820   -1.1490    0.3020 C   0  0  0  0  0  0  0  0  0  0  0  0
    4.8440   -1.3040    0.9740 C   0  0  0  0  0  0  0  0  0  0  0  0
    3.3830   -1.8080   -0.9910 C   0  0  2  0  0  0  0  0  0  0  0  0
    4.3500   -0.7380   -2.3080 Br  0  0  0  0  0  0  0  0  0  0  0  0
    1.6700   -2.3600   -1.5810 Br  0  0  0  0  0  0  0  0  0  0  0  0
   -1.4340    0.8840   -0.2420 C   0  0  0  0  0  0  0  0  0  0  0  0
   -2.0410    2.1120    0.4470 C   0  0  0  0  0  0  0  0  0  0  0  0
   -2.1470   -0.2110   -0.1600 C   0  0  0  0  0  0  0  0  0  0  0  0
   -1.8870   -1.5490   -0.7210 C   0  0  0  0  0  0  0  0  0  0  0  0
   -3.0580   -2.3270   -0.3960 N   0  0  0  0  0  0  0  0  0  0  0  0
   -3.8820   -1.6640    0.2980 C   0  0  0  0  0  0  0  0  0  0  0  0
   -5.1580   -1.7040    0.9670 N   0  0  0  0  0  0  0  0  0  0  0  0
   -5.3530   -0.4410    1.5080 N   0  0  0  0  0  0  0  0  0  0  0  0
   -4.3820    0.3220    1.2520 N   0  0  0  0  0  0  0  0  0  0  0  0
   -3.4050   -0.3550    0.4930 N   0  0  0  0  0  0  0  0  0  0  0  0
  1  2  1  0
  2  3  1  0
  3  4  1  0
  3 16  1  0
  4  5  1  0
  5  6  1  0
  6  7  1  0
  6 11  2  3
  7  8  2  3
  8  9  1  0
  8 10  1  0
 11 12  1  0
 11 13  1  0
 13 14  1  6
 13 15  1  0
 16 17  1  0
 16 18  2  3
 18 19  1  0
 18 25  1  0
 19 20  1  0
 20 21  2  0
 21 22  1  0
 21 25  1  0
 22 23  1  0
 23 24  2  0
 24 25  1  0
M  CHG  1  20   1
M  END
