
     RDKit          3D

 25 27  0  0  0  0  0  0  0  0999 V2000
   -5.6150    1.1950    0.5450 C   0  0  0  0  0  0  0  0  0  0  0  0
   -4.4090    1.1720   -0.3150 C   0  0  0  0  0  0  0  0  0  0  0  0
   -4.2830    1.5760   -1.6030 N   0  0  0  0  0  0  0  0  0  0  0  0
   -3.0420    1.3950   -2.0250 N   0  0  0  0  0  0  0  0  0  0  0  0
   -2.2860    0.8660   -1.0470 C   0  0  0  0  0  0  0  0  0  0  0  0
   -0.9940    0.4970   -0.9550 N   0  0  0  0  0  0  0  0  0  0  0  0
   -0.5050   -0.0110    0.1670 C   0  0  0  0  0  0  0  0  0  0  0  0
    0.9240   -0.4130    0.2430 C   0  0  2  0  0  0  0  0  0  0  0  0
    1.8430    0.5190   -0.5130 C   0  0  0  0  0  0  0  0  0  0  0  0
    3.2870    0.0770   -0.4020 C   0  0  0  0  0  0  0  0  0  0  0  0
    4.1080    1.0060   -1.1460 N   0  0  0  0  0  0  0  0  0  0  0  0
    4.9680    1.7990   -0.2890 C   0  0  1  0  0  0  0  0  0  0  0  0
    3.9250    2.5730    1.1210 Br  0  0  0  0  0  0  0  0  0  0  0  0
    6.3150    0.6010    0.4250 Br  0  0  0  0  0  0  0  0  0  0  0  0
    1.1400   -1.8000   -0.0300 N   0  0  0  0  0  0  0  0  0  0  0  0
    1.3140   -2.4300   -1.2030 C   0  0  0  0  0  0  0  0  0  0  0  0
    1.3230   -1.6290   -2.9290 Br  0  0  0  0  0  0  0  0  0  0  0  0
    1.4920   -3.7860   -1.0030 C   0  0  0  0  0  0  0  0  0  0  0  0
    1.4240   -3.9820    0.3270 N   0  0  0  0  0  0  0  0  0  0  0  0
    1.2170   -2.8060    0.8930 C   0  0  0  0  0  0  0  0  0  0  0  0
    1.0440   -2.5390    2.7770 Br  0  0  0  0  0  0  0  0  0  0  0  0
   -1.3320   -0.1570    1.2360 N   0  0  0  0  0  0  0  0  0  0  0  0
   -2.6270    0.1810    1.2340 C   0  0  0  0  0  0  0  0  0  0  0  0
   -3.5170    0.0170    2.4060 C   0  0  0  0  0  0  0  0  0  0  0  0
   -3.1850    0.7160    0.0890 C   0  0  0  0  0  0  0  0  0  0  0  0
  1  2  1  0
  2  3  2  0
  2 25  1  0
  3  4  1  0
  4  5  2  0
  5  6  1  0
  5 25  1  0
  6  7  1  0
  7  8  1  0
  7 22  2  0
  8  9  1  6
  8 15  1  0
  9 10  1  0
 10 11  1  0
 11 12  1  0
 12 13  1  1
 12 14  1  0
 15 16  1  0
 15 20  1  0
 16 17  1  0
 16 18  2  0
 18 19  1  0
 19 20  2  0
 20 21  1  0
 22 23  1  0
 23 24  1  0
 23 25  2  0
M  CHG  1  11   1
M  END
