
     RDKit          3D

 25 27  0  0  0  0  0  0  0  0999 V2000
    7.8160    2.0380    0.6920 Br  0  0  0  0  0  0  0  0  0  0  0  0
    5.9500    2.4560    0.4610 C   0  0  0  0  0  0  0  0  0  0  0  0
    5.1700    1.2010    0.7610 C   0  0  0  0  0  0  0  0  0  0  0  0
    4.6880    0.8100    1.9410 N   0  0  0  0  0  0  0  0  0  0  0  0
    4.0740   -0.3420    1.7530 N   0  0  0  0  0  0  0  0  0  0  0  0
    4.1430   -0.7170    0.4670 C   0  0  0  0  0  0  0  0  0  0  0  0
    3.5670   -1.9530   -0.1140 C   0  0  0  0  0  0  0  0  0  0  0  0
    2.2190   -1.7110   -0.5620 N   0  0  0  0  0  0  0  0  0  0  0  0
    1.8380   -1.3030   -1.7550 N   0  0  0  0  0  0  0  0  0  0  0  0
    0.4990   -1.1870   -1.8090 C   0  0  0  0  0  0  0  0  0  0  0  0
    0.0450   -1.5500   -0.5660 C   0  0  0  0  0  0  0  0  0  0  0  0
   -1.3400   -1.6180   -0.0410 C   0  0  0  0  0  0  0  0  0  0  0  0
   -2.3160   -1.3400   -1.0700 N   0  0  0  0  0  0  0  0  0  0  0  0
   -2.5570    0.0560   -1.2670 C   0  0  0  0  0  0  0  0  0  0  0  0
   -3.4680    0.5750   -0.2200 C   0  0  0  0  0  0  0  0  0  0  0  0
   -4.0100   -0.1670    0.7970 C   0  0  0  0  0  0  0  0  0  0  0  0
   -4.8590    0.3770    1.7500 C   0  0  0  0  0  0  0  0  0  0  0  0
   -5.5710   -0.7190    3.1310 Br  0  0  0  0  0  0  0  0  0  0  0  0
   -5.2040    1.7060    1.7190 C   0  0  0  0  0  0  0  0  0  0  0  0
   -6.3670    2.4930    3.0090 Br  0  0  0  0  0  0  0  0  0  0  0  0
   -4.6670    2.4600    0.7050 C   0  0  0  0  0  0  0  0  0  0  0  0
   -3.8270    1.9320   -0.2420 C   0  0  0  0  0  0  0  0  0  0  0  0
   -3.1020    3.0290   -1.6420 Br  0  0  0  0  0  0  0  0  0  0  0  0
    1.1370   -1.8640    0.1660 N   0  0  0  0  0  0  0  0  0  0  0  0
    4.8320    0.2610   -0.1380 N   0  0  0  0  0  0  0  0  0  0  0  0
  1  2  1  0
  2  3  1  0
  3  4  2  0
  3 25  1  0
  4  5  1  0
  5  6  1  0
  6  7  1  0
  6 25  2  0
  7  8  1  0
  8  9  1  0
  8 24  1  0
  9 10  2  0
 10 11  1  0
 11 12  1  0
 11 24  2  0
 12 13  1  0
 13 14  1  0
 14 15  1  0
 15 16  2  0
 15 22  1  0
 16 17  1  0
 17 18  1  0
 17 19  2  0
 19 20  1  0
 19 21  1  0
 21 22  2  0
 22 23  1  0
M  CHG  1  13   1
M  END
