
     RDKit          3D

 25 26  0  0  0  0  0  0  0  0999 V2000
   -5.9070    0.6110   -1.8080 C   0  0  0  0  0  0  0  0  0  0  0  0
   -4.6960    0.0050   -1.6000 N   0  0  0  0  0  0  0  0  0  0  0  0
   -3.8110   -0.0250   -0.7370 C   0  0  0  0  0  0  0  0  0  0  0  0
   -2.6120   -0.8850   -0.9770 C   0  0  0  0  0  0  0  0  0  0  0  0
   -1.6070   -0.9690   -0.0990 C   0  0  0  0  0  0  0  0  0  0  0  0
   -0.5400   -1.8490   -0.4910 N   0  0  0  0  0  0  0  0  0  0  0  0
   -0.8310   -2.9470   -1.2580 N   0  0  0  0  0  0  0  0  0  0  0  0
    0.2360   -3.5800   -1.6060 N   0  0  0  0  0  0  0  0  0  0  0  0
    1.2320   -2.9370   -1.0960 N   0  0  0  0  0  0  0  0  0  0  0  0
    0.7640   -1.8470   -0.3960 C   0  0  0  0  0  0  0  0  0  0  0  0
    1.6540   -0.8500    0.2230 C   0  0  0  0  0  0  0  0  0  0  0  0
    2.9090   -0.7600   -0.6120 N   0  0  0  0  0  0  0  0  0  0  0  0
    3.8530    0.2310   -0.2540 C   0  0  0  0  0  0  0  0  0  0  0  0
    5.1050   -0.0940    0.3470 C   0  0  0  0  0  0  0  0  0  0  0  0
    5.5030   -1.3070    0.6190 C   0  0  0  0  0  0  0  0  0  0  0  0
    7.2330   -1.6210    1.4390 Br  0  0  0  0  0  0  0  0  0  0  0  0
    4.4090   -2.8000    0.2230 Br  0  0  0  0  0  0  0  0  0  0  0  0
    3.5150    1.4800   -0.5020 C   0  0  0  0  0  0  0  0  0  0  0  0
    4.3100    2.6900   -0.2280 C   0  0  0  0  0  0  0  0  0  0  0  0
    3.2940    3.8160    0.9970 Br  0  0  0  0  0  0  0  0  0  0  0  0
   -1.7140   -0.2130    1.1110 C   0  0  0  0  0  0  0  0  0  0  0  0
   -0.4080   -0.4440    2.5080 Br  0  0  0  0  0  0  0  0  0  0  0  0
   -2.7380    0.5750    1.4120 C   0  0  0  0  0  0  0  0  0  0  0  0
   -3.8770    0.7330    0.4990 C   0  0  0  0  0  0  0  0  0  0  0  0
   -4.8270    1.5080    0.8450 N   0  0  0  0  0  0  0  0  0  0  0  0
  1  2  1  0
  2  3  2  3
  3  4  1  0
  3 24  1  0
  4  5  2  0
  5  6  1  0
  5 21  1  0
  6  7  1  0
  6 10  1  0
  7  8  2  0
  8  9  1  0
  9 10  2  0
 10 11  1  0
 11 12  1  0
 12 13  1  0
 13 14  1  0
 13 18  2  3
 14 15  2  3
 15 16  1  0
 15 17  1  0
 18 19  1  0
 19 20  1  0
 21 22  1  0
 21 23  2  0
 23 24  1  0
 24 25  2  0
M  CHG  1  25   1
M  END
