
     RDKit          3D

 25 27  0  0  0  0  0  0  0  0999 V2000
    3.3920    1.5590    0.5330 C   0  0  0  0  0  0  0  0  0  0  0  0
    1.9520    1.3500    0.7620 C   0  0  0  0  0  0  0  0  0  0  0  0
    1.1430    2.3490    1.2040 N   0  0  0  0  0  0  0  0  0  0  0  0
   -0.1120    1.8610    1.3400 N   0  0  0  0  0  0  0  0  0  0  0  0
   -1.1470    2.7580    1.8000 C   0  0  0  0  0  0  0  0  0  0  0  0
   -1.9390    3.7040    0.3380 Br  0  0  0  0  0  0  0  0  0  0  0  0
   -0.1010    0.5800    0.9890 C   0  0  0  0  0  0  0  0  0  0  0  0
   -1.2360   -0.3790    0.9540 C   0  0  0  0  0  0  0  0  0  0  0  0
   -1.8360   -0.6000   -0.3160 N   0  0  0  0  0  0  0  0  0  0  0  0
   -1.3500   -1.3170   -1.3450 C   0  0  0  0  0  0  0  0  0  0  0  0
   -2.1770   -1.2220   -2.4270 N   0  0  0  0  0  0  0  0  0  0  0  0
   -3.1950   -0.4330   -2.0670 C   0  0  0  0  0  0  0  0  0  0  0  0
   -4.6480    0.1170   -3.2050 Br  0  0  0  0  0  0  0  0  0  0  0  0
   -3.0020   -0.0480   -0.7750 C   0  0  0  0  0  0  0  0  0  0  0  0
   -3.9600    0.7560    0.0430 C   0  0  0  0  0  0  0  0  0  0  0  0
   -5.0290   -0.1170    0.6200 C   0  0  0  0  0  0  0  0  0  0  0  0
   -6.0500   -1.0150   -0.7170 Br  0  0  0  0  0  0  0  0  0  0  0  0
    1.2230    0.2250    0.6120 C   0  0  0  0  0  0  0  0  0  0  0  0
    1.5900   -1.0410    0.1940 N   0  0  0  0  0  0  0  0  0  0  0  0
    2.8320   -1.3190   -0.4410 C   0  0  0  0  0  0  0  0  0  0  0  0
    3.3370   -0.6200   -1.4000 N   0  0  0  0  0  0  0  0  0  0  0  0
    4.5820   -1.1230   -1.8460 C   0  0  0  0  0  0  0  0  0  0  0  0
    4.8450   -2.1650   -1.1390 N   0  0  0  0  0  0  0  0  0  0  0  0
    3.7930   -2.4150   -0.1860 C   0  0  1  0  0  0  0  0  0  0  0  0
    4.4370   -2.4890    1.6200 Br  0  0  0  0  0  0  0  0  0  0  0  0
  1  2  1  0
  2  3  2  0
  2 18  1  0
  3  4  1  0
  4  5  1  0
  4  7  1  0
  5  6  1  0
  7  8  1  0
  7 18  2  0
  8  9  1  0
  9 10  1  0
  9 14  1  0
 10 11  2  0
 11 12  1  0
 12 13  1  0
 12 14  2  0
 14 15  1  0
 15 16  1  0
 16 17  1  0
 18 19  1  0
 19 20  1  0
 20 21  2  0
 20 24  1  0
 21 22  1  0
 22 23  2  0
 23 24  1  0
 24 25  1  1
M  CHG  1  23   1
M  END
