
     RDKit          3D

 18 19  0  0  0  0  0  0  0  0999 V2000
   -4.5150    1.8470   -1.7600 O   0  0  0  0  0  0  0  0  0  0  0  0
   -4.8530    0.9010   -1.0050 C   0  0  0  0  0  0  0  0  0  0  0  0
   -6.2100    0.6450   -0.8690 O   0  0  0  0  0  0  0  0  0  0  0  0
   -3.8440    0.1050   -0.3010 C   0  0  0  0  0  0  0  0  0  0  0  0
   -4.1680   -0.9350    0.5310 C   0  0  0  0  0  0  0  0  0  0  0  0
   -3.1980   -1.6690    1.1820 C   0  0  0  0  0  0  0  0  0  0  0  0
   -1.8580   -1.3250    0.9730 C   0  0  0  0  0  0  0  0  0  0  0  0
   -1.4890   -0.2890    0.1470 C   0  0  0  0  0  0  0  0  0  0  0  0
   -0.0990    0.0810   -0.0810 C   0  0  0  0  0  0  0  0  0  0  0  0
    0.9250   -0.5050    0.4530 C   0  0  0  0  0  0  0  0  0  0  0  0
    2.3160   -0.1340    0.2250 C   0  0  0  0  0  0  0  0  0  0  0  0
    3.3300   -0.8500    0.8630 C   0  0  0  0  0  0  0  0  0  0  0  0
    4.6590   -0.5450    0.6860 C   0  0  0  0  0  0  0  0  0  0  0  0
    5.0210    0.4940   -0.1440 C   0  0  0  0  0  0  0  0  0  0  0  0
    6.3560    0.8020   -0.3230 O   0  0  0  0  0  0  0  0  0  0  0  0
    4.0260    1.2040   -0.7770 C   0  0  0  0  0  0  0  0  0  0  0  0
    2.6700    0.9020   -0.6020 C   0  0  0  0  0  0  0  0  0  0  0  0
   -2.5160    0.4050   -0.4750 C   0  0  0  0  0  0  0  0  0  0  0  0
  1  2  2  0
  2  3  1  0
  2  4  1  0
  4  5  2  0
  4 18  1  0
  5  6  1  0
  6  7  2  0
  7  8  1  0
  8  9  1  0
  8 18  2  0
  9 10  2  3
 10 11  1  0
 11 12  2  0
 11 17  1  0
 12 13  1  0
 13 14  2  0
 14 15  1  0
 14 16  1  0
 16 17  2  0
M  END
