
     RDKit          3D

  9  9  0  0  0  0  0  0  0  0999 V2000
   -2.3660   -1.5090    0.4470 C   0  0  0  0  0  0  0  0  0  0  0  0
   -1.2830   -0.7500    0.2590 C   0  0  0  0  0  0  0  0  0  0  0  0
   -1.3010    0.6470    0.6690 C   0  0  0  0  0  0  0  0  0  0  0  0
   -0.2180    1.3800    0.4750 C   0  0  0  0  0  0  0  0  0  0  0  0
   -0.1980    2.7450    0.8610 N   0  0  0  0  0  0  0  0  0  0  0  0
    0.9530    0.7710   -0.1400 C   0  0  0  0  0  0  0  0  0  0  0  0
    1.0020   -0.4980   -0.5240 C   0  0  0  0  0  0  0  0  0  0  0  0
    2.2570   -1.0420   -1.1510 C   0  0  0  0  0  0  0  0  0  0  0  0
   -0.1430   -1.3190   -0.3320 N   0  0  0  0  0  0  0  0  0  0  0  0
  1  2  2  0
  2  3  1  0
  2  9  1  0
  3  4  2  0
  4  5  1  0
  4  6  1  0
  6  7  2  0
  7  8  1  0
  7  9  1  0
M  END
