
     RDKit          3D

 25 27  0  0  0  0  0  0  0  0999 V2000
    2.4940   -3.4630    2.7090 C   0  0  0  0  0  0  0  0  0  0  0  0
    2.1570   -1.9590    1.7300 S   0  0  0  0  0  0  0  0  0  0  0  0
    1.8610   -2.3740    0.0290 C   0  0  0  0  0  0  0  0  0  0  0  0
    1.8660   -3.5920   -0.5370 N   0  0  0  0  0  0  0  0  0  0  0  0
    1.6050   -3.5070   -1.8240 N   0  0  0  0  0  0  0  0  0  0  0  0
    1.4260   -2.2060   -2.1060 C   0  0  0  0  0  0  0  0  0  0  0  0
    1.1200   -1.6190   -3.3810 N   0  0  0  0  0  0  0  0  0  0  0  0
    1.5800   -1.4550   -0.9580 C   0  0  0  0  0  0  0  0  0  0  0  0
    1.4980   -0.0160   -0.7490 C   0  0  0  0  0  0  0  0  0  0  0  0
    2.6660    0.7760   -0.8040 C   0  0  0  0  0  0  0  0  0  0  0  0
    2.2860    1.9890   -0.5540 N   0  0  0  0  0  0  0  0  0  0  0  0
    0.9540    2.0720   -0.3350 N   0  0  0  0  0  0  0  0  0  0  0  0
    0.3330    3.3210   -0.0030 C   0  0  0  0  0  0  0  0  0  0  0  0
   -0.1780    3.5980    1.2500 C   0  0  0  0  0  0  0  0  0  0  0  0
   -0.7500    4.8100    1.5790 C   0  0  0  0  0  0  0  0  0  0  0  0
   -0.8290    5.8110    0.6310 C   0  0  0  0  0  0  0  0  0  0  0  0
   -0.3160    5.5230   -0.6160 C   0  0  0  0  0  0  0  0  0  0  0  0
    0.2380    4.3350   -0.9150 N   0  0  0  0  0  0  0  0  0  0  0  0
    0.4670    0.8370   -0.4570 C   0  0  0  0  0  0  0  0  0  0  0  0
   -0.9350    0.4710   -0.2810 C   0  0  0  0  0  0  0  0  0  0  0  0
   -2.0130    1.5260   -0.2800 C   0  0  0  0  0  0  0  0  0  0  0  0
   -1.3750   -0.7600   -0.2070 C   0  0  0  0  0  0  0  0  0  0  0  0
   -2.8320   -1.1140   -0.0160 C   0  0  0  0  0  0  0  0  0  0  0  0
   -2.9820   -2.1350    1.5040 S   0  0  0  0  0  0  0  0  0  0  0  0
   -2.1840   -3.6880    1.2960 N   0  0  0  0  0  0  0  0  0  0  0  0
  1  2  1  0
  2  3  1  0
  3  4  2  0
  3  8  1  0
  4  5  1  0
  5  6  1  0
  6  7  1  0
  6  8  2  0
  8  9  1  0
  9 10  1  0
  9 19  2  0
 10 11  2  0
 11 12  1  0
 12 13  1  0
 12 19  1  0
 13 14  2  0
 13 18  1  0
 14 15  1  0
 15 16  2  0
 16 17  1  0
 17 18  2  0
 19 20  1  0
 20 21  1  0
 20 22  2  3
 22 23  1  0
 23 24  1  0
 24 25  1  0
M  CHG  1  25   1
M  END
