
     RDKit          3D

  9  9  0  0  0  0  0  0  0  0999 V2000
    3.4270   -0.5540   -0.7960 N   0  0  0  0  0  0  0  0  0  0  0  0
    3.0320   -0.1880    0.5040 C   0  0  0  0  0  0  0  0  0  0  0  0
    1.7600   -0.0130    0.7720 C   0  0  0  0  0  0  0  0  0  0  0  0
    0.7780   -0.2010   -0.2830 C   0  0  0  0  0  0  0  0  0  0  0  0
   -0.5090   -0.0510   -0.1160 C   0  0  0  0  0  0  0  0  0  0  0  0
   -1.5480   -0.2270   -1.1390 C   0  0  0  0  0  0  0  0  0  0  0  0
   -2.6060    0.7540   -0.6710 C   0  0  0  0  0  0  0  0  0  0  0  0
   -2.6050    0.4940    0.7750 N   0  0  0  0  0  0  0  0  0  0  0  0
   -1.2050    0.3260    1.1270 C   0  0  0  0  0  0  0  0  0  0  0  0
  1  2  1  0
  2  3  2  3
  3  4  1  0
  4  5  2  3
  5  6  1  0
  5  9  1  0
  6  7  1  0
  7  8  1  0
  8  9  1  0
M  END
