
     RDKit          3D

  9  9  0  0  0  0  0  0  0  0999 V2000
    3.1170    0.1840   -0.2310 N   0  0  0  0  0  0  0  0  0  0  0  0
    2.0940   -0.7480    0.1070 C   0  0  0  0  0  0  0  0  0  0  0  0
    0.8190   -0.4000    0.0160 C   0  0  0  0  0  0  0  0  0  0  0  0
    0.5410    0.9610   -0.4410 C   0  0  0  0  0  0  0  0  0  0  0  0
   -0.7470    1.5250    0.1020 C   0  0  0  0  0  0  0  0  0  0  0  0
   -1.9580    0.7590   -0.3030 C   0  0  0  0  0  0  0  0  0  0  0  0
   -2.2180   -0.4110    0.6180 C   0  0  0  0  0  0  0  0  0  0  0  0
   -1.4590   -1.6000    0.0220 C   0  0  0  0  0  0  0  0  0  0  0  0
   -0.0780   -1.4260    0.3840 N   0  0  0  0  0  0  0  0  0  0  0  0
  1  2  1  0
  2  3  2  3
  3  4  1  0
  3  9  1  0
  4  5  1  0
  5  6  1  0
  6  7  1  0
  7  8  1  0
  8  9  1  0
M  CHG  1   1   1
M  END
