
     RDKit          3D

  9  9  0  0  0  0  0  0  0  0999 V2000
    2.9560   -0.7720   -0.2790 C   0  0  0  0  0  0  0  0  0  0  0  0
    1.5660   -0.2270   -0.1170 C   0  0  0  0  0  0  0  0  0  0  0  0
    0.5070   -1.0140   -0.2060 C   0  0  0  0  0  0  0  0  0  0  0  0
   -0.8610   -0.5320   -0.0560 C   0  0  0  0  0  0  0  0  0  0  0  0
   -2.0000   -1.4860   -0.1710 C   0  0  0  0  0  0  0  0  0  0  0  0
   -1.0290    0.7620    0.1800 C   0  0  0  0  0  0  0  0  0  0  0  0
   -2.3930    1.2100    0.3230 N   0  0  0  0  0  0  0  0  0  0  0  0
    0.0490    1.7440    0.3020 C   0  0  0  0  0  0  0  0  0  0  0  0
    1.3470    1.1520    0.1370 N   0  0  0  0  0  0  0  0  0  0  0  0
  1  2  1  0
  2  3  2  0
  2  9  1  0
  3  4  1  0
  4  5  1  0
  4  6  2  0
  6  7  1  0
  6  8  1  0
  8  9  1  0
M  END
