
     RDKit          3D

 24 27  0  0  0  0  0  0  0  0999 V2000
   -3.7070    3.0350    0.4360 N   0  0  0  0  0  0  0  0  0  0  0  0
   -4.6750    2.2530   -0.2470 C   0  0  0  0  0  0  0  0  0  0  0  0
   -6.1730    2.8140   -0.5410 S   0  0  0  0  0  0  0  0  0  0  0  0
   -4.3200    0.9610   -0.6770 N   0  0  0  0  0  0  0  0  0  0  0  0
   -3.0520    0.4030   -0.4630 N   0  0  0  0  0  0  0  0  0  0  0  0
   -2.9280   -0.9720   -0.1700 C   0  0  0  0  0  0  0  0  0  0  0  0
   -4.0670   -1.7240   -0.1030 N   0  0  0  0  0  0  0  0  0  0  0  0
   -4.0590   -3.0290    0.1660 C   0  0  0  0  0  0  0  0  0  0  0  0
   -2.8570   -3.6550    0.3890 C   0  0  0  0  0  0  0  0  0  0  0  0
   -1.6900   -2.9370    0.3310 C   0  0  0  0  0  0  0  0  0  0  0  0
   -1.7210   -1.5890    0.0510 C   0  0  0  0  0  0  0  0  0  0  0  0
   -0.5360   -0.8110   -0.0180 N   0  0  0  0  0  0  0  0  0  0  0  0
    0.7260   -1.5360    0.2290 C   0  0  0  0  0  0  0  0  0  0  0  0
    1.8860   -0.6130    0.1280 C   0  0  0  0  0  0  0  0  0  0  0  0
    2.6960   -0.4220    1.1580 C   0  0  0  0  0  0  0  0  0  0  0  0
    3.8170    0.5010    0.9840 C   0  0  0  0  0  0  0  0  0  0  0  0
    4.8630    0.9600    1.8000 C   0  0  0  0  0  0  0  0  0  0  0  0
    5.6460    1.8420    1.1030 N   0  0  0  0  0  0  0  0  0  0  0  0
    5.0000    1.8810   -0.1820 C   0  0  0  0  0  0  0  0  0  0  0  0
    5.0880    2.6170   -1.8070 S   0  0  0  0  0  0  0  0  0  0  0  0
    3.5680    1.6860   -2.3520 C   0  0  0  0  0  0  0  0  0  0  0  0
    3.2260    0.9860   -1.2830 C   0  0  0  0  0  0  0  0  0  0  0  0
    2.1130    0.0690   -1.1120 N   0  0  0  0  0  0  0  0  0  0  0  0
    4.0210    1.1480   -0.2100 C   0  0  0  0  0  0  0  0  0  0  0  0
  1  2  1  0
  2  3  2  0
  2  4  1  0
  4  5  1  0
  5  6  1  0
  6  7  2  0
  6 11  1  0
  7  8  1  0
  8  9  2  0
  9 10  1  0
 10 11  2  0
 11 12  1  0
 12 13  1  0
 13 14  1  0
 14 15  2  0
 14 23  1  0
 15 16  1  0
 16 17  2  0
 16 24  1  0
 17 18  1  0
 18 19  1  0
 19 20  1  0
 19 24  2  0
 20 21  1  0
 21 22  2  0
 22 23  1  0
 22 24  1  0
M  END
