
     RDKit          3D

  9 10  0  0  0  0  0  0  0  0999 V2000
    1.9540    0.3890    0.0060 C   0  0  0  0  0  0  0  0  0  0  0  0
    1.3490   -0.8520    0.0370 C   0  0  0  0  0  0  0  0  0  0  0  0
   -0.0130   -0.6890    0.0200 C   0  0  0  0  0  0  0  0  0  0  0  0
   -1.0630   -1.5910    0.0360 C   0  0  0  0  0  0  0  0  0  0  0  0
   -2.3190   -1.1170    0.0110 N   0  0  0  0  0  0  0  0  0  0  0  0
   -2.5250    0.1900   -0.0280 N   0  0  0  0  0  0  0  0  0  0  0  0
   -1.5410    1.0990   -0.0450 C   0  0  0  0  0  0  0  0  0  0  0  0
   -0.2180    0.6860   -0.0220 C   0  0  0  0  0  0  0  0  0  0  0  0
    0.9740    1.3120   -0.0290 N   0  0  0  0  0  0  0  0  0  0  0  0
  1  2  2  0
  1  9  1  0
  2  3  1  0
  3  4  2  0
  3  8  1  0
  4  5  1  0
  5  6  2  0
  6  7  1  0
  7  8  2  0
  8  9  1  0
M  END
