
     RDKit          3D

  9 10  0  0  0  0  0  0  0  0999 V2000
   -1.6540    0.5300   -0.1480 C   0  0  0  0  0  0  0  0  0  0  0  0
   -1.6640   -0.8490   -0.1310 C   0  0  0  0  0  0  0  0  0  0  0  0
   -0.4990   -1.5090   -0.0230 N   0  0  0  0  0  0  0  0  0  0  0  0
    0.6730   -0.8870    0.0690 C   0  0  0  0  0  0  0  0  0  0  0  0
    1.9660   -1.2650    0.1840 N   0  0  0  0  0  0  0  0  0  0  0  0
    2.7450   -0.1990    0.2370 N   0  0  0  0  0  0  0  0  0  0  0  0
    2.0270    0.9330    0.1610 C   0  0  0  0  0  0  0  0  0  0  0  0
    0.7030    0.5750    0.0530 C   0  0  0  0  0  0  0  0  0  0  0  0
   -0.4910    1.2620   -0.0580 C   0  0  0  0  0  0  0  0  0  0  0  0
  1  2  2  0
  1  9  1  0
  2  3  1  0
  3  4  1  0
  4  5  2  0
  4  8  1  0
  5  6  1  0
  6  7  2  0
  7  8  1  0
  8  9  2  0
M  END
