
     RDKit          3D

  9 10  0  0  0  0  0  0  0  0999 V2000
    2.3990   -0.1740   -0.0420 C   0  0  0  0  0  0  0  0  0  0  0  0
    1.4020    0.7780    0.0050 C   0  0  0  0  0  0  0  0  0  0  0  0
    0.0440    0.4520    0.0150 C   0  0  0  0  0  0  0  0  0  0  0  0
   -1.1260    1.1560    0.0560 C   0  0  0  0  0  0  0  0  0  0  0  0
   -2.1250    0.2570    0.0400 N   0  0  0  0  0  0  0  0  0  0  0  0
   -1.6460   -0.9990   -0.0090 C   0  0  0  0  0  0  0  0  0  0  0  0
   -0.2650   -0.8900   -0.0260 C   0  0  0  0  0  0  0  0  0  0  0  0
    0.7350   -1.8070   -0.0720 N   0  0  0  0  0  0  0  0  0  0  0  0
    2.0100   -1.4610   -0.0790 N   0  0  0  0  0  0  0  0  0  0  0  0
  1  2  2  0
  1  9  1  0
  2  3  1  0
  3  4  2  0
  3  7  1  0
  4  5  1  0
  5  6  1  0
  6  7  2  0
  7  8  1  0
  8  9  2  0
M  END
