
     RDKit          3D

  9 10  0  0  0  0  0  0  0  0999 V2000
    2.5570   -0.5790   -0.0670 C   0  0  0  0  0  0  0  0  0  0  0  0
    1.3670    0.2970   -0.0070 C   0  0  0  0  0  0  0  0  0  0  0  0
    1.3660    1.6260    0.1670 N   0  0  0  0  0  0  0  0  0  0  0  0
    0.1120    2.0380    0.1630 N   0  0  0  0  0  0  0  0  0  0  0  0
   -0.7120    0.9900   -0.0120 C   0  0  0  0  0  0  0  0  0  0  0  0
    0.0600   -0.1550   -0.1270 C   0  0  0  0  0  0  0  0  0  0  0  0
   -0.8110   -1.2710   -0.3130 N   0  0  0  0  0  0  0  0  0  0  0  0
   -2.0750   -0.8690    0.2890 C   0  0  0  0  0  0  0  0  0  0  0  0
   -2.1390    0.5910   -0.1300 C   0  0  0  0  0  0  0  0  0  0  0  0
  1  2  1  0
  2  3  1  0
  2  6  2  0
  3  4  1  0
  4  5  2  0
  5  6  1  0
  5  9  1  0
  6  7  1  0
  7  8  1  0
  8  9  1  0
M  END
