
     RDKit          3D

 19 20  0  0  0  0  0  0  0  0999 V2000
    3.7870    1.0440   -2.0870 O   0  0  0  0  0  0  0  0  0  0  0  0
    4.3740    0.4560   -1.1450 C   0  0  0  0  0  0  0  0  0  0  0  0
    5.7490    0.4080   -1.1870 O   0  0  0  0  0  0  0  0  0  0  0  0
    3.6130   -0.1510   -0.0520 C   0  0  0  0  0  0  0  0  0  0  0  0
    4.2260   -0.7990    0.9890 C   0  0  0  0  0  0  0  0  0  0  0  0
    3.4460   -1.3460    1.9820 C   0  0  0  0  0  0  0  0  0  0  0  0
    2.0780   -1.2720    1.9790 C   0  0  0  0  0  0  0  0  0  0  0  0
    1.4470   -0.6140    0.9250 C   0  0  0  0  0  0  0  0  0  0  0  0
   -0.0350   -0.5260    0.9070 C   0  0  0  0  0  0  0  0  0  0  0  0
   -0.7140    0.0580   -0.0180 C   0  0  0  0  0  0  0  0  0  0  0  0
   -2.1450    0.1890   -0.1130 C   0  0  0  0  0  0  0  0  0  0  0  0
   -2.6690    0.8830   -1.2380 C   0  0  0  0  0  0  0  0  0  0  0  0
   -4.0070    1.0700   -1.4360 C   0  0  0  0  0  0  0  0  0  0  0  0
   -4.9260    0.5850   -0.5350 C   0  0  0  0  0  0  0  0  0  0  0  0
   -6.2800    0.8040   -0.7830 O   0  0  0  0  0  0  0  0  0  0  0  0
   -4.4600   -0.0810    0.5500 C   0  0  0  0  0  0  0  0  0  0  0  0
   -3.0940   -0.2750    0.7560 C   0  0  0  0  0  0  0  0  0  0  0  0
   -2.5970   -1.1590    2.2040 Cl  0  0  0  0  0  0  0  0  0  0  0  0
    2.2330   -0.0740   -0.0580 C   0  0  0  0  0  0  0  0  0  0  0  0
  1  2  2  0
  2  3  1  0
  2  4  1  0
  4  5  2  0
  4 19  1  0
  5  6  1  0
  6  7  2  0
  7  8  1  0
  8  9  1  0
  8 19  2  0
  9 10  2  3
 10 11  1  0
 11 12  2  0
 11 17  1  0
 12 13  1  0
 13 14  2  0
 14 15  1  0
 14 16  1  0
 16 17  2  0
 17 18  1  0
M  END
