
     RDKit          3D

  9 10  0  0  0  0  0  0  0  0999 V2000
    2.7170   -0.0500   -0.0260 C   0  0  0  0  0  0  0  0  0  0  0  0
    1.8180    0.9130    0.0980 C   0  0  0  0  0  0  0  0  0  0  0  0
    0.7530   -0.0610   -0.1680 C   0  0  0  0  0  0  0  0  0  0  0  0
   -0.6980    0.0630   -0.2480 C   0  0  0  0  0  0  0  0  0  0  0  0
   -1.5880   -0.9590   -0.5110 C   0  0  0  0  0  0  0  0  0  0  0  0
   -2.8300   -0.3960   -0.4900 N   0  0  0  0  0  0  0  0  0  0  0  0
   -2.7250    0.8910   -0.2310 N   0  0  0  0  0  0  0  0  0  0  0  0
   -1.4460    1.1840   -0.0820 N   0  0  0  0  0  0  0  0  0  0  0  0
    1.6430   -1.0000   -0.2880 C   0  0  0  0  0  0  0  0  0  0  0  0
  1  2  2  0
  1  9  1  0
  2  3  1  0
  3  4  1  0
  3  9  2  0
  4  5  1  0
  4  8  2  0
  5  6  2  0
  6  7  1  0
  7  8  1  0
M  END
