
     RDKit          3D

  9 10  0  0  0  0  0  0  0  0999 V2000
    2.1690    0.6470   -0.0140 C   0  0  0  0  0  0  0  0  0  0  0  0
    2.1840   -0.7280   -0.0330 C   0  0  0  0  0  0  0  0  0  0  0  0
    0.9940   -1.3550   -0.0290 N   0  0  0  0  0  0  0  0  0  0  0  0
   -0.1760   -0.6640   -0.0070 C   0  0  0  0  0  0  0  0  0  0  0  0
   -1.4770   -1.0630    0.0010 N   0  0  0  0  0  0  0  0  0  0  0  0
   -2.2890    0.0060    0.0240 C   0  0  0  0  0  0  0  0  0  0  0  0
   -1.4900    1.1250    0.0310 C   0  0  0  0  0  0  0  0  0  0  0  0
   -0.1780    0.7150    0.0110 C   0  0  0  0  0  0  0  0  0  0  0  0
    1.0170    1.3420    0.0070 N   0  0  0  0  0  0  0  0  0  0  0  0
  1  2  2  0
  1  9  1  0
  2  3  1  0
  3  4  2  0
  4  5  1  0
  4  8  1  0
  5  6  1  0
  6  7  2  0
  7  8  1  0
  8  9  2  0
M  END
