
     RDKit          3D

 33 34  0  0  0  0  0  0  0  0999 V2000
   11.0650   -0.5880    0.3550 C   0  0  0  0  0  0  0  0  0  0  0  0
   10.9070    0.2050   -0.8830 C   0  0  0  0  0  0  0  0  0  0  0  0
   10.1200    1.2480   -1.0030 C   0  0  0  0  0  0  0  0  0  0  0  0
    9.3430    1.6950    0.0880 N   0  0  0  0  0  0  0  0  0  0  0  0
    8.1670    0.9680    0.5900 C   0  0  0  0  0  0  0  0  0  0  0  0
    7.0740    1.0100   -0.4400 C   0  0  0  0  0  0  0  0  0  0  0  0
    5.8800    0.2880    0.0680 C   0  0  0  0  0  0  0  0  0  0  0  0
    5.8770   -0.1620    1.2310 O   0  0  0  0  0  0  0  0  0  0  0  0
    4.7920    0.1490   -0.8110 N   0  0  0  0  0  0  0  0  0  0  0  0
    3.5880   -0.5270   -0.4110 N   0  0  0  0  0  0  0  0  0  0  0  0
    2.3640    0.0890   -0.5330 C   0  0  0  0  0  0  0  0  0  0  0  0
    2.4380    1.3050   -1.0260 O   0  0  0  0  0  0  0  0  0  0  0  0
    1.0390   -0.3930   -0.2120 C   0  0  0  0  0  0  0  0  0  0  0  0
    0.0330    0.6120   -0.5040 N   0  0  0  0  0  0  0  0  0  0  0  0
   -1.3230    0.5470   -0.3740 C   0  0  0  0  0  0  0  0  0  0  0  0
   -1.9010   -0.4590    0.0400 O   0  0  0  0  0  0  0  0  0  0  0  0
   -2.1660    1.6850   -0.7260 N   0  0  0  0  0  0  0  0  0  0  0  0
   -3.5710    1.5560   -0.5820 C   0  0  0  0  0  0  0  0  0  0  0  0
   -4.1920    0.4540   -0.1490 N   0  0  0  0  0  0  0  0  0  0  0  0
   -5.5590    0.3690   -0.0290 C   0  0  0  0  0  0  0  0  0  0  0  0
   -6.3010    1.4620   -0.3690 C   0  0  0  0  0  0  0  0  0  0  0  0
   -5.7000    2.6020   -0.8130 N   0  0  0  0  0  0  0  0  0  0  0  0
   -4.3670    2.6320   -0.9120 C   0  0  0  0  0  0  0  0  0  0  0  0
   -3.8520    3.7200   -1.3330 O   0  0  0  0  0  0  0  0  0  0  0  0
   -7.7750    1.4370   -0.2760 C   0  0  0  0  0  0  0  0  0  0  0  0
   -8.2240   -0.0210   -0.3740 C   0  0  0  0  0  0  0  0  0  0  0  0
   -7.5720   -0.7200    0.7110 N   0  0  1  0  0  0  0  0  0  0  0  0
   -8.2170   -2.0010    0.9660 C   0  0  0  0  0  0  0  0  0  0  0  0
   -9.7120   -1.9510    0.6440 C   0  0  0  0  0  0  0  0  0  0  0  0
   -6.1750   -0.8740    0.4500 C   0  0  0  0  0  0  0  0  0  0  0  0
    0.7630   -1.5560    0.2450 C   0  0  0  0  0  0  0  0  0  0  0  0
    1.7430   -2.6450    0.5360 C   0  0  0  0  0  0  0  0  0  0  0  0
   -0.5580   -1.9790    0.5490 O   0  0  0  0  0  0  0  0  0  0  0  0
  1  2  1  0
  2  3  2  3
  3  4  1  0
  4  5  1  0
  5  6  1  0
  6  7  1  0
  7  8  2  0
  7  9  1  0
  9 10  1  0
 10 11  1  0
 11 12  2  0
 11 13  1  0
 13 14  1  0
 13 31  2  3
 14 15  1  0
 15 16  2  0
 15 17  1  0
 17 18  1  0
 18 19  2  0
 18 23  1  0
 19 20  1  0
 20 21  2  0
 20 30  1  0
 21 22  1  0
 21 25  1  0
 22 23  1  0
 23 24  2  0
 25 26  1  0
 26 27  1  0
 27 28  1  6
 27 30  1  0
 28 29  1  0
 31 32  1  0
 31 33  1  0
M  CHG  1  27   1
M  END
