
     RDKit          3D

 33 35  0  0  0  0  0  0  0  0999 V2000
   -9.3560   -2.0020   -0.8010 N   0  0  0  0  0  0  0  0  0  0  0  0
   -8.9250   -1.1130    0.0180 C   0  0  0  0  0  0  0  0  0  0  0  0
   -9.5430    0.1060    0.0770 O   0  0  0  0  0  0  0  0  0  0  0  0
   -7.7680   -1.3920    0.8970 C   0  0  0  0  0  0  0  0  0  0  0  0
   -6.6640   -0.4890    0.6820 N   0  0  0  0  0  0  0  0  0  0  0  0
   -6.6770    0.1270   -0.6180 C   0  0  0  0  0  0  0  0  0  0  0  0
   -5.3250    0.1050   -1.2920 C   0  0  2  0  0  0  0  0  0  0  0  0
   -4.8030   -1.2920   -1.5000 C   0  0  0  0  0  0  0  0  0  0  0  0
   -3.5580   -1.4340   -0.6820 C   0  0  0  0  0  0  0  0  0  0  0  0
   -3.1420   -0.0790   -0.3990 N   0  0  0  0  0  0  0  0  0  0  0  0
   -1.7620    0.3020   -0.1820 C   0  0  0  0  0  0  0  0  0  0  0  0
   -0.8650   -0.5650   -0.2370 O   0  0  0  0  0  0  0  0  0  0  0  0
   -1.4030    1.6340    0.0910 N   0  0  0  0  0  0  0  0  0  0  0  0
   -0.1230    2.1520    0.3210 C   0  0  0  0  0  0  0  0  0  0  0  0
   -0.0100    3.5250    0.5560 C   0  0  0  0  0  0  0  0  0  0  0  0
    1.2070    4.1380    0.7950 C   0  0  0  0  0  0  0  0  0  0  0  0
    2.3550    3.3790    0.8050 C   0  0  0  0  0  0  0  0  0  0  0  0
    2.3040    2.0220    0.5800 C   0  0  0  0  0  0  0  0  0  0  0  0
    3.4970    1.1960    0.5840 C   0  0  0  0  0  0  0  0  0  0  0  0
    4.7800    1.6370    0.8030 C   0  0  0  0  0  0  0  0  0  0  0  0
    5.6110    0.5230    0.7180 C   0  0  0  0  0  0  0  0  0  0  0  0
    7.0080    0.5670    0.8860 N   0  0  0  0  0  0  0  0  0  0  0  0
    7.8010   -0.6000    0.7890 C   0  0  0  0  0  0  0  0  0  0  0  0
    7.2190   -1.6800    0.5480 O   0  0  0  0  0  0  0  0  0  0  0  0
    9.2260   -0.5840    0.9560 N   0  0  0  0  0  0  0  0  0  0  0  0
    9.9760   -1.8140    0.8430 C   0  0  0  0  0  0  0  0  0  0  0  0
    9.7940   -2.4160   -0.5040 C   0  0  0  0  0  0  0  0  0  0  0  0
   10.4090   -3.6190   -0.8930 N   0  0  0  0  0  0  0  0  0  0  0  0
    9.0640   -1.8310   -1.3280 O   0  0  0  0  0  0  0  0  0  0  0  0
    4.7950   -0.5050    0.4580 N   0  0  0  0  0  0  0  0  0  0  0  0
    3.5580   -0.0820    0.3840 O   0  0  0  0  0  0  0  0  0  0  0  0
    1.0560    1.4570    0.3450 C   0  0  0  0  0  0  0  0  0  0  0  0
   -4.3120    0.7520   -0.3800 C   0  0  0  0  0  0  0  0  0  0  0  0
  1  2  2  0
  2  3  1  0
  2  4  1  0
  4  5  1  0
  5  6  1  0
  7  6  1  1
  7  8  1  0
  7 33  1  0
  8  9  1  0
  9 10  1  0
 10 11  1  0
 10 33  1  0
 11 12  2  0
 11 13  1  0
 13 14  1  0
 14 15  2  0
 14 32  1  0
 15 16  1  0
 16 17  2  0
 17 18  1  0
 18 19  1  0
 18 32  2  0
 19 20  2  0
 19 31  1  0
 20 21  1  0
 21 22  1  0
 21 30  2  0
 22 23  1  0
 23 24  2  0
 23 25  1  0
 25 26  1  0
 26 27  1  0
 27 28  1  0
 27 29  2  0
 30 31  1  0
M  CHG  1   5   1
M  END
