
     RDKit          3D

 33 35  0  0  0  0  0  0  0  0999 V2000
    3.5320   -2.0310   -3.5760 C   0  0  0  0  0  0  0  0  0  0  0  0
    3.3040   -2.2520   -2.1640 N   0  0  0  0  0  0  0  0  0  0  0  0
    4.4460   -2.5100   -1.3220 C   0  0  0  0  0  0  0  0  0  0  0  0
    4.9710   -1.2020   -0.7930 C   0  0  0  0  0  0  0  0  0  0  0  0
    6.0310   -1.0150    0.0110 N   0  0  0  0  0  0  0  0  0  0  0  0
    6.2170    0.2930    0.2910 C   0  0  0  0  0  0  0  0  0  0  0  0
    7.2390    0.9100    1.1130 C   0  0  0  0  0  0  0  0  0  0  0  0
    7.3590    2.2010    1.3420 C   0  0  0  0  0  0  0  0  0  0  0  0
    8.5280    2.4530    2.2330 C   0  0  0  0  0  0  0  0  0  0  0  0
    9.0550    1.1050    2.4750 C   0  0  0  0  0  0  0  0  0  0  0  0
    8.2930    0.2190    1.8160 C   0  0  0  0  0  0  0  0  0  0  0  0
    5.2090    0.9190   -0.3870 N   0  0  0  0  0  0  0  0  0  0  0  0
    4.4740    0.0250   -1.0280 N   0  0  0  0  0  0  0  0  0  0  0  0
    1.9760   -2.2150   -1.6310 C   0  0  0  0  0  0  0  0  0  0  0  0
    1.0270   -1.9890   -2.4250 O   0  0  0  0  0  0  0  0  0  0  0  0
    1.7080   -2.4340   -0.1910 C   0  0  0  0  0  0  0  0  0  0  0  0
    0.3000   -2.3370    0.0540 N   0  0  0  0  0  0  0  0  0  0  0  0
   -0.3800   -1.1170   -0.2420 C   0  0  0  0  0  0  0  0  0  0  0  0
    0.2860   -0.1480   -0.7160 O   0  0  0  0  0  0  0  0  0  0  0  0
   -1.7620   -1.0020   -0.0090 N   0  0  0  0  0  0  0  0  0  0  0  0
   -2.5480    0.1230   -0.2520 C   0  0  0  0  0  0  0  0  0  0  0  0
   -2.1140    1.3020   -0.7560 C   0  0  0  0  0  0  0  0  0  0  0  0
   -2.9940    2.3660   -0.9570 C   0  0  0  0  0  0  0  0  0  0  0  0
   -4.3170    2.2280   -0.6440 C   0  0  0  0  0  0  0  0  0  0  0  0
   -5.2430    3.2530   -0.8230 O   0  0  0  0  0  0  0  0  0  0  0  0
   -4.7340    1.0260   -0.1350 C   0  0  0  0  0  0  0  0  0  0  0  0
   -6.0670    0.7950    0.2130 O   0  0  0  0  0  0  0  0  0  0  0  0
   -6.4800   -0.4430    0.7330 C   0  0  0  0  0  0  0  0  0  0  0  0
   -7.9620   -0.3910    1.0120 C   0  0  2  0  0  0  0  0  0  0  0  0
   -8.6230   -0.1180   -0.1790 O   0  0  0  0  0  0  0  0  0  0  0  0
   -8.2300    0.6620    2.0460 C   0  0  0  0  0  0  0  0  0  0  0  0
   -7.8060    1.9660    1.6090 N   0  0  0  0  0  0  0  0  0  0  0  0
   -3.8740    0.0440    0.0410 N   0  0  0  0  0  0  0  0  0  0  0  0
  1  2  1  0
  2  3  1  0
  2 14  1  0
  3  4  1  0
  4  5  2  0
  4 13  1  0
  5  6  1  0
  6  7  1  0
  6 12  2  0
  7  8  2  0
  7 11  1  0
  8  9  1  0
  9 10  1  0
 10 11  2  0
 12 13  1  0
 14 15  2  0
 14 16  1  0
 16 17  1  0
 17 18  1  0
 18 19  2  0
 18 20  1  0
 20 21  1  0
 21 22  2  0
 21 33  1  0
 22 23  1  0
 23 24  2  0
 24 25  1  0
 24 26  1  0
 26 27  1  0
 26 33  2  0
 27 28  1  0
 28 29  1  0
 29 30  1  6
 29 31  1  0
 31 32  1  0
M  CHG  1  32   1
M  END
