
     RDKit          3D

 33 35  0  0  0  0  0  0  0  0999 V2000
    9.6640    1.5650    0.0440 C   0  0  0  0  0  0  0  0  0  0  0  0
    8.3700    0.9270   -0.4280 C   0  0  0  0  0  0  0  0  0  0  0  0
    7.5040    0.5630    0.7790 C   0  0  0  0  0  0  0  0  0  0  0  0
    6.2760   -0.0440    0.2980 N   0  0  0  0  0  0  0  0  0  0  0  0
    6.4560   -1.4600    0.2110 C   0  0  0  0  0  0  0  0  0  0  0  0
    5.8150   -2.0470   -1.0090 C   0  0  0  0  0  0  0  0  0  0  0  0
    4.3300   -1.7810   -1.0050 C   0  0  0  0  0  0  0  0  0  0  0  0
    3.8930   -1.1510   -0.0580 O   0  0  0  0  0  0  0  0  0  0  0  0
    3.6060   -2.2850   -2.0900 N   0  0  0  0  0  0  0  0  0  0  0  0
    2.2250   -2.1470   -2.2740 C   0  0  0  0  0  0  0  0  0  0  0  0
    1.2670   -1.6050   -1.6390 C   0  0  0  0  0  0  0  0  0  0  0  0
    1.4210   -0.7420   -0.1160 S   0  0  0  0  0  0  0  0  0  0  0  0
   -0.1610   -0.1380    0.3810 C   0  0  0  0  0  0  0  0  0  0  0  0
   -0.2550    0.5710    1.5280 C   0  0  0  0  0  0  0  0  0  0  0  0
   -1.4780    1.0760    1.9840 C   0  0  0  0  0  0  0  0  0  0  0  0
   -2.6320    0.8470    1.2410 C   0  0  0  0  0  0  0  0  0  0  0  0
   -3.8300    1.3850    1.7480 N   0  0  0  0  0  0  0  0  0  0  0  0
   -5.1340    1.2340    1.2400 C   0  0  0  0  0  0  0  0  0  0  0  0
   -5.3170    0.5500    0.2170 O   0  0  0  0  0  0  0  0  0  0  0  0
   -6.3370    1.8460    1.8500 C   0  0  0  0  0  0  0  0  0  0  0  0
   -7.5970    1.5360    1.1400 C   0  0  1  0  0  0  0  0  0  0  0  0
   -7.6580    1.9610   -0.2230 N   0  0  0  0  0  0  0  0  0  0  0  0
   -8.6670    1.1250   -0.8270 C   0  0  0  0  0  0  0  0  0  0  0  0
   -9.3290    1.3350   -1.8760 O   0  0  0  0  0  0  0  0  0  0  0  0
   -8.8220   -0.0430   -0.0250 N   0  0  0  0  0  0  0  0  0  0  0  0
   -9.7360   -1.1670   -0.2580 C   0  0  0  0  0  0  0  0  0  0  0  0
   -7.9070    0.0960    1.0550 C   0  0  0  0  0  0  0  0  0  0  0  0
   -7.4770   -0.8560    1.7680 O   0  0  0  0  0  0  0  0  0  0  0  0
   -2.4840    0.1280    0.0920 C   0  0  0  0  0  0  0  0  0  0  0  0
   -1.2650   -0.3850   -0.3770 C   0  0  0  0  0  0  0  0  0  0  0  0
   -1.2150   -1.1120   -1.5820 N   0  0  0  0  0  0  0  0  0  0  0  0
   -0.0980   -1.6880   -2.2010 C   0  0  0  0  0  0  0  0  0  0  0  0
   -0.2470   -2.3250   -3.3150 O   0  0  0  0  0  0  0  0  0  0  0  0
  1  2  1  0
  2  3  1  0
  3  4  1  0
  4  5  1  0
  5  6  1  0
  6  7  1  0
  7  8  2  0
  7  9  1  0
  9 10  1  0
 10 11  2  3
 11 12  1  0
 11 32  1  0
 12 13  1  0
 13 14  2  0
 13 30  1  0
 14 15  1  0
 15 16  2  0
 16 17  1  0
 16 29  1  0
 17 18  1  0
 18 19  2  0
 18 20  1  0
 21 20  1  6
 21 22  1  0
 21 27  1  0
 22 23  1  0
 23 24  2  0
 23 25  1  0
 25 26  1  0
 25 27  1  0
 27 28  2  0
 29 30  2  0
 30 31  1  0
 31 32  1  0
 32 33  2  0
M  CHG  1   4   1
M  END
