
     RDKit          3D

 33 35  0  0  0  0  0  0  0  0999 V2000
   -1.2210   -1.7040   -1.8040 C   0  0  0  0  0  0  0  0  0  0  0  0
   -1.4800   -2.3390   -0.4990 C   0  0  0  0  0  0  0  0  0  0  0  0
   -1.9780   -3.5670   -0.2970 N   0  0  0  0  0  0  0  0  0  0  0  0
   -2.0900   -3.7750    1.0020 N   0  0  0  0  0  0  0  0  0  0  0  0
   -1.6510   -2.6480    1.6540 C   0  0  0  0  0  0  0  0  0  0  0  0
   -1.2710   -1.7520    0.7600 C   0  0  0  0  0  0  0  0  0  0  0  0
   -0.6030   -0.4600    0.7830 C   0  0  0  0  0  0  0  0  0  0  0  0
    0.7790   -0.5650    0.8070 C   0  0  0  0  0  0  0  0  0  0  0  0
    1.5910    0.5120    0.6230 C   0  0  0  0  0  0  0  0  0  0  0  0
    2.9860    0.2090    0.3720 N   0  0  0  0  0  0  0  0  0  0  0  0
    3.4890   -1.0510    0.9080 C   0  0  0  0  0  0  0  0  0  0  0  0
    3.8560    1.0100   -0.3360 C   0  0  0  0  0  0  0  0  0  0  0  0
    3.9560    2.2870   -0.2920 O   0  0  0  0  0  0  0  0  0  0  0  0
    4.8310    0.4120   -1.3240 C   0  0  0  0  0  0  0  0  0  0  0  0
    5.9350   -0.1130   -0.7340 O   0  0  0  0  0  0  0  0  0  0  0  0
    6.4300    0.7930    0.2340 C   0  0  0  0  0  0  0  0  0  0  0  0
    7.7190    0.2780    0.7200 C   0  0  0  0  0  0  0  0  0  0  0  0
    8.7060   -0.1290   -0.2650 N   0  0  0  0  0  0  0  0  0  0  0  0
    8.0430    0.1670    1.9040 O   0  0  0  0  0  0  0  0  0  0  0  0
    0.9840    1.7130    0.4380 C   0  0  0  0  0  0  0  0  0  0  0  0
    1.6290    2.7630    0.2710 O   0  0  0  0  0  0  0  0  0  0  0  0
   -0.3910    1.8180    0.4310 N   0  0  0  0  0  0  0  0  0  0  0  0
   -1.1850    0.7620    0.5930 C   0  0  0  0  0  0  0  0  0  0  0  0
   -2.6490    0.7660    0.4160 C   0  0  0  0  0  0  0  0  0  0  0  0
   -3.4420   -0.2360    0.8150 N   0  0  0  0  0  0  0  0  0  0  0  0
   -4.7330    0.0460    0.4880 C   0  0  0  0  0  0  0  0  0  0  0  0
   -5.8510   -0.8970    0.7400 C   0  0  2  0  0  0  0  0  0  0  0  0
   -5.2110   -2.2660    1.0860 C   0  0  0  0  0  0  0  0  0  0  0  0
   -6.5090   -1.1700   -0.4940 O   0  0  0  0  0  0  0  0  0  0  0  0
   -4.7120    1.2370   -0.1110 N   0  0  0  0  0  0  0  0  0  0  0  0
   -3.4260    1.7190   -0.1750 C   0  0  0  0  0  0  0  0  0  0  0  0
   -2.9230    2.8500   -0.9470 C   0  0  0  0  0  0  0  0  0  0  0  0
   -3.5720    4.0660   -0.4900 N   0  0  0  0  0  0  0  0  0  0  0  0
  1  2  1  0
  2  3  1  0
  2  6  2  0
  3  4  1  0
  4  5  2  0
  5  6  1  0
  6  7  1  0
  7  8  1  0
  7 23  2  0
  8  9  2  0
  9 10  1  0
  9 20  1  0
 10 11  1  0
 10 12  1  0
 12 13  2  0
 12 14  1  0
 14 15  1  0
 15 16  1  0
 16 17  1  0
 17 18  1  0
 17 19  2  0
 20 21  2  0
 20 22  1  0
 22 23  1  0
 23 24  1  0
 24 25  1  0
 24 31  2  0
 25 26  2  0
 26 27  1  0
 26 30  1  0
 27 28  1  6
 27 29  1  0
 30 31  1  0
 31 32  1  0
 32 33  1  0
M  CHG  1  33   1
M  END
