
     RDKit          3D

 33 35  0  0  0  0  0  0  0  0999 V2000
   -4.6730   -1.0330    3.0160 C   0  0  0  0  0  0  0  0  0  0  0  0
   -4.3870    0.3570    2.4900 C   0  0  0  0  0  0  0  0  0  0  0  0
   -4.9100    0.5120    1.0870 C   0  0  0  0  0  0  0  0  0  0  0  0
   -5.9800    1.1460    0.7160 O   0  0  0  0  0  0  0  0  0  0  0  0
   -6.1530    1.0920   -0.5770 N   0  0  0  0  0  0  0  0  0  0  0  0
   -7.2330    1.6880   -1.3200 C   0  0  0  0  0  0  0  0  0  0  0  0
   -8.3420    0.7290   -1.4290 C   0  0  0  0  0  0  0  0  0  0  0  0
   -8.2320   -0.5570   -0.8430 N   0  0  0  0  0  0  0  0  0  0  0  0
   -9.4170    1.0000   -2.0330 O   0  0  0  0  0  0  0  0  0  0  0  0
   -5.1410    0.3790   -1.1150 C   0  0  0  0  0  0  0  0  0  0  0  0
   -4.8940    0.0390   -2.5470 C   0  0  0  0  0  0  0  0  0  0  0  0
   -4.3420    0.0030   -0.0690 C   0  0  0  0  0  0  0  0  0  0  0  0
   -3.1430   -0.7560   -0.0490 N   0  0  0  0  0  0  0  0  0  0  0  0
   -1.8460   -0.1590   -0.1710 C   0  0  0  0  0  0  0  0  0  0  0  0
   -1.8110    1.0620   -0.2960 O   0  0  0  0  0  0  0  0  0  0  0  0
   -0.6610   -0.9250   -0.1480 N   0  0  0  0  0  0  0  0  0  0  0  0
    0.6530   -0.4220   -0.2610 C   0  0  0  0  0  0  0  0  0  0  0  0
    1.0200    0.8820   -0.4180 C   0  0  0  0  0  0  0  0  0  0  0  0
    2.3080    1.2400   -0.5150 N   0  0  0  0  0  0  0  0  0  0  0  0
    3.3320    0.3390   -0.4640 C   0  0  0  0  0  0  0  0  0  0  0  0
    4.6780    0.7660   -0.5730 N   0  0  0  0  0  0  0  0  0  0  0  0
    4.9470    2.1710   -0.8010 C   0  0  0  0  0  0  0  0  0  0  0  0
    5.9920    2.7210    0.1160 C   0  0  0  0  0  0  0  0  0  0  0  0
    7.0580    1.7580    0.4910 C   0  0  0  0  0  0  0  0  0  0  0  0
    6.5690    0.3560    0.7720 C   0  0  0  0  0  0  0  0  0  0  0  0
    5.8160   -0.1090   -0.4690 C   0  0  1  0  0  0  0  0  0  0  0  0
    5.5040   -1.5640   -0.4300 C   0  0  0  0  0  0  0  0  0  0  0  0
    6.7890   -2.3220   -0.3290 C   0  0  0  0  0  0  0  0  0  0  0  0
    7.3640   -2.5710    0.7600 O   0  0  0  0  0  0  0  0  0  0  0  0
    7.4050   -2.7920   -1.4890 O   0  0  0  0  0  0  0  0  0  0  0  0
    2.9410   -0.9340   -0.3090 N   0  0  0  0  0  0  0  0  0  0  0  0
    1.6940   -1.3570   -0.2070 C   0  0  0  0  0  0  0  0  0  0  0  0
    1.4340   -2.7480   -0.0450 N   0  0  0  0  0  0  0  0  0  0  0  0
  1  2  1  0
  2  3  1  0
  3  4  1  0
  3 12  2  0
  4  5  1  0
  5  6  1  0
  5 10  2  0
  6  7  1  0
  7  8  1  0
  7  9  2  0
 10 11  1  0
 10 12  1  0
 12 13  1  0
 13 14  1  0
 14 15  2  0
 14 16  1  0
 16 17  1  0
 17 18  2  0
 17 32  1  0
 18 19  1  0
 19 20  2  0
 20 21  1  0
 20 31  1  0
 21 22  1  0
 21 26  1  0
 22 23  1  0
 23 24  1  0
 24 25  1  0
 25 26  1  0
 26 27  1  1
 27 28  1  0
 28 29  2  0
 28 30  1  0
 31 32  2  0
 32 33  1  0
M  CHG  1   5   1
M  END
