
     RDKit          3D

 33 35  0  0  0  0  0  0  0  0999 V2000
    8.1650   -0.1630   -1.9510 C   0  0  0  0  0  0  0  0  0  0  0  0
    7.7280    1.2300   -1.5830 C   0  0  0  0  0  0  0  0  0  0  0  0
    7.0430    1.2870   -0.2570 C   0  0  0  0  0  0  0  0  0  0  0  0
    5.8060    0.4520   -0.1620 C   0  0  1  0  0  0  0  0  0  0  0  0
    5.2400    0.6220    1.2280 C   0  0  0  0  0  0  0  0  0  0  0  0
    3.9740   -0.0780    1.4130 N   0  0  0  0  0  0  0  0  0  0  0  0
    3.7050   -1.2100    2.2520 C   0  0  0  0  0  0  0  0  0  0  0  0
    4.5060   -2.0480    2.7020 O   0  0  0  0  0  0  0  0  0  0  0  0
    2.2340   -1.1740    2.4770 C   0  0  0  0  0  0  0  0  0  0  0  0
    1.7680   -0.7040    1.1450 C   0  0  1  0  0  0  0  0  0  0  0  0
    0.4100   -0.2970    1.0720 N   0  0  0  0  0  0  0  0  0  0  0  0
   -0.5740   -0.9520    0.2420 C   0  0  0  0  0  0  0  0  0  0  0  0
   -0.1420   -1.9130   -0.4120 O   0  0  0  0  0  0  0  0  0  0  0  0
   -1.9430   -0.4830    0.2140 C   0  0  0  0  0  0  0  0  0  0  0  0
   -2.4490    0.5720    0.9030 N   0  0  0  0  0  0  0  0  0  0  0  0
   -3.7500    0.7330    0.6520 C   0  0  0  0  0  0  0  0  0  0  0  0
   -4.6460    1.7830    1.2240 C   0  0  0  0  0  0  0  0  0  0  0  0
   -4.1470    2.6320    2.0510 C   0  0  0  0  0  0  0  0  0  0  0  0
   -4.8110    3.7240    2.7230 C   0  0  0  0  0  0  0  0  0  0  0  0
   -6.1300    3.9550    2.5100 O   0  0  0  0  0  0  0  0  0  0  0  0
   -6.0440    1.7280    0.7900 C   0  0  0  0  0  0  0  0  0  0  0  0
   -6.1190    1.9330   -0.6700 N   0  0  0  0  0  0  0  0  0  0  0  0
   -4.0790   -0.2300   -0.2070 N   0  0  0  0  0  0  0  0  0  0  0  0
   -2.9830   -1.0030   -0.5010 C   0  0  0  0  0  0  0  0  0  0  0  0
   -3.0060   -2.1440   -1.4090 C   0  0  0  0  0  0  0  0  0  0  0  0
   -2.0260   -2.8570   -1.6750 O   0  0  0  0  0  0  0  0  0  0  0  0
   -4.2280   -2.5030   -2.0630 N   0  0  0  0  0  0  0  0  0  0  0  0
   -4.2890   -3.6220   -2.9650 C   0  0  0  0  0  0  0  0  0  0  0  0
   -3.9220   -4.9310   -2.3090 C   0  0  0  0  0  0  0  0  0  0  0  0
   -4.7490   -5.2430   -1.2640 F   0  0  0  0  0  0  0  0  0  0  0  0
    2.7650    0.3240    0.7370 C   0  0  2  0  0  0  0  0  0  0  0  0
    2.9080    0.4220   -0.7670 C   0  0  0  0  0  0  0  0  0  0  0  0
    4.5130    0.9990   -1.3120 S   0  0  0  0  0  0  0  0  0  0  0  0
  1  2  1  0
  2  3  1  0
  4  3  1  1
  4  5  1  0
  4 33  1  0
  5  6  1  0
  6  7  1  0
  6 31  1  0
  7  8  2  0
  7  9  1  0
  9 10  1  0
 10 11  1  1
 10 31  1  0
 11 12  1  0
 12 13  2  0
 12 14  1  0
 14 15  1  0
 14 24  2  0
 15 16  2  0
 16 17  1  0
 16 23  1  0
 17 18  2  3
 17 21  1  0
 18 19  1  0
 19 20  1  0
 21 22  1  0
 23 24  1  0
 24 25  1  0
 25 26  2  0
 25 27  1  0
 27 28  1  0
 28 29  1  0
 29 30  1  0
 31 32  1  6
 32 33  1  0
M  CHG  1  22   1
M  END
