
     RDKit          3D

 42 45  0  0  0  0  0  0  0  0999 V2000
   -2.5650   -4.0250   -2.9960 C   0  0  0  0  0  0  0  0  0  0  0  0
   -1.3120   -3.4080   -2.5080 C   0  0  0  0  0  0  0  0  0  0  0  0
   -1.4730   -2.5660   -1.2310 C   0  0  0  0  0  0  0  0  0  0  0  0
   -1.4010   -1.1710   -1.6190 C   0  0  0  0  0  0  0  0  0  0  0  0
   -1.4950   -0.0940   -0.7770 C   0  0  0  0  0  0  0  0  0  0  0  0
   -1.6820   -0.3830    0.5390 C   0  0  0  0  0  0  0  0  0  0  0  0
   -1.7600   -1.7460    0.9560 C   0  0  0  0  0  0  0  0  0  0  0  0
   -1.6560   -2.8170    0.1010 C   0  0  0  0  0  0  0  0  0  0  0  0
   -1.7070   -4.1660    0.7630 C   0  0  0  0  0  0  0  0  0  0  0  0
   -0.4400   -4.4660    1.5780 C   0  0  0  0  0  0  0  0  0  0  0  0
    0.6860   -4.6830    0.8440 O   0  0  0  0  0  0  0  0  0  0  0  0
    2.0300   -4.6880    1.0350 C   0  0  0  0  0  0  0  0  0  0  0  0
    2.5610   -5.8920    1.0360 O   0  0  0  0  0  0  0  0  0  0  0  0
    2.9270   -3.6050    1.2280 N   0  0  0  0  0  0  0  0  0  0  0  0
    3.0600   -2.3000    0.6150 C   0  0  0  0  0  0  0  0  0  0  0  0
    4.4120   -2.0800    0.2210 C   0  0  0  0  0  0  0  0  0  0  0  0
    4.8540   -0.9600   -0.4060 C   0  0  0  0  0  0  0  0  0  0  0  0
    3.9260    0.0350   -0.6790 C   0  0  0  0  0  0  0  0  0  0  0  0
    4.5750    1.4290   -1.4360 S   0  0  2  0  0  0  0  0  0  0  0  0
    3.8640    1.9450   -2.6490 O   0  0  0  0  0  0  0  0  0  0  0  0
    5.9560    1.0220   -2.0430 O   0  0  0  0  0  0  0  0  0  0  0  0
    4.9330    2.7650   -0.3690 C   0  0  2  0  0  0  0  0  0  0  0  0
    6.2070    2.4310    0.4770 C   0  0  0  0  0  0  0  0  0  0  0  0
    3.9240    3.2710    0.5640 C   0  0  0  0  0  0  0  0  0  0  0  0
    2.5600   -0.1610   -0.2910 C   0  0  0  0  0  0  0  0  0  0  0  0
    2.1450   -1.3140    0.3470 C   0  0  0  0  0  0  0  0  0  0  0  0
    1.7470    0.9880   -0.7760 C   0  0  0  0  0  0  0  0  0  0  0  0
    0.8180    1.6300    0.1210 N   0  0  0  0  0  0  0  0  0  0  0  0
    1.0890    1.7420    1.5290 C   0  0  0  0  0  0  0  0  0  0  0  0
   -0.4180    2.1880   -0.3990 C   0  0  0  0  0  0  0  0  0  0  0  0
   -0.7950    3.3550   -0.1800 O   0  0  0  0  0  0  0  0  0  0  0  0
   -1.3130    1.3470   -1.2510 C   0  0  2  0  0  0  0  0  0  0  0  0
   -2.5720    1.9480   -1.4690 N   0  0  0  0  0  0  0  0  0  0  0  0
   -3.6530    2.2390   -0.6350 C   0  0  0  0  0  0  0  0  0  0  0  0
   -4.9430    2.4190   -1.1870 C   0  0  0  0  0  0  0  0  0  0  0  0
   -6.0440    2.7240   -0.4360 C   0  0  0  0  0  0  0  0  0  0  0  0
   -5.9300    2.8720    0.9340 C   0  0  0  0  0  0  0  0  0  0  0  0
   -4.6990    2.7070    1.5180 C   0  0  0  0  0  0  0  0  0  0  0  0
   -4.5760    2.8600    2.9590 C   0  0  0  0  0  0  0  0  0  0  0  0
   -5.7110    3.1230    3.7770 N   0  0  0  0  0  0  0  0  0  0  0  0
   -3.4710    2.7660    3.5420 O   0  0  0  0  0  0  0  0  0  0  0  0
   -3.5900    2.3960    0.7220 C   0  0  0  0  0  0  0  0  0  0  0  0
  1  2  1  0
  2  3  1  0
  3  4  2  0
  3  8  1  0
  4  5  1  0
  5  6  2  0
  5 32  1  0
  6  7  1  0
  7  8  2  0
  8  9  1  0
  9 10  1  0
 10 11  1  0
 11 12  1  0
 12 13  2  0
 12 14  1  0
 14 15  1  0
 15 16  2  0
 15 26  1  0
 16 17  1  0
 17 18  2  0
 19 18  1  1
 18 25  1  0
 19 20  2  0
 19 21  2  0
 19 22  1  0
 22 23  1  1
 22 24  1  0
 25 26  2  0
 25 27  1  0
 27 28  1  0
 28 29  1  0
 28 30  1  0
 30 31  2  0
 30 32  1  0
 32 33  1  1
 33 34  1  0
 34 35  2  0
 34 42  1  0
 35 36  1  0
 36 37  2  0
 37 38  1  0
 38 39  1  0
 38 42  2  0
 39 40  1  0
 39 41  2  0
M  END
