
     RDKit          3D

 41 44  0  0  0  0  0  0  0  0999 V2000
   -6.8730   -2.9840    0.8090 C   0  0  0  0  0  0  0  0  0  0  0  0
   -5.5650   -2.5190    1.0500 O   0  0  0  0  0  0  0  0  0  0  0  0
   -4.8090   -2.6050   -0.0860 C   0  0  2  0  0  0  0  0  0  0  0  0
   -3.8670   -3.8320    0.1490 C   0  0  0  0  0  0  0  0  0  0  0  0
   -4.0050   -1.4880   -0.4970 C   0  0  0  0  0  0  0  0  0  0  0  0
   -3.2320   -1.7000   -1.5270 O   0  0  0  0  0  0  0  0  0  0  0  0
   -3.9300   -0.1760    0.0730 C   0  0  0  0  0  0  0  0  0  0  0  0
   -3.0100    0.6390   -0.5130 C   0  0  0  0  0  0  0  0  0  0  0  0
   -2.7940    2.0010   -0.0600 C   0  0  0  0  0  0  0  0  0  0  0  0
   -3.6390    2.9130    0.3410 O   0  0  0  0  0  0  0  0  0  0  0  0
   -3.0750    4.0120    0.6700 N   0  0  0  0  0  0  0  0  0  0  0  0
   -1.7530    3.8860    0.4970 C   0  0  0  0  0  0  0  0  0  0  0  0
   -1.5310    2.6220    0.0340 C   0  0  0  0  0  0  0  0  0  0  0  0
   -0.2480    2.0130   -0.2920 C   0  0  0  0  0  0  0  0  0  0  0  0
   -0.2000    0.8170   -0.7080 O   0  0  0  0  0  0  0  0  0  0  0  0
    0.9340    2.6870   -0.1670 O   0  0  0  0  0  0  0  0  0  0  0  0
    2.2080    2.1960   -0.4470 C   0  0  0  0  0  0  0  0  0  0  0  0
    2.5620    0.9980    0.3890 C   0  0  0  0  0  0  0  0  0  0  0  0
    1.6810    0.6140    1.1760 O   0  0  0  0  0  0  0  0  0  0  0  0
    3.8250    0.3990    0.2410 N   0  0  0  0  0  0  0  0  0  0  0  0
    4.2690   -0.7310    0.9700 C   0  0  0  0  0  0  0  0  0  0  0  0
    3.4650   -1.4760    1.8090 C   0  0  0  0  0  0  0  0  0  0  0  0
    3.8970   -2.6140    2.4900 C   0  0  0  0  0  0  0  0  0  0  0  0
    5.2030   -2.9990    2.3000 C   0  0  0  0  0  0  0  0  0  0  0  0
    6.0260   -2.2640    1.4620 C   0  0  0  0  0  0  0  0  0  0  0  0
    5.5930   -1.1420    0.7940 C   0  0  0  0  0  0  0  0  0  0  0  0
    6.5050   -0.3670   -0.0460 C   0  0  0  0  0  0  0  0  0  0  0  0
    7.3160   -0.7990   -0.9800 C   0  0  0  0  0  0  0  0  0  0  0  0
    7.3790   -2.2810   -1.2940 C   0  0  0  0  0  0  0  0  0  0  0  0
    8.1420    0.1550   -1.6790 C   0  0  2  0  0  0  0  0  0  0  0  0
    9.4790    0.1530   -1.2670 O   0  0  0  0  0  0  0  0  0  0  0  0
    7.5500    1.5390   -1.6340 C   0  0  2  0  0  0  0  0  0  0  0  0
    8.6440    2.5540   -1.5460 C   0  0  0  0  0  0  0  0  0  0  0  0
    6.7680    1.4200    0.0310 S   0  0  0  0  0  0  0  0  0  0  0  0
   -4.6380    0.3630    1.0950 O   0  0  0  0  0  0  0  0  0  0  0  0
   -5.9710    0.5630    1.3440 C   0  0  0  0  0  0  0  0  0  0  0  0
   -6.6310    1.4020    0.2740 C   0  0  1  0  0  0  0  0  0  0  0  0
   -6.6520    0.7220   -1.0680 C   0  0  0  0  0  0  0  0  0  0  0  0
   -7.7350    1.5490   -1.7780 C   0  0  0  0  0  0  0  0  0  0  0  0
   -8.4640    2.1870   -0.6010 C   0  0  0  0  0  0  0  0  0  0  0  0
   -8.0100    1.5380    0.5490 O   0  0  0  0  0  0  0  0  0  0  0  0
  1  2  1  0
  2  3  1  0
  3  4  1  1
  3  5  1  0
  5  6  2  0
  5  7  1  0
  7  8  2  3
  7 35  1  0
  8  9  1  0
  9 10  1  0
  9 13  2  0
 10 11  1  0
 11 12  2  0
 12 13  1  0
 13 14  1  0
 14 15  2  0
 14 16  1  0
 16 17  1  0
 17 18  1  0
 18 19  2  0
 18 20  1  0
 20 21  1  0
 21 22  2  0
 21 26  1  0
 22 23  1  0
 23 24  2  0
 24 25  1  0
 25 26  2  0
 26 27  1  0
 27 28  2  0
 27 34  1  0
 28 29  1  0
 28 30  1  0
 30 31  1  1
 30 32  1  0
 32 33  1  1
 32 34  1  0
 35 36  1  0
 37 36  1  1
 37 38  1  0
 37 41  1  0
 38 39  1  0
 39 40  1  0
 40 41  1  0
M  END
