
     RDKit          3D

 42 44  0  0  0  0  0  0  0  0999 V2000
   -2.9780   -1.4960   -2.7120 C   0  0  0  0  0  0  0  0  0  0  0  0
   -2.9130   -1.0650   -1.2460 C   0  0  0  0  0  0  0  0  0  0  0  0
   -3.6450   -0.0500   -0.9400 C   0  0  0  0  0  0  0  0  0  0  0  0
   -3.8930    0.7000    0.3190 C   0  0  2  0  0  0  0  0  0  0  0  0
   -5.2890    0.3270    0.8410 C   0  0  0  0  0  0  0  0  0  0  0  0
   -3.9760    2.2090    0.0150 C   0  0  0  0  0  0  0  0  0  0  0  0
   -2.8780    2.9300    0.7650 C   0  0  0  0  0  0  0  0  0  0  0  0
   -2.1330    3.9000   -0.1080 C   0  0  2  0  0  0  0  0  0  0  0  0
   -2.2710    3.5650   -1.4650 O   0  0  0  0  0  0  0  0  0  0  0  0
   -0.7280    4.1620    0.2950 C   0  0  1  0  0  0  0  0  0  0  0  0
   -0.7460    4.9770    1.5890 C   0  0  0  0  0  0  0  0  0  0  0  0
    0.1400    2.9800    0.4990 C   0  0  0  0  0  0  0  0  0  0  0  0
    0.0710    2.0100   -0.6550 C   0  0  0  0  0  0  0  0  0  0  0  0
    0.8130    0.7240   -0.3570 C   0  0  2  0  0  0  0  0  0  0  0  0
    2.0370    0.7620   -0.9760 O   0  0  0  0  0  0  0  0  0  0  0  0
    3.3040    0.5960   -0.5650 C   0  0  0  0  0  0  0  0  0  0  0  0
    4.3060    0.7350   -1.5360 C   0  0  0  0  0  0  0  0  0  0  0  0
    5.6300    0.5890   -1.2430 C   0  0  0  0  0  0  0  0  0  0  0  0
    6.6620    0.7510   -2.3190 C   0  0  0  0  0  0  0  0  0  0  0  0
    6.8650   -0.6360   -2.9390 C   0  0  1  0  0  0  0  0  0  0  0  0
    7.2950   -1.4960   -1.9630 F   0  0  0  0  0  0  0  0  0  0  0  0
    5.6650   -1.0670   -3.4900 F   0  0  0  0  0  0  0  0  0  0  0  0
    7.7710   -0.5480   -3.9890 F   0  0  0  0  0  0  0  0  0  0  0  0
    6.0020    0.2940    0.0480 C   0  0  0  0  0  0  0  0  0  0  0  0
    5.0440    0.1450    1.0480 C   0  0  0  0  0  0  0  0  0  0  0  0
    5.5370   -0.2280    2.3880 C   0  0  0  0  0  0  0  0  0  0  0  0
    5.4650   -1.7130    2.5700 C   0  0  2  0  0  0  0  0  0  0  0  0
    5.9170   -2.0900    3.8360 F   0  0  0  0  0  0  0  0  0  0  0  0
    6.3210   -2.3340    1.6400 F   0  0  0  0  0  0  0  0  0  0  0  0
    4.2330   -2.2580    2.3540 F   0  0  0  0  0  0  0  0  0  0  0  0
    3.7350    0.3000    0.7170 C   0  0  0  0  0  0  0  0  0  0  0  0
    2.7930    0.1560    1.7190 O   0  0  0  0  0  0  0  0  0  0  0  0
   -0.0380   -0.4050   -0.9780 C   0  0  0  0  0  0  0  0  0  0  0  0
   -0.8250   -1.0740    0.1190 C   0  0  2  0  0  0  0  0  0  0  0  0
    0.0540   -2.0420    0.6710 O   0  0  0  0  0  0  0  0  0  0  0  0
   -2.0010   -1.8760   -0.3940 C   0  0  2  0  0  0  0  0  0  0  0  0
   -1.3170   -2.9680   -1.2600 C   0  0  0  0  0  0  0  0  0  0  0  0
   -1.9040   -4.3230   -1.0920 C   0  0  0  0  0  0  0  0  0  0  0  0
   -3.3250   -4.4450   -0.7110 C   0  0  0  0  0  0  0  0  0  0  0  0
   -3.8480   -3.3420    0.1850 C   0  0  0  0  0  0  0  0  0  0  0  0
   -2.6040   -2.6350    0.7170 C   0  0  2  0  0  0  0  0  0  0  0  0
   -2.8010   -2.0320    2.0400 C   0  0  0  0  0  0  0  0  0  0  0  0
  1  2  1  0
  2  3  2  0
  2 36  1  0
  3  4  1  0
  4  5  1  6
  4  6  1  0
  6  7  1  0
  7  8  1  0
  8  9  1  6
  8 10  1  0
 10 11  1  1
 10 12  1  0
 12 13  1  0
 13 14  1  0
 14 15  1  6
 14 33  1  0
 15 16  1  0
 16 17  2  0
 16 31  1  0
 17 18  1  0
 18 19  1  0
 18 24  2  0
 19 20  1  0
 20 21  1  1
 20 22  1  0
 20 23  1  0
 24 25  1  0
 25 26  1  0
 25 31  2  0
 26 27  1  0
 27 28  1  1
 27 29  1  0
 27 30  1  0
 31 32  1  0
 33 34  1  0
 34 35  1  6
 34 36  1  0
 36 37  1  6
 36 41  1  0
 37 38  1  0
 38 39  1  0
 39 40  1  0
 40 41  1  0
 41 42  1  1
M  END
