
     RDKit          3D

 42 45  0  0  0  0  0  0  0  0999 V2000
    4.4020    1.4760   -1.6730 C   0  0  0  0  0  0  0  0  0  0  0  0
    3.0010    0.8740   -1.4320 C   0  0  2  0  0  0  0  0  0  0  0  0
    2.0310    1.8600   -1.9590 C   0  0  0  0  0  0  0  0  0  0  0  0
    2.2030    3.2880   -1.5620 C   0  0  1  0  0  0  0  0  0  0  0  0
    2.8060    4.0470   -2.5720 F   0  0  0  0  0  0  0  0  0  0  0  0
    0.9390    3.9860   -1.0900 C   0  0  2  0  0  0  0  0  0  0  0  0
    1.2620    4.9270   -0.1640 O   0  0  0  0  0  0  0  0  0  0  0  0
   -0.1830    3.1020   -0.6500 C   0  0  0  0  0  0  0  0  0  0  0  0
   -0.1550    1.9660    0.1150 C   0  0  0  0  0  0  0  0  0  0  0  0
   -1.2850    1.1660    0.2290 C   0  0  0  0  0  0  0  0  0  0  0  0
   -2.4340    1.5700   -0.4260 C   0  0  0  0  0  0  0  0  0  0  0  0
   -2.5250    2.7140   -1.2020 C   0  0  0  0  0  0  0  0  0  0  0  0
   -1.3800    3.4520   -1.2930 C   0  0  0  0  0  0  0  0  0  0  0  0
   -1.4570    4.5990   -2.0590 F   0  0  0  0  0  0  0  0  0  0  0  0
   -1.3120   -0.2670    0.7920 C   0  0  1  0  0  0  0  0  0  0  0  0
   -1.2470   -0.2180    2.2490 C   0  0  0  0  0  0  0  0  0  0  0  0
   -0.2060   -0.7120    3.0130 C   0  0  0  0  0  0  0  0  0  0  0  0
   -0.1640   -0.6530    4.3900 C   0  0  0  0  0  0  0  0  0  0  0  0
   -1.2010   -0.0760    5.0730 C   0  0  0  0  0  0  0  0  0  0  0  0
   -1.1340   -0.0320    6.4270 F   0  0  0  0  0  0  0  0  0  0  0  0
   -2.2460    0.4240    4.3670 C   0  0  0  0  0  0  0  0  0  0  0  0
   -3.3640    1.0490    5.1450 C   0  0  1  0  0  0  0  0  0  0  0  0
   -4.3630    1.5210    4.3480 F   0  0  0  0  0  0  0  0  0  0  0  0
   -3.9080    0.1050    6.0070 F   0  0  0  0  0  0  0  0  0  0  0  0
   -2.7790    2.0590    5.9180 F   0  0  0  0  0  0  0  0  0  0  0  0
   -2.2730    0.3580    3.0120 C   0  0  0  0  0  0  0  0  0  0  0  0
   -2.6840   -0.9180    0.4060 C   0  0  2  0  0  0  0  0  0  0  0  0
   -2.7670   -2.3030    1.0410 C   0  0  0  0  0  0  0  0  0  0  0  0
   -2.6430   -2.2890    2.4160 O   0  0  0  0  0  0  0  0  0  0  0  0
   -2.8130   -1.1890   -1.0600 C   0  0  0  0  0  0  0  0  0  0  0  0
   -4.1930   -1.7690   -1.3920 C   0  0  0  0  0  0  0  0  0  0  0  0
   -4.3010   -2.0020   -2.8940 C   0  0  0  0  0  0  0  0  0  0  0  0
   -4.1320   -0.7890   -3.5570 O   0  0  0  0  0  0  0  0  0  0  0  0
   -0.3410   -1.0950    0.0430 C   0  0  0  0  0  0  0  0  0  0  0  0
    1.0250   -1.3940    0.0070 C   0  0  0  0  0  0  0  0  0  0  0  0
    2.3470   -0.9090    0.0990 C   0  0  2  0  0  0  0  0  0  0  0  0
    2.9260    0.4250   -0.0370 C   0  0  0  0  0  0  0  0  0  0  0  0
    3.1980   -1.5340   -1.0440 C   0  0  2  0  0  0  0  0  0  0  0  0
    2.6920   -2.8650   -1.5040 C   0  0  0  0  0  0  0  0  0  0  0  0
    4.6190   -1.6500   -0.6180 C   0  0  0  0  0  0  0  0  0  0  0  0
    4.6900   -2.4450    0.5340 O   0  0  0  0  0  0  0  0  0  0  0  0
    2.9820   -0.4640   -2.1340 C   0  0  0  0  0  0  0  0  0  0  0  0
  2  1  1  1
  2  3  1  0
  2 37  1  0
  2 42  1  0
  3  4  1  0
  4  5  1  6
  4  6  1  0
  6  7  1  1
  6  8  1  0
  8  9  2  0
  8 13  1  0
  9 10  1  0
 10 11  2  0
 10 15  1  0
 11 12  1  0
 12 13  2  0
 13 14  1  0
 15 16  1  1
 15 27  1  0
 15 34  1  0
 16 17  2  0
 16 26  1  0
 17 18  1  0
 18 19  2  0
 19 20  1  0
 19 21  1  0
 21 22  1  0
 21 26  2  0
 22 23  1  6
 22 24  1  0
 22 25  1  0
 27 28  1  1
 27 30  1  0
 28 29  1  0
 30 31  1  0
 31 32  1  0
 32 33  1  0
 34 35  1  0
 36 35  1  6
 36 37  1  0
 36 38  1  0
 38 39  1  6
 38 40  1  0
 38 42  1  0
 40 41  1  0
M  END
