
     RDKit          3D

 42 45  0  0  0  0  0  0  0  0999 V2000
   -3.9490    5.0820   -1.9620 C   0  0  0  0  0  0  0  0  0  0  0  0
   -3.6300    3.9380   -1.0580 C   0  0  0  0  0  0  0  0  0  0  0  0
   -4.5190    3.6040   -0.0950 C   0  0  0  0  0  0  0  0  0  0  0  0
   -4.2510    2.5070    0.7540 C   0  0  0  0  0  0  0  0  0  0  0  0
   -5.2190    2.3050    1.6810 F   0  0  0  0  0  0  0  0  0  0  0  0
   -3.0940    1.7450    0.6480 C   0  0  0  0  0  0  0  0  0  0  0  0
   -2.1910    2.0910   -0.3250 C   0  0  0  0  0  0  0  0  0  0  0  0
   -2.4970    3.1830   -1.1500 C   0  0  0  0  0  0  0  0  0  0  0  0
   -0.8780    1.4630   -0.6070 C   0  0  0  0  0  0  0  0  0  0  0  0
   -0.0320    1.1550    0.5480 C   0  0  0  0  0  0  0  0  0  0  0  0
   -0.0400    2.0560    1.4720 O   0  0  0  0  0  0  0  0  0  0  0  0
    0.7810   -0.0420    0.7150 N   0  0  0  0  0  0  0  0  0  0  0  0
    1.6060   -0.5900   -0.2810 C   0  0  2  0  0  0  0  0  0  0  0  0
    2.3560    0.5210   -1.0380 C   0  0  2  0  0  0  0  0  0  0  0  0
    2.8690    0.0700   -2.2690 O   0  0  0  0  0  0  0  0  0  0  0  0
    3.6310    0.8940   -0.2960 C   0  0  0  0  0  0  0  0  0  0  0  0
    3.7130    0.7970    1.0490 C   0  0  0  0  0  0  0  0  0  0  0  0
    4.9080    1.0880    1.7080 C   0  0  0  0  0  0  0  0  0  0  0  0
    5.9940    1.4740    0.9400 C   0  0  0  0  0  0  0  0  0  0  0  0
    7.2730    1.7670    1.6170 C   0  0  1  0  0  0  0  0  0  0  0  0
    7.5710    0.7230    2.4560 F   0  0  0  0  0  0  0  0  0  0  0  0
    8.2540    1.8630    0.6070 F   0  0  0  0  0  0  0  0  0  0  0  0
    7.2560    2.9330    2.3170 F   0  0  0  0  0  0  0  0  0  0  0  0
    5.8840    1.5660   -0.4460 C   0  0  0  0  0  0  0  0  0  0  0  0
    4.7130    1.2840   -1.0840 C   0  0  0  0  0  0  0  0  0  0  0  0
    1.2000   -1.6190   -1.2200 C   0  0  0  0  0  0  0  0  0  0  0  0
    2.2430   -1.9790   -2.1020 C   0  0  0  0  0  0  0  0  0  0  0  0
    2.1020   -2.7790   -3.1960 C   0  0  0  0  0  0  0  0  0  0  0  0
    3.1250   -3.0930   -4.0160 F   0  0  0  0  0  0  0  0  0  0  0  0
    0.8520   -3.3000   -3.4850 C   0  0  0  0  0  0  0  0  0  0  0  0
   -0.1680   -2.9680   -2.6270 C   0  0  0  0  0  0  0  0  0  0  0  0
   -0.0310   -2.1450   -1.4960 C   0  0  0  0  0  0  0  0  0  0  0  0
   -1.1740   -1.9090   -0.6590 O   0  0  0  0  0  0  0  0  0  0  0  0
   -1.0960   -2.5490    0.6840 C   0  0  2  0  0  0  0  0  0  0  0  0
   -1.5350   -3.9740    0.5070 C   0  0  0  0  0  0  0  0  0  0  0  0
   -1.3710   -4.9000    1.6540 C   0  0  0  0  0  0  0  0  0  0  0  0
   -1.9680   -4.6700    2.8270 F   0  0  0  0  0  0  0  0  0  0  0  0
   -2.1410   -1.7940    1.4930 C   0  0  2  0  0  0  0  0  0  0  0  0
   -3.0960   -2.6920    2.0420 O   0  0  0  0  0  0  0  0  0  0  0  0
   -2.8550   -0.7090    0.7220 C   0  0  0  0  0  0  0  0  0  0  0  0
   -2.9550    0.5660    1.5330 C   0  0  2  0  0  0  0  0  0  0  0  0
   -4.1630    0.4040    2.4330 C   0  0  0  0  0  0  0  0  0  0  0  0
  1  2  1  0
  2  3  2  0
  2  8  1  0
  3  4  1  0
  4  5  1  0
  4  6  2  0
  6  7  1  0
  6 41  1  0
  7  8  2  0
  7  9  1  0
  9 10  1  0
 10 11  2  0
 10 12  1  0
 13 12  1  6
 13 14  1  0
 13 26  1  0
 14 15  1  6
 14 16  1  0
 16 17  2  0
 16 25  1  0
 17 18  1  0
 18 19  2  0
 19 20  1  0
 19 24  1  0
 20 21  1  1
 20 22  1  0
 20 23  1  0
 24 25  2  0
 26 27  2  0
 26 32  1  0
 27 28  1  0
 28 29  1  0
 28 30  2  0
 30 31  1  0
 31 32  2  0
 32 33  1  0
 33 34  1  0
 34 35  1  6
 34 38  1  0
 35 36  1  0
 36 37  1  0
 38 39  1  6
 38 40  1  0
 40 41  1  0
 41 42  1  1
M  END
