
     RDKit          3D

 42 45  0  0  0  0  0  0  0  0999 V2000
    6.9100   -2.4750   -0.5930 C   0  0  0  0  0  0  0  0  0  0  0  0
    7.8240   -1.4970   -1.2510 C   0  0  0  0  0  0  0  0  0  0  0  0
    7.3520   -0.0630   -1.1420 C   0  0  0  0  0  0  0  0  0  0  0  0
    7.1980    0.4330    0.2570 C   0  0  1  0  0  0  0  0  0  0  0  0
    8.6110    0.3300    0.9000 C   0  0  0  0  0  0  0  0  0  0  0  0
    9.2930    1.4350    0.1190 C   0  0  0  0  0  0  0  0  0  0  0  0
    8.3050    2.2130   -0.4830 O   0  0  0  0  0  0  0  0  0  0  0  0
    7.1180    1.9440    0.2440 C   0  0  1  0  0  0  0  0  0  0  0  0
    5.9340    2.5490   -0.2890 C   0  0  0  0  0  0  0  0  0  0  0  0
    6.0170    3.9160   -0.6500 O   0  0  0  0  0  0  0  0  0  0  0  0
    4.7690    1.9820   -0.4800 C   0  0  0  0  0  0  0  0  0  0  0  0
    4.5430    0.6500   -0.1650 O   0  0  0  0  0  0  0  0  0  0  0  0
    3.6430    0.2650    0.8560 C   0  0  0  0  0  0  0  0  0  0  0  0
    3.6260    2.7480   -1.0460 C   0  0  0  0  0  0  0  0  0  0  0  0
    3.6530    3.8160   -1.9110 C   0  0  0  0  0  0  0  0  0  0  0  0
    2.3380    4.1660   -2.1310 C   0  0  0  0  0  0  0  0  0  0  0  0
    1.5570    3.3130   -1.4040 C   0  0  0  0  0  0  0  0  0  0  0  0
    0.0850    3.2980   -1.3190 C   0  0  0  0  0  0  0  0  0  0  0  0
   -0.5320    2.3670   -0.6440 C   0  0  0  0  0  0  0  0  0  0  0  0
   -1.9840    2.3180   -0.5290 C   0  0  0  0  0  0  0  0  0  0  0  0
   -2.7200    3.2150   -1.0540 O   0  0  0  0  0  0  0  0  0  0  0  0
   -2.6420    1.2670    0.1650 N   0  0  0  0  0  0  0  0  0  0  0  0
   -4.0690    1.2090    0.2820 C   0  0  0  0  0  0  0  0  0  0  0  0
   -4.5760   -0.0100    0.9610 C   0  0  1  0  0  0  0  0  0  0  0  0
   -6.0560    0.1170    1.0400 N   0  0  0  0  0  0  0  0  0  0  0  0
   -6.7620   -0.0850    2.2540 C   0  0  0  0  0  0  0  0  0  0  0  0
   -6.1360   -0.3710    3.2910 O   0  0  0  0  0  0  0  0  0  0  0  0
   -8.2490    0.0580    2.2200 C   0  0  1  0  0  0  0  0  0  0  0  0
   -8.7340   -1.0280    1.2660 C   0  0  0  0  0  0  0  0  0  0  0  0
   -9.0060   -2.1630    2.2100 C   0  0  0  0  0  0  0  0  0  0  0  0
   -9.2390   -1.4900    3.5220 C   0  0  0  0  0  0  0  0  0  0  0  0
   -8.8510   -0.1830    3.4230 O   0  0  0  0  0  0  0  0  0  0  0  0
   -4.3430   -1.2760    0.1860 C   0  0  0  0  0  0  0  0  0  0  0  0
   -4.9840   -2.4340    0.5860 C   0  0  0  0  0  0  0  0  0  0  0  0
   -4.8400   -3.6150   -0.1170 C   0  0  0  0  0  0  0  0  0  0  0  0
   -4.0500   -3.6760   -1.2450 C   0  0  0  0  0  0  0  0  0  0  0  0
   -3.9030   -4.8760   -1.9690 O   0  0  0  0  0  0  0  0  0  0  0  0
   -4.9780   -5.2210   -3.2860 S   0  0  0  0  0  0  0  0  0  0  0  0
   -5.3080   -3.9280   -4.0440 O   0  0  0  0  0  0  0  0  0  0  0  0
   -3.4070   -2.5290   -1.6490 C   0  0  0  0  0  0  0  0  0  0  0  0
   -3.5630   -1.3310   -0.9230 C   0  0  0  0  0  0  0  0  0  0  0  0
    2.3790    2.4950   -0.7820 O   0  0  0  0  0  0  0  0  0  0  0  0
  1  2  1  0
  2  3  1  0
  4  3  1  6
  4  5  1  0
  4  8  1  0
  5  6  1  0
  6  7  1  0
  7  8  1  0
  8  9  1  6
  9 10  1  0
  9 11  2  3
 11 12  1  0
 11 14  1  0
 12 13  1  0
 14 15  2  0
 14 42  1  0
 15 16  1  0
 16 17  2  0
 17 18  1  0
 17 42  1  0
 18 19  2  3
 19 20  1  0
 20 21  2  0
 20 22  1  0
 22 23  1  0
 24 23  1  6
 24 25  1  0
 24 33  1  0
 25 26  1  0
 26 27  2  0
 28 26  1  1
 28 29  1  0
 28 32  1  0
 29 30  1  0
 30 31  1  0
 31 32  1  0
 33 34  2  0
 33 41  1  0
 34 35  1  0
 35 36  2  0
 36 37  1  0
 36 40  1  0
 37 38  1  0
 38 39  2  0
 40 41  2  0
M  END
