
     RDKit          3D

 42 45  0  0  0  0  0  0  0  0999 V2000
    1.9800   -0.4170   -2.5340 C   0  0  0  0  0  0  0  0  0  0  0  0
    2.4140   -0.3580   -1.1760 O   0  0  0  0  0  0  0  0  0  0  0  0
    3.5980   -0.1560   -0.6480 C   0  0  0  0  0  0  0  0  0  0  0  0
    4.7600    0.1110   -1.2530 C   0  0  0  0  0  0  0  0  0  0  0  0
    5.9130    0.2970   -0.4810 C   0  0  0  0  0  0  0  0  0  0  0  0
    7.0890    0.5640   -1.1360 O   0  0  0  0  0  0  0  0  0  0  0  0
    5.8800    0.2060    0.9100 C   0  0  0  0  0  0  0  0  0  0  0  0
    7.0450    0.6050    1.7260 C   0  0  0  0  0  0  0  0  0  0  0  0
    7.0530    0.4980    2.9220 O   0  0  0  0  0  0  0  0  0  0  0  0
    8.1900    1.1470    1.1360 O   0  0  0  0  0  0  0  0  0  0  0  0
    9.3850    1.4540    1.8100 C   0  0  1  0  0  0  0  0  0  0  0  0
   10.4120    1.9520    0.8720 C   0  0  0  0  0  0  0  0  0  0  0  0
    9.1430    2.6140    2.7970 C   0  0  0  0  0  0  0  0  0  0  0  0
    8.8250    3.8600    2.3410 C   0  0  0  0  0  0  0  0  0  0  0  0
    8.4870    5.0960    1.8810 N   0  0  0  0  0  0  0  0  0  0  0  0
    4.6920   -0.0710    1.5580 C   0  0  0  0  0  0  0  0  0  0  0  0
    3.5200   -0.2540    0.7710 C   0  0  0  0  0  0  0  0  0  0  0  0
    2.1930   -0.2960    1.4210 C   0  0  0  0  0  0  0  0  0  0  0  0
    1.9270   -0.6500    2.5510 O   0  0  0  0  0  0  0  0  0  0  0  0
    1.1370    0.1540    0.6490 O   0  0  0  0  0  0  0  0  0  0  0  0
   -0.1920    0.3100    0.6820 C   0  0  0  0  0  0  0  0  0  0  0  0
   -0.9800   -1.0190    0.5280 C   0  0  0  0  0  0  0  0  0  0  0  0
   -2.3840   -0.6150    0.5420 N   0  0  0  0  0  0  0  0  0  0  0  0
   -3.1900   -0.6840    1.7050 C   0  0  0  0  0  0  0  0  0  0  0  0
   -4.0290   -1.9000    1.8450 C   0  0  2  0  0  0  0  0  0  0  0  0
   -4.8810   -1.8420    3.1440 C   0  0  0  0  0  0  0  0  0  0  0  0
   -5.2570   -3.3160    3.1760 C   0  0  0  0  0  0  0  0  0  0  0  0
   -4.0820   -4.0120    2.8900 O   0  0  0  0  0  0  0  0  0  0  0  0
   -3.3480   -3.1950    2.0090 C   0  0  0  0  0  0  0  0  0  0  0  0
   -2.8240   -0.1200   -0.7420 C   0  0  0  0  0  0  0  0  0  0  0  0
   -1.9580    0.0090   -1.6300 O   0  0  0  0  0  0  0  0  0  0  0  0
   -4.1860    0.2280   -1.0490 C   0  0  1  0  0  0  0  0  0  0  0  0
   -4.8220    1.8340   -0.6550 S   0  0  0  0  0  0  0  0  0  0  0  0
   -6.1190    1.7630   -1.9450 C   0  0  0  0  0  0  0  0  0  0  0  0
   -7.3230    2.4080   -2.0180 C   0  0  0  0  0  0  0  0  0  0  0  0
   -8.1740    2.1680   -3.1060 C   0  0  0  0  0  0  0  0  0  0  0  0
   -9.3990    2.7970   -3.2190 O   0  0  0  0  0  0  0  0  0  0  0  0
   -7.7460    1.2950   -4.0410 C   0  0  0  0  0  0  0  0  0  0  0  0
   -6.5360    0.6110   -4.0270 C   0  0  0  0  0  0  0  0  0  0  0  0
   -5.6840    0.8970   -2.8650 C   0  0  0  0  0  0  0  0  0  0  0  0
   -4.3730    0.2690   -2.6160 C   0  0  2  0  0  0  0  0  0  0  0  0
   -4.4560   -1.2280   -2.9980 C   0  0  0  0  0  0  0  0  0  0  0  0
  1  2  1  0
  2  3  1  0
  3  4  2  0
  3 17  1  0
  4  5  1  0
  5  6  1  0
  5  7  2  0
  7  8  1  0
  7 16  1  0
  8  9  2  0
  8 10  1  0
 10 11  1  0
 11 12  1  6
 11 13  1  0
 13 14  1  0
 14 15  3  0
 16 17  2  0
 17 18  1  0
 18 19  2  0
 18 20  1  0
 20 21  1  0
 21 22  1  0
 22 23  1  0
 23 24  1  0
 23 30  1  0
 25 24  1  1
 25 26  1  0
 25 29  1  0
 26 27  1  0
 27 28  1  0
 28 29  1  0
 30 31  2  0
 32 30  1  6
 32 33  1  0
 32 41  1  0
 33 34  1  0
 34 35  2  0
 34 40  1  0
 35 36  1  0
 36 37  1  0
 36 38  2  0
 38 39  1  0
 39 40  2  0
 40 41  1  0
 41 42  1  1
M  END
