
     RDKit          3D

 27 29  0  0  0  0  0  0  0  0999 V2000
    2.4400   -1.9300    1.1110 C   0  0  0  0  0  0  0  0  0  0  0  0
    1.5160   -0.7580    1.0430 C   0  0  2  0  0  0  0  0  0  0  0  0
    0.4990   -0.8200    0.0560 N   0  0  0  0  0  0  0  0  0  0  0  0
   -0.8170   -1.2630    0.5160 C   0  0  1  0  0  0  0  0  0  0  0  0
   -1.8210   -0.5930   -0.3560 C   0  0  0  0  0  0  0  0  0  0  0  0
   -2.6880   -1.3040   -1.1760 C   0  0  0  0  0  0  0  0  0  0  0  0
   -3.5240   -0.6370   -2.0720 C   0  0  0  0  0  0  0  0  0  0  0  0
   -3.5190    0.7250   -2.1720 C   0  0  0  0  0  0  0  0  0  0  0  0
   -2.6670    1.4540   -1.3660 C   0  0  0  0  0  0  0  0  0  0  0  0
   -2.7180    2.7970   -1.4710 N   0  0  0  0  0  0  0  0  0  0  0  0
   -1.9220    3.5560   -0.6670 C   0  0  0  0  0  0  0  0  0  0  0  0
   -1.9960    4.7950   -0.7930 O   0  0  0  0  0  0  0  0  0  0  0  0
   -1.0960    2.9110    0.2260 C   0  0  0  0  0  0  0  0  0  0  0  0
   -0.3640    3.6090    0.9680 O   0  0  0  0  0  0  0  0  0  0  0  0
   -1.0480    1.5490    0.3280 N   0  0  0  0  0  0  0  0  0  0  0  0
   -1.8240    0.8030   -0.4620 C   0  0  0  0  0  0  0  0  0  0  0  0
   -1.0250   -2.9670    0.5890 P   0  0  0  0  0  0  0  0  0  0  0  0
    0.3350   -3.9500    0.4110 O   0  0  0  0  0  0  0  0  0  0  0  0
   -2.5130   -3.6980    0.6270 O   0  0  0  0  0  0  0  0  0  0  0  0
   -0.9160   -3.2070    2.1200 O   0  0  0  0  0  0  0  0  0  0  0  0
    2.3560    0.4520    0.7420 C   0  0  0  0  0  0  0  0  0  0  0  0
    2.7580    1.3390    1.7160 C   0  0  0  0  0  0  0  0  0  0  0  0
    3.5290    2.4440    1.4190 C   0  0  0  0  0  0  0  0  0  0  0  0
    3.9310    2.7060    0.1250 C   0  0  0  0  0  0  0  0  0  0  0  0
    5.0070    4.2490   -0.2830 Br  0  0  0  0  0  0  0  0  0  0  0  0
    3.5370    1.8280   -0.8540 C   0  0  0  0  0  0  0  0  0  0  0  0
    2.7670    0.7260   -0.5550 C   0  0  0  0  0  0  0  0  0  0  0  0
  2  1  1  6
  2  3  1  0
  2 21  1  0
  4  3  1  6
  4  5  1  0
  4 17  1  0
  5  6  2  0
  5 16  1  0
  6  7  1  0
  7  8  2  0
  8  9  1  0
  9 10  1  0
  9 16  2  0
 10 11  1  0
 11 12  2  0
 11 13  1  0
 13 14  2  0
 13 15  1  0
 15 16  1  0
 17 18  1  0
 17 19  1  0
 17 20  1  0
 21 22  2  0
 21 27  1  0
 22 23  1  0
 23 24  2  0
 24 25  1  0
 24 26  1  0
 26 27  2  0
M  CHG  1   3   1
M  END
