
     RDKit          3D

 22 23  0  0  0  0  0  0  0  0999 V2000
    4.7330   -2.7300   -1.0450 N   0  0  0  0  0  0  0  0  0  0  0  0
    4.0260   -1.5780   -1.4650 C   0  0  0  0  0  0  0  0  0  0  0  0
    4.3740   -0.9930   -2.5160 O   0  0  0  0  0  0  0  0  0  0  0  0
    2.9300   -1.0760   -0.7170 N   0  0  0  0  0  0  0  0  0  0  0  0
    2.1900    0.0760   -1.0990 C   0  0  0  0  0  0  0  0  0  0  0  0
    2.5360    0.6670   -2.1530 O   0  0  0  0  0  0  0  0  0  0  0  0
    1.0320    0.5730   -0.2710 C   0  0  1  0  0  0  0  0  0  0  0  0
    1.4660    0.8300    1.1230 C   0  0  0  0  0  0  0  0  0  0  0  0
    2.4690    1.7810    1.2760 O   0  0  0  0  0  0  0  0  0  0  0  0
    2.4390    3.1200    0.9790 C   0  0  0  0  0  0  0  0  0  0  0  0
    1.3900    3.6070    0.5110 O   0  0  0  0  0  0  0  0  0  0  0  0
    3.5740    3.9350    1.1980 O   0  0  0  0  0  0  0  0  0  0  0  0
    0.5100    1.7060   -0.8900 O   0  0  0  0  0  0  0  0  0  0  0  0
   -0.8560    1.6310   -0.7740 N   0  0  0  0  0  0  0  0  0  0  0  0
   -1.2020    0.4320   -0.4590 C   0  0  0  0  0  0  0  0  0  0  0  0
   -2.6160    0.0200   -0.2580 C   0  0  2  0  0  0  0  0  0  0  0  0
   -2.8950   -0.5010    1.1140 C   0  0  0  0  0  0  0  0  0  0  0  0
   -4.2380   -1.2390    1.0420 C   0  0  0  0  0  0  0  0  0  0  0  0
   -4.9130   -0.8700   -0.2690 C   0  0  0  0  0  0  0  0  0  0  0  0
   -4.1370   -1.1510   -1.3640 O   0  0  0  0  0  0  0  0  0  0  0  0
   -2.8490   -1.0450   -1.1570 O   0  0  0  0  0  0  0  0  0  0  0  0
   -0.0520   -0.3380   -0.3540 O   0  0  0  0  0  0  0  0  0  0  0  0
  1  2  1  0
  2  3  2  0
  2  4  1  0
  4  5  1  0
  5  6  2  0
  5  7  1  0
  7  8  1  1
  7 13  1  0
  7 22  1  0
  8  9  1  0
  9 10  1  0
 10 11  2  0
 10 12  1  0
 13 14  1  0
 14 15  2  0
 16 15  1  1
 15 22  1  0
 16 17  1  0
 16 21  1  0
 17 18  1  0
 18 19  1  0
 19 20  1  0
 20 21  1  0
M  END
