
     RDKit          3D

 22 23  0  0  0  0  0  0  0  0999 V2000
   -3.9220   -0.8920   -2.8720 O   0  0  0  0  0  0  0  0  0  0  0  0
   -2.9980   -0.5060   -2.1240 C   0  0  0  0  0  0  0  0  0  0  0  0
   -2.9680    0.8320   -1.6540 N   0  0  0  0  0  0  0  0  0  0  0  0
   -1.8930    1.2210   -0.8040 C   0  0  0  0  0  0  0  0  0  0  0  0
   -1.7730    2.4030   -0.3880 O   0  0  0  0  0  0  0  0  0  0  0  0
   -0.8350    0.2630   -0.3480 C   0  0  1  0  0  0  0  0  0  0  0  0
    0.4860    0.9170   -0.7460 C   0  0  0  0  0  0  0  0  0  0  0  0
    1.5720    0.2120   -0.2450 O   0  0  0  0  0  0  0  0  0  0  0  0
    2.7190    0.8790   -0.6570 C   0  0  0  0  0  0  0  0  0  0  0  0
    3.9500    0.1470   -0.1340 C   0  0  0  0  0  0  0  0  0  0  0  0
    3.9330   -1.1340   -0.6490 O   0  0  0  0  0  0  0  0  0  0  0  0
    4.9720   -1.8280   -0.2380 O   0  0  0  0  0  0  0  0  0  0  0  0
    5.7720   -1.0870    0.5040 O   0  0  0  0  0  0  0  0  0  0  0  0
   -0.9340    0.2260    1.1000 N   0  0  0  0  0  0  0  0  0  0  0  0
   -2.1550   -0.1930    1.7000 C   0  0  0  0  0  0  0  0  0  0  0  0
   -2.4150   -0.2840    3.0620 C   0  0  0  0  0  0  0  0  0  0  0  0
   -3.7110   -0.7280    3.1950 C   0  0  0  0  0  0  0  0  0  0  0  0
   -4.1750   -0.8840    1.9390 N   0  0  0  0  0  0  0  0  0  0  0  0
   -3.2470   -0.5650    1.1150 O   0  0  0  0  0  0  0  0  0  0  0  0
   -0.9050   -1.0810   -0.9490 C   0  0  2  0  0  0  0  0  0  0  0  0
    0.2420   -1.3580   -1.7190 O   0  0  0  0  0  0  0  0  0  0  0  0
   -2.0120   -1.3580   -1.7520 O   0  0  0  0  0  0  0  0  0  0  0  0
  1  2  2  0
  2  3  1  0
  2 22  1  0
  3  4  1  0
  4  5  2  0
  4  6  1  0
  6  7  1  1
  6 14  1  0
  6 20  1  0
  7  8  1  0
  8  9  1  0
  9 10  1  0
 10 11  1  0
 11 12  1  0
 12 13  1  0
 14 15  1  0
 15 16  2  0
 15 19  1  0
 16 17  1  0
 17 18  2  0
 18 19  1  0
 20 21  1  6
 20 22  1  0
M  END
