
     RDKit          3D

 22 23  0  0  0  0  0  0  0  0999 V2000
   -3.7130    1.0340    0.4770 O   0  0  0  0  0  0  0  0  0  0  0  0
   -3.4500   -0.0430    1.0430 C   0  0  0  0  0  0  0  0  0  0  0  0
   -4.3380   -0.5410    2.0100 O   0  0  0  0  0  0  0  0  0  0  0  0
   -2.2590   -0.7270    0.6900 N   0  0  0  0  0  0  0  0  0  0  0  0
   -1.3870   -0.1400   -0.3270 C   0  0  2  0  0  0  0  0  0  0  0  0
   -2.1480    0.0130   -1.6470 C   0  0  0  0  0  0  0  0  0  0  0  0
   -1.2170   -0.3300   -2.6500 O   0  0  0  0  0  0  0  0  0  0  0  0
   -0.2510   -1.1650   -2.0460 C   0  0  0  0  0  0  0  0  0  0  0  0
    0.5730   -1.7910   -2.7650 O   0  0  0  0  0  0  0  0  0  0  0  0
   -0.4120   -1.1310   -0.6410 N   0  0  0  0  0  0  0  0  0  0  0  0
    0.2220   -1.8980    0.3900 C   0  0  0  0  0  0  0  0  0  0  0  0
    1.7200   -2.0600    0.1650 C   0  0  0  0  0  0  0  0  0  0  0  0
    2.1880   -1.1670   -0.7830 O   0  0  0  0  0  0  0  0  0  0  0  0
    3.3280   -0.5110   -0.3260 C   0  0  0  0  0  0  0  0  0  0  0  0
    3.2770    0.8000   -0.7780 O   0  0  0  0  0  0  0  0  0  0  0  0
    3.2340    1.7070    0.1750 O   0  0  0  0  0  0  0  0  0  0  0  0
    2.4190    2.7950    0.2690 C   0  0  0  0  0  0  0  0  0  0  0  0
    2.8280    4.0070    0.3570 O   0  0  0  0  0  0  0  0  0  0  0  0
    1.0100    2.6260    0.2720 N   0  0  0  0  0  0  0  0  0  0  0  0
    0.3420    1.4630    0.8340 C   0  0  0  0  0  0  0  0  0  0  0  0
   -0.8740    1.1730    0.0340 C   0  0  0  0  0  0  0  0  0  0  0  0
   -1.4870    2.1580   -0.3480 O   0  0  0  0  0  0  0  0  0  0  0  0
  1  2  2  0
  2  3  1  0
  2  4  1  0
  5  4  1  1
  5  6  1  0
  5 10  1  0
  5 21  1  0
  6  7  1  0
  7  8  1  0
  8  9  2  0
  8 10  1  0
 10 11  1  0
 11 12  1  0
 12 13  1  0
 13 14  1  0
 14 15  1  0
 15 16  1  0
 16 17  1  0
 17 18  2  0
 17 19  1  0
 19 20  1  0
 20 21  1  0
 21 22  2  0
M  END
