
     RDKit          3D

 22 22  0  0  0  0  0  0  0  0999 V2000
   -3.0650    3.8690    0.2990 O   0  0  0  0  0  0  0  0  0  0  0  0
   -2.0410    2.9270    0.3950 C   0  0  0  0  0  0  0  0  0  0  0  0
   -1.6590    2.5160   -0.9920 C   0  0  0  0  0  0  0  0  0  0  0  0
   -0.6440    1.5760   -1.0650 O   0  0  0  0  0  0  0  0  0  0  0  0
   -0.6720    0.3100   -0.5230 C   0  0  0  0  0  0  0  0  0  0  0  0
    0.4030   -0.3380   -0.1950 C   0  0  0  0  0  0  0  0  0  0  0  0
    1.6760    0.3250   -0.4210 N   0  0  0  0  0  0  0  0  0  0  0  0
    2.0990    1.2080    0.6410 C   0  0  0  0  0  0  0  0  0  0  0  0
    3.4200    1.8620    0.3480 C   0  0  0  0  0  0  0  0  0  0  0  0
    3.3760    2.6290   -0.8150 O   0  0  0  0  0  0  0  0  0  0  0  0
    4.5340    3.1970   -1.0630 O   0  0  0  0  0  0  0  0  0  0  0  0
    0.3980   -1.6900    0.3840 C   0  0  1  0  0  0  0  0  0  0  0  0
    1.0840   -2.6000   -0.6530 C   0  0  0  0  0  0  0  0  0  0  0  0
    1.0720   -3.8890   -0.1150 O   0  0  0  0  0  0  0  0  0  0  0  0
    1.6280   -4.7570   -0.9060 O   0  0  0  0  0  0  0  0  0  0  0  0
    1.1330   -1.7430    1.5780 O   0  0  0  0  0  0  0  0  0  0  0  0
    1.0660   -2.9880    2.0120 O   0  0  0  0  0  0  0  0  0  0  0  0
   -0.9180   -2.2030    0.5430 N   0  0  0  0  0  0  0  0  0  0  0  0
   -1.9870   -1.6310    0.2480 C   0  0  0  0  0  0  0  0  0  0  0  0
   -3.3560   -2.2230    0.4390 C   0  0  0  0  0  0  0  0  0  0  0  0
   -4.0490   -1.3720    1.3020 O   0  0  0  0  0  0  0  0  0  0  0  0
   -1.9410   -0.3170   -0.3140 N   0  0  0  0  0  0  0  0  0  0  0  0
  1  2  1  0
  2  3  1  0
  3  4  1  0
  4  5  1  0
  5  6  2  0
  5 22  1  0
  6  7  1  0
  6 12  1  0
  7  8  1  0
  8  9  1  0
  9 10  1  0
 10 11  1  0
 12 13  1  6
 12 16  1  0
 12 18  1  0
 13 14  1  0
 14 15  1  0
 16 17  1  0
 18 19  2  0
 19 20  1  0
 19 22  1  0
 20 21  1  0
M  END
