
     RDKit          3D

 22 22  0  0  0  0  0  0  0  0999 V2000
   -3.6030   -0.1650    1.6930 O   0  0  0  0  0  0  0  0  0  0  0  0
   -3.3460   -0.0780    0.5390 C   0  0  0  0  0  0  0  0  0  0  0  0
   -4.1030   -0.2900   -0.6550 N   0  0  0  0  0  0  0  0  0  0  0  0
   -5.5990   -0.7110    0.1290 C   0  0  0  0  0  0  0  0  0  0  0  0
   -5.5420   -0.7000    1.2850 O   0  0  0  0  0  0  0  0  0  0  0  0
   -6.5730   -0.9800   -0.7770 O   0  0  0  0  0  0  0  0  0  0  0  0
   -7.8300   -1.3280   -0.2920 O   0  0  0  0  0  0  0  0  0  0  0  0
   -8.0250   -2.6130   -0.4270 O   0  0  0  0  0  0  0  0  0  0  0  0
   -1.9530    0.3340    0.1270 N   0  0  0  0  0  0  0  0  0  0  0  0
   -1.0760    0.6350    1.1620 C   0  0  1  0  0  0  0  0  0  0  0  0
   -0.4940   -0.6040    1.5840 O   0  0  0  0  0  0  0  0  0  0  0  0
    0.0130    1.5400    0.7970 C   0  0  0  0  0  0  0  0  0  0  0  0
   -0.1340    2.6330    0.1940 O   0  0  0  0  0  0  0  0  0  0  0  0
    1.2970    1.1800    1.1280 O   0  0  0  0  0  0  0  0  0  0  0  0
    2.4850    1.8760    0.8660 C   0  0  0  0  0  0  0  0  0  0  0  0
    2.7620    1.9760   -0.6430 C   0  0  0  0  0  0  0  0  0  0  0  0
    2.8730    0.7110   -1.1840 O   0  0  0  0  0  0  0  0  0  0  0  0
    3.8890   -0.1760   -0.9060 C   0  0  0  0  0  0  0  0  0  0  0  0
    4.9800    0.0380   -0.0980 C   0  0  0  0  0  0  0  0  0  0  0  0
    5.6980   -1.1690   -0.1460 C   0  0  0  0  0  0  0  0  0  0  0  0
    5.0320   -2.0450   -0.9630 C   0  0  0  0  0  0  0  0  0  0  0  0
    3.9340   -1.4310   -1.4200 N   0  0  0  0  0  0  0  0  0  0  0  0
  1  2  2  0
  2  3  1  0
  2  9  1  0
  3  4  1  0
  4  5  2  0
  4  6  1  0
  6  7  1  0
  7  8  1  0
  9 10  1  0
 10 11  1  6
 10 12  1  0
 12 13  2  0
 12 14  1  0
 14 15  1  0
 15 16  1  0
 16 17  1  0
 17 18  1  0
 18 19  2  0
 18 22  1  0
 19 20  1  0
 20 21  2  0
 21 22  1  0
M  END
