
     RDKit          3D

 10 10  0  0  0  0  0  0  0  0999 V2000
    1.7860    0.4890    1.2550 C   0  0  0  0  0  0  0  0  0  0  0  0
    1.9640   -0.1740    0.1270 C   0  0  0  0  0  0  0  0  0  0  0  0
    3.5890   -0.7350   -0.3060 S   0  0  0  0  0  0  0  0  0  0  0  0
    0.4870   -0.4630   -0.9170 P   0  0  0  0  0  0  0  0  0  0  0  0
   -0.6300   -1.6570   -0.1750 C   0  0  0  0  0  0  0  0  0  0  0  0
   -2.3690   -1.1890    0.0220 P   0  0  0  0  0  0  0  0  0  0  0  0
   -2.7530    0.5460   -0.2660 C   0  0  0  0  0  0  0  0  0  0  0  0
   -3.9160    0.8950   -0.3070 O   0  0  0  0  0  0  0  0  0  0  0  0
   -1.4360    1.7620   -0.4930 P   0  0  0  0  0  0  0  0  0  0  0  0
   -0.1760    1.0300   -1.5200 N   0  0  0  0  0  0  0  0  0  0  0  0
  1  2  2  0
  2  3  1  0
  2  4  1  0
  4  5  1  0
  4 10  1  0
  5  6  1  0
  6  7  1  0
  7  8  2  0
  7  9  1  0
  9 10  1  0
M  END
