
     RDKit          3D

 21 23  0  0  0  0  0  0  0  0999 V2000
   -5.5490    2.7130    0.3940 N   0  0  0  0  0  0  0  0  0  0  0  0
   -4.6500    2.0260   -0.4550 C   0  0  0  0  0  0  0  0  0  0  0  0
   -4.4430    2.3650   -1.6590 O   0  0  0  0  0  0  0  0  0  0  0  0
   -3.9490    0.9080    0.0590 N   0  0  0  0  0  0  0  0  0  0  0  0
   -3.0330    0.1900   -0.7680 C   0  0  2  0  0  0  0  0  0  0  0  0
   -3.3400   -1.2910   -0.8440 C   0  0  0  0  0  0  0  0  0  0  0  0
   -2.7110   -2.0220    0.3190 C   0  0  0  0  0  0  0  0  0  0  0  0
   -1.1910   -2.0560    0.1170 C   0  0  0  0  0  0  0  0  0  0  0  0
   -0.8310   -0.8380   -0.6690 C   0  0  2  0  0  0  0  0  0  0  0  0
    0.6310   -0.5440   -0.7380 C   0  0  0  0  0  0  0  0  0  0  0  0
    1.2410   -0.3230    0.6310 C   0  0  0  0  0  0  0  0  0  0  0  0
    2.7030   -0.0370    0.4360 C   0  0  0  0  0  0  0  0  0  0  0  0
    3.2000    1.1970    0.2630 N   0  0  0  0  0  0  0  0  0  0  0  0
    4.5250    1.1180    0.1180 C   0  0  0  0  0  0  0  0  0  0  0  0
    5.4860    2.0410   -0.0790 N   0  0  0  0  0  0  0  0  0  0  0  0
    6.7590    1.6480   -0.1880 C   0  0  0  0  0  0  0  0  0  0  0  0
    7.0700    0.3020   -0.0970 C   0  0  0  0  0  0  0  0  0  0  0  0
    6.1230   -0.6270    0.1000 N   0  0  0  0  0  0  0  0  0  0  0  0
    4.8590   -0.2350    0.2080 C   0  0  0  0  0  0  0  0  0  0  0  0
    3.7010   -0.9140    0.4050 N   0  0  0  0  0  0  0  0  0  0  0  0
   -1.6180    0.3640   -0.2000 C   0  0  0  0  0  0  0  0  0  0  0  0
  1  2  1  0
  2  3  2  0
  2  4  1  0
  5  4  1  1
  5  6  1  0
  5 21  1  0
  6  7  1  0
  7  8  1  0
  8  9  1  0
  9 10  1  1
  9 21  1  0
 10 11  1  0
 11 12  1  0
 12 13  2  0
 12 20  1  0
 13 14  1  0
 14 15  2  0
 14 19  1  0
 15 16  1  0
 16 17  2  0
 17 18  1  0
 18 19  2  0
 19 20  1  0
M  END
