
     RDKit          3D

 21 23  0  0  0  0  0  0  0  0999 V2000
    2.2750   -0.9810    0.7140 O   0  0  0  0  0  0  0  0  0  0  0  0
    2.0060   -0.0810   -0.1170 C   0  0  0  0  0  0  0  0  0  0  0  0
    0.6510    0.1450   -0.4380 N   0  0  0  0  0  0  0  0  0  0  0  0
   -0.4110   -0.6360    0.1630 C   0  0  0  0  0  0  0  0  0  0  0  0
   -1.7610   -0.1570   -0.3720 C   0  0  2  0  0  0  0  0  0  0  0  0
   -1.9560    1.2560   -0.0390 C   0  0  0  0  0  0  0  0  0  0  0  0
   -1.0150    2.0380    0.5220 N   0  0  0  0  0  0  0  0  0  0  0  0
   -1.4930    3.2650    0.6950 C   0  0  0  0  0  0  0  0  0  0  0  0
   -2.7870    3.2910    0.2340 C   0  0  0  0  0  0  0  0  0  0  0  0
   -3.0250    2.0430   -0.2040 N   0  0  0  0  0  0  0  0  0  0  0  0
   -2.7420   -1.0670   -0.0030 N   0  0  0  0  0  0  0  0  0  0  0  0
   -3.0380   -1.3020    1.3530 C   0  0  0  0  0  0  0  0  0  0  0  0
   -4.0740   -2.4330    1.2430 C   0  0  0  0  0  0  0  0  0  0  0  0
   -4.8870   -1.9970    0.0680 C   0  0  0  0  0  0  0  0  0  0  0  0
   -3.8530   -1.3210   -0.8210 C   0  0  0  0  0  0  0  0  0  0  0  0
    3.0630    0.6940   -0.7210 N   0  0  0  0  0  0  0  0  0  0  0  0
    4.4130    0.4310   -0.3580 C   0  0  0  0  0  0  0  0  0  0  0  0
    5.4130    0.0380   -1.1270 C   0  0  0  0  0  0  0  0  0  0  0  0
    6.6130   -0.0950   -0.2790 C   0  0  0  0  0  0  0  0  0  0  0  0
    6.3500    0.8280    0.8090 N   0  0  0  0  0  0  0  0  0  0  0  0
    4.9230    0.5820    1.0540 C   0  0  0  0  0  0  0  0  0  0  0  0
  1  2  2  0
  2  3  1  0
  2 16  1  0
  3  4  1  0
  5  4  1  1
  5  6  1  0
  5 11  1  0
  6  7  2  0
  6 10  1  0
  7  8  1  0
  8  9  2  0
  9 10  1  0
 11 12  1  0
 11 15  1  0
 12 13  1  0
 13 14  1  0
 14 15  1  0
 16 17  1  0
 17 18  2  0
 17 21  1  0
 18 19  1  0
 19 20  1  0
 20 21  1  0
M  END
