
     RDKit          3D

 21 23  0  0  0  0  0  0  0  0999 V2000
    5.1400    1.6160   -0.2480 C   0  0  0  0  0  0  0  0  0  0  0  0
    3.8410    0.8230   -0.3050 C   0  0  0  0  0  0  0  0  0  0  0  0
    3.6840   -0.1150   -1.1990 C   0  0  0  0  0  0  0  0  0  0  0  0
    2.4460   -0.8820   -1.2640 C   0  0  0  0  0  0  0  0  0  0  0  0
    2.3260   -1.9270   -2.2950 C   0  0  0  0  0  0  0  0  0  0  0  0
    1.4490   -0.6730   -0.4450 C   0  0  0  0  0  0  0  0  0  0  0  0
    0.1920   -1.4540   -0.5140 C   0  0  1  0  0  0  0  0  0  0  0  0
    0.0480   -2.2370    0.6930 N   0  0  0  0  0  0  0  0  0  0  0  0
   -1.0750   -2.1990    1.5460 C   0  0  0  0  0  0  0  0  0  0  0  0
   -1.1560   -2.9020    2.5920 O   0  0  0  0  0  0  0  0  0  0  0  0
   -2.1450   -1.3400    1.2130 N   0  0  0  0  0  0  0  0  0  0  0  0
   -2.0970   -0.5400    0.0580 C   0  0  0  0  0  0  0  0  0  0  0  0
   -0.9910   -0.5930   -0.7600 C   0  0  0  0  0  0  0  0  0  0  0  0
   -1.2660    0.2760   -1.7490 N   0  0  0  0  0  0  0  0  0  0  0  0
   -2.4550    0.8220   -1.5510 N   0  0  0  0  0  0  0  0  0  0  0  0
   -2.9980    0.3460   -0.4480 N   0  0  0  0  0  0  0  0  0  0  0  0
   -4.3030    0.6810    0.1380 C   0  0  0  0  0  0  0  0  0  0  0  0
   -4.1440    1.8450    1.0920 C   0  0  0  0  0  0  0  0  0  0  0  0
   -5.4890    2.1100    1.6290 N   0  0  0  0  0  0  0  0  0  0  0  0
    1.5680    0.3670    0.5920 C   0  0  0  0  0  0  0  0  0  0  0  0
    2.7980    1.1560    0.6610 C   0  0  0  0  0  0  0  0  0  0  0  0
  1  2  1  0
  2  3  2  0
  2 21  1  0
  3  4  1  0
  4  5  1  0
  4  6  2  0
  7  6  1  1
  6 20  1  0
  7  8  1  0
  7 13  1  0
  8  9  1  0
  9 10  2  0
  9 11  1  0
 11 12  1  0
 12 13  2  0
 12 16  1  0
 13 14  1  0
 14 15  2  0
 15 16  1  0
 16 17  1  0
 17 18  1  0
 18 19  1  0
 20 21  1  0
M  END
