
     RDKit          3D

 21 23  0  0  0  0  0  0  0  0999 V2000
    4.7540    0.7610    1.5060 C   0  0  0  0  0  0  0  0  0  0  0  0
    4.0010    0.7600    0.3440 O   0  0  0  0  0  0  0  0  0  0  0  0
    3.4500   -0.4470    0.0270 C   0  0  2  0  0  0  0  0  0  0  0  0
    3.9580   -1.0150   -1.2870 C   0  0  0  0  0  0  0  0  0  0  0  0
    3.7460   -0.1110   -2.3940 N   0  0  0  0  0  0  0  0  0  0  0  0
    2.6730    0.8010   -2.1280 C   0  0  0  0  0  0  0  0  0  0  0  0
    1.5110    0.1420   -1.4220 C   0  0  0  0  0  0  0  0  0  0  0  0
    1.9400   -0.4080   -0.0830 C   0  0  2  0  0  0  0  0  0  0  0  0
    1.3340    0.2960    1.0250 N   0  0  0  0  0  0  0  0  0  0  0  0
   -0.0840    0.3970    1.0300 C   0  0  0  0  0  0  0  0  0  0  0  0
   -0.7870   -0.3240    0.1970 N   0  0  0  0  0  0  0  0  0  0  0  0
   -2.1860   -0.2650    0.1570 C   0  0  0  0  0  0  0  0  0  0  0  0
   -2.9280   -1.3970    0.4330 C   0  0  0  0  0  0  0  0  0  0  0  0
   -4.3150   -1.3870    0.4060 C   0  0  0  0  0  0  0  0  0  0  0  0
   -5.2500   -2.3190    0.6280 N   0  0  0  0  0  0  0  0  0  0  0  0
   -6.4680   -1.7730    0.4670 C   0  0  0  0  0  0  0  0  0  0  0  0
   -6.2890   -0.4880    0.1420 N   0  0  0  0  0  0  0  0  0  0  0  0
   -4.9610   -0.2060    0.0930 C   0  0  0  0  0  0  0  0  0  0  0  0
   -4.2510    0.9570   -0.1910 C   0  0  0  0  0  0  0  0  0  0  0  0
   -2.8780    0.8850   -0.1480 C   0  0  0  0  0  0  0  0  0  0  0  0
   -2.1180    2.0530   -0.4330 N   0  0  0  0  0  0  0  0  0  0  0  0
  1  2  1  0
  3  2  1  6
  3  4  1  0
  3  8  1  0
  4  5  1  0
  5  6  1  0
  6  7  1  0
  7  8  1  0
  8  9  1  1
  9 10  1  0
 10 11  2  3
 11 12  1  0
 12 13  2  0
 12 20  1  0
 13 14  1  0
 14 15  1  0
 14 18  2  0
 15 16  2  0
 16 17  1  0
 17 18  1  0
 18 19  1  0
 19 20  2  0
 20 21  1  0
M  END
