
     RDKit          3D

 21 23  0  0  0  0  0  0  0  0999 V2000
    6.4350    2.2300    1.0470 N   0  0  0  0  0  0  0  0  0  0  0  0
    6.3010    0.9640    0.4430 C   0  0  0  0  0  0  0  0  0  0  0  0
    7.4490    0.2840    0.0250 C   0  0  0  0  0  0  0  0  0  0  0  0
    7.3060   -0.9530   -0.5640 C   0  0  0  0  0  0  0  0  0  0  0  0
    6.0910   -1.4760   -0.7230 N   0  0  0  0  0  0  0  0  0  0  0  0
    4.9730   -0.8470   -0.3320 C   0  0  0  0  0  0  0  0  0  0  0  0
    3.6840   -1.4420   -0.5200 N   0  0  0  0  0  0  0  0  0  0  0  0
    2.5180   -0.7500   -0.0940 C   0  0  0  0  0  0  0  0  0  0  0  0
    2.6320    0.3810    0.4450 O   0  0  0  0  0  0  0  0  0  0  0  0
    1.2090   -1.2790   -0.2490 N   0  0  0  0  0  0  0  0  0  0  0  0
    0.0740   -0.5060    0.2140 C   0  0  0  0  0  0  0  0  0  0  0  0
   -1.2300   -1.1990   -0.0210 C   0  0  0  0  0  0  0  0  0  0  0  0
   -2.3290   -0.2830    0.5080 C   0  0  2  0  0  0  0  0  0  0  0  0
   -3.6780   -0.9440    0.2920 C   0  0  0  0  0  0  0  0  0  0  0  0
   -4.1790   -0.2910   -0.9540 C   0  0  1  0  0  0  0  0  0  0  0  0
   -5.6850   -0.1420   -0.9800 C   0  0  0  0  0  0  0  0  0  0  0  0
   -5.9290    0.7990    0.1560 C   0  0  0  0  0  0  0  0  0  0  0  0
   -4.6830    1.6390    0.1850 C   0  0  0  0  0  0  0  0  0  0  0  0
   -3.7610    1.0900   -0.7710 N   0  0  0  0  0  0  0  0  0  0  0  0
   -2.4080    0.9930   -0.2730 C   0  0  0  0  0  0  0  0  0  0  0  0
    5.1220    0.3590    0.2420 N   0  0  0  0  0  0  0  0  0  0  0  0
  1  2  1  0
  2  3  2  0
  2 21  1  0
  3  4  1  0
  4  5  2  0
  5  6  1  0
  6  7  1  0
  6 21  2  0
  7  8  1  0
  8  9  2  0
  8 10  1  0
 10 11  1  0
 11 12  1  0
 13 12  1  6
 13 14  1  0
 13 20  1  0
 15 14  1  1
 15 16  1  0
 15 19  1  0
 16 17  1  0
 17 18  1  0
 18 19  1  0
 19 20  1  0
M  END
