
     RDKit          3D

 21 23  0  0  0  0  0  0  0  0999 V2000
   -5.4550    1.5070    1.1170 N   0  0  0  0  0  0  0  0  0  0  0  0
   -4.6000    0.9090    0.0790 C   0  0  0  0  0  0  0  0  0  0  0  0
   -3.1890    0.9090    0.5470 C   0  0  0  0  0  0  0  0  0  0  0  0
   -2.2770    0.3260   -0.4850 C   0  0  2  0  0  0  0  0  0  0  0  0
   -2.6560   -1.0850   -0.7850 C   0  0  0  0  0  0  0  0  0  0  0  0
   -2.5040   -1.8960    0.4740 C   0  0  0  0  0  0  0  0  0  0  0  0
   -1.1420   -1.7480    1.0980 C   0  0  0  0  0  0  0  0  0  0  0  0
   -0.6230   -0.3440    1.0630 C   0  0  0  0  0  0  0  0  0  0  0  0
   -0.8920    0.4000   -0.1080 N   0  0  0  0  0  0  0  0  0  0  0  0
   -0.0480    0.0780   -1.2000 C   0  0  0  0  0  0  0  0  0  0  0  0
    1.3880    0.3310   -0.9420 C   0  0  0  0  0  0  0  0  0  0  0  0
    1.9270    1.5670   -1.2060 C   0  0  0  0  0  0  0  0  0  0  0  0
    3.2820    1.8260   -0.9700 C   0  0  0  0  0  0  0  0  0  0  0  0
    4.0760    0.8220   -0.4680 C   0  0  0  0  0  0  0  0  0  0  0  0
    3.5090   -0.4010   -0.2150 C   0  0  0  0  0  0  0  0  0  0  0  0
    2.2020   -0.6150   -0.4540 N   0  0  0  0  0  0  0  0  0  0  0  0
    4.3180   -1.4510    0.3060 N   0  0  0  0  0  0  0  0  0  0  0  0
    5.6660   -1.2340    0.5530 N   0  0  0  0  0  0  0  0  0  0  0  0
    6.2560    0.0330    0.2920 C   0  0  0  0  0  0  0  0  0  0  0  0
    7.4790    0.2080    0.5230 O   0  0  0  0  0  0  0  0  0  0  0  0
    5.4570    1.0830   -0.2260 N   0  0  0  0  0  0  0  0  0  0  0  0
  1  2  1  0
  2  3  1  0
  4  3  1  1
  4  5  1  0
  4  9  1  0
  5  6  1  0
  6  7  1  0
  7  8  1  0
  8  9  1  0
  9 10  1  0
 10 11  1  0
 11 12  2  0
 11 16  1  0
 12 13  1  0
 13 14  2  0
 14 15  1  0
 14 21  1  0
 15 16  2  0
 15 17  1  0
 17 18  1  0
 18 19  1  0
 19 20  2  0
 19 21  1  0
M  END
