
     RDKit          3D

 21 23  0  0  0  0  0  0  0  0999 V2000
    4.6310    2.8810    0.3810 C   0  0  0  0  0  0  0  0  0  0  0  0
    3.4970    2.2690    0.3050 O   0  0  0  0  0  0  0  0  0  0  0  0
    2.4410    1.5300    0.2270 C   0  0  0  0  0  0  0  0  0  0  0  0
    2.5890    0.1630    0.1880 N   0  0  0  0  0  0  0  0  0  0  0  0
    1.5740   -0.6970    0.1090 C   0  0  0  0  0  0  0  0  0  0  0  0
    1.8610   -2.1720    0.0740 C   0  0  1  0  0  0  0  0  0  0  0  0
    2.9180   -2.6270   -0.9170 C   0  0  0  0  0  0  0  0  0  0  0  0
    3.1420   -2.6870    0.5670 C   0  0  0  0  0  0  0  0  0  0  0  0
    0.3160   -0.2120    0.0640 N   0  0  0  0  0  0  0  0  0  0  0  0
    0.0510    1.1020    0.0960 C   0  0  0  0  0  0  0  0  0  0  0  0
   -1.2620    1.5850    0.0460 N   0  0  0  0  0  0  0  0  0  0  0  0
   -2.4380    0.7600   -0.0440 C   0  0  1  0  0  0  0  0  0  0  0  0
   -2.3210   -0.0670   -1.3330 C   0  0  0  0  0  0  0  0  0  0  0  0
   -3.7070   -0.6150   -1.5860 C   0  0  0  0  0  0  0  0  0  0  0  0
   -4.0860   -1.5890   -0.5080 C   0  0  0  0  0  0  0  0  0  0  0  0
   -3.2430   -1.4850    0.6960 C   0  0  0  0  0  0  0  0  0  0  0  0
   -3.0860   -2.5180    1.4460 N   0  0  0  0  0  0  0  0  0  0  0  0
   -2.5770   -0.2100    1.0510 C   0  0  0  0  0  0  0  0  0  0  0  0
   -2.1870   -0.0640    2.2540 N   0  0  0  0  0  0  0  0  0  0  0  0
    1.1120    1.9570    0.1770 C   0  0  0  0  0  0  0  0  0  0  0  0
    0.9050    3.3490    0.2140 N   0  0  0  0  0  0  0  0  0  0  0  0
  1  2  1  0
  2  3  1  0
  3  4  2  0
  3 20  1  0
  4  5  1  0
  6  5  1  6
  5  9  2  0
  6  7  1  0
  6  8  1  0
  7  8  1  0
  9 10  1  0
 10 11  1  0
 10 20  2  0
 12 11  1  1
 12 13  1  0
 12 18  1  0
 13 14  1  0
 14 15  1  0
 15 16  1  0
 16 17  2  0
 16 18  1  0
 18 19  2  0
 20 21  1  0
M  END
