
     RDKit          3D

 12 12  0  0  0  0  0  0  0  0999 V2000
   -3.9000    0.1990   -0.6840 O   0  0  0  0  0  0  0  0  0  0  0  0
   -2.9530   -0.6360   -0.1200 C   0  0  0  0  0  0  0  0  0  0  0  0
   -1.5860    0.0140   -0.2610 C   0  0  0  0  0  0  0  0  0  0  0  0
   -1.6030    1.4660   -1.0100 S   0  0  0  0  0  0  0  0  0  0  0  0
   -0.4520   -0.6340    0.2340 N   0  0  0  0  0  0  0  0  0  0  0  0
    0.8480   -0.1120    0.1490 C   0  0  0  0  0  0  0  0  0  0  0  0
    1.3570    1.0520   -0.3780 C   0  0  0  0  0  0  0  0  0  0  0  0
    2.7120    1.1070   -0.2140 N   0  0  0  0  0  0  0  0  0  0  0  0
    3.1180    0.0020    0.4130 C   0  0  0  0  0  0  0  0  0  0  0  0
    4.7710   -0.3760    0.8410 Cl  0  0  0  0  0  0  0  0  0  0  0  0
    2.0070   -0.7580    0.6460 C   0  0  0  0  0  0  0  0  0  0  0  0
    1.9990   -2.3240    1.4510 Cl  0  0  0  0  0  0  0  0  0  0  0  0
  1  2  1  0
  2  3  1  0
  3  4  2  0
  3  5  1  0
  5  6  1  0
  6  7  2  0
  6 11  1  0
  7  8  1  0
  8  9  1  0
  9 10  1  0
  9 11  2  0
 11 12  1  0
M  END
