
     RDKit          3D

 23 25  0  0  0  0  0  0  0  0999 V2000
   -2.0700    2.1680   -0.9650 C   0  0  0  0  0  0  0  0  0  0  0  0
   -3.1430    1.1480   -0.6390 C   0  0  2  0  0  0  0  0  0  0  0  0
   -4.0140    1.6350    0.5030 C   0  0  0  0  0  0  0  0  0  0  0  0
   -2.5390   -0.1790   -0.3190 C   0  0  0  0  0  0  0  0  0  0  0  0
   -1.1490   -0.3240   -0.1540 C   0  0  0  0  0  0  0  0  0  0  0  0
   -0.5670   -1.5280    0.1550 C   0  0  0  0  0  0  0  0  0  0  0  0
    0.8380   -1.7130    0.3370 C   0  0  0  0  0  0  0  0  0  0  0  0
    1.1550   -2.9540    0.6400 O   0  0  0  0  0  0  0  0  0  0  0  0
    1.9300   -0.8260    0.2540 N   0  0  0  0  0  0  0  0  0  0  0  0
    3.2090   -1.2500    0.4820 C   0  0  0  0  0  0  0  0  0  0  0  0
    4.0810   -0.2040    0.3350 C   0  0  0  0  0  0  0  0  0  0  0  0
    5.4570   -0.0910    0.4510 C   0  0  0  0  0  0  0  0  0  0  0  0
    6.1020    1.1010    0.2460 C   0  0  0  0  0  0  0  0  0  0  0  0
    5.3570    2.2140   -0.0840 C   0  0  0  0  0  0  0  0  0  0  0  0
    3.9700    2.1010   -0.2020 C   0  0  0  0  0  0  0  0  0  0  0  0
    3.3510    0.9070    0.0060 C   0  0  0  0  0  0  0  0  0  0  0  0
    2.0130    0.4550   -0.0300 C   0  0  0  0  0  0  0  0  0  0  0  0
   -1.3900   -2.6570    0.3120 C   0  0  0  0  0  0  0  0  0  0  0  0
   -0.8570   -3.9190    0.6280 O   0  0  0  0  0  0  0  0  0  0  0  0
   -2.7430   -2.5230    0.1520 C   0  0  0  0  0  0  0  0  0  0  0  0
   -3.3210   -1.2940   -0.1620 C   0  0  0  0  0  0  0  0  0  0  0  0
   -4.7650   -1.2020   -0.3370 C   0  0  0  0  0  0  0  0  0  0  0  0
   -5.5450   -2.1650   -0.1800 O   0  0  0  0  0  0  0  0  0  0  0  0
  2  1  1  1
  2  3  1  0
  2  4  1  0
  4  5  2  0
  4 21  1  0
  5  6  1  0
  6  7  1  0
  6 18  2  0
  7  8  2  0
  7  9  1  0
  9 10  1  0
  9 17  1  0
 10 11  2  0
 11 12  1  0
 11 16  1  0
 12 13  2  0
 13 14  1  0
 14 15  2  0
 15 16  1  0
 16 17  2  0
 18 19  1  0
 18 20  1  0
 20 21  2  0
 21 22  1  0
 22 23  2  0
M  END
