
     RDKit          3D

 13 13  0  0  0  0  0  0  0  0999 V2000
    3.8100    0.8580   -1.2920 N   0  0  0  0  0  0  0  0  0  0  0  0
    2.9120    0.7640   -0.2900 O   0  0  0  0  0  0  0  0  0  0  0  0
    2.1040   -0.7550   -0.4930 S   0  0  0  0  0  0  0  0  0  0  0  0
    0.4230   -0.5200    0.0480 C   0  0  0  0  0  0  0  0  0  0  0  0
   -0.5080   -0.1150   -0.8770 C   0  0  0  0  0  0  0  0  0  0  0  0
   -1.8140    0.0740   -0.4830 C   0  0  0  0  0  0  0  0  0  0  0  0
   -2.8080    0.4930   -1.4130 N   0  0  0  0  0  0  0  0  0  0  0  0
   -2.1730   -0.1440    0.8300 C   0  0  0  0  0  0  0  0  0  0  0  0
   -3.8410    0.0900    1.3670 Cl  0  0  0  0  0  0  0  0  0  0  0  0
   -1.2620   -0.5500    1.7820 C   0  0  0  0  0  0  0  0  0  0  0  0
   -1.7350   -0.8220    3.4450 Cl  0  0  0  0  0  0  0  0  0  0  0  0
    0.0390   -0.7260    1.3320 C   0  0  0  0  0  0  0  0  0  0  0  0
    0.9800   -1.1330    2.2600 O   0  0  0  0  0  0  0  0  0  0  0  0
  1  2  1  0
  2  3  1  0
  3  4  1  0
  4  5  2  0
  4 12  1  0
  5  6  1  0
  6  7  1  0
  6  8  2  0
  8  9  1  0
  8 10  1  0
 10 11  1  0
 10 12  2  0
 12 13  1  0
M  END
