
     RDKit          3D

 13 13  0  0  0  0  0  0  0  0999 V2000
   -2.4070    1.1300   -0.4720 N   0  0  0  0  0  0  0  0  0  0  0  0
   -1.4860    0.6910    0.5190 C   0  0  0  0  0  0  0  0  0  0  0  0
   -1.9980    0.7250    2.0810 S   0  0  0  0  0  0  0  0  0  0  0  0
   -0.1400    0.2250    0.2090 C   0  0  0  0  0  0  0  0  0  0  0  0
    0.1810   -1.1200    0.1460 C   0  0  0  0  0  0  0  0  0  0  0  0
   -0.8040   -2.1150    0.3850 N   0  0  0  0  0  0  0  0  0  0  0  0
    1.3930   -1.5320   -0.1340 O   0  0  0  0  0  0  0  0  0  0  0  0
    2.3880   -0.7120   -0.3740 C   0  0  0  0  0  0  0  0  0  0  0  0
    3.5290   -1.1610   -0.6370 O   0  0  0  0  0  0  0  0  0  0  0  0
    2.1870    0.6520   -0.3390 C   0  0  0  0  0  0  0  0  0  0  0  0
    3.5120    1.7540   -0.6590 Cl  0  0  0  0  0  0  0  0  0  0  0  0
    0.9060    1.0990   -0.0440 C   0  0  0  0  0  0  0  0  0  0  0  0
    0.6000    2.8110    0.0120 Cl  0  0  0  0  0  0  0  0  0  0  0  0
  1  2  1  0
  2  3  2  0
  2  4  1  0
  4  5  2  0
  4 12  1  0
  5  6  1  0
  5  7  1  0
  7  8  1  0
  8  9  2  0
  8 10  1  0
 10 11  1  0
 10 12  2  0
 12 13  1  0
M  END
