
     RDKit          3D

 13 13  0  0  0  0  0  0  0  0999 V2000
    0.6860   -2.3740   -0.2260 N   0  0  0  0  0  0  0  0  0  0  0  0
    0.8660   -0.9810   -0.0230 C   0  0  0  0  0  0  0  0  0  0  0  0
    2.1260   -0.4480    0.1070 C   0  0  0  0  0  0  0  0  0  0  0  0
    3.5420   -1.4880    0.0250 Cl  0  0  0  0  0  0  0  0  0  0  0  0
    2.3530    0.8910    0.3050 C   0  0  0  0  0  0  0  0  0  0  0  0
    1.2650    1.7370    0.3750 C   0  0  0  0  0  0  0  0  0  0  0  0
    1.4770    3.4740    0.6280 Cl  0  0  0  0  0  0  0  0  0  0  0  0
   -0.0130    1.2390    0.2490 C   0  0  0  0  0  0  0  0  0  0  0  0
   -0.2220   -0.1170    0.0500 C   0  0  0  0  0  0  0  0  0  0  0  0
   -1.5410   -0.6030   -0.0710 N   0  0  0  0  0  0  0  0  0  0  0  0
   -2.8450    0.4900   -0.2940 S   0  0  2  0  0  0  0  0  0  0  0  0
   -3.9580   -0.2670   -0.9790 O   0  0  0  0  0  0  0  0  0  0  0  0
   -2.5370    1.6340   -1.1930 O   0  0  0  0  0  0  0  0  0  0  0  0
  1  2  1  0
  2  3  2  0
  2  9  1  0
  3  4  1  0
  3  5  1  0
  5  6  2  0
  6  7  1  0
  6  8  1  0
  8  9  2  0
  9 10  1  0
 11 10  1  6
 11 12  2  0
 11 13  2  0
M  END
