
     RDKit          3D

 12 12  0  0  0  0  0  0  0  0999 V2000
    3.1980    0.4620    0.3780 N   0  0  0  0  0  0  0  0  0  0  0  0
    1.8240    0.1450    0.1850 C   0  0  0  0  0  0  0  0  0  0  0  0
    0.8320    1.0970    0.3080 C   0  0  0  0  0  0  0  0  0  0  0  0
   -0.4970    0.7680    0.1160 C   0  0  0  0  0  0  0  0  0  0  0  0
   -1.4920    1.7740    0.2520 N   0  0  0  0  0  0  0  0  0  0  0  0
   -0.8960   -0.5170   -0.2070 C   0  0  0  0  0  0  0  0  0  0  0  0
   -2.5930   -0.8820   -0.4400 S   0  0  2  0  0  0  0  0  0  0  0  0
   -3.3570    0.3910   -0.5180 O   0  0  0  0  0  0  0  0  0  0  0  0
   -3.0910   -1.6140    0.7980 O   0  0  0  0  0  0  0  0  0  0  0  0
    0.0950   -1.4650   -0.3300 C   0  0  0  0  0  0  0  0  0  0  0  0
    1.4220   -1.1360   -0.1380 C   0  0  0  0  0  0  0  0  0  0  0  0
    2.6730   -2.3570   -0.2990 Cl  0  0  0  0  0  0  0  0  0  0  0  0
  1  2  1  0
  2  3  2  0
  2 11  1  0
  3  4  1  0
  4  5  1  0
  4  6  2  0
  7  6  1  1
  6 10  1  0
  7  8  2  0
  7  9  2  0
 10 11  2  0
 11 12  1  0
M  END
