
     RDKit          3D

 13 13  0  0  0  0  0  0  0  0999 V2000
    3.9790    0.0560   -0.2520 N   0  0  0  0  0  0  0  0  0  0  0  0
    2.6070    0.0190    0.0210 C   0  0  0  0  0  0  0  0  0  0  0  0
    2.1690   -0.0940    1.1880 O   0  0  0  0  0  0  0  0  0  0  0  0
    1.4300    0.1330   -1.3080 S   0  0  0  0  0  0  0  0  0  0  0  0
   -0.2570    0.0580   -0.6830 C   0  0  0  0  0  0  0  0  0  0  0  0
   -0.9340    1.2090   -0.3160 C   0  0  0  0  0  0  0  0  0  0  0  0
   -0.1410    2.7410   -0.4640 Cl  0  0  0  0  0  0  0  0  0  0  0  0
   -2.2320    1.1320    0.1630 C   0  0  0  0  0  0  0  0  0  0  0  0
   -2.8590   -0.0750    0.2790 N   0  0  0  0  0  0  0  0  0  0  0  0
   -2.2260   -1.2080   -0.0690 C   0  0  0  0  0  0  0  0  0  0  0  0
   -2.8470   -2.2960    0.0570 O   0  0  0  0  0  0  0  0  0  0  0  0
   -0.9380   -1.1280   -0.5440 C   0  0  0  0  0  0  0  0  0  0  0  0
   -0.1200   -2.5980   -0.9940 Cl  0  0  0  0  0  0  0  0  0  0  0  0
  1  2  1  0
  2  3  2  0
  2  4  1  0
  4  5  1  0
  5  6  1  0
  5 12  2  0
  6  7  1  0
  6  8  2  0
  8  9  1  0
  9 10  1  0
 10 11  2  0
 10 12  1  0
 12 13  1  0
M  END
