
     RDKit          3D

 26 28  0  0  0  0  0  0  0  0999 V2000
   -3.3890    3.2400   -0.9030 N   0  0  0  0  0  0  0  0  0  0  0  0
   -3.2080    1.8500   -1.1000 C   0  0  0  0  0  0  0  0  0  0  0  0
   -2.3350    1.3700   -1.8640 O   0  0  0  0  0  0  0  0  0  0  0  0
   -4.0850    0.9310   -0.3720 C   0  0  0  0  0  0  0  0  0  0  0  0
   -3.7520   -0.5210   -0.7020 C   0  0  0  0  0  0  0  0  0  0  0  0
   -4.3640   -1.1020   -1.7860 C   0  0  0  0  0  0  0  0  0  0  0  0
   -3.7010   -2.7920   -1.8170 S   0  0  0  0  0  0  0  0  0  0  0  0
   -2.6590   -2.5590   -0.3640 C   0  0  0  0  0  0  0  0  0  0  0  0
   -1.6290   -3.7900    0.3130 S   0  0  2  0  0  0  0  0  0  0  0  0
   -0.6550   -4.2970   -0.7070 O   0  0  0  0  0  0  0  0  0  0  0  0
   -2.5240   -4.9330    0.7230 O   0  0  0  0  0  0  0  0  0  0  0  0
   -0.7980   -3.2110    1.6710 N   0  0  0  0  0  0  0  0  0  0  0  0
    0.0990   -2.1220    1.5510 C   0  0  0  0  0  0  0  0  0  0  0  0
    0.0900   -1.0770    2.4760 C   0  0  0  0  0  0  0  0  0  0  0  0
    0.9640   -0.0190    2.3580 C   0  0  0  0  0  0  0  0  0  0  0  0
    1.8830    0.0530    1.3240 C   0  0  0  0  0  0  0  0  0  0  0  0
    1.8900   -0.9870    0.4060 C   0  0  0  0  0  0  0  0  0  0  0  0
    1.0130   -2.0520    0.5220 C   0  0  0  0  0  0  0  0  0  0  0  0
    2.8140   -0.9070   -0.6280 O   0  0  0  0  0  0  0  0  0  0  0  0
    3.6790    0.1760   -0.7120 C   0  0  0  0  0  0  0  0  0  0  0  0
    4.2020    0.5470   -1.7980 O   0  0  0  0  0  0  0  0  0  0  0  0
    3.9780    0.9050    0.5480 C   0  0  1  0  0  0  0  0  0  0  0  0
    4.7360    2.1830    0.2780 C   0  0  0  0  0  0  0  0  0  0  0  0
    4.0090    3.1030   -0.5380 N   0  0  0  0  0  0  0  0  0  0  0  0
    2.7640    1.1240    1.2090 O   0  0  0  0  0  0  0  0  0  0  0  0
   -2.8910   -1.2900   -0.0000 C   0  0  0  0  0  0  0  0  0  0  0  0
  1  2  1  0
  2  3  2  0
  2  4  1  0
  4  5  1  0
  5  6  2  0
  5 26  1  0
  6  7  1  0
  7  8  1  0
  8  9  1  0
  8 26  2  0
  9 10  2  0
  9 11  2  0
  9 12  1  1
 12 13  1  0
 13 14  2  0
 13 18  1  0
 14 15  1  0
 15 16  2  0
 16 17  1  0
 16 25  1  0
 17 18  2  0
 17 19  1  0
 19 20  1  0
 20 21  2  0
 20 22  1  0
 22 23  1  6
 22 25  1  0
 23 24  1  0
M  CHG  1  24   1
M  END
