
     RDKit          3D

 25 28  0  0  0  0  0  0  0  0999 V2000
   -5.9300   -1.6300   -0.1900 C   0  0  0  0  0  0  0  0  0  0  0  0
   -4.6640   -0.8450   -0.0510 C   0  0  0  0  0  0  0  0  0  0  0  0
   -3.6160   -1.3780    0.4540 N   0  0  0  0  0  0  0  0  0  0  0  0
   -2.3810   -0.7220    0.6250 C   0  0  0  0  0  0  0  0  0  0  0  0
   -1.2620   -1.4690    1.2240 C   0  0  0  0  0  0  0  0  0  0  0  0
   -0.0710   -0.6230    1.3190 N   0  0  0  0  0  0  0  0  0  0  0  0
    0.2980    0.1720    2.3370 C   0  0  0  0  0  0  0  0  0  0  0  0
    1.4940    0.7980    2.0210 C   0  0  0  0  0  0  0  0  0  0  0  0
    1.8690    0.3660    0.7560 C   0  0  0  0  0  0  0  0  0  0  0  0
    3.0680    0.7730    0.0300 C   0  0  0  0  0  0  0  0  0  0  0  0
    3.4880    2.0840   -0.0550 C   0  0  0  0  0  0  0  0  0  0  0  0
    4.6310    2.4390   -0.7520 C   0  0  0  0  0  0  0  0  0  0  0  0
    5.3970    1.4870   -1.3930 C   0  0  0  0  0  0  0  0  0  0  0  0
    4.9810    0.1740   -1.3120 C   0  0  0  0  0  0  0  0  0  0  0  0
    3.8420   -0.1740   -0.6150 C   0  0  0  0  0  0  0  0  0  0  0  0
    3.7010   -1.5590   -0.7250 O   0  0  0  0  0  0  0  0  0  0  0  0
    4.9820   -2.0570   -1.1060 C   0  0  0  0  0  0  0  0  0  0  0  0
    5.5430   -0.9750   -1.8470 O   0  0  0  0  0  0  0  0  0  0  0  0
    0.8740   -0.5050    0.3720 C   0  0  0  0  0  0  0  0  0  0  0  0
   -2.2040    0.5320    0.2670 C   0  0  0  0  0  0  0  0  0  0  0  0
   -3.3210    1.2570   -0.3230 C   0  0  0  0  0  0  0  0  0  0  0  0
   -3.2020    2.4710   -0.6860 O   0  0  0  0  0  0  0  0  0  0  0  0
   -4.5830    0.5430   -0.4840 C   0  0  0  0  0  0  0  0  0  0  0  0
   -5.6070    1.1570   -1.0080 C   0  0  0  0  0  0  0  0  0  0  0  0
   -6.7780    0.5090   -1.1620 F   0  0  0  0  0  0  0  0  0  0  0  0
  1  2  1  0
  2  3  2  0
  2 23  1  0
  3  4  1  0
  4  5  1  0
  4 20  2  0
  5  6  1  0
  6  7  1  0
  6 19  1  0
  7  8  2  0
  8  9  1  0
  9 10  1  0
  9 19  2  0
 10 11  2  0
 10 15  1  0
 11 12  1  0
 12 13  2  0
 13 14  1  0
 14 15  2  0
 14 18  1  0
 15 16  1  0
 16 17  1  0
 17 18  1  0
 20 21  1  0
 21 22  2  0
 21 23  1  0
 23 24  2  3
 24 25  1  0
M  END
