
     RDKit          3D

 25 28  0  0  0  0  0  0  0  0999 V2000
   -2.5150    2.1380    0.1920 C   0  0  0  0  0  0  0  0  0  0  0  0
   -3.5340    1.1470   -0.1970 C   0  0  0  0  0  0  0  0  0  0  0  0
   -4.8100    1.5620   -0.5990 C   0  0  0  0  0  0  0  0  0  0  0  0
   -5.7910    0.6750   -0.9640 C   0  0  0  0  0  0  0  0  0  0  0  0
   -5.4620   -0.6560   -0.9180 C   0  0  0  0  0  0  0  0  0  0  0  0
   -6.4120   -1.5710   -1.2730 F   0  0  0  0  0  0  0  0  0  0  0  0
   -4.1900   -1.0990   -0.5200 C   0  0  0  0  0  0  0  0  0  0  0  0
   -3.9510   -2.5430   -0.5410 C   0  0  0  0  0  0  0  0  0  0  0  0
   -3.2240   -0.1980   -0.1580 C   0  0  0  0  0  0  0  0  0  0  0  0
   -1.8550   -0.5720    0.2510 C   0  0  0  0  0  0  0  0  0  0  0  0
   -1.2880   -1.7780    0.5420 C   0  0  0  0  0  0  0  0  0  0  0  0
    0.0570   -1.5800    0.8820 C   0  0  0  0  0  0  0  0  0  0  0  0
    0.2450   -0.2370    0.7790 C   0  0  0  0  0  0  0  0  0  0  0  0
    1.4660    0.5490    1.0160 C   0  0  0  0  0  0  0  0  0  0  0  0
    2.6550    0.2910    0.5810 C   0  0  0  0  0  0  0  0  0  0  0  0
    2.9230   -0.8670   -0.2380 C   0  0  0  0  0  0  0  0  0  0  0  0
    4.1380   -1.1070   -0.6480 N   0  0  0  0  0  0  0  0  0  0  0  0
    5.2220   -0.2700   -0.3200 C   0  0  0  0  0  0  0  0  0  0  0  0
    5.0650    0.8150    0.4270 C   0  0  0  0  0  0  0  0  0  0  0  0
    3.7650    1.1200    0.8980 N   0  0  0  0  0  0  0  0  0  0  0  0
    6.3750    1.4520    0.5740 C   0  0  0  0  0  0  0  0  0  0  0  0
    6.5930    2.5860    1.0170 O   0  0  0  0  0  0  0  0  0  0  0  0
    7.3560    0.4670    0.0880 C   0  0  0  0  0  0  0  0  0  0  0  0
    6.5610   -0.4250   -0.6990 O   0  0  0  0  0  0  0  0  0  0  0  0
   -0.8800    0.2990    0.4150 O   0  0  0  0  0  0  0  0  0  0  0  0
  1  2  1  0
  2  3  2  0
  2  9  1  0
  3  4  1  0
  4  5  2  0
  5  6  1  0
  5  7  1  0
  7  8  1  0
  7  9  2  0
  9 10  1  0
 10 11  2  0
 10 25  1  0
 11 12  1  0
 12 13  2  0
 13 14  1  0
 13 25  1  0
 14 15  2  3
 15 16  1  0
 15 20  1  0
 16 17  2  0
 17 18  1  0
 18 19  2  0
 18 24  1  0
 19 20  1  0
 19 21  1  0
 21 22  2  0
 21 23  1  0
 23 24  1  0
M  END
