
     RDKit          3D

 25 28  0  0  0  0  0  0  0  0999 V2000
   -4.1970    1.9180    0.9950 C   0  0  0  0  0  0  0  0  0  0  0  0
   -4.3170    0.8480   -0.0400 C   0  0  2  0  0  0  0  0  0  0  0  0
   -5.3460   -0.1580    0.3880 C   0  0  0  0  0  0  0  0  0  0  0  0
   -3.0000    0.2230   -0.3790 C   0  0  0  0  0  0  0  0  0  0  0  0
   -1.8310    0.6300    0.1580 C   0  0  0  0  0  0  0  0  0  0  0  0
   -0.5600    0.0570   -0.1460 C   0  0  0  0  0  0  0  0  0  0  0  0
    0.5730    0.6210    0.4950 C   0  0  0  0  0  0  0  0  0  0  0  0
    0.2720    1.6000    1.3370 O   0  0  0  0  0  0  0  0  0  0  0  0
    1.9420    0.3860    0.4470 N   0  0  0  0  0  0  0  0  0  0  0  0
    2.8290    1.1060    1.2160 C   0  0  0  0  0  0  0  0  0  0  0  0
    4.1060    0.7190    0.9990 C   0  0  0  0  0  0  0  0  0  0  0  0
    5.3350    1.1280    1.5180 C   0  0  0  0  0  0  0  0  0  0  0  0
    6.4860    0.5160    1.0770 C   0  0  0  0  0  0  0  0  0  0  0  0
    6.4790   -0.4910    0.1390 C   0  0  0  0  0  0  0  0  0  0  0  0
    7.6290   -1.0890   -0.2880 F   0  0  0  0  0  0  0  0  0  0  0  0
    5.2510   -0.8750   -0.3560 C   0  0  0  0  0  0  0  0  0  0  0  0
    4.0890   -0.2680    0.0790 C   0  0  0  0  0  0  0  0  0  0  0  0
    2.7300   -0.4470   -0.2400 C   0  0  0  0  0  0  0  0  0  0  0  0
   -0.6420   -0.9630   -1.0500 C   0  0  0  0  0  0  0  0  0  0  0  0
    0.4780   -1.6130   -1.4410 O   0  0  0  0  0  0  0  0  0  0  0  0
   -1.8350   -1.4180   -1.6330 C   0  0  0  0  0  0  0  0  0  0  0  0
   -2.1520   -2.3990   -2.5400 C   0  0  0  0  0  0  0  0  0  0  0  0
   -3.4910   -2.3510   -2.7060 N   0  0  0  0  0  0  0  0  0  0  0  0
   -3.9750   -1.4070   -1.9560 O   0  0  0  0  0  0  0  0  0  0  0  0
   -3.0010   -0.8110   -1.2830 C   0  0  0  0  0  0  0  0  0  0  0  0
  2  1  1  1
  2  3  1  0
  2  4  1  0
  4  5  2  0
  4 25  1  0
  5  6  1  0
  6  7  1  0
  6 19  2  0
  7  8  2  0
  7  9  1  0
  9 10  1  0
  9 18  1  0
 10 11  2  0
 11 12  1  0
 11 17  1  0
 12 13  2  0
 13 14  1  0
 14 15  1  0
 14 16  2  0
 16 17  1  0
 17 18  2  0
 19 20  1  0
 19 21  1  0
 21 22  1  0
 21 25  2  0
 22 23  2  0
 23 24  1  0
 24 25  1  0
M  END
