
     RDKit          3D

 25 28  0  0  0  0  0  0  0  0999 V2000
    3.9530   -0.6250   -1.9130 C   0  0  0  0  0  0  0  0  0  0  0  0
    4.2350   -0.1210   -0.5230 C   0  0  0  0  0  0  0  0  0  0  0  0
    5.5070   -0.0300   -0.1070 N   0  0  0  0  0  0  0  0  0  0  0  0
    5.8080    0.4190    1.1310 C   0  0  0  0  0  0  0  0  0  0  0  0
    4.7850    0.7870    1.9760 C   0  0  0  0  0  0  0  0  0  0  0  0
    3.4520    0.6900    1.5390 C   0  0  0  0  0  0  0  0  0  0  0  0
    3.1380    0.2350    0.2770 C   0  0  0  0  0  0  0  0  0  0  0  0
    1.8370    0.0510   -0.2140 N   0  0  0  0  0  0  0  0  0  0  0  0
    0.6280    0.6060    0.2400 C   0  0  0  0  0  0  0  0  0  0  0  0
    0.5410    1.7980    0.9270 C   0  0  0  0  0  0  0  0  0  0  0  0
   -0.6670    2.3900    1.3020 C   0  0  0  0  0  0  0  0  0  0  0  0
   -1.8430    1.7720    0.9800 C   0  0  0  0  0  0  0  0  0  0  0  0
   -3.0710    2.3060    1.3230 O   0  0  0  0  0  0  0  0  0  0  0  0
   -3.1830    3.5270    2.0280 C   0  0  0  0  0  0  0  0  0  0  0  0
   -4.5170    3.8110    2.2300 F   0  0  0  0  0  0  0  0  0  0  0  0
   -1.7990    0.5840    0.2950 C   0  0  0  0  0  0  0  0  0  0  0  0
   -3.0200   -0.0280   -0.0130 C   0  0  0  0  0  0  0  0  0  0  0  0
   -3.0400   -1.2250   -0.6910 C   0  0  0  0  0  0  0  0  0  0  0  0
   -1.8460   -1.7850   -1.0450 C   0  0  0  0  0  0  0  0  0  0  0  0
   -0.6070   -1.2000   -0.7530 C   0  0  0  0  0  0  0  0  0  0  0  0
   -0.5990   -0.0050   -0.0770 C   0  0  0  0  0  0  0  0  0  0  0  0
   -1.8620   -2.9970   -1.7310 O   0  0  0  0  0  0  0  0  0  0  0  0
   -3.0940   -3.4290   -2.2710 C   0  0  0  0  0  0  0  0  0  0  0  0
   -4.2540   -3.1750   -1.3590 C   0  0  0  0  0  0  0  0  0  0  0  0
   -4.2670   -1.8070   -0.9830 O   0  0  0  0  0  0  0  0  0  0  0  0
  1  2  1  0
  2  3  2  0
  2  7  1  0
  3  4  1  0
  4  5  2  0
  5  6  1  0
  6  7  2  0
  7  8  1  0
  8  9  1  0
  9 10  2  0
  9 21  1  0
 10 11  1  0
 11 12  2  0
 12 13  1  0
 12 16  1  0
 13 14  1  0
 14 15  1  0
 16 17  2  0
 16 21  1  0
 17 18  1  0
 18 19  2  0
 18 25  1  0
 19 20  1  0
 19 22  1  0
 20 21  2  0
 22 23  1  0
 23 24  1  0
 24 25  1  0
M  END
