
     RDKit          3D

 25 28  0  0  0  0  0  0  0  0999 V2000
    0.7120   -2.1760   -1.7700 O   0  0  0  0  0  0  0  0  0  0  0  0
    0.1460   -1.1830   -1.2610 C   0  0  0  0  0  0  0  0  0  0  0  0
   -1.1240   -1.3020   -0.8200 C   0  0  0  0  0  0  0  0  0  0  0  0
   -1.8160   -0.2270   -0.2390 C   0  0  0  0  0  0  0  0  0  0  0  0
   -3.1800   -0.4280    0.2130 C   0  0  0  0  0  0  0  0  0  0  0  0
   -3.8880   -1.6380    0.1160 C   0  0  0  0  0  0  0  0  0  0  0  0
   -5.1520   -1.4590    0.6450 C   0  0  0  0  0  0  0  0  0  0  0  0
   -6.1790   -2.3740    0.7570 O   0  0  0  0  0  0  0  0  0  0  0  0
   -5.1700   -0.1420    1.0470 C   0  0  0  0  0  0  0  0  0  0  0  0
   -4.0010    0.4030    0.7710 O   0  0  0  0  0  0  0  0  0  0  0  0
   -1.1190    0.9450   -0.1510 C   0  0  0  0  0  0  0  0  0  0  0  0
   -1.7500    2.0370    0.4040 C   0  0  0  0  0  0  0  0  0  0  0  0
   -1.0730    3.2510    0.5030 C   0  0  0  0  0  0  0  0  0  0  0  0
    0.2120    3.3030    0.0350 C   0  0  0  0  0  0  0  0  0  0  0  0
    0.8480    2.2170   -0.5200 C   0  0  0  0  0  0  0  0  0  0  0  0
    0.1910    1.0160   -0.6210 C   0  0  0  0  0  0  0  0  0  0  0  0
    0.8410   -0.0180   -1.1730 N   0  0  0  0  0  0  0  0  0  0  0  0
    2.1980    0.0090   -1.6400 C   0  0  0  0  0  0  0  0  0  0  0  0
    3.1970   -0.4230   -0.6400 C   0  0  0  0  0  0  0  0  0  0  0  0
    3.9270    0.4350    0.1300 C   0  0  0  0  0  0  0  0  0  0  0  0
    4.8440   -0.0240    1.0580 C   0  0  0  0  0  0  0  0  0  0  0  0
    5.5460    0.8620    1.8010 F   0  0  0  0  0  0  0  0  0  0  0  0
    5.0610   -1.3870    1.2450 C   0  0  0  0  0  0  0  0  0  0  0  0
    4.3060   -2.2220    0.4490 C   0  0  0  0  0  0  0  0  0  0  0  0
    3.4170   -1.7650   -0.4500 N   0  0  0  0  0  0  0  0  0  0  0  0
  1  2  2  0
  2  3  1  0
  2 17  1  0
  3  4  2  0
  4  5  1  0
  4 11  1  0
  5  6  2  0
  5 10  1  0
  6  7  1  0
  7  8  1  0
  7  9  2  0
  9 10  1  0
 11 12  2  0
 11 16  1  0
 12 13  1  0
 13 14  2  0
 14 15  1  0
 15 16  2  0
 16 17  1  0
 17 18  1  0
 18 19  1  0
 19 20  2  0
 19 25  1  0
 20 21  1  0
 21 22  1  0
 21 23  2  0
 23 24  1  0
 24 25  2  0
M  END
