
     RDKit          3D

 20 20  0  0  0  0  0  0  0  0999 V2000
    4.8740    3.3860    0.0280 C   0  0  0  0  0  0  0  0  0  0  0  0
    3.8640    2.2790   -0.2310 C   0  0  0  0  0  0  0  0  0  0  0  0
    4.2580    0.9900    0.3980 C   0  0  0  0  0  0  0  0  0  0  0  0
    3.2320   -0.0740    0.0840 C   0  0  0  0  0  0  0  0  0  0  0  0
    1.9230    0.3230    0.6170 C   0  0  0  0  0  0  0  0  0  0  0  0
    0.7960   -0.7540    0.3550 C   0  0  1  0  0  0  0  0  0  0  0  0
   -0.2620   -0.2400    0.8910 O   0  0  0  0  0  0  0  0  0  0  0  0
   -1.4810   -0.4210    1.2080 C   0  0  0  0  0  0  0  0  0  0  0  0
   -2.5040   -0.8160    0.2070 C   0  0  0  0  0  0  0  0  0  0  0  0
   -3.5330   -0.0690   -0.0640 C   0  0  0  0  0  0  0  0  0  0  0  0
   -3.9580    1.2210    0.4550 C   0  0  1  0  0  0  0  0  0  0  0  0
   -4.1620    2.1950   -0.7150 C   0  0  0  0  0  0  0  0  0  0  0  0
   -5.3220    1.1570    1.1290 C   0  0  0  0  0  0  0  0  0  0  0  0
   -2.4390   -2.1250   -0.4720 C   0  0  0  0  0  0  0  0  0  0  0  0
   -3.4840   -2.4440   -1.3760 N   0  0  0  0  0  0  0  0  0  0  0  0
   -1.5210   -2.9380   -0.2770 O   0  0  0  0  0  0  0  0  0  0  0  0
    0.7790   -0.9990   -1.1440 C   0  0  0  0  0  0  0  0  0  0  0  0
    1.4330   -2.3000   -1.4350 C   0  0  0  0  0  0  0  0  0  0  0  0
    1.7400   -2.9390   -0.1250 C   0  0  0  0  0  0  0  0  0  0  0  0
    1.2890   -2.0480    0.9780 C   0  0  0  0  0  0  0  0  0  0  0  0
  1  2  1  0
  2  3  1  0
  3  4  1  0
  4  5  1  0
  6  5  1  6
  6  7  1  0
  6 17  1  0
  6 20  1  0
  7  8  1  0
  8  9  1  0
  9 10  2  3
  9 14  1  0
 10 11  1  0
 11 12  1  6
 11 13  1  0
 14 15  1  0
 14 16  2  0
 17 18  1  0
 18 19  1  0
 19 20  1  0
M  END
