
     RDKit          3D

 20 19  0  0  0  0  0  0  0  0999 V2000
    5.6560    0.6620   -0.5520 C   0  0  0  0  0  0  0  0  0  0  0  0
    5.0970    0.2950    0.5810 C   0  0  0  0  0  0  0  0  0  0  0  0
    3.6580    0.4990    0.8390 C   0  0  0  0  0  0  0  0  0  0  0  0
    3.1820    0.1070    1.9970 C   0  0  0  0  0  0  0  0  0  0  0  0
    2.7910    1.0920   -0.1810 C   0  0  0  0  0  0  0  0  0  0  0  0
    1.3790    1.1280    0.1910 N   0  0  0  0  0  0  0  0  0  0  0  0
    0.5940   -0.0450    0.2380 C   0  0  0  0  0  0  0  0  0  0  0  0
    1.3490   -1.3400   -0.0280 C   0  0  0  0  0  0  0  0  0  0  0  0
   -0.6840   -0.1670    0.4570 C   0  0  0  0  0  0  0  0  0  0  0  0
   -1.6070    0.8930    0.7070 C   0  0  0  0  0  0  0  0  0  0  0  0
   -2.8420    0.4820    0.9070 O   0  0  0  0  0  0  0  0  0  0  0  0
   -1.4770    2.3350    0.7850 C   0  0  0  0  0  0  0  0  0  0  0  0
   -1.4660    3.0180   -0.5920 C   0  0  0  0  0  0  0  0  0  0  0  0
   -1.3120    4.4880   -0.4220 C   0  0  0  0  0  0  0  0  0  0  0  0
   -1.2990   -1.5660    0.4220 C   0  0  1  0  0  0  0  0  0  0  0  0
   -2.0920   -1.5740    1.6030 O   0  0  0  0  0  0  0  0  0  0  0  0
   -2.2470   -1.7400   -0.7070 C   0  0  1  0  0  0  0  0  0  0  0  0
   -1.5870   -1.5230   -2.0700 C   0  0  0  0  0  0  0  0  0  0  0  0
   -2.7500   -3.1750   -0.7480 C   0  0  0  0  0  0  0  0  0  0  0  0
   -3.4700   -3.5500    0.5130 C   0  0  0  0  0  0  0  0  0  0  0  0
  1  2  2  0
  2  3  1  0
  3  4  2  0
  3  5  1  0
  5  6  1  0
  6  7  1  0
  7  8  1  0
  7  9  2  3
  9 10  1  0
  9 15  1  0
 10 11  2  0
 10 12  1  0
 12 13  1  0
 13 14  1  0
 15 16  1  1
 15 17  1  0
 17 18  1  6
 17 19  1  0
 19 20  1  0
M  END
