
     RDKit          3D

 20 20  0  0  0  0  0  0  0  0999 V2000
    2.1680    1.4890    1.0180 C   0  0  0  0  0  0  0  0  0  0  0  0
    3.1900    1.1150    0.2940 C   0  0  0  0  0  0  0  0  0  0  0  0
    4.4470    1.9670    0.2980 C   0  0  0  0  0  0  0  0  0  0  0  0
    3.1670   -0.0890   -0.5530 C   0  0  0  0  0  0  0  0  0  0  0  0
    1.9260   -0.7730   -0.6010 N   0  0  0  0  0  0  0  0  0  0  0  0
    0.8960   -0.1070   -1.3800 C   0  0  0  0  0  0  0  0  0  0  0  0
   -0.4020   -0.8580   -1.3440 C   0  0  1  0  0  0  0  0  0  0  0  0
   -1.3700   -0.1900   -2.1130 O   0  0  0  0  0  0  0  0  0  0  0  0
   -0.1580   -2.1520   -2.0940 C   0  0  0  0  0  0  0  0  0  0  0  0
   -0.8320   -3.3350   -1.4650 C   0  0  0  0  0  0  0  0  0  0  0  0
   -0.2620   -3.3810   -0.0510 C   0  0  0  0  0  0  0  0  0  0  0  0
   -0.9130   -2.1960    0.6560 C   0  0  0  0  0  0  0  0  0  0  0  0
   -1.4760   -2.5270    1.9760 C   0  0  0  0  0  0  0  0  0  0  0  0
   -0.9550   -1.0510    0.0310 C   0  0  0  0  0  0  0  0  0  0  0  0
   -1.4970    0.1340    0.6870 C   0  0  0  0  0  0  0  0  0  0  0  0
   -1.9350    0.2200    2.1010 C   0  0  0  0  0  0  0  0  0  0  0  0
   -1.5900    1.3240    0.0530 C   0  0  0  0  0  0  0  0  0  0  0  0
   -2.1400    2.5490    0.6930 C   0  0  2  0  0  0  0  0  0  0  0  0
   -2.6150    3.4690   -0.4490 C   0  0  0  0  0  0  0  0  0  0  0  0
   -1.1000    3.1990    1.3460 O   0  0  0  0  0  0  0  0  0  0  0  0
  1  2  2  0
  2  3  1  0
  2  4  1  0
  4  5  1  0
  5  6  1  0
  6  7  1  0
  7  8  1  6
  7  9  1  0
  7 14  1  0
  9 10  1  0
 10 11  1  0
 11 12  1  0
 12 13  1  0
 12 14  2  0
 14 15  1  0
 15 16  1  0
 15 17  2  3
 17 18  1  0
 18 19  1  6
 18 20  1  0
M  END
