
     RDKit          3D

 20 20  0  0  0  0  0  0  0  0999 V2000
   -6.4500   -1.3180   -1.6290 C   0  0  0  0  0  0  0  0  0  0  0  0
   -5.9030   -0.5650   -0.4400 C   0  0  0  0  0  0  0  0  0  0  0  0
   -4.4530   -0.1880   -0.7100 C   0  0  0  0  0  0  0  0  0  0  0  0
   -3.8500    0.5600    0.4290 C   0  0  2  0  0  0  0  0  0  0  0  0
   -3.8300   -0.2110    1.7160 C   0  0  0  0  0  0  0  0  0  0  0  0
   -4.5350    1.7850    0.6070 O   0  0  0  0  0  0  0  0  0  0  0  0
   -2.4310    0.9550    0.0840 C   0  0  0  0  0  0  0  0  0  0  0  0
   -1.5410   -0.1900   -0.1970 C   0  0  0  0  0  0  0  0  0  0  0  0
   -0.1440    0.2960   -0.5510 C   0  0  0  0  0  0  0  0  0  0  0  0
    0.4840    1.0650    0.5470 C   0  0  0  0  0  0  0  0  0  0  0  0
    1.7970    1.5610    0.2730 N   0  0  0  0  0  0  0  0  0  0  0  0
    2.8730    0.7740   -0.1670 C   0  0  0  0  0  0  0  0  0  0  0  0
    2.9230    0.0520   -1.3210 C   0  0  0  0  0  0  0  0  0  0  0  0
    4.0230   -0.7340   -1.6750 C   0  0  0  0  0  0  0  0  0  0  0  0
    5.0890   -0.7680   -0.8170 C   0  0  0  0  0  0  0  0  0  0  0  0
    6.2610   -1.6150   -1.2110 C   0  0  0  0  0  0  0  0  0  0  0  0
    5.0630   -0.0500    0.3470 C   0  0  0  0  0  0  0  0  0  0  0  0
    6.2600   -0.1230    1.2500 C   0  0  0  0  0  0  0  0  0  0  0  0
    6.0170    0.6760    2.3650 O   0  0  0  0  0  0  0  0  0  0  0  0
    3.9830    0.7160    0.6870 C   0  0  0  0  0  0  0  0  0  0  0  0
  1  2  1  0
  2  3  1  0
  3  4  1  0
  4  5  1  1
  4  6  1  0
  4  7  1  0
  7  8  1  0
  8  9  1  0
  9 10  1  0
 10 11  1  0
 11 12  1  0
 12 13  2  0
 12 20  1  0
 13 14  1  0
 14 15  2  0
 15 16  1  0
 15 17  1  0
 17 18  1  0
 17 20  2  0
 18 19  1  0
M  END
