
     RDKit          3D

 20 20  0  0  0  0  0  0  0  0999 V2000
   -3.7170    3.2710   -0.5490 C   0  0  0  0  0  0  0  0  0  0  0  0
   -3.3880    2.3680   -1.7170 C   0  0  0  0  0  0  0  0  0  0  0  0
   -3.0770    1.0320   -1.2940 O   0  0  0  0  0  0  0  0  0  0  0  0
   -2.0300    0.7810   -0.4210 C   0  0  0  0  0  0  0  0  0  0  0  0
   -1.3740    1.7670   -0.0220 O   0  0  0  0  0  0  0  0  0  0  0  0
   -1.7040   -0.5620    0.0210 C   0  0  1  0  0  0  0  0  0  0  0  0
   -0.6600   -0.6670    1.0130 N   0  0  0  0  0  0  0  0  0  0  0  0
    0.1620   -1.7830    0.7510 C   0  0  0  0  0  0  0  0  0  0  0  0
    1.1080   -1.6590   -0.4370 C   0  0  2  0  0  0  0  0  0  0  0  0
    1.8050   -3.0270   -0.4720 C   0  0  0  0  0  0  0  0  0  0  0  0
    2.0400   -0.5470   -0.2330 C   0  0  0  0  0  0  0  0  0  0  0  0
    3.3190   -0.7300   -0.0770 C   0  0  0  0  0  0  0  0  0  0  0  0
    4.2490    0.4050    0.1280 C   0  0  0  0  0  0  0  0  0  0  0  0
    5.5540    0.3100    0.2940 C   0  0  0  0  0  0  0  0  0  0  0  0
    6.0810    1.6850    0.4620 C   0  0  0  0  0  0  0  0  0  0  0  0
    4.8950    2.5570    0.3640 C   0  0  0  0  0  0  0  0  0  0  0  0
    3.8360    1.8030    0.1700 C   0  0  0  0  0  0  0  0  0  0  0  0
   -2.8810   -1.3850    0.5290 C   0  0  2  0  0  0  0  0  0  0  0  0
   -3.9510   -1.6050   -0.5090 C   0  0  0  0  0  0  0  0  0  0  0  0
   -3.5330   -0.7380    1.7310 C   0  0  0  0  0  0  0  0  0  0  0  0
  1  2  1  0
  2  3  1  0
  3  4  1  0
  4  5  2  0
  4  6  1  0
  6  7  1  1
  6 18  1  0
  7  8  1  0
  8  9  1  0
  9 10  1  1
  9 11  1  0
 11 12  2  3
 12 13  1  0
 13 14  2  0
 13 17  1  0
 14 15  1  0
 15 16  1  0
 16 17  2  0
 18 19  1  6
 18 20  1  0
M  END
