
     RDKit          3D

 20 20  0  0  0  0  0  0  0  0999 V2000
    5.8080   -1.3790   -0.9740 C   0  0  0  0  0  0  0  0  0  0  0  0
    4.9870   -0.2040   -1.3930 C   0  0  2  0  0  0  0  0  0  0  0  0
    5.4440    1.0240   -0.6590 C   0  0  0  0  0  0  0  0  0  0  0  0
    3.5440   -0.5060   -1.1400 C   0  0  1  0  0  0  0  0  0  0  0  0
    3.2580   -0.7890    0.3200 C   0  0  0  0  0  0  0  0  0  0  0  0
    1.8590   -1.2780    0.4620 C   0  0  0  0  0  0  0  0  0  0  0  0
    0.8150   -0.6300   -0.3500 C   0  0  1  0  0  0  0  0  0  0  0  0
   -0.2340    0.1200    0.4920 C   0  0  2  0  0  0  0  0  0  0  0  0
    0.3540    1.1970    1.3180 C   0  0  0  0  0  0  0  0  0  0  0  0
   -1.0920   -0.8290    1.2510 C   0  0  0  0  0  0  0  0  0  0  0  0
   -2.1440   -0.2970    2.1160 C   0  0  0  0  0  0  0  0  0  0  0  0
   -3.2050    0.5370    1.4350 C   0  0  1  0  0  0  0  0  0  0  0  0
   -2.6040    1.6290    0.8470 O   0  0  0  0  0  0  0  0  0  0  0  0
   -4.0340   -0.3020    0.4970 C   0  0  1  0  0  0  0  0  0  0  0  0
   -4.6100   -1.4490    1.1880 N   0  0  0  0  0  0  0  0  0  0  0  0
   -5.1230    0.5470   -0.1090 C   0  0  0  0  0  0  0  0  0  0  0  0
   -5.9880   -0.2670   -1.0580 C   0  0  0  0  0  0  0  0  0  0  0  0
   -6.9660    0.5870   -1.5740 O   0  0  0  0  0  0  0  0  0  0  0  0
    1.2550    0.2050   -1.5010 C   0  0  0  0  0  0  0  0  0  0  0  0
    2.6520    0.6990   -1.4720 C   0  0  0  0  0  0  0  0  0  0  0  0
  2  1  1  1
  2  3  1  0
  2  4  1  0
  4  5  1  1
  4 20  1  0
  5  6  1  0
  7  6  1  1
  7  8  1  0
  7 19  1  0
  8  9  1  1
  8 10  1  0
 10 11  1  0
 11 12  1  0
 12 13  1  6
 12 14  1  0
 14 15  1  1
 14 16  1  0
 16 17  1  0
 17 18  1  0
 19 20  1  0
M  END
