
     RDKit          3D

 20 20  0  0  0  0  0  0  0  0999 V2000
   -3.9690   -1.4050   -0.3790 C   0  0  0  0  0  0  0  0  0  0  0  0
   -2.8470   -2.0960   -0.3090 C   0  0  0  0  0  0  0  0  0  0  0  0
   -3.1080   -3.5650   -0.6660 C   0  0  0  0  0  0  0  0  0  0  0  0
   -1.5370   -1.6170    0.0390 C   0  0  0  0  0  0  0  0  0  0  0  0
   -0.5180   -2.5010    0.0560 C   0  0  0  0  0  0  0  0  0  0  0  0
   -0.4120   -3.8990   -0.2030 C   0  0  0  0  0  0  0  0  0  0  0  0
   -1.2110   -0.2530    0.3740 C   0  0  0  0  0  0  0  0  0  0  0  0
   -1.6250    0.9250    0.5300 C   0  0  0  0  0  0  0  0  0  0  0  0
   -2.7600    1.7630    0.4780 C   0  0  0  0  0  0  0  0  0  0  0  0
   -2.6190    3.0860    0.7700 C   0  0  0  0  0  0  0  0  0  0  0  0
   -3.7640    4.0220    0.7360 C   0  0  0  0  0  0  0  0  0  0  0  0
    0.3070   -0.2180    0.6760 N   0  0  0  0  0  0  0  0  0  0  0  0
    1.0440    0.2600   -0.4170 C   0  0  0  0  0  0  0  0  0  0  0  0
    2.5350    0.3050   -0.1950 C   0  0  1  0  0  0  0  0  0  0  0  0
    2.9900   -0.9610    0.0730 O   0  0  0  0  0  0  0  0  0  0  0  0
    3.1540    0.8930   -1.4520 C   0  0  0  0  0  0  0  0  0  0  0  0
    4.4050    1.6630   -1.0620 C   0  0  0  0  0  0  0  0  0  0  0  0
    5.1030    1.0400   -0.0360 O   0  0  0  0  0  0  0  0  0  0  0  0
    4.4120    1.0420    1.1690 C   0  0  0  0  0  0  0  0  0  0  0  0
    2.9190    1.2120    0.9480 C   0  0  0  0  0  0  0  0  0  0  0  0
  1  2  2  0
  2  3  1  0
  2  4  1  0
  4  5  2  3
  4  7  1  0
  5  6  1  0
  7  8  2  3
  7 12  1  0
  8  9  1  0
  9 10  2  3
 10 11  1  0
 12 13  1  0
 13 14  1  0
 14 15  1  1
 14 16  1  0
 14 20  1  0
 16 17  1  0
 17 18  1  0
 18 19  1  0
 19 20  1  0
M  END
