
     RDKit          3D

 24 26  0  0  0  0  0  0  0  0999 V2000
   -6.1360    1.0820   -3.2070 C   0  0  0  0  0  0  0  0  0  0  0  0
   -4.7930    0.9750   -2.7740 O   0  0  0  0  0  0  0  0  0  0  0  0
   -4.4750    0.3720   -1.5820 C   0  0  0  0  0  0  0  0  0  0  0  0
   -5.4830   -0.1330   -0.7980 C   0  0  0  0  0  0  0  0  0  0  0  0
   -5.2060   -0.7470    0.4110 C   0  0  0  0  0  0  0  0  0  0  0  0
   -3.9070   -0.8400    0.8070 C   0  0  0  0  0  0  0  0  0  0  0  0
   -2.8850   -0.3240    0.0050 C   0  0  0  0  0  0  0  0  0  0  0  0
   -3.1650    0.2750   -1.1750 C   0  0  0  0  0  0  0  0  0  0  0  0
   -2.1490    0.7930   -1.9910 N   0  0  0  0  0  0  0  0  0  0  0  0
   -0.7560    0.7810   -1.6970 C   0  0  0  0  0  0  0  0  0  0  0  0
    0.0300    0.4770   -0.9330 N   0  0  0  0  0  0  0  0  0  0  0  0
    1.3610    0.6090   -0.9570 C   0  0  0  0  0  0  0  0  0  0  0  0
    2.2040    0.1210    0.1890 C   0  0  0  0  0  0  0  0  0  0  0  0
    3.9630    0.2280    0.2330 S   0  0  0  0  0  0  0  0  0  0  0  0
    4.0720   -0.5760    1.9350 C   0  0  0  0  0  0  0  0  0  0  0  0
    5.3990   -0.7500    2.5030 N   0  0  0  0  0  0  0  0  0  0  0  0
    6.5670   -0.3440    1.8310 C   0  0  0  0  0  0  0  0  0  0  0  0
    7.9040   -0.5410    2.4490 C   0  0  0  0  0  0  0  0  0  0  0  0
    6.5070    0.1920    0.7000 O   0  0  0  0  0  0  0  0  0  0  0  0
    2.9400   -0.7530    2.1350 N   0  0  0  0  0  0  0  0  0  0  0  0
    1.8990   -0.4700    1.3810 C   0  0  0  0  0  0  0  0  0  0  0  0
    0.5000   -0.7660    1.7980 C   0  0  0  0  0  0  0  0  0  0  0  0
    1.8340    1.1790   -2.0320 C   0  0  0  0  0  0  0  0  0  0  0  0
    0.3730    1.5500   -3.0570 S   0  0  0  0  0  0  0  0  0  0  0  0
  1  2  1  0
  2  3  1  0
  3  4  2  0
  3  8  1  0
  4  5  1  0
  5  6  2  0
  6  7  1  0
  7  8  2  0
  8  9  1  0
  9 10  1  0
 10 11  2  0
 10 24  1  0
 11 12  1  0
 12 13  1  0
 12 23  2  0
 13 14  1  0
 13 21  2  0
 14 15  1  0
 15 16  1  0
 15 20  2  0
 16 17  1  0
 17 18  1  0
 17 19  2  0
 20 21  1  0
 21 22  1  0
 23 24  1  0
M  END
