
     RDKit          3D

 20 20  0  0  0  0  0  0  0  0999 V2000
    4.8000   -1.9980    0.9530 C   0  0  0  0  0  0  0  0  0  0  0  0
    4.3360   -0.9310    0.0360 C   0  0  0  0  0  0  0  0  0  0  0  0
    5.1570   -0.4560   -1.1030 C   0  0  0  0  0  0  0  0  0  0  0  0
    3.1500   -0.3800    0.2360 C   0  0  0  0  0  0  0  0  0  0  0  0
    2.6240    0.6990   -0.6500 C   0  0  0  0  0  0  0  0  0  0  0  0
    2.3960    1.9210    0.1730 C   0  0  0  0  0  0  0  0  0  0  0  0
    1.4210    1.6820    1.2620 C   0  0  0  0  0  0  0  0  0  0  0  0
    0.0890    1.3150    0.6800 C   0  0  0  0  0  0  0  0  0  0  0  0
   -0.1020    1.3480   -0.5640 O   0  0  0  0  0  0  0  0  0  0  0  0
   -0.9840    0.9240    1.4950 N   0  0  0  0  0  0  0  0  0  0  0  0
   -2.2450    0.5730    0.8410 C   0  0  0  0  0  0  0  0  0  0  0  0
   -3.2550    1.3490    1.0930 C   0  0  0  0  0  0  0  0  0  0  0  0
   -4.5990    1.2420    0.5960 C   0  0  0  0  0  0  0  0  0  0  0  0
   -5.4720    2.1920    1.0110 C   0  0  0  0  0  0  0  0  0  0  0  0
   -6.7700    2.1060    0.5430 O   0  0  0  0  0  0  0  0  0  0  0  0
   -2.2060   -0.5920   -0.0390 C   0  0  0  0  0  0  0  0  0  0  0  0
   -1.0960   -1.3500   -0.2030 C   0  0  0  0  0  0  0  0  0  0  0  0
   -1.3240   -2.4530   -1.1370 C   0  0  0  0  0  0  0  0  0  0  0  0
   -2.6430   -2.1710   -1.7500 C   0  0  0  0  0  0  0  0  0  0  0  0
   -3.2870   -1.1090   -0.8770 C   0  0  0  0  0  0  0  0  0  0  0  0
  1  2  1  0
  2  3  1  0
  2  4  2  3
  4  5  1  0
  5  6  1  0
  6  7  1  0
  7  8  1  0
  8  9  2  0
  8 10  1  0
 10 11  1  0
 11 12  2  3
 11 16  1  0
 12 13  1  0
 13 14  2  3
 14 15  1  0
 16 17  2  0
 16 20  1  0
 17 18  1  0
 18 19  1  0
 19 20  1  0
M  END
