
     RDKit          3D

 20 20  0  0  0  0  0  0  0  0999 V2000
   -2.2860   -3.0780    0.9760 C   0  0  0  0  0  0  0  0  0  0  0  0
   -1.3930   -1.8470    0.9580 C   0  0  0  0  0  0  0  0  0  0  0  0
   -2.1500   -0.7260    0.2860 C   0  0  2  0  0  0  0  0  0  0  0  0
   -2.5410   -1.0380   -1.1210 C   0  0  0  0  0  0  0  0  0  0  0  0
   -1.4330    0.6040    0.4200 C   0  0  1  0  0  0  0  0  0  0  0  0
   -0.0940    0.6240   -0.1680 C   0  0  0  0  0  0  0  0  0  0  0  0
    0.1420    1.1430   -1.2610 O   0  0  0  0  0  0  0  0  0  0  0  0
    1.0100    0.0300    0.5160 N   0  0  0  0  0  0  0  0  0  0  0  0
    2.3610   -0.0340    0.0540 C   0  0  1  0  0  0  0  0  0  0  0  0
    2.9610    1.2980   -0.2520 C   0  0  0  0  0  0  0  0  0  0  0  0
    4.3740    1.1340   -0.7290 C   0  0  0  0  0  0  0  0  0  0  0  0
    3.1900   -0.5910    1.2280 C   0  0  0  0  0  0  0  0  0  0  0  0
    2.7610   -1.9540    1.6520 C   0  0  0  0  0  0  0  0  0  0  0  0
    2.4650   -1.0300   -1.0650 C   0  0  0  0  0  0  0  0  0  0  0  0
    1.6800   -0.6820   -2.1400 O   0  0  0  0  0  0  0  0  0  0  0  0
   -2.3350    1.6720   -0.0300 C   0  0  0  0  0  0  0  0  0  0  0  0
   -2.0890    2.6430   -0.8690 C   0  0  0  0  0  0  0  0  0  0  0  0
   -3.3130    3.4640   -1.0010 C   0  0  0  0  0  0  0  0  0  0  0  0
   -4.2830    2.8110   -0.1130 C   0  0  0  0  0  0  0  0  0  0  0  0
   -3.7370    1.7660    0.4630 C   0  0  0  0  0  0  0  0  0  0  0  0
  1  2  1  0
  2  3  1  0
  3  4  1  6
  3  5  1  0
  5  6  1  6
  5 16  1  0
  6  7  2  0
  6  8  1  0
  8  9  1  0
  9 10  1  6
  9 12  1  0
  9 14  1  0
 10 11  1  0
 12 13  1  0
 14 15  1  0
 16 17  2  0
 16 20  1  0
 17 18  1  0
 18 19  1  0
 19 20  2  0
M  END
