
     RDKit          3D

 28 31  0  0  0  0  0  0  0  0999 V2000
   -2.3680    0.3990    2.5080 C   0  0  0  0  0  0  0  0  0  0  0  0
   -3.4000   -0.0030    1.5790 N   0  0  0  0  0  0  0  0  0  0  0  0
   -3.1590    0.1240    0.3210 C   0  0  0  0  0  0  0  0  0  0  0  0
   -4.2850   -0.3180   -0.5380 C   0  0  0  0  0  0  0  0  0  0  0  0
   -5.4470   -1.4060    0.1920 Cl  0  0  0  0  0  0  0  0  0  0  0  0
   -4.4700    0.0450   -1.7980 C   0  0  0  0  0  0  0  0  0  0  0  0
   -3.6430    0.9090   -2.5470 O   0  0  0  0  0  0  0  0  0  0  0  0
   -3.0220    2.0470   -1.9950 C   0  0  0  0  0  0  0  0  0  0  0  0
   -1.9470    1.8530   -1.0300 C   0  0  0  0  0  0  0  0  0  0  0  0
   -1.8840    0.6530   -0.1760 C   0  0  2  0  0  0  0  0  0  0  0  0
   -0.9660   -0.6340   -1.1130 S   0  0  0  0  0  0  0  0  0  0  0  0
   -0.4430   -1.9640   -0.0700 C   0  0  0  0  0  0  0  0  0  0  0  0
   -1.2820   -3.0300    0.1310 C   0  0  0  0  0  0  0  0  0  0  0  0
   -0.8910   -4.0840    0.9390 C   0  0  0  0  0  0  0  0  0  0  0  0
    0.3310   -4.0370    1.5220 C   0  0  0  0  0  0  0  0  0  0  0  0
    1.1650   -2.9470    1.3030 C   0  0  0  0  0  0  0  0  0  0  0  0
    0.8290   -1.8840    0.5180 C   0  0  0  0  0  0  0  0  0  0  0  0
    1.6740   -0.7300    0.2660 C   0  0  0  0  0  0  0  0  0  0  0  0
    1.1790    0.2660   -0.5580 N   0  0  0  0  0  0  0  0  0  0  0  0
    1.8710    1.3300   -0.8350 N   0  0  0  0  0  0  0  0  0  0  0  0
    3.1150    1.5030   -0.3230 C   0  0  0  0  0  0  0  0  0  0  0  0
    3.8210    2.6460   -0.6400 C   0  0  0  0  0  0  0  0  0  0  0  0
    5.0930    2.8340   -0.1220 C   0  0  0  0  0  0  0  0  0  0  0  0
    5.5970    1.8520    0.6970 C   0  0  0  0  0  0  0  0  0  0  0  0
    4.8520    0.7310    0.9830 C   0  0  0  0  0  0  0  0  0  0  0  0
    3.6140    0.5590    0.4730 N   0  0  0  0  0  0  0  0  0  0  0  0
    2.9060   -0.5770    0.7840 C   0  0  0  0  0  0  0  0  0  0  0  0
    3.4510   -1.4070    1.5360 O   0  0  0  0  0  0  0  0  0  0  0  0
  1  2  1  0
  2  3  2  3
  3  4  1  0
  3 10  1  0
  4  5  1  0
  4  6  2  0
  6  7  1  0
  7  8  1  0
  8  9  1  0
  9 10  1  0
 10 11  1  6
 11 12  1  0
 12 13  2  0
 12 17  1  0
 13 14  1  0
 14 15  2  0
 15 16  1  0
 16 17  2  0
 17 18  1  0
 18 19  2  0
 18 27  1  0
 19 20  1  0
 20 21  2  0
 21 22  1  0
 21 26  1  0
 22 23  2  0
 23 24  1  0
 24 25  2  0
 25 26  1  0
 26 27  1  0
 27 28  2  0
M  END
