
     RDKit          3D

 28 31  0  0  0  0  0  0  0  0999 V2000
    8.1270    1.0500    0.7480 C   0  0  0  0  0  0  0  0  0  0  0  0
    6.8820    0.7140   -0.0440 C   0  0  0  0  0  0  0  0  0  0  0  0
    5.6250    0.0140    0.9860 S   0  0  1  0  0  0  0  0  0  0  0  0
    6.1880   -1.2140    1.6540 O   0  0  0  0  0  0  0  0  0  0  0  0
    5.2780    1.0570    2.0380 O   0  0  0  0  0  0  0  0  0  0  0  0
    4.2000   -0.3670    0.0700 C   0  0  0  0  0  0  0  0  0  0  0  0
    2.9670    0.2200    0.3410 C   0  0  0  0  0  0  0  0  0  0  0  0
    1.8250   -0.0660   -0.3750 C   0  0  0  0  0  0  0  0  0  0  0  0
    0.5510    0.5690   -0.0630 C   0  0  0  0  0  0  0  0  0  0  0  0
    0.3760    1.4870    0.9500 C   0  0  0  0  0  0  0  0  0  0  0  0
   -0.9660    1.8830    0.9610 C   0  0  0  0  0  0  0  0  0  0  0  0
   -1.5360    1.1910   -0.0370 N   0  0  0  0  0  0  0  0  0  0  0  0
   -2.9530    1.2910   -0.3970 C   0  0  2  0  0  0  0  0  0  0  0  0
   -3.7830    1.0750    0.7980 C   0  0  0  0  0  0  0  0  0  0  0  0
   -4.7600    0.1890    0.7970 C   0  0  0  0  0  0  0  0  0  0  0  0
   -5.5730   -0.0030    2.0080 C   0  0  0  0  0  0  0  0  0  0  0  0
   -6.5390   -0.8980    1.9660 C   0  0  0  0  0  0  0  0  0  0  0  0
   -6.7710   -1.6600    0.7380 C   0  0  0  0  0  0  0  0  0  0  0  0
   -6.0520   -1.5050   -0.3670 C   0  0  0  0  0  0  0  0  0  0  0  0
   -5.0040   -0.5620   -0.3820 N   0  0  0  0  0  0  0  0  0  0  0  0
   -4.2250   -0.3820   -1.5510 C   0  0  0  0  0  0  0  0  0  0  0  0
   -4.4520   -1.1490   -2.7990 C   0  0  0  0  0  0  0  0  0  0  0  0
   -3.2840    0.4860   -1.5170 N   0  0  0  0  0  0  0  0  0  0  0  0
   -0.6380    0.4220   -0.6330 N   0  0  0  0  0  0  0  0  0  0  0  0
    1.9510   -0.9840   -1.4030 C   0  0  0  0  0  0  0  0  0  0  0  0
    3.1450   -1.5980   -1.7180 C   0  0  0  0  0  0  0  0  0  0  0  0
    4.2640   -1.2670   -0.9570 C   0  0  0  0  0  0  0  0  0  0  0  0
    5.7570   -2.0640   -1.3760 Cl  0  0  0  0  0  0  0  0  0  0  0  0
  1  2  1  0
  3  2  1  6
  3  4  2  0
  3  5  2  0
  3  6  1  0
  6  7  2  0
  6 27  1  0
  7  8  1  0
  8  9  1  0
  8 25  2  0
  9 10  1  0
  9 24  2  0
 10 11  2  0
 11 12  1  0
 13 12  1  1
 12 24  1  0
 13 14  1  0
 13 23  1  0
 14 15  2  0
 15 16  1  0
 15 20  1  0
 16 17  2  0
 17 18  1  0
 18 19  2  0
 19 20  1  0
 20 21  1  0
 21 22  1  0
 21 23  2  0
 25 26  1  0
 26 27  2  0
 27 28  1  0
M  END
