
     RDKit          3D

 28 31  0  0  0  0  0  0  0  0999 V2000
   -3.7860   -0.0150    3.1550 C   0  0  0  0  0  0  0  0  0  0  0  0
   -4.0860   -0.4680    1.7780 C   0  0  0  0  0  0  0  0  0  0  0  0
   -5.1420   -1.3140    1.5900 C   0  0  0  0  0  0  0  0  0  0  0  0
   -5.3980   -1.7190    0.3020 C   0  0  0  0  0  0  0  0  0  0  0  0
   -6.7460   -2.8030    0.0440 Cl  0  0  0  0  0  0  0  0  0  0  0  0
   -4.6240   -1.2890   -0.7450 C   0  0  0  0  0  0  0  0  0  0  0  0
   -3.5310   -0.4190   -0.5760 C   0  0  0  0  0  0  0  0  0  0  0  0
   -2.8450   -0.0120   -1.7890 C   0  0  0  0  0  0  0  0  0  0  0  0
   -3.4150   -0.1290   -3.0440 N   0  0  0  0  0  0  0  0  0  0  0  0
   -2.5550    0.2710   -3.9630 C   0  0  0  0  0  0  0  0  0  0  0  0
   -1.4540    0.6360   -3.3070 N   0  0  0  0  0  0  0  0  0  0  0  0
   -1.6360    0.4610   -1.9820 N   0  0  0  0  0  0  0  0  0  0  0  0
   -0.5580    0.7460   -1.0690 C   0  0  2  0  0  0  0  0  0  0  0  0
   -0.7620    2.1110   -0.4470 C   0  0  0  0  0  0  0  0  0  0  0  0
    0.7190    0.9120   -1.9240 C   0  0  0  0  0  0  0  0  0  0  0  0
    1.8660    0.4810   -1.1520 N   0  0  0  0  0  0  0  0  0  0  0  0
    2.6640    1.3260   -0.3950 C   0  0  0  0  0  0  0  0  0  0  0  0
    2.3530    2.5640   -0.4040 O   0  0  0  0  0  0  0  0  0  0  0  0
    3.8070    0.9380    0.4010 C   0  0  0  0  0  0  0  0  0  0  0  0
    4.6020    1.8250    1.1550 C   0  0  0  0  0  0  0  0  0  0  0  0
    5.5890    1.0950    1.7740 C   0  0  0  0  0  0  0  0  0  0  0  0
    5.3810   -0.1960    1.3940 C   0  0  0  0  0  0  0  0  0  0  0  0
    6.1920   -1.3910    1.8000 C   0  0  0  0  0  0  0  0  0  0  0  0
    4.3500   -0.2200    0.6110 O   0  0  0  0  0  0  0  0  0  0  0  0
    2.1440   -0.9470   -1.2290 C   0  0  0  0  0  0  0  0  0  0  0  0
    1.0920   -1.7020   -0.4280 C   0  0  0  0  0  0  0  0  0  0  0  0
   -0.2130   -0.5650    0.1070 S   0  0  0  0  0  0  0  0  0  0  0  0
   -3.3040   -0.0370    0.7010 C   0  0  0  0  0  0  0  0  0  0  0  0
  1  2  1  0
  2  3  2  0
  2 28  1  0
  3  4  1  0
  4  5  1  0
  4  6  2  0
  6  7  1  0
  7  8  1  0
  7 28  2  0
  8  9  2  0
  8 12  1  0
  9 10  1  0
 10 11  2  0
 11 12  1  0
 12 13  1  0
 13 14  1  1
 13 15  1  0
 13 27  1  0
 15 16  1  0
 16 17  1  0
 16 25  1  0
 17 18  2  0
 17 19  1  0
 19 20  2  0
 19 24  1  0
 20 21  1  0
 21 22  2  0
 22 23  1  0
 22 24  1  0
 25 26  1  0
 26 27  1  0
M  END
