
     RDKit          3D

 28 31  0  0  0  0  0  0  0  0999 V2000
   -7.8930    1.2630    0.4460 C   0  0  0  0  0  0  0  0  0  0  0  0
   -7.0340    0.0950    0.1160 C   0  0  0  0  0  0  0  0  0  0  0  0
   -7.5640   -1.1170   -0.2140 N   0  0  0  0  0  0  0  0  0  0  0  0
   -6.7300   -2.1440   -0.5040 C   0  0  0  0  0  0  0  0  0  0  0  0
   -7.5070   -3.6780   -0.9210 Cl  0  0  0  0  0  0  0  0  0  0  0  0
   -5.3990   -2.0310   -0.4840 N   0  0  0  0  0  0  0  0  0  0  0  0
   -4.8130   -0.8420   -0.1610 C   0  0  0  0  0  0  0  0  0  0  0  0
   -3.4850   -0.7400   -0.1440 N   0  0  0  0  0  0  0  0  0  0  0  0
   -2.9030    0.4430    0.1780 C   0  0  0  0  0  0  0  0  0  0  0  0
   -1.4410    0.5580    0.1980 C   0  0  0  0  0  0  0  0  0  0  0  0
   -0.7710    1.7070    0.5090 C   0  0  0  0  0  0  0  0  0  0  0  0
    0.6280    1.7680    0.5140 C   0  0  0  0  0  0  0  0  0  0  0  0
    1.3630    0.6460    0.1990 C   0  0  0  0  0  0  0  0  0  0  0  0
    2.8550    0.6580    0.1900 C   0  0  0  0  0  0  0  0  0  0  0  0
    3.3210   -0.7260   -0.1950 C   0  0  0  0  0  0  0  0  0  0  0  0
    4.8060   -0.7280   -0.2060 C   0  0  0  0  0  0  0  0  0  0  0  0
    5.4100   -1.5710    0.6210 C   0  0  0  0  0  0  0  0  0  0  0  0
    6.8490   -1.8290    0.8640 C   0  0  0  0  0  0  0  0  0  0  0  0
    7.4420   -2.1930   -0.3230 O   0  0  0  0  0  0  0  0  0  0  0  0
    8.0360   -0.8230   -1.1390 S   0  0  0  0  0  0  0  0  0  0  0  0
    8.8420   -1.2500   -2.3320 O   0  0  0  0  0  0  0  0  0  0  0  0
    6.7110    0.2640   -1.5790 C   0  0  0  0  0  0  0  0  0  0  0  0
    5.4470    0.1970   -1.1310 C   0  0  0  0  0  0  0  0  0  0  0  0
    0.6810   -0.4730   -0.1040 N   0  0  0  0  0  0  0  0  0  0  0  0
   -0.6620   -0.5490   -0.1140 C   0  0  0  0  0  0  0  0  0  0  0  0
   -3.7430    1.4870    0.4730 C   0  0  0  0  0  0  0  0  0  0  0  0
   -5.1170    1.4270    0.4680 C   0  0  0  0  0  0  0  0  0  0  0  0
   -5.6770    0.2000    0.1340 C   0  0  0  0  0  0  0  0  0  0  0  0
  1  2  1  0
  2  3  2  0
  2 28  1  0
  3  4  1  0
  4  5  1  0
  4  6  2  0
  6  7  1  0
  7  8  2  0
  7 28  1  0
  8  9  1  0
  9 10  1  0
  9 26  2  0
 10 11  2  0
 10 25  1  0
 11 12  1  0
 12 13  2  0
 13 14  1  0
 13 24  1  0
 14 15  1  0
 15 16  1  0
 16 17  2  0
 16 23  1  0
 17 18  1  0
 18 19  1  0
 20 19  1  6
 20 21  2  0
 20 22  1  0
 22 23  2  0
 24 25  2  0
 26 27  1  0
 27 28  2  0
M  END
