
     RDKit          3D

 28 31  0  0  0  0  0  0  0  0999 V2000
    0.0060   -2.9910    1.1310 C   0  0  0  0  0  0  0  0  0  0  0  0
   -0.1990   -2.5820   -0.3200 C   0  0  0  0  0  0  0  0  0  0  0  0
    0.0160   -1.1580   -0.4340 N   0  0  0  0  0  0  0  0  0  0  0  0
    1.1650   -0.5080   -0.6930 C   0  0  0  0  0  0  0  0  0  0  0  0
    2.2750   -1.0920   -0.8820 N   0  0  0  0  0  0  0  0  0  0  0  0
    3.5150   -0.5430   -1.1540 C   0  0  0  0  0  0  0  0  0  0  0  0
    3.7500   -0.0510   -2.2600 O   0  0  0  0  0  0  0  0  0  0  0  0
    4.6130   -0.5220   -0.1280 C   0  0  0  0  0  0  0  0  0  0  0  0
    4.3740   -1.0630    1.1590 C   0  0  0  0  0  0  0  0  0  0  0  0
    5.9250   -0.8200    2.0230 S   0  0  0  0  0  0  0  0  0  0  0  0
    6.7510   -0.0590    0.7000 C   0  0  0  0  0  0  0  0  0  0  0  0
    5.8350   -0.0210   -0.3210 C   0  0  0  0  0  0  0  0  0  0  0  0
    6.2550    0.5960   -1.6540 C   0  0  0  0  0  0  0  0  0  0  0  0
    0.8700    0.7900   -0.7010 N   0  0  0  0  0  0  0  0  0  0  0  0
    1.8310    1.8440   -0.9440 C   0  0  0  0  0  0  0  0  0  0  0  0
   -0.4520    1.0020   -0.4520 C   0  0  0  0  0  0  0  0  0  0  0  0
   -1.1970    2.1090   -0.3630 N   0  0  0  0  0  0  0  0  0  0  0  0
   -2.5260    1.9530   -0.0950 C   0  0  0  0  0  0  0  0  0  0  0  0
   -3.4910    3.4410   -0.0710 Cl  0  0  0  0  0  0  0  0  0  0  0  0
   -3.1600    0.7640    0.0930 C   0  0  0  0  0  0  0  0  0  0  0  0
   -4.5470    0.5580    0.4680 C   0  0  0  0  0  0  0  0  0  0  0  0
   -5.1190   -0.6500    0.3180 C   0  0  0  0  0  0  0  0  0  0  0  0
   -6.5190   -0.9540    0.6730 C   0  0  0  0  0  0  0  0  0  0  0  0
   -7.2230    0.0800    1.2760 O   0  0  0  0  0  0  0  0  0  0  0  0
   -6.6790    1.3140    1.4470 C   0  0  0  0  0  0  0  0  0  0  0  0
   -5.4090    1.5510    1.0670 C   0  0  0  0  0  0  0  0  0  0  0  0
   -2.3330   -0.3700   -0.0120 C   0  0  0  0  0  0  0  0  0  0  0  0
   -0.9890   -0.2510   -0.2830 C   0  0  0  0  0  0  0  0  0  0  0  0
  1  2  1  0
  2  3  1  0
  3  4  1  0
  3 28  1  0
  4  5  2  3
  4 14  1  0
  5  6  1  0
  6  7  2  0
  6  8  1  0
  8  9  2  0
  8 12  1  0
  9 10  1  0
 10 11  1  0
 11 12  2  0
 12 13  1  0
 14 15  1  0
 14 16  1  0
 16 17  2  0
 16 28  1  0
 17 18  1  0
 18 19  1  0
 18 20  2  0
 20 21  1  0
 20 27  1  0
 21 22  2  0
 21 26  1  0
 22 23  1  0
 23 24  1  0
 24 25  1  0
 25 26  2  0
 27 28  2  0
M  END
