
     RDKit          3D

 27 29  0  0  0  0  0  0  0  0999 V2000
   -7.4150    1.3200    0.9570 C   0  0  0  0  0  0  0  0  0  0  0  0
   -6.3380    0.9010    0.2840 C   0  0  0  0  0  0  0  0  0  0  0  0
   -5.7990   -0.4560    0.5220 C   0  0  0  0  0  0  0  0  0  0  0  0
   -4.4750   -0.4930    0.9810 O   0  0  0  0  0  0  0  0  0  0  0  0
   -3.4220    0.0400    0.2070 C   0  0  0  0  0  0  0  0  0  0  0  0
   -3.8260    0.5270   -0.8930 O   0  0  0  0  0  0  0  0  0  0  0  0
   -2.0810   -0.0010    0.6700 C   0  0  0  0  0  0  0  0  0  0  0  0
   -1.8790   -0.5230    2.3850 Cl  0  0  0  0  0  0  0  0  0  0  0  0
   -0.9830    0.4260    0.0670 C   0  0  0  0  0  0  0  0  0  0  0  0
   -1.3200    1.0350   -1.2990 C   0  0  0  0  0  0  0  0  0  0  0  0
    0.3400   -0.0610    0.2850 C   0  0  0  0  0  0  0  0  0  0  0  0
    1.3930    0.6440   -0.1210 C   0  0  0  0  0  0  0  0  0  0  0  0
    1.0840    1.9040   -0.7380 C   0  0  0  0  0  0  0  0  0  0  0  0
    1.9820    2.6800   -1.3050 C   0  0  0  0  0  0  0  0  0  0  0  0
    3.4050    2.3680   -1.3800 C   0  0  0  0  0  0  0  0  0  0  0  0
    3.7970    1.1340   -0.7710 N   0  0  0  0  0  0  0  0  0  0  0  0
    5.2020    0.8090   -0.8090 C   0  0  0  0  0  0  0  0  0  0  0  0
    5.5490   -0.5290   -0.3040 C   0  0  0  0  0  0  0  0  0  0  0  0
    6.3320   -0.6640    0.7320 C   0  0  0  0  0  0  0  0  0  0  0  0
    2.8400    0.2930   -0.1580 C   0  0  0  0  0  0  0  0  0  0  0  0
    3.4050   -0.6940    0.4650 N   0  0  0  0  0  0  0  0  0  0  0  0
    2.8190   -1.6680    1.3240 N   0  0  0  0  0  0  0  0  0  0  0  0
    1.5840   -1.9670    1.4440 C   0  0  0  0  0  0  0  0  0  0  0  0
    0.8710   -3.1910    2.5220 S   0  0  0  0  0  0  0  0  0  0  0  0
   -0.6130   -3.5060    1.4790 C   0  0  0  0  0  0  0  0  0  0  0  0
   -0.4410   -2.4870    0.3960 C   0  0  0  0  0  0  0  0  0  0  0  0
    0.4720   -1.4520    0.7290 N   0  0  0  0  0  0  0  0  0  0  0  0
  1  2  2  0
  2  3  1  0
  3  4  1  0
  4  5  1  0
  5  6  2  0
  5  7  1  0
  7  8  1  0
  7  9  2  3
  9 10  1  0
  9 11  1  0
 11 12  2  0
 11 27  1  0
 12 13  1  0
 12 20  1  0
 13 14  2  0
 14 15  1  0
 15 16  1  0
 16 17  1  0
 16 20  1  0
 17 18  1  0
 18 19  2  0
 20 21  2  0
 21 22  1  0
 22 23  2  0
 23 24  1  0
 23 27  1  0
 24 25  1  0
 25 26  1  0
 26 27  1  0
M  END
