
     RDKit          3D

 28 31  0  0  0  0  0  0  0  0999 V2000
    5.6180    1.2930   -1.1380 C   0  0  0  0  0  0  0  0  0  0  0  0
    5.3130    0.3490   -0.0520 C   0  0  0  0  0  0  0  0  0  0  0  0
    6.3610   -0.1170    0.7490 C   0  0  0  0  0  0  0  0  0  0  0  0
    6.1240   -0.9950    1.7680 C   0  0  0  0  0  0  0  0  0  0  0  0
    4.8630   -1.3980    1.9810 N   0  0  0  0  0  0  0  0  0  0  0  0
    3.8290   -0.9710    1.2300 C   0  0  0  0  0  0  0  0  0  0  0  0
    4.0270   -0.0800    0.1860 C   0  0  0  0  0  0  0  0  0  0  0  0
    2.9070    0.3810   -0.6200 C   0  0  0  0  0  0  0  0  0  0  0  0
    3.0890    1.2390   -1.6380 N   0  0  0  0  0  0  0  0  0  0  0  0
    2.0190    1.6270   -2.3350 C   0  0  0  0  0  0  0  0  0  0  0  0
    0.7390    1.1870   -2.0590 C   0  0  0  0  0  0  0  0  0  0  0  0
    0.5740    0.3090   -1.0140 C   0  0  0  0  0  0  0  0  0  0  0  0
   -0.7840   -0.2210   -0.6300 C   0  0  0  0  0  0  0  0  0  0  0  0
   -1.1890    0.5210    0.5300 N   0  0  0  0  0  0  0  0  0  0  0  0
   -0.2070    0.3040    1.5750 C   0  0  0  0  0  0  0  0  0  0  0  0
   -2.4640    0.0800    1.0770 C   0  0  2  0  0  0  0  0  0  0  0  0
   -2.4660   -1.3090    1.5410 C   0  0  0  0  0  0  0  0  0  0  0  0
   -3.4000   -2.2740    0.9070 C   0  0  0  0  0  0  0  0  0  0  0  0
   -4.7870   -1.6130    0.9840 C   0  0  0  0  0  0  0  0  0  0  0  0
   -4.6480   -0.4330    0.0820 C   0  0  0  0  0  0  0  0  0  0  0  0
   -3.5970    0.3610    0.1010 C   0  0  0  0  0  0  0  0  0  0  0  0
   -3.6240    1.4530   -0.8370 C   0  0  0  0  0  0  0  0  0  0  0  0
   -2.3390    2.6840   -1.0220 Cl  0  0  0  0  0  0  0  0  0  0  0  0
   -4.6810    1.5360   -1.6000 C   0  0  0  0  0  0  0  0  0  0  0  0
   -5.7090    0.2030   -1.1500 S   0  0  2  0  0  0  0  0  0  0  0  0
   -7.0190    0.6710   -0.5850 O   0  0  0  0  0  0  0  0  0  0  0  0
   -5.9040   -0.7710   -2.2740 O   0  0  0  0  0  0  0  0  0  0  0  0
    1.6730   -0.0620   -0.3310 N   0  0  0  0  0  0  0  0  0  0  0  0
  1  2  1  0
  2  3  2  0
  2  7  1  0
  3  4  1  0
  4  5  2  0
  5  6  1  0
  6  7  2  0
  7  8  1  0
  8  9  2  0
  8 28  1  0
  9 10  1  0
 10 11  2  0
 11 12  1  0
 12 13  1  0
 12 28  2  0
 13 14  1  0
 14 15  1  0
 16 14  1  6
 16 17  1  0
 16 21  1  0
 17 18  1  0
 18 19  1  0
 19 20  1  0
 20 21  2  0
 20 25  1  0
 21 22  1  0
 22 23  1  0
 22 24  2  0
 25 24  1  6
 25 26  2  0
 25 27  2  0
M  END
