
     RDKit          3D

 35 37  0  0  0  0  0  0  0  0999 V2000
    3.5910   -1.8080    0.4470 C   0  0  0  0  0  0  0  0  0  0  0  0
    3.3100   -0.6690   -0.5330 C   0  0  2  0  0  0  0  0  0  0  0  0
    3.5050   -1.2720   -1.9030 C   0  0  0  0  0  0  0  0  0  0  0  0
    3.9320    0.4760   -0.2770 O   0  0  0  0  0  0  0  0  0  0  0  0
    5.2260    0.6760   -0.2120 C   0  0  2  0  0  0  0  0  0  0  0  0
    6.0330   -0.0870    0.8020 C   0  0  0  0  0  0  0  0  0  0  0  0
    5.4300    2.1660    0.1450 C   0  0  0  0  0  0  0  0  0  0  0  0
    5.5620    2.8920   -1.1520 C   0  0  0  0  0  0  0  0  0  0  0  0
    5.5440    1.8240   -2.2470 C   0  0  1  0  0  0  0  0  0  0  0  0
    6.6880    2.2870   -3.5500 Cl  0  0  0  0  0  0  0  0  0  0  0  0
    6.0150    0.6290   -1.5020 C   0  0  0  0  0  0  0  0  0  0  0  0
    1.8040   -0.3860   -0.3520 C   0  0  1  0  0  0  0  0  0  0  0  0
    1.3240    0.7240   -1.2250 C   0  0  0  0  0  0  0  0  0  0  0  0
    0.1290    0.1210   -1.9480 C   0  0  0  0  0  0  0  0  0  0  0  0
   -0.1950   -1.0390   -1.1080 C   0  0  2  0  0  0  0  0  0  0  0  0
   -1.1860   -0.8930   -0.0090 C   0  0  0  0  0  0  0  0  0  0  0  0
   -2.5460   -0.4960   -0.3980 C   0  0  1  0  0  0  0  0  0  0  0  0
   -2.5560    0.7560   -1.0410 O   0  0  0  0  0  0  0  0  0  0  0  0
   -3.1520   -1.4720   -1.3440 C   0  0  0  0  0  0  0  0  0  0  0  0
   -4.2490   -2.3300   -0.7740 C   0  0  1  0  0  0  0  0  0  0  0  0
   -4.3260   -3.5950   -1.6450 C   0  0  0  0  0  0  0  0  0  0  0  0
   -5.3220   -4.4570   -1.1900 O   0  0  0  0  0  0  0  0  0  0  0  0
   -3.9410   -2.7570    0.6230 C   0  0  0  0  0  0  0  0  0  0  0  0
   -3.5890   -1.6020    1.5180 C   0  0  0  0  0  0  0  0  0  0  0  0
   -3.4730   -0.2960    0.8030 C   0  0  2  0  0  0  0  0  0  0  0  0
   -4.7590    0.2500    0.3610 C   0  0  0  0  0  0  0  0  0  0  0  0
   -5.7800    0.6860    0.0300 N   0  0  0  0  0  0  0  0  0  0  0  0
   -2.8970    0.7330    1.7670 C   0  0  1  0  0  0  0  0  0  0  0  0
   -2.7190    1.9670    1.0960 O   0  0  0  0  0  0  0  0  0  0  0  0
   -4.0050    1.0330    2.7800 C   0  0  0  0  0  0  0  0  0  0  0  0
   -3.5590    2.0540    3.8070 C   0  0  1  0  0  0  0  0  0  0  0  0
   -2.4570    1.6410    4.5390 O   0  0  0  0  0  0  0  0  0  0  0  0
   -3.4570    3.4460    3.2810 C   0  0  0  0  0  0  0  0  0  0  0  0
   -3.3270    4.2880    4.4130 O   0  0  0  0  0  0  0  0  0  0  0  0
    1.0330   -1.5160   -0.5950 O   0  0  0  0  0  0  0  0  0  0  0  0
  2  1  1  1
  2  3  1  0
  2  4  1  0
  2 12  1  0
  4  5  1  0
  5  6  1  1
  5  7  1  0
  5 11  1  0
  7  8  1  0
  8  9  1  0
  9 10  1  6
  9 11  1  0
 12 13  1  6
 12 35  1  0
 13 14  1  0
 14 15  1  0
 15 16  1  1
 15 35  1  0
 16 17  1  0
 17 18  1  6
 17 19  1  0
 17 25  1  0
 19 20  1  0
 20 21  1  6
 20 23  1  0
 21 22  1  0
 23 24  1  0
 24 25  1  0
 25 26  1  6
 25 28  1  0
 26 27  3  0
 28 29  1  6
 28 30  1  0
 30 31  1  0
 31 32  1  6
 31 33  1  0
 33 34  1  0
M  END
