
     RDKit          3D

 35 37  0  0  0  0  0  0  0  0999 V2000
    6.3190    2.2670    2.5620 C   0  0  0  0  0  0  0  0  0  0  0  0
    4.9780    1.6830    2.9720 C   0  0  2  0  0  0  0  0  0  0  0  0
    5.1300    0.2470    3.4270 C   0  0  0  0  0  0  0  0  0  0  0  0
    3.7190   -0.2740    3.1730 C   0  0  1  0  0  0  0  0  0  0  0  0
    2.8690    0.0780    4.2170 O   0  0  0  0  0  0  0  0  0  0  0  0
    3.3930    0.4700    1.8970 C   0  0  2  0  0  0  0  0  0  0  0  0
    1.9460    0.8820    1.7850 C   0  0  0  0  0  0  0  0  0  0  0  0
    1.3820    0.1040    0.6010 C   0  0  2  0  0  0  0  0  0  0  0  0
    0.0380    0.6540    0.2410 C   0  0  0  0  0  0  0  0  0  0  0  0
   -0.6310   -0.0950   -0.8820 C   0  0  2  0  0  0  0  0  0  0  0  0
    0.2510   -0.0250   -2.0800 C   0  0  0  0  0  0  0  0  0  0  0  0
   -0.1830    0.8490   -3.2280 C   0  0  2  0  0  0  0  0  0  0  0  0
    0.8660    1.9770   -3.4290 C   0  0  0  0  0  0  0  0  0  0  0  0
    0.4890    2.7630   -4.4810 O   0  0  0  0  0  0  0  0  0  0  0  0
   -1.5330    1.4310   -3.1180 C   0  0  0  0  0  0  0  0  0  0  0  0
   -2.4680    0.3520   -2.5750 C   0  0  0  0  0  0  0  0  0  0  0  0
   -2.0680    0.0740   -1.1390 C   0  0  1  0  0  0  0  0  0  0  0  0
   -3.0620   -0.6560   -0.3070 C   0  0  1  0  0  0  0  0  0  0  0  0
   -2.8440   -2.1330   -0.2210 C   0  0  0  0  0  0  0  0  0  0  0  0
   -2.7580   -3.0600   -1.3090 C   0  0  0  0  0  0  0  0  0  0  0  0
   -1.6870   -2.7890   -2.2240 O   0  0  0  0  0  0  0  0  0  0  0  0
   -3.0410   -0.2420    1.1440 C   0  0  0  0  0  0  0  0  0  0  0  0
   -3.4100    1.1060    1.5430 C   0  0  0  0  0  0  0  0  0  0  0  0
   -2.7160    2.1520    1.0280 O   0  0  0  0  0  0  0  0  0  0  0  0
   -4.4880   -0.3430   -0.6800 C   0  0  0  0  0  0  0  0  0  0  0  0
   -5.1850   -0.6820   -1.8810 C   0  0  2  0  0  0  0  0  0  0  0  0
   -6.4760    0.0350   -1.7870 O   0  0  0  0  0  0  0  0  0  0  0  0
   -5.7920   -2.0750   -1.7600 C   0  0  0  0  0  0  0  0  0  0  0  0
   -6.2950   -3.1750   -1.6630 N   0  0  0  0  0  0  0  0  0  0  0  0
    1.5330   -1.3210    0.9120 C   0  0  0  0  0  0  0  0  0  0  0  0
    3.0110   -1.6430    0.5560 C   0  0  1  0  0  0  0  0  0  0  0  0
    3.4730   -2.7490    1.2360 O   0  0  0  0  0  0  0  0  0  0  0  0
    3.1010   -2.0290   -1.1890 Cl  0  0  0  0  0  0  0  0  0  0  0  0
    3.8630   -0.4260    0.7670 C   0  0  0  0  0  0  0  0  0  0  0  0
    4.1620    1.6080    1.8880 O   0  0  0  0  0  0  0  0  0  0  0  0
  2  1  1  6
  2  3  1  0
  2 35  1  0
  3  4  1  0
  4  5  1  1
  4  6  1  0
  6  7  1  6
  6 34  1  0
  6 35  1  0
  7  8  1  0
  8  9  1  1
  8 30  1  0
 10  9  1  1
 10 11  1  0
 10 17  1  0
 11 12  1  0
 12 13  1  1
 12 15  1  0
 13 14  1  0
 15 16  1  0
 17 16  1  6
 17 18  1  0
 18 19  1  1
 18 22  1  0
 18 25  1  0
 19 20  1  0
 20 21  1  0
 22 23  1  0
 23 24  1  0
 25 26  1  0
 26 27  1  1
 26 28  1  0
 28 29  3  0
 30 31  1  0
 31 32  1  1
 31 33  1  0
 31 34  1  0
M  END
