
     RDKit          3D

 35 37  0  0  0  0  0  0  0  0999 V2000
    2.6400   -1.7990    1.4340 C   0  0  0  0  0  0  0  0  0  0  0  0
    2.3260   -0.4790    0.7080 C   0  0  1  0  0  0  0  0  0  0  0  0
    3.0020    0.5630    1.5090 C   0  0  0  0  0  0  0  0  0  0  0  0
    4.3740    0.2840    1.5360 O   0  0  0  0  0  0  0  0  0  0  0  0
    2.8870   -0.6140   -0.6440 C   0  0  0  0  0  0  0  0  0  0  0  0
    4.3420   -0.8760   -0.7940 C   0  0  0  0  0  0  0  0  0  0  0  0
    5.1290   -1.3160    0.0640 O   0  0  0  0  0  0  0  0  0  0  0  0
    4.9750   -0.6040   -2.0720 N   0  0  0  0  0  0  0  0  0  0  0  0
    6.3810   -0.8560   -2.2140 C   0  0  0  0  0  0  0  0  0  0  0  0
    7.2100   -0.0620   -1.2880 C   0  0  0  0  0  0  0  0  0  0  0  0
    6.6590    0.7380   -0.4970 O   0  0  0  0  0  0  0  0  0  0  0  0
    8.5900   -0.1530   -1.2440 O   0  0  0  0  0  0  0  0  0  0  0  0
    0.7780   -0.3080    0.7020 C   0  0  2  0  0  0  0  0  0  0  0  0
    0.3070   -1.5020   -0.0510 C   0  0  2  0  0  0  0  0  0  0  0  0
    0.5460   -1.1380   -1.4250 O   0  0  0  0  0  0  0  0  0  0  0  0
   -1.0450   -1.9530    0.1060 C   0  0  0  0  0  0  0  0  0  0  0  0
   -1.6330   -3.0420    0.8810 C   0  0  0  0  0  0  0  0  0  0  0  0
   -3.1520   -2.9150    0.8490 C   0  0  0  0  0  0  0  0  0  0  0  0
   -3.8050   -2.4090   -0.3860 C   0  0  1  0  0  0  0  0  0  0  0  0
   -5.0710   -3.0510   -0.4570 O   0  0  0  0  0  0  0  0  0  0  0  0
   -4.0750   -0.9650   -0.5030 C   0  0  1  0  0  0  0  0  0  0  0  0
   -3.3390   -0.2260   -1.5580 C   0  0  0  0  0  0  0  0  0  0  0  0
   -3.0080    1.1040   -0.8620 C   0  0  2  0  0  0  0  0  0  0  0  0
   -3.0970    1.0050    0.5490 O   0  0  0  0  0  0  0  0  0  0  0  0
   -4.2540    1.8230   -1.2160 C   0  0  0  0  0  0  0  0  0  0  0  0
   -5.4400    1.0400   -0.7430 C   0  0  0  0  0  0  0  0  0  0  0  0
   -5.4650   -0.4420   -0.7160 C   0  0  2  0  0  0  0  0  0  0  0  0
   -6.4710   -1.0170    0.6520 Cl  0  0  0  0  0  0  0  0  0  0  0  0
   -1.6480    1.5420   -1.1070 C   0  0  0  0  0  0  0  0  0  0  0  0
   -0.7810    1.7390    0.0550 C   0  0  2  0  0  0  0  0  0  0  0  0
   -0.3550    3.2430   -0.0750 C   0  0  0  0  0  0  0  0  0  0  0  0
    0.7400    3.6260    0.8400 C   0  0  0  0  0  0  0  0  0  0  0  0
    0.7210    2.9760    2.1900 C   0  0  0  0  0  0  0  0  0  0  0  0
    0.2690    1.5780    2.0880 C   0  0  0  0  0  0  0  0  0  0  0  0
    0.3310    1.0290    0.6000 C   0  0  1  0  0  0  0  0  0  0  0  0
  2  1  1  1
  2  3  1  0
  2  5  1  0
 13  2  1  6
  3  4  1  0
  5  6  1  0
  6  7  2  0
  6  8  1  0
  8  9  1  0
  9 10  1  0
 10 11  2  0
 10 12  1  0
 13 14  1  0
 13 35  1  0
 14 15  1  6
 14 16  1  0
 16 17  1  0
 17 18  1  0
 18 19  1  0
 19 20  1  1
 19 21  1  0
 21 22  1  6
 21 27  1  0
 22 23  1  0
 23 24  1  1
 23 25  1  0
 23 29  1  0
 25 26  1  0
 26 27  1  0
 27 28  1  1
 30 29  1  6
 30 31  1  0
 30 35  1  0
 31 32  1  0
 32 33  1  0
 33 34  1  0
 35 34  1  1
M  END
