
     RDKit          3D

 35 38  0  0  0  0  0  0  0  0999 V2000
    4.9500    0.8670   -1.0170 C   0  0  0  0  0  0  0  0  0  0  0  0
    4.2750    0.0330    0.0230 C   0  0  1  0  0  0  0  0  0  0  0  0
    5.3200   -1.0210    0.4460 C   0  0  0  0  0  0  0  0  0  0  0  0
    3.8690    0.6770    1.1280 O   0  0  0  0  0  0  0  0  0  0  0  0
    2.4830    1.1010    0.9180 C   0  0  1  0  0  0  0  0  0  0  0  0
    2.3050    1.6300    2.3650 C   0  0  0  0  0  0  0  0  0  0  0  0
    2.7000    2.3000    0.0990 C   0  0  0  0  0  0  0  0  0  0  0  0
    1.8710   -0.1250    0.5360 C   0  0  1  0  0  0  0  0  0  0  0  0
    2.2230   -1.0350    1.7550 C   0  0  0  0  0  0  0  0  0  0  0  0
    2.2860   -2.4870    1.4710 C   0  0  0  0  0  0  0  0  0  0  0  0
    1.1760   -2.8560    0.5850 C   0  0  0  0  0  0  0  0  0  0  0  0
    0.1280   -1.7660    0.5440 C   0  0  2  0  0  0  0  0  0  0  0  0
   -0.9610   -2.4950   -0.1980 C   0  0  0  0  0  0  0  0  0  0  0  0
   -2.1440   -1.6610   -0.0030 C   0  0  2  0  0  0  0  0  0  0  0  0
   -3.2520   -2.2320   -0.8620 C   0  0  0  0  0  0  0  0  0  0  0  0
   -3.5650   -3.6630   -0.4730 C   0  0  0  0  0  0  0  0  0  0  0  0
   -3.9740   -3.7270    0.8580 O   0  0  0  0  0  0  0  0  0  0  0  0
   -1.9700   -0.1990   -0.2050 C   0  0  1  0  0  0  0  0  0  0  0  0
   -2.5950    0.0500   -1.4350 O   0  0  0  0  0  0  0  0  0  0  0  0
   -3.0040    0.4280    0.7480 C   0  0  1  0  0  0  0  0  0  0  0  0
   -3.9060   -0.5640    1.1840 O   0  0  0  0  0  0  0  0  0  0  0  0
   -2.2000    0.8360    1.8850 C   0  0  2  0  0  0  0  0  0  0  0  0
   -2.7670    2.0830    2.4350 N   0  0  0  0  0  0  0  0  0  0  0  0
   -0.8320    1.0460    1.3500 C   0  0  0  0  0  0  0  0  0  0  0  0
   -0.6630    0.4390   -0.0210 C   0  0  2  0  0  0  0  0  0  0  0  0
   -0.5170    1.5460   -1.0070 C   0  0  0  0  0  0  0  0  0  0  0  0
   -1.2500    2.7520   -1.2180 C   0  0  0  0  0  0  0  0  0  0  0  0
   -2.5740    2.9520   -1.7920 C   0  0  0  0  0  0  0  0  0  0  0  0
   -2.6780    2.6000   -3.2920 C   0  0  0  0  0  0  0  0  0  0  0  0
   -3.9540    2.7860   -3.7600 O   0  0  0  0  0  0  0  0  0  0  0  0
    0.5740   -0.4680   -0.0520 C   0  0  1  0  0  0  0  0  0  0  0  0
    0.8250   -0.7990   -1.3810 O   0  0  0  0  0  0  0  0  0  0  0  0
   -0.0390   -1.1110   -2.1840 O   0  0  0  0  0  0  0  0  0  0  0  0
    2.9900   -0.6310   -0.4260 C   0  0  1  0  0  0  0  0  0  0  0  0
    2.8260   -0.2210   -2.1090 Cl  0  0  0  0  0  0  0  0  0  0  0  0
  2  1  1  6
  2  3  1  0
  2  4  1  0
  2 34  1  0
  4  5  1  0
  5  6  1  1
  5  7  1  0
  5  8  1  0
  8  9  1  1
  8 31  1  0
  8 34  1  0
  9 10  1  0
 10 11  1  0
 12 11  1  6
 12 13  1  0
 12 31  1  0
 13 14  1  0
 14 15  1  6
 14 18  1  0
 15 16  1  0
 16 17  1  0
 18 19  1  6
 18 20  1  0
 18 25  1  0
 20 21  1  1
 20 22  1  0
 22 23  1  6
 22 24  1  0
 24 25  1  0
 25 26  1  6
 25 31  1  0
 26 27  1  0
 27 28  1  0
 28 29  1  0
 29 30  1  0
 31 32  1  6
 32 33  1  0
 34 35  1  6
M  END
