
     RDKit          3D

 34 36  0  0  0  0  0  0  0  0999 V2000
   10.9990    0.7060   -0.9150 C   0  0  0  0  0  0  0  0  0  0  0  0
    9.5950    0.3190   -0.7650 C   0  0  0  0  0  0  0  0  0  0  0  0
    9.2620   -0.9870   -0.6620 C   0  0  0  0  0  0  0  0  0  0  0  0
    7.9090   -1.3970   -0.5210 C   0  0  0  0  0  0  0  0  0  0  0  0
    6.7500   -1.8130   -0.3940 C   0  0  0  0  0  0  0  0  0  0  0  0
    5.6300   -0.9070   -0.4100 N   0  0  0  0  0  0  0  0  0  0  0  0
    5.8750    0.3640   -0.8100 C   0  0  0  0  0  0  0  0  0  0  0  0
    4.8620    1.3250   -0.7360 C   0  0  0  0  0  0  0  0  0  0  0  0
    3.6710    0.9080   -0.2550 N   0  0  0  0  0  0  0  0  0  0  0  0
    3.3850   -0.3520    0.1470 C   0  0  0  0  0  0  0  0  0  0  0  0
    2.0650   -0.6290    0.5700 N   0  0  0  0  0  0  0  0  0  0  0  0
    1.0790    0.3530    0.7070 C   0  0  0  0  0  0  0  0  0  0  0  0
    1.6180    1.5600    0.3860 O   0  0  0  0  0  0  0  0  0  0  0  0
   -0.2760    0.4400    1.0830 C   0  0  2  0  0  0  0  0  0  0  0  0
   -0.7440    1.9230    0.9270 C   0  0  0  0  0  0  0  0  0  0  0  0
   -0.3740    0.1880    2.6000 C   0  0  0  0  0  0  0  0  0  0  0  0
   -1.5540   -0.5100    0.2360 S   0  0  0  0  0  0  0  0  0  0  0  0
   -3.0970   -0.2030    1.1520 C   0  0  0  0  0  0  0  0  0  0  0  0
   -4.3480   -0.5520    0.4940 C   0  0  0  0  0  0  0  0  0  0  0  0
   -5.0360   -1.7110    0.5520 N   0  0  0  0  0  0  0  0  0  0  0  0
   -6.1690   -1.6220   -0.1390 C   0  0  0  0  0  0  0  0  0  0  0  0
   -7.2250   -2.6520   -0.3230 C   0  0  2  0  0  0  0  0  0  0  0  0
   -7.5050   -2.8690   -1.7920 C   0  0  0  0  0  0  0  0  0  0  0  0
   -8.4420   -2.3010    0.4750 C   0  0  0  0  0  0  0  0  0  0  0  0
   -6.2010   -0.3870   -0.6460 N   0  0  0  0  0  0  0  0  0  0  0  0
   -5.1180    0.2580   -0.2710 N   0  0  0  0  0  0  0  0  0  0  0  0
   -4.8330    1.6090   -0.6660 C   0  0  0  0  0  0  0  0  0  0  0  0
   -4.8170    2.5920    0.3180 C   0  0  0  0  0  0  0  0  0  0  0  0
   -4.5410    3.8920   -0.0590 C   0  0  0  0  0  0  0  0  0  0  0  0
   -4.2860    4.1920   -1.3730 N   0  0  0  0  0  0  0  0  0  0  0  0
   -4.3160    3.2020   -2.2710 C   0  0  0  0  0  0  0  0  0  0  0  0
   -4.5900    1.9270   -1.9270 N   0  0  0  0  0  0  0  0  0  0  0  0
    4.4230   -1.2550    0.0510 C   0  0  0  0  0  0  0  0  0  0  0  0
    4.2060   -2.4220    0.4010 O   0  0  0  0  0  0  0  0  0  0  0  0
  1  2  1  0
  2  3  2  3
  3  4  1  0
  4  5  2  3
  5  6  1  0
  6  7  1  0
  6 33  1  0
  7  8  2  0
  8  9  1  0
  9 10  2  0
 10 11  1  0
 10 33  1  0
 11 12  1  0
 12 13  2  0
 12 14  1  0
 14 15  1  1
 14 16  1  0
 14 17  1  0
 17 18  1  0
 18 19  1  0
 19 20  2  0
 19 26  1  0
 20 21  1  0
 21 22  1  0
 21 25  2  0
 22 23  1  6
 22 24  1  0
 25 26  1  0
 26 27  1  0
 27 28  2  0
 27 32  1  0
 28 29  1  0
 29 30  2  0
 30 31  1  0
 31 32  2  0
 33 34  2  0
M  END
