
     RDKit          3D

 35 37  0  0  0  0  0  0  0  0999 V2000
   -4.1910   -1.9150    4.1520 C   0  0  0  0  0  0  0  0  0  0  0  0
   -3.4550   -2.1420    3.0840 C   0  0  0  0  0  0  0  0  0  0  0  0
   -3.3480   -3.7590    2.4160 Cl  0  0  0  0  0  0  0  0  0  0  0  0
   -2.6740   -1.0490    2.3830 C   0  0  0  0  0  0  0  0  0  0  0  0
   -3.1400   -0.9900    1.1280 O   0  0  0  0  0  0  0  0  0  0  0  0
   -2.6240   -0.0710    0.2360 C   0  0  2  0  0  0  0  0  0  0  0  0
   -2.8580    1.3060    0.8560 C   0  0  2  0  0  0  0  0  0  0  0  0
   -4.2420    1.5210    1.0610 O   0  0  0  0  0  0  0  0  0  0  0  0
   -2.4150    2.4510   -0.0130 C   0  0  0  0  0  0  0  0  0  0  0  0
   -2.7450    3.7170    0.8010 C   0  0  0  0  0  0  0  0  0  0  0  0
   -2.0450    3.6900    1.9990 O   0  0  0  0  0  0  0  0  0  0  0  0
   -3.4670   -0.1780   -1.0080 C   0  0  0  0  0  0  0  0  0  0  0  0
   -2.8250   -0.6130   -2.2550 C   0  0  0  0  0  0  0  0  0  0  0  0
   -1.4690   -0.6240   -2.3390 O   0  0  0  0  0  0  0  0  0  0  0  0
   -0.8420   -1.1600   -1.1700 C   0  0  1  0  0  0  0  0  0  0  0  0
   -1.5250   -2.4830   -1.0680 C   0  0  0  0  0  0  0  0  0  0  0  0
   -0.8330   -3.5300   -0.2660 C   0  0  1  0  0  0  0  0  0  0  0  0
   -1.5860   -4.8390   -0.4890 C   0  0  0  0  0  0  0  0  0  0  0  0
    0.5240   -3.7350   -0.9460 C   0  0  0  0  0  0  0  0  0  0  0  0
    1.2400   -2.3770   -0.6780 C   0  0  0  0  0  0  0  0  0  0  0  0
    0.6030   -1.3000   -1.5140 C   0  0  2  0  0  0  0  0  0  0  0  0
    1.4380   -0.1470   -1.8140 C   0  0  1  0  0  0  0  0  0  0  0  0
    0.9940    0.7090   -2.9950 C   0  0  0  0  0  0  0  0  0  0  0  0
    2.1670    0.6490   -0.7970 C   0  0  1  0  0  0  0  0  0  0  0  0
    3.2150   -0.0270    0.0350 C   0  0  1  0  0  0  0  0  0  0  0  0
    4.4270    0.0160   -0.7030 O   0  0  0  0  0  0  0  0  0  0  0  0
    3.4930    0.8300    1.2680 C   0  0  0  0  0  0  0  0  0  0  0  0
    4.1170    2.1040    0.7530 C   0  0  2  0  0  0  0  0  0  0  0  0
    5.5010    1.8670    0.4030 N   0  0  0  0  0  0  0  0  0  0  0  0
    4.1390    3.0600    1.9570 C   0  0  0  0  0  0  0  0  0  0  0  0
    2.8340    3.3460    2.3560 O   0  0  0  0  0  0  0  0  0  0  0  0
    3.3080    2.7590   -0.3060 C   0  0  0  0  0  0  0  0  0  0  0  0
    2.8840    1.8540   -1.4310 C   0  0  1  0  0  0  0  0  0  0  0  0
    3.9750    1.5220   -2.1740 O   0  0  0  0  0  0  0  0  0  0  0  0
   -1.1700   -0.3480    0.0250 C   0  0  0  0  0  0  0  0  0  0  0  0
  1  2  2  0
  2  3  1  0
  2  4  1  0
  4  5  1  0
  6  5  1  1
  6  7  1  0
  6 12  1  0
  6 35  1  0
  7  8  1  6
  7  9  1  0
  9 10  1  0
 10 11  1  0
 12 13  1  0
 13 14  1  0
 14 15  1  0
 15 16  1  1
 15 21  1  0
 15 35  1  0
 16 17  1  0
 17 18  1  6
 17 19  1  0
 19 20  1  0
 21 20  1  1
 21 22  1  0
 22 23  1  1
 22 24  1  0
 24 25  1  6
 24 33  1  0
 25 26  1  6
 25 27  1  0
 27 28  1  0
 28 29  1  6
 28 30  1  0
 28 32  1  0
 30 31  1  0
 32 33  1  0
 33 34  1  1
M  END
