
     RDKit          3D

 34 37  0  0  0  0  0  0  0  0999 V2000
    6.8510    0.1650    1.1250 C   0  0  0  0  0  0  0  0  0  0  0  0
    5.8900    1.1280    1.7810 C   0  0  0  0  0  0  0  0  0  0  0  0
    4.3580    0.9710    0.8800 S   0  0  2  0  0  0  0  0  0  0  0  0
    4.5100    1.2980   -0.5150 O   0  0  0  0  0  0  0  0  0  0  0  0
    3.3170    1.9090    1.7760 O   0  0  0  0  0  0  0  0  0  0  0  0
    3.8400   -0.6290    1.2470 N   0  0  0  0  0  0  0  0  0  0  0  0
    2.5320   -1.0250    0.8570 C   0  0  0  0  0  0  0  0  0  0  0  0
    2.0690   -2.2920    1.1270 C   0  0  0  0  0  0  0  0  0  0  0  0
    0.8040   -2.6560    0.7410 C   0  0  0  0  0  0  0  0  0  0  0  0
   -0.0770   -1.7930    0.0690 C   0  0  0  0  0  0  0  0  0  0  0  0
    0.4020   -0.5140   -0.1920 C   0  0  0  0  0  0  0  0  0  0  0  0
    1.6960   -0.1690    0.2080 C   0  0  0  0  0  0  0  0  0  0  0  0
   -0.3330    0.5690   -0.8450 C   0  0  0  0  0  0  0  0  0  0  0  0
    0.2510    1.1140   -1.9910 C   0  0  0  0  0  0  0  0  0  0  0  0
   -0.2730    2.0650   -2.7440 N   0  0  0  0  0  0  0  0  0  0  0  0
    0.4410    2.5600   -3.9340 C   0  0  0  0  0  0  0  0  0  0  0  0
   -1.4610    2.5740   -2.4120 C   0  0  0  0  0  0  0  0  0  0  0  0
   -1.9560    3.4720   -3.1270 O   0  0  0  0  0  0  0  0  0  0  0  0
   -2.1000    2.0760   -1.2740 C   0  0  0  0  0  0  0  0  0  0  0  0
   -1.5590    1.0840   -0.4790 C   0  0  0  0  0  0  0  0  0  0  0  0
   -2.2750    0.6830    0.6320 O   0  0  0  0  0  0  0  0  0  0  0  0
   -1.8090    0.5950    1.9590 C   0  0  0  0  0  0  0  0  0  0  0  0
   -3.0560    0.3970    2.8360 C   0  0  0  0  0  0  0  0  0  0  0  0
   -4.0480   -0.5090    2.0930 C   0  0  0  0  0  0  0  0  0  0  0  0
   -3.3370   -1.6880    1.4850 C   0  0  0  0  0  0  0  0  0  0  0  0
   -3.5140   -1.7730    0.0010 C   0  0  0  0  0  0  0  0  0  0  0  0
   -4.7800   -1.5210   -0.4470 C   0  0  0  0  0  0  0  0  0  0  0  0
   -5.0130   -1.6040   -1.8070 C   0  0  0  0  0  0  0  0  0  0  0  0
   -6.2690   -1.3540   -2.2600 F   0  0  0  0  0  0  0  0  0  0  0  0
   -3.9910   -1.9310   -2.6570 C   0  0  0  0  0  0  0  0  0  0  0  0
   -2.7090   -2.1860   -2.1920 C   0  0  0  0  0  0  0  0  0  0  0  0
   -1.7700   -2.5300   -3.1490 F   0  0  0  0  0  0  0  0  0  0  0  0
   -2.4300   -2.1140   -0.8440 C   0  0  0  0  0  0  0  0  0  0  0  0
   -1.2760   -2.3260   -0.2480 O   0  0  0  0  0  0  0  0  0  0  0  0
  1  2  1  0
  2  3  1  0
  3  4  1  6
  3  5  1  0
  3  6  1  0
  6  7  1  0
  7  8  2  0
  7 12  1  0
  8  9  1  0
  9 10  2  0
 10 11  1  0
 10 34  1  0
 11 12  2  0
 11 13  1  0
 13 14  2  0
 13 20  1  0
 14 15  1  0
 15 16  1  0
 15 17  1  0
 17 18  2  0
 17 19  1  0
 19 20  2  0
 20 21  1  0
 21 22  1  0
 22 23  1  0
 23 24  1  0
 24 25  1  0
 25 26  1  0
 26 27  2  0
 26 33  1  0
 27 28  1  0
 28 29  1  0
 28 30  2  0
 30 31  1  0
 31 32  1  0
 31 33  2  0
 33 34  1  0
M  END
