
     RDKit          3D

 12 13  0  0  0  0  0  0  0  0999 V2000
   -0.9660    1.8210    0.3390 C   0  0  0  0  0  0  0  0  0  0  0  0
   -0.3600    0.4590    0.1060 C   0  0  1  0  0  0  0  0  0  0  0  0
    1.0910    0.5610    0.0380 C   0  0  0  0  0  0  0  0  0  0  0  0
    1.8040    1.6950    0.1610 N   0  0  0  0  0  0  0  0  0  0  0  0
    3.0820    1.4600    0.0530 N   0  0  0  0  0  0  0  0  0  0  0  0
    3.2930    0.1470   -0.1490 C   0  0  0  0  0  0  0  0  0  0  0  0
    2.0310   -0.4450   -0.1620 C   0  0  0  0  0  0  0  0  0  0  0  0
    1.7580   -1.8110   -0.3440 N   0  0  0  0  0  0  0  0  0  0  0  0
   -0.8790   -0.4610    1.1770 C   0  0  0  0  0  0  0  0  0  0  0  0
   -2.3400   -0.6260    0.7380 C   0  0  0  0  0  0  0  0  0  0  0  0
   -2.1290   -0.9710   -0.7380 C   0  0  0  0  0  0  0  0  0  0  0  0
   -0.9460   -0.1540   -1.1640 C   0  0  0  0  0  0  0  0  0  0  0  0
  2  1  1  1
  2  3  1  0
  2  9  1  0
  2 12  1  0
  3  4  2  0
  3  7  1  0
  4  5  1  0
  5  6  1  0
  6  7  2  0
  7  8  1  0
  9 10  1  0
 10 11  1  0
 11 12  1  0
M  END
