
     RDKit          3D

 12 13  0  0  0  0  0  0  0  0999 V2000
   -2.1600   -1.3190    0.1880 C   0  0  0  0  0  0  0  0  0  0  0  0
   -1.6030    0.0910    0.0510 C   0  0  1  0  0  0  0  0  0  0  0  0
   -2.0510    0.5460   -1.3510 C   0  0  0  0  0  0  0  0  0  0  0  0
   -2.2510    0.9460    1.0840 C   0  0  0  0  0  0  0  0  0  0  0  0
   -0.1190    0.0660    0.0680 C   0  0  0  0  0  0  0  0  0  0  0  0
    0.6750    0.8700   -0.6950 N   0  0  0  0  0  0  0  0  0  0  0  0
    1.9650    0.5680   -0.4970 C   0  0  0  0  0  0  0  0  0  0  0  0
    3.2600    0.8910   -0.8840 C   0  0  0  0  0  0  0  0  0  0  0  0
    4.0510    0.0460   -0.1930 N   0  0  0  0  0  0  0  0  0  0  0  0
    3.3070   -0.7670    0.5890 C   0  0  0  0  0  0  0  0  0  0  0  0
    1.9650   -0.4560    0.4180 C   0  0  0  0  0  0  0  0  0  0  0  0
    0.6860   -0.7550    0.7620 N   0  0  0  0  0  0  0  0  0  0  0  0
  2  1  1  1
  2  3  1  0
  2  4  1  0
  2  5  1  0
  5  6  2  0
  5 12  1  0
  6  7  1  0
  7  8  2  0
  7 11  1  0
  8  9  1  0
  9 10  1  0
 10 11  2  0
 11 12  1  0
M  END
