
     RDKit          3D

 12 13  0  0  0  0  0  0  0  0999 V2000
   -2.0420   -1.6250    0.5840 N   0  0  0  0  0  0  0  0  0  0  0  0
   -2.1840   -0.4500   -0.2320 C   0  0  0  0  0  0  0  0  0  0  0  0
   -3.3860   -0.0370   -0.8360 C   0  0  0  0  0  0  0  0  0  0  0  0
   -3.0630    1.1770   -1.4190 N   0  0  0  0  0  0  0  0  0  0  0  0
   -1.7950    1.4590   -1.1890 N   0  0  0  0  0  0  0  0  0  0  0  0
   -1.2130    0.4720   -0.4570 C   0  0  0  0  0  0  0  0  0  0  0  0
    0.2200    0.3190   -0.1670 C   0  0  1  0  0  0  0  0  0  0  0  0
    0.7380    1.2400    0.9460 C   0  0  0  0  0  0  0  0  0  0  0  0
    2.1830    1.3090    0.8420 C   0  0  0  0  0  0  0  0  0  0  0  0
    2.8610    0.2990    0.2890 C   0  0  0  0  0  0  0  0  0  0  0  0
    2.2630   -0.9290   -0.2450 C   0  0  0  0  0  0  0  0  0  0  0  0
    0.7510   -1.0410   -0.0080 C   0  0  0  0  0  0  0  0  0  0  0  0
  1  2  1  0
  2  3  1  0
  2  6  2  0
  3  4  2  0
  4  5  1  0
  5  6  1  0
  7  6  1  1
  7  8  1  0
  7 12  1  0
  8  9  1  0
  9 10  2  0
 10 11  1  0
 11 12  1  0
M  END
