
     RDKit          3D

 12 13  0  0  0  0  0  0  0  0999 V2000
   -4.0230   -0.3810   -0.4230 N   0  0  0  0  0  0  0  0  0  0  0  0
   -2.6160   -0.2450   -0.3070 C   0  0  0  0  0  0  0  0  0  0  0  0
   -1.9750   -0.2690    0.9110 C   0  0  0  0  0  0  0  0  0  0  0  0
   -0.6100   -0.1400    1.0530 C   0  0  0  0  0  0  0  0  0  0  0  0
    0.1750    0.0230   -0.0690 C   0  0  0  0  0  0  0  0  0  0  0  0
    1.6370    0.1640    0.0370 C   0  0  0  0  0  0  0  0  0  0  0  0
    2.3940    0.1580    1.1870 C   0  0  0  0  0  0  0  0  0  0  0  0
    3.7200    0.3180    0.8510 C   0  0  0  0  0  0  0  0  0  0  0  0
    3.7440    0.4190   -0.4900 N   0  0  0  0  0  0  0  0  0  0  0  0
    2.4990    0.3270   -0.9790 N   0  0  0  0  0  0  0  0  0  0  0  0
   -0.4590    0.0480   -1.2950 C   0  0  0  0  0  0  0  0  0  0  0  0
   -1.8250   -0.0810   -1.4450 C   0  0  0  0  0  0  0  0  0  0  0  0
  1  2  1  0
  2  3  2  0
  2 12  1  0
  3  4  1  0
  4  5  2  0
  5  6  1  0
  5 11  1  0
  6  7  1  0
  6 10  2  0
  7  8  2  0
  8  9  1  0
  9 10  1  0
 11 12  2  0
M  END
