
     RDKit          3D

 23 25  0  0  0  0  0  0  0  0999 V2000
   -4.6750   -2.2350    0.0390 C   0  0  0  0  0  0  0  0  0  0  0  0
   -3.3240   -1.8940    0.0180 O   0  0  0  0  0  0  0  0  0  0  0  0
   -2.8250   -0.6180    0.1540 C   0  0  0  0  0  0  0  0  0  0  0  0
   -3.7900    0.3860    0.3240 C   0  0  0  0  0  0  0  0  0  0  0  0
   -3.3180    1.6670    0.4620 C   0  0  0  0  0  0  0  0  0  0  0  0
   -4.1580    2.5920    0.6160 O   0  0  0  0  0  0  0  0  0  0  0  0
   -2.0060    1.9480    0.4350 N   0  0  0  0  0  0  0  0  0  0  0  0
   -1.5740    3.3430    0.5890 C   0  0  0  0  0  0  0  0  0  0  0  0
   -1.1530    0.9770    0.2740 N   0  0  0  0  0  0  0  0  0  0  0  0
   -1.4910   -0.3380    0.1260 C   0  0  0  0  0  0  0  0  0  0  0  0
   -0.4540   -1.3380   -0.0470 C   0  0  0  0  0  0  0  0  0  0  0  0
   -0.6210   -2.6800   -0.2070 C   0  0  0  0  0  0  0  0  0  0  0  0
    0.4330   -3.5910   -0.3700 C   0  0  0  0  0  0  0  0  0  0  0  0
    1.7130   -3.1130   -0.3700 C   0  0  0  0  0  0  0  0  0  0  0  0
    1.9280   -1.7630   -0.2120 C   0  0  0  0  0  0  0  0  0  0  0  0
    0.8800   -0.8980   -0.0550 C   0  0  0  0  0  0  0  0  0  0  0  0
    1.1400    0.4600    0.1020 O   0  0  0  0  0  0  0  0  0  0  0  0
    2.4660    0.9130    0.0970 C   0  0  0  0  0  0  0  0  0  0  0  0
    3.1970    1.0000    1.2540 C   0  0  0  0  0  0  0  0  0  0  0  0
    4.4940    1.4520    1.1930 C   0  0  0  0  0  0  0  0  0  0  0  0
    5.0690    1.8190   -0.0300 C   0  0  0  0  0  0  0  0  0  0  0  0
    4.3100    1.7210   -1.1750 C   0  0  0  0  0  0  0  0  0  0  0  0
    3.0120    1.2690   -1.1130 C   0  0  0  0  0  0  0  0  0  0  0  0
  1  2  1  0
  2  3  1  0
  3  4  2  0
  3 10  1  0
  4  5  1  0
  5  6  2  0
  5  7  1  0
  7  8  1  0
  7  9  1  0
  9 10  2  0
 10 11  1  0
 11 12  2  0
 11 16  1  0
 12 13  1  0
 13 14  2  0
 14 15  1  0
 15 16  2  0
 16 17  1  0
 17 18  1  0
 18 19  2  0
 18 23  1  0
 19 20  1  0
 20 21  2  0
 21 22  1  0
 22 23  2  0
M  END
