
     RDKit          3D

 12 13  0  0  0  0  0  0  0  0999 V2000
    2.9810   -0.2950    0.8320 N   0  0  0  0  0  0  0  0  0  0  0  0
    2.2590   -0.6840   -0.3480 C   0  0  0  0  0  0  0  0  0  0  0  0
    0.7900   -0.5340   -0.2120 C   0  0  0  0  0  0  0  0  0  0  0  0
    0.0380   -1.6210   -0.3500 C   0  0  0  0  0  0  0  0  0  0  0  0
   -1.4190   -1.8020   -0.2730 C   0  0  0  0  0  0  0  0  0  0  0  0
   -2.2020   -0.5820   -0.6750 C   0  0  0  0  0  0  0  0  0  0  0  0
   -2.1850    0.4520    0.4600 C   0  0  0  0  0  0  0  0  0  0  0  0
   -0.9400    1.2550    0.3540 C   0  0  0  0  0  0  0  0  0  0  0  0
   -0.8730    2.6190    0.5390 C   0  0  0  0  0  0  0  0  0  0  0  0
    0.4060    2.9890    0.3640 N   0  0  0  0  0  0  0  0  0  0  0  0
    1.1540    1.9320    0.0780 N   0  0  0  0  0  0  0  0  0  0  0  0
    0.3420    0.8330    0.0650 C   0  0  0  0  0  0  0  0  0  0  0  0
  1  2  1  0
  2  3  1  0
  3  4  2  0
  3 12  1  0
  4  5  1  0
  5  6  1  0
  6  7  1  0
  7  8  1  0
  8  9  1  0
  8 12  2  0
  9 10  2  0
 10 11  1  0
 11 12  1  0
M  END
