
     RDKit          3D

 24 26  0  0  0  0  0  0  0  0999 V2000
   -6.8490    1.2090    0.4210 C   0  0  0  0  0  0  0  0  0  0  0  0
   -5.4240    1.2930    0.5080 N   0  0  0  0  0  0  0  0  0  0  0  0
   -4.6940    0.2410    0.3580 C   0  0  0  0  0  0  0  0  0  0  0  0
   -3.1970    0.3690    0.4570 C   0  0  0  0  0  0  0  0  0  0  0  0
   -2.4900   -0.7530   -0.2440 C   0  0  2  0  0  0  0  0  0  0  0  0
   -3.2100   -2.0480    0.1360 C   0  0  0  0  0  0  0  0  0  0  0  0
   -4.5650   -1.9860   -0.5460 C   0  0  0  0  0  0  0  0  0  0  0  0
   -5.3020   -0.9720    0.1120 O   0  0  0  0  0  0  0  0  0  0  0  0
   -1.0980   -0.8610    0.3400 C   0  0  0  0  0  0  0  0  0  0  0  0
   -0.2920    0.3200   -0.2150 C   0  0  1  0  0  0  0  0  0  0  0  0
    1.0570    0.4130    0.4340 C   0  0  1  0  0  0  0  0  0  0  0  0
    0.8170    0.5840    1.8180 O   0  0  0  0  0  0  0  0  0  0  0  0
    1.9360   -0.7720    0.2290 C   0  0  0  0  0  0  0  0  0  0  0  0
    2.9390   -0.5820   -0.9000 C   0  0  0  0  0  0  0  0  0  0  0  0
    3.9250    0.5010   -0.5840 C   0  0  2  0  0  0  0  0  0  0  0  0
    5.1850   -0.0340    0.0810 C   0  0  0  0  0  0  0  0  0  0  0  0
    4.8800   -0.6770    1.2830 O   0  0  0  0  0  0  0  0  0  0  0  0
    6.0270   -1.1610    1.8840 C   0  0  0  0  0  0  0  0  0  0  0  0
    3.2710    1.5600    0.2400 C   0  0  1  0  0  0  0  0  0  0  0  0
    3.8250    2.7880   -0.1140 O   0  0  0  0  0  0  0  0  0  0  0  0
    1.7800    1.6500   -0.0220 C   0  0  0  0  0  0  0  0  0  0  0  0
   -0.2610    0.1450   -1.6980 C   0  0  0  0  0  0  0  0  0  0  0  0
   -1.7180    0.2970   -2.1590 C   0  0  0  0  0  0  0  0  0  0  0  0
   -2.5080   -0.6670   -1.6050 O   0  0  0  0  0  0  0  0  0  0  0  0
  1  2  1  0
  2  3  2  3
  3  4  1  0
  3  8  1  0
  5  4  1  1
  5  6  1  0
  5  9  1  0
  5 24  1  0
  6  7  1  0
  7  8  1  0
 10  9  1  1
 10 11  1  0
 10 22  1  0
 11 12  1  1
 11 13  1  0
 11 21  1  0
 13 14  1  0
 14 15  1  0
 15 16  1  1
 15 19  1  0
 16 17  1  0
 17 18  1  0
 19 20  1  6
 19 21  1  0
 22 23  1  0
 23 24  1  0
M  END
