
     RDKit          3D

 24 26  0  0  0  0  0  0  0  0999 V2000
    6.6640   -1.3190   -0.4780 C   0  0  0  0  0  0  0  0  0  0  0  0
    5.1560   -1.4250   -0.5990 C   0  0  0  0  0  0  0  0  0  0  0  0
    4.5680   -0.1560   -0.0530 C   0  0  1  0  0  0  0  0  0  0  0  0
    5.1110    1.0050   -0.8900 C   0  0  0  0  0  0  0  0  0  0  0  0
    3.1810   -0.0930   -0.1110 O   0  0  0  0  0  0  0  0  0  0  0  0
    2.3220    0.0990    0.9340 C   0  0  0  0  0  0  0  0  0  0  0  0
    2.8200    0.2360    2.0810 O   0  0  0  0  0  0  0  0  0  0  0  0
    0.8360    0.1540    0.7860 C   0  0  2  0  0  0  0  0  0  0  0  0
    0.4220   -1.1980    0.1970 C   0  0  0  0  0  0  0  0  0  0  0  0
   -0.4260   -0.8170   -0.9950 C   0  0  2  0  0  0  0  0  0  0  0  0
    0.3350    0.4130   -1.5030 C   0  0  0  0  0  0  0  0  0  0  0  0
    0.4110    1.2000   -0.1870 C   0  0  1  0  0  0  0  0  0  0  0  0
   -0.9490    1.7640    0.0490 C   0  0  0  0  0  0  0  0  0  0  0  0
   -2.0760    0.8180   -0.0160 C   0  0  2  0  0  0  0  0  0  0  0  0
   -1.8240   -0.5040   -0.6210 C   0  0  0  0  0  0  0  0  0  0  0  0
   -3.1560    1.4550   -0.7920 N   0  0  0  0  0  0  0  0  0  0  0  0
   -4.4340    0.8390   -0.6630 C   0  0  0  0  0  0  0  0  0  0  0  0
   -5.3090    1.0970   -1.5240 O   0  0  0  0  0  0  0  0  0  0  0  0
   -4.7950   -0.0890    0.4250 C   0  0  1  0  0  0  0  0  0  0  0  0
   -6.0580    0.4770    1.0870 C   0  0  0  0  0  0  0  0  0  0  0  0
   -5.0680   -1.4930   -0.0650 C   0  0  0  0  0  0  0  0  0  0  0  0
   -3.8050   -0.0920    1.4590 O   0  0  0  0  0  0  0  0  0  0  0  0
   -2.6580    0.6860    1.3700 C   0  0  0  0  0  0  0  0  0  0  0  0
   -2.1210    1.2500    2.3590 O   0  0  0  0  0  0  0  0  0  0  0  0
  1  2  1  0
  2  3  1  0
  3  4  1  6
  3  5  1  0
  5  6  1  0
  6  7  2  0
  8  6  1  6
  8  9  1  0
  8 12  1  0
 10  9  1  1
 10 11  1  0
 10 15  1  0
 11 12  1  0
 12 13  1  1
 14 13  1  1
 14 15  1  0
 14 16  1  0
 14 23  1  0
 16 17  1  0
 17 18  2  0
 17 19  1  0
 19 20  1  1
 19 21  1  0
 19 22  1  0
 22 23  1  0
 23 24  2  0
M  END
