
     RDKit          3D

 24 27  0  0  0  0  0  0  0  0999 V2000
    0.7810   -0.1160    0.8920 O   0  0  0  0  0  0  0  0  0  0  0  0
    0.4880   -0.0120   -0.3170 C   0  0  0  0  0  0  0  0  0  0  0  0
    1.5350   -0.0110   -1.3390 C   0  0  0  0  0  0  0  0  0  0  0  0
    2.9210   -0.1410   -0.7940 C   0  0  0  0  0  0  0  0  0  0  0  0
    3.8900   -0.1250   -1.9570 C   0  0  0  0  0  0  0  0  0  0  0  0
    5.3230   -0.2530   -1.4880 C   0  0  1  0  0  0  0  0  0  0  0  0
    5.6480    0.8910   -0.5820 C   0  0  0  0  0  0  0  0  0  0  0  0
    5.9150    0.4830    0.8410 C   0  0  0  0  0  0  0  0  0  0  0  0
    6.9700   -0.6000    0.9280 C   0  0  0  0  0  0  0  0  0  0  0  0
    6.5810   -1.7010    0.0140 C   0  0  0  0  0  0  0  0  0  0  0  0
    7.2420   -2.7630    0.0530 O   0  0  0  0  0  0  0  0  0  0  0  0
    5.5100   -1.5050   -0.8340 O   0  0  0  0  0  0  0  0  0  0  0  0
   -0.8400    0.1000   -0.6620 O   0  0  0  0  0  0  0  0  0  0  0  0
   -1.8420    0.1000    0.3030 C   0  0  1  0  0  0  0  0  0  0  0  0
   -2.6770    1.3830    0.2770 C   0  0  0  0  0  0  0  0  0  0  0  0
   -3.8950    0.9230    1.0760 C   0  0  1  0  0  0  0  0  0  0  0  0
   -5.1250    1.7460    0.7350 C   0  0  0  0  0  0  0  0  0  0  0  0
   -6.0500    0.6790    0.1670 C   0  0  2  0  0  0  0  0  0  0  0  0
   -6.3310   -0.3660    1.2110 C   0  0  0  0  0  0  0  0  0  0  0  0
   -5.0480   -1.2110    1.3230 C   0  0  0  0  0  0  0  0  0  0  0  0
   -4.1170   -0.4490    0.4660 C   0  0  1  0  0  0  0  0  0  0  0  0
   -5.0340   -0.0740   -0.7110 C   0  0  0  0  0  0  0  0  0  0  0  0
   -2.8490   -1.0360    0.0950 C   0  0  2  0  0  0  0  0  0  0  0  0
   -2.4690   -2.1920    0.7360 O   0  0  0  0  0  0  0  0  0  0  0  0
  1  2  2  0
  2  3  1  0
  2 13  1  0
  3  4  1  0
  4  5  1  0
  6  5  1  1
  6  7  1  0
  6 12  1  0
  7  8  1  0
  8  9  1  0
  9 10  1  0
 10 11  2  0
 10 12  1  0
 14 13  1  6
 14 15  1  0
 14 23  1  0
 16 15  1  6
 16 17  1  0
 16 21  1  0
 18 17  1  1
 18 19  1  0
 18 22  1  0
 19 20  1  0
 21 20  1  1
 21 22  1  0
 21 23  1  0
 23 24  1  1
M  END
