
     RDKit          3D

 24 26  0  0  0  0  0  0  0  0999 V2000
    3.8390    2.4130    0.2830 C   0  0  0  0  0  0  0  0  0  0  0  0
    2.3980    1.9100    0.1170 C   0  0  2  0  0  0  0  0  0  0  0  0
    1.5950    2.7250    0.8640 O   0  0  0  0  0  0  0  0  0  0  0  0
    0.2620    2.8740    1.0180 C   0  0  0  0  0  0  0  0  0  0  0  0
   -0.3570    3.1220    2.0850 O   0  0  0  0  0  0  0  0  0  0  0  0
   -0.6060    2.7380   -0.1780 C   0  0  0  0  0  0  0  0  0  0  0  0
   -1.9150    2.1320    0.2760 C   0  0  1  0  0  0  0  0  0  0  0  0
   -2.4730    3.0140    1.2310 O   0  0  0  0  0  0  0  0  0  0  0  0
   -2.8900    1.9540   -0.8610 C   0  0  0  0  0  0  0  0  0  0  0  0
   -3.5110    0.5930   -0.6670 C   0  0  0  0  0  0  0  0  0  0  0  0
   -2.4580   -0.2210    0.1060 C   0  0  1  0  0  0  0  0  0  0  0  0
   -3.1980   -1.0910    0.9150 O   0  0  0  0  0  0  0  0  0  0  0  0
   -1.6290   -0.9260   -0.8970 C   0  0  0  0  0  0  0  0  0  0  0  0
   -0.9720   -2.1980   -0.4840 C   0  0  2  0  0  0  0  0  0  0  0  0
   -1.7880   -3.3420   -1.1190 C   0  0  0  0  0  0  0  0  0  0  0  0
   -0.9310   -2.4940    0.9650 C   0  0  0  0  0  0  0  0  0  0  0  0
    0.3910   -2.2840   -1.1520 C   0  0  0  0  0  0  0  0  0  0  0  0
    1.4800   -1.6630   -0.3560 C   0  0  2  0  0  0  0  0  0  0  0  0
    1.3980   -0.2250   -0.5140 N   0  0  0  0  0  0  0  0  0  0  0  0
    2.3330    0.4570    0.3620 C   0  0  1  0  0  0  0  0  0  0  0  0
    3.7270   -0.1250    0.0890 C   0  0  0  0  0  0  0  0  0  0  0  0
    3.6780   -1.6380    0.0850 C   0  0  0  0  0  0  0  0  0  0  0  0
    2.7310   -2.0410   -0.8250 O   0  0  0  0  0  0  0  0  0  0  0  0
   -1.7430    0.8070    0.9430 C   0  0  0  0  0  0  0  0  0  0  0  0
  2  1  1  1
  2  3  1  0
  2 20  1  0
  3  4  1  0
  4  5  2  0
  4  6  1  0
  6  7  1  0
  7  8  1  1
  7  9  1  0
  7 24  1  0
  9 10  1  0
 10 11  1  0
 11 12  1  1
 11 13  1  0
 11 24  1  0
 13 14  1  0
 14 15  1  6
 14 16  1  0
 14 17  1  0
 18 17  1  6
 18 19  1  0
 18 23  1  0
 19 20  1  0
 20 21  1  6
 21 22  1  0
 22 23  1  0
M  END
