
     RDKit          3D

 24 27  0  0  0  0  0  0  0  0999 V2000
    6.0500    1.5110   -1.9390 O   0  0  0  0  0  0  0  0  0  0  0  0
    5.9810    0.8350   -0.9270 C   0  0  0  0  0  0  0  0  0  0  0  0
    6.9380   -0.1210   -0.3420 C   0  0  0  0  0  0  0  0  0  0  0  0
    6.1810   -0.9200    0.4810 O   0  0  0  0  0  0  0  0  0  0  0  0
    5.2310   -0.0960    1.0770 C   0  0  0  0  0  0  0  0  0  0  0  0
    4.7980    0.8570   -0.0070 C   0  0  2  0  0  0  0  0  0  0  0  0
    3.6300    0.3500   -0.7700 C   0  0  0  0  0  0  0  0  0  0  0  0
    3.7010   -0.0150   -1.9740 O   0  0  0  0  0  0  0  0  0  0  0  0
    2.3680    0.2700   -0.1150 N   0  0  0  0  0  0  0  0  0  0  0  0
    1.2230   -0.2180   -0.8340 C   0  0  0  0  0  0  0  0  0  0  0  0
    0.0280   -0.2070    0.0600 C   0  0  1  0  0  0  0  0  0  0  0  0
   -0.3010    1.1750    0.5700 C   0  0  0  0  0  0  0  0  0  0  0  0
   -1.5140    1.1880    1.2130 O   0  0  0  0  0  0  0  0  0  0  0  0
   -2.5990    1.0640    0.3730 C   0  0  2  0  0  0  0  0  0  0  0  0
   -3.0710    2.4750    0.0100 C   0  0  0  0  0  0  0  0  0  0  0  0
   -3.4420    3.1920    1.1250 O   0  0  0  0  0  0  0  0  0  0  0  0
   -3.7460    0.3970    1.0550 C   0  0  0  0  0  0  0  0  0  0  0  0
   -3.6870   -1.0790    1.1270 C   0  0  1  0  0  0  0  0  0  0  0  0
   -4.2080   -1.7970   -0.0740 C   0  0  0  0  0  0  0  0  0  0  0  0
   -3.0120   -2.3320   -0.8160 C   0  0  0  0  0  0  0  0  0  0  0  0
   -1.7910   -1.9070   -0.0370 C   0  0  2  0  0  0  0  0  0  0  0  0
   -2.3110   -1.6440    1.3300 C   0  0  0  0  0  0  0  0  0  0  0  0
   -1.1750   -0.7090   -0.6990 C   0  0  1  0  0  0  0  0  0  0  0  0
   -2.1730    0.4110   -0.9030 C   0  0  0  0  0  0  0  0  0  0  0  0
  1  2  2  0
  2  3  1  0
  2  6  1  0
  3  4  1  0
  4  5  1  0
  5  6  1  0
  6  7  1  6
  7  8  2  0
  7  9  1  0
  9 10  1  0
 11 10  1  6
 11 12  1  0
 11 23  1  0
 12 13  1  0
 13 14  1  0
 14 15  1  6
 14 17  1  0
 14 24  1  0
 15 16  1  0
 18 17  1  6
 18 19  1  0
 18 22  1  0
 19 20  1  0
 21 20  1  6
 21 22  1  0
 21 23  1  0
 23 24  1  1
M  END
