
     RDKit          3D

 24 26  0  0  0  0  0  0  0  0999 V2000
   -0.8840   -3.9730    0.4360 O   0  0  0  0  0  0  0  0  0  0  0  0
   -1.0160   -2.7470   -0.2000 C   0  0  1  0  0  0  0  0  0  0  0  0
   -2.5010   -2.6000   -0.5640 C   0  0  0  0  0  0  0  0  0  0  0  0
   -2.7520   -1.4120   -1.2000 O   0  0  0  0  0  0  0  0  0  0  0  0
   -3.8670   -0.7870   -0.6610 C   0  0  0  0  0  0  0  0  0  0  0  0
   -4.5990    0.0450   -1.6170 C   0  0  0  0  0  0  0  0  0  0  0  0
   -4.3990    1.3430   -1.8410 C   0  0  0  0  0  0  0  0  0  0  0  0
   -3.4420    2.0880   -1.1730 O   0  0  0  0  0  0  0  0  0  0  0  0
   -3.4980    2.5770    0.1450 C   0  0  0  0  0  0  0  0  0  0  0  0
   -2.1270    2.7250    0.7600 C   0  0  0  0  0  0  0  0  0  0  0  0
   -1.1250    1.7510    0.2600 C   0  0  0  0  0  0  0  0  0  0  0  0
   -0.2350    1.2510    1.3530 C   0  0  1  0  0  0  0  0  0  0  0  0
   -0.8530    0.6570    2.4180 O   0  0  0  0  0  0  0  0  0  0  0  0
    0.8820    0.3740    0.8770 C   0  0  2  0  0  0  0  0  0  0  0  0
    1.8510    1.1130   -0.0320 C   0  0  0  0  0  0  0  0  0  0  0  0
    3.1150    0.3250   -0.0890 C   0  0  1  0  0  0  0  0  0  0  0  0
    4.0030    0.9350   -1.1700 C   0  0  0  0  0  0  0  0  0  0  0  0
    5.3580    0.4150   -0.7350 C   0  0  0  0  0  0  0  0  0  0  0  0
    5.1810    0.2720    0.7500 C   0  0  0  0  0  0  0  0  0  0  0  0
    3.8610    0.5250    1.0480 O   0  0  0  0  0  0  0  0  0  0  0  0
    2.9270   -1.1190   -0.4510 C   0  0  0  0  0  0  0  0  0  0  0  0
    1.7530   -1.7680    0.1800 C   0  0  0  0  0  0  0  0  0  0  0  0
    0.5010   -0.8780    0.1890 C   0  0  1  0  0  0  0  0  0  0  0  0
   -0.6060   -1.6690    0.7910 C   0  0  0  0  0  0  0  0  0  0  0  0
  2  1  1  1
  2  3  1  0
  2 24  1  0
  3  4  1  0
  4  5  1  0
  5  6  1  0
  6  7  2  0
  7  8  1  0
  8  9  1  0
  9 10  1  0
 10 11  1  0
 11 12  1  0
 12 13  1  1
 12 14  1  0
 14 15  1  6
 14 23  1  0
 16 15  1  1
 16 17  1  0
 16 20  1  0
 16 21  1  0
 17 18  1  0
 18 19  1  0
 19 20  1  0
 21 22  1  0
 23 22  1  1
 23 24  1  0
M  END
