
     RDKit          3D

 16 17  0  0  0  0  0  0  0  0999 V2000
   -1.1930   -3.1600   -0.8760 C   0  0  0  0  0  0  0  0  0  0  0  0
   -0.3870   -1.9980   -0.5760 N   0  0  0  0  0  0  0  0  0  0  0  0
   -0.9410   -0.7540   -0.2550 C   0  0  0  0  0  0  0  0  0  0  0  0
   -2.3280   -0.5950   -0.3070 C   0  0  0  0  0  0  0  0  0  0  0  0
   -2.8980    0.6280   -0.0320 C   0  0  0  0  0  0  0  0  0  0  0  0
   -4.1310    0.8460   -0.0590 O   0  0  0  0  0  0  0  0  0  0  0  0
   -2.0800    1.6440    0.2830 N   0  0  0  0  0  0  0  0  0  0  0  0
   -2.6390    2.9560    0.5810 C   0  0  0  0  0  0  0  0  0  0  0  0
   -0.7940    1.4850    0.3290 N   0  0  0  0  0  0  0  0  0  0  0  0
   -0.1460    0.3170    0.0740 C   0  0  0  0  0  0  0  0  0  0  0  0
    1.3040    0.2730    0.1540 C   0  0  0  0  0  0  0  0  0  0  0  0
    2.0960    1.2110   -0.5000 C   0  0  0  0  0  0  0  0  0  0  0  0
    3.4760    1.1980   -0.4150 C   0  0  0  0  0  0  0  0  0  0  0  0
    4.1010    0.2430    0.3280 C   0  0  0  0  0  0  0  0  0  0  0  0
    3.3570   -0.6940    0.9850 C   0  0  0  0  0  0  0  0  0  0  0  0
    1.9700   -0.6730    0.8950 C   0  0  0  0  0  0  0  0  0  0  0  0
  1  2  1  0
  2  3  1  0
  3  4  2  0
  3 10  1  0
  4  5  1  0
  5  6  2  0
  5  7  1  0
  7  8  1  0
  7  9  1  0
  9 10  2  0
 10 11  1  0
 11 12  2  0
 11 16  1  0
 12 13  1  0
 13 14  2  0
 14 15  1  0
 15 16  2  0
M  END
