
     RDKit          3D

 37 40  0  0  0  0  0  0  0  0999 V2000
   -7.9370    2.9280   -0.7310 C   0  0  0  0  0  0  0  0  0  0  0  0
   -7.3540    1.7630   -0.5900 C   0  0  0  0  0  0  0  0  0  0  0  0
   -6.3530    1.3820   -1.5710 N   0  0  0  0  0  0  0  0  0  0  0  0
   -5.7160    0.1380   -1.4410 C   0  0  0  0  0  0  0  0  0  0  0  0
   -4.7570   -0.2480   -2.3670 C   0  0  0  0  0  0  0  0  0  0  0  0
   -4.1380   -1.4730   -2.2280 C   0  0  0  0  0  0  0  0  0  0  0  0
   -4.4360   -2.3390   -1.1990 C   0  0  0  0  0  0  0  0  0  0  0  0
   -3.8050   -3.5900   -1.0580 N   0  0  0  0  0  0  0  0  0  0  0  0
   -3.1930   -4.2220    0.3960 S   0  0  1  0  0  0  0  0  0  0  0  0
   -4.2210   -4.3130    1.4800 O   0  0  0  0  0  0  0  0  0  0  0  0
   -2.6680   -5.6060    0.1620 O   0  0  0  0  0  0  0  0  0  0  0  0
   -1.8980   -3.1520    1.0220 C   0  0  0  0  0  0  0  0  0  0  0  0
   -0.8270   -3.1100   -0.0330 C   0  0  0  0  0  0  0  0  0  0  0  0
    0.3170   -2.2420    0.3770 C   0  0  0  0  0  0  0  0  0  0  0  0
    0.2270   -1.6900    1.4870 O   0  0  0  0  0  0  0  0  0  0  0  0
    1.4450   -2.0450   -0.4310 N   0  0  0  0  0  0  0  0  0  0  0  0
    2.5770   -1.2450   -0.1430 C   0  0  0  0  0  0  0  0  0  0  0  0
    3.6870   -1.3090   -0.9770 C   0  0  0  0  0  0  0  0  0  0  0  0
    4.8260   -0.5390   -0.7460 C   0  0  0  0  0  0  0  0  0  0  0  0
    4.9450    0.3270    0.3010 C   0  0  0  0  0  0  0  0  0  0  0  0
    6.0650    1.1640    0.6330 C   0  0  0  0  0  0  0  0  0  0  0  0
    5.9560    1.9270    1.7020 O   0  0  0  0  0  0  0  0  0  0  0  0
    7.2800    1.3020   -0.0090 N   0  0  0  0  0  0  0  0  0  0  0  0
    7.7160    0.6180   -1.1980 C   0  0  0  0  0  0  0  0  0  0  0  0
    8.2590    2.2380    0.5510 C   0  0  0  0  0  0  0  0  0  0  0  0
    8.0810    3.5240    0.7160 C   0  0  0  0  0  0  0  0  0  0  0  0
    9.3300    4.1180    1.3200 C   0  0  0  0  0  0  0  0  0  0  0  0
   10.2050    2.9210    1.4470 C   0  0  0  0  0  0  0  0  0  0  0  0
    9.5710    1.8300    0.9960 C   0  0  0  0  0  0  0  0  0  0  0  0
    3.8100    0.3810    1.1400 C   0  0  0  0  0  0  0  0  0  0  0  0
    2.6880   -0.3820    0.9060 C   0  0  0  0  0  0  0  0  0  0  0  0
   -5.3900   -1.9400   -0.2900 C   0  0  0  0  0  0  0  0  0  0  0  0
   -6.0420   -0.7140   -0.3870 C   0  0  0  0  0  0  0  0  0  0  0  0
   -6.9760   -0.3720    0.5390 O   0  0  0  0  0  0  0  0  0  0  0  0
   -7.6740    0.8730    0.4850 C   0  0  0  0  0  0  0  0  0  0  0  0
   -8.5300    1.0340    1.4500 C   0  0  0  0  0  0  0  0  0  0  0  0
   -9.4420    2.1240    1.7860 C   0  0  0  0  0  0  0  0  0  0  0  0
  1  2  2  0
  2  3  1  0
  2 35  1  0
  3  4  1  0
  4  5  2  0
  4 33  1  0
  5  6  1  0
  6  7  2  0
  7  8  1  0
  7 32  1  0
  8  9  1  0
  9 10  2  0
  9 11  2  0
  9 12  1  1
 12 13  1  0
 13 14  1  0
 14 15  2  0
 14 16  1  0
 16 17  1  0
 17 18  2  0
 17 31  1  0
 18 19  1  0
 19 20  2  0
 20 21  1  0
 20 30  1  0
 21 22  2  0
 21 23  1  0
 23 24  1  0
 23 25  1  0
 25 26  2  0
 25 29  1  0
 26 27  1  0
 27 28  1  0
 28 29  2  0
 30 31  2  0
 32 33  2  0
 33 34  1  0
 34 35  1  0
 35 36  2  3
 36 37  1  0
M  END
