
     RDKit          3D

 37 39  0  0  0  0  0  0  0  0999 V2000
    8.0310    2.8020    1.1150 C   0  0  0  0  0  0  0  0  0  0  0  0
    8.2880    1.4950    1.1150 C   0  0  0  0  0  0  0  0  0  0  0  0
    8.4860    0.7300   -0.1430 C   0  0  0  0  0  0  0  0  0  0  0  0
    7.5170   -0.3120   -0.2640 O   0  0  0  0  0  0  0  0  0  0  0  0
    6.1820    0.0060   -0.2910 C   0  0  0  0  0  0  0  0  0  0  0  0
    5.8460    1.2190   -0.2080 O   0  0  0  0  0  0  0  0  0  0  0  0
    5.1430   -1.0100   -0.4130 C   0  0  0  0  0  0  0  0  0  0  0  0
    3.7970   -0.6480   -0.4370 C   0  0  0  0  0  0  0  0  0  0  0  0
    2.7470   -1.5190   -0.5510 C   0  0  0  0  0  0  0  0  0  0  0  0
    1.3530   -1.2030   -0.5980 C   0  0  0  0  0  0  0  0  0  0  0  0
    0.5730   -2.2660   -0.6300 O   0  0  0  0  0  0  0  0  0  0  0  0
    0.6980    0.0140   -0.6140 N   0  0  0  0  0  0  0  0  0  0  0  0
    1.2760    1.3250   -0.7160 C   0  0  0  0  0  0  0  0  0  0  0  0
    1.6040    1.9510    0.6270 C   0  0  0  0  0  0  0  0  0  0  0  0
   -0.7570    0.0380   -0.5500 C   0  0  0  0  0  0  0  0  0  0  0  0
   -1.5000    0.2420   -1.6650 C   0  0  0  0  0  0  0  0  0  0  0  0
   -2.8950    0.2650   -1.6190 C   0  0  0  0  0  0  0  0  0  0  0  0
   -3.5470    0.0740   -0.4060 C   0  0  0  0  0  0  0  0  0  0  0  0
   -5.0340    0.0890   -0.3900 C   0  0  2  0  0  0  0  0  0  0  0  0
   -5.5940    1.0420    0.5230 N   0  0  0  0  0  0  0  0  0  0  0  0
   -5.1080    2.2960    0.2640 N   0  0  0  0  0  0  0  0  0  0  0  0
   -6.1190    3.3360    0.2090 C   0  0  0  0  0  0  0  0  0  0  0  0
   -5.4320    4.6420   -0.0690 C   0  0  0  0  0  0  0  0  0  0  0  0
   -5.6560   -1.2360   -0.3430 C   0  0  0  0  0  0  0  0  0  0  0  0
   -6.1870   -1.7450    0.8070 C   0  0  0  0  0  0  0  0  0  0  0  0
   -6.7550   -3.0250    0.8170 C   0  0  0  0  0  0  0  0  0  0  0  0
   -6.7790   -3.7690   -0.3300 C   0  0  0  0  0  0  0  0  0  0  0  0
   -6.2450   -3.2590   -1.4920 C   0  0  0  0  0  0  0  0  0  0  0  0
   -5.6910   -2.0020   -1.4840 C   0  0  0  0  0  0  0  0  0  0  0  0
   -2.7910   -0.1310    0.7120 C   0  0  0  0  0  0  0  0  0  0  0  0
   -3.5000   -0.3760    2.2890 Cl  0  0  0  0  0  0  0  0  0  0  0  0
   -1.3750   -0.1490    0.6360 C   0  0  0  0  0  0  0  0  0  0  0  0
   -0.6140   -0.3630    1.8690 C   0  0  0  0  0  0  0  0  0  0  0  0
    3.1440   -2.8760   -0.6460 C   0  0  0  0  0  0  0  0  0  0  0  0
    4.4440   -3.2490   -0.6250 C   0  0  0  0  0  0  0  0  0  0  0  0
    5.4700   -2.3390   -0.5100 C   0  0  0  0  0  0  0  0  0  0  0  0
    6.8800   -2.7680   -0.4890 C   0  0  0  0  0  0  0  0  0  0  0  0
  1  2  2  0
  2  3  1  0
  3  4  1  0
  4  5  1  0
  5  6  2  0
  5  7  1  0
  7  8  2  0
  7 36  1  0
  8  9  1  0
  9 10  1  0
  9 34  2  0
 10 11  2  0
 10 12  1  0
 12 13  1  0
 12 15  1  0
 13 14  1  0
 15 16  2  0
 15 32  1  0
 16 17  1  0
 17 18  2  0
 18 19  1  0
 18 30  1  0
 19 20  1  1
 19 24  1  0
 20 21  1  0
 21 22  1  0
 22 23  1  0
 24 25  2  0
 24 29  1  0
 25 26  1  0
 26 27  2  0
 27 28  1  0
 28 29  2  0
 30 31  1  0
 30 32  2  0
 32 33  1  0
 34 35  1  0
 35 36  2  0
 36 37  1  0
M  END
