
     RDKit          3D

 36 38  0  0  0  0  0  0  0  0999 V2000
    4.0370    4.6320    1.4340 C   0  0  0  0  0  0  0  0  0  0  0  0
    4.2980    3.2420    0.9400 C   0  0  0  0  0  0  0  0  0  0  0  0
    5.4900    2.8770    0.6780 O   0  0  0  0  0  0  0  0  0  0  0  0
    3.2760    2.2970    0.7460 N   0  0  0  0  0  0  0  0  0  0  0  0
    3.5950    0.9690    0.2650 C   0  0  1  0  0  0  0  0  0  0  0  0
    3.2410   -0.0850    1.3000 C   0  0  2  0  0  0  0  0  0  0  0  0
    3.9140    0.2760    2.4740 O   0  0  0  0  0  0  0  0  0  0  0  0
    3.7220   -1.3000    0.8620 O   0  0  0  0  0  0  0  0  0  0  0  0
    3.2330   -1.6940   -0.3560 C   0  0  2  0  0  0  0  0  0  0  0  0
    4.3810   -1.8150   -1.3690 C   0  0  0  0  0  0  0  0  0  0  0  0
    3.8900   -2.2160   -2.6120 O   0  0  0  0  0  0  0  0  0  0  0  0
    2.2190   -0.7620   -0.9480 C   0  0  1  0  0  0  0  0  0  0  0  0
    0.9870   -0.7970   -0.3390 O   0  0  0  0  0  0  0  0  0  0  0  0
   -0.0370   -1.2220   -1.1530 C   0  0  1  0  0  0  0  0  0  0  0  0
   -0.5530   -2.4190   -0.6580 O   0  0  0  0  0  0  0  0  0  0  0  0
   -1.6640   -2.8700   -1.3140 C   0  0  2  0  0  0  0  0  0  0  0  0
   -1.4940   -4.3610   -1.5830 C   0  0  0  0  0  0  0  0  0  0  0  0
   -0.3790   -4.5870   -2.3590 O   0  0  0  0  0  0  0  0  0  0  0  0
   -2.0620   -2.1210   -2.5310 C   0  0  2  0  0  0  0  0  0  0  0  0
   -1.2970   -2.5630   -3.6300 O   0  0  0  0  0  0  0  0  0  0  0  0
   -1.9490   -0.6400   -2.4770 C   0  0  2  0  0  0  0  0  0  0  0  0
   -1.2430   -0.1070   -3.5550 O   0  0  0  0  0  0  0  0  0  0  0  0
   -1.2120   -0.2650   -1.2060 C   0  0  1  0  0  0  0  0  0  0  0  0
   -2.0980   -0.5540   -0.1530 O   0  0  0  0  0  0  0  0  0  0  0  0
   -2.3760    0.5660    0.6230 C   0  0  2  0  0  0  0  0  0  0  0  0
   -1.9430    0.3170    1.9000 O   0  0  0  0  0  0  0  0  0  0  0  0
   -2.7350    0.7880    2.9130 C   0  0  1  0  0  0  0  0  0  0  0  0
   -1.9140    0.8970    4.1770 C   0  0  0  0  0  0  0  0  0  0  0  0
   -3.2530    2.1570    2.5200 C   0  0  2  0  0  0  0  0  0  0  0  0
   -3.7730    2.8680    3.5850 O   0  0  0  0  0  0  0  0  0  0  0  0
   -4.3330    1.8860    1.4620 C   0  0  1  0  0  0  0  0  0  0  0  0
   -4.6500    3.0600    0.8140 O   0  0  0  0  0  0  0  0  0  0  0  0
   -3.8500    0.8430    0.4920 C   0  0  2  0  0  0  0  0  0  0  0  0
   -4.6030   -0.3470    0.5850 O   0  0  0  0  0  0  0  0  0  0  0  0
    2.8070    0.6300   -0.9890 C   0  0  1  0  0  0  0  0  0  0  0  0
    1.7440    1.5520   -1.0370 O   0  0  0  0  0  0  0  0  0  0  0  0
  1  2  1  0
  2  3  2  0
  2  4  1  0
  5  4  1  1
  5  6  1  0
  5 35  1  0
  6  7  1  1
  6  8  1  0
  8  9  1  0
  9 10  1  6
  9 12  1  0
 10 11  1  0
 12 13  1  1
 12 35  1  0
 14 13  1  1
 14 15  1  0
 14 23  1  0
 15 16  1  0
 16 17  1  6
 16 19  1  0
 17 18  1  0
 19 20  1  6
 19 21  1  0
 21 22  1  6
 21 23  1  0
 23 24  1  1
 25 24  1  6
 25 26  1  0
 25 33  1  0
 26 27  1  0
 27 28  1  1
 27 29  1  0
 29 30  1  1
 29 31  1  0
 31 32  1  6
 31 33  1  0
 33 34  1  1
 35 36  1  1
M  END
