
     RDKit          3D

 37 39  0  0  0  0  0  0  0  0999 V2000
   12.0450    3.1380   -0.4240 C   0  0  0  0  0  0  0  0  0  0  0  0
   10.8400    2.2640   -0.5590 C   0  0  0  0  0  0  0  0  0  0  0  0
   10.5920    1.4000    0.4580 C   0  0  0  0  0  0  0  0  0  0  0  0
   11.5060    1.4100    1.5620 C   0  0  0  0  0  0  0  0  0  0  0  0
   11.5760    0.7120    2.6430 C   0  0  0  0  0  0  0  0  0  0  0  0
   12.8950    1.0500    3.7880 Cl  0  0  0  0  0  0  0  0  0  0  0  0
    9.4400    0.5420    0.2450 C   0  0  0  0  0  0  0  0  0  0  0  0
    8.9190    0.3070   -1.0330 C   0  0  0  0  0  0  0  0  0  0  0  0
    7.7790   -0.4300   -1.2620 C   0  0  0  0  0  0  0  0  0  0  0  0
    7.0770   -0.9890   -0.2250 C   0  0  0  0  0  0  0  0  0  0  0  0
    5.8360   -1.7980   -0.4630 C   0  0  0  0  0  0  0  0  0  0  0  0
    4.6620   -0.8490   -0.4340 C   0  0  0  0  0  0  0  0  0  0  0  0
    3.4140   -1.5750   -0.6440 N   0  0  0  0  0  0  0  0  0  0  0  0
    2.1430   -0.9520   -0.6660 C   0  0  0  0  0  0  0  0  0  0  0  0
    2.0490    0.2780   -0.5050 O   0  0  0  0  0  0  0  0  0  0  0  0
    0.9330   -1.7310   -0.8730 C   0  0  0  0  0  0  0  0  0  0  0  0
    1.0100   -2.9560   -1.0400 O   0  0  0  0  0  0  0  0  0  0  0  0
   -0.3530   -1.0910   -0.8840 N   0  0  0  0  0  0  0  0  0  0  0  0
   -1.5670   -1.8660   -1.0860 C   0  0  0  0  0  0  0  0  0  0  0  0
   -2.7520   -0.9420   -1.0440 C   0  0  0  0  0  0  0  0  0  0  0  0
   -2.8680   -0.2120    0.2620 C   0  0  0  0  0  0  0  0  0  0  0  0
   -3.9770    0.6180    0.3710 O   0  0  0  0  0  0  0  0  0  0  0  0
   -5.2680    0.1170    0.3960 C   0  0  0  0  0  0  0  0  0  0  0  0
   -5.5790   -1.2200    0.3630 C   0  0  0  0  0  0  0  0  0  0  0  0
   -6.8670   -1.7070    0.3830 C   0  0  0  0  0  0  0  0  0  0  0  0
   -7.1470   -3.1650    0.3420 C   0  0  0  0  0  0  0  0  0  0  0  0
   -7.9020   -0.7700    0.4420 C   0  0  0  0  0  0  0  0  0  0  0  0
   -7.6690    0.5760    0.4790 C   0  0  0  0  0  0  0  0  0  0  0  0
   -6.3480    0.9970    0.4550 C   0  0  0  0  0  0  0  0  0  0  0  0
   -8.9140    1.3410    0.5320 C   0  0  1  0  0  0  0  0  0  0  0  0
   -9.0980    2.2590   -0.5860 N   0  0  0  0  0  0  0  0  0  0  0  0
  -10.4150    2.8920   -0.3450 C   0  0  0  0  0  0  0  0  0  0  0  0
   -8.1600    3.3430   -0.6080 C   0  0  0  0  0  0  0  0  0  0  0  0
  -10.0000    0.3030    0.5320 C   0  0  0  0  0  0  0  0  0  0  0  0
   -9.3570   -1.0350    0.4840 C   0  0  0  0  0  0  0  0  0  0  0  0
    7.5540   -0.7820    1.0430 C   0  0  0  0  0  0  0  0  0  0  0  0
    8.7190   -0.0260    1.2670 C   0  0  0  0  0  0  0  0  0  0  0  0
  1  2  1  0
  2  3  2  3
  3  4  1  0
  3  7  1  0
  4  5  2  3
  5  6  1  0
  7  8  2  0
  7 37  1  0
  8  9  1  0
  9 10  2  0
 10 11  1  0
 10 36  1  0
 11 12  1  0
 12 13  1  0
 13 14  1  0
 14 15  2  0
 14 16  1  0
 16 17  2  0
 16 18  1  0
 18 19  1  0
 19 20  1  0
 20 21  1  0
 21 22  1  0
 22 23  1  0
 23 24  2  0
 23 29  1  0
 24 25  1  0
 25 26  1  0
 25 27  2  0
 27 28  1  0
 27 35  1  0
 28 29  2  0
 28 30  1  0
 30 31  1  6
 30 34  1  0
 31 32  1  0
 31 33  1  0
 34 35  1  0
 36 37  2  0
M  END
