
     RDKit          3D

 37 39  0  0  0  0  0  0  0  0999 V2000
  -10.9220    1.9780    0.3020 C   0  0  0  0  0  0  0  0  0  0  0  0
   -9.9360    0.9650   -0.2100 C   0  0  0  0  0  0  0  0  0  0  0  0
   -8.6130    1.3260   -0.1850 C   0  0  0  0  0  0  0  0  0  0  0  0
   -7.6910    0.4050   -0.6510 C   0  0  0  0  0  0  0  0  0  0  0  0
   -8.0720   -0.8440   -1.1310 C   0  0  0  0  0  0  0  0  0  0  0  0
   -7.0220   -1.8100   -1.6210 C   0  0  0  0  0  0  0  0  0  0  0  0
   -5.7440   -1.3770   -1.1320 O   0  0  0  0  0  0  0  0  0  0  0  0
   -5.5840   -1.3190    0.2380 C   0  0  0  0  0  0  0  0  0  0  0  0
   -6.5310   -1.6460    0.9830 O   0  0  0  0  0  0  0  0  0  0  0  0
   -4.3370   -0.8860    0.8250 C   0  0  0  0  0  0  0  0  0  0  0  0
   -4.1890   -0.8380    2.1900 C   0  0  0  0  0  0  0  0  0  0  0  0
   -3.0050   -0.4090    2.6990 C   0  0  0  0  0  0  0  0  0  0  0  0
   -1.9390   -0.0150    1.8580 C   0  0  0  0  0  0  0  0  0  0  0  0
   -0.6970    0.3940    2.5220 C   0  0  0  0  0  0  0  0  0  0  0  0
    0.3130   -0.6710    2.7050 C   0  0  0  0  0  0  0  0  0  0  0  0
    0.9370   -1.2790    1.6020 N   0  0  0  0  0  0  0  0  0  0  0  0
    1.7920   -0.5580    0.7110 C   0  0  0  0  0  0  0  0  0  0  0  0
    1.9970    0.6520    0.9190 O   0  0  0  0  0  0  0  0  0  0  0  0
    2.3770   -1.2430   -0.3770 N   0  0  0  0  0  0  0  0  0  0  0  0
    3.2480   -0.5930   -1.3210 C   0  0  0  0  0  0  0  0  0  0  0  0
    4.5020   -0.0110   -0.6480 C   0  0  0  0  0  0  0  0  0  0  0  0
    5.2730    0.5820   -1.6680 N   0  0  0  0  0  0  0  0  0  0  0  0
    4.8060    1.7350   -2.3170 C   0  0  0  0  0  0  0  0  0  0  0  0
    6.5950    0.1700   -1.7990 C   0  0  0  0  0  0  0  0  0  0  0  0
    7.5500    0.4320   -0.7280 C   0  0  0  0  0  0  0  0  0  0  0  0
    7.2340    1.1150    0.4200 C   0  0  0  0  0  0  0  0  0  0  0  0
    8.2170    1.3330    1.3800 C   0  0  0  0  0  0  0  0  0  0  0  0
    9.4820    0.8650    1.1670 C   0  0  0  0  0  0  0  0  0  0  0  0
    9.8090    0.1830    0.0240 C   0  0  0  0  0  0  0  0  0  0  0  0
   11.1890   -0.3180   -0.1890 C   0  0  0  0  0  0  0  0  0  0  0  0
    8.8390   -0.0310   -0.9200 C   0  0  0  0  0  0  0  0  0  0  0  0
    9.2680   -0.9160   -2.3960 Cl  0  0  0  0  0  0  0  0  0  0  0  0
   -2.0830   -0.0600    0.5150 C   0  0  0  0  0  0  0  0  0  0  0  0
   -1.0890    0.3570   -0.4710 C   0  0  0  0  0  0  0  0  0  0  0  0
   -3.3120   -0.5070    0.0090 C   0  0  0  0  0  0  0  0  0  0  0  0
   -9.4060   -1.1420   -1.1290 C   0  0  0  0  0  0  0  0  0  0  0  0
  -10.3620   -0.2610   -0.6760 C   0  0  0  0  0  0  0  0  0  0  0  0
  1  2  1  0
  2  3  2  0
  2 37  1  0
  3  4  1  0
  4  5  2  0
  5  6  1  0
  5 36  1  0
  6  7  1  0
  7  8  1  0
  8  9  2  0
  8 10  1  0
 10 11  2  0
 10 35  1  0
 11 12  1  0
 12 13  2  0
 13 14  1  0
 13 33  1  0
 14 15  1  0
 15 16  1  0
 16 17  1  0
 17 18  2  0
 17 19  1  0
 19 20  1  0
 20 21  1  0
 21 22  1  0
 22 23  1  0
 22 24  1  0
 24 25  1  0
 25 26  2  0
 25 31  1  0
 26 27  1  0
 27 28  2  0
 28 29  1  0
 29 30  1  0
 29 31  2  0
 31 32  1  0
 33 34  1  0
 33 35  2  0
 36 37  2  0
M  END
