
     RDKit          3D

 37 39  0  0  0  0  0  0  0  0999 V2000
   -5.8850    3.7490   -4.0760 C   0  0  0  0  0  0  0  0  0  0  0  0
   -5.5920    2.6440   -3.1120 C   0  0  0  0  0  0  0  0  0  0  0  0
   -4.2330    2.1980   -3.2550 N   0  0  0  0  0  0  0  0  0  0  0  0
   -3.6710    1.1530   -2.4720 C   0  0  0  0  0  0  0  0  0  0  0  0
   -4.4590    0.5090   -1.5090 C   0  0  0  0  0  0  0  0  0  0  0  0
   -3.9840   -0.5070   -0.7170 C   0  0  0  0  0  0  0  0  0  0  0  0
   -4.7980   -1.2000    0.2930 C   0  0  0  0  0  0  0  0  0  0  0  0
   -6.0820   -0.7700    0.5440 C   0  0  0  0  0  0  0  0  0  0  0  0
   -6.9150   -1.3750    1.4920 C   0  0  0  0  0  0  0  0  0  0  0  0
   -8.2040   -0.9230    1.7250 O   0  0  0  0  0  0  0  0  0  0  0  0
   -8.6930    0.1780    0.9880 C   0  0  0  0  0  0  0  0  0  0  0  0
   -6.3810   -2.4430    2.1790 C   0  0  0  0  0  0  0  0  0  0  0  0
   -7.1920   -3.1350    3.1950 C   0  0  0  0  0  0  0  0  0  0  0  0
   -5.0840   -2.8470    1.8990 C   0  0  0  0  0  0  0  0  0  0  0  0
   -4.3340   -2.2380    0.9880 N   0  0  0  0  0  0  0  0  0  0  0  0
   -2.6630   -0.9250   -0.8660 C   0  0  0  0  0  0  0  0  0  0  0  0
   -2.0320   -1.9960   -0.0980 C   0  0  0  0  0  0  0  0  0  0  0  0
   -0.6260   -2.1810   -0.4420 N   0  0  0  0  0  0  0  0  0  0  0  0
    0.2680   -1.1150   -0.0710 C   0  0  0  0  0  0  0  0  0  0  0  0
   -0.1420   -0.0770    0.5240 O   0  0  0  0  0  0  0  0  0  0  0  0
    1.6890   -1.2530   -0.4000 C   0  0  0  0  0  0  0  0  0  0  0  0
    2.4320   -0.0000    0.0800 C   0  0  0  0  0  0  0  0  0  0  0  0
    3.8670   -0.0890   -0.2250 C   0  0  0  0  0  0  0  0  0  0  0  0
    4.8170   -0.0570    0.6500 C   0  0  0  0  0  0  0  0  0  0  0  0
    4.6240    0.0730    2.0810 C   0  0  0  0  0  0  0  0  0  0  0  0
    5.6630    0.1020    2.9360 C   0  0  0  0  0  0  0  0  0  0  0  0
    7.0220    0.0020    2.4510 C   0  0  0  0  0  0  0  0  0  0  0  0
    7.3060   -0.1200    1.1500 C   0  0  0  0  0  0  0  0  0  0  0  0
    8.7090   -0.2180    0.7050 C   0  0  0  0  0  0  0  0  0  0  0  0
    9.0110    0.9350   -0.2160 C   0  0  2  0  0  0  0  0  0  0  0  0
   10.4490    0.8730   -0.6990 C   0  0  0  0  0  0  0  0  0  0  0  0
    8.7490    2.2100    0.5710 C   0  0  0  0  0  0  0  0  0  0  0  0
    6.2220   -0.1560    0.1890 C   0  0  0  0  0  0  0  0  0  0  0  0
    6.4300   -0.2720   -1.0600 O   0  0  0  0  0  0  0  0  0  0  0  0
   -1.8940   -0.2700   -1.8330 C   0  0  0  0  0  0  0  0  0  0  0  0
   -2.3850    0.7500   -2.6220 C   0  0  0  0  0  0  0  0  0  0  0  0
   -1.3780    1.5390   -3.8210 Cl  0  0  0  0  0  0  0  0  0  0  0  0
  1  2  1  0
  2  3  1  0
  3  4  1  0
  4  5  2  0
  4 36  1  0
  5  6  1  0
  6  7  1  0
  6 16  2  0
  7  8  2  0
  7 15  1  0
  8  9  1  0
  9 10  1  0
  9 12  2  0
 10 11  1  0
 12 13  1  0
 12 14  1  0
 14 15  2  0
 16 17  1  0
 16 35  1  0
 17 18  1  0
 18 19  1  0
 19 20  2  0
 19 21  1  0
 21 22  1  0
 22 23  1  0
 23 24  2  3
 24 25  1  0
 24 33  1  0
 25 26  2  0
 26 27  1  0
 27 28  2  0
 28 29  1  0
 28 33  1  0
 29 30  1  0
 30 31  1  1
 30 32  1  0
 33 34  2  0
 35 36  2  0
 36 37  1  0
M  END
