
     RDKit          3D

 37 39  0  0  0  0  0  0  0  0999 V2000
   -5.1380    0.1840   -1.9880 C   0  0  0  0  0  0  0  0  0  0  0  0
   -6.2360   -0.8380   -2.1120 C   0  0  2  0  0  0  0  0  0  0  0  0
   -7.3590   -0.3770   -3.0210 C   0  0  0  0  0  0  0  0  0  0  0  0
   -6.8120   -1.0960   -0.7750 C   0  0  0  0  0  0  0  0  0  0  0  0
   -6.4060   -0.4530    0.3040 C   0  0  0  0  0  0  0  0  0  0  0  0
   -7.0170   -0.7480    1.6170 C   0  0  0  0  0  0  0  0  0  0  0  0
   -6.0800   -1.2390    2.6620 C   0  0  0  0  0  0  0  0  0  0  0  0
   -4.9810   -0.3120    3.0140 C   0  0  0  0  0  0  0  0  0  0  0  0
   -5.1460    0.6470    4.0080 C   0  0  0  0  0  0  0  0  0  0  0  0
   -4.1250    1.4940    4.3540 C   0  0  0  0  0  0  0  0  0  0  0  0
   -2.8790    1.4220    3.7140 C   0  0  0  0  0  0  0  0  0  0  0  0
   -2.7070    0.4830    2.7360 C   0  0  0  0  0  0  0  0  0  0  0  0
   -1.4250    0.2930    2.0040 C   0  0  2  0  0  0  0  0  0  0  0  0
   -1.5160    0.7590    0.5950 C   0  0  0  0  0  0  0  0  0  0  0  0
   -1.2220   -1.2420    1.9960 C   0  0  0  0  0  0  0  0  0  0  0  0
   -0.2360    0.8720    2.6830 C   0  0  1  0  0  0  0  0  0  0  0  0
    0.0080    0.1100    4.2720 Cl  0  0  0  0  0  0  0  0  0  0  0  0
    1.0020    0.9600    1.8780 C   0  0  0  0  0  0  0  0  0  0  0  0
    1.8450    1.9140    2.1040 O   0  0  0  0  0  0  0  0  0  0  0  0
    1.3870    0.0800    0.8490 N   0  0  0  0  0  0  0  0  0  0  0  0
    2.6170    0.1800    0.1120 C   0  0  0  0  0  0  0  0  0  0  0  0
    2.6520   -0.2570   -1.2050 C   0  0  0  0  0  0  0  0  0  0  0  0
    3.8580   -0.2150   -1.9150 C   0  0  0  0  0  0  0  0  0  0  0  0
    4.9950    0.2520   -1.3220 C   0  0  0  0  0  0  0  0  0  0  0  0
    4.9970    0.6920   -0.0210 C   0  0  0  0  0  0  0  0  0  0  0  0
    3.7860    0.6380    0.6600 C   0  0  0  0  0  0  0  0  0  0  0  0
    6.2370    1.1700    0.6390 C   0  0  0  0  0  0  0  0  0  0  0  0
    7.2560    1.5140   -0.3860 C   0  0  0  0  0  0  0  0  0  0  0  0
    7.4400    0.3110   -1.3290 C   0  0  0  0  0  0  0  0  0  0  0  0
    6.2170    0.2650   -2.1140 N   0  0  0  0  0  0  0  0  0  0  0  0
    6.1210    0.3400   -3.4980 C   0  0  0  0  0  0  0  0  0  0  0  0
    5.0520    0.8350   -4.0480 O   0  0  0  0  0  0  0  0  0  0  0  0
    7.1380   -0.1010   -4.4530 C   0  0  0  0  0  0  0  0  0  0  0  0
    8.2490   -0.7510   -3.8780 N   0  0  0  0  0  0  0  0  0  0  0  0
    8.1740   -1.9660   -3.1460 C   0  0  0  0  0  0  0  0  0  0  0  0
    7.0780   -2.5200   -2.9830 O   0  0  0  0  0  0  0  0  0  0  0  0
   -3.7590   -0.3810    2.3890 C   0  0  0  0  0  0  0  0  0  0  0  0
  2  1  1  1
  2  3  1  0
  2  4  1  0
  4  5  2  3
  5  6  1  0
  6  7  1  0
  7  8  1  0
  8  9  2  0
  8 37  1  0
  9 10  1  0
 10 11  2  0
 11 12  1  0
 12 13  1  0
 12 37  2  0
 13 14  1  6
 13 15  1  0
 13 16  1  0
 16 17  1  1
 16 18  1  0
 18 19  2  0
 18 20  1  0
 20 21  1  0
 21 22  2  0
 21 26  1  0
 22 23  1  0
 23 24  2  0
 24 25  1  0
 24 30  1  0
 25 26  2  0
 25 27  1  0
 27 28  1  0
 28 29  1  0
 29 30  1  0
 30 31  1  0
 31 32  2  0
 31 33  1  0
 33 34  1  0
 34 35  1  0
 35 36  2  0
M  END
