
     RDKit          3D

 37 40  0  0  0  0  0  0  0  0999 V2000
   11.4990    1.5060   -1.3150 C   0  0  0  0  0  0  0  0  0  0  0  0
   10.4640    0.8950   -0.5130 C   0  0  0  0  0  0  0  0  0  0  0  0
   10.4710    0.3650    0.5220 O   0  0  0  0  0  0  0  0  0  0  0  0
    8.8980    0.9770   -1.2610 N   0  0  0  0  0  0  0  0  0  0  0  0
    8.1960    0.2770   -0.2350 C   0  0  0  0  0  0  0  0  0  0  0  0
    8.4850   -0.1700    0.8240 O   0  0  0  0  0  0  0  0  0  0  0  0
    6.7830    0.1430   -0.7320 N   0  0  0  0  0  0  0  0  0  0  0  0
    5.8560   -0.5160    0.0570 C   0  0  0  0  0  0  0  0  0  0  0  0
    6.1800   -1.5400    0.9100 C   0  0  0  0  0  0  0  0  0  0  0  0
    5.2240   -2.1250    1.7230 C   0  0  0  0  0  0  0  0  0  0  0  0
    3.9460   -1.6450    1.6440 C   0  0  0  0  0  0  0  0  0  0  0  0
    3.5730   -0.6030    0.7860 C   0  0  0  0  0  0  0  0  0  0  0  0
    2.2020   -0.1870    0.8090 N   0  0  0  0  0  0  0  0  0  0  0  0
    1.9050    1.2040    1.0230 C   0  0  0  0  0  0  0  0  0  0  0  0
    1.2050   -1.1440    0.6060 C   0  0  0  0  0  0  0  0  0  0  0  0
    1.5690   -2.3020    0.1800 O   0  0  0  0  0  0  0  0  0  0  0  0
   -0.2500   -0.9620    0.8450 C   0  0  0  0  0  0  0  0  0  0  0  0
   -0.9860   -2.0470    0.1290 C   0  0  0  0  0  0  0  0  0  0  0  0
   -2.4480   -1.9860    0.4830 N   0  0  0  0  0  0  0  0  0  0  0  0
   -2.8090   -2.7880    1.4820 C   0  0  0  0  0  0  0  0  0  0  0  0
   -2.1960   -3.6180    2.2010 O   0  0  0  0  0  0  0  0  0  0  0  0
   -4.6030   -2.4170    1.6510 S   0  0  0  0  0  0  0  0  0  0  0  0
   -4.6160   -1.2360    0.3520 C   0  0  0  0  0  0  0  0  0  0  0  0
   -5.6580   -0.4550   -0.1440 C   0  0  0  0  0  0  0  0  0  0  0  0
   -5.4250    0.4340   -1.1660 C   0  0  0  0  0  0  0  0  0  0  0  0
   -6.5320    1.2840   -1.6970 C   0  0  0  0  0  0  0  0  0  0  0  0
   -7.6070    1.4290   -0.6950 C   0  0  0  0  0  0  0  0  0  0  0  0
   -7.5930    2.5170    0.1520 C   0  0  0  0  0  0  0  0  0  0  0  0
   -8.5630    2.6550    1.1530 C   0  0  0  0  0  0  0  0  0  0  0  0
   -9.5120    1.6870    1.2580 C   0  0  0  0  0  0  0  0  0  0  0  0
   -9.5650    0.5890    0.4370 C   0  0  0  0  0  0  0  0  0  0  0  0
   -8.5960    0.4800   -0.5390 C   0  0  0  0  0  0  0  0  0  0  0  0
   -8.6470   -0.6140   -1.3690 O   0  0  0  0  0  0  0  0  0  0  0  0
   -4.1320    0.4730   -1.6220 C   0  0  0  0  0  0  0  0  0  0  0  0
   -3.1020   -0.2900   -1.1430 C   0  0  0  0  0  0  0  0  0  0  0  0
   -3.3390   -1.2140   -0.0820 C   0  0  0  0  0  0  0  0  0  0  0  0
    4.5280   -0.0450   -0.0010 C   0  0  0  0  0  0  0  0  0  0  0  0
  1  2  1  0
  2  3  2  0
  2  4  1  0
  4  5  1  0
  5  6  2  0
  5  7  1  0
  7  8  1  0
  8  9  2  0
  8 37  1  0
  9 10  1  0
 10 11  2  0
 11 12  1  0
 12 13  1  0
 12 37  2  0
 13 14  1  0
 13 15  1  0
 15 16  2  0
 15 17  1  0
 17 18  1  0
 18 19  1  0
 19 20  1  0
 19 36  1  0
 20 21  2  0
 20 22  1  0
 22 23  1  0
 23 24  2  0
 23 36  1  0
 24 25  1  0
 25 26  1  0
 25 34  2  0
 26 27  1  0
 27 28  2  0
 27 32  1  0
 28 29  1  0
 29 30  2  0
 30 31  1  0
 31 32  2  0
 32 33  1  0
 34 35  1  0
 35 36  2  0
M  END
