
     RDKit          3D

 36 38  0  0  0  0  0  0  0  0999 V2000
   -5.5480   -3.0860   -1.0110 C   0  0  0  0  0  0  0  0  0  0  0  0
   -4.2920   -3.7590   -1.5400 C   0  0  1  0  0  0  0  0  0  0  0  0
   -3.8540   -3.2230   -2.8790 C   0  0  0  0  0  0  0  0  0  0  0  0
   -2.3940   -3.5880   -3.0460 C   0  0  0  0  0  0  0  0  0  0  0  0
   -1.6370   -2.5580   -2.1260 C   0  0  0  0  0  0  0  0  0  0  0  0
   -2.3290   -2.5100   -0.8740 N   0  0  0  0  0  0  0  0  0  0  0  0
   -2.3230   -1.5480    0.0940 C   0  0  0  0  0  0  0  0  0  0  0  0
   -3.2100   -1.7700    1.0920 O   0  0  0  0  0  0  0  0  0  0  0  0
   -1.5960   -0.3280    0.3260 C   0  0  0  0  0  0  0  0  0  0  0  0
   -0.6310    0.2080   -0.3070 C   0  0  0  0  0  0  0  0  0  0  0  0
    0.2340   -0.2760   -1.7440 S   0  0  0  0  0  0  0  0  0  0  0  0
    1.7130   -1.1930   -1.2580 C   0  0  0  0  0  0  0  0  0  0  0  0
    2.5350   -0.6670   -0.3750 C   0  0  0  0  0  0  0  0  0  0  0  0
    3.7090   -1.4920   -0.0470 C   0  0  0  0  0  0  0  0  0  0  0  0
    4.9390   -0.7460    0.1870 C   0  0  0  0  0  0  0  0  0  0  0  0
    6.0010   -1.4660    0.1130 O   0  0  0  0  0  0  0  0  0  0  0  0
    5.1410    0.6150    0.4780 N   0  0  0  0  0  0  0  0  0  0  0  0
    6.4960    0.9990    0.6720 C   0  0  0  0  0  0  0  0  0  0  0  0
    7.3790    0.0950    0.5600 O   0  0  0  0  0  0  0  0  0  0  0  0
    6.9220    2.3630    0.9900 C   0  0  0  0  0  0  0  0  0  0  0  0
    8.3150    2.4100    1.1080 O   0  0  0  0  0  0  0  0  0  0  0  0
    4.2310    1.7210    0.6230 C   0  0  0  0  0  0  0  0  0  0  0  0
    2.8660    1.3440    1.1070 C   0  0  0  0  0  0  0  0  0  0  0  0
    2.1940    0.5720    0.1220 O   0  0  0  0  0  0  0  0  0  0  0  0
   -2.2590    0.5520    1.3650 C   0  0  0  0  0  0  0  0  0  0  0  0
   -3.0410   -0.0550    2.1900 N   0  0  0  0  0  0  0  0  0  0  0  0
   -2.1470    1.9810    1.4750 C   0  0  0  0  0  0  0  0  0  0  0  0
   -1.5750    2.8180    0.6390 C   0  0  0  0  0  0  0  0  0  0  0  0
   -1.5140    4.2740    0.8690 C   0  0  0  0  0  0  0  0  0  0  0  0
   -0.9120    5.0330   -0.0470 C   0  0  0  0  0  0  0  0  0  0  0  0
   -0.3720    4.4990   -1.1540 F   0  0  0  0  0  0  0  0  0  0  0  0
   -0.8350    6.7470    0.2140 Cl  0  0  0  0  0  0  0  0  0  0  0  0
   -2.0760    4.8400    2.0210 N   0  0  0  0  0  0  0  0  0  0  0  0
   -2.6910    3.9220    2.9180 C   0  0  0  0  0  0  0  0  0  0  0  0
   -2.7260    2.6450    2.6810 C   0  0  0  0  0  0  0  0  0  0  0  0
   -3.1560   -3.7360   -0.5760 C   0  0  0  0  0  0  0  0  0  0  0  0
  2  1  1  1
  2  3  1  0
  2 36  1  0
  3  4  1  0
  4  5  1  0
  5  6  1  0
  6  7  1  0
  6 36  1  0
  7  8  2  0
  7  9  1  0
  9 10  2  3
  9 25  1  0
 10 11  1  0
 11 12  1  0
 12 13  2  3
 13 14  1  0
 13 24  1  0
 14 15  1  0
 15 16  2  0
 15 17  1  0
 17 18  1  0
 17 22  1  0
 18 19  2  0
 18 20  1  0
 20 21  1  0
 22 23  1  0
 23 24  1  0
 25 26  2  0
 25 27  1  0
 27 28  2  0
 27 35  1  0
 28 29  1  0
 29 30  2  3
 29 33  1  0
 30 31  1  0
 30 32  1  0
 33 34  1  0
 34 35  2  0
M  END
