
     RDKit          3D

 36 39  0  0  0  0  0  0  0  0999 V2000
    1.8100   -1.5970   -0.4420 C   0  0  0  0  0  0  0  0  0  0  0  0
    2.0230   -0.4890    0.5980 C   0  0  2  0  0  0  0  0  0  0  0  0
    1.5590    0.8260    0.0150 C   0  0  0  0  0  0  0  0  0  0  0  0
    0.1240    0.7350   -0.3250 C   0  0  0  0  0  0  0  0  0  0  0  0
   -0.4850    1.7020   -0.8730 O   0  0  0  0  0  0  0  0  0  0  0  0
   -0.6600   -0.3960   -0.0750 O   0  0  0  0  0  0  0  0  0  0  0  0
   -2.0050   -0.4250   -0.4150 C   0  0  0  0  0  0  0  0  0  0  0  0
   -2.9960    0.0210    0.4330 C   0  0  0  0  0  0  0  0  0  0  0  0
   -4.3340   -0.0010    0.1110 C   0  0  0  0  0  0  0  0  0  0  0  0
   -5.3140    0.4730    1.0450 C   0  0  0  0  0  0  0  0  0  0  0  0
   -4.9030    0.8780    2.1910 O   0  0  0  0  0  0  0  0  0  0  0  0
   -6.7660    0.5400    0.8100 C   0  0  1  0  0  0  0  0  0  0  0  0
   -7.0270    1.4780   -0.3370 C   0  0  0  0  0  0  0  0  0  0  0  0
   -8.0920    1.0620   -1.2810 C   0  0  0  0  0  0  0  0  0  0  0  0
   -9.0700    0.2760   -0.6720 O   0  0  0  0  0  0  0  0  0  0  0  0
   -8.4450   -0.9350   -0.3760 C   0  0  0  0  0  0  0  0  0  0  0  0
   -7.4000   -0.8160    0.6710 C   0  0  0  0  0  0  0  0  0  0  0  0
   -4.6600   -0.4990   -1.1270 C   0  0  0  0  0  0  0  0  0  0  0  0
   -3.6720   -0.9580   -2.0060 C   0  0  0  0  0  0  0  0  0  0  0  0
   -2.3990   -0.8980   -1.6080 N   0  0  0  0  0  0  0  0  0  0  0  0
    3.4390   -0.4720    1.0160 C   0  0  0  0  0  0  0  0  0  0  0  0
    3.7520   -0.8360    2.3080 C   0  0  0  0  0  0  0  0  0  0  0  0
    5.0690   -0.8190    2.7030 C   0  0  0  0  0  0  0  0  0  0  0  0
    5.3980   -1.1920    4.0290 N   0  0  0  0  0  0  0  0  0  0  0  0
    6.0020   -0.4430    1.7980 N   0  0  0  0  0  0  0  0  0  0  0  0
    5.7150   -0.0870    0.5420 C   0  0  0  0  0  0  0  0  0  0  0  0
    6.8200    0.3090   -0.3630 C   0  0  0  0  0  0  0  0  0  0  0  0
    6.5130    0.6590   -1.5740 C   0  0  0  0  0  0  0  0  0  0  0  0
    7.3730    1.0970   -2.6880 C   0  0  2  0  0  0  0  0  0  0  0  0
    7.1870    0.2490   -3.7740 F   0  0  0  0  0  0  0  0  0  0  0  0
    9.0790    1.1240   -2.2070 S   0  0  0  0  0  0  0  0  0  0  0  0
    9.7300    2.4850   -2.4110 O   0  0  0  0  0  0  0  0  0  0  0  0
    9.2280    0.6120   -0.5360 C   0  0  0  0  0  0  0  0  0  0  0  0
    8.1760    0.2790    0.1740 C   0  0  0  0  0  0  0  0  0  0  0  0
    8.4100   -0.2280    1.8500 Cl  0  0  0  0  0  0  0  0  0  0  0  0
    4.4320   -0.1040    0.1580 N   0  0  0  0  0  0  0  0  0  0  0  0
  2  1  1  6
  2  3  1  0
  2 21  1  0
  3  4  1  0
  4  5  2  0
  4  6  1  0
  6  7  1  0
  7  8  2  0
  7 20  1  0
  8  9  1  0
  9 10  1  0
  9 18  2  0
 10 11  2  0
 12 10  1  6
 12 13  1  0
 12 17  1  0
 13 14  1  0
 14 15  1  0
 15 16  1  0
 16 17  1  0
 18 19  1  0
 19 20  2  0
 21 22  2  0
 21 36  1  0
 22 23  1  0
 23 24  1  0
 23 25  2  0
 25 26  1  0
 26 27  1  0
 26 36  2  0
 27 28  2  0
 27 34  1  0
 28 29  1  0
 29 30  1  6
 29 31  1  0
 31 32  2  0
 31 33  1  1
 33 34  2  0
 34 35  1  0
M  END
