
     RDKit          3D

 36 39  0  0  0  0  0  0  0  0999 V2000
   -6.3770    2.3040   -0.1280 C   0  0  0  0  0  0  0  0  0  0  0  0
   -5.3570    1.2750    0.1560 C   0  0  0  0  0  0  0  0  0  0  0  0
   -4.1180    1.2580   -0.2020 C   0  0  0  0  0  0  0  0  0  0  0  0
   -3.5100    2.2940   -0.9830 C   0  0  0  0  0  0  0  0  0  0  0  0
   -4.0430    2.8090   -2.0280 C   0  0  0  0  0  0  0  0  0  0  0  0
   -5.2210    2.4540   -2.5370 F   0  0  0  0  0  0  0  0  0  0  0  0
   -3.1900    4.0930   -2.8710 Cl  0  0  0  0  0  0  0  0  0  0  0  0
   -2.1150    2.6790   -0.6120 C   0  0  0  0  0  0  0  0  0  0  0  0
   -1.2690    1.3680   -0.7130 C   0  0  0  0  0  0  0  0  0  0  0  0
   -1.9000    0.2750    0.0740 C   0  0  0  0  0  0  0  0  0  0  0  0
   -3.2070    0.2000    0.3280 C   0  0  0  0  0  0  0  0  0  0  0  0
   -3.8500   -0.8920    1.0970 C   0  0  1  0  0  0  0  0  0  0  0  0
   -4.7580   -1.6460    0.0940 C   0  0  0  0  0  0  0  0  0  0  0  0
   -2.9010   -1.9140    1.5770 C   0  0  0  0  0  0  0  0  0  0  0  0
   -1.6020   -1.8730    1.3490 C   0  0  0  0  0  0  0  0  0  0  0  0
   -0.7630   -2.9320    1.8630 N   0  0  0  0  0  0  0  0  0  0  0  0
    0.6240   -2.8460    1.5810 C   0  0  0  0  0  0  0  0  0  0  0  0
    1.4380   -3.3790    2.3440 O   0  0  0  0  0  0  0  0  0  0  0  0
    1.0990   -2.1160    0.3740 C   0  0  2  0  0  0  0  0  0  0  0  0
    0.6360   -2.8030   -0.8930 C   0  0  0  0  0  0  0  0  0  0  0  0
    2.5040   -1.9230    0.4560 N   0  0  0  0  0  0  0  0  0  0  0  0
    3.4480   -2.9740    0.4900 C   0  0  0  0  0  0  0  0  0  0  0  0
    2.9930   -4.1660    0.4430 O   0  0  0  0  0  0  0  0  0  0  0  0
    4.9110   -2.7810    0.5770 C   0  0  0  0  0  0  0  0  0  0  0  0
    5.3440   -1.4650    0.5200 O   0  0  0  0  0  0  0  0  0  0  0  0
    5.1990   -0.5840   -0.5240 C   0  0  0  0  0  0  0  0  0  0  0  0
    4.6190   -0.9890   -1.5570 O   0  0  0  0  0  0  0  0  0  0  0  0
    5.7160    0.8140   -0.4350 C   0  0  0  0  0  0  0  0  0  0  0  0
    6.3470    1.2670    0.6780 C   0  0  0  0  0  0  0  0  0  0  0  0
    6.7560    2.9860    0.2560 S   0  0  0  0  0  0  0  0  0  0  0  0
    5.9540    2.7900   -1.4610 C   0  0  0  0  0  0  0  0  0  0  0  0
    6.0010    4.0280   -2.3420 C   0  0  0  0  0  0  0  0  0  0  0  0
    5.6120    1.7100   -1.3960 N   0  0  0  0  0  0  0  0  0  0  0  0
    0.3530   -0.7940    0.3970 C   0  0  0  0  0  0  0  0  0  0  0  0
    0.9660    0.2670    0.2500 O   0  0  0  0  0  0  0  0  0  0  0  0
   -1.0580   -0.7820    0.5920 N   0  0  0  0  0  0  0  0  0  0  0  0
  1  2  1  0
  2  3  2  3
  3  4  1  0
  3 11  1  0
  4  5  2  3
  4  8  1  0
  5  6  1  0
  5  7  1  0
  8  9  1  0
  9 10  1  0
 10 11  2  0
 10 36  1  0
 11 12  1  0
 12 13  1  6
 12 14  1  0
 14 15  2  0
 15 16  1  0
 15 36  1  0
 16 17  1  0
 17 18  2  0
 17 19  1  0
 19 20  1  6
 19 21  1  0
 19 34  1  0
 21 22  1  0
 22 23  2  0
 22 24  1  0
 24 25  1  0
 25 26  1  0
 26 27  2  0
 26 28  1  0
 28 29  2  0
 28 33  1  0
 29 30  1  0
 30 31  1  0
 31 32  1  0
 31 33  2  0
 34 35  2  0
 34 36  1  0
M  END
