
     RDKit          3D

 36 39  0  0  0  0  0  0  0  0999 V2000
   -7.4660    1.3440    0.6570 C   0  0  0  0  0  0  0  0  0  0  0  0
   -7.4070   -0.1850    0.7400 C   0  0  2  0  0  0  0  0  0  0  0  0
   -8.6240   -0.6830    1.5000 C   0  0  0  0  0  0  0  0  0  0  0  0
   -6.1870   -0.5010    1.6130 C   0  0  0  0  0  0  0  0  0  0  0  0
   -5.1680   -1.0220    0.7230 N   0  0  0  0  0  0  0  0  0  0  0  0
   -4.0750   -0.2670    0.2440 C   0  0  0  0  0  0  0  0  0  0  0  0
   -3.8870    1.0510    0.5830 C   0  0  0  0  0  0  0  0  0  0  0  0
   -2.8250    1.8000    0.1190 C   0  0  0  0  0  0  0  0  0  0  0  0
   -1.8660    1.2360   -0.7400 C   0  0  0  0  0  0  0  0  0  0  0  0
   -0.8260    2.0280   -1.1740 O   0  0  0  0  0  0  0  0  0  0  0  0
    0.2310    1.6000   -2.0450 C   0  0  1  0  0  0  0  0  0  0  0  0
   -0.1530    2.2150   -3.2860 F   0  0  0  0  0  0  0  0  0  0  0  0
    1.3800    2.1830   -1.6690 O   0  0  0  0  0  0  0  0  0  0  0  0
    2.6300    1.7290   -1.4010 C   0  0  0  0  0  0  0  0  0  0  0  0
    3.6070    2.7000   -1.0460 C   0  0  0  0  0  0  0  0  0  0  0  0
    4.8900    2.3610   -0.7560 C   0  0  0  0  0  0  0  0  0  0  0  0
    5.3440    1.0380   -0.7850 C   0  0  0  0  0  0  0  0  0  0  0  0
    6.6380    0.7960   -0.4840 O   0  0  0  0  0  0  0  0  0  0  0  0
    7.2710   -0.4250   -0.4580 C   0  0  0  0  0  0  0  0  0  0  0  0
    6.8580   -1.4670   -1.0750 N   0  0  0  0  0  0  0  0  0  0  0  0
    7.6350   -2.5910   -0.9200 N   0  0  0  0  0  0  0  0  0  0  0  0
    8.7070   -2.2270   -0.0830 C   0  0  0  0  0  0  0  0  0  0  0  0
    9.6700   -2.9550    0.3250 N   0  0  0  0  0  0  0  0  0  0  0  0
    8.5030   -0.7900    0.2490 C   0  0  0  0  0  0  0  0  0  0  0  0
    9.2860   -0.0820    0.9990 C   0  0  0  0  0  0  0  0  0  0  0  0
    9.1850    1.3050    1.3740 C   0  0  0  0  0  0  0  0  0  0  0  0
    8.1310    2.0460    0.9070 O   0  0  0  0  0  0  0  0  0  0  0  0
    4.4060    0.1110   -1.1250 C   0  0  0  0  0  0  0  0  0  0  0  0
    3.0740    0.4340   -1.4290 C   0  0  0  0  0  0  0  0  0  0  0  0
    1.9950   -0.8790   -1.8380 Cl  0  0  0  0  0  0  0  0  0  0  0  0
   -2.0610   -0.0820   -1.0730 C   0  0  0  0  0  0  0  0  0  0  0  0
   -3.1440   -0.8380   -0.5990 C   0  0  0  0  0  0  0  0  0  0  0  0
   -5.3710   -2.4210    0.3450 C   0  0  0  0  0  0  0  0  0  0  0  0
   -6.2950   -2.4270   -0.8560 C   0  0  0  0  0  0  0  0  0  0  0  0
   -7.2790   -0.9160   -0.8850 S   0  0  0  0  0  0  0  0  0  0  0  0
   -8.6650   -1.2360   -1.4300 O   0  0  0  0  0  0  0  0  0  0  0  0
  2  1  1  6
  2  3  1  0
  2  4  1  0
  2 35  1  0
  4  5  1  0
  5  6  1  0
  5 33  1  0
  6  7  2  0
  6 32  1  0
  7  8  1  0
  8  9  2  0
  9 10  1  0
  9 31  1  0
 10 11  1  0
 11 12  1  6
 11 13  1  0
 13 14  1  0
 14 15  2  0
 14 29  1  0
 15 16  1  0
 16 17  2  0
 17 18  1  0
 17 28  1  0
 18 19  1  0
 19 20  2  0
 19 24  1  0
 20 21  1  0
 21 22  1  0
 22 23  2  0
 22 24  1  0
 24 25  2  3
 25 26  1  0
 26 27  1  0
 28 29  2  0
 29 30  1  0
 31 32  2  0
 33 34  1  0
 35 34  1  1
 35 36  2  0
M  END
