
     RDKit          3D

 36 39  0  0  0  0  0  0  0  0999 V2000
    0.5280   -3.1120   -1.5230 C   0  0  0  0  0  0  0  0  0  0  0  0
    1.3270   -3.2420   -0.2540 C   0  0  0  0  0  0  0  0  0  0  0  0
    1.0040   -2.2020    0.7790 C   0  0  1  0  0  0  0  0  0  0  0  0
    1.2450   -0.8810    0.3260 N   0  0  0  0  0  0  0  0  0  0  0  0
    0.4290    0.0310    0.0570 C   0  0  0  0  0  0  0  0  0  0  0  0
    1.1380    1.6020   -0.5010 S   0  0  0  0  0  0  0  0  0  0  0  0
    2.9010    1.5530   -0.5610 C   0  0  0  0  0  0  0  0  0  0  0  0
    3.7280    1.8920    0.4940 C   0  0  0  0  0  0  0  0  0  0  0  0
    5.1020    1.8380    0.4010 C   0  0  0  0  0  0  0  0  0  0  0  0
    5.9000    2.1860    1.4770 O   0  0  0  0  0  0  0  0  0  0  0  0
    7.2970    2.1360    1.3990 C   0  0  0  0  0  0  0  0  0  0  0  0
    5.7070    1.4340   -0.7770 C   0  0  0  0  0  0  0  0  0  0  0  0
    4.9010    1.0950   -1.8310 C   0  0  0  0  0  0  0  0  0  0  0  0
    3.5180    1.1500   -1.7340 C   0  0  0  0  0  0  0  0  0  0  0  0
    2.7570    0.7950   -2.8350 O   0  0  0  0  0  0  0  0  0  0  0  0
   -1.0050   -0.0850    0.1560 C   0  0  2  0  0  0  0  0  0  0  0  0
   -1.6730    0.6200    1.2910 C   0  0  0  0  0  0  0  0  0  0  0  0
   -1.4840    2.0640    1.3180 C   0  0  0  0  0  0  0  0  0  0  0  0
   -0.4170    2.5460    1.7480 O   0  0  0  0  0  0  0  0  0  0  0  0
   -2.4970    2.9330    0.8620 N   0  0  0  0  0  0  0  0  0  0  0  0
   -2.4190    4.3800    0.8420 C   0  0  0  0  0  0  0  0  0  0  0  0
   -3.2140    4.8480   -0.3570 C   0  0  0  0  0  0  0  0  0  0  0  0
   -4.0000    3.6320   -0.8130 C   0  0  0  0  0  0  0  0  0  0  0  0
   -3.8080    2.6150    0.3220 C   0  0  0  0  0  0  0  0  0  0  0  0
   -1.3450   -1.5420    0.3580 N   0  0  0  0  0  0  0  0  0  0  0  0
   -2.5450   -2.0040   -0.1340 C   0  0  0  0  0  0  0  0  0  0  0  0
   -3.3650   -1.0610   -0.6170 O   0  0  0  0  0  0  0  0  0  0  0  0
   -3.0930   -3.3260   -0.2320 C   0  0  0  0  0  0  0  0  0  0  0  0
   -4.3470   -3.5390   -0.6900 N   0  0  0  0  0  0  0  0  0  0  0  0
   -4.6580   -4.9280   -0.6970 C   0  0  0  0  0  0  0  0  0  0  0  0
   -3.4520   -5.6090   -0.2240 C   0  0  0  0  0  0  0  0  0  0  0  0
   -3.2120   -7.3190   -0.0380 Cl  0  0  0  0  0  0  0  0  0  0  0  0
   -2.5550   -4.6290    0.0430 C   0  0  0  0  0  0  0  0  0  0  0  0
   -1.3240   -4.9720    0.4650 F   0  0  0  0  0  0  0  0  0  0  0  0
   -0.4320   -2.2740    1.1430 C   0  0  0  0  0  0  0  0  0  0  0  0
   -0.8260   -2.9640    2.1320 O   0  0  0  0  0  0  0  0  0  0  0  0
  1  2  1  0
  3  2  1  6
  3  4  1  0
  3 35  1  0
  4  5  2  0
  5  6  1  0
  5 16  1  0
  6  7  1  0
  7  8  2  0
  7 14  1  0
  8  9  1  0
  9 10  1  0
  9 12  2  0
 10 11  1  0
 12 13  1  0
 13 14  2  0
 14 15  1  0
 16 17  1  1
 16 25  1  0
 17 18  1  0
 18 19  2  0
 18 20  1  0
 20 21  1  0
 20 24  1  0
 21 22  1  0
 22 23  1  0
 23 24  1  0
 25 26  1  0
 25 35  1  0
 26 27  2  0
 26 28  1  0
 28 29  2  0
 28 33  1  0
 29 30  1  0
 30 31  1  0
 31 32  1  0
 31 33  2  0
 33 34  1  0
 35 36  2  0
M  END
