
     RDKit          3D

 36 39  0  0  0  0  0  0  0  0999 V2000
   -6.4590    3.1510   -0.9190 C   0  0  0  0  0  0  0  0  0  0  0  0
   -5.0310    2.6460   -0.7300 C   0  0  0  0  0  0  0  0  0  0  0  0
   -5.0440    1.7240    0.4570 C   0  0  0  0  0  0  0  0  0  0  0  0
   -3.8110    1.1710    0.7720 O   0  0  0  0  0  0  0  0  0  0  0  0
   -3.0590    0.3780   -0.0630 C   0  0  0  0  0  0  0  0  0  0  0  0
   -3.5890    0.1720   -1.2010 O   0  0  0  0  0  0  0  0  0  0  0  0
   -1.7530   -0.2150    0.2600 C   0  0  0  0  0  0  0  0  0  0  0  0
   -1.1300   -0.9640   -0.6060 C   0  0  0  0  0  0  0  0  0  0  0  0
   -1.9710   -1.2010   -2.1750 S   0  0  0  0  0  0  0  0  0  0  0  0
   -0.9310   -2.2740   -3.1400 C   0  0  0  0  0  0  0  0  0  0  0  0
   -1.3180   -2.6450   -4.3970 C   0  0  0  0  0  0  0  0  0  0  0  0
   -2.8500   -2.0740   -5.0850 Cl  0  0  0  0  0  0  0  0  0  0  0  0
   -0.5770   -3.4690   -5.2160 C   0  0  0  0  0  0  0  0  0  0  0  0
    0.6150   -3.9210   -4.6960 C   0  0  0  0  0  0  0  0  0  0  0  0
    1.3610   -4.7370   -5.4940 F   0  0  0  0  0  0  0  0  0  0  0  0
    1.0110   -3.5560   -3.4420 C   0  0  0  0  0  0  0  0  0  0  0  0
    0.2520   -2.7130   -2.6060 C   0  0  0  0  0  0  0  0  0  0  0  0
    0.7410   -2.3850   -1.3050 C   0  0  0  0  0  0  0  0  0  0  0  0
    1.8780   -2.8930   -0.9750 O   0  0  0  0  0  0  0  0  0  0  0  0
    0.0970   -1.5520   -0.3350 N   0  0  0  0  0  0  0  0  0  0  0  0
    0.7820   -1.3620    0.9180 C   0  0  1  0  0  0  0  0  0  0  0  0
    2.0470   -0.6270    0.5740 C   0  0  0  0  0  0  0  0  0  0  0  0
    2.1430    0.5160   -0.1860 C   0  0  0  0  0  0  0  0  0  0  0  0
    3.4420    0.8640   -0.2830 N   0  0  0  0  0  0  0  0  0  0  0  0
    4.1290   -0.0500    0.4040 C   0  0  0  0  0  0  0  0  0  0  0  0
    5.4030   -0.0840    0.5610 N   0  0  0  0  0  0  0  0  0  0  0  0
    6.2410    0.9410   -0.0400 C   0  0  0  0  0  0  0  0  0  0  0  0
    5.8980    2.2940    0.5490 C   0  0  0  0  0  0  0  0  0  0  0  0
    3.2890   -0.9630    0.9300 N   0  0  0  0  0  0  0  0  0  0  0  0
    0.0120   -0.5030    1.8590 C   0  0  0  0  0  0  0  0  0  0  0  0
    0.6380   -0.3370    3.1780 C   0  0  0  0  0  0  0  0  0  0  0  0
    1.7820   -0.8950    3.3470 O   0  0  0  0  0  0  0  0  0  0  0  0
    0.1600    0.3330    4.2520 O   0  0  0  0  0  0  0  0  0  0  0  0
    0.8940    0.3930    5.4540 C   0  0  0  0  0  0  0  0  0  0  0  0
   -1.1420    0.0350    1.5850 C   0  0  0  0  0  0  0  0  0  0  0  0
   -1.8770    0.9310    2.5210 C   0  0  0  0  0  0  0  0  0  0  0  0
  1  2  1  0
  2  3  1  0
  3  4  1  0
  4  5  1  0
  5  6  2  0
  5  7  1  0
  7  8  2  0
  7 35  1  0
  8  9  1  0
  8 20  1  0
  9 10  1  0
 10 11  2  0
 10 17  1  0
 11 12  1  0
 11 13  1  0
 13 14  2  0
 14 15  1  0
 14 16  1  0
 16 17  2  0
 17 18  1  0
 18 19  2  0
 18 20  1  0
 20 21  1  0
 21 22  1  6
 21 30  1  0
 22 23  2  0
 22 29  1  0
 23 24  1  0
 24 25  1  0
 25 26  2  3
 25 29  1  0
 26 27  1  0
 27 28  1  0
 30 31  1  0
 30 35  2  0
 31 32  2  0
 31 33  1  0
 33 34  1  0
 35 36  1  0
M  END
