
     RDKit          3D

 36 39  0  0  0  0  0  0  0  0999 V2000
   -7.0030    0.5440   -0.1730 C   0  0  0  0  0  0  0  0  0  0  0  0
   -5.7330    0.5970    0.1270 C   0  0  0  0  0  0  0  0  0  0  0  0
   -5.0300    1.7700    0.0100 C   0  0  0  0  0  0  0  0  0  0  0  0
   -5.5630    2.8920   -0.3970 C   0  0  0  0  0  0  0  0  0  0  0  0
   -6.8440    3.0550   -0.7530 F   0  0  0  0  0  0  0  0  0  0  0  0
   -3.6570    1.7830    0.3450 C   0  0  0  0  0  0  0  0  0  0  0  0
   -2.9950    0.6640    0.7840 C   0  0  0  0  0  0  0  0  0  0  0  0
   -1.3090    0.7650    1.1740 S   0  0  2  0  0  0  0  0  0  0  0  0
   -1.1090    0.3370    2.6220 O   0  0  0  0  0  0  0  0  0  0  0  0
   -0.7640    2.1370    1.0510 O   0  0  0  0  0  0  0  0  0  0  0  0
   -0.3670   -0.2810    0.2180 O   0  0  0  0  0  0  0  0  0  0  0  0
    0.8690    0.0970   -0.3110 C   0  0  0  0  0  0  0  0  0  0  0  0
    2.0510   -0.0790    0.3210 C   0  0  0  0  0  0  0  0  0  0  0  0
    3.2550    0.3320   -0.2870 C   0  0  0  0  0  0  0  0  0  0  0  0
    4.5260    0.1250    0.3890 C   0  0  1  0  0  0  0  0  0  0  0  0
    4.5990   -1.1900    1.0220 N   0  0  0  0  0  0  0  0  0  0  0  0
    5.9650   -1.4110    1.3090 C   0  0  0  0  0  0  0  0  0  0  0  0
    6.6500   -2.2120    2.2300 C   0  0  0  0  0  0  0  0  0  0  0  0
    8.0280   -2.2170    2.2730 C   0  0  0  0  0  0  0  0  0  0  0  0
    8.7460   -1.4270    1.4000 C   0  0  0  0  0  0  0  0  0  0  0  0
   10.5080   -1.4310    1.4520 Cl  0  0  0  0  0  0  0  0  0  0  0  0
    8.0570   -0.6410    0.4940 C   0  0  0  0  0  0  0  0  0  0  0  0
    6.6810   -0.6190    0.4330 C   0  0  0  0  0  0  0  0  0  0  0  0
    5.7170    0.0960   -0.4010 N   0  0  0  0  0  0  0  0  0  0  0  0
    3.1710    0.9070   -1.5220 C   0  0  0  0  0  0  0  0  0  0  0  0
    4.2840    1.3590   -2.2310 O   0  0  0  0  0  0  0  0  0  0  0  0
    4.1600    1.9470   -3.5040 C   0  0  0  0  0  0  0  0  0  0  0  0
    1.9820    1.0780   -2.1450 N   0  0  0  0  0  0  0  0  0  0  0  0
    0.8560    0.6810   -1.5520 C   0  0  0  0  0  0  0  0  0  0  0  0
   -0.4250    0.8920   -2.2800 C   0  0  0  0  0  0  0  0  0  0  0  0
   -3.7410   -0.4780    0.8820 C   0  0  0  0  0  0  0  0  0  0  0  0
   -3.1540   -1.5240    1.2850 O   0  0  0  0  0  0  0  0  0  0  0  0
   -5.0700   -0.5150    0.5640 N   0  0  0  0  0  0  0  0  0  0  0  0
   -5.7310   -1.7790    0.7140 C   0  0  2  0  0  0  0  0  0  0  0  0
   -6.2820   -2.3750   -0.5410 C   0  0  0  0  0  0  0  0  0  0  0  0
   -6.7600   -1.7060    1.8110 C   0  0  0  0  0  0  0  0  0  0  0  0
  1  2  2  0
  2  3  1  0
  2 33  1  0
  3  4  2  3
  3  6  1  0
  4  5  1  0
  6  7  2  0
  7  8  1  0
  7 31  1  0
  8  9  2  0
  8 10  2  0
  8 11  1  6
 11 12  1  0
 12 13  2  0
 12 29  1  0
 13 14  1  0
 15 14  1  6
 14 25  2  0
 15 16  1  0
 15 24  1  0
 16 17  1  0
 17 18  2  0
 17 23  1  0
 18 19  1  0
 19 20  2  0
 20 21  1  0
 20 22  1  0
 22 23  2  0
 23 24  1  0
 25 26  1  0
 25 28  1  0
 26 27  1  0
 28 29  2  0
 29 30  1  0
 31 32  2  0
 31 33  1  0
 33 34  1  0
 34 35  1  6
 34 36  1  0
M  END
