
     RDKit          3D

 33 34  0  0  0  0  0  0  0  0999 V2000
   -7.3910    2.2850    0.1120 C   0  0  0  0  0  0  0  0  0  0  0  0
   -6.0750    1.5840    0.0410 C   0  0  0  0  0  0  0  0  0  0  0  0
   -5.9750    0.2310    0.2650 C   0  0  0  0  0  0  0  0  0  0  0  0
   -4.7970   -0.4370    0.2100 C   0  0  0  0  0  0  0  0  0  0  0  0
   -4.6760   -1.9030    0.4600 C   0  0  0  0  0  0  0  0  0  0  0  0
   -3.6100    0.2820   -0.0910 C   0  0  0  0  0  0  0  0  0  0  0  0
   -2.3800   -0.4780   -0.1870 C   0  0  0  0  0  0  0  0  0  0  0  0
   -2.4680   -1.6830   -0.5930 O   0  0  0  0  0  0  0  0  0  0  0  0
   -1.0940   -0.0250    0.1280 N   0  0  0  0  0  0  0  0  0  0  0  0
    0.1300   -0.7270    0.0420 C   0  0  0  0  0  0  0  0  0  0  0  0
    0.2670   -2.0760   -0.1040 C   0  0  0  0  0  0  0  0  0  0  0  0
    1.5400   -2.6450   -0.2000 C   0  0  0  0  0  0  0  0  0  0  0  0
    2.6930   -1.8950   -0.1530 C   0  0  0  0  0  0  0  0  0  0  0  0
    3.9270   -2.3800   -0.2360 O   0  0  0  0  0  0  0  0  0  0  0  0
    4.6150   -3.5300   -0.3540 C   0  0  0  0  0  0  0  0  0  0  0  0
    4.5300   -4.5590    0.7230 C   0  0  1  0  0  0  0  0  0  0  0  0
    3.3120   -5.0710    0.9980 F   0  0  0  0  0  0  0  0  0  0  0  0
    5.4410   -5.5700    0.3760 F   0  0  0  0  0  0  0  0  0  0  0  0
    5.1730   -3.9050    2.2730 Cl  0  0  0  0  0  0  0  0  0  0  0  0
    2.5570   -0.5010   -0.0020 C   0  0  0  0  0  0  0  0  0  0  0  0
    3.7230    0.2420    0.0440 O   0  0  0  0  0  0  0  0  0  0  0  0
    3.5720    1.6620    0.1980 C   0  0  0  0  0  0  0  0  0  0  0  0
    4.8820    2.3380    0.2330 C   0  0  0  0  0  0  0  0  0  0  0  0
    5.1820    3.2470   -0.6690 C   0  0  0  0  0  0  0  0  0  0  0  0
    6.3760    3.9000   -0.6810 F   0  0  0  0  0  0  0  0  0  0  0  0
    5.8590    1.9940    1.2850 C   0  0  2  0  0  0  0  0  0  0  0  0
    7.0010    2.7450    1.1200 F   0  0  0  0  0  0  0  0  0  0  0  0
    6.2060    0.6550    1.2300 F   0  0  0  0  0  0  0  0  0  0  0  0
    5.3700    2.2830    2.5460 F   0  0  0  0  0  0  0  0  0  0  0  0
    1.3040    0.0520    0.0920 C   0  0  0  0  0  0  0  0  0  0  0  0
   -3.6610    1.6210   -0.3220 C   0  0  0  0  0  0  0  0  0  0  0  0
   -2.5050    2.4350   -0.6940 C   0  0  0  0  0  0  0  0  0  0  0  0
   -4.9140    2.2580   -0.2490 C   0  0  0  0  0  0  0  0  0  0  0  0
  1  2  1  0
  2  3  2  0
  2 33  1  0
  3  4  1  0
  4  5  1  0
  4  6  2  0
  6  7  1  0
  6 31  1  0
  7  8  2  0
  7  9  1  0
  9 10  1  0
 10 11  2  0
 10 30  1  0
 11 12  1  0
 12 13  2  0
 13 14  1  0
 13 20  1  0
 14 15  1  0
 15 16  1  0
 16 17  1  1
 16 18  1  0
 16 19  1  0
 20 21  1  0
 20 30  2  0
 21 22  1  0
 22 23  1  0
 23 24  2  3
 23 26  1  0
 24 25  1  0
 26 27  1  6
 26 28  1  0
 26 29  1  0
 31 32  1  0
 31 33  2  0
M  END
