
     RDKit          3D

 33 34  0  0  0  0  0  0  0  0999 V2000
    5.1840   -0.2360   -2.0160 C   0  0  0  0  0  0  0  0  0  0  0  0
    4.4060   -0.5800   -0.7710 C   0  0  0  0  0  0  0  0  0  0  0  0
    5.0780   -0.7220    0.3450 C   0  0  0  0  0  0  0  0  0  0  0  0
    4.4510   -1.0530    1.6290 C   0  0  0  0  0  0  0  0  0  0  0  0
    3.0620   -1.1980    1.6160 O   0  0  0  0  0  0  0  0  0  0  0  0
    2.2270   -0.1190    1.3640 C   0  0  0  0  0  0  0  0  0  0  0  0
    2.7510    1.1350    1.1600 C   0  0  0  0  0  0  0  0  0  0  0  0
    1.8700    2.1700    0.9090 C   0  0  0  0  0  0  0  0  0  0  0  0
    2.5400    3.7710    0.6470 Cl  0  0  0  0  0  0  0  0  0  0  0  0
    0.5080    1.9700    0.8640 C   0  0  0  0  0  0  0  0  0  0  0  0
   -0.0470    0.7060    1.0690 C   0  0  0  0  0  0  0  0  0  0  0  0
   -1.4160    0.4900    1.0260 O   0  0  0  0  0  0  0  0  0  0  0  0
   -2.1150    0.1810   -0.1310 C   0  0  0  0  0  0  0  0  0  0  0  0
   -1.4230    0.0820   -1.3180 C   0  0  0  0  0  0  0  0  0  0  0  0
   -2.0580   -0.2240   -2.5170 C   0  0  0  0  0  0  0  0  0  0  0  0
   -1.2900   -0.3260   -3.7940 C   0  0  1  0  0  0  0  0  0  0  0  0
    0.0580   -0.0700   -3.5280 F   0  0  0  0  0  0  0  0  0  0  0  0
   -1.3500   -1.5770   -4.3540 F   0  0  0  0  0  0  0  0  0  0  0  0
   -1.6820    0.6800   -4.6830 F   0  0  0  0  0  0  0  0  0  0  0  0
   -3.4180   -0.4260   -2.4700 C   0  0  0  0  0  0  0  0  0  0  0  0
   -4.1550   -0.7530   -3.7180 C   0  0  0  0  0  0  0  0  0  0  0  0
   -4.1070   -0.3270   -1.2790 C   0  0  0  0  0  0  0  0  0  0  0  0
   -3.4790   -0.0220   -0.0810 C   0  0  0  0  0  0  0  0  0  0  0  0
   -4.2330    0.0840    1.1960 C   0  0  1  0  0  0  0  0  0  0  0  0
   -5.7070   -0.1300    0.9420 C   0  0  0  0  0  0  0  0  0  0  0  0
   -3.7380   -0.7970    2.2060 N   0  0  0  0  0  0  0  0  0  0  0  0
   -4.3260   -0.6110    3.4920 C   0  0  0  0  0  0  0  0  0  0  0  0
    0.8360   -0.3130    1.3160 C   0  0  0  0  0  0  0  0  0  0  0  0
    6.4600   -0.5500    0.3130 O   0  0  0  0  0  0  0  0  0  0  0  0
    7.1200   -0.0890    1.4980 C   0  0  1  0  0  0  0  0  0  0  0  0
    8.4780    0.0240    1.2910 F   0  0  0  0  0  0  0  0  0  0  0  0
    6.5730    1.1440    1.8420 F   0  0  0  0  0  0  0  0  0  0  0  0
    6.9160   -1.0370    2.4640 F   0  0  0  0  0  0  0  0  0  0  0  0
  1  2  1  0
  2  3  2  3
  3  4  1  0
  3 29  1  0
  4  5  1  0
  5  6  1  0
  6  7  2  0
  6 28  1  0
  7  8  1  0
  8  9  1  0
  8 10  2  0
 10 11  1  0
 11 12  1  0
 11 28  2  0
 12 13  1  0
 13 14  2  0
 13 23  1  0
 14 15  1  0
 15 16  1  0
 15 20  2  0
 16 17  1  1
 16 18  1  0
 16 19  1  0
 20 21  1  0
 20 22  1  0
 22 23  2  0
 23 24  1  0
 24 25  1  6
 24 26  1  0
 26 27  1  0
 29 30  1  0
 30 31  1  6
 30 32  1  0
 30 33  1  0
M  END
