
     RDKit          3D

 33 35  0  0  0  0  0  0  0  0999 V2000
   -3.0560   -1.6280   -2.7810 C   0  0  0  0  0  0  0  0  0  0  0  0
   -3.3030   -1.1140   -1.4030 C   0  0  2  0  0  0  0  0  0  0  0  0
   -2.1590   -1.2810   -0.6440 O   0  0  0  0  0  0  0  0  0  0  0  0
   -2.1260   -0.6230    0.5440 C   0  0  1  0  0  0  0  0  0  0  0  0
   -1.4770    0.6010    0.4960 O   0  0  0  0  0  0  0  0  0  0  0  0
   -0.3200    0.6800    1.2210 C   0  0  1  0  0  0  0  0  0  0  0  0
    0.8120    1.0110    0.2560 C   0  0  2  0  0  0  0  0  0  0  0  0
    2.0170    0.4730    0.6140 O   0  0  0  0  0  0  0  0  0  0  0  0
    2.5200   -0.2930   -0.4110 C   0  0  2  0  0  0  0  0  0  0  0  0
    2.7060   -1.7430   -0.0210 C   0  0  1  0  0  0  0  0  0  0  0  0
    1.4110   -2.4670   -0.3230 C   0  0  0  0  0  0  0  0  0  0  0  0
    1.6500   -3.8280   -0.0610 O   0  0  0  0  0  0  0  0  0  0  0  0
    3.6700   -2.2870   -0.8700 O   0  0  0  0  0  0  0  0  0  0  0  0
    4.9580   -1.9690   -0.4470 C   0  0  1  0  0  0  0  0  0  0  0  0
    5.8440   -2.3840   -1.4350 O   0  0  0  0  0  0  0  0  0  0  0  0
    5.0260   -0.4660   -0.2830 C   0  0  2  0  0  0  0  0  0  0  0  0
    5.0930   -0.0610    1.0280 O   0  0  0  0  0  0  0  0  0  0  0  0
    3.8430    0.2190   -0.9340 C   0  0  1  0  0  0  0  0  0  0  0  0
    3.9430   -0.0020   -2.3070 O   0  0  0  0  0  0  0  0  0  0  0  0
    0.9570    2.4160    0.1550 O   0  0  0  0  0  0  0  0  0  0  0  0
   -0.2830    3.0420    0.0860 C   0  0  2  0  0  0  0  0  0  0  0  0
   -0.0040    4.4830   -0.3520 C   0  0  0  0  0  0  0  0  0  0  0  0
   -1.1630    5.2200   -0.4600 O   0  0  0  0  0  0  0  0  0  0  0  0
   -0.9250    3.0280    1.4500 C   0  0  2  0  0  0  0  0  0  0  0  0
   -0.7080    4.2150    2.1430 O   0  0  0  0  0  0  0  0  0  0  0  0
   -0.3320    1.8500    2.2060 C   0  0  2  0  0  0  0  0  0  0  0  0
    0.9940    2.1340    2.5220 O   0  0  0  0  0  0  0  0  0  0  0  0
   -3.4510   -0.5890    1.2010 C   0  0  1  0  0  0  0  0  0  0  0  0
   -4.2260    0.5210    0.8110 O   0  0  0  0  0  0  0  0  0  0  0  0
   -4.2490   -1.8090    0.7840 C   0  0  2  0  0  0  0  0  0  0  0  0
   -3.4640   -2.9490    1.0010 O   0  0  0  0  0  0  0  0  0  0  0  0
   -4.5020   -1.7620   -0.7230 C   0  0  2  0  0  0  0  0  0  0  0  0
   -4.5930   -3.0650   -1.1710 O   0  0  0  0  0  0  0  0  0  0  0  0
  2  1  1  6
  2  3  1  0
  2 32  1  0
  3  4  1  0
  4  5  1  6
  4 28  1  0
  6  5  1  6
  6  7  1  0
  6 26  1  0
  7  8  1  1
  7 20  1  0
  9  8  1  1
  9 10  1  0
  9 18  1  0
 10 11  1  6
 10 13  1  0
 11 12  1  0
 13 14  1  0
 14 15  1  6
 14 16  1  0
 16 17  1  1
 16 18  1  0
 18 19  1  6
 20 21  1  0
 21 22  1  1
 21 24  1  0
 22 23  1  0
 24 25  1  1
 24 26  1  0
 26 27  1  6
 28 29  1  6
 28 30  1  0
 30 31  1  6
 30 32  1  0
 32 33  1  6
M  END
