
     RDKit          3D

 32 33  0  0  0  0  0  0  0  0999 V2000
    4.4350    5.0100   -0.6700 C   0  0  0  0  0  0  0  0  0  0  0  0
    4.6430    3.8570   -0.0690 C   0  0  0  0  0  0  0  0  0  0  0  0
    3.5110    2.9750    0.3080 C   0  0  0  0  0  0  0  0  0  0  0  0
    3.6010    1.6820   -0.3380 N   0  0  0  0  0  0  0  0  0  0  0  0
    2.6390    0.6640   -0.1320 C   0  0  0  0  0  0  0  0  0  0  0  0
    1.5950    0.9330    0.7190 C   0  0  0  0  0  0  0  0  0  0  0  0
    0.6460   -0.0350    0.9400 C   0  0  0  0  0  0  0  0  0  0  0  0
    0.7100   -1.2600    0.3350 C   0  0  0  0  0  0  0  0  0  0  0  0
   -0.2560   -2.2030    0.5720 O   0  0  0  0  0  0  0  0  0  0  0  0
   -1.3270   -1.9620    1.4150 C   0  0  0  0  0  0  0  0  0  0  0  0
   -2.1650   -0.8360    0.9160 C   0  0  0  0  0  0  0  0  0  0  0  0
   -2.1040   -0.3870   -0.3870 C   0  0  0  0  0  0  0  0  0  0  0  0
   -2.8830    0.6670   -0.8510 C   0  0  0  0  0  0  0  0  0  0  0  0
   -3.7600    1.3110   -0.0030 C   0  0  0  0  0  0  0  0  0  0  0  0
   -4.5650    2.3700   -0.4100 O   0  0  0  0  0  0  0  0  0  0  0  0
   -5.8790    2.2110   -0.8120 C   0  0  0  0  0  0  0  0  0  0  0  0
   -6.3570    1.0490   -0.8040 O   0  0  0  0  0  0  0  0  0  0  0  0
   -6.7530    3.3280   -1.2510 C   0  0  0  0  0  0  0  0  0  0  0  0
   -6.6710    3.4580   -2.6220 F   0  0  0  0  0  0  0  0  0  0  0  0
   -3.8300    0.8730    1.3020 C   0  0  0  0  0  0  0  0  0  0  0  0
   -3.0500   -0.1830    1.7640 C   0  0  0  0  0  0  0  0  0  0  0  0
    1.7610   -1.5580   -0.5310 C   0  0  0  0  0  0  0  0  0  0  0  0
    1.9110   -2.8650   -1.1750 C   0  0  0  0  0  0  0  0  0  0  0  0
    2.0040   -4.0060   -0.5430 C   0  0  0  0  0  0  0  0  0  0  0  0
    1.9840   -4.1850    0.9290 C   0  0  1  0  0  0  0  0  0  0  0  0
    2.9710   -5.1530    1.2040 F   0  0  0  0  0  0  0  0  0  0  0  0
    2.3910   -2.9950    1.5440 F   0  0  0  0  0  0  0  0  0  0  0  0
    2.1030   -5.2950   -1.3410 C   0  0  2  0  0  0  0  0  0  0  0  0
    3.2550   -5.9750   -0.9990 F   0  0  0  0  0  0  0  0  0  0  0  0
    2.1240   -5.0340   -2.6870 F   0  0  0  0  0  0  0  0  0  0  0  0
    1.0270   -6.1100   -1.0840 F   0  0  0  0  0  0  0  0  0  0  0  0
    2.7010   -0.5650   -0.7350 C   0  0  0  0  0  0  0  0  0  0  0  0
  1  2  2  0
  2  3  1  0
  3  4  1  0
  4  5  1  0
  5  6  2  0
  5 32  1  0
  6  7  1  0
  7  8  2  0
  8  9  1  0
  8 22  1  0
  9 10  1  0
 10 11  1  0
 11 12  2  0
 11 21  1  0
 12 13  1  0
 13 14  2  0
 14 15  1  0
 14 20  1  0
 15 16  1  0
 16 17  2  0
 16 18  1  0
 18 19  1  0
 20 21  2  0
 22 23  1  0
 22 32  2  0
 23 24  2  3
 24 25  1  0
 24 28  1  0
 25 26  1  6
 25 27  1  0
 28 29  1  1
 28 30  1  0
 28 31  1  0
M  END
