
     RDKit          3D

 33 34  0  0  0  0  0  0  0  0999 V2000
    2.3160    1.9100   -4.3700 C   0  0  0  0  0  0  0  0  0  0  0  0
    2.8520    1.4740   -3.0540 C   0  0  0  0  0  0  0  0  0  0  0  0
    4.1650    1.7090   -2.7140 C   0  0  0  0  0  0  0  0  0  0  0  0
    4.6900    1.3140   -1.4970 C   0  0  0  0  0  0  0  0  0  0  0  0
    6.1220    1.5760   -1.1350 C   0  0  0  0  0  0  0  0  0  0  0  0
    3.8420    0.6700   -0.6290 C   0  0  0  0  0  0  0  0  0  0  0  0
    4.3520    0.2800    0.5670 F   0  0  0  0  0  0  0  0  0  0  0  0
    2.5160    0.4060   -0.9130 C   0  0  0  0  0  0  0  0  0  0  0  0
    1.7370   -0.2510    0.0300 O   0  0  0  0  0  0  0  0  0  0  0  0
    0.3410   -0.5320   -0.2600 C   0  0  0  0  0  0  0  0  0  0  0  0
   -0.2560   -1.2180    0.8530 C   0  0  0  0  0  0  0  0  0  0  0  0
   -1.2270   -1.0130    1.6800 C   0  0  0  0  0  0  0  0  0  0  0  0
   -2.2200   -0.0420    1.9650 C   0  0  0  0  0  0  0  0  0  0  0  0
   -3.0710   -0.2740    2.9510 C   0  0  0  0  0  0  0  0  0  0  0  0
   -3.0280   -1.5000    3.7630 C   0  0  1  0  0  0  0  0  0  0  0  0
   -1.8670   -1.6470    4.4900 F   0  0  0  0  0  0  0  0  0  0  0  0
   -4.0940   -1.5040    4.6890 F   0  0  0  0  0  0  0  0  0  0  0  0
   -3.2880   -2.5780    2.9570 F   0  0  0  0  0  0  0  0  0  0  0  0
   -2.3670    1.2380    1.3020 C   0  0  0  0  0  0  0  0  0  0  0  0
   -1.5990    1.6200    0.3930 O   0  0  0  0  0  0  0  0  0  0  0  0
   -3.4070    2.1970    1.6190 N   0  0  0  0  0  0  0  0  0  0  0  0
   -3.4800    3.4750    0.8950 C   0  0  2  0  0  0  0  0  0  0  0  0
   -3.6850    4.6690    1.8380 C   0  0  0  0  0  0  0  0  0  0  0  0
   -4.7350    4.2290    0.8480 C   0  0  0  0  0  0  0  0  0  0  0  0
    0.4350   -2.4910    1.1070 O   0  0  0  0  0  0  0  0  0  0  0  0
    0.0620   -3.6000    0.3410 C   0  0  0  0  0  0  0  0  0  0  0  0
    1.0150   -4.3580   -0.0980 C   0  0  0  0  0  0  0  0  0  0  0  0
    0.9410   -5.5840   -0.9190 C   0  0  0  0  0  0  0  0  0  0  0  0
    1.8350   -5.2330   -2.4250 Cl  0  0  0  0  0  0  0  0  0  0  0  0
   -1.3650   -3.7850    0.1190 C   0  0  1  0  0  0  0  0  0  0  0  0
   -1.8410   -2.5780   -0.4510 F   0  0  0  0  0  0  0  0  0  0  0  0
   -1.7480   -4.7510   -0.7580 F   0  0  0  0  0  0  0  0  0  0  0  0
    2.0370    0.8190   -2.1400 C   0  0  0  0  0  0  0  0  0  0  0  0
  1  2  1  0
  2  3  2  0
  2 33  1  0
  3  4  1  0
  4  5  1  0
  4  6  2  0
  6  7  1  0
  6  8  1  0
  8  9  1  0
  8 33  2  0
  9 10  1  0
 10 11  1  0
 11 12  2  3
 11 25  1  0
 12 13  1  0
 13 14  2  3
 13 19  1  0
 14 15  1  0
 15 16  1  1
 15 17  1  0
 15 18  1  0
 19 20  2  0
 19 21  1  0
 22 21  1  1
 22 23  1  0
 22 24  1  0
 23 24  1  0
 25 26  1  0
 26 27  2  3
 26 30  1  0
 27 28  1  0
 28 29  1  0
 30 31  1  6
 30 32  1  0
M  END
