
     RDKit          3D

 28 29  0  0  0  0  0  0  0  0999 V2000
   -3.6180    0.8070    0.3960 C   0  0  0  0  0  0  0  0  0  0  0  0
   -2.7760   -0.1940    0.5560 C   0  0  0  0  0  0  0  0  0  0  0  0
   -3.3430   -1.5120    0.2500 C   0  0  0  0  0  0  0  0  0  0  0  0
   -2.5090   -2.6680    0.5540 C   0  0  0  0  0  0  0  0  0  0  0  0
   -2.8090   -3.5390    1.4850 C   0  0  0  0  0  0  0  0  0  0  0  0
   -4.0660   -3.3540    2.2860 C   0  0  1  0  0  0  0  0  0  0  0  0
   -5.1470   -3.6820    1.5160 F   0  0  0  0  0  0  0  0  0  0  0  0
   -4.0640   -4.1940    3.4020 F   0  0  0  0  0  0  0  0  0  0  0  0
   -0.9610   -3.0530   -0.3020 S   0  0  0  0  0  0  0  0  0  0  0  0
    0.0020   -1.5240   -0.1900 C   0  0  0  0  0  0  0  0  0  0  0  0
    0.9200   -1.4930   -1.0740 N   0  0  0  0  0  0  0  0  0  0  0  0
    1.7690   -0.3220   -1.0970 C   0  0  0  0  0  0  0  0  0  0  0  0
    2.6360   -0.2170   -0.2090 O   0  0  0  0  0  0  0  0  0  0  0  0
    1.5840    0.6840   -2.1470 C   0  0  0  0  0  0  0  0  0  0  0  0
    2.3910    1.7860   -2.1170 O   0  0  0  0  0  0  0  0  0  0  0  0
    3.7400    1.6020   -2.1840 C   0  0  1  0  0  0  0  0  0  0  0  0
    4.1200    1.9990   -3.6540 C   0  0  0  0  0  0  0  0  0  0  0  0
    4.4710    2.5060   -1.2520 C   0  0  1  0  0  0  0  0  0  0  0  0
    4.1920    3.8230   -1.5980 F   0  0  0  0  0  0  0  0  0  0  0  0
    4.0360    2.3240    0.0350 F   0  0  0  0  0  0  0  0  0  0  0  0
    5.8210    2.2380   -1.3690 F   0  0  0  0  0  0  0  0  0  0  0  0
   -0.0980   -0.3960    0.6950 C   0  0  2  0  0  0  0  0  0  0  0  0
    0.6150   -0.5640    1.9880 C   0  0  0  0  0  0  0  0  0  0  0  0
    1.2130   -1.6320    2.2120 O   0  0  0  0  0  0  0  0  0  0  0  0
    0.5560    0.5040    2.8570 O   0  0  0  0  0  0  0  0  0  0  0  0
   -0.2540    1.6550    2.5640 C   0  0  0  0  0  0  0  0  0  0  0  0
   -1.4790    1.0950    1.9000 C   0  0  0  0  0  0  0  0  0  0  0  0
   -1.4280    0.1160    1.0060 C   0  0  0  0  0  0  0  0  0  0  0  0
  1  2  2  0
  2  3  1  0
  2 28  1  0
  3  4  1  0
  4  5  2  3
  4  9  1  0
  5  6  1  0
  6  7  1  6
  6  8  1  0
  9 10  1  0
 10 11  2  3
 22 10  1  1
 11 12  1  0
 12 13  2  0
 12 14  1  0
 14 15  1  0
 15 16  1  0
 16 17  1  6
 16 18  1  0
 18 19  1  6
 18 20  1  0
 18 21  1  0
 22 23  1  0
 22 28  1  0
 23 24  2  0
 23 25  1  0
 25 26  1  0
 26 27  1  0
 27 28  2  0
M  END
