
     RDKit          3D

 28 29  0  0  0  0  0  0  0  0999 V2000
   -1.5550   -3.3190    1.5870 C   0  0  0  0  0  0  0  0  0  0  0  0
   -0.4480   -2.6730    0.8150 C   0  0  0  0  0  0  0  0  0  0  0  0
   -0.6070   -1.4450    0.2630 C   0  0  0  0  0  0  0  0  0  0  0  0
    0.5430   -0.9410   -0.4500 C   0  0  0  0  0  0  0  0  0  0  0  0
    0.5840    0.1610   -1.0560 O   0  0  0  0  0  0  0  0  0  0  0  0
    1.7790   -1.6150   -0.5630 O   0  0  0  0  0  0  0  0  0  0  0  0
    2.8920   -1.1520   -1.2190 C   0  0  0  0  0  0  0  0  0  0  0  0
    3.5770    0.0400   -0.6340 C   0  0  0  0  0  0  0  0  0  0  0  0
    3.1710    0.6220    0.4520 C   0  0  0  0  0  0  0  0  0  0  0  0
    3.6850    1.7860    1.1820 C   0  0  1  0  0  0  0  0  0  0  0  0
    4.0620    1.3910    2.4570 F   0  0  0  0  0  0  0  0  0  0  0  0
    5.1340    2.4670    0.3890 S   0  0  0  0  0  0  0  0  0  0  0  0
    5.4920    1.5080   -1.0640 C   0  0  0  0  0  0  0  0  0  0  0  0
    4.7540    0.4840   -1.4080 C   0  0  0  0  0  0  0  0  0  0  0  0
    5.1470   -0.1650   -2.5540 F   0  0  0  0  0  0  0  0  0  0  0  0
   -1.9010   -0.8250    0.3920 C   0  0  0  0  0  0  0  0  0  0  0  0
   -2.8440   -1.5850    0.9800 O   0  0  0  0  0  0  0  0  0  0  0  0
   -2.4640    0.3920    0.0630 N   0  0  0  0  0  0  0  0  0  0  0  0
   -3.9400    0.4960    0.2800 C   0  0  0  0  0  0  0  0  0  0  0  0
   -4.3530    1.7890    0.8750 C   0  0  0  0  0  0  0  0  0  0  0  0
   -3.9450    2.7860   -0.0520 O   0  0  0  0  0  0  0  0  0  0  0  0
   -2.5860    2.8560    0.0910 C   0  0  0  0  0  0  0  0  0  0  0  0
   -1.8590    1.5750   -0.3980 C   0  0  2  0  0  0  0  0  0  0  0  0
   -1.9490    1.7040   -1.9230 C   0  0  0  0  0  0  0  0  0  0  0  0
    0.7960   -3.4690    0.7000 C   0  0  2  0  0  0  0  0  0  0  0  0
    0.5500   -4.7320    1.3370 F   0  0  0  0  0  0  0  0  0  0  0  0
    1.8670   -2.9820    1.3800 F   0  0  0  0  0  0  0  0  0  0  0  0
    1.0950   -3.8620   -0.5890 F   0  0  0  0  0  0  0  0  0  0  0  0
  1  2  1  0
  2  3  2  3
  2 25  1  0
  3  4  1  0
  3 16  1  0
  4  5  2  0
  4  6  1  0
  6  7  1  0
  7  8  1  0
  8  9  2  0
  8 14  1  0
  9 10  1  0
 10 11  1  1
 10 12  1  0
 12 13  1  0
 13 14  2  0
 14 15  1  0
 16 17  2  0
 16 18  1  0
 18 19  1  0
 18 23  1  0
 19 20  1  0
 20 21  1  0
 21 22  1  0
 22 23  1  0
 23 24  1  6
 25 26  1  1
 25 27  1  0
 25 28  1  0
M  END
