
     RDKit          3D

 28 29  0  0  0  0  0  0  0  0999 V2000
   -0.5150   -2.1420    2.5640 C   0  0  0  0  0  0  0  0  0  0  0  0
   -0.9470   -1.9500    1.2270 O   0  0  0  0  0  0  0  0  0  0  0  0
   -1.6970   -0.7910    0.9790 C   0  0  0  0  0  0  0  0  0  0  0  0
   -1.3940    0.3670    0.4510 C   0  0  0  0  0  0  0  0  0  0  0  0
   -0.0280    0.6850   -0.0570 C   0  0  0  0  0  0  0  0  0  0  0  0
    0.1420    1.9400   -0.3080 O   0  0  0  0  0  0  0  0  0  0  0  0
    1.0550   -0.2620   -0.2590 C   0  0  0  0  0  0  0  0  0  0  0  0
    2.3960    0.3500   -0.3140 C   0  0  0  0  0  0  0  0  0  0  0  0
    3.3490   -0.0820   -1.3930 C   0  0  0  0  0  0  0  0  0  0  0  0
    2.8010    1.3400    0.4310 C   0  0  0  0  0  0  0  0  0  0  0  0
    4.0700    1.8150    0.2550 F   0  0  0  0  0  0  0  0  0  0  0  0
    2.0820    1.8800    1.5420 C   0  0  0  0  0  0  0  0  0  0  0  0
    2.5640    2.9310    2.2510 C   0  0  0  0  0  0  0  0  0  0  0  0
    1.9250    3.4670    3.2960 F   0  0  0  0  0  0  0  0  0  0  0  0
    0.8300   -1.3470   -0.9710 C   0  0  0  0  0  0  0  0  0  0  0  0
   -0.5110   -1.6320   -1.6350 C   0  0  0  0  0  0  0  0  0  0  0  0
    1.7310   -2.5270   -1.1090 C   0  0  1  0  0  0  0  0  0  0  0  0
    0.9050   -3.5860   -0.5500 F   0  0  0  0  0  0  0  0  0  0  0  0
    1.8340   -2.8970   -2.4060 F   0  0  0  0  0  0  0  0  0  0  0  0
    2.8420   -2.5210   -0.3490 F   0  0  0  0  0  0  0  0  0  0  0  0
   -2.4900    1.3670    0.3990 C   0  0  1  0  0  0  0  0  0  0  0  0
   -2.4460    2.1220   -0.8750 C   0  0  0  0  0  0  0  0  0  0  0  0
   -1.9780    3.2570   -1.0410 O   0  0  0  0  0  0  0  0  0  0  0  0
   -3.0460    1.2790   -1.8440 N   0  0  0  0  0  0  0  0  0  0  0  0
   -3.7860    0.2450   -1.1510 C   0  0  0  0  0  0  0  0  0  0  0  0
   -4.2640   -0.7620   -1.7320 O   0  0  0  0  0  0  0  0  0  0  0  0
   -3.8160    0.6570    0.2480 C   0  0  1  0  0  0  0  0  0  0  0  0
   -3.4640   -0.7130    1.4180 S   0  0  0  0  0  0  0  0  0  0  0  0
  1  2  1  0
  2  3  1  0
  3  4  2  0
  3 28  1  0
  4  5  1  0
 21  4  1  6
  5  6  2  0
  5  7  1  0
  7  8  1  0
  7 15  2  3
  8  9  1  0
  8 10  2  3
 10 11  1  0
 10 12  1  0
 12 13  2  3
 13 14  1  0
 15 16  1  0
 15 17  1  0
 17 18  1  1
 17 19  1  0
 17 20  1  0
 21 22  1  0
 21 27  1  0
 22 23  2  0
 22 24  1  0
 24 25  1  0
 25 26  2  0
 25 27  1  0
 27 28  1  1
M  END
