
     RDKit          3D

 28 30  0  0  0  0  0  0  0  0999 V2000
    5.6900    2.2790   -1.9330 N   0  0  0  0  0  0  0  0  0  0  0  0
    5.1430    1.4970   -1.2650 C   0  0  0  0  0  0  0  0  0  0  0  0
    4.4480    0.5190   -0.4550 C   0  0  0  0  0  0  0  0  0  0  0  0
    4.9860   -0.7390   -0.4140 C   0  0  0  0  0  0  0  0  0  0  0  0
    4.3330   -1.6740    0.3540 C   0  0  0  0  0  0  0  0  0  0  0  0
    4.8320   -2.9320    0.4220 F   0  0  0  0  0  0  0  0  0  0  0  0
    3.1690   -1.3600    1.0640 C   0  0  0  0  0  0  0  0  0  0  0  0
    2.6300   -0.1010    1.0220 C   0  0  0  0  0  0  0  0  0  0  0  0
    1.4930    0.2780    1.6870 O   0  0  0  0  0  0  0  0  0  0  0  0
    0.2820    0.4610    1.0840 C   0  0  0  0  0  0  0  0  0  0  0  0
   -0.3110    1.7290    1.1230 C   0  0  0  0  0  0  0  0  0  0  0  0
   -1.5130    1.9700    0.5390 C   0  0  0  0  0  0  0  0  0  0  0  0
   -2.1750    0.9530   -0.1110 C   0  0  0  0  0  0  0  0  0  0  0  0
   -3.7260    1.2310   -0.8730 S   0  0  2  0  0  0  0  0  0  0  0  0
   -4.8060    0.4330   -0.1880 O   0  0  0  0  0  0  0  0  0  0  0  0
   -3.7280    0.9250   -2.3230 O   0  0  0  0  0  0  0  0  0  0  0  0
   -4.1720    2.9510   -0.6360 C   0  0  1  0  0  0  0  0  0  0  0  0
   -3.2640    3.7920   -1.2350 F   0  0  0  0  0  0  0  0  0  0  0  0
   -5.4130    3.1250   -1.2030 F   0  0  0  0  0  0  0  0  0  0  0  0
   -1.6090   -0.3030   -0.1620 C   0  0  0  0  0  0  0  0  0  0  0  0
   -0.3700   -0.5600    0.4400 C   0  0  0  0  0  0  0  0  0  0  0  0
   -0.0310   -2.0070    0.2410 C   0  0  0  0  0  0  0  0  0  0  0  0
   -1.4500   -2.5930    0.1390 C   0  0  1  0  0  0  0  0  0  0  0  0
   -1.4380   -3.8620   -0.3600 F   0  0  0  0  0  0  0  0  0  0  0  0
   -2.0290   -2.4920    1.3780 F   0  0  0  0  0  0  0  0  0  0  0  0
   -2.0630   -1.5800   -0.7940 C   0  0  1  0  0  0  0  0  0  0  0  0
   -3.4260   -1.6860   -0.9000 O   0  0  0  0  0  0  0  0  0  0  0  0
    3.3130    0.8300    0.2360 C   0  0  0  0  0  0  0  0  0  0  0  0
  1  2  3  0
  2  3  1  0
  3  4  2  0
  3 28  1  0
  4  5  1  0
  5  6  1  0
  5  7  2  0
  7  8  1  0
  8  9  1  0
  8 28  2  0
  9 10  1  0
 10 11  2  0
 10 21  1  0
 11 12  1  0
 12 13  2  0
 14 13  1  1
 13 20  1  0
 14 15  2  0
 14 16  2  0
 14 17  1  0
 17 18  1  6
 17 19  1  0
 20 21  2  0
 20 26  1  0
 21 22  1  0
 22 23  1  0
 23 24  1  6
 23 25  1  0
 23 26  1  0
 26 27  1  1
M  END
