
     RDKit          3D

 28 29  0  0  0  0  0  0  0  0999 V2000
   -4.1400   -2.0990    0.5010 C   0  0  0  0  0  0  0  0  0  0  0  0
   -4.0040   -0.7150    1.1300 C   0  0  2  0  0  0  0  0  0  0  0  0
   -5.1000    0.0230    0.6740 O   0  0  0  0  0  0  0  0  0  0  0  0
   -4.7520    0.4090   -0.6400 C   0  0  0  0  0  0  0  0  0  0  0  0
   -3.3650    0.9340   -0.4360 C   0  0  0  0  0  0  0  0  0  0  0  0
   -2.7750   -0.0440    0.5500 C   0  0  2  0  0  0  0  0  0  0  0  0
   -1.9680   -0.9840   -0.0280 O   0  0  0  0  0  0  0  0  0  0  0  0
   -2.0110    0.7250    1.5850 C   0  0  0  0  0  0  0  0  0  0  0  0
   -0.5830    1.4650    0.7290 S   0  0  1  0  0  0  0  0  0  0  0  0
   -1.1340    2.3320   -0.3950 O   0  0  0  0  0  0  0  0  0  0  0  0
    0.0890    2.4040    1.7040 O   0  0  0  0  0  0  0  0  0  0  0  0
    0.3650    0.2490    0.0970 N   0  0  0  0  0  0  0  0  0  0  0  0
    1.6260    0.1080    0.1630 C   0  0  0  0  0  0  0  0  0  0  0  0
    2.1660   -1.1070   -0.5040 C   0  0  0  0  0  0  0  0  0  0  0  0
    1.3710   -2.0780   -0.9980 C   0  0  0  0  0  0  0  0  0  0  0  0
    2.1510   -3.1470   -1.6120 C   0  0  0  0  0  0  0  0  0  0  0  0
    3.5420   -2.6780   -1.5080 C   0  0  0  0  0  0  0  0  0  0  0  0
    3.4910   -1.5130   -0.8590 C   0  0  0  0  0  0  0  0  0  0  0  0
    2.5030    1.1650    0.5890 C   0  0  0  0  0  0  0  0  0  0  0  0
    3.8410    0.9830    1.0930 C   0  0  0  0  0  0  0  0  0  0  0  0
    4.2460   -0.1190    1.7020 C   0  0  0  0  0  0  0  0  0  0  0  0
    5.5440   -0.2170    2.1450 F   0  0  0  0  0  0  0  0  0  0  0  0
    3.3680   -1.1050    1.9740 F   0  0  0  0  0  0  0  0  0  0  0  0
    2.2360    2.4200    0.1190 C   0  0  0  0  0  0  0  0  0  0  0  0
    3.0760    3.5350    0.5150 C   0  0  2  0  0  0  0  0  0  0  0  0
    4.2320    3.6490   -0.2630 F   0  0  0  0  0  0  0  0  0  0  0  0
    3.4690    3.5410    1.8380 F   0  0  0  0  0  0  0  0  0  0  0  0
    2.3810    4.7320    0.3390 F   0  0  0  0  0  0  0  0  0  0  0  0
  2  1  1  6
  2  3  1  0
  2  6  1  0
  3  4  1  0
  4  5  1  0
  5  6  1  0
  6  7  1  6
  6  8  1  0
  9  8  1  1
  9 10  2  0
  9 11  2  0
  9 12  1  0
 12 13  2  3
 13 14  1  0
 13 19  1  0
 14 15  2  0
 14 18  1  0
 15 16  1  0
 16 17  1  0
 17 18  2  0
 19 20  1  0
 19 24  2  3
 20 21  2  3
 21 22  1  0
 21 23  1  0
 24 25  1  0
 25 26  1  6
 25 27  1  0
 25 28  1  0
M  END
