
     RDKit          3D

 28 30  0  0  0  0  0  0  0  0999 V2000
   -3.7490    1.1890   -1.8980 O   0  0  0  0  0  0  0  0  0  0  0  0
   -4.0960    0.1390   -1.3570 C   0  0  0  0  0  0  0  0  0  0  0  0
   -4.2170    0.1060    0.1320 C   0  0  1  0  0  0  0  0  0  0  0  0
   -5.6450   -0.2510    0.4880 C   0  0  2  0  0  0  0  0  0  0  0  0
   -5.7850   -0.2870    1.8740 F   0  0  0  0  0  0  0  0  0  0  0  0
   -5.9520   -1.4830   -0.0530 F   0  0  0  0  0  0  0  0  0  0  0  0
   -6.4610    0.7520    0.0040 F   0  0  0  0  0  0  0  0  0  0  0  0
   -3.2370   -0.8930    0.6820 C   0  0  0  0  0  0  0  0  0  0  0  0
   -1.8500   -0.4370    0.4100 C   0  0  0  0  0  0  0  0  0  0  0  0
   -0.9670   -1.3160    0.3360 O   0  0  0  0  0  0  0  0  0  0  0  0
   -1.4820    0.9650    0.2340 C   0  0  0  0  0  0  0  0  0  0  0  0
   -0.2930    1.4080   -0.0970 C   0  0  0  0  0  0  0  0  0  0  0  0
    0.9000    0.6090   -0.3640 C   0  0  0  0  0  0  0  0  0  0  0  0
    1.0190   -0.4100   -1.2740 C   0  0  0  0  0  0  0  0  0  0  0  0
    2.3200   -0.9030   -1.2020 C   0  0  0  0  0  0  0  0  0  0  0  0
    2.9380   -0.1460   -0.2350 C   0  0  0  0  0  0  0  0  0  0  0  0
    2.0790    0.7260    0.2310 O   0  0  0  0  0  0  0  0  0  0  0  0
    4.3190   -0.3250    0.1650 C   0  0  0  0  0  0  0  0  0  0  0  0
    4.9430    0.5440    0.9030 C   0  0  0  0  0  0  0  0  0  0  0  0
    4.3180    1.7980    1.4100 C   0  0  2  0  0  0  0  0  0  0  0  0
    5.3270    2.6670    1.7710 F   0  0  0  0  0  0  0  0  0  0  0  0
    3.6020    1.5280    2.5620 F   0  0  0  0  0  0  0  0  0  0  0  0
    5.1460   -1.7910   -0.3970 S   0  0  0  0  0  0  0  0  0  0  0  0
    4.3660   -2.0980   -2.0310 C   0  0  0  0  0  0  0  0  0  0  0  0
    2.9000   -1.9830   -1.9820 C   0  0  0  0  0  0  0  0  0  0  0  0
   -2.6030    1.9130    0.4170 C   0  0  0  0  0  0  0  0  0  0  0  0
   -2.4150    3.1430    0.2960 O   0  0  0  0  0  0  0  0  0  0  0  0
   -3.8860    1.3960    0.7300 N   0  0  0  0  0  0  0  0  0  0  0  0
  1  2  2  0
  3  2  1  6
  3  4  1  0
  3  8  1  0
  3 28  1  0
  4  5  1  1
  4  6  1  0
  4  7  1  0
  8  9  1  0
  9 10  2  0
  9 11  1  0
 11 12  2  3
 11 26  1  0
 12 13  1  0
 13 14  2  0
 13 17  1  0
 14 15  1  0
 15 16  2  0
 15 25  1  0
 16 17  1  0
 16 18  1  0
 18 19  2  3
 18 23  1  0
 19 20  1  0
 20 21  1  1
 20 22  1  0
 23 24  1  0
 24 25  1  0
 26 27  2  0
 26 28  1  0
M  END
