
     RDKit          3D

 28 30  0  0  0  0  0  0  0  0999 V2000
    3.7140   -0.8830    3.5510 O   0  0  0  0  0  0  0  0  0  0  0  0
    3.7600   -0.9010    2.2810 C   0  0  0  0  0  0  0  0  0  0  0  0
    2.5920   -1.4380    1.5540 C   0  0  0  0  0  0  0  0  0  0  0  0
    2.0870   -0.4900    0.4880 C   0  0  1  0  0  0  0  0  0  0  0  0
    0.7000   -0.1740    0.6460 N   0  0  0  0  0  0  0  0  0  0  0  0
   -0.2570   -0.4960   -0.3830 C   0  0  0  0  0  0  0  0  0  0  0  0
    0.1810   -1.0560   -1.4020 O   0  0  0  0  0  0  0  0  0  0  0  0
   -1.6650   -0.1590   -0.1880 C   0  0  0  0  0  0  0  0  0  0  0  0
   -2.2210    0.3970    0.8320 O   0  0  0  0  0  0  0  0  0  0  0  0
   -3.5360    0.5530    0.6600 C   0  0  0  0  0  0  0  0  0  0  0  0
   -4.2580    1.0960    1.5850 C   0  0  0  0  0  0  0  0  0  0  0  0
   -5.6840    1.3850    1.6670 C   0  0  1  0  0  0  0  0  0  0  0  0
   -6.1040    2.3620    0.7960 F   0  0  0  0  0  0  0  0  0  0  0  0
   -6.5020    0.2800    1.7400 F   0  0  0  0  0  0  0  0  0  0  0  0
   -3.8540    0.0380   -0.6120 C   0  0  0  0  0  0  0  0  0  0  0  0
   -2.6570   -0.4040   -1.1250 C   0  0  0  0  0  0  0  0  0  0  0  0
   -2.5120   -1.0250   -2.4540 C   0  0  0  0  0  0  0  0  0  0  0  0
   -3.8350   -0.4980   -3.5570 S   0  0  0  0  0  0  0  0  0  0  0  0
   -5.3260   -0.5760   -2.5520 C   0  0  0  0  0  0  0  0  0  0  0  0
   -5.0210   -0.0330   -1.2190 C   0  0  0  0  0  0  0  0  0  0  0  0
    2.9740    0.7390    0.5370 C   0  0  0  0  0  0  0  0  0  0  0  0
    4.1920    0.4610   -0.3060 C   0  0  0  0  0  0  0  0  0  0  0  0
    5.3360   -0.1150    0.4600 C   0  0  1  0  0  0  0  0  0  0  0  0
    6.4810    0.8610    0.4640 C   0  0  1  0  0  0  0  0  0  0  0  0
    6.8980    1.1280   -0.8310 F   0  0  0  0  0  0  0  0  0  0  0  0
    6.0600    2.0050    1.0910 F   0  0  0  0  0  0  0  0  0  0  0  0
    7.5730    0.3070    1.1310 F   0  0  0  0  0  0  0  0  0  0  0  0
    4.9620   -0.3870    1.7960 O   0  0  0  0  0  0  0  0  0  0  0  0
  1  2  2  0
  2  3  1  0
  2 28  1  0
  3  4  1  0
  4  5  1  1
  4 21  1  0
  5  6  1  0
  6  7  2  0
  6  8  1  0
  8  9  1  0
  8 16  2  0
  9 10  1  0
 10 11  2  3
 10 15  1  0
 11 12  1  0
 12 13  1  6
 12 14  1  0
 15 16  1  0
 15 20  2  0
 16 17  1  0
 17 18  1  0
 18 19  1  0
 19 20  1  0
 21 22  1  0
 23 22  1  6
 23 24  1  0
 23 28  1  0
 24 25  1  6
 24 26  1  0
 24 27  1  0
M  END
