
     RDKit          3D

 34 37  0  0  0  0  0  0  0  0999 V2000
   -2.7860    3.4580    0.8180 C   0  0  0  0  0  0  0  0  0  0  0  0
   -2.0450    2.1680    1.1170 C   0  0  0  0  0  0  0  0  0  0  0  0
   -0.5010    2.3310    0.8480 C   0  0  0  0  0  0  0  0  0  0  0  0
   -0.0340    3.1720    1.6750 C   0  0  0  0  0  0  0  0  0  0  0  0
    1.3070    3.6110    1.3610 C   0  0  0  0  0  0  0  0  0  0  0  0
    1.7240    2.9750    0.2610 C   0  0  0  0  0  0  0  0  0  0  0  0
    1.3330    2.1770   -0.5730 N   0  0  0  0  0  0  0  0  0  0  0  0
    0.0470    1.6980   -0.3200 C   0  0  0  0  0  0  0  0  0  0  0  0
   -0.5240    0.4990   -0.7800 C   0  0  0  0  0  0  0  0  0  0  0  0
    0.2660   -0.7160   -0.7190 C   0  0  0  0  0  0  0  0  0  0  0  0
    1.5000   -0.4140   -0.2510 C   0  0  0  0  0  0  0  0  0  0  0  0
    2.0980   -0.0230    0.8700 C   0  0  0  0  0  0  0  0  0  0  0  0
    3.3790    0.1930    0.6590 C   0  0  0  0  0  0  0  0  0  0  0  0
    4.2900    0.6410    1.6270 O   0  0  0  0  0  0  0  0  0  0  0  0
    3.8400    0.8960    2.9470 C   0  0  0  0  0  0  0  0  0  0  0  0
    3.7090   -0.0820   -0.6300 C   0  0  0  0  0  0  0  0  0  0  0  0
    4.9690   -0.0640   -1.4130 C   0  0  0  0  0  0  0  0  0  0  0  0
    4.5460    0.1510   -2.8770 C   0  0  0  0  0  0  0  0  0  0  0  0
    2.5240   -0.5030   -1.2180 O   0  0  0  0  0  0  0  0  0  0  0  0
   -0.4800   -1.9990   -0.8550 C   0  0  2  0  0  0  0  0  0  0  0  0
   -1.8760   -1.5350   -1.3600 C   0  0  0  0  0  0  0  0  0  0  0  0
   -2.2590   -1.6850   -2.6000 C   0  0  0  0  0  0  0  0  0  0  0  0
   -3.3880   -1.1890   -3.1660 C   0  0  0  0  0  0  0  0  0  0  0  0
   -4.2300   -0.4910   -2.3290 C   0  0  0  0  0  0  0  0  0  0  0  0
   -3.8890   -0.3550   -0.9840 C   0  0  0  0  0  0  0  0  0  0  0  0
   -4.7010    0.7830   -0.3320 C   0  0  0  0  0  0  0  0  0  0  0  0
   -2.7350   -0.8290   -0.5120 C   0  0  0  0  0  0  0  0  0  0  0  0
   -0.6840   -3.0380    0.2660 C   0  0  0  0  0  0  0  0  0  0  0  0
   -1.7650   -3.3580    0.9090 C   0  0  0  0  0  0  0  0  0  0  0  0
   -1.9400   -4.2630    1.8430 N   0  0  0  0  0  0  0  0  0  0  0  0
   -0.8390   -4.9570    2.2090 C   0  0  0  0  0  0  0  0  0  0  0  0
    0.3470   -4.7030    1.5920 N   0  0  0  0  0  0  0  0  0  0  0  0
    0.4340   -3.7530    0.6510 C   0  0  0  0  0  0  0  0  0  0  0  0
    1.5790   -3.5330    0.1330 O   0  0  0  0  0  0  0  0  0  0  0  0
  1  2  1  0
  2  3  1  0
  3  4  2  0
  3  8  1  0
  4  5  1  0
  5  6  2  0
  6  7  1  0
  7  8  2  0
  8  9  1  0
  9 10  2  3
 10 11  1  0
 20 10  1  1
 11 12  2  0
 11 19  1  0
 12 13  1  0
 13 14  1  0
 13 16  2  0
 14 15  1  0
 16 17  1  0
 16 19  1  0
 17 18  1  0
 20 21  1  0
 20 28  1  0
 21 22  2  0
 21 27  1  0
 22 23  1  0
 23 24  2  0
 24 25  1  0
 25 26  1  0
 25 27  2  0
 28 29  2  0
 28 33  1  0
 29 30  1  0
 30 31  2  0
 31 32  1  0
 32 33  1  0
 33 34  2  0
M  END
