
     RDKit          3D

 34 39  0  0  0  0  0  0  0  0999 V2000
   -7.9660    0.4130   -1.6760 C   0  0  0  0  0  0  0  0  0  0  0  0
   -7.8370    0.6010   -0.1630 C   0  0  1  0  0  0  0  0  0  0  0  0
   -8.9410   -0.1540    0.5300 C   0  0  0  0  0  0  0  0  0  0  0  0
   -8.7410   -1.5110    0.5550 O   0  0  0  0  0  0  0  0  0  0  0  0
   -7.4410   -1.9010    0.7510 C   0  0  0  0  0  0  0  0  0  0  0  0
   -6.6160   -0.7490    1.3320 C   0  0  0  0  0  0  0  0  0  0  0  0
   -6.5330    0.2590    0.3070 N   0  0  0  0  0  0  0  0  0  0  0  0
   -5.7550    1.4000    0.6630 C   0  0  0  0  0  0  0  0  0  0  0  0
   -4.3510    1.0380    0.9720 C   0  0  0  0  0  0  0  0  0  0  0  0
   -3.2650    0.9390    0.1300 C   0  0  0  0  0  0  0  0  0  0  0  0
   -2.1600    0.5720    0.8670 C   0  0  0  0  0  0  0  0  0  0  0  0
   -0.7880    0.3520    0.3630 C   0  0  0  0  0  0  0  0  0  0  0  0
    0.2390   -0.0120    1.1810 C   0  0  0  0  0  0  0  0  0  0  0  0
    1.5050   -0.2010    0.6310 C   0  0  0  0  0  0  0  0  0  0  0  0
    1.7660   -0.0340   -0.7130 C   0  0  0  0  0  0  0  0  0  0  0  0
    3.0490   -0.2210   -1.2950 N   0  0  0  0  0  0  0  0  0  0  0  0
    3.2710   -0.4650   -2.5760 N   0  0  0  0  0  0  0  0  0  0  0  0
    4.5740   -0.5940   -2.8280 C   0  0  0  0  0  0  0  0  0  0  0  0
    5.2320   -0.4240   -1.6410 C   0  0  0  0  0  0  0  0  0  0  0  0
    6.5530   -0.4330   -1.2120 C   0  0  0  0  0  0  0  0  0  0  0  0
    6.8170   -0.2120    0.1170 C   0  0  0  0  0  0  0  0  0  0  0  0
    8.1900   -0.2180    0.5780 C   0  0  0  0  0  0  0  0  0  0  0  0
    9.0810   -1.0540   -0.0780 C   0  0  0  0  0  0  0  0  0  0  0  0
   10.4120   -1.0760    0.3490 C   0  0  0  0  0  0  0  0  0  0  0  0
   10.7900   -0.2770    1.3950 C   0  0  0  0  0  0  0  0  0  0  0  0
    9.9170    0.5660    2.0650 C   0  0  0  0  0  0  0  0  0  0  0  0
    8.5960    0.5690    1.6190 C   0  0  0  0  0  0  0  0  0  0  0  0
    5.8080    0.0150    1.0190 C   0  0  0  0  0  0  0  0  0  0  0  0
    4.5270    0.0230    0.6000 N   0  0  0  0  0  0  0  0  0  0  0  0
    4.2400   -0.1910   -0.6950 C   0  0  0  0  0  0  0  0  0  0  0  0
    0.6970    0.3380   -1.5180 C   0  0  0  0  0  0  0  0  0  0  0  0
   -0.5580    0.5270   -0.9840 C   0  0  0  0  0  0  0  0  0  0  0  0
   -2.5870    0.4530    2.1360 N   0  0  0  0  0  0  0  0  0  0  0  0
   -3.8780    0.7300    2.1880 N   0  0  0  0  0  0  0  0  0  0  0  0
  2  1  1  6
  2  3  1  0
  2  7  1  0
  3  4  1  0
  4  5  1  0
  5  6  1  0
  6  7  1  0
  7  8  1  0
  8  9  1  0
  9 10  2  0
  9 34  1  0
 10 11  1  0
 11 12  1  0
 11 33  2  0
 12 13  2  0
 12 32  1  0
 13 14  1  0
 14 15  2  0
 15 16  1  0
 15 31  1  0
 16 17  1  0
 16 30  1  0
 17 18  2  0
 18 19  1  0
 19 20  2  0
 19 30  1  0
 20 21  1  0
 21 22  1  0
 21 28  2  0
 22 23  2  0
 22 27  1  0
 23 24  1  0
 24 25  2  0
 25 26  1  0
 26 27  2  0
 28 29  1  0
 29 30  2  0
 31 32  2  0
 33 34  1  0
M  END
