
     RDKit          3D

 34 37  0  0  0  0  0  0  0  0999 V2000
   -4.0730   -3.7940    2.5550 C   0  0  0  0  0  0  0  0  0  0  0  0
   -4.2450   -2.9570    1.5550 C   0  0  0  0  0  0  0  0  0  0  0  0
   -3.2650   -1.9470    1.2650 C   0  0  0  0  0  0  0  0  0  0  0  0
   -3.2740   -1.0490    0.3060 C   0  0  0  0  0  0  0  0  0  0  0  0
   -4.3100   -0.8440   -0.7420 C   0  0  0  0  0  0  0  0  0  0  0  0
   -4.8580   -1.7030   -1.5370 C   0  0  0  0  0  0  0  0  0  0  0  0
   -4.6590   -3.1360   -1.6920 C   0  0  0  0  0  0  0  0  0  0  0  0
   -4.4750    0.6390   -0.6380 C   0  0  0  0  0  0  0  0  0  0  0  0
   -3.1240    1.1320   -0.3170 C   0  0  2  0  0  0  0  0  0  0  0  0
   -2.5000    1.9950   -1.3670 C   0  0  1  0  0  0  0  0  0  0  0  0
   -2.3260    1.3260   -2.6840 C   0  0  0  0  0  0  0  0  0  0  0  0
   -3.5090    3.1390   -1.6030 C   0  0  0  0  0  0  0  0  0  0  0  0
   -2.3320    0.0050    0.0870 N   0  0  0  0  0  0  0  0  0  0  0  0
   -0.9230   -0.0800    0.2820 C   0  0  0  0  0  0  0  0  0  0  0  0
   -0.3130    1.0370    0.1510 O   0  0  0  0  0  0  0  0  0  0  0  0
   -0.1100   -1.2230    0.5840 C   0  0  0  0  0  0  0  0  0  0  0  0
    0.8960   -1.0330    1.6770 C   0  0  0  0  0  0  0  0  0  0  0  0
    1.8570    0.0100    1.5080 N   0  0  0  0  0  0  0  0  0  0  0  0
    1.7610    1.3210    2.0200 C   0  0  0  0  0  0  0  0  0  0  0  0
    0.8050    1.7680    2.7480 O   0  0  0  0  0  0  0  0  0  0  0  0
    2.9190    2.0940    1.5980 C   0  0  0  0  0  0  0  0  0  0  0  0
    3.2600    3.4040    1.8320 C   0  0  0  0  0  0  0  0  0  0  0  0
    4.4200    3.9060    1.2970 C   0  0  0  0  0  0  0  0  0  0  0  0
    4.7600    5.2270    1.5350 O   0  0  0  0  0  0  0  0  0  0  0  0
    5.2390    3.1040    0.5310 C   0  0  0  0  0  0  0  0  0  0  0  0
    4.9000    1.8020    0.3000 C   0  0  0  0  0  0  0  0  0  0  0  0
    3.7410    1.2790    0.8290 C   0  0  0  0  0  0  0  0  0  0  0  0
    3.1000   -0.0420    0.7560 C   0  0  0  0  0  0  0  0  0  0  0  0
    3.4670   -1.1200    0.1460 C   0  0  0  0  0  0  0  0  0  0  0  0
    4.6540   -1.3870   -0.6400 C   0  0  0  0  0  0  0  0  0  0  0  0
    5.9790   -1.3130   -0.3180 C   0  0  0  0  0  0  0  0  0  0  0  0
    6.7480   -1.6640   -1.3990 C   0  0  0  0  0  0  0  0  0  0  0  0
    5.8540   -1.9560   -2.3980 C   0  0  0  0  0  0  0  0  0  0  0  0
    4.6120   -1.7910   -1.9450 N   0  0  0  0  0  0  0  0  0  0  0  0
  1  2  2  0
  2  3  1  0
  3  4  2  3
  4  5  1  0
  4 13  1  0
  5  6  2  3
  5  8  1  0
  6  7  1  0
  9  8  1  6
  9 10  1  0
  9 13  1  0
 10 11  1  6
 10 12  1  0
 13 14  1  0
 14 15  2  0
 14 16  1  0
 16 17  1  0
 17 18  1  0
 18 19  1  0
 18 28  1  0
 19 20  2  0
 19 21  1  0
 21 22  2  0
 21 27  1  0
 22 23  1  0
 23 24  1  0
 23 25  2  0
 25 26  1  0
 26 27  2  0
 27 28  1  0
 28 29  2  3
 29 30  1  0
 30 31  2  0
 30 34  1  0
 31 32  1  0
 32 33  2  0
 33 34  1  0
M  END
