
     RDKit          3D

 34 38  0  0  0  0  0  0  0  0999 V2000
    5.1870    0.7320   -1.5660 C   0  0  0  0  0  0  0  0  0  0  0  0
    4.3690   -0.4320   -1.3990 N   0  0  0  0  0  0  0  0  0  0  0  0
    4.9280   -1.7330   -1.6310 C   0  0  0  0  0  0  0  0  0  0  0  0
    3.0260   -0.3100   -1.0130 C   0  0  0  0  0  0  0  0  0  0  0  0
    2.0750   -0.7880   -1.8480 N   0  0  0  0  0  0  0  0  0  0  0  0
    0.7760   -0.7000   -1.5340 C   0  0  0  0  0  0  0  0  0  0  0  0
   -0.1720   -1.2010   -2.4160 C   0  0  0  0  0  0  0  0  0  0  0  0
   -1.4880   -1.0930   -2.0660 C   0  0  0  0  0  0  0  0  0  0  0  0
   -1.8860   -0.5140   -0.8860 C   0  0  0  0  0  0  0  0  0  0  0  0
   -3.3240   -0.3950   -0.5250 C   0  0  2  0  0  0  0  0  0  0  0  0
   -4.0360   -0.5040   -1.7490 O   0  0  0  0  0  0  0  0  0  0  0  0
   -3.6340    0.9610   -0.0230 C   0  0  0  0  0  0  0  0  0  0  0  0
   -4.0390    1.1300    1.2940 C   0  0  0  0  0  0  0  0  0  0  0  0
   -4.3340    2.3840    1.7900 C   0  0  0  0  0  0  0  0  0  0  0  0
   -4.2220    3.4390    0.9720 N   0  0  0  0  0  0  0  0  0  0  0  0
   -3.8370    3.3530   -0.3110 C   0  0  0  0  0  0  0  0  0  0  0  0
   -3.5390    2.0830   -0.8080 C   0  0  0  0  0  0  0  0  0  0  0  0
   -3.8100   -1.4690    0.3520 C   0  0  0  0  0  0  0  0  0  0  0  0
   -3.0730   -1.9750    1.4290 C   0  0  0  0  0  0  0  0  0  0  0  0
   -3.8210   -2.9270    2.0100 N   0  0  0  0  0  0  0  0  0  0  0  0
   -4.9770   -3.0210    1.3350 C   0  0  0  0  0  0  0  0  0  0  0  0
   -4.9840   -2.1210    0.3020 N   0  0  0  0  0  0  0  0  0  0  0  0
   -6.0870   -1.9340   -0.6400 C   0  0  0  0  0  0  0  0  0  0  0  0
   -0.9290   -0.0210   -0.0190 C   0  0  0  0  0  0  0  0  0  0  0  0
    0.4000   -0.1190   -0.3510 C   0  0  0  0  0  0  0  0  0  0  0  0
    1.3810    0.3740    0.5090 C   0  0  0  0  0  0  0  0  0  0  0  0
    0.9420    1.1250    2.0320 Cl  0  0  0  0  0  0  0  0  0  0  0  0
    2.7160    0.2830    0.1840 C   0  0  0  0  0  0  0  0  0  0  0  0
    3.7940    0.7710    1.0180 C   0  0  0  0  0  0  0  0  0  0  0  0
    4.5410   -0.0610    1.8190 C   0  0  0  0  0  0  0  0  0  0  0  0
    5.5620    0.4270    2.6080 C   0  0  0  0  0  0  0  0  0  0  0  0
    5.8540    1.7770    2.6080 C   0  0  0  0  0  0  0  0  0  0  0  0
    5.1240    2.6460    1.8160 C   0  0  0  0  0  0  0  0  0  0  0  0
    4.1110    2.1330    1.0380 C   0  0  0  0  0  0  0  0  0  0  0  0
  1  2  1  0
  2  3  1  0
  2  4  1  0
  4  5  2  0
  4 28  1  0
  5  6  1  0
  6  7  2  0
  6 25  1  0
  7  8  1  0
  8  9  2  0
  9 10  1  0
  9 24  1  0
 10 11  1  6
 10 12  1  0
 10 18  1  0
 12 13  2  0
 12 17  1  0
 13 14  1  0
 14 15  2  0
 15 16  1  0
 16 17  2  0
 18 19  2  0
 18 22  1  0
 19 20  1  0
 20 21  2  0
 21 22  1  0
 22 23  1  0
 24 25  2  0
 25 26  1  0
 26 27  1  0
 26 28  2  0
 28 29  1  0
 29 30  2  0
 29 34  1  0
 30 31  1  0
 31 32  2  0
 32 33  1  0
 33 34  2  0
M  END
