
     RDKit          3D

 34 38  0  0  0  0  0  0  0  0999 V2000
    5.3810   -1.7220    1.9730 C   0  0  0  0  0  0  0  0  0  0  0  0
    6.2710   -0.5490    2.1430 C   0  0  0  0  0  0  0  0  0  0  0  0
    7.1890   -0.4860    3.1590 C   0  0  0  0  0  0  0  0  0  0  0  0
    8.0070    0.5520    3.3440 N   0  0  0  0  0  0  0  0  0  0  0  0
    7.9530    1.5990    2.5140 C   0  0  0  0  0  0  0  0  0  0  0  0
    7.0330    1.6040    1.4450 C   0  0  0  0  0  0  0  0  0  0  0  0
    6.2060    0.5470    1.2640 C   0  0  0  0  0  0  0  0  0  0  0  0
    5.2560    0.4540    0.2320 N   0  0  0  0  0  0  0  0  0  0  0  0
    5.0770    1.4640   -0.7210 C   0  0  0  0  0  0  0  0  0  0  0  0
    5.6860    2.5410   -0.8120 O   0  0  0  0  0  0  0  0  0  0  0  0
    4.0120    1.2190   -1.7740 C   0  0  1  0  0  0  0  0  0  0  0  0
    4.7660    1.3160   -3.0920 C   0  0  0  0  0  0  0  0  0  0  0  0
    3.3880    0.0020   -1.5960 O   0  0  0  0  0  0  0  0  0  0  0  0
    2.0410   -0.2590   -1.4400 C   0  0  0  0  0  0  0  0  0  0  0  0
    1.0760    0.7180   -1.4410 C   0  0  0  0  0  0  0  0  0  0  0  0
   -0.2700    0.3930   -1.2800 C   0  0  0  0  0  0  0  0  0  0  0  0
   -0.6910   -0.9050   -1.1130 C   0  0  0  0  0  0  0  0  0  0  0  0
   -2.1180   -1.1970   -0.9470 C   0  0  0  0  0  0  0  0  0  0  0  0
   -2.6820   -2.3690   -1.3830 C   0  0  0  0  0  0  0  0  0  0  0  0
   -4.0250   -2.6120   -1.2110 C   0  0  0  0  0  0  0  0  0  0  0  0
   -4.7820   -1.6660   -0.5980 C   0  0  0  0  0  0  0  0  0  0  0  0
   -4.2780   -0.4440   -0.1250 C   0  0  0  0  0  0  0  0  0  0  0  0
   -5.1310    0.4760    0.4960 N   0  0  0  0  0  0  0  0  0  0  0  0
   -4.8070    1.7430    1.0260 C   0  0  0  0  0  0  0  0  0  0  0  0
   -3.6240    2.1350    0.9540 O   0  0  0  0  0  0  0  0  0  0  0  0
   -5.8460    2.6160    1.6640 C   0  0  1  0  0  0  0  0  0  0  0  0
   -5.4740    3.5120    2.7950 C   0  0  0  0  0  0  0  0  0  0  0  0
   -5.6730    4.0820    1.4350 C   0  0  0  0  0  0  0  0  0  0  0  0
   -2.9410   -0.2610   -0.3240 C   0  0  0  0  0  0  0  0  0  0  0  0
   -6.1790   -2.1790   -0.5420 C   0  0  0  0  0  0  0  0  0  0  0  0
   -6.2240   -3.0980   -1.7440 C   0  0  0  0  0  0  0  0  0  0  0  0
   -4.8630   -3.7890   -1.5930 C   0  0  0  0  0  0  0  0  0  0  0  0
    0.2730   -1.8680   -1.1140 C   0  0  0  0  0  0  0  0  0  0  0  0
    1.6100   -1.5890   -1.2700 C   0  0  0  0  0  0  0  0  0  0  0  0
  1  2  1  0
  2  3  2  0
  2  7  1  0
  3  4  1  0
  4  5  2  0
  5  6  1  0
  6  7  2  0
  7  8  1  0
  8  9  1  0
  9 10  2  0
  9 11  1  0
 11 12  1  6
 11 13  1  0
 13 14  1  0
 14 15  2  0
 14 34  1  0
 15 16  1  0
 16 17  2  0
 17 18  1  0
 17 33  1  0
 18 19  2  0
 18 29  1  0
 19 20  1  0
 20 21  2  0
 20 32  1  0
 21 22  1  0
 21 30  1  0
 22 23  1  0
 22 29  2  0
 23 24  1  0
 24 25  2  0
 26 24  1  6
 26 27  1  0
 26 28  1  0
 27 28  1  0
 30 31  1  0
 31 32  1  0
 33 34  2  0
M  END
