
     RDKit          3D

 31 35  0  0  0  0  0  0  0  0999 V2000
   -4.4490    0.7840    1.7750 C   0  0  0  0  0  0  0  0  0  0  0  0
   -3.0080    0.8900    1.3220 C   0  0  1  0  0  0  0  0  0  0  0  0
   -2.5310    2.2730    1.6750 C   0  0  0  0  0  0  0  0  0  0  0  0
   -2.3190   -0.1150    1.9920 O   0  0  0  0  0  0  0  0  0  0  0  0
   -2.3900   -1.2490    1.1930 C   0  0  2  0  0  0  0  0  0  0  0  0
   -0.9980   -1.9170    1.2790 C   0  0  0  0  0  0  0  0  0  0  0  0
   -0.2330   -0.8210    0.6400 C   0  0  1  0  0  0  0  0  0  0  0  0
    1.2060   -0.9450    0.4000 C   0  0  2  0  0  0  0  0  0  0  0  0
    2.0080   -1.4480    1.5540 C   0  0  0  0  0  0  0  0  0  0  0  0
    3.4640   -1.1870    1.5310 C   0  0  0  0  0  0  0  0  0  0  0  0
    3.8650   -0.0140    0.7150 C   0  0  0  0  0  0  0  0  0  0  0  0
    4.9590    0.6220    1.0600 C   0  0  0  0  0  0  0  0  0  0  0  0
    5.4410    1.7770    0.3340 C   0  0  0  0  0  0  0  0  0  0  0  0
    6.4870    2.4050    0.6430 O   0  0  0  0  0  0  0  0  0  0  0  0
    4.6610    2.2150   -0.8070 C   0  0  0  0  0  0  0  0  0  0  0  0
    3.5580    1.5720   -1.1480 C   0  0  0  0  0  0  0  0  0  0  0  0
    3.0190    0.4200   -0.4630 C   0  0  1  0  0  0  0  0  0  0  0  0
    3.1770   -0.7670   -1.4370 C   0  0  0  0  0  0  0  0  0  0  0  0
    1.6600    0.5070    0.1180 C   0  0  2  0  0  0  0  0  0  0  0  0
    1.8260    1.0210    1.4300 F   0  0  0  0  0  0  0  0  0  0  0  0
    0.6080    1.3040   -0.5060 C   0  0  1  0  0  0  0  0  0  0  0  0
    0.9960    2.3870   -1.2780 O   0  0  0  0  0  0  0  0  0  0  0  0
   -0.4400    0.5640   -1.3110 C   0  0  0  0  0  0  0  0  0  0  0  0
   -0.9500   -0.6800   -0.6770 C   0  0  1  0  0  0  0  0  0  0  0  0
   -0.7360   -1.7990   -1.6350 C   0  0  0  0  0  0  0  0  0  0  0  0
   -2.3840   -0.6370   -0.2010 C   0  0  1  0  0  0  0  0  0  0  0  0
   -3.3040   -1.4310   -1.0300 C   0  0  0  0  0  0  0  0  0  0  0  0
   -3.1150   -2.6060   -1.2050 O   0  0  0  0  0  0  0  0  0  0  0  0
   -4.4710   -0.7840   -1.6570 C   0  0  0  0  0  0  0  0  0  0  0  0
   -4.5650    0.5750   -1.4330 O   0  0  0  0  0  0  0  0  0  0  0  0
   -2.8290    0.6720   -0.0310 O   0  0  0  0  0  0  0  0  0  0  0  0
  2  1  1  6
  2  3  1  0
  2  4  1  0
  2 31  1  0
  4  5  1  0
  5  6  1  6
  5 26  1  0
  7  6  1  6
  7  8  1  0
  7 24  1  0
  8  9  1  1
  8 19  1  0
  9 10  1  0
 10 11  1  0
 11 12  2  0
 11 17  1  0
 12 13  1  0
 13 14  2  0
 13 15  1  0
 15 16  2  0
 16 17  1  0
 17 18  1  6
 17 19  1  0
 19 20  1  1
 19 21  1  0
 21 22  1  6
 21 23  1  0
 23 24  1  0
 24 25  1  6
 24 26  1  0
 26 27  1  6
 26 31  1  0
 27 28  2  0
 27 29  1  0
 29 30  1  0
M  END
