
     RDKit          3D

 30 33  0  0  0  0  0  0  0  0999 V2000
    7.2420   -1.2820    1.0870 C   0  0  0  0  0  0  0  0  0  0  0  0
    6.3770   -1.3140   -0.1610 C   0  0  0  0  0  0  0  0  0  0  0  0
    6.0890    0.0300   -0.6670 C   0  0  0  0  0  0  0  0  0  0  0  0
    7.4970    0.9940   -1.1420 Cl  0  0  0  0  0  0  0  0  0  0  0  0
    4.9050    0.5910   -0.8050 C   0  0  0  0  0  0  0  0  0  0  0  0
    3.6630   -0.0980   -0.4490 C   0  0  0  0  0  0  0  0  0  0  0  0
    2.4530    0.4250   -0.5700 C   0  0  0  0  0  0  0  0  0  0  0  0
    2.2030    1.7900   -1.0870 C   0  0  0  0  0  0  0  0  0  0  0  0
    1.4870    1.6660   -2.4240 C   0  0  0  0  0  0  0  0  0  0  0  0
    1.3400   -0.4170   -0.1650 N   0  0  0  0  0  0  0  0  0  0  0  0
    1.4490   -1.6790    0.2280 N   0  0  0  0  0  0  0  0  0  0  0  0
    0.2270   -2.1610    0.5560 C   0  0  0  0  0  0  0  0  0  0  0  0
   -0.6610   -1.1260    0.3470 C   0  0  0  0  0  0  0  0  0  0  0  0
   -2.0170   -0.9660    0.4990 C   0  0  0  0  0  0  0  0  0  0  0  0
   -2.8430   -2.0250    0.9330 N   0  0  0  0  0  0  0  0  0  0  0  0
   -4.2460   -1.6790    1.2330 C   0  0  0  0  0  0  0  0  0  0  0  0
   -4.6260   -2.3750    2.5060 C   0  0  0  0  0  0  0  0  0  0  0  0
   -4.5400   -3.7630    2.3900 O   0  0  0  0  0  0  0  0  0  0  0  0
   -3.8380   -4.1560    1.2760 C   0  0  0  0  0  0  0  0  0  0  0  0
   -2.5130   -3.4040    1.1050 C   0  0  0  0  0  0  0  0  0  0  0  0
   -2.5840    0.2450    0.2010 N   0  0  0  0  0  0  0  0  0  0  0  0
   -1.8980    1.3020   -0.2350 C   0  0  0  0  0  0  0  0  0  0  0  0
   -2.5850    2.5790   -0.5330 C   0  0  0  0  0  0  0  0  0  0  0  0
   -1.9420    3.6300   -0.9480 C   0  0  0  0  0  0  0  0  0  0  0  0
   -2.6320    4.8970   -1.2430 C   0  0  0  0  0  0  0  0  0  0  0  0
   -4.0010    4.8280   -1.0300 O   0  0  0  0  0  0  0  0  0  0  0  0
   -4.7170    3.7440   -0.5950 C   0  0  0  0  0  0  0  0  0  0  0  0
   -4.0260    2.6340   -0.3490 C   0  0  0  0  0  0  0  0  0  0  0  0
   -0.5770    1.1480   -0.3860 N   0  0  0  0  0  0  0  0  0  0  0  0
    0.0610   -0.0190   -0.1130 C   0  0  0  0  0  0  0  0  0  0  0  0
  1  2  1  0
  2  3  1  0
  3  4  1  0
  3  5  2  3
  5  6  1  0
  6  7  2  3
  7  8  1  0
  7 10  1  0
  8  9  1  0
 10 11  1  0
 10 30  1  0
 11 12  2  0
 12 13  1  0
 13 14  2  0
 13 30  1  0
 14 15  1  0
 14 21  1  0
 15 16  1  0
 15 20  1  0
 16 17  1  0
 17 18  1  0
 18 19  1  0
 19 20  1  0
 21 22  2  0
 22 23  1  0
 22 29  1  0
 23 24  2  0
 23 28  1  0
 24 25  1  0
 25 26  1  0
 26 27  1  0
 27 28  2  0
 29 30  2  0
M  END
