
     RDKit          3D

 30 33  0  0  0  0  0  0  0  0999 V2000
   -5.2490    4.3240   -0.5980 C   0  0  0  0  0  0  0  0  0  0  0  0
   -4.8660    3.1120   -0.9530 C   0  0  0  0  0  0  0  0  0  0  0  0
   -3.4470    2.8670   -1.2830 C   0  0  0  0  0  0  0  0  0  0  0  0
   -2.8580    1.8410   -0.3590 C   0  0  0  0  0  0  0  0  0  0  0  0
   -1.4570    1.6230   -0.7360 C   0  0  0  0  0  0  0  0  0  0  0  0
   -0.7440    2.2710   -1.5170 O   0  0  0  0  0  0  0  0  0  0  0  0
   -0.7500    0.5880   -0.2240 N   0  0  0  0  0  0  0  0  0  0  0  0
    0.3980   -0.1010   -0.1010 C   0  0  0  0  0  0  0  0  0  0  0  0
    0.0900   -1.3730    0.0470 N   0  0  0  0  0  0  0  0  0  0  0  0
   -1.1480   -1.9970    0.0670 C   0  0  0  0  0  0  0  0  0  0  0  0
   -2.0070   -1.9560    1.1630 C   0  0  0  0  0  0  0  0  0  0  0  0
   -3.2510   -2.5660    1.1650 C   0  0  0  0  0  0  0  0  0  0  0  0
   -4.1320   -2.4940    2.3590 C   0  0  0  0  0  0  0  0  0  0  0  0
   -3.6180   -3.2320    0.0150 C   0  0  0  0  0  0  0  0  0  0  0  0
   -5.1950   -4.0080    0.0090 Cl  0  0  0  0  0  0  0  0  0  0  0  0
   -2.7740   -3.2770   -1.0750 C   0  0  0  0  0  0  0  0  0  0  0  0
   -1.5380   -2.6780   -1.0930 C   0  0  0  0  0  0  0  0  0  0  0  0
   -0.6690   -2.7570   -2.2900 C   0  0  0  0  0  0  0  0  0  0  0  0
    1.7950    0.2520    0.0900 C   0  0  0  0  0  0  0  0  0  0  0  0
    2.7030   -0.6640    0.2010 N   0  0  0  0  0  0  0  0  0  0  0  0
    3.9700   -0.0630    0.3860 C   0  0  0  0  0  0  0  0  0  0  0  0
    5.2180   -0.4180    0.4960 C   0  0  0  0  0  0  0  0  0  0  0  0
    6.2360   -1.4750    0.5160 C   0  0  0  0  0  0  0  0  0  0  0  0
    7.4160   -0.8680    0.3080 C   0  0  0  0  0  0  0  0  0  0  0  0
    7.1930    0.5620    0.1560 N   0  0  0  0  0  0  0  0  0  0  0  0
    5.9870    0.8250    0.9060 C   0  0  1  0  0  0  0  0  0  0  0  0
    5.1250    1.9350    0.5170 C   0  0  0  0  0  0  0  0  0  0  0  0
    3.8120    1.3480    0.3820 N   0  0  0  0  0  0  0  0  0  0  0  0
    2.4200    1.5550    0.1950 C   0  0  0  0  0  0  0  0  0  0  0  0
    1.8280    2.6610    0.1310 O   0  0  0  0  0  0  0  0  0  0  0  0
  1  2  2  0
  2  3  1  0
  3  4  1  0
  4  5  1  0
  5  6  2  0
  5  7  1  0
  7  8  1  0
  8  9  2  3
  8 19  1  0
  9 10  1  0
 10 11  2  0
 10 17  1  0
 11 12  1  0
 12 13  1  0
 12 14  2  0
 14 15  1  0
 14 16  1  0
 16 17  2  0
 17 18  1  0
 19 20  2  0
 19 29  1  0
 20 21  1  0
 21 22  2  0
 21 28  1  0
 22 23  1  0
 22 26  1  0
 23 24  2  0
 24 25  1  0
 25 26  1  0
 26 27  1  6
 27 28  1  0
 28 29  1  0
 29 30  2  0
M  END
