
     RDKit          3D

 29 32  0  0  0  0  0  0  0  0999 V2000
    5.4950   -2.8910    0.6600 C   0  0  0  0  0  0  0  0  0  0  0  0
    5.4480   -2.1820   -0.6800 C   0  0  0  0  0  0  0  0  0  0  0  0
    5.5980   -0.7570   -0.5290 N   0  0  0  0  0  0  0  0  0  0  0  0
    6.7540   -0.0720   -0.5380 C   0  0  0  0  0  0  0  0  0  0  0  0
    7.9060   -0.5370   -0.6780 O   0  0  0  0  0  0  0  0  0  0  0  0
    6.4810    1.2310   -0.3690 N   0  0  0  0  0  0  0  0  0  0  0  0
    7.4450    2.3010   -0.3200 C   0  0  0  0  0  0  0  0  0  0  0  0
    5.1470    1.3740   -0.2530 C   0  0  0  0  0  0  0  0  0  0  0  0
    4.3370    2.4740   -0.0660 C   0  0  0  0  0  0  0  0  0  0  0  0
    2.9980    2.2810    0.0120 C   0  0  0  0  0  0  0  0  0  0  0  0
    2.4130    1.0110   -0.0880 C   0  0  0  0  0  0  0  0  0  0  0  0
    1.0050    0.9790    0.0240 N   0  0  0  0  0  0  0  0  0  0  0  0
    0.1400   -0.1070   -0.2320 C   0  0  0  0  0  0  0  0  0  0  0  0
    0.6450   -1.1850   -0.6080 O   0  0  0  0  0  0  0  0  0  0  0  0
   -1.3230    0.0240   -0.0600 C   0  0  0  0  0  0  0  0  0  0  0  0
   -2.0870    1.0890    0.3360 C   0  0  0  0  0  0  0  0  0  0  0  0
   -3.3900    0.7540    0.3510 N   0  0  0  0  0  0  0  0  0  0  0  0
   -4.5250    1.4400    0.6640 C   0  0  0  0  0  0  0  0  0  0  0  0
   -5.7540    0.7970    0.5770 C   0  0  0  0  0  0  0  0  0  0  0  0
   -5.8670   -0.5160    0.1830 C   0  0  0  0  0  0  0  0  0  0  0  0
   -7.1800   -1.1890    0.0890 C   0  0  1  0  0  0  0  0  0  0  0  0
   -8.0150   -1.0690    1.3210 C   0  0  0  0  0  0  0  0  0  0  0  0
   -7.9500   -0.6950   -1.1220 C   0  0  0  0  0  0  0  0  0  0  0  0
   -8.2600    1.0310   -1.0740 Cl  0  0  0  0  0  0  0  0  0  0  0  0
   -4.6950   -1.1750   -0.1250 C   0  0  0  0  0  0  0  0  0  0  0  0
   -3.4550   -0.5280   -0.0380 C   0  0  0  0  0  0  0  0  0  0  0  0
   -2.1970   -0.9620   -0.2840 N   0  0  0  0  0  0  0  0  0  0  0  0
    3.2130   -0.0880   -0.2740 C   0  0  0  0  0  0  0  0  0  0  0  0
    4.5870    0.1200   -0.3530 C   0  0  0  0  0  0  0  0  0  0  0  0
  1  2  1  0
  2  3  1  0
  3  4  1  0
  3 29  1  0
  4  5  2  0
  4  6  1  0
  6  7  1  0
  6  8  1  0
  8  9  2  0
  8 29  1  0
  9 10  1  0
 10 11  2  0
 11 12  1  0
 11 28  1  0
 12 13  1  0
 13 14  2  0
 13 15  1  0
 15 16  2  0
 15 27  1  0
 16 17  1  0
 17 18  1  0
 17 26  1  0
 18 19  2  0
 19 20  1  0
 20 21  1  0
 20 25  2  0
 21 22  1  1
 21 23  1  0
 23 24  1  0
 25 26  1  0
 26 27  2  0
 28 29  2  0
M  END
