
     RDKit          3D

 30 33  0  0  0  0  0  0  0  0999 V2000
   -6.0290   -0.2240    2.3450 C   0  0  0  0  0  0  0  0  0  0  0  0
   -4.9220    0.0790    1.7130 C   0  0  0  0  0  0  0  0  0  0  0  0
   -4.8700    0.5980    0.3890 N   0  0  0  0  0  0  0  0  0  0  0  0
   -4.1160    0.0540   -0.6980 C   0  0  0  0  0  0  0  0  0  0  0  0
   -3.0390   -0.7190   -0.5540 C   0  0  0  0  0  0  0  0  0  0  0  0
   -2.3610   -1.2090   -1.7350 C   0  0  0  0  0  0  0  0  0  0  0  0
   -1.3120   -1.9610   -1.6730 C   0  0  0  0  0  0  0  0  0  0  0  0
   -0.6080   -2.4630   -0.4810 C   0  0  0  0  0  0  0  0  0  0  0  0
    0.8140   -1.9990   -0.4480 C   0  0  0  0  0  0  0  0  0  0  0  0
    1.2940   -1.2700   -1.3540 O   0  0  0  0  0  0  0  0  0  0  0  0
    1.6900   -2.3620    0.6100 N   0  0  0  0  0  0  0  0  0  0  0  0
    3.0140   -1.9130    0.6130 N   0  0  0  0  0  0  0  0  0  0  0  0
    4.1540   -2.8110    0.5620 C   0  0  0  0  0  0  0  0  0  0  0  0
    5.3270   -1.9630    0.1190 C   0  0  0  0  0  0  0  0  0  0  0  0
    4.8700   -0.6160    0.3800 N   0  0  0  0  0  0  0  0  0  0  0  0
    3.5440   -0.6060    0.6610 C   0  0  0  0  0  0  0  0  0  0  0  0
    2.9680    0.5610    0.9260 N   0  0  0  0  0  0  0  0  0  0  0  0
    3.6230    1.7370    0.9330 C   0  0  0  0  0  0  0  0  0  0  0  0
    3.0860    2.8360    1.1810 O   0  0  0  0  0  0  0  0  0  0  0  0
    4.9870    1.7460    0.6460 C   0  0  0  0  0  0  0  0  0  0  0  0
    5.6760    2.9460    0.6480 C   0  0  0  0  0  0  0  0  0  0  0  0
    7.0370    2.9350    0.3580 C   0  0  0  0  0  0  0  0  0  0  0  0
    7.9200    4.4520    0.3560 Cl  0  0  0  0  0  0  0  0  0  0  0  0
    7.6350    1.7300    0.0840 C   0  0  0  0  0  0  0  0  0  0  0  0
    6.9380    0.5430    0.0850 C   0  0  0  0  0  0  0  0  0  0  0  0
    5.5730    0.5340    0.3730 C   0  0  0  0  0  0  0  0  0  0  0  0
   -4.7350    0.4930   -1.9760 C   0  0  0  0  0  0  0  0  0  0  0  0
   -6.0060    1.2040   -1.5100 C   0  0  0  0  0  0  0  0  0  0  0  0
   -5.5420    1.7650   -0.1760 C   0  0  1  0  0  0  0  0  0  0  0  0
   -6.6540    2.2860    0.6670 C   0  0  0  0  0  0  0  0  0  0  0  0
  1  2  2  0
  2  3  1  0
  3  4  1  0
  3 29  1  0
  4  5  2  3
  4 27  1  0
  5  6  1  0
  6  7  2  3
  7  8  1  0
  8  9  1  0
  9 10  2  0
  9 11  1  0
 11 12  1  0
 12 13  1  0
 12 16  1  0
 13 14  1  0
 14 15  1  0
 15 16  1  0
 15 26  1  0
 16 17  2  0
 17 18  1  0
 18 19  2  0
 18 20  1  0
 20 21  2  0
 20 26  1  0
 21 22  1  0
 22 23  1  0
 22 24  2  0
 24 25  1  0
 25 26  2  0
 27 28  1  0
 28 29  1  0
 29 30  1  1
M  END
