
     RDKit          3D

 31 34  0  0  0  0  0  0  0  0999 V2000
   -3.5590   -0.0640    2.4670 C   0  0  0  0  0  0  0  0  0  0  0  0
   -3.1680    1.3830    2.4490 C   0  0  0  0  0  0  0  0  0  0  0  0
   -4.0870    2.2820    2.9610 C   0  0  0  0  0  0  0  0  0  0  0  0
   -3.7540    3.6060    3.0090 C   0  0  0  0  0  0  0  0  0  0  0  0
   -2.5420    4.0780    2.5680 C   0  0  0  0  0  0  0  0  0  0  0  0
   -1.6510    3.1620    2.0640 C   0  0  0  0  0  0  0  0  0  0  0  0
   -1.9490    1.7920    1.9950 C   0  0  0  0  0  0  0  0  0  0  0  0
   -0.9640    0.8980    1.4240 C   0  0  0  0  0  0  0  0  0  0  0  0
   -1.0910    0.0790    0.4130 C   0  0  0  0  0  0  0  0  0  0  0  0
   -2.3090   -0.0620   -0.3480 C   0  0  0  0  0  0  0  0  0  0  0  0
   -3.0990    1.0510   -0.6260 C   0  0  0  0  0  0  0  0  0  0  0  0
   -4.2450    0.9030   -1.3300 C   0  0  0  0  0  0  0  0  0  0  0  0
   -4.6830   -0.2910   -1.7920 C   0  0  0  0  0  0  0  0  0  0  0  0
   -3.9260   -1.4090   -1.5290 C   0  0  0  0  0  0  0  0  0  0  0  0
   -2.7330   -1.3150   -0.8040 C   0  0  0  0  0  0  0  0  0  0  0  0
   -2.0970   -2.5260   -0.3580 C   0  0  0  0  0  0  0  0  0  0  0  0
   -2.0820   -3.6850   -0.9230 C   0  0  0  0  0  0  0  0  0  0  0  0
   -2.6660   -4.1180   -2.1300 N   0  0  0  0  0  0  0  0  0  0  0  0
    0.1470   -0.5880   -0.0760 C   0  0  1  0  0  0  0  0  0  0  0  0
    0.4110   -0.2070   -1.5250 C   0  0  0  0  0  0  0  0  0  0  0  0
    1.5490    0.7500   -1.6920 C   0  0  0  0  0  0  0  0  0  0  0  0
    2.8540    0.1230   -1.1970 C   0  0  1  0  0  0  0  0  0  0  0  0
    3.7980    1.1450   -0.8020 N   0  0  0  0  0  0  0  0  0  0  0  0
    5.0540    0.8810   -1.4430 C   0  0  0  0  0  0  0  0  0  0  0  0
    5.8470   -0.0470   -0.5820 C   0  0  0  0  0  0  0  0  0  0  0  0
    6.7200    0.2710    0.4290 C   0  0  0  0  0  0  0  0  0  0  0  0
    7.2170   -0.8930    0.9400 C   0  0  0  0  0  0  0  0  0  0  0  0
    6.6570   -1.9110    0.2540 N   0  0  0  0  0  0  0  0  0  0  0  0
    5.8450   -1.4090   -0.6480 N   0  0  0  0  0  0  0  0  0  0  0  0
    2.5560   -0.7820   -0.0110 C   0  0  0  0  0  0  0  0  0  0  0  0
    1.3790   -0.1370    0.7330 C   0  0  0  0  0  0  0  0  0  0  0  0
  1  2  1  0
  2  3  2  0
  2  7  1  0
  3  4  1  0
  4  5  2  0
  5  6  1  0
  6  7  2  0
  7  8  1  0
  8  9  2  3
  9 10  1  0
 19  9  1  1
 10 11  2  0
 10 15  1  0
 11 12  1  0
 12 13  2  0
 13 14  1  0
 14 15  2  0
 15 16  1  0
 16 17  2  3
 17 18  1  0
 19 20  1  0
 19 31  1  0
 20 21  1  0
 21 22  1  0
 22 23  1  1
 22 30  1  0
 23 24  1  0
 24 25  1  0
 25 26  2  0
 25 29  1  0
 26 27  1  0
 27 28  2  0
 28 29  1  0
 30 31  1  0
M  CHG  2  18   1  23   1
M  END
