
     RDKit          3D

 30 33  0  0  0  0  0  0  0  0999 V2000
    1.0630   -3.5700   -3.8120 C   0  0  0  0  0  0  0  0  0  0  0  0
    0.6690   -3.5570   -2.3760 C   0  0  2  0  0  0  0  0  0  0  0  0
   -0.4950   -4.3280   -1.9080 C   0  0  0  0  0  0  0  0  0  0  0  0
    0.7600   -2.2550   -1.6760 C   0  0  0  0  0  0  0  0  0  0  0  0
    1.8390   -1.9350   -0.9450 N   0  0  0  0  0  0  0  0  0  0  0  0
    1.8060   -0.9070   -0.1070 N   0  0  0  0  0  0  0  0  0  0  0  0
    2.9170   -0.6100    0.7170 C   0  0  0  0  0  0  0  0  0  0  0  0
    3.6310    0.3260    0.5250 N   0  0  0  0  0  0  0  0  0  0  0  0
    4.7020    1.0800    0.8800 C   0  0  0  0  0  0  0  0  0  0  0  0
    5.8020    0.4530    1.4420 C   0  0  0  0  0  0  0  0  0  0  0  0
    6.9110    1.1650    1.8230 C   0  0  0  0  0  0  0  0  0  0  0  0
    6.9920    2.5280    1.6650 C   0  0  0  0  0  0  0  0  0  0  0  0
    5.8730    3.1500    1.0940 C   0  0  0  0  0  0  0  0  0  0  0  0
    5.9910    4.8710    0.8870 Cl  0  0  0  0  0  0  0  0  0  0  0  0
    4.7560    2.4520    0.7130 C   0  0  0  0  0  0  0  0  0  0  0  0
    0.6940   -0.1590    0.0290 C   0  0  0  0  0  0  0  0  0  0  0  0
    0.7200    0.8280    0.8490 O   0  0  0  0  0  0  0  0  0  0  0  0
   -0.4110   -0.4150   -0.6660 N   0  0  0  0  0  0  0  0  0  0  0  0
   -1.6430    0.1570   -0.5180 N   0  0  0  0  0  0  0  0  0  0  0  0
   -2.3280    0.8040    0.5260 C   0  0  1  0  0  0  0  0  0  0  0  0
   -1.9110    2.0320    1.1770 C   0  0  0  0  0  0  0  0  0  0  0  0
   -3.0610    2.7620    1.9050 C   0  0  0  0  0  0  0  0  0  0  0  0
   -4.0270    1.6920    2.4440 C   0  0  0  0  0  0  0  0  0  0  0  0
   -4.7170    1.2200    1.2280 C   0  0  0  0  0  0  0  0  0  0  0  0
   -5.9510    1.1010    0.8200 C   0  0  0  0  0  0  0  0  0  0  0  0
   -5.9460    0.5520   -0.5500 C   0  0  0  0  0  0  0  0  0  0  0  0
   -4.5100    0.3370   -0.8620 C   0  0  0  0  0  0  0  0  0  0  0  0
   -3.8270    0.7410    0.1840 C   0  0  0  0  0  0  0  0  0  0  0  0
   -0.3500   -1.4970   -1.5370 C   0  0  0  0  0  0  0  0  0  0  0  0
   -1.3890   -1.7510   -2.2100 O   0  0  0  0  0  0  0  0  0  0  0  0
  2  1  1  6
  2  3  1  0
  2  4  1  0
  4  5  2  0
  4 29  1  0
  5  6  1  0
  6  7  1  0
  6 16  1  0
  7  8  2  3
  8  9  1  0
  9 10  2  0
  9 15  1  0
 10 11  1  0
 11 12  2  0
 12 13  1  0
 13 14  1  0
 13 15  2  0
 16 17  2  0
 16 18  1  0
 18 19  1  0
 18 29  1  0
 20 19  1  6
 20 21  1  0
 20 28  1  0
 21 22  1  0
 22 23  1  0
 23 24  1  0
 24 25  2  0
 24 28  1  0
 25 26  1  0
 26 27  1  0
 27 28  2  0
 29 30  2  0
M  END
