
     RDKit          3D

 20 21  0  0  0  0  0  0  0  0999 V2000
    6.7520   -2.3580    1.0310 N   0  0  0  0  0  0  0  0  0  0  0  0
    5.3860   -2.2440    1.3140 C   0  0  0  0  0  0  0  0  0  0  0  0
    4.7280   -3.1740    1.8010 O   0  0  0  0  0  0  0  0  0  0  0  0
    4.6530   -1.0210    1.0430 N   0  0  0  0  0  0  0  0  0  0  0  0
    3.3380   -0.9640    1.3210 N   0  0  0  0  0  0  0  0  0  0  0  0
    2.4100   -0.1340    0.4090 C   0  0  0  0  0  0  0  0  0  0  0  0
    2.9650    0.5020   -0.4310 O   0  0  0  0  0  0  0  0  0  0  0  0
    1.1360   -0.3730    0.8400 N   0  0  0  0  0  0  0  0  0  0  0  0
    0.3550    0.7440   -0.2650 C   0  0  0  0  0  0  0  0  0  0  0  0
    1.1040    1.2680   -0.9620 O   0  0  0  0  0  0  0  0  0  0  0  0
   -1.0610    0.7030    0.0090 C   0  0  1  0  0  0  0  0  0  0  0  0
   -1.6640    1.6780   -0.8400 O   0  0  0  0  0  0  0  0  0  0  0  0
   -3.0530    1.6900   -0.9440 C   0  0  0  0  0  0  0  0  0  0  0  0
   -3.9320    2.6420   -1.2390 C   0  0  0  0  0  0  0  0  0  0  0  0
   -5.3140    2.1070   -1.2080 C   0  0  0  0  0  0  0  0  0  0  0  0
   -5.1070    0.6870   -0.8460 C   0  0  0  0  0  0  0  0  0  0  0  0
   -3.7920    0.4780   -0.7020 C   0  0  0  0  0  0  0  0  0  0  0  0
   -3.0700   -0.7270   -0.3540 N   0  0  0  0  0  0  0  0  0  0  0  0
   -1.6400   -0.6370   -0.2720 C   0  0  0  0  0  0  0  0  0  0  0  0
   -0.9380   -1.6380   -0.4290 O   0  0  0  0  0  0  0  0  0  0  0  0
  1  2  1  0
  2  3  2  0
  2  4  1  0
  4  5  1  0
  5  6  1  0
  6  7  2  0
  6  8  1  0
  8  9  1  0
  9 10  2  0
 11  9  1  6
 11 12  1  0
 11 19  1  0
 12 13  1  0
 13 14  2  0
 13 17  1  0
 14 15  1  0
 15 16  1  0
 16 17  2  0
 17 18  1  0
 18 19  1  0
 19 20  2  0
M  END
