
     RDKit          3D

 20 21  0  0  0  0  0  0  0  0999 V2000
    3.8590    0.2530   -0.1930 C   0  0  0  0  0  0  0  0  0  0  0  0
    2.4650    0.1780   -0.0690 O   0  0  0  0  0  0  0  0  0  0  0  0
    1.8120   -0.1480    1.1150 C   0  0  0  0  0  0  0  0  0  0  0  0
    2.5480   -0.3820    2.1110 O   0  0  0  0  0  0  0  0  0  0  0  0
    0.3190   -0.2120    1.1860 C   0  0  1  0  0  0  0  0  0  0  0  0
   -0.3000    1.1030    0.9930 C   0  0  0  0  0  0  0  0  0  0  0  0
    0.1220    2.1920    1.8400 N   0  0  0  0  0  0  0  0  0  0  0  0
   -1.2310    1.3700    0.0860 C   0  0  0  0  0  0  0  0  0  0  0  0
   -1.7690    2.7330   -0.0040 C   0  0  0  0  0  0  0  0  0  0  0  0
   -2.7560    3.0120   -0.9670 N   0  0  0  0  0  0  0  0  0  0  0  0
   -1.3560    3.6310    0.7650 O   0  0  0  0  0  0  0  0  0  0  0  0
   -1.7030    0.3570   -0.7880 N   0  0  0  0  0  0  0  0  0  0  0  0
   -1.1840   -0.9680   -0.7050 C   0  0  0  0  0  0  0  0  0  0  0  0
   -1.6190   -1.9480   -1.5280 N   0  0  0  0  0  0  0  0  0  0  0  0
   -1.1360   -3.1950   -1.4560 C   0  0  0  0  0  0  0  0  0  0  0  0
   -1.5830   -4.0880   -2.2590 O   0  0  0  0  0  0  0  0  0  0  0  0
   -0.2010   -3.4830   -0.5520 N   0  0  0  0  0  0  0  0  0  0  0  0
    0.2550   -2.5390    0.2800 C   0  0  0  0  0  0  0  0  0  0  0  0
    1.1400   -2.7830    1.1460 O   0  0  0  0  0  0  0  0  0  0  0  0
   -0.2180   -1.2240    0.2440 C   0  0  0  0  0  0  0  0  0  0  0  0
  1  2  1  0
  2  3  1  0
  3  4  2  0
  5  3  1  6
  5  6  1  0
  5 20  1  0
  6  7  1  0
  6  8  2  0
  8  9  1  0
  8 12  1  0
  9 10  1  0
  9 11  2  0
 12 13  1  0
 13 14  1  0
 13 20  2  0
 14 15  1  0
 15 16  2  0
 15 17  1  0
 17 18  1  0
 18 19  2  0
 18 20  1  0
M  END
