
     RDKit          3D

 19 20  0  0  0  0  0  0  0  0999 V2000
    5.0590   -0.8830   -1.3170 N   0  0  0  0  0  0  0  0  0  0  0  0
    5.4120   -1.0000    0.0450 C   0  0  0  0  0  0  0  0  0  0  0  0
    6.5590   -1.2920    0.3660 O   0  0  0  0  0  0  0  0  0  0  0  0
    4.3720   -0.7640    1.1180 C   0  0  0  0  0  0  0  0  0  0  0  0
    3.1360   -0.4720    0.4940 N   0  0  0  0  0  0  0  0  0  0  0  0
    1.9240   -0.2030    1.3210 C   0  0  0  0  0  0  0  0  0  0  0  0
    2.0820   -0.2440    2.4940 O   0  0  0  0  0  0  0  0  0  0  0  0
    0.8610    0.0370    0.4270 N   0  0  0  0  0  0  0  0  0  0  0  0
   -0.3200    0.3380    1.6070 C   0  0  0  0  0  0  0  0  0  0  0  0
    0.0630    0.3500    2.7100 O   0  0  0  0  0  0  0  0  0  0  0  0
   -1.6240    0.5290    1.1080 C   0  0  0  0  0  0  0  0  0  0  0  0
   -2.6890    0.8050    1.9220 C   0  0  0  0  0  0  0  0  0  0  0  0
   -3.8880    0.9370    1.0530 C   0  0  0  0  0  0  0  0  0  0  0  0
   -3.4940   -0.0540   -0.0540 C   0  0  1  0  0  0  0  0  0  0  0  0
   -4.1460    0.1810   -1.3650 C   0  0  0  0  0  0  0  0  0  0  0  0
   -2.9970    0.2380   -2.3410 C   0  0  0  0  0  0  0  0  0  0  0  0
   -3.0540   -0.0530   -3.5540 O   0  0  0  0  0  0  0  0  0  0  0  0
   -1.8650    0.6930   -1.5600 N   0  0  0  0  0  0  0  0  0  0  0  0
   -2.1150    0.4680   -0.2170 N   0  0  0  0  0  0  0  0  0  0  0  0
  1  2  1  0
  2  3  2  0
  2  4  1  0
  4  5  1  0
  5  6  1  0
  6  7  2  0
  6  8  1  0
  8  9  1  0
  9 10  2  0
  9 11  1  0
 11 12  2  0
 11 19  1  0
 12 13  1  0
 14 13  1  1
 14 15  1  0
 14 19  1  0
 15 16  1  0
 16 17  2  0
 16 18  1  0
 18 19  1  0
M  END
