
     RDKit          3D

 20 21  0  0  0  0  0  0  0  0999 V2000
    7.2380    0.8450    0.4940 C   0  0  0  0  0  0  0  0  0  0  0  0
    6.0570   -0.0290    0.4900 C   0  0  0  0  0  0  0  0  0  0  0  0
    5.9630   -1.0280    1.2690 O   0  0  0  0  0  0  0  0  0  0  0  0
    4.9260    0.1670   -0.3810 N   0  0  0  0  0  0  0  0  0  0  0  0
    3.8580   -0.7080   -0.3300 N   0  0  0  0  0  0  0  0  0  0  0  0
    2.4780   -0.4050   -0.4440 C   0  0  0  0  0  0  0  0  0  0  0  0
    2.1610    0.8030   -0.6230 O   0  0  0  0  0  0  0  0  0  0  0  0
    1.5160   -1.4390   -0.3570 N   0  0  0  0  0  0  0  0  0  0  0  0
    0.1520   -1.2510   -0.4530 N   0  0  0  0  0  0  0  0  0  0  0  0
   -0.6330   -0.3500    0.3330 C   0  0  0  0  0  0  0  0  0  0  0  0
   -0.0330    0.3510    1.1700 O   0  0  0  0  0  0  0  0  0  0  0  0
   -2.0680   -0.2350    0.1960 C   0  0  2  0  0  0  0  0  0  0  0  0
   -2.6110    0.2260   -1.1320 C   0  0  0  0  0  0  0  0  0  0  0  0
   -4.0760    0.2580   -0.7680 C   0  0  0  0  0  0  0  0  0  0  0  0
   -5.2710    0.1420   -1.1870 N   0  0  0  0  0  0  0  0  0  0  0  0
   -6.2410    0.3250   -0.1130 C   0  0  2  0  0  0  0  0  0  0  0  0
   -7.0920    1.4080   -0.4050 O   0  0  0  0  0  0  0  0  0  0  0  0
   -5.3490    0.5850    1.0420 C   0  0  0  0  0  0  0  0  0  0  0  0
   -4.0840    0.5430    0.6610 C   0  0  0  0  0  0  0  0  0  0  0  0
   -2.7200    0.6630    1.0720 O   0  0  0  0  0  0  0  0  0  0  0  0
  1  2  1  0
  2  3  2  0
  2  4  1  0
  4  5  1  0
  5  6  1  0
  6  7  2  0
  6  8  1  0
  8  9  1  0
  9 10  1  0
 10 11  2  0
 12 10  1  6
 12 13  1  0
 12 20  1  0
 13 14  1  0
 14 15  2  0
 14 19  1  0
 15 16  1  0
 16 17  1  6
 16 18  1  0
 18 19  2  0
 19 20  1  0
M  END
