
     RDKit          3D

 26 28  0  0  0  0  0  0  0  0999 V2000
    5.9400   -1.1070   -0.7610 C   0  0  0  0  0  0  0  0  0  0  0  0
    4.4400   -1.0210   -0.5750 C   0  0  0  0  0  0  0  0  0  0  0  0
    3.9670    0.3670   -0.3100 C   0  0  1  0  0  0  0  0  0  0  0  0
    2.4680    0.3560   -0.1320 C   0  0  1  0  0  0  0  0  0  0  0  0
    1.6990   -0.2830   -1.2260 C   0  0  0  0  0  0  0  0  0  0  0  0
    0.3290   -0.3090   -0.8800 O   0  0  0  0  0  0  0  0  0  0  0  0
   -0.4460    0.8140   -0.6310 C   0  0  0  0  0  0  0  0  0  0  0  0
    0.0340    2.0650   -0.6970 N   0  0  0  0  0  0  0  0  0  0  0  0
   -0.7610    3.1160   -0.4470 C   0  0  0  0  0  0  0  0  0  0  0  0
   -2.0840    2.9100   -0.1190 C   0  0  0  0  0  0  0  0  0  0  0  0
   -2.6090    1.6370   -0.0420 C   0  0  0  0  0  0  0  0  0  0  0  0
   -3.9470    1.4210    0.2890 C   0  0  0  0  0  0  0  0  0  0  0  0
   -4.4820    0.1470    0.3690 C   0  0  0  0  0  0  0  0  0  0  0  0
   -5.8850   -0.0500    0.7180 C   0  0  0  0  0  0  0  0  0  0  0  0
   -6.7650    1.0280    0.9910 N   0  0  0  0  0  0  0  0  0  0  0  0
   -6.3270   -1.2120    0.7790 O   0  0  0  0  0  0  0  0  0  0  0  0
   -3.6350   -0.9080    0.1050 C   0  0  0  0  0  0  0  0  0  0  0  0
   -4.1370   -2.1890    0.1760 O   0  0  0  0  0  0  0  0  0  0  0  0
   -3.3570   -3.3430   -0.0750 C   0  0  0  0  0  0  0  0  0  0  0  0
   -2.3070   -0.6940   -0.2240 C   0  0  0  0  0  0  0  0  0  0  0  0
   -1.7800    0.5740   -0.3010 C   0  0  0  0  0  0  0  0  0  0  0  0
    2.3430   -0.3630    1.1390 N   0  0  0  0  0  0  0  0  0  0  0  0
    3.4860   -0.0320    1.9170 C   0  0  0  0  0  0  0  0  0  0  0  0
    3.7210   -0.3870    3.0910 O   0  0  0  0  0  0  0  0  0  0  0  0
    4.3780    0.8250    1.0960 C   0  0  1  0  0  0  0  0  0  0  0  0
    5.7020    0.5960    1.3350 F   0  0  0  0  0  0  0  0  0  0  0  0
  1  2  1  0
  3  2  1  1
  3  4  1  0
  3 25  1  0
  4  5  1  6
  4 22  1  0
  5  6  1  0
  6  7  1  0
  7  8  2  0
  7 21  1  0
  8  9  1  0
  9 10  2  0
 10 11  1  0
 11 12  2  0
 11 21  1  0
 12 13  1  0
 13 14  1  0
 13 17  2  0
 14 15  1  0
 14 16  2  0
 17 18  1  0
 17 20  1  0
 18 19  1  0
 20 21  2  0
 22 23  1  0
 23 24  2  0
 23 25  1  0
 25 26  1  1
M  END
