
     RDKit          3D

 20 21  0  0  0  0  0  0  0  0999 V2000
    4.4830   -0.1880    0.2770 N   0  0  0  0  0  0  0  0  0  0  0  0
    3.5380    0.6080   -0.4040 C   0  0  0  0  0  0  0  0  0  0  0  0
    4.0030    1.5550   -1.1440 O   0  0  0  0  0  0  0  0  0  0  0  0
    2.0630    0.4000   -0.3040 C   0  0  0  0  0  0  0  0  0  0  0  0
    1.7000   -0.6040    0.4700 C   0  0  0  0  0  0  0  0  0  0  0  0
    2.6860   -1.3830    1.1340 N   0  0  0  0  0  0  0  0  0  0  0  0
    0.3130   -0.9990    0.6670 N   0  0  0  0  0  0  0  0  0  0  0  0
   -0.4490   -1.0980   -0.4030 O   0  0  0  0  0  0  0  0  0  0  0  0
   -1.2970   -1.8840   -1.0630 C   0  0  0  0  0  0  0  0  0  0  0  0
   -1.0380   -2.6800   -2.0460 O   0  0  0  0  0  0  0  0  0  0  0  0
   -2.7170   -1.8800   -0.6590 C   0  0  0  0  0  0  0  0  0  0  0  0
   -3.3740   -0.7500   -0.3980 C   0  0  0  0  0  0  0  0  0  0  0  0
   -4.2590    0.3590   -0.0740 C   0  0  0  0  0  0  0  0  0  0  0  0
   -2.8490    0.5970   -0.4940 C   0  0  1  0  0  0  0  0  0  0  0  0
   -1.9540    1.0270    0.5230 N   0  0  0  0  0  0  0  0  0  0  0  0
   -0.8750    1.9370    0.4240 C   0  0  0  0  0  0  0  0  0  0  0  0
   -0.8110    2.7470    1.4360 O   0  0  0  0  0  0  0  0  0  0  0  0
    0.1270    2.1050   -0.5810 C   0  0  0  0  0  0  0  0  0  0  0  0
    0.0030    3.2850   -1.1940 O   0  0  0  0  0  0  0  0  0  0  0  0
    1.1750    1.2610   -1.0050 N   0  0  0  0  0  0  0  0  0  0  0  0
  1  2  1  0
  2  3  2  0
  2  4  1  0
  4  5  2  0
  4 20  1  0
  5  6  1  0
  5  7  1  0
  7  8  1  0
  8  9  1  0
  9 10  2  0
  9 11  1  0
 11 12  2  0
 12 13  1  0
 12 14  1  0
 14 13  1  1
 14 15  1  0
 15 16  1  0
 16 17  2  0
 16 18  1  0
 18 19  2  0
 18 20  1  0
M  END
