
     RDKit          3D

 20 21  0  0  0  0  0  0  0  0999 V2000
   -5.5890   -0.2240    0.9070 C   0  0  0  0  0  0  0  0  0  0  0  0
   -4.2430   -0.2150    0.3620 N   0  0  0  0  0  0  0  0  0  0  0  0
   -3.9370    0.5850   -0.7780 C   0  0  0  0  0  0  0  0  0  0  0  0
   -4.8030    1.3020   -1.3480 O   0  0  0  0  0  0  0  0  0  0  0  0
   -2.6100    0.5530   -1.2620 N   0  0  0  0  0  0  0  0  0  0  0  0
   -1.5480    0.2360   -0.3280 C   0  0  2  0  0  0  0  0  0  0  0  0
   -0.2480    0.1200   -1.0290 C   0  0  0  0  0  0  0  0  0  0  0  0
   -0.1960    0.2920   -2.2570 O   0  0  0  0  0  0  0  0  0  0  0  0
    0.9280   -0.1870   -0.2890 N   0  0  0  0  0  0  0  0  0  0  0  0
    2.2370   -0.3120   -0.9360 C   0  0  2  0  0  0  0  0  0  0  0  0
    2.8730   -1.6420   -0.6120 C   0  0  0  0  0  0  0  0  0  0  0  0
    3.3800   -1.3600    0.7690 C   0  0  0  0  0  0  0  0  0  0  0  0
    3.4480   -2.1300    1.7370 O   0  0  0  0  0  0  0  0  0  0  0  0
    3.7790    0.0620    0.6970 C   0  0  0  0  0  0  0  0  0  0  0  0
    4.7410    0.6060    1.6030 N   0  0  0  0  0  0  0  0  0  0  0  0
    3.1270    0.6550   -0.2740 C   0  0  0  0  0  0  0  0  0  0  0  0
    3.2640    2.0180   -0.6260 N   0  0  0  0  0  0  0  0  0  0  0  0
   -1.9110   -0.9330    0.3530 O   0  0  0  0  0  0  0  0  0  0  0  0
   -3.1820   -0.9780    0.9130 C   0  0  0  0  0  0  0  0  0  0  0  0
   -3.4510   -1.6870    1.9230 O   0  0  0  0  0  0  0  0  0  0  0  0
  1  2  1  0
  2  3  1  0
  2 19  1  0
  3  4  2  0
  3  5  1  0
  5  6  1  0
  6  7  1  6
  6 18  1  0
  7  8  2  0
  7  9  1  0
 10  9  1  1
 10 11  1  0
 10 16  1  0
 11 12  1  0
 12 13  2  0
 12 14  1  0
 14 15  1  0
 14 16  2  0
 16 17  1  0
 18 19  1  0
 19 20  2  0
M  END
