
     RDKit          3D

 30 32  0  0  0  0  0  0  0  0999 V2000
   -1.9950    1.1260    2.4590 O   0  0  0  0  0  0  0  0  0  0  0  0
   -1.6550    0.4310    1.4250 C   0  0  0  0  0  0  0  0  0  0  0  0
   -2.3460   -0.7560    1.2250 N   0  0  0  0  0  0  0  0  0  0  0  0
   -2.3740   -1.6150    0.0610 C   0  0  0  0  0  0  0  0  0  0  0  0
   -3.7980   -1.9560   -0.3420 C   0  0  0  0  0  0  0  0  0  0  0  0
   -4.5400   -0.7860   -0.8910 C   0  0  0  0  0  0  0  0  0  0  0  0
   -4.7080    0.3010    0.1020 C   0  0  0  0  0  0  0  0  0  0  0  0
   -5.2400   -0.0730    1.2910 F   0  0  0  0  0  0  0  0  0  0  0  0
   -4.3840    1.5820   -0.1250 C   0  0  0  0  0  0  0  0  0  0  0  0
   -4.6200    2.4310    0.9360 F   0  0  0  0  0  0  0  0  0  0  0  0
   -3.8570    2.1400   -1.3330 C   0  0  0  0  0  0  0  0  0  0  0  0
   -2.7080    2.0160   -1.9370 C   0  0  0  0  0  0  0  0  0  0  0  0
   -1.5450    1.2990   -1.6420 N   0  0  0  0  0  0  0  0  0  0  0  0
   -0.5800    1.3760   -0.6250 C   0  0  0  0  0  0  0  0  0  0  0  0
   -0.5780    1.0400    0.6420 C   0  0  0  0  0  0  0  0  0  0  0  0
    0.9570    1.4410    1.5290 S   0  0  1  0  0  0  0  0  0  0  0  0
    1.6120    2.6070    0.8840 O   0  0  0  0  0  0  0  0  0  0  0  0
    0.6140    1.7460    2.9640 O   0  0  0  0  0  0  0  0  0  0  0  0
    2.0110    0.1090    1.4690 N   0  0  0  0  0  0  0  0  0  0  0  0
    3.2460    0.1710    0.7680 C   0  0  0  0  0  0  0  0  0  0  0  0
    4.0560    1.2790    0.8120 C   0  0  0  0  0  0  0  0  0  0  0  0
    5.2730    1.2940    0.1220 C   0  0  0  0  0  0  0  0  0  0  0  0
    6.2330    2.7420    0.2350 Cl  0  0  0  0  0  0  0  0  0  0  0  0
    5.7170    0.2310   -0.6190 C   0  0  0  0  0  0  0  0  0  0  0  0
    4.8970   -0.8750   -0.6560 C   0  0  0  0  0  0  0  0  0  0  0  0
    5.3220   -1.9750   -1.4020 C   0  0  0  0  0  0  0  0  0  0  0  0
    4.4750   -3.0710   -1.4190 C   0  0  0  0  0  0  0  0  0  0  0  0
    3.3290   -3.0250   -0.7420 N   0  0  0  0  0  0  0  0  0  0  0  0
    2.9060   -2.0040   -0.0330 N   0  0  0  0  0  0  0  0  0  0  0  0
    3.7000   -0.9040    0.0170 C   0  0  0  0  0  0  0  0  0  0  0  0
  1  2  2  0
  2  3  1  0
  2 15  1  0
  3  4  1  0
  4  5  1  0
  5  6  1  0
  6  7  1  0
  7  8  1  0
  7  9  2  0
  9 10  1  0
  9 11  1  0
 11 12  2  0
 12 13  1  0
 13 14  1  0
 14 15  2  0
 15 16  1  0
 16 17  2  0
 16 18  2  0
 16 19  1  1
 19 20  1  0
 20 21  2  0
 20 30  1  0
 21 22  1  0
 22 23  1  0
 22 24  2  0
 24 25  1  0
 25 26  2  0
 25 30  1  0
 26 27  1  0
 27 28  2  0
 28 29  1  0
 29 30  2  0
M  END
