
     RDKit          3D

 29 31  0  0  0  0  0  0  0  0999 V2000
   -3.2080    1.6730    1.6290 C   0  0  0  0  0  0  0  0  0  0  0  0
   -4.3630    1.4640    1.0210 C   0  0  0  0  0  0  0  0  0  0  0  0
   -4.6120    0.2320    0.2300 C   0  0  0  0  0  0  0  0  0  0  0  0
   -3.6350   -0.6290   -0.2100 C   0  0  0  0  0  0  0  0  0  0  0  0
   -2.2200   -0.6360   -0.2200 N   0  0  0  0  0  0  0  0  0  0  0  0
   -1.4880   -1.7950   -0.6480 C   0  0  0  0  0  0  0  0  0  0  0  0
   -2.2020   -2.8030   -1.0050 O   0  0  0  0  0  0  0  0  0  0  0  0
   -0.0750   -1.9390   -0.7190 C   0  0  0  0  0  0  0  0  0  0  0  0
    0.8750   -1.0770   -0.4460 C   0  0  0  0  0  0  0  0  0  0  0  0
    2.2670   -1.5000   -0.6030 C   0  0  0  0  0  0  0  0  0  0  0  0
    3.2760   -0.6930   -0.3340 C   0  0  0  0  0  0  0  0  0  0  0  0
    4.6370   -1.1790   -0.5150 C   0  0  0  0  0  0  0  0  0  0  0  0
    4.8180   -2.3610   -0.9260 O   0  0  0  0  0  0  0  0  0  0  0  0
    5.7700   -0.3880   -0.2510 N   0  0  0  0  0  0  0  0  0  0  0  0
    7.0870   -0.9370   -0.4610 C   0  0  0  0  0  0  0  0  0  0  0  0
    8.1450   -0.3930    0.4350 C   0  0  0  0  0  0  0  0  0  0  0  0
    7.9240    0.9330    0.7990 O   0  0  0  0  0  0  0  0  0  0  0  0
    6.6790    1.1210    1.3580 C   0  0  0  0  0  0  0  0  0  0  0  0
    5.6510    0.9630    0.2240 C   0  0  0  0  0  0  0  0  0  0  0  0
    0.6400    0.2120   -0.0230 O   0  0  0  0  0  0  0  0  0  0  0  0
    0.6310    1.2890   -0.9730 C   0  0  0  0  0  0  0  0  0  0  0  0
   -4.5660   -1.9230   -1.0840 S   0  0  0  0  0  0  0  0  0  0  0  0
   -6.1550   -1.2060   -0.7980 C   0  0  0  0  0  0  0  0  0  0  0  0
   -7.4440   -1.7860   -1.2730 C   0  0  0  0  0  0  0  0  0  0  0  0
   -5.8910   -0.0870   -0.0920 C   0  0  0  0  0  0  0  0  0  0  0  0
   -6.9700    0.8620    0.3450 C   0  0  0  0  0  0  0  0  0  0  0  0
   -6.7280    1.9720    0.9760 C   0  0  0  0  0  0  0  0  0  0  0  0
   -5.4020    2.4670    1.3310 C   0  0  2  0  0  0  0  0  0  0  0  0
   -5.1460    3.6660    0.6790 F   0  0  0  0  0  0  0  0  0  0  0  0
  1  2  2  0
  2  3  1  0
  2 28  1  0
  3  4  2  0
  3 25  1  0
  4  5  1  0
  4 22  1  0
  5  6  1  0
  6  7  2  0
  6  8  1  0
  8  9  2  3
  9 10  1  0
  9 20  1  0
 10 11  2  3
 11 12  1  0
 12 13  2  0
 12 14  1  0
 14 15  1  0
 14 19  1  0
 15 16  1  0
 16 17  1  0
 17 18  1  0
 18 19  1  0
 20 21  1  0
 22 23  1  0
 23 24  1  0
 23 25  2  0
 25 26  1  0
 26 27  2  0
 27 28  1  0
 28 29  1  6
M  END
