
     RDKit          3D

 29 31  0  0  0  0  0  0  0  0999 V2000
    8.1000    0.9070   -1.2310 C   0  0  0  0  0  0  0  0  0  0  0  0
    7.2710    1.1800    0.0330 C   0  0  0  0  0  0  0  0  0  0  0  0
    5.8390    1.1130   -0.3010 C   0  0  0  0  0  0  0  0  0  0  0  0
    4.9620    0.3200    0.2890 C   0  0  0  0  0  0  0  0  0  0  0  0
    3.5570    0.3300   -0.1090 C   0  0  0  0  0  0  0  0  0  0  0  0
    2.6160   -0.4400    0.4490 C   0  0  0  0  0  0  0  0  0  0  0  0
    1.2420   -0.3440   -0.0320 C   0  0  0  0  0  0  0  0  0  0  0  0
    1.1210    0.5140   -1.0060 O   0  0  0  0  0  0  0  0  0  0  0  0
    0.1290   -1.0620    0.4560 N   0  0  0  0  0  0  0  0  0  0  0  0
   -1.2510   -0.8160   -0.1670 C   0  0  2  0  0  0  0  0  0  0  0  0
   -0.8290   -0.5590   -1.6070 C   0  0  0  0  0  0  0  0  0  0  0  0
   -1.8000    0.4070    0.5390 C   0  0  0  0  0  0  0  0  0  0  0  0
   -0.9350    1.2440    1.1340 C   0  0  0  0  0  0  0  0  0  0  0  0
   -1.8930    2.4450    2.0570 S   0  0  0  0  0  0  0  0  0  0  0  0
   -3.4440    1.7370    1.5770 C   0  0  0  0  0  0  0  0  0  0  0  0
   -4.7380    2.1970    1.8500 C   0  0  0  0  0  0  0  0  0  0  0  0
   -4.8600    3.1830    2.6100 O   0  0  0  0  0  0  0  0  0  0  0  0
   -5.7790    1.5830    1.3030 N   0  0  0  0  0  0  0  0  0  0  0  0
   -5.5410    0.5420    0.5120 C   0  0  0  0  0  0  0  0  0  0  0  0
   -6.7200   -0.1170   -0.1770 C   0  0  0  0  0  0  0  0  0  0  0  0
   -4.2570    0.0580    0.2270 C   0  0  0  0  0  0  0  0  0  0  0  0
   -4.2710   -1.0680   -0.6750 C   0  0  0  0  0  0  0  0  0  0  0  0
   -4.4630   -2.4410   -0.1850 C   0  0  0  0  0  0  0  0  0  0  0  0
   -4.1300   -0.8490   -1.8970 O   0  0  0  0  0  0  0  0  0  0  0  0
   -3.1350    0.6730    0.7750 C   0  0  0  0  0  0  0  0  0  0  0  0
    3.0440   -1.3310    1.5120 C   0  0  0  0  0  0  0  0  0  0  0  0
    4.3270   -1.3540    1.8900 C   0  0  0  0  0  0  0  0  0  0  0  0
    4.6530   -2.2130    2.8930 F   0  0  0  0  0  0  0  0  0  0  0  0
    5.2960   -0.5580    1.3100 O   0  0  0  0  0  0  0  0  0  0  0  0
  1  2  1  0
  2  3  1  0
  3  4  2  3
  4  5  1  0
  4 29  1  0
  5  6  2  0
  6  7  1  0
  6 26  1  0
  7  8  2  0
  7  9  1  0
  9 10  1  0
 10 11  1  6
 10 12  1  0
 12 13  2  0
 12 25  1  0
 13 14  1  0
 14 15  1  0
 15 16  1  0
 15 25  2  0
 16 17  2  0
 16 18  1  0
 18 19  1  0
 19 20  1  0
 19 21  2  0
 21 22  1  0
 21 25  1  0
 22 23  1  0
 22 24  2  0
 26 27  2  0
 27 28  1  0
 27 29  1  0
M  END
