
     RDKit          3D

 29 32  0  0  0  0  0  0  0  0999 V2000
    6.0980    1.7900    1.2110 C   0  0  0  0  0  0  0  0  0  0  0  0
    6.1700    0.4110    1.5640 O   0  0  0  0  0  0  0  0  0  0  0  0
    5.3150   -0.5320    1.0540 C   0  0  0  0  0  0  0  0  0  0  0  0
    5.4380   -1.8360    1.4330 C   0  0  0  0  0  0  0  0  0  0  0  0
    4.5790   -2.7780    0.9210 C   0  0  0  0  0  0  0  0  0  0  0  0
    4.7030   -4.0810    1.3010 F   0  0  0  0  0  0  0  0  0  0  0  0
    3.5940   -2.4240    0.0280 C   0  0  0  0  0  0  0  0  0  0  0  0
    3.4630   -1.1130   -0.3600 C   0  0  0  0  0  0  0  0  0  0  0  0
    2.4870   -0.7630   -1.2440 O   0  0  0  0  0  0  0  0  0  0  0  0
    2.1830    0.4890   -1.7630 C   0  0  1  0  0  0  0  0  0  0  0  0
    2.3460    0.4730   -3.2840 C   0  0  0  0  0  0  0  0  0  0  0  0
    0.7320    0.7900   -1.4680 C   0  0  0  0  0  0  0  0  0  0  0  0
    0.3160    1.8780   -1.8730 O   0  0  0  0  0  0  0  0  0  0  0  0
   -0.0550   -0.1270   -0.7790 N   0  0  0  0  0  0  0  0  0  0  0  0
   -1.4080    0.0450   -0.4510 C   0  0  0  0  0  0  0  0  0  0  0  0
   -2.0050   -0.9980    0.2550 C   0  0  0  0  0  0  0  0  0  0  0  0
   -3.3290   -0.9250    0.6240 C   0  0  0  0  0  0  0  0  0  0  0  0
   -4.1550    0.1680    0.3320 C   0  0  0  0  0  0  0  0  0  0  0  0
   -3.5700    1.2210   -0.3780 C   0  0  0  0  0  0  0  0  0  0  0  0
   -2.2090    1.0980   -0.7340 C   0  0  0  0  0  0  0  0  0  0  0  0
   -4.1780    2.3200   -0.7610 C   0  0  0  0  0  0  0  0  0  0  0  0
   -5.5670    2.7400   -0.5670 C   0  0  0  0  0  0  0  0  0  0  0  0
   -6.4590    1.5580    0.4200 S   0  0  0  0  0  0  0  0  0  0  0  0
   -5.3890    0.1790    0.7860 C   0  0  0  0  0  0  0  0  0  0  0  0
   -5.9820   -0.8650    1.6450 C   0  0  0  0  0  0  0  0  0  0  0  0
   -5.2650   -2.0980    1.6260 N   0  0  0  0  0  0  0  0  0  0  0  0
   -3.8970   -2.0840    1.2880 C   0  0  0  0  0  0  0  0  0  0  0  0
   -3.1950   -3.0990    1.5800 O   0  0  0  0  0  0  0  0  0  0  0  0
    4.3220   -0.1830    0.1560 C   0  0  0  0  0  0  0  0  0  0  0  0
  1  2  1  0
  2  3  1  0
  3  4  2  0
  3 29  1  0
  4  5  1  0
  5  6  1  0
  5  7  2  0
  7  8  1  0
  8  9  1  0
  8 29  2  0
  9 10  1  0
 10 11  1  6
 10 12  1  0
 12 13  2  0
 12 14  1  0
 14 15  1  0
 15 16  1  0
 15 20  2  0
 16 17  2  0
 17 18  1  0
 17 27  1  0
 18 19  1  0
 18 24  2  0
 19 20  1  0
 19 21  2  0
 21 22  1  0
 22 23  1  0
 23 24  1  0
 24 25  1  0
 25 26  1  0
 26 27  1  0
 27 28  2  0
M  END
