
     RDKit          3D

 29 31  0  0  0  0  0  0  0  0999 V2000
    3.1560   -3.7810   -0.9150 C   0  0  0  0  0  0  0  0  0  0  0  0
    3.0650   -2.3820   -0.2690 C   0  0  1  0  0  0  0  0  0  0  0  0
    4.0740   -1.5450   -1.0780 C   0  0  0  0  0  0  0  0  0  0  0  0
    1.7100   -1.8170   -0.5180 C   0  0  0  0  0  0  0  0  0  0  0  0
    1.0540   -2.2910   -1.6620 C   0  0  0  0  0  0  0  0  0  0  0  0
   -0.1870   -1.8100   -1.9750 C   0  0  0  0  0  0  0  0  0  0  0  0
   -0.7530   -2.2590   -3.0200 O   0  0  0  0  0  0  0  0  0  0  0  0
   -0.7200   -0.8960   -1.1590 N   0  0  0  0  0  0  0  0  0  0  0  0
   -1.9480   -0.4690   -1.4900 N   0  0  0  0  0  0  0  0  0  0  0  0
   -2.5970    0.4290   -0.7390 C   0  0  0  0  0  0  0  0  0  0  0  0
   -2.0230    0.9580    0.4200 C   0  0  0  0  0  0  0  0  0  0  0  0
   -0.7630    0.5250    0.7650 C   0  0  0  0  0  0  0  0  0  0  0  0
   -0.1560   -0.4100   -0.0700 C   0  0  0  0  0  0  0  0  0  0  0  0
    1.1260   -0.8790    0.2880 C   0  0  0  0  0  0  0  0  0  0  0  0
    1.6870   -0.3550    1.4680 N   0  0  0  0  0  0  0  0  0  0  0  0
    2.6250    1.0070    1.7600 S   0  0  1  0  0  0  0  0  0  0  0  0
    1.9190    2.3090    1.4230 O   0  0  0  0  0  0  0  0  0  0  0  0
    2.9080    1.1100    3.2700 O   0  0  0  0  0  0  0  0  0  0  0  0
    4.1790    1.0570    0.9530 C   0  0  0  0  0  0  0  0  0  0  0  0
    4.9060    2.3640    1.3450 C   0  0  1  0  0  0  0  0  0  0  0  0
    4.1420    3.4260    0.9550 F   0  0  0  0  0  0  0  0  0  0  0  0
    5.2090    2.3670    2.6860 F   0  0  0  0  0  0  0  0  0  0  0  0
   -2.8410    1.9230    1.1450 C   0  0  0  0  0  0  0  0  0  0  0  0
   -4.2250    1.5450    1.2680 N   0  0  0  0  0  0  0  0  0  0  0  0
   -4.4560    0.5780    2.3100 C   0  0  0  0  0  0  0  0  0  0  0  0
   -4.8960    1.2340    0.0370 C   0  0  0  0  0  0  0  0  0  0  0  0
   -3.9350    0.9070   -1.0610 C   0  0  0  0  0  0  0  0  0  0  0  0
   -4.2780    1.0650   -2.3010 C   0  0  0  0  0  0  0  0  0  0  0  0
   -5.5780    1.5270   -2.7010 N   0  0  0  0  0  0  0  0  0  0  0  0
  2  1  1  6
  2  3  1  0
  2  4  1  0
  4  5  2  0
  4 14  1  0
  5  6  1  0
  6  7  2  0
  6  8  1  0
  8  9  1  0
  8 13  1  0
  9 10  2  0
 10 11  1  0
 10 27  1  0
 11 12  2  0
 11 23  1  0
 12 13  1  0
 13 14  2  0
 14 15  1  0
 15 16  1  0
 16 17  2  0
 16 18  2  0
 16 19  1  6
 19 20  1  0
 20 21  1  1
 20 22  1  0
 23 24  1  0
 24 25  1  0
 24 26  1  0
 26 27  1  0
 27 28  2  3
 28 29  1  0
M  END
