
     RDKit          3D

 30 32  0  0  0  0  0  0  0  0999 V2000
    2.4960   -3.0960    0.2900 C   0  0  0  0  0  0  0  0  0  0  0  0
    1.0170   -2.9900    0.2670 C   0  0  0  0  0  0  0  0  0  0  0  0
    0.3490   -1.8300    0.1800 C   0  0  0  0  0  0  0  0  0  0  0  0
   -1.0040   -1.6800    0.1340 C   0  0  0  0  0  0  0  0  0  0  0  0
   -1.6150   -0.4220   -0.0170 C   0  0  0  0  0  0  0  0  0  0  0  0
   -0.8510    0.7180   -0.1210 C   0  0  0  0  0  0  0  0  0  0  0  0
   -1.4070    2.0130   -0.3140 N   0  0  0  0  0  0  0  0  0  0  0  0
   -2.7860    2.1970   -0.5380 C   0  0  0  0  0  0  0  0  0  0  0  0
   -3.4760    3.2100    0.1490 C   0  0  0  0  0  0  0  0  0  0  0  0
   -4.8090    3.4120   -0.1040 C   0  0  0  0  0  0  0  0  0  0  0  0
   -5.5320    2.6670   -1.0100 C   0  0  0  0  0  0  0  0  0  0  0  0
   -4.8520    1.7060   -1.6540 N   0  0  0  0  0  0  0  0  0  0  0  0
   -3.5350    1.4690   -1.4390 C   0  0  0  0  0  0  0  0  0  0  0  0
    0.4620    0.5340   -0.0620 N   0  0  0  0  0  0  0  0  0  0  0  0
    1.1200   -0.6620    0.0880 C   0  0  0  0  0  0  0  0  0  0  0  0
    2.3630   -0.5120    0.4360 C   0  0  0  0  0  0  0  0  0  0  0  0
    3.0810    0.7400    0.2700 C   0  0  0  0  0  0  0  0  0  0  0  0
    4.3090    0.7850    0.7000 O   0  0  0  0  0  0  0  0  0  0  0  0
    2.6420    1.9330   -0.3040 N   0  0  0  0  0  0  0  0  0  0  0  0
    3.4730    3.1190   -0.3880 C   0  0  0  0  0  0  0  0  0  0  0  0
    3.9050    3.7050    0.9040 C   0  0  1  0  0  0  0  0  0  0  0  0
    2.8430    4.0830    1.7080 F   0  0  0  0  0  0  0  0  0  0  0  0
    4.8840    3.0230    1.5640 F   0  0  0  0  0  0  0  0  0  0  0  0
   -1.9920   -2.7320    0.1730 N   0  0  0  0  0  0  0  0  0  0  0  0
   -1.3890   -4.2930   -0.3710 S   0  0  2  0  0  0  0  0  0  0  0  0
   -1.3160   -4.3040   -1.8470 O   0  0  0  0  0  0  0  0  0  0  0  0
   -2.2000   -5.3950    0.1960 O   0  0  0  0  0  0  0  0  0  0  0  0
    0.2350   -4.2180    0.3710 C   0  0  0  0  0  0  0  0  0  0  0  0
    0.6240   -5.2690    1.0070 C   0  0  0  0  0  0  0  0  0  0  0  0
    2.1310   -5.4580    1.8680 Cl  0  0  0  0  0  0  0  0  0  0  0  0
  1  2  1  0
  2  3  2  0
  2 28  1  0
  3  4  1  0
  3 15  1  0
  4  5  2  0
  4 24  1  0
  5  6  1  0
  6  7  1  0
  6 14  2  0
  7  8  1  0
  8  9  2  0
  8 13  1  0
  9 10  1  0
 10 11  2  0
 11 12  1  0
 12 13  2  0
 14 15  1  0
 15 16  2  3
 16 17  1  0
 17 18  2  0
 17 19  1  0
 19 20  1  0
 20 21  1  0
 21 22  1  1
 21 23  1  0
 25 24  1  6
 25 26  2  0
 25 27  2  0
 25 28  1  0
 28 29  2  3
 29 30  1  0
M  END
