
     RDKit          3D

 35 36  0  0  0  0  0  0  0  0999 V2000
   -4.6730   -3.1490   -0.8420 C   0  0  0  0  0  0  0  0  0  0  0  0
   -4.7560   -1.8080   -1.1660 C   0  0  0  0  0  0  0  0  0  0  0  0
   -5.5130   -1.5740   -2.3820 C   0  0  0  0  0  0  0  0  0  0  0  0
   -4.0770   -0.8760   -0.2530 C   0  0  0  0  0  0  0  0  0  0  0  0
   -4.0570    0.4480   -0.3680 C   0  0  0  0  0  0  0  0  0  0  0  0
   -4.8120    0.9950   -1.5940 C   0  0  0  0  0  0  0  0  0  0  0  0
   -3.5950    1.4760    0.5380 C   0  0  0  0  0  0  0  0  0  0  0  0
   -2.6470    2.1710    1.0610 C   0  0  0  0  0  0  0  0  0  0  0  0
   -2.8440    3.3020    2.1570 C   0  0  0  0  0  0  0  0  0  0  0  0
   -2.2260    4.4140    1.2530 C   0  0  0  0  0  0  0  0  0  0  0  0
   -0.9470    3.7090    0.9820 C   0  0  0  0  0  0  0  0  0  0  0  0
   -1.2250    2.3720    0.8820 C   0  0  0  0  0  0  0  0  0  0  0  0
   -0.1200    1.3860    0.6860 C   0  0  0  0  0  0  0  0  0  0  0  0
    1.2500    2.0010    1.0580 C   0  0  1  0  0  0  0  0  0  0  0  0
    1.0320    2.6000    2.4730 C   0  0  0  0  0  0  0  0  0  0  0  0
    2.3030    1.0650    1.2200 N   0  0  0  0  0  0  0  0  0  0  0  0
    3.4260    0.7590    0.4090 C   0  0  0  0  0  0  0  0  0  0  0  0
    4.5730    1.3080    0.7760 O   0  0  0  0  0  0  0  0  0  0  0  0
    3.5360   -0.0710   -0.7800 C   0  0  0  0  0  0  0  0  0  0  0  0
    3.7920    0.6760   -2.0810 C   0  0  0  0  0  0  0  0  0  0  0  0
    4.9950    1.5790   -1.9750 C   0  0  0  0  0  0  0  0  0  0  0  0
    6.1540    0.9030   -1.6860 O   0  0  0  0  0  0  0  0  0  0  0  0
    3.5150   -1.4100   -0.8120 C   0  0  0  0  0  0  0  0  0  0  0  0
    3.6280   -2.0030   -2.0870 O   0  0  0  0  0  0  0  0  0  0  0  0
    3.3980   -2.3450    0.2950 C   0  0  0  0  0  0  0  0  0  0  0  0
    4.1920   -3.4480    0.3370 C   0  0  0  0  0  0  0  0  0  0  0  0
    5.1600   -3.6650   -0.7580 C   0  0  0  0  0  0  0  0  0  0  0  0
    2.4880   -2.2180    1.4200 C   0  0  0  0  0  0  0  0  0  0  0  0
    2.9190   -2.3880    2.5910 O   0  0  0  0  0  0  0  0  0  0  0  0
    1.0740   -1.9040    1.3220 N   0  0  0  0  0  0  0  0  0  0  0  0
    0.4210   -1.9010    0.0500 C   0  0  0  0  0  0  0  0  0  0  0  0
   -0.9990   -1.7390   -0.0970 C   0  0  0  0  0  0  0  0  0  0  0  0
   -1.9290   -1.6070    1.0210 C   0  0  0  0  0  0  0  0  0  0  0  0
   -1.5750   -1.5360    2.2110 O   0  0  0  0  0  0  0  0  0  0  0  0
   -3.3640   -1.5520    0.8180 N   0  0  0  0  0  0  0  0  0  0  0  0
  1  2  2  0
  2  3  1  0
  2  4  1  0
  4  5  2  0
  4 35  1  0
  5  6  1  0
  5  7  1  0
  7  8  2  0
  8  9  1  0
  8 12  1  0
  9 10  1  0
 10 11  1  0
 11 12  2  0
 12 13  1  0
 13 14  1  0
 14 15  1  1
 14 16  1  0
 16 17  1  0
 17 18  2  0
 17 19  1  0
 19 20  1  0
 19 23  2  0
 20 21  1  0
 21 22  1  0
 23 24  1  0
 23 25  1  0
 25 26  2  3
 25 28  1  0
 26 27  1  0
 28 29  2  0
 28 30  1  0
 30 31  1  0
 31 32  1  0
 32 33  1  0
 33 34  2  0
 33 35  1  0
M  END
