
     RDKit          3D

 35 37  0  0  0  0  0  0  0  0999 V2000
   -4.3660    0.1410    2.0760 C   0  0  0  0  0  0  0  0  0  0  0  0
   -3.4580   -0.2240    1.1970 C   0  0  0  0  0  0  0  0  0  0  0  0
   -3.0690   -1.5710    1.1430 C   0  0  0  0  0  0  0  0  0  0  0  0
   -3.6850   -2.4840    2.0380 N   0  0  0  0  0  0  0  0  0  0  0  0
   -2.1250   -2.0270    0.2630 C   0  0  0  0  0  0  0  0  0  0  0  0
   -1.8420   -3.5160    0.3250 C   0  0  0  0  0  0  0  0  0  0  0  0
   -3.0030   -4.2050   -0.3590 C   0  0  0  0  0  0  0  0  0  0  0  0
   -1.5020   -1.1760   -0.6190 C   0  0  0  0  0  0  0  0  0  0  0  0
   -1.8700    0.1890   -0.5860 C   0  0  0  0  0  0  0  0  0  0  0  0
   -2.8240    0.6540    0.2930 C   0  0  0  0  0  0  0  0  0  0  0  0
   -3.2970    1.8810    0.3350 C   0  0  0  0  0  0  0  0  0  0  0  0
   -1.1700    1.1430   -1.4680 C   0  0  1  0  0  0  0  0  0  0  0  0
   -1.9520    1.2600   -2.8060 C   0  0  0  0  0  0  0  0  0  0  0  0
   -1.2740    2.1670   -3.6270 O   0  0  0  0  0  0  0  0  0  0  0  0
   -0.8720    2.4750   -0.9830 C   0  0  0  0  0  0  0  0  0  0  0  0
   -0.1420    2.9490   -0.0120 C   0  0  0  0  0  0  0  0  0  0  0  0
   -0.1400    4.4310    0.1310 C   0  0  0  0  0  0  0  0  0  0  0  0
   -0.7940    5.1520   -0.6660 O   0  0  0  0  0  0  0  0  0  0  0  0
    0.5470    5.0890    1.1170 O   0  0  0  0  0  0  0  0  0  0  0  0
    0.7260    2.2390    0.9460 C   0  0  2  0  0  0  0  0  0  0  0  0
    0.8720    3.0680    2.1170 O   0  0  0  0  0  0  0  0  0  0  0  0
    2.1050    1.9710    0.4730 C   0  0  0  0  0  0  0  0  0  0  0  0
    2.9870    3.0280    0.4060 C   0  0  0  0  0  0  0  0  0  0  0  0
    4.3130    2.8990   -0.0370 C   0  0  0  0  0  0  0  0  0  0  0  0
    4.7780    1.6850   -0.4250 C   0  0  0  0  0  0  0  0  0  0  0  0
    3.9020    0.6220   -0.3600 C   0  0  0  0  0  0  0  0  0  0  0  0
    2.5880    0.7290    0.0750 C   0  0  0  0  0  0  0  0  0  0  0  0
    1.7560   -0.4950    0.1010 C   0  0  2  0  0  0  0  0  0  0  0  0
    2.0550   -1.4500    1.1680 C   0  0  0  0  0  0  0  0  0  0  0  0
    3.3770   -2.1090    1.2650 C   0  0  0  0  0  0  0  0  0  0  0  0
    3.7390   -3.0200    0.1190 C   0  0  0  0  0  0  0  0  0  0  0  0
    1.8150   -1.1200   -1.2070 N   0  0  0  0  0  0  0  0  0  0  0  0
    0.6760   -1.4730   -1.9570 C   0  0  0  0  0  0  0  0  0  0  0  0
    0.8770   -1.5150   -3.2270 O   0  0  0  0  0  0  0  0  0  0  0  0
   -0.6090   -1.7760   -1.5180 N   0  0  0  0  0  0  0  0  0  0  0  0
  1  2  2  0
  2  3  1  0
  2 10  1  0
  3  4  1  0
  3  5  2  0
  5  6  1  0
  5  8  1  0
  6  7  1  0
  8  9  2  0
  8 35  1  0
  9 10  1  0
  9 12  1  0
 10 11  2  0
 12 13  1  6
 12 15  1  0
 13 14  1  0
 15 16  2  0
 16 17  1  0
 16 20  1  0
 17 18  2  0
 17 19  1  0
 20 21  1  1
 20 22  1  0
 22 23  2  0
 22 27  1  0
 23 24  1  0
 24 25  2  0
 25 26  1  0
 26 27  2  0
 27 28  1  0
 28 29  1  1
 28 32  1  0
 29 30  1  0
 30 31  1  0
 32 33  1  0
 33 34  2  0
 33 35  1  0
M  END
