
     RDKit          3D

 34 37  0  0  0  0  0  0  0  0999 V2000
   -2.6250   -0.6070    1.1500 O   0  0  0  0  0  0  0  0  0  0  0  0
   -2.8670   -0.0020    0.0550 C   0  0  0  0  0  0  0  0  0  0  0  0
   -4.2290    0.1060   -0.3170 N   0  0  0  0  0  0  0  0  0  0  0  0
   -5.3340   -0.4120    0.4490 C   0  0  1  0  0  0  0  0  0  0  0  0
   -6.2620    0.6770    0.9250 C   0  0  0  0  0  0  0  0  0  0  0  0
   -7.6330    0.0650    1.1030 C   0  0  0  0  0  0  0  0  0  0  0  0
   -8.2350   -0.4590   -0.1590 C   0  0  0  0  0  0  0  0  0  0  0  0
   -7.1860   -1.0550   -1.0580 C   0  0  2  0  0  0  0  0  0  0  0  0
   -7.7530   -2.2520   -1.8160 C   0  0  0  0  0  0  0  0  0  0  0  0
   -8.8720   -1.9240   -2.6420 N   0  0  0  0  0  0  0  0  0  0  0  0
   -8.6320   -1.0190   -3.5850 F   0  0  0  0  0  0  0  0  0  0  0  0
  -10.0010   -1.7200   -1.9460 F   0  0  0  0  0  0  0  0  0  0  0  0
   -6.0430   -1.5530   -0.2140 C   0  0  0  0  0  0  0  0  0  0  0  0
   -1.7730    0.5300   -0.7290 C   0  0  0  0  0  0  0  0  0  0  0  0
   -0.4170    0.4900   -0.4990 C   0  0  0  0  0  0  0  0  0  0  0  0
    0.2490    1.1240   -1.5030 C   0  0  0  0  0  0  0  0  0  0  0  0
    1.6780    1.3420   -1.6970 C   0  0  0  0  0  0  0  0  0  0  0  0
    2.6120    0.8590   -0.8200 C   0  0  0  0  0  0  0  0  0  0  0  0
    3.9950    1.0440   -0.9610 C   0  0  0  0  0  0  0  0  0  0  0  0
    4.8710    0.4890    0.0050 N   0  0  0  0  0  0  0  0  0  0  0  0
    6.2550    0.6270    0.1060 C   0  0  0  0  0  0  0  0  0  0  0  0
    6.8420    1.3250   -0.7470 O   0  0  0  0  0  0  0  0  0  0  0  0
    7.0500    0.0090    1.1380 N   0  0  0  0  0  0  0  0  0  0  0  0
    6.5490   -0.8070    2.1870 C   0  0  0  0  0  0  0  0  0  0  0  0
    7.2430   -0.6450    3.5190 C   0  0  0  0  0  0  0  0  0  0  0  0
    8.6580   -0.1980    3.4460 C   0  0  0  0  0  0  0  0  0  0  0  0
    9.2340   -0.5680    2.0870 C   0  0  0  0  0  0  0  0  0  0  0  0
    8.4810    0.2450    1.0740 C   0  0  0  0  0  0  0  0  0  0  0  0
    4.3710    1.7610   -2.0650 C   0  0  0  0  0  0  0  0  0  0  0  0
    3.4760    2.2840   -3.0000 C   0  0  0  0  0  0  0  0  0  0  0  0
    2.1380    2.0580   -2.7900 C   0  0  0  0  0  0  0  0  0  0  0  0
    1.2040    2.5360   -3.6600 F   0  0  0  0  0  0  0  0  0  0  0  0
   -0.7130    1.5570   -2.3550 N   0  0  0  0  0  0  0  0  0  0  0  0
   -1.8950    1.2040   -1.8940 N   0  0  0  0  0  0  0  0  0  0  0  0
  1  2  2  0
  2  3  1  0
  2 14  1  0
  4  3  1  6
  4  5  1  0
  4 13  1  0
  5  6  1  0
  6  7  1  0
  7  8  1  0
  8  9  1  1
  8 13  1  0
  9 10  1  0
 10 11  1  0
 10 12  1  0
 14 15  2  0
 14 34  1  0
 15 16  1  0
 16 17  1  0
 16 33  2  0
 17 18  2  0
 17 31  1  0
 18 19  1  0
 19 20  1  0
 19 29  2  0
 20 21  1  0
 21 22  2  0
 21 23  1  0
 23 24  1  0
 23 28  1  0
 24 25  1  0
 25 26  1  0
 26 27  1  0
 27 28  1  0
 29 30  1  0
 30 31  2  0
 31 32  1  0
 33 34  1  0
M  END
