
     RDKit          3D

 34 38  0  0  0  0  0  0  0  0999 V2000
    2.2670    0.7450   -0.3080 O   0  0  0  0  0  0  0  0  0  0  0  0
    1.7300    0.7900    0.8260 C   0  0  0  0  0  0  0  0  0  0  0  0
    2.3130    0.0350    1.9920 C   0  0  0  0  0  0  0  0  0  0  0  0
    3.4870   -0.6860    1.6180 N   0  0  0  0  0  0  0  0  0  0  0  0
    4.7930   -0.1990    1.2270 C   0  0  0  0  0  0  0  0  0  0  0  0
    5.1710   -1.2290    0.1600 C   0  0  0  0  0  0  0  0  0  0  0  0
    4.5650   -2.4390    0.7090 N   0  0  0  0  0  0  0  0  0  0  0  0
    3.5790   -2.1100    1.5620 C   0  0  0  0  0  0  0  0  0  0  0  0
    3.0330   -3.2580    2.0570 N   0  0  0  0  0  0  0  0  0  0  0  0
    3.6620   -4.2910    1.5280 N   0  0  0  0  0  0  0  0  0  0  0  0
    4.5970   -3.7900    0.7040 C   0  0  0  0  0  0  0  0  0  0  0  0
    5.4010   -4.4960    0.0160 O   0  0  0  0  0  0  0  0  0  0  0  0
    0.5560    1.5740    0.9720 N   0  0  0  0  0  0  0  0  0  0  0  0
   -0.0450    2.3150   -0.1030 C   0  0  0  0  0  0  0  0  0  0  0  0
   -1.0780    2.0080   -0.9420 C   0  0  0  0  0  0  0  0  0  0  0  0
   -1.9220    0.7780   -0.9740 C   0  0  0  0  0  0  0  0  0  0  0  0
   -1.6950   -0.2380   -0.2130 C   0  0  0  0  0  0  0  0  0  0  0  0
   -2.3270   -1.5390   -0.0520 C   0  0  2  0  0  0  0  0  0  0  0  0
   -2.8070   -2.2670   -1.2070 C   0  0  0  0  0  0  0  0  0  0  0  0
   -4.1330   -2.9590   -1.0870 C   0  0  0  0  0  0  0  0  0  0  0  0
   -4.4720   -3.3550    0.3200 C   0  0  0  0  0  0  0  0  0  0  0  0
   -4.4720   -2.0760    1.1310 C   0  0  0  0  0  0  0  0  0  0  0  0
   -3.0240   -1.6630    1.2680 C   0  0  0  0  0  0  0  0  0  0  0  0
   -3.1160    0.9000   -1.8550 C   0  0  1  0  0  0  0  0  0  0  0  0
   -2.7950    0.7340   -3.1650 F   0  0  0  0  0  0  0  0  0  0  0  0
   -4.1640    0.1310   -1.4590 F   0  0  0  0  0  0  0  0  0  0  0  0
   -3.5910    2.2560   -1.7530 F   0  0  0  0  0  0  0  0  0  0  0  0
   -1.2080    3.0460   -1.8000 N   0  0  0  0  0  0  0  0  0  0  0  0
   -0.2940    3.9980   -1.5280 C   0  0  0  0  0  0  0  0  0  0  0  0
   -0.0020    5.2300   -2.0890 C   0  0  0  0  0  0  0  0  0  0  0  0
    1.0130    6.0190   -1.6010 C   0  0  0  0  0  0  0  0  0  0  0  0
    1.7520    5.5710   -0.5340 C   0  0  0  0  0  0  0  0  0  0  0  0
    1.4460    4.3250    0.0220 C   0  0  0  0  0  0  0  0  0  0  0  0
    0.4310    3.5540   -0.4780 C   0  0  0  0  0  0  0  0  0  0  0  0
  1  2  2  0
  2  3  1  0
  2 13  1  0
  3  4  1  0
  4  5  1  0
  4  8  1  0
  5  6  1  0
  6  7  1  0
  7  8  1  0
  7 11  1  0
  8  9  2  0
  9 10  1  0
 10 11  1  0
 11 12  2  0
 13 14  1  0
 14 15  2  0
 14 34  1  0
 15 16  1  0
 15 28  1  0
 16 17  2  3
 16 24  1  0
 18 17  1  6
 18 19  1  0
 18 23  1  0
 19 20  1  0
 20 21  1  0
 21 22  1  0
 22 23  1  0
 24 25  1  6
 24 26  1  0
 24 27  1  0
 28 29  1  0
 29 30  2  0
 29 34  1  0
 30 31  1  0
 31 32  2  0
 32 33  1  0
 33 34  2  0
M  END
