
     RDKit          3D

 35 37  0  0  0  0  0  0  0  0999 V2000
    3.8990    1.7590    2.9480 C   0  0  0  0  0  0  0  0  0  0  0  0
    3.9170    0.4190    2.2910 C   0  0  0  0  0  0  0  0  0  0  0  0
    4.0460   -0.7390    3.0300 C   0  0  0  0  0  0  0  0  0  0  0  0
    4.0540   -1.9330    2.3410 C   0  0  0  0  0  0  0  0  0  0  0  0
    3.9370   -2.0050    0.9670 C   0  0  0  0  0  0  0  0  0  0  0  0
    3.9540   -3.3400    0.3190 C   0  0  0  0  0  0  0  0  0  0  0  0
    3.8080   -0.8450    0.2340 C   0  0  0  0  0  0  0  0  0  0  0  0
    3.7150   -0.8910   -1.2190 C   0  0  2  0  0  0  0  0  0  0  0  0
    5.0300   -1.0380   -1.7800 O   0  0  0  0  0  0  0  0  0  0  0  0
    3.1890    0.3500   -1.8950 C   0  0  1  0  0  0  0  0  0  0  0  0
    3.2660    0.0430   -3.3380 N   0  0  0  0  0  0  0  0  0  0  0  0
    1.7650    0.6050   -1.5660 C   0  0  0  0  0  0  0  0  0  0  0  0
    1.3570    1.7720   -0.9980 C   0  0  0  0  0  0  0  0  0  0  0  0
    0.0150    1.9110   -0.7100 C   0  0  0  0  0  0  0  0  0  0  0  0
   -0.9490    0.9300   -0.9630 C   0  0  0  0  0  0  0  0  0  0  0  0
   -0.5250   -0.2630   -1.5440 C   0  0  0  0  0  0  0  0  0  0  0  0
    0.8450   -0.3710   -1.8250 C   0  0  0  0  0  0  0  0  0  0  0  0
   -1.3530   -1.3600   -1.8640 N   0  0  0  0  0  0  0  0  0  0  0  0
   -2.3550   -2.0090   -1.1450 C   0  0  0  0  0  0  0  0  0  0  0  0
   -3.3720   -2.4700   -1.8090 O   0  0  0  0  0  0  0  0  0  0  0  0
   -2.4680   -2.2700    0.2760 C   0  0  0  0  0  0  0  0  0  0  0  0
   -3.1990   -3.2620    0.6800 O   0  0  0  0  0  0  0  0  0  0  0  0
   -1.8310   -1.5210    1.3750 C   0  0  0  0  0  0  0  0  0  0  0  0
   -2.9250   -0.6020    1.9280 C   0  0  1  0  0  0  0  0  0  0  0  0
   -3.4110   -1.1140    3.2220 N   0  0  0  0  0  0  0  0  0  0  0  0
   -2.3580    0.7460    2.0720 C   0  0  0  0  0  0  0  0  0  0  0  0
   -2.8880    1.8770    1.6450 C   0  0  0  0  0  0  0  0  0  0  0  0
   -4.1070    2.1070    0.9510 C   0  0  0  0  0  0  0  0  0  0  0  0
   -4.4240    1.8260   -0.3250 C   0  0  0  0  0  0  0  0  0  0  0  0
   -5.7430    2.1580   -0.7960 C   0  0  0  0  0  0  0  0  0  0  0  0
   -6.1760    1.9350   -1.9930 C   0  0  0  0  0  0  0  0  0  0  0  0
   -5.4070    1.3420   -2.9670 O   0  0  0  0  0  0  0  0  0  0  0  0
   -3.4570    1.2130   -1.2840 C   0  0  0  0  0  0  0  0  0  0  0  0
   -2.2340    1.1900   -0.6320 O   0  0  0  0  0  0  0  0  0  0  0  0
    3.8010    0.3410    0.9130 C   0  0  0  0  0  0  0  0  0  0  0  0
  1  2  1  0
  2  3  2  0
  2 35  1  0
  3  4  1  0
  4  5  2  0
  5  6  1  0
  5  7  1  0
  7  8  1  0
  7 35  2  0
  8  9  1  6
  8 10  1  0
 10 11  1  6
 10 12  1  0
 12 13  2  0
 12 17  1  0
 13 14  1  0
 14 15  2  0
 15 16  1  0
 15 34  1  0
 16 17  2  0
 16 18  1  0
 18 19  1  0
 19 20  2  0
 19 21  1  0
 21 22  2  0
 21 23  1  0
 23 24  1  0
 24 25  1  1
 24 26  1  0
 26 27  2  0
 27 28  1  0
 28 29  2  0
 29 30  1  0
 29 33  1  0
 30 31  2  3
 31 32  1  0
 33 34  1  0
M  END
