
     RDKit          3D

 35 37  0  0  0  0  0  0  0  0999 V2000
    7.6180   -2.9230   -0.7980 C   0  0  0  0  0  0  0  0  0  0  0  0
    6.9420   -1.8210   -0.0600 C   0  0  0  0  0  0  0  0  0  0  0  0
    5.6040   -2.1000    0.4500 C   0  0  0  0  0  0  0  0  0  0  0  0
    5.3370   -3.2590    1.3110 C   0  0  0  0  0  0  0  0  0  0  0  0
    4.5680   -1.3100    0.1150 C   0  0  0  0  0  0  0  0  0  0  0  0
    3.2100   -1.5550    0.6060 C   0  0  0  0  0  0  0  0  0  0  0  0
    2.2760   -0.6610    0.3900 C   0  0  0  0  0  0  0  0  0  0  0  0
    0.9880   -0.8520    0.7640 C   0  0  0  0  0  0  0  0  0  0  0  0
   -0.0030    0.1790    0.7070 C   0  0  0  0  0  0  0  0  0  0  0  0
   -1.3790   -0.2870    0.9230 C   0  0  0  0  0  0  0  0  0  0  0  0
   -2.0600    0.1160    1.9110 O   0  0  0  0  0  0  0  0  0  0  0  0
   -1.9070   -1.1790    0.0220 N   0  0  0  0  0  0  0  0  0  0  0  0
   -3.1300   -1.8230   -0.0470 C   0  0  0  0  0  0  0  0  0  0  0  0
   -4.2290   -1.5870    0.7590 C   0  0  0  0  0  0  0  0  0  0  0  0
   -5.4670   -2.1320    0.5630 C   0  0  0  0  0  0  0  0  0  0  0  0
   -6.5670   -1.8730    1.4770 C   0  0  0  0  0  0  0  0  0  0  0  0
   -7.1580   -2.9220    2.2040 N   0  0  0  0  0  0  0  0  0  0  0  0
   -6.9670   -0.6680    1.6200 O   0  0  0  0  0  0  0  0  0  0  0  0
   -5.6400   -2.9760   -0.5080 C   0  0  0  0  0  0  0  0  0  0  0  0
   -4.5860   -3.2670   -1.3680 C   0  0  0  0  0  0  0  0  0  0  0  0
   -3.3760   -2.7160   -1.1510 C   0  0  0  0  0  0  0  0  0  0  0  0
   -2.1860   -3.1740   -1.9290 C   0  0  0  0  0  0  0  0  0  0  0  0
   -2.0820   -2.7120   -3.2390 O   0  0  0  0  0  0  0  0  0  0  0  0
    0.3710    1.4350    0.2720 C   0  0  0  0  0  0  0  0  0  0  0  0
   -0.3860    2.4850    0.4530 C   0  0  0  0  0  0  0  0  0  0  0  0
   -0.3330    3.8530    0.1240 C   0  0  0  0  0  0  0  0  0  0  0  0
    0.4110    4.4570   -0.7540 C   0  0  0  0  0  0  0  0  0  0  0  0
    0.3830    5.9010   -0.9600 C   0  0  0  0  0  0  0  0  0  0  0  0
   -0.3730    6.6880   -0.2390 C   0  0  0  0  0  0  0  0  0  0  0  0
   -1.2180    6.0680    0.8490 C   0  0  1  0  0  0  0  0  0  0  0  0
   -2.5780    6.7130    0.6310 C   0  0  0  0  0  0  0  0  0  0  0  0
   -1.2090    4.7070    0.8510 O   0  0  0  0  0  0  0  0  0  0  0  0
    1.7100    1.5600   -0.0990 C   0  0  0  0  0  0  0  0  0  0  0  0
    2.1690    2.6620   -0.5100 O   0  0  0  0  0  0  0  0  0  0  0  0
    2.6220    0.5480   -0.0470 N   0  0  0  0  0  0  0  0  0  0  0  0
  1  2  1  0
  2  3  1  0
  3  4  1  0
  3  5  2  3
  5  6  1  0
  6  7  2  3
  7  8  1  0
  7 35  1  0
  8  9  2  0
  9 10  1  0
  9 24  1  0
 10 11  2  0
 10 12  1  0
 12 13  1  0
 13 14  2  0
 13 21  1  0
 14 15  1  0
 15 16  1  0
 15 19  2  0
 16 17  1  0
 16 18  2  0
 19 20  1  0
 20 21  2  0
 21 22  1  0
 22 23  1  0
 24 25  2  3
 24 33  1  0
 25 26  1  0
 26 27  2  0
 26 32  1  0
 27 28  1  0
 28 29  2  0
 29 30  1  0
 30 31  1  6
 30 32  1  0
 33 34  2  0
 33 35  1  0
M  END
