
     RDKit          3D

 34 38  0  0  0  0  0  0  0  0999 V2000
    3.2020    2.0040    3.2760 O   0  0  0  0  0  0  0  0  0  0  0  0
    3.5980    2.0000    2.0950 C   0  0  0  0  0  0  0  0  0  0  0  0
    2.6680    2.1010    0.9750 C   0  0  0  0  0  0  0  0  0  0  0  0
    3.0490    1.3600   -0.2170 N   0  0  0  0  0  0  0  0  0  0  0  0
    1.9130    0.5540   -0.6450 C   0  0  0  0  0  0  0  0  0  0  0  0
    1.6200   -0.5770    0.2870 C   0  0  0  0  0  0  0  0  0  0  0  0
    0.4480   -1.3400   -0.1950 N   0  0  0  0  0  0  0  0  0  0  0  0
    0.2550   -2.5000    0.6300 C   0  0  0  0  0  0  0  0  0  0  0  0
   -1.0870   -3.0470    0.6580 C   0  0  0  0  0  0  0  0  0  0  0  0
   -1.2810   -4.2920    1.0250 C   0  0  0  0  0  0  0  0  0  0  0  0
   -2.6200   -4.8880    1.0710 C   0  0  0  0  0  0  0  0  0  0  0  0
   -3.6710   -4.1570    0.7340 C   0  0  0  0  0  0  0  0  0  0  0  0
   -3.5420   -2.8040    0.3280 N   0  0  0  0  0  0  0  0  0  0  0  0
   -2.2300   -2.2330    0.2870 C   0  0  0  0  0  0  0  0  0  0  0  0
   -1.9910   -0.9990   -0.0640 C   0  0  0  0  0  0  0  0  0  0  0  0
   -3.0930   -0.1100   -0.4550 C   0  0  0  0  0  0  0  0  0  0  0  0
   -4.0160   -0.3690   -1.4120 C   0  0  0  0  0  0  0  0  0  0  0  0
   -5.0290    0.5310   -1.6760 C   0  0  0  0  0  0  0  0  0  0  0  0
   -5.1570    1.7220   -0.9970 C   0  0  0  0  0  0  0  0  0  0  0  0
   -6.0020    2.7750   -1.0190 N   0  0  0  0  0  0  0  0  0  0  0  0
   -5.6370    3.6880   -0.1030 C   0  0  0  0  0  0  0  0  0  0  0  0
   -6.1970    4.8050    0.1610 O   0  0  0  0  0  0  0  0  0  0  0  0
   -4.5430    3.2070    0.5070 N   0  0  0  0  0  0  0  0  0  0  0  0
   -4.2210    1.9870   -0.0260 C   0  0  0  0  0  0  0  0  0  0  0  0
   -3.2120    1.1020    0.2440 C   0  0  0  0  0  0  0  0  0  0  0  0
   -0.6490   -0.4100   -0.1220 C   0  0  0  0  0  0  0  0  0  0  0  0
    4.2220    0.5800    0.0140 C   0  0  1  0  0  0  0  0  0  0  0  0
    4.7070   -0.2240   -1.1620 C   0  0  0  0  0  0  0  0  0  0  0  0
    5.0940    0.5700   -2.3610 C   0  0  1  0  0  0  0  0  0  0  0  0
    6.1350    1.4660   -2.0790 F   0  0  0  0  0  0  0  0  0  0  0  0
    5.6700   -0.3370   -3.2640 F   0  0  0  0  0  0  0  0  0  0  0  0
    4.0830    1.1820   -3.0350 F   0  0  0  0  0  0  0  0  0  0  0  0
    5.3330    1.5580    0.4400 C   0  0  0  0  0  0  0  0  0  0  0  0
    5.0000    1.8920    1.8320 N   0  0  0  0  0  0  0  0  0  0  0  0
  1  2  2  0
  2  3  1  0
  2 34  1  0
  3  4  1  0
  4  5  1  0
  4 27  1  0
  5  6  1  0
  6  7  1  0
  7  8  1  0
  7 26  1  0
  8  9  1  0
  9 10  2  0
  9 14  1  0
 10 11  1  0
 11 12  2  0
 12 13  1  0
 13 14  1  0
 14 15  2  0
 15 16  1  0
 15 26  1  0
 16 17  2  0
 16 25  1  0
 17 18  1  0
 18 19  2  0
 19 20  1  0
 19 24  1  0
 20 21  1  0
 21 22  2  0
 21 23  1  0
 23 24  1  0
 24 25  2  0
 27 28  1  6
 27 33  1  0
 28 29  1  0
 29 30  1  1
 29 31  1  0
 29 32  1  0
 33 34  1  0
M  END
