
     RDKit          3D

 35 37  0  0  0  0  0  0  0  0999 V2000
   -3.0820   -0.5120   -3.1850 C   0  0  0  0  0  0  0  0  0  0  0  0
   -2.6200   -0.6300   -1.9560 C   0  0  0  0  0  0  0  0  0  0  0  0
   -1.6860   -1.6690   -1.6680 N   0  0  0  0  0  0  0  0  0  0  0  0
   -0.5180   -1.8020   -0.9560 C   0  0  0  0  0  0  0  0  0  0  0  0
   -0.5640   -2.6180    0.0480 O   0  0  0  0  0  0  0  0  0  0  0  0
    0.8370   -1.1570   -1.1350 C   0  0  0  0  0  0  0  0  0  0  0  0
    1.8700   -1.9330   -0.3740 C   0  0  0  0  0  0  0  0  0  0  0  0
    1.9220   -3.2350   -0.9100 C   0  0  0  0  0  0  0  0  0  0  0  0
    2.7680   -4.2070   -0.4230 C   0  0  0  0  0  0  0  0  0  0  0  0
    3.5900   -3.8780    0.6290 C   0  0  0  0  0  0  0  0  0  0  0  0
    3.5080   -2.5850    1.1290 C   0  0  0  0  0  0  0  0  0  0  0  0
    2.6690   -1.5630    0.6720 C   0  0  0  0  0  0  0  0  0  0  0  0
    2.8190   -0.3150    1.4130 C   0  0  1  0  0  0  0  0  0  0  0  0
    3.4940    0.6870    0.5200 C   0  0  0  0  0  0  0  0  0  0  0  0
    4.8740    0.6200    0.3470 C   0  0  0  0  0  0  0  0  0  0  0  0
    5.5180    1.5180   -0.4520 C   0  0  0  0  0  0  0  0  0  0  0  0
    4.8810    2.5310   -1.1320 C   0  0  0  0  0  0  0  0  0  0  0  0
    5.6270    3.4680   -1.9780 C   0  0  0  0  0  0  0  0  0  0  0  0
    5.0070    4.3660   -2.5720 O   0  0  0  0  0  0  0  0  0  0  0  0
    3.5230    2.6100   -0.9720 C   0  0  0  0  0  0  0  0  0  0  0  0
    2.8560    1.6910   -0.1530 C   0  0  0  0  0  0  0  0  0  0  0  0
    1.8580    0.3790    2.1070 N   0  0  0  0  0  0  0  0  0  0  0  0
    0.7200    1.1790    1.9570 C   0  0  0  0  0  0  0  0  0  0  0  0
    0.8310    2.3460    2.5620 O   0  0  0  0  0  0  0  0  0  0  0  0
   -0.5760    1.0550    1.2920 C   0  0  0  0  0  0  0  0  0  0  0  0
   -1.5530    0.2280    1.2200 C   0  0  0  0  0  0  0  0  0  0  0  0
   -2.8840    0.1430    0.5110 C   0  0  0  0  0  0  0  0  0  0  0  0
   -3.9760   -0.1140    1.2760 C   0  0  0  0  0  0  0  0  0  0  0  0
   -3.8010   -0.2750    2.7090 N   0  0  0  0  0  0  0  0  0  0  0  0
   -5.3430   -0.3820    0.8380 C   0  0  0  0  0  0  0  0  0  0  0  0
   -5.5350   -0.3890   -0.5270 O   0  0  0  0  0  0  0  0  0  0  0  0
   -3.1210    0.3350   -0.9230 C   0  0  0  0  0  0  0  0  0  0  0  0
   -3.7720    1.4400   -1.2720 C   0  0  0  0  0  0  0  0  0  0  0  0
   -4.3260    2.4890   -0.4190 C   0  0  0  0  0  0  0  0  0  0  0  0
   -5.7100    2.6540   -0.5610 O   0  0  0  0  0  0  0  0  0  0  0  0
  1  2  2  0
  2  3  1  0
  2 32  1  0
  3  4  1  0
  4  5  2  0
  4  6  1  0
  6  7  1  0
  7  8  2  0
  7 12  1  0
  8  9  1  0
  9 10  2  0
 10 11  1  0
 11 12  2  0
 12 13  1  0
 13 14  1  6
 13 22  1  0
 14 15  2  0
 14 21  1  0
 15 16  1  0
 16 17  2  0
 17 18  1  0
 17 20  1  0
 18 19  2  0
 20 21  2  0
 22 23  1  0
 23 24  2  0
 23 25  1  0
 25 26  2  0
 26 27  1  0
 27 28  2  3
 27 32  1  0
 28 29  1  0
 28 30  1  0
 30 31  1  0
 32 33  2  3
 33 34  1  0
 34 35  1  0
M  END
