
     RDKit          3D

 28 28  0  0  0  0  0  0  0  0999 V2000
   -5.2540    3.2180    1.0860 C   0  0  0  0  0  0  0  0  0  0  0  0
   -4.5440    1.9970    1.5680 C   0  0  0  0  0  0  0  0  0  0  0  0
   -3.7570    1.3400    0.3810 C   0  0  1  0  0  0  0  0  0  0  0  0
   -2.8750    2.3670   -0.0050 O   0  0  0  0  0  0  0  0  0  0  0  0
   -3.0670    0.1930    1.0140 C   0  0  0  0  0  0  0  0  0  0  0  0
   -2.2380   -0.7410    0.2460 C   0  0  1  0  0  0  0  0  0  0  0  0
   -2.7770   -1.5530   -0.8400 C   0  0  0  0  0  0  0  0  0  0  0  0
   -3.8370   -2.5440   -0.6080 C   0  0  2  0  0  0  0  0  0  0  0  0
   -4.1020   -3.2060   -1.9910 C   0  0  0  0  0  0  0  0  0  0  0  0
   -5.1450   -1.9060   -0.2560 C   0  0  0  0  0  0  0  0  0  0  0  0
   -3.4960   -3.5890    0.2300 O   0  0  0  0  0  0  0  0  0  0  0  0
   -0.9040   -0.2660   -0.1270 N   0  0  0  0  0  0  0  0  0  0  0  0
   -0.5420    0.5960   -1.1890 C   0  0  0  0  0  0  0  0  0  0  0  0
   -1.2500    1.1100   -2.0580 O   0  0  0  0  0  0  0  0  0  0  0  0
    0.9130    0.8250   -1.1340 C   0  0  0  0  0  0  0  0  0  0  0  0
    1.4400    0.1660   -0.1260 C   0  0  0  0  0  0  0  0  0  0  0  0
    2.8080    0.0900    0.3130 N   0  0  0  0  0  0  0  0  0  0  0  0
    3.8620    0.7600   -0.3200 C   0  0  0  0  0  0  0  0  0  0  0  0
    3.6760    1.4820   -1.3270 O   0  0  0  0  0  0  0  0  0  0  0  0
    5.2600    0.6450    0.1790 C   0  0  1  0  0  0  0  0  0  0  0  0
    5.3100    1.1660    1.6060 C   0  0  0  0  0  0  0  0  0  0  0  0
    5.6730   -0.8280    0.2610 C   0  0  0  0  0  0  0  0  0  0  0  0
    7.0790   -0.9180    0.7640 C   0  0  0  0  0  0  0  0  0  0  0  0
    6.1860    1.4040   -0.6020 N   0  0  0  0  0  0  0  0  0  0  0  0
    6.3860    1.1700   -1.9910 C   0  0  0  0  0  0  0  0  0  0  0  0
    5.7210    0.2640   -2.5420 O   0  0  0  0  0  0  0  0  0  0  0  0
    0.3420   -0.5320    0.5340 C   0  0  0  0  0  0  0  0  0  0  0  0
    0.4690   -1.2670    1.5450 O   0  0  0  0  0  0  0  0  0  0  0  0
  1  2  1  0
  2  3  1  0
  3  4  1  1
  3  5  1  0
  6  5  1  6
  6  7  1  0
  6 12  1  0
  7  8  1  0
  8  9  1  6
  8 10  1  0
  8 11  1  0
 12 13  1  0
 12 27  1  0
 13 14  2  0
 13 15  1  0
 15 16  2  0
 16 17  1  0
 16 27  1  0
 17 18  1  0
 18 19  2  0
 18 20  1  0
 20 21  1  1
 20 22  1  0
 20 24  1  0
 22 23  1  0
 24 25  1  0
 25 26  2  0
 27 28  2  0
M  END
