
     RDKit          3D

 28 27  0  0  0  0  0  0  0  0999 V2000
   -3.3020   -3.1760    1.8680 C   0  0  0  0  0  0  0  0  0  0  0  0
   -3.9270   -1.8670    2.2440 C   0  0  0  0  0  0  0  0  0  0  0  0
   -3.8560   -0.9890    1.1410 O   0  0  0  0  0  0  0  0  0  0  0  0
   -2.5770   -0.6530    0.6240 C   0  0  0  0  0  0  0  0  0  0  0  0
   -1.6230   -1.1920    1.2270 O   0  0  0  0  0  0  0  0  0  0  0  0
   -2.5040    0.2450   -0.5050 C   0  0  0  0  0  0  0  0  0  0  0  0
   -3.8220    0.7590   -1.0340 C   0  0  0  0  0  0  0  0  0  0  0  0
   -4.4970    1.4560   -0.0300 O   0  0  0  0  0  0  0  0  0  0  0  0
   -5.7160    1.9460   -0.4770 C   0  0  0  0  0  0  0  0  0  0  0  0
   -6.3850    2.6730    0.6280 C   0  0  0  0  0  0  0  0  0  0  0  0
   -7.6570    3.2650    0.3990 N   0  0  0  0  0  0  0  0  0  0  0  0
   -5.8190    2.7530    1.7470 O   0  0  0  0  0  0  0  0  0  0  0  0
   -1.3970    0.6450   -1.0900 C   0  0  0  0  0  0  0  0  0  0  0  0
   -1.5680    1.5680   -2.2330 C   0  0  0  0  0  0  0  0  0  0  0  0
   -0.1250    0.2430   -0.6770 N   0  0  0  0  0  0  0  0  0  0  0  0
    1.1360    0.5790   -1.1910 C   0  0  0  0  0  0  0  0  0  0  0  0
    1.1900    1.3690   -2.1790 O   0  0  0  0  0  0  0  0  0  0  0  0
    2.3630    0.0850   -0.6680 N   0  0  0  0  0  0  0  0  0  0  0  0
    2.3790   -0.8250    0.4280 C   0  0  0  0  0  0  0  0  0  0  0  0
    2.4060    0.0250    1.6950 C   0  0  0  0  0  0  0  0  0  0  0  0
    2.4250   -0.8170    2.9440 C   0  0  1  0  0  0  0  0  0  0  0  0
    3.6100   -1.7260    3.0380 C   0  0  0  0  0  0  0  0  0  0  0  0
    2.5160    0.1630    4.1150 C   0  0  0  0  0  0  0  0  0  0  0  0
    3.6020    0.5140   -1.2560 C   0  0  0  0  0  0  0  0  0  0  0  0
    4.0490   -0.3850   -2.3870 C   0  0  1  0  0  0  0  0  0  0  0  0
    3.0880   -0.4050   -3.3990 O   0  0  0  0  0  0  0  0  0  0  0  0
    5.2880    0.2690   -3.0010 C   0  0  0  0  0  0  0  0  0  0  0  0
    5.8040   -0.5790   -4.1550 C   0  0  0  0  0  0  0  0  0  0  0  0
  1  2  1  0
  2  3  1  0
  3  4  1  0
  4  5  2  0
  4  6  1  0
  6  7  1  0
  6 13  2  3
  7  8  1  0
  8  9  1  0
  9 10  1  0
 10 11  1  0
 10 12  2  0
 13 14  1  0
 13 15  1  0
 15 16  1  0
 16 17  2  0
 16 18  1  0
 18 19  1  0
 18 24  1  0
 19 20  1  0
 20 21  1  0
 21 22  1  6
 21 23  1  0
 24 25  1  0
 25 26  1  6
 25 27  1  0
 27 28  1  0
M  END
