
     RDKit          3D

 28 28  0  0  0  0  0  0  0  0999 V2000
   -5.6310    2.8960   -1.9870 C   0  0  0  0  0  0  0  0  0  0  0  0
   -4.3910    2.0730   -1.6760 C   0  0  0  0  0  0  0  0  0  0  0  0
   -3.2420    2.6880   -2.4460 C   0  0  0  0  0  0  0  0  0  0  0  0
   -1.9430    1.9810   -2.2380 C   0  0  0  0  0  0  0  0  0  0  0  0
   -1.4870    1.9580   -0.8190 C   0  0  0  0  0  0  0  0  0  0  0  0
   -0.1490    1.2250   -0.6570 C   0  0  1  0  0  0  0  0  0  0  0  0
   -0.2260   -0.1860   -1.1100 C   0  0  0  0  0  0  0  0  0  0  0  0
   -1.1820   -1.0450   -0.4040 C   0  0  0  0  0  0  0  0  0  0  0  0
   -1.8320   -0.6070    0.5690 O   0  0  0  0  0  0  0  0  0  0  0  0
   -1.4330   -2.4000   -0.7630 N   0  0  0  0  0  0  0  0  0  0  0  0
   -2.3650   -3.2420   -0.0770 C   0  0  2  0  0  0  0  0  0  0  0  0
   -3.7840   -2.7190   -0.1030 C   0  0  0  0  0  0  0  0  0  0  0  0
   -2.0020   -3.4630    1.3730 C   0  0  0  0  0  0  0  0  0  0  0  0
   -2.3730   -4.6010   -0.7440 C   0  0  0  0  0  0  0  0  0  0  0  0
    0.8580    1.9300   -1.2930 O   0  0  0  0  0  0  0  0  0  0  0  0
    1.7390    2.5820   -0.4860 C   0  0  0  0  0  0  0  0  0  0  0  0
    2.5930    1.7890    0.4270 C   0  0  0  0  0  0  0  0  0  0  0  0
    3.5490    0.8420   -0.2350 C   0  0  0  0  0  0  0  0  0  0  0  0
    4.3410    0.0960    0.7160 N   0  0  0  0  0  0  0  0  0  0  0  0
    5.2080    0.7360    1.6390 C   0  0  0  0  0  0  0  0  0  0  0  0
    5.3320    1.9890    1.6750 O   0  0  0  0  0  0  0  0  0  0  0  0
    6.0260   -0.0180    2.6240 C   0  0  2  0  0  0  0  0  0  0  0  0
    5.8400   -1.4040    2.5300 O   0  0  0  0  0  0  0  0  0  0  0  0
    6.0550   -1.9350    3.7940 C   0  0  0  0  0  0  0  0  0  0  0  0
    6.3190   -3.1410    4.1000 O   0  0  0  0  0  0  0  0  0  0  0  0
    5.9390   -0.9040    4.7700 N   0  0  0  0  0  0  0  0  0  0  0  0
    5.6430    0.2740    4.0200 C   0  0  0  0  0  0  0  0  0  0  0  0
    5.1480    1.3260    4.5230 O   0  0  0  0  0  0  0  0  0  0  0  0
  1  2  1  0
  2  3  1  0
  3  4  1  0
  4  5  1  0
  6  5  1  6
  6  7  1  0
  6 15  1  0
  7  8  1  0
  8  9  2  0
  8 10  1  0
 10 11  1  0
 11 12  1  1
 11 13  1  0
 11 14  1  0
 15 16  1  0
 16 17  1  0
 17 18  1  0
 18 19  1  0
 19 20  1  0
 20 21  2  0
 22 20  1  6
 22 23  1  0
 22 27  1  0
 23 24  1  0
 24 25  2  0
 24 26  1  0
 26 27  1  0
 27 28  2  0
M  END
