
     RDKit          3D

 28 28  0  0  0  0  0  0  0  0999 V2000
    6.3570    1.7440   -0.7660 C   0  0  0  0  0  0  0  0  0  0  0  0
    5.7930    0.4430   -0.2470 C   0  0  0  0  0  0  0  0  0  0  0  0
    5.1100    0.6280    1.0910 C   0  0  0  0  0  0  0  0  0  0  0  0
    4.5320   -0.6130    1.6400 C   0  0  0  0  0  0  0  0  0  0  0  0
    3.5100   -1.3370    0.8620 C   0  0  0  0  0  0  0  0  0  0  0  0
    2.2230   -0.6790    0.5540 C   0  0  2  0  0  0  0  0  0  0  0  0
    1.3770   -1.6830   -0.2540 C   0  0  0  0  0  0  0  0  0  0  0  0
    0.0890   -1.1270   -0.6020 N   0  0  0  0  0  0  0  0  0  0  0  0
    0.0200   -0.4180   -1.8380 C   0  0  0  0  0  0  0  0  0  0  0  0
    1.0530   -0.3020   -2.5650 O   0  0  0  0  0  0  0  0  0  0  0  0
   -1.2160    0.1360   -2.2090 N   0  0  0  0  0  0  0  0  0  0  0  0
   -2.4420   -0.5130   -1.7060 C   0  0  2  0  0  0  0  0  0  0  0  0
   -2.4370   -1.8040   -2.2320 O   0  0  0  0  0  0  0  0  0  0  0  0
   -3.5480    0.2380   -2.3350 C   0  0  0  0  0  0  0  0  0  0  0  0
   -4.9510   -0.2020   -2.0170 C   0  0  0  0  0  0  0  0  0  0  0  0
   -5.9470    0.6420   -2.7310 C   0  0  0  0  0  0  0  0  0  0  0  0
   -6.2020    1.7540   -2.3400 O   0  0  0  0  0  0  0  0  0  0  0  0
   -2.4150   -0.6360   -0.2180 C   0  0  2  0  0  0  0  0  0  0  0  0
   -3.4230   -1.6640    0.2530 C   0  0  0  0  0  0  0  0  0  0  0  0
   -2.5990    0.6210    0.5260 C   0  0  0  0  0  0  0  0  0  0  0  0
   -2.5730    0.4860    2.0300 C   0  0  0  0  0  0  0  0  0  0  0  0
   -2.7790    1.8040    2.6680 C   0  0  0  0  0  0  0  0  0  0  0  0
   -2.8480    1.9000    4.0660 N   0  0  0  0  0  0  0  0  0  0  0  0
   -2.8890    2.8160    1.9610 O   0  0  0  0  0  0  0  0  0  0  0  0
   -1.0820   -1.2200    0.1510 C   0  0  0  0  0  0  0  0  0  0  0  0
   -0.9820   -1.8680    1.2470 O   0  0  0  0  0  0  0  0  0  0  0  0
    2.3990    0.4740   -0.1880 O   0  0  0  0  0  0  0  0  0  0  0  0
    1.7260    1.5650    0.3790 C   0  0  0  0  0  0  0  0  0  0  0  0
  1  2  1  0
  2  3  1  0
  3  4  1  0
  4  5  1  0
  6  5  1  6
  6  7  1  0
  6 27  1  0
  7  8  1  0
  8  9  1  0
  8 25  1  0
  9 10  2  0
  9 11  1  0
 11 12  1  0
 12 13  1  6
 12 14  1  0
 12 18  1  0
 14 15  1  0
 15 16  1  0
 16 17  2  0
 18 19  1  1
 18 20  1  0
 18 25  1  0
 20 21  1  0
 21 22  1  0
 22 23  1  0
 22 24  2  0
 25 26  2  0
 27 28  1  0
M  END
