
     RDKit          3D

 16 16  0  0  0  0  0  0  0  0999 V2000
    2.4190   -0.6710    0.5710 O   0  0  0  0  0  0  0  0  0  0  0  0
    3.5140   -0.4130   -0.2280 C   0  0  0  0  0  0  0  0  0  0  0  0
    2.9870    0.0480   -1.5850 C   0  0  0  0  0  0  0  0  0  0  0  0
    2.2250    1.2120   -1.3340 O   0  0  0  0  0  0  0  0  0  0  0  0
    1.0810    1.1120   -0.4510 C   0  0  0  0  0  0  0  0  0  0  0  0
    1.1890    1.9090    0.6260 O   0  0  0  0  0  0  0  0  0  0  0  0
    0.1850    0.2920   -0.8540 C   0  0  0  0  0  0  0  0  0  0  0  0
   -1.0920   -0.2040   -0.4330 C   0  0  0  0  0  0  0  0  0  0  0  0
   -1.7460   -1.1100   -1.1940 C   0  0  0  0  0  0  0  0  0  0  0  0
   -0.8980   -1.6760   -2.8110 Br  0  0  0  0  0  0  0  0  0  0  0  0
   -3.0500   -1.6950   -0.8810 C   0  0  0  0  0  0  0  0  0  0  0  0
   -3.6380   -1.2570    0.2820 O   0  0  0  0  0  0  0  0  0  0  0  0
   -3.0040   -0.3380    1.0840 C   0  0  0  0  0  0  0  0  0  0  0  0
   -1.8060    0.1730    0.7700 C   0  0  0  0  0  0  0  0  0  0  0  0
   -1.2250    1.1650    1.7410 C   0  0  0  0  0  0  0  0  0  0  0  0
   -2.1600    1.3190    2.8130 O   0  0  0  0  0  0  0  0  0  0  0  0
  1  2  1  0
  2  3  1  0
  3  4  1  0
  4  5  1  0
  5  6  1  0
  5  7  2  3
  7  8  1  0
  8  9  2  0
  8 14  1  0
  9 10  1  0
  9 11  1  0
 11 12  1  0
 12 13  1  0
 13 14  2  0
 14 15  1  0
 15 16  1  0
M  END
