
     RDKit          3D

 16 16  0  0  0  0  0  0  0  0999 V2000
    3.6460   -1.7190    0.7850 O   0  0  0  0  0  0  0  0  0  0  0  0
    4.2200   -0.4620    0.7060 C   0  0  0  0  0  0  0  0  0  0  0  0
    3.4410    0.3810   -0.2960 C   0  0  1  0  0  0  0  0  0  0  0  0
    3.5150   -0.2780   -1.5220 O   0  0  0  0  0  0  0  0  0  0  0  0
    1.9960    0.5350    0.1560 C   0  0  0  0  0  0  0  0  0  0  0  0
    1.3500    1.2740   -0.8210 O   0  0  0  0  0  0  0  0  0  0  0  0
   -0.0070    1.4760   -0.4970 C   0  0  0  0  0  0  0  0  0  0  0  0
   -0.5750    0.2310   -0.3970 O   0  0  0  0  0  0  0  0  0  0  0  0
   -1.8540   -0.1510   -0.1060 C   0  0  0  0  0  0  0  0  0  0  0  0
   -2.2510   -1.4350   -0.0240 C   0  0  0  0  0  0  0  0  0  0  0  0
   -3.6540   -1.4960    0.2980 C   0  0  0  0  0  0  0  0  0  0  0  0
   -4.4450   -2.6480    0.4710 O   0  0  0  0  0  0  0  0  0  0  0  0
   -4.1750   -0.2940    0.4250 C   0  0  0  0  0  0  0  0  0  0  0  0
   -3.0380    0.6340    0.1700 C   0  0  0  0  0  0  0  0  0  0  0  0
   -3.1240    1.9430    0.1990 C   0  0  0  0  0  0  0  0  0  0  0  0
   -4.7940    2.7620    0.5870 Br  0  0  0  0  0  0  0  0  0  0  0  0
  1  2  1  0
  2  3  1  0
  3  4  1  6
  3  5  1  0
  5  6  1  0
  6  7  1  0
  7  8  1  0
  8  9  1  0
  9 10  2  0
  9 14  1  0
 10 11  1  0
 11 12  1  0
 11 13  2  0
 13 14  1  0
 14 15  2  3
 15 16  1  0
M  END
