
     RDKit          3D

 16 16  0  0  0  0  0  0  0  0999 V2000
   -2.8600   -2.0320   -0.6020 O   0  0  0  0  0  0  0  0  0  0  0  0
   -1.6560   -1.3840   -0.6430 C   0  0  0  0  0  0  0  0  0  0  0  0
   -1.6690   -0.0020   -0.0460 C   0  0  1  0  0  0  0  0  0  0  0  0
   -2.6310    0.9090   -0.7460 C   0  0  0  0  0  0  0  0  0  0  0  0
   -3.9350    0.5020   -0.7220 O   0  0  0  0  0  0  0  0  0  0  0  0
   -1.8870    0.0090    1.4320 C   0  0  0  0  0  0  0  0  0  0  0  0
   -3.0560   -0.5420    1.8620 O   0  0  0  0  0  0  0  0  0  0  0  0
   -0.2720    0.5710   -0.2940 C   0  0  0  0  0  0  0  0  0  0  0  0
    0.7120   -0.2340    0.3250 O   0  0  0  0  0  0  0  0  0  0  0  0
    2.0590    0.0460    0.2650 C   0  0  0  0  0  0  0  0  0  0  0  0
    2.8830   -0.7230   -0.4310 C   0  0  0  0  0  0  0  0  0  0  0  0
    4.3420   -0.4900   -0.5450 C   0  0  0  0  0  0  0  0  0  0  0  0
    4.7490    0.6450    0.1730 O   0  0  0  0  0  0  0  0  0  0  0  0
    3.8980    1.4590    0.9060 C   0  0  0  0  0  0  0  0  0  0  0  0
    2.6080    1.2010    0.9700 C   0  0  0  0  0  0  0  0  0  0  0  0
    1.4330    2.3050    1.9680 Br  0  0  0  0  0  0  0  0  0  0  0  0
  1  2  1  0
  3  2  1  6
  3  4  1  0
  3  6  1  0
  3  8  1  0
  4  5  1  0
  6  7  1  0
  8  9  1  0
  9 10  1  0
 10 11  2  0
 10 15  1  0
 11 12  1  0
 12 13  1  0
 13 14  1  0
 14 15  2  0
 15 16  1  0
M  END
