
     RDKit          3D

 16 16  0  0  0  0  0  0  0  0999 V2000
   -3.0420    1.3810    1.4370 C   0  0  0  0  0  0  0  0  0  0  0  0
   -2.0490    0.5580    0.6570 C   0  0  0  0  0  0  0  0  0  0  0  0
   -0.7830    0.8680    0.4750 C   0  0  0  0  0  0  0  0  0  0  0  0
    0.0340    2.4510    1.1850 Br  0  0  0  0  0  0  0  0  0  0  0  0
   -0.1260   -0.1520   -0.3260 C   0  0  0  0  0  0  0  0  0  0  0  0
    1.2950   -0.1560   -0.7400 C   0  0  0  0  0  0  0  0  0  0  0  0
    1.7360   -1.0950   -1.4290 O   0  0  0  0  0  0  0  0  0  0  0  0
    2.1050    0.8710   -0.3600 O   0  0  0  0  0  0  0  0  0  0  0  0
    3.4490    0.9590   -0.6940 C   0  0  0  0  0  0  0  0  0  0  0  0
    4.2250   -0.2060   -0.1340 C   0  0  0  0  0  0  0  0  0  0  0  0
    5.5530   -0.0180   -0.5260 O   0  0  0  0  0  0  0  0  0  0  0  0
   -1.0100   -1.0820   -0.6260 C   0  0  0  0  0  0  0  0  0  0  0  0
   -0.7140   -2.2320   -1.4000 O   0  0  0  0  0  0  0  0  0  0  0  0
   -2.2900   -0.7120   -0.0330 C   0  0  2  0  0  0  0  0  0  0  0  0
   -3.4090   -0.6210   -1.0480 C   0  0  0  0  0  0  0  0  0  0  0  0
   -2.6830   -1.6800    0.9010 O   0  0  0  0  0  0  0  0  0  0  0  0
  1  2  1  0
  2  3  2  0
  2 14  1  0
  3  4  1  0
  3  5  1  0
  5  6  1  0
  5 12  2  0
  6  7  2  0
  6  8  1  0
  8  9  1  0
  9 10  1  0
 10 11  1  0
 12 13  1  0
 12 14  1  0
 14 15  1  6
 14 16  1  0
M  END
