
     RDKit          3D

 26 28  0  0  0  0  0  0  0  0999 V2000
    8.8860    0.0200    0.4220 C   0  0  0  0  0  0  0  0  0  0  0  0
    7.9330   -1.0220    0.4050 O   0  0  0  0  0  0  0  0  0  0  0  0
    6.5750   -0.6980    0.4420 C   0  0  0  0  0  0  0  0  0  0  0  0
    5.5940   -1.6580    0.4280 C   0  0  0  0  0  0  0  0  0  0  0  0
    4.2270   -1.3540    0.4660 C   0  0  0  0  0  0  0  0  0  0  0  0
    3.8110   -0.0500    0.5180 C   0  0  0  0  0  0  0  0  0  0  0  0
    2.4690    0.3470    0.5400 N   0  0  0  0  0  0  0  0  0  0  0  0
    1.3960   -0.4970    0.2350 C   0  0  0  0  0  0  0  0  0  0  0  0
    1.5110   -1.7020   -0.0990 O   0  0  0  0  0  0  0  0  0  0  0  0
    0.0320    0.0130    0.2950 C   0  0  0  0  0  0  0  0  0  0  0  0
   -1.0340   -0.7130   -0.2500 C   0  0  0  0  0  0  0  0  0  0  0  0
   -2.3340   -0.2770   -0.2130 C   0  0  0  0  0  0  0  0  0  0  0  0
   -2.6380    0.9140    0.3740 C   0  0  0  0  0  0  0  0  0  0  0  0
   -3.9820    1.3780    0.4190 N   0  0  0  0  0  0  0  0  0  0  0  0
   -4.9900    0.5460   -0.1730 C   0  0  0  0  0  0  0  0  0  0  0  0
   -5.5480   -0.5250    0.3450 C   0  0  0  0  0  0  0  0  0  0  0  0
   -5.2040   -1.0690    1.6950 C   0  0  0  0  0  0  0  0  0  0  0  0
   -6.5390   -1.0910   -0.5750 C   0  0  0  0  0  0  0  0  0  0  0  0
   -6.9960   -2.2420   -0.6160 O   0  0  0  0  0  0  0  0  0  0  0  0
   -6.8810    0.0570   -1.4710 C   0  0  0  0  0  0  0  0  0  0  0  0
   -5.5630    0.7830   -1.5110 C   0  0  0  0  0  0  0  0  0  0  0  0
   -1.6220    1.6880    0.9360 C   0  0  0  0  0  0  0  0  0  0  0  0
   -1.9970    3.2220    1.6940 Cl  0  0  0  0  0  0  0  0  0  0  0  0
   -0.3160    1.2050    0.8760 C   0  0  0  0  0  0  0  0  0  0  0  0
    4.8170    0.9330    0.5330 C   0  0  0  0  0  0  0  0  0  0  0  0
    6.1450    0.6090    0.4960 C   0  0  0  0  0  0  0  0  0  0  0  0
  1  2  1  0
  2  3  1  0
  3  4  2  0
  3 26  1  0
  4  5  1  0
  5  6  2  0
  6  7  1  0
  6 25  1  0
  7  8  1  0
  8  9  2  0
  8 10  1  0
 10 11  2  0
 10 24  1  0
 11 12  1  0
 12 13  2  0
 13 14  1  0
 13 22  1  0
 14 15  1  0
 15 16  2  0
 15 21  1  0
 16 17  1  0
 16 18  1  0
 18 19  2  0
 18 20  1  0
 20 21  1  0
 22 23  1  0
 22 24  2  0
 25 26  2  0
M  END
