
     RDKit          3D

 16 16  0  0  0  0  0  0  0  0999 V2000
   -3.5970    1.7030   -0.6000 C   0  0  0  0  0  0  0  0  0  0  0  0
   -2.2260    1.2660   -0.2300 C   0  0  0  0  0  0  0  0  0  0  0  0
   -1.2800    2.2790   -0.0100 O   0  0  0  0  0  0  0  0  0  0  0  0
   -1.9170   -0.0110   -0.1140 C   0  0  0  0  0  0  0  0  0  0  0  0
   -0.6250   -0.3420    0.2320 O   0  0  0  0  0  0  0  0  0  0  0  0
    0.3690    0.5560    0.6350 C   0  0  0  0  0  0  0  0  0  0  0  0
    1.6320   -0.2790    0.9250 C   0  0  1  0  0  0  0  0  0  0  0  0
    2.0210   -0.9210   -0.3900 C   0  0  0  0  0  0  0  0  0  0  0  0
    2.9850   -0.1610   -1.0530 O   0  0  0  0  0  0  0  0  0  0  0  0
    4.1430   -0.0080   -0.3300 C   0  0  0  0  0  0  0  0  0  0  0  0
    3.9050   -0.0190    1.1600 C   0  0  0  0  0  0  0  0  0  0  0  0
    2.6540    0.5710    1.3750 O   0  0  0  0  0  0  0  0  0  0  0  0
   -2.9120   -1.0650   -0.3440 C   0  0  0  0  0  0  0  0  0  0  0  0
   -4.2210   -0.7280   -0.7030 O   0  0  0  0  0  0  0  0  0  0  0  0
   -2.6050   -2.3410   -0.2220 C   0  0  0  0  0  0  0  0  0  0  0  0
   -0.8700   -2.8950    0.2590 Br  0  0  0  0  0  0  0  0  0  0  0  0
  1  2  1  0
  2  3  1  0
  2  4  2  3
  4  5  1  0
  4 13  1  0
  5  6  1  0
  7  6  1  6
  7  8  1  0
  7 12  1  0
  8  9  1  0
  9 10  1  0
 10 11  1  0
 11 12  1  0
 13 14  1  0
 13 15  2  3
 15 16  1  0
M  END
