
     RDKit          3D

 16 16  0  0  0  0  0  0  0  0999 V2000
   -2.0010   -1.3150   -2.0600 O   0  0  0  0  0  0  0  0  0  0  0  0
   -1.9800   -0.4700   -1.1020 C   0  0  0  0  0  0  0  0  0  0  0  0
   -0.7430   -0.2740   -0.5110 O   0  0  0  0  0  0  0  0  0  0  0  0
    0.4230   -0.9630   -0.9350 C   0  0  0  0  0  0  0  0  0  0  0  0
    1.6080   -0.5560   -0.1210 C   0  0  0  0  0  0  0  0  0  0  0  0
    2.2790   -1.4560    0.5890 C   0  0  0  0  0  0  0  0  0  0  0  0
    3.4600   -1.1140    1.4140 C   0  0  0  0  0  0  0  0  0  0  0  0
    3.7990    0.2400    1.3740 O   0  0  0  0  0  0  0  0  0  0  0  0
    3.1290    1.2010    0.6500 C   0  0  0  0  0  0  0  0  0  0  0  0
    3.5800    2.5150    0.7030 O   0  0  0  0  0  0  0  0  0  0  0  0
    2.0830    0.8160   -0.0630 C   0  0  0  0  0  0  0  0  0  0  0  0
   -3.1940    0.2190   -0.6920 C   0  0  0  0  0  0  0  0  0  0  0  0
   -4.3130   -0.0310   -1.3100 C   0  0  0  0  0  0  0  0  0  0  0  0
   -4.3450   -1.2870   -2.7330 Br  0  0  0  0  0  0  0  0  0  0  0  0
   -3.0590    1.1820    0.4330 C   0  0  0  0  0  0  0  0  0  0  0  0
   -2.5990    0.4750    1.5340 O   0  0  0  0  0  0  0  0  0  0  0  0
  1  2  2  0
  2  3  1  0
  2 12  1  0
  3  4  1  0
  4  5  1  0
  5  6  2  0
  5 11  1  0
  6  7  1  0
  7  8  1  0
  8  9  1  0
  9 10  1  0
  9 11  2  0
 12 13  2  3
 12 15  1  0
 13 14  1  0
 15 16  1  0
M  END
