
     RDKit          3D

 20 21  0  0  0  0  0  0  0  0999 V2000
    5.5670    0.6410   -1.7880 N   0  0  0  0  0  0  0  0  0  0  0  0
    4.5990    0.3590   -0.7860 C   0  0  0  0  0  0  0  0  0  0  0  0
    4.5280   -0.8780   -0.1840 C   0  0  0  0  0  0  0  0  0  0  0  0
    3.5740   -1.1320    0.7930 C   0  0  0  0  0  0  0  0  0  0  0  0
    2.6690   -0.1560    1.1920 C   0  0  0  0  0  0  0  0  0  0  0  0
    1.6980   -0.4310    2.1930 N   0  0  0  0  0  0  0  0  0  0  0  0
    2.7430    1.0850    0.5850 C   0  0  0  0  0  0  0  0  0  0  0  0
    1.6260    2.4020    1.0280 S   0  0  0  0  0  0  0  0  0  0  0  0
    0.1330    2.3640    0.0000 C   0  0  0  0  0  0  0  0  0  0  0  0
   -0.6430    1.1330    0.3110 C   0  0  0  0  0  0  0  0  0  0  0  0
   -1.8900    1.0180   -0.4890 C   0  0  0  0  0  0  0  0  0  0  0  0
   -2.0980    1.9230   -1.3370 O   0  0  0  0  0  0  0  0  0  0  0  0
   -2.8130   -0.0420   -0.3280 N   0  0  0  0  0  0  0  0  0  0  0  0
   -4.0050   -0.0880   -1.1430 C   0  0  0  0  0  0  0  0  0  0  0  0
   -4.2480   -1.5630   -1.4630 C   0  0  0  0  0  0  0  0  0  0  0  0
   -5.1060   -2.0830   -0.2990 C   0  0  0  0  0  0  0  0  0  0  0  0
   -3.9710   -2.0390    1.1460 S   0  0  0  0  0  0  0  0  0  0  0  0
   -2.5740   -1.0560    0.6290 C   0  0  0  0  0  0  0  0  0  0  0  0
   -1.4460   -1.2940    1.1240 O   0  0  0  0  0  0  0  0  0  0  0  0
    3.6900    1.3300   -0.3820 C   0  0  0  0  0  0  0  0  0  0  0  0
  1  2  1  0
  2  3  2  0
  2 20  1  0
  3  4  1  0
  4  5  2  0
  5  6  1  0
  5  7  1  0
  7  8  1  0
  7 20  2  0
  8  9  1  0
  9 10  1  0
 10 11  1  0
 11 12  2  0
 11 13  1  0
 13 14  1  0
 13 18  1  0
 14 15  1  0
 15 16  1  0
 16 17  1  0
 17 18  1  0
 18 19  2  0
M  END
