
     RDKit          3D

 21 22  0  0  0  0  0  0  0  0999 V2000
   -3.2610    2.0230   -0.3660 N   0  0  0  0  0  0  0  0  0  0  0  0
   -4.0180    0.8600   -0.0730 C   0  0  0  0  0  0  0  0  0  0  0  0
   -5.3990    0.9500   -0.0330 C   0  0  0  0  0  0  0  0  0  0  0  0
   -6.1640   -0.1440    0.2450 C   0  0  0  0  0  0  0  0  0  0  0  0
   -7.5180   -0.1160    0.2980 F   0  0  0  0  0  0  0  0  0  0  0  0
   -5.5140   -1.3250    0.4800 C   0  0  0  0  0  0  0  0  0  0  0  0
   -4.1090   -1.4210    0.4410 C   0  0  0  0  0  0  0  0  0  0  0  0
   -3.3270   -0.3340    0.1640 C   0  0  0  0  0  0  0  0  0  0  0  0
   -1.9230   -0.3160    0.0990 N   0  0  0  0  0  0  0  0  0  0  0  0
   -0.9870   -1.3260    0.2840 C   0  0  0  0  0  0  0  0  0  0  0  0
   -1.4710   -2.8530    0.6460 S   0  0  0  0  0  0  0  0  0  0  0  0
    0.4170   -1.1630    0.1860 N   0  0  0  0  0  0  0  0  0  0  0  0
    1.1470   -0.0070   -0.1040 C   0  0  0  0  0  0  0  0  0  0  0  0
    0.5800    1.0710   -0.3200 O   0  0  0  0  0  0  0  0  0  0  0  0
    2.6300   -0.0050   -0.1690 C   0  0  0  0  0  0  0  0  0  0  0  0
    3.5140   -0.9680    0.0080 C   0  0  0  0  0  0  0  0  0  0  0  0
    4.8310   -0.7220   -0.1050 C   0  0  0  0  0  0  0  0  0  0  0  0
    5.1970    0.5610   -0.4070 C   0  0  0  0  0  0  0  0  0  0  0  0
    6.5420    1.1820   -0.6070 C   0  0  0  0  0  0  0  0  0  0  0  0
    6.9780    1.6050    0.6490 O   0  0  0  0  0  0  0  0  0  0  0  0
    3.6170    1.4210   -0.5310 S   0  0  0  0  0  0  0  0  0  0  0  0
  1  2  1  0
  2  3  2  0
  2  8  1  0
  3  4  1  0
  4  5  1  0
  4  6  2  0
  6  7  1  0
  7  8  2  0
  8  9  1  0
  9 10  1  0
 10 11  2  0
 10 12  1  0
 12 13  1  0
 13 14  2  0
 13 15  1  0
 15 16  2  0
 15 21  1  0
 16 17  1  0
 17 18  2  0
 18 19  1  0
 18 21  1  0
 19 20  1  0
M  END
