
     RDKit          3D

 21 22  0  0  0  0  0  0  0  0999 V2000
   -5.1450    0.3130   -1.5260 C   0  0  0  0  0  0  0  0  0  0  0  0
   -3.7760    0.4100   -0.9940 N   0  0  0  0  0  0  0  0  0  0  0  0
   -3.6160    0.2100    0.3660 C   0  0  0  0  0  0  0  0  0  0  0  0
   -4.6690    0.0050    1.0750 O   0  0  0  0  0  0  0  0  0  0  0  0
   -2.2740    0.2380    1.0490 C   0  0  0  0  0  0  0  0  0  0  0  0
   -2.3300    0.3410    2.4180 C   0  0  0  0  0  0  0  0  0  0  0  0
   -3.4300    0.4920    3.3150 N   0  0  0  0  0  0  0  0  0  0  0  0
   -0.7260    0.2620    2.7640 S   0  0  0  0  0  0  0  0  0  0  0  0
    0.2830    0.1010    1.4870 C   0  0  0  0  0  0  0  0  0  0  0  0
    1.1850   -0.0430    0.3440 C   0  0  0  0  0  0  0  0  0  0  0  0
    1.2170    0.5390   -0.6960 O   0  0  0  0  0  0  0  0  0  0  0  0
    2.2160   -1.0760    0.5120 N   0  0  0  0  0  0  0  0  0  0  0  0
    3.2040   -1.3780   -0.4400 C   0  0  0  0  0  0  0  0  0  0  0  0
    4.2310   -0.2400   -0.5170 C   0  0  0  0  0  0  0  0  0  0  0  0
    4.0540    0.8370    0.3300 C   0  0  0  0  0  0  0  0  0  0  0  0
    5.5140    1.8510   -0.0750 S   0  0  0  0  0  0  0  0  0  0  0  0
    6.2010    0.7690   -1.3040 C   0  0  0  0  0  0  0  0  0  0  0  0
    5.2740   -0.2880   -1.3230 C   0  0  0  0  0  0  0  0  0  0  0  0
    5.5320   -1.3380   -2.2230 F   0  0  0  0  0  0  0  0  0  0  0  0
   -1.0980    0.1150    0.5230 C   0  0  0  0  0  0  0  0  0  0  0  0
   -0.8890   -0.2830   -0.8980 C   0  0  0  0  0  0  0  0  0  0  0  0
  1  2  1  0
  2  3  1  0
  3  4  2  0
  3  5  1  0
  5  6  2  0
  5 20  1  0
  6  7  1  0
  6  8  1  0
  8  9  1  0
  9 10  1  0
  9 20  2  0
 10 11  2  0
 10 12  1  0
 12 13  1  0
 13 14  1  0
 14 15  2  0
 14 18  1  0
 15 16  1  0
 16 17  1  0
 17 18  2  0
 18 19  1  0
 20 21  1  0
M  END
