
     RDKit          3D

 21 22  0  0  0  0  0  0  0  0999 V2000
   -1.6430    0.7690    1.1250 O   0  0  0  0  0  0  0  0  0  0  0  0
   -1.7180   -0.4880    1.0530 C   0  0  0  0  0  0  0  0  0  0  0  0
   -2.9560   -1.1870    1.2620 N   0  0  0  0  0  0  0  0  0  0  0  0
   -4.1050   -0.3690    1.5530 C   0  0  0  0  0  0  0  0  0  0  0  0
   -4.5390    0.2480    0.2470 C   0  0  0  0  0  0  0  0  0  0  0  0
   -4.0460   -0.0400   -1.0150 C   0  0  0  0  0  0  0  0  0  0  0  0
   -4.7130    0.7500   -1.9270 C   0  0  0  0  0  0  0  0  0  0  0  0
   -5.5940    1.5050   -1.2430 N   0  0  0  0  0  0  0  0  0  0  0  0
   -5.4980    1.2120    0.0660 C   0  0  0  0  0  0  0  0  0  0  0  0
   -0.5510   -1.2190    0.7580 N   0  0  0  0  0  0  0  0  0  0  0  0
    0.7200   -0.5380    0.5430 C   0  0  0  0  0  0  0  0  0  0  0  0
    0.7160    1.0740    0.6620 S   0  0  0  0  0  0  0  0  0  0  0  0
    2.0890   -1.5240    0.1730 S   0  0  0  0  0  0  0  0  0  0  0  0
    3.6190   -0.6830   -0.0440 C   0  0  0  0  0  0  0  0  0  0  0  0
    3.8440    0.6640    0.0830 C   0  0  0  0  0  0  0  0  0  0  0  0
    5.1120    1.2370   -0.1210 C   0  0  0  0  0  0  0  0  0  0  0  0
    6.2050    0.4790   -0.4600 C   0  0  0  0  0  0  0  0  0  0  0  0
    7.4680    1.0030   -0.6690 O   0  0  0  0  0  0  0  0  0  0  0  0
    5.9830   -0.8810   -0.5880 C   0  0  0  0  0  0  0  0  0  0  0  0
    4.7550   -1.4470   -0.3930 C   0  0  0  0  0  0  0  0  0  0  0  0
    4.5790   -2.7900   -0.5280 F   0  0  0  0  0  0  0  0  0  0  0  0
  1  2  2  0
  2  3  1  0
  2 10  1  0
  3  4  1  0
  4  5  1  0
  5  6  1  0
  5  9  2  0
  6  7  2  0
  7  8  1  0
  8  9  1  0
 10 11  1  0
 11 12  2  0
 11 13  1  0
 13 14  1  0
 14 15  2  0
 14 20  1  0
 15 16  1  0
 16 17  2  0
 17 18  1  0
 17 19  1  0
 19 20  2  0
 20 21  1  0
M  END
