
     RDKit          3D

 21 22  0  0  0  0  0  0  0  0999 V2000
    3.3770    0.9540    4.2510 N   0  0  0  0  0  0  0  0  0  0  0  0
    4.0680    0.0630    3.4140 C   0  0  0  0  0  0  0  0  0  0  0  0
    5.5290   -0.5030    3.7960 S   0  0  0  0  0  0  0  0  0  0  0  0
    3.4590   -0.3750    2.1510 C   0  0  0  0  0  0  0  0  0  0  0  0
    4.0470   -1.1690    1.3780 O   0  0  0  0  0  0  0  0  0  0  0  0
    2.1520    0.1160    1.7850 N   0  0  0  0  0  0  0  0  0  0  0  0
    1.5470   -0.2970    0.5660 C   0  0  0  0  0  0  0  0  0  0  0  0
    2.2620   -1.1000   -0.1130 O   0  0  0  0  0  0  0  0  0  0  0  0
    0.2420    0.1830    0.1880 C   0  0  0  0  0  0  0  0  0  0  0  0
   -0.4280    1.0090    1.1020 C   0  0  0  0  0  0  0  0  0  0  0  0
   -1.7080    1.4550    0.7780 C   0  0  0  0  0  0  0  0  0  0  0  0
   -2.7880    2.5020    1.7330 S   0  0  0  0  0  0  0  0  0  0  0  0
   -4.1260    2.4740    0.4900 C   0  0  0  0  0  0  0  0  0  0  0  0
   -3.6200    1.6840   -0.5080 C   0  0  0  0  0  0  0  0  0  0  0  0
   -2.3890    1.1690   -0.3550 C   0  0  0  0  0  0  0  0  0  0  0  0
   -1.6940    0.3380   -1.2590 C   0  0  0  0  0  0  0  0  0  0  0  0
   -0.4270   -0.1240   -0.9740 C   0  0  0  0  0  0  0  0  0  0  0  0
    0.2040   -0.8930   -1.9730 N   0  0  0  0  0  0  0  0  0  0  0  0
   -0.4560   -1.4960   -3.1170 C   0  0  0  0  0  0  0  0  0  0  0  0
   -1.3080   -2.6710   -2.8170 C   0  0  0  0  0  0  0  0  0  0  0  0
   -2.3440   -2.4860   -1.9530 F   0  0  0  0  0  0  0  0  0  0  0  0
  1  2  1  0
  2  3  2  0
  2  4  1  0
  4  5  2  0
  4  6  1  0
  6  7  1  0
  7  8  2  0
  7  9  1  0
  9 10  2  0
  9 17  1  0
 10 11  1  0
 11 12  1  0
 11 15  2  0
 12 13  1  0
 13 14  2  0
 14 15  1  0
 15 16  1  0
 16 17  2  0
 17 18  1  0
 18 19  1  0
 19 20  1  0
 20 21  1  0
M  END
