
     RDKit          3D

 20 21  0  0  0  0  0  0  0  0999 V2000
   -3.2330   -2.6000    1.1750 O   0  0  0  0  0  0  0  0  0  0  0  0
   -1.8320   -2.6760    0.6550 S   0  0  1  0  0  0  0  0  0  0  0  0
   -1.6250   -3.9400   -0.1570 O   0  0  0  0  0  0  0  0  0  0  0  0
   -1.5200   -1.3060   -0.3290 N   0  0  0  0  0  0  0  0  0  0  0  0
   -2.2710   -0.1010   -0.1890 C   0  0  0  0  0  0  0  0  0  0  0  0
   -3.6360   -0.1650   -0.1880 C   0  0  0  0  0  0  0  0  0  0  0  0
   -4.4240    0.9630   -0.0790 C   0  0  0  0  0  0  0  0  0  0  0  0
   -3.7940    2.1690    0.0300 C   0  0  0  0  0  0  0  0  0  0  0  0
   -2.4060    2.2430    0.0290 C   0  0  0  0  0  0  0  0  0  0  0  0
   -1.6040    1.1460   -0.0770 C   0  0  0  0  0  0  0  0  0  0  0  0
   -0.2090    1.1020   -0.0770 N   0  0  0  0  0  0  0  0  0  0  0  0
    0.7070    2.1540   -0.0150 C   0  0  0  0  0  0  0  0  0  0  0  0
    0.2530    3.7430    0.0430 S   0  0  0  0  0  0  0  0  0  0  0  0
    2.1060    1.8860   -0.0070 N   0  0  0  0  0  0  0  0  0  0  0  0
    2.7290    0.6190   -0.0210 C   0  0  0  0  0  0  0  0  0  0  0  0
    2.3970   -0.4220    0.8120 C   0  0  0  0  0  0  0  0  0  0  0  0
    3.0170   -1.6760    0.7450 C   0  0  0  0  0  0  0  0  0  0  0  0
    4.0080   -1.9140   -0.1800 C   0  0  0  0  0  0  0  0  0  0  0  0
    4.3550   -0.8810   -1.0230 C   0  0  0  0  0  0  0  0  0  0  0  0
    3.7440    0.3490   -0.9560 C   0  0  0  0  0  0  0  0  0  0  0  0
  1  2  2  0
  2  3  2  0
  2  4  1  6
  4  5  1  0
  5  6  2  0
  5 10  1  0
  6  7  1  0
  7  8  2  0
  8  9  1  0
  9 10  2  0
 10 11  1  0
 11 12  1  0
 12 13  2  0
 12 14  1  0
 14 15  1  0
 15 16  2  0
 15 20  1  0
 16 17  1  0
 17 18  2  0
 18 19  1  0
 19 20  2  0
M  END
