
     RDKit          3D

 47 51  0  0  0  0  0  0  0  0999 V2000
    4.1250    1.0540    2.2480 C   0  0  0  0  0  0  0  0  0  0  0  0
    3.4150    2.0870    1.4380 C   0  0  0  0  0  0  0  0  0  0  0  0
    2.5360    1.6190    0.4690 O   0  0  0  0  0  0  0  0  0  0  0  0
    2.7910    0.8270   -0.6060 C   0  0  0  0  0  0  0  0  0  0  0  0
    4.0910    0.3650   -0.8460 C   0  0  0  0  0  0  0  0  0  0  0  0
    4.4210   -0.4360   -1.9090 C   0  0  0  0  0  0  0  0  0  0  0  0
    5.7380   -0.8610   -2.0950 O   0  0  0  0  0  0  0  0  0  0  0  0
    6.7580   -0.4590   -1.1890 C   0  0  0  0  0  0  0  0  0  0  0  0
    8.0570   -1.0750   -1.6910 C   0  0  0  0  0  0  0  0  0  0  0  0
    8.0340   -2.4470   -1.7360 O   0  0  0  0  0  0  0  0  0  0  0  0
    7.9120   -3.0740   -0.5090 C   0  0  0  0  0  0  0  0  0  0  0  0
    7.8600   -4.5810   -0.7980 C   0  0  0  0  0  0  0  0  0  0  0  0
    9.0740   -4.9380   -1.5230 C   0  0  0  0  0  0  0  0  0  0  0  0
   10.0290   -5.2210   -2.1180 N   0  0  0  0  0  0  0  0  0  0  0  0
    3.4030   -0.7870   -2.7690 C   0  0  0  0  0  0  0  0  0  0  0  0
    2.1120   -0.3360   -2.5430 C   0  0  0  0  0  0  0  0  0  0  0  0
    1.7930    0.4860   -1.4450 C   0  0  0  0  0  0  0  0  0  0  0  0
    0.3440    0.8290   -1.3410 C   0  0  0  0  0  0  0  0  0  0  0  0
    0.0430    2.1600   -0.9370 N   0  0  0  0  0  0  0  0  0  0  0  0
   -0.2300    2.4790    0.4110 C   0  0  0  0  0  0  0  0  0  0  0  0
    0.3350    3.4220    1.0510 O   0  0  0  0  0  0  0  0  0  0  0  0
   -1.2330    1.6760    1.1400 C   0  0  0  0  0  0  0  0  0  0  0  0
   -1.9730    0.8150    0.5000 C   0  0  0  0  0  0  0  0  0  0  0  0
   -2.9660    0.0140    1.2710 C   0  0  0  0  0  0  0  0  0  0  0  0
   -2.9600    0.1950    2.7380 C   0  0  0  0  0  0  0  0  0  0  0  0
   -3.7440   -0.8380    0.6420 C   0  0  0  0  0  0  0  0  0  0  0  0
   -4.7560   -1.6840    1.2260 C   0  0  0  0  0  0  0  0  0  0  0  0
   -5.6600   -1.3510    2.2120 C   0  0  0  0  0  0  0  0  0  0  0  0
   -6.4340   -2.4560    2.4620 C   0  0  0  0  0  0  0  0  0  0  0  0
   -5.9800   -3.4370    1.6160 C   0  0  0  0  0  0  0  0  0  0  0  0
   -4.9970   -2.9680    0.9010 O   0  0  0  0  0  0  0  0  0  0  0  0
   -6.7010   -4.7500    1.7200 C   0  0  1  0  0  0  0  0  0  0  0  0
   -5.9300   -5.8640    1.0910 C   0  0  0  0  0  0  0  0  0  0  0  0
   -6.7760   -4.9930    3.0970 O   0  0  0  0  0  0  0  0  0  0  0  0
   -7.7510   -4.1840    3.6830 C   0  0  2  0  0  0  0  0  0  0  0  0
   -9.1520   -4.5400    3.2340 C   0  0  0  0  0  0  0  0  0  0  0  0
   -7.5500   -2.7140    3.4100 C   0  0  0  0  0  0  0  0  0  0  0  0
    0.2030    3.2670   -1.8410 C   0  0  0  0  0  0  0  0  0  0  0  0
    0.9480    3.2330   -2.9800 C   0  0  0  0  0  0  0  0  0  0  0  0
    1.0370    4.3680   -3.7840 C   0  0  0  0  0  0  0  0  0  0  0  0
    0.3770    5.5420   -3.4510 C   0  0  0  0  0  0  0  0  0  0  0  0
   -0.3720    5.5720   -2.3060 C   0  0  0  0  0  0  0  0  0  0  0  0
   -0.4540    4.4670   -1.5260 C   0  0  0  0  0  0  0  0  0  0  0  0
   -1.0570    6.7250   -1.9170 O   0  0  0  0  0  0  0  0  0  0  0  0
   -0.5800    7.9410   -2.5120 C   0  0  0  0  0  0  0  0  0  0  0  0
   -0.4660    7.7110   -4.0030 C   0  0  0  0  0  0  0  0  0  0  0  0
    0.4630    6.6730   -4.2490 O   0  0  0  0  0  0  0  0  0  0  0  0
  1  2  1  0
  2  3  1  0
  3  4  1  0
  4  5  2  0
  4 17  1  0
  5  6  1  0
  6  7  1  0
  6 15  2  0
  7  8  1  0
  8  9  1  0
  9 10  1  0
 10 11  1  0
 11 12  1  0
 12 13  1  0
 13 14  3  0
 15 16  1  0
 16 17  2  0
 17 18  1  0
 18 19  1  0
 19 20  1  0
 19 38  1  0
 20 21  2  0
 20 22  1  0
 22 23  2  3
 23 24  1  0
 24 25  1  0
 24 26  2  3
 26 27  1  0
 27 28  2  0
 27 31  1  0
 28 29  1  0
 29 30  2  0
 29 37  1  0
 30 31  1  0
 30 32  1  0
 32 33  1  6
 32 34  1  0
 34 35  1  0
 35 36  1  6
 35 37  1  0
 38 39  2  0
 38 43  1  0
 39 40  1  0
 40 41  2  0
 41 42  1  0
 41 47  1  0
 42 43  2  0
 42 44  1  0
 44 45  1  0
 45 46  1  0
 46 47  1  0
M  END
