
     RDKit          3D

 48 52  0  0  0  0  0  0  0  0999 V2000
  -10.1510    0.2870   -0.2320 C   0  0  0  0  0  0  0  0  0  0  0  0
   -9.8220   -0.2990    1.0260 O   0  0  0  0  0  0  0  0  0  0  0  0
   -9.0710    0.4330    1.9720 C   0  0  0  0  0  0  0  0  0  0  0  0
   -9.5290    1.6240    2.4050 C   0  0  0  0  0  0  0  0  0  0  0  0
   -8.5900    2.1920    3.3750 C   0  0  0  0  0  0  0  0  0  0  0  0
   -7.5410    1.1540    3.4310 C   0  0  0  0  0  0  0  0  0  0  0  0
   -7.8380    0.1250    2.5980 C   0  0  0  0  0  0  0  0  0  0  0  0
   -6.9580   -1.0440    2.5000 C   0  0  0  0  0  0  0  0  0  0  0  0
   -6.4170   -1.2980    1.2770 O   0  0  0  0  0  0  0  0  0  0  0  0
   -6.7940   -1.7700    0.0880 C   0  0  0  0  0  0  0  0  0  0  0  0
   -7.9840   -2.1410   -0.0570 O   0  0  0  0  0  0  0  0  0  0  0  0
   -5.8870   -1.8840   -1.0790 C   0  0  0  0  0  0  0  0  0  0  0  0
   -6.3650   -2.4390   -2.2320 C   0  0  0  0  0  0  0  0  0  0  0  0
   -5.5510   -2.5850   -3.3190 C   0  0  0  0  0  0  0  0  0  0  0  0
   -4.2500   -2.1600   -3.2140 C   0  0  0  0  0  0  0  0  0  0  0  0
   -3.7500   -1.6030   -2.0760 C   0  0  0  0  0  0  0  0  0  0  0  0
   -4.5760   -1.4540   -0.9720 C   0  0  0  0  0  0  0  0  0  0  0  0
   -4.1040   -0.8710    0.2380 N   0  0  0  0  0  0  0  0  0  0  0  0
   -3.6290   -1.5820    1.3910 C   0  0  0  0  0  0  0  0  0  0  0  0
   -3.6870   -2.8140    1.6330 O   0  0  0  0  0  0  0  0  0  0  0  0
   -3.0120   -0.5840    2.3220 C   0  0  0  0  0  0  0  0  0  0  0  0
   -2.7850    0.6060    1.3900 C   0  0  1  0  0  0  0  0  0  0  0  0
   -1.6510    0.3500    0.6420 O   0  0  0  0  0  0  0  0  0  0  0  0
   -0.5400    1.1150    0.5530 C   0  0  0  0  0  0  0  0  0  0  0  0
   -0.4390    2.1910    1.1740 O   0  0  0  0  0  0  0  0  0  0  0  0
    0.5440    0.6310   -0.3160 C   0  0  0  0  0  0  0  0  0  0  0  0
    0.4630   -0.6630   -0.8470 C   0  0  0  0  0  0  0  0  0  0  0  0
    1.4170   -1.1650   -1.6880 C   0  0  0  0  0  0  0  0  0  0  0  0
    2.4790   -0.3670   -2.0130 C   0  0  0  0  0  0  0  0  0  0  0  0
    2.6120    0.9400   -1.5110 C   0  0  0  0  0  0  0  0  0  0  0  0
    3.7920    1.6910   -1.9720 C   0  0  0  0  0  0  0  0  0  0  0  0
    4.8770    1.6550   -0.9600 C   0  0  0  0  0  0  0  0  0  0  0  0
    6.1470    2.3370   -1.4630 C   0  0  0  0  0  0  0  0  0  0  0  0
    6.7050    1.5500   -2.6520 C   0  0  0  0  0  0  0  0  0  0  0  0
    7.0790    0.1460   -2.1360 C   0  0  0  0  0  0  0  0  0  0  0  0
    8.1010    0.2460   -1.2040 O   0  0  0  0  0  0  0  0  0  0  0  0
    8.6230   -0.7690   -0.4100 C   0  0  0  0  0  0  0  0  0  0  0  0
    8.1530   -2.0350   -0.4540 C   0  0  0  0  0  0  0  0  0  0  0  0
    8.6530   -3.0550    0.3310 C   0  0  0  0  0  0  0  0  0  0  0  0
    9.6800   -2.7070    1.1820 C   0  0  0  0  0  0  0  0  0  0  0  0
   10.1930   -1.4540    1.2700 C   0  0  0  0  0  0  0  0  0  0  0  0
   11.3130   -1.1190    2.2280 C   0  0  0  0  0  0  0  0  0  0  0  0
    9.6720   -0.4260    0.4610 C   0  0  0  0  0  0  0  0  0  0  0  0
   10.1790    0.8020    0.5330 C   0  0  0  0  0  0  0  0  0  0  0  0
   10.6780    2.0070    0.6270 N   0  0  0  0  0  0  0  0  0  0  0  0
    1.6230    1.3780   -0.6750 C   0  0  0  0  0  0  0  0  0  0  0  0
   -4.0050    0.5220    0.5020 C   0  0  0  0  0  0  0  0  0  0  0  0
   -4.7050    1.4360    0.1250 O   0  0  0  0  0  0  0  0  0  0  0  0
  1  2  1  0
  2  3  1  0
  3  4  2  0
  3  7  1  0
  4  5  1  0
  5  6  1  0
  6  7  2  0
  7  8  1  0
  8  9  1  0
  9 10  1  0
 10 11  2  0
 10 12  1  0
 12 13  2  0
 12 17  1  0
 13 14  1  0
 14 15  2  0
 15 16  1  0
 16 17  2  0
 17 18  1  0
 18 19  1  0
 18 47  1  0
 19 20  2  0
 19 21  1  0
 21 22  1  0
 22 23  1  6
 22 47  1  0
 23 24  1  0
 24 25  2  0
 24 26  1  0
 26 27  2  0
 26 46  1  0
 27 28  1  0
 28 29  2  0
 29 30  1  0
 30 31  1  0
 30 46  2  0
 31 32  1  0
 32 33  1  0
 33 34  1  0
 34 35  1  0
 35 36  1  0
 36 37  1  0
 37 38  2  0
 37 43  1  0
 38 39  1  0
 39 40  2  0
 40 41  1  0
 41 42  1  0
 41 43  2  0
 43 44  1  0
 44 45  3  0
 47 48  2  0
M  END
