
     RDKit          3D

 34 37  0  0  0  0  0  0  0  0999 V2000
    8.5930   -0.7040    1.5340 N   0  0  0  0  0  0  0  0  0  0  0  0
    7.6130   -0.1730    0.6730 C   0  0  0  0  0  0  0  0  0  0  0  0
    8.0320    0.3240   -0.5290 N   0  0  0  0  0  0  0  0  0  0  0  0
    7.1150    0.8240   -1.3420 C   0  0  0  0  0  0  0  0  0  0  0  0
    5.8150    0.8450   -1.0020 N   0  0  0  0  0  0  0  0  0  0  0  0
    5.3510    0.3600    0.1880 C   0  0  0  0  0  0  0  0  0  0  0  0
    6.2900   -0.1550    1.0280 C   0  0  0  0  0  0  0  0  0  0  0  0
    5.6610   -0.5750    2.1260 N   0  0  0  0  0  0  0  0  0  0  0  0
    4.3290   -0.3170    1.9600 C   0  0  0  0  0  0  0  0  0  0  0  0
    4.1370    0.2620    0.7610 N   0  0  0  0  0  0  0  0  0  0  0  0
    2.9270    0.7210    0.1250 C   0  0  2  0  0  0  0  0  0  0  0  0
    1.7880    0.3910    0.8310 O   0  0  0  0  0  0  0  0  0  0  0  0
    0.8040    0.5690   -0.1520 C   0  0  2  0  0  0  0  0  0  0  0  0
   -0.5600    0.1760    0.3770 C   0  0  0  0  0  0  0  0  0  0  0  0
   -1.6290    0.3440   -0.5800 N   0  0  2  0  0  0  0  0  0  0  0  0
   -2.5300    1.4010   -0.2770 C   0  0  0  0  0  0  0  0  0  0  0  0
   -3.9740    1.1730   -0.5510 C   0  0  0  0  0  0  0  0  0  0  0  0
   -4.8080    2.3840   -0.1790 C   0  0  2  0  0  0  0  0  0  0  0  0
   -4.6120    2.6200    1.2380 N   0  0  0  0  0  0  0  0  0  0  0  0
   -6.2430    2.1160   -0.4310 C   0  0  0  0  0  0  0  0  0  0  0  0
   -7.0700    2.1190    0.5170 O   0  0  0  0  0  0  0  0  0  0  0  0
   -6.7360    1.8530   -1.7040 O   0  0  0  0  0  0  0  0  0  0  0  0
   -2.1550   -0.9090   -0.9360 C   0  0  0  0  0  0  0  0  0  0  0  0
   -2.5040   -1.8580    0.1300 C   0  0  0  0  0  0  0  0  0  0  0  0
   -2.6690   -3.2150   -0.2010 C   0  0  0  0  0  0  0  0  0  0  0  0
   -2.9950   -4.1700    0.7180 C   0  0  0  0  0  0  0  0  0  0  0  0
   -3.1830   -3.8480    2.0370 C   0  0  0  0  0  0  0  0  0  0  0  0
   -3.5060   -4.7730    2.9670 F   0  0  0  0  0  0  0  0  0  0  0  0
   -3.0290   -2.5290    2.3930 C   0  0  0  0  0  0  0  0  0  0  0  0
   -2.6950   -1.5510    1.4560 C   0  0  0  0  0  0  0  0  0  0  0  0
    1.3150   -0.3420   -1.2420 C   0  0  1  0  0  0  0  0  0  0  0  0
    0.7870   -0.0550   -2.4990 O   0  0  0  0  0  0  0  0  0  0  0  0
    2.8120    0.0030   -1.2110 C   0  0  1  0  0  0  0  0  0  0  0  0
    3.1020    0.8980   -2.2160 O   0  0  0  0  0  0  0  0  0  0  0  0
  1  2  1  0
  2  3  2  0
  2  7  1  0
  3  4  1  0
  4  5  2  0
  5  6  1  0
  6  7  2  0
  6 10  1  0
  7  8  1  0
  8  9  2  0
  9 10  1  0
 11 10  1  1
 11 12  1  0
 11 33  1  0
 12 13  1  0
 13 14  1  1
 13 31  1  0
 15 14  1  1
 15 16  1  0
 15 23  1  0
 16 17  1  0
 17 18  1  0
 18 19  1  1
 18 20  1  0
 20 21  2  0
 20 22  1  0
 23 24  1  0
 24 25  2  0
 24 30  1  0
 25 26  1  0
 26 27  2  0
 27 28  1  0
 27 29  1  0
 29 30  2  0
 31 32  1  6
 31 33  1  0
 33 34  1  6
M  CHG  2  15   1  19   1
M  END
