
     RDKit          3D

 34 39  0  0  0  0  0  0  0  0999 V2000
   -9.3550    1.5880   -1.3460 C   0  0  0  0  0  0  0  0  0  0  0  0
   -8.3120    1.0600   -0.7040 C   0  0  0  0  0  0  0  0  0  0  0  0
   -6.9350    0.8980   -1.2340 C   0  0  0  0  0  0  0  0  0  0  0  0
   -6.1370    0.3690   -0.1500 N   0  0  0  0  0  0  0  0  0  0  0  0
   -6.9280    0.1360    0.9190 C   0  0  0  0  0  0  0  0  0  0  0  0
   -6.1400   -0.3690    1.8800 N   0  0  0  0  0  0  0  0  0  0  0  0
   -4.9440   -0.4330    1.4140 N   0  0  0  0  0  0  0  0  0  0  0  0
   -4.8760    0.0060    0.1730 C   0  0  0  0  0  0  0  0  0  0  0  0
   -3.6870    0.1080   -0.6580 C   0  0  0  0  0  0  0  0  0  0  0  0
   -3.8210    0.4630   -1.9980 C   0  0  0  0  0  0  0  0  0  0  0  0
   -2.7110    0.5830   -2.8130 C   0  0  0  0  0  0  0  0  0  0  0  0
   -1.4660    0.3460   -2.2790 C   0  0  0  0  0  0  0  0  0  0  0  0
   -1.2870   -0.0080   -0.9570 C   0  0  0  0  0  0  0  0  0  0  0  0
    0.0110   -0.2280   -0.4670 C   0  0  0  0  0  0  0  0  0  0  0  0
    0.2380   -0.5650    0.8150 C   0  0  0  0  0  0  0  0  0  0  0  0
    1.4920   -0.8010    1.4260 N   0  0  0  0  0  0  0  0  0  0  0  0
    2.7550   -0.5600    0.8310 C   0  0  0  0  0  0  0  0  0  0  0  0
    2.7880   -0.0990   -0.3280 O   0  0  0  0  0  0  0  0  0  0  0  0
    3.9490   -0.8470    1.5610 N   0  0  0  0  0  0  0  0  0  0  0  0
    5.2530   -0.6450    1.0780 C   0  0  0  0  0  0  0  0  0  0  0  0
    5.5500    0.0600   -0.0420 C   0  0  0  0  0  0  0  0  0  0  0  0
    6.8640    0.2260   -0.5010 C   0  0  0  0  0  0  0  0  0  0  0  0
    7.1530    1.0060   -1.7330 C   0  0  0  0  0  0  0  0  0  0  0  0
    7.9030   -0.3220    0.1730 C   0  0  0  0  0  0  0  0  0  0  0  0
    9.2750   -0.3210   -0.0430 C   0  0  0  0  0  0  0  0  0  0  0  0
    9.8220   -1.0540    0.9870 C   0  0  0  0  0  0  0  0  0  0  0  0
    8.8190   -1.4720    1.7810 N   0  0  0  0  0  0  0  0  0  0  0  0
    7.6280   -1.0430    1.3130 C   0  0  0  0  0  0  0  0  0  0  0  0
    6.3380   -1.2080    1.7650 C   0  0  0  0  0  0  0  0  0  0  0  0
   -0.8920   -0.6800    1.6220 C   0  0  0  0  0  0  0  0  0  0  0  0
   -2.1860   -0.4640    1.1460 C   0  0  0  0  0  0  0  0  0  0  0  0
   -2.4100   -0.1210   -0.1610 C   0  0  0  0  0  0  0  0  0  0  0  0
   -8.3120    0.5430    0.6460 C   0  0  0  0  0  0  0  0  0  0  0  0
   -9.3300    0.4430    1.4840 C   0  0  0  0  0  0  0  0  0  0  0  0
  1  2  2  0
  2  3  1  0
  2 33  1  0
  3  4  1  0
  4  5  1  0
  4  8  1  0
  5  6  2  0
  5 33  1  0
  6  7  1  0
  7  8  2  0
  8  9  1  0
  9 10  2  0
  9 32  1  0
 10 11  1  0
 11 12  2  0
 12 13  1  0
 13 14  2  0
 13 32  1  0
 14 15  1  0
 15 16  1  0
 15 30  2  0
 16 17  1  0
 17 18  2  0
 17 19  1  0
 19 20  1  0
 20 21  2  0
 20 29  1  0
 21 22  1  0
 22 23  1  0
 22 24  2  0
 24 25  1  0
 24 28  1  0
 25 26  2  0
 26 27  1  0
 27 28  1  0
 28 29  2  0
 30 31  1  0
 31 32  2  0
 33 34  2  0
M  END
