
     RDKit          3D

 47 51  0  0  0  0  0  0  0  0999 V2000
    2.9250   -6.2400    0.9720 C   0  0  0  0  0  0  0  0  0  0  0  0
    3.0370   -5.3360   -0.2250 C   0  0  0  0  0  0  0  0  0  0  0  0
    2.8510   -4.0120    0.1910 O   0  0  0  0  0  0  0  0  0  0  0  0
    2.8840   -2.9160   -0.6300 C   0  0  0  0  0  0  0  0  0  0  0  0
    3.0910   -3.0740   -1.8570 O   0  0  0  0  0  0  0  0  0  0  0  0
    2.6790   -1.5490   -0.0690 C   0  0  1  0  0  0  0  0  0  0  0  0
    4.0290   -0.8660   -0.2640 C   0  0  0  0  0  0  0  0  0  0  0  0
    4.1080    0.5400    0.2040 C   0  0  0  0  0  0  0  0  0  0  0  0
    5.4580    0.9640   -0.0600 O   0  0  0  0  0  0  0  0  0  0  0  0
    5.9490    2.2060    0.2210 C   0  0  0  0  0  0  0  0  0  0  0  0
    5.2000    3.2050    0.8020 C   0  0  0  0  0  0  0  0  0  0  0  0
    5.7670    4.4530    1.0620 C   0  0  0  0  0  0  0  0  0  0  0  0
    7.0790    4.7080    0.7460 C   0  0  0  0  0  0  0  0  0  0  0  0
    7.8120    3.7000    0.1670 C   0  0  0  0  0  0  0  0  0  0  0  0
    9.1950    3.9930   -0.1660 C   0  0  0  0  0  0  0  0  0  0  0  0
   10.2980    4.2440   -0.4250 N   0  0  0  0  0  0  0  0  0  0  0  0
    7.2770    2.4700   -0.0970 C   0  0  0  0  0  0  0  0  0  0  0  0
    8.1130    1.4240   -0.7230 C   0  0  0  0  0  0  0  0  0  0  0  0
    1.5730   -0.8370   -0.8310 C   0  0  0  0  0  0  0  0  0  0  0  0
    0.7000   -0.1280    0.1740 C   0  0  1  0  0  0  0  0  0  0  0  0
   -0.2900    0.8010   -0.3100 C   0  0  0  0  0  0  0  0  0  0  0  0
   -0.1780    1.9630    0.1820 O   0  0  0  0  0  0  0  0  0  0  0  0
   -1.4050    0.6560   -1.2650 C   0  0  0  0  0  0  0  0  0  0  0  0
   -2.6130    0.0560   -0.7540 N   0  0  0  0  0  0  0  0  0  0  0  0
   -2.7860   -1.2820   -0.8690 C   0  0  0  0  0  0  0  0  0  0  0  0
   -3.9090   -1.8950   -0.3280 C   0  0  0  0  0  0  0  0  0  0  0  0
   -4.8310   -1.1220    0.3170 C   0  0  0  0  0  0  0  0  0  0  0  0
   -5.8530   -1.6180    0.8210 O   0  0  0  0  0  0  0  0  0  0  0  0
   -4.6390    0.2430    0.4210 C   0  0  0  0  0  0  0  0  0  0  0  0
   -5.5850    1.0280    1.0750 C   0  0  0  0  0  0  0  0  0  0  0  0
   -6.6850    0.4200    1.6060 O   0  0  0  0  0  0  0  0  0  0  0  0
   -7.9200    0.1820    1.0190 C   0  0  0  0  0  0  0  0  0  0  0  0
   -5.4100    2.4110    1.1840 C   0  0  0  0  0  0  0  0  0  0  0  0
   -6.4570    3.1420    1.8860 C   0  0  0  0  0  0  0  0  0  0  0  0
   -7.4160    3.5740    1.1950 O   0  0  0  0  0  0  0  0  0  0  0  0
   -4.3060    3.0210    0.6500 C   0  0  0  0  0  0  0  0  0  0  0  0
   -4.1480    4.4860    0.7910 C   0  0  0  0  0  0  0  0  0  0  0  0
   -5.0330    5.2750   -0.1360 C   0  0  0  0  0  0  0  0  0  0  0  0
   -3.3550    2.2300   -0.0060 C   0  0  0  0  0  0  0  0  0  0  0  0
   -3.5130    0.8680   -0.1190 C   0  0  0  0  0  0  0  0  0  0  0  0
   -4.0170   -3.3580   -0.4890 C   0  0  0  0  0  0  0  0  0  0  0  0
   -3.8820   -3.6210   -1.9730 C   0  0  0  0  0  0  0  0  0  0  0  0
   -2.6980   -2.9790   -2.5830 C   0  0  0  0  0  0  0  0  0  0  0  0
   -1.8360   -2.1760   -1.5790 C   0  0  0  0  0  0  0  0  0  0  0  0
    0.1700   -1.0340    1.2340 C   0  0  0  0  0  0  0  0  0  0  0  0
    1.1730   -2.1530    1.5200 C   0  0  0  0  0  0  0  0  0  0  0  0
    2.4330   -1.6460    1.2670 O   0  0  0  0  0  0  0  0  0  0  0  0
  1  2  1  0
  2  3  1  0
  3  4  1  0
  4  5  2  0
  4  6  1  0
  6  7  1  1
  6 19  1  0
  6 47  1  0
  7  8  1  0
  8  9  1  0
  9 10  1  0
 10 11  2  0
 10 17  1  0
 11 12  1  0
 12 13  2  0
 13 14  1  0
 14 15  1  0
 14 17  2  0
 15 16  3  0
 17 18  1  0
 19 20  1  0
 20 21  1  6
 20 45  1  0
 21 22  2  0
 21 23  1  0
 23 24  1  0
 24 25  1  0
 24 40  1  0
 25 26  2  0
 25 44  1  0
 26 27  1  0
 26 41  1  0
 27 28  2  0
 27 29  1  0
 29 30  2  0
 29 40  1  0
 30 31  1  0
 30 33  1  0
 31 32  1  0
 33 34  1  0
 33 36  2  0
 34 35  2  0
 36 37  1  0
 36 39  1  0
 37 38  1  0
 39 40  2  0
 41 42  1  0
 42 43  1  0
 43 44  1  0
 45 46  1  0
 46 47  1  0
M  END
