
     RDKit          3D

 34 39  0  0  0  0  0  0  0  0999 V2000
   10.6530    0.3500   -0.7790 C   0  0  0  0  0  0  0  0  0  0  0  0
    9.4040   -0.0540   -0.0700 C   0  0  0  0  0  0  0  0  0  0  0  0
    9.5150   -0.9320    0.9720 C   0  0  0  0  0  0  0  0  0  0  0  0
    8.3730   -1.3220    1.6440 C   0  0  0  0  0  0  0  0  0  0  0  0
    7.1590   -0.8090    1.2380 C   0  0  0  0  0  0  0  0  0  0  0  0
    5.9010   -0.9920    1.6800 N   0  0  0  0  0  0  0  0  0  0  0  0
    5.0380   -0.2690    0.9580 C   0  0  0  0  0  0  0  0  0  0  0  0
    3.7100   -0.1350    1.0300 N   0  0  0  0  0  0  0  0  0  0  0  0
    3.0430    0.6680    0.1770 C   0  0  0  0  0  0  0  0  0  0  0  0
    1.5720    0.7580    0.3270 C   0  0  0  0  0  0  0  0  0  0  0  0
    0.8800   -0.2170   -0.4520 N   0  0  0  0  0  0  0  0  0  0  0  0
   -0.5390   -0.2600   -0.4070 C   0  0  0  0  0  0  0  0  0  0  0  0
   -1.2390   -1.1930   -1.1320 C   0  0  0  0  0  0  0  0  0  0  0  0
   -2.6420   -1.2340   -1.0800 C   0  0  0  0  0  0  0  0  0  0  0  0
   -3.2930   -0.3320   -0.2950 C   0  0  0  0  0  0  0  0  0  0  0  0
   -2.5950    0.6190    0.4410 C   0  0  0  0  0  0  0  0  0  0  0  0
   -1.2120    0.6430    0.3760 C   0  0  0  0  0  0  0  0  0  0  0  0
   -3.2080    1.5390    1.2030 N   0  0  0  0  0  0  0  0  0  0  0  0
   -4.5420    1.5680    1.2800 C   0  0  0  0  0  0  0  0  0  0  0  0
   -5.1430    2.4240    1.9880 O   0  0  0  0  0  0  0  0  0  0  0  0
   -5.3220    0.6650    0.5910 C   0  0  0  0  0  0  0  0  0  0  0  0
   -6.6940    0.7140    0.6990 C   0  0  0  0  0  0  0  0  0  0  0  0
   -7.3610    1.7580    1.5560 C   0  0  0  0  0  0  0  0  0  0  0  0
   -7.4400   -0.2050    0.0130 C   0  0  0  0  0  0  0  0  0  0  0  0
   -8.9140   -0.1970    0.0920 C   0  0  0  0  0  0  0  0  0  0  0  0
   -6.8370   -1.1480   -0.7590 C   0  0  0  0  0  0  0  0  0  0  0  0
   -5.4240   -1.2330   -0.8980 C   0  0  0  0  0  0  0  0  0  0  0  0
   -4.8870   -2.3290   -1.6880 C   0  0  0  0  0  0  0  0  0  0  0  0
   -4.6880   -0.3110   -0.2150 C   0  0  0  0  0  0  0  0  0  0  0  0
    3.7530    1.3560   -0.7800 C   0  0  0  0  0  0  0  0  0  0  0  0
    5.1020    1.2130   -0.8450 N   0  0  0  0  0  0  0  0  0  0  0  0
    5.7680    0.4110    0.0080 C   0  0  0  0  0  0  0  0  0  0  0  0
    7.0640    0.0610    0.2020 N   0  0  0  0  0  0  0  0  0  0  0  0
    8.1760    0.4420   -0.4540 C   0  0  0  0  0  0  0  0  0  0  0  0
  1  2  1  0
  2  3  1  0
  2 34  2  0
  3  4  2  0
  4  5  1  0
  5  6  2  0
  5 33  1  0
  6  7  1  0
  7  8  2  0
  7 32  1  0
  8  9  1  0
  9 10  1  0
  9 30  2  0
 10 11  1  0
 11 12  1  0
 12 13  2  0
 12 17  1  0
 13 14  1  0
 14 15  2  0
 15 16  1  0
 15 29  1  0
 16 17  2  0
 16 18  1  0
 18 19  1  0
 19 20  2  0
 19 21  1  0
 21 22  2  0
 21 29  1  0
 22 23  1  0
 22 24  1  0
 24 25  1  0
 24 26  2  0
 26 27  1  0
 27 28  1  0
 27 29  2  0
 30 31  1  0
 31 32  2  0
 32 33  1  0
 33 34  1  0
M  END
