
     RDKit          3D

 34 39  0  0  0  0  0  0  0  0999 V2000
    9.1710   -0.7030   -1.0250 C   0  0  0  0  0  0  0  0  0  0  0  0
    8.5040    0.5890   -0.6640 C   0  0  0  0  0  0  0  0  0  0  0  0
    7.0200    0.4440   -0.5580 C   0  0  0  0  0  0  0  0  0  0  0  0
    6.1690    0.6600   -1.5980 C   0  0  0  0  0  0  0  0  0  0  0  0
    4.8000    0.5080   -1.4560 C   0  0  0  0  0  0  0  0  0  0  0  0
    4.2450    0.1270   -0.2330 C   0  0  0  0  0  0  0  0  0  0  0  0
    5.0910   -0.0930    0.8160 C   0  0  0  0  0  0  0  0  0  0  0  0
    6.4720    0.0630    0.6600 C   0  0  0  0  0  0  0  0  0  0  0  0
    4.2860   -0.4500    1.8690 C   0  0  0  0  0  0  0  0  0  0  0  0
    2.9760   -0.4460    1.4680 C   0  0  0  0  0  0  0  0  0  0  0  0
    2.9410   -0.0860    0.1510 N   0  0  0  0  0  0  0  0  0  0  0  0
    1.9030    0.0460   -0.6060 N   0  0  0  0  0  0  0  0  0  0  0  0
    0.8660    0.1510   -1.1890 C   0  0  0  0  0  0  0  0  0  0  0  0
   -0.4850    0.0910   -0.6510 C   0  0  0  0  0  0  0  0  0  0  0  0
   -1.5650    0.2160   -1.3650 C   0  0  0  0  0  0  0  0  0  0  0  0
   -1.5150    0.4220   -2.7620 N   0  0  0  0  0  0  0  0  0  0  0  0
   -2.7340    0.5740   -3.4850 C   0  0  0  0  0  0  0  0  0  0  0  0
   -3.8360    0.5220   -2.8740 N   0  0  0  0  0  0  0  0  0  0  0  0
   -3.9690    0.3170   -1.4700 C   0  0  0  0  0  0  0  0  0  0  0  0
   -5.3400    0.2760   -0.9270 C   0  0  0  0  0  0  0  0  0  0  0  0
   -6.2300    1.2490   -1.3560 C   0  0  0  0  0  0  0  0  0  0  0  0
   -7.5400    1.3360   -0.9500 C   0  0  0  0  0  0  0  0  0  0  0  0
   -7.9560    0.3630   -0.0510 C   0  0  0  0  0  0  0  0  0  0  0  0
   -7.0900   -0.6110    0.3870 C   0  0  0  0  0  0  0  0  0  0  0  0
   -5.7830   -0.6700   -0.0390 C   0  0  0  0  0  0  0  0  0  0  0  0
   -7.8510   -1.5010    1.3260 C   0  0  0  0  0  0  0  0  0  0  0  0
   -9.1970   -0.8910    1.3950 C   0  0  0  0  0  0  0  0  0  0  0  0
  -10.1380   -1.3170    2.1090 O   0  0  0  0  0  0  0  0  0  0  0  0
   -9.2400    0.2210    0.5400 N   0  0  0  0  0  0  0  0  0  0  0  0
   -2.9080    0.1670   -0.7100 C   0  0  0  0  0  0  0  0  0  0  0  0
   -3.0080   -0.0220    0.7500 C   0  0  0  0  0  0  0  0  0  0  0  0
    2.1180   -0.8420    2.6440 C   0  0  0  0  0  0  0  0  0  0  0  0
    2.9830   -0.4570    3.7620 N   0  0  0  0  0  0  0  0  0  0  0  0
    4.3000   -0.8460    3.2990 C   0  0  0  0  0  0  0  0  0  0  0  0
  1  2  1  0
  2  3  1  0
  3  4  2  0
  3  8  1  0
  4  5  1  0
  5  6  2  0
  6  7  1  0
  6 11  1  0
  7  8  2  0
  7  9  1  0
  9 10  2  0
  9 34  1  0
 10 11  1  0
 10 32  1  0
 11 12  1  0
 12 13  2  3
 13 14  1  0
 14 15  2  3
 15 16  1  0
 15 30  1  0
 16 17  1  0
 17 18  2  0
 18 19  1  0
 19 20  1  0
 19 30  2  0
 20 21  2  0
 20 25  1  0
 21 22  1  0
 22 23  2  0
 23 24  1  0
 23 29  1  0
 24 25  2  0
 24 26  1  0
 26 27  1  0
 27 28  2  0
 27 29  1  0
 30 31  1  0
 32 33  1  0
 33 34  1  0
M  END
