
     RDKit          3D

 34 39  0  0  0  0  0  0  0  0999 V2000
    4.0850   -4.3400    2.0760 C   0  0  0  0  0  0  0  0  0  0  0  0
    4.5570   -2.9690    1.5830 C   0  0  1  0  0  0  0  0  0  0  0  0
    5.8250   -3.1270    0.8840 C   0  0  0  0  0  0  0  0  0  0  0  0
    6.9210   -3.2580    0.3040 N   0  0  0  0  0  0  0  0  0  0  0  0
    3.5810   -2.2680    0.9880 O   0  0  0  0  0  0  0  0  0  0  0  0
    3.2450   -1.7730   -0.2450 C   0  0  0  0  0  0  0  0  0  0  0  0
    3.9250   -1.9890   -1.3670 C   0  0  0  0  0  0  0  0  0  0  0  0
    3.6010   -1.5100   -2.6450 C   0  0  0  0  0  0  0  0  0  0  0  0
    2.4080   -0.7190   -2.6930 C   0  0  0  0  0  0  0  0  0  0  0  0
    1.8750   -0.1560   -3.7770 N   0  0  0  0  0  0  0  0  0  0  0  0
    0.7500    0.4810   -3.3030 C   0  0  0  0  0  0  0  0  0  0  0  0
    0.6050    0.2990   -1.9330 C   0  0  0  0  0  0  0  0  0  0  0  0
   -0.4100    0.6860   -1.0890 N   0  0  0  0  0  0  0  0  0  0  0  0
   -0.7910    1.7350   -0.5560 C   0  0  0  0  0  0  0  0  0  0  0  0
   -0.2310    2.9440   -0.6830 N   0  0  0  0  0  0  0  0  0  0  0  0
   -0.6420    4.0910   -0.1510 C   0  0  0  0  0  0  0  0  0  0  0  0
   -0.0370    5.3150   -0.3150 C   0  0  0  0  0  0  0  0  0  0  0  0
   -0.5420    6.4820    0.2840 C   0  0  0  0  0  0  0  0  0  0  0  0
   -1.6470    6.4050    1.0370 C   0  0  0  0  0  0  0  0  0  0  0  0
   -2.2960    5.1810    1.2360 C   0  0  0  0  0  0  0  0  0  0  0  0
   -1.8060    4.0410    0.6560 C   0  0  0  0  0  0  0  0  0  0  0  0
   -2.4080    2.8460    0.8200 C   0  0  0  0  0  0  0  0  0  0  0  0
   -1.9700    1.6700    0.2560 C   0  0  0  0  0  0  0  0  0  0  0  0
   -2.6250    0.3910    0.5390 C   0  0  0  0  0  0  0  0  0  0  0  0
   -3.8350    0.2480    1.0360 N   0  0  0  0  0  0  0  0  0  0  0  0
   -4.2110   -1.0240    1.1760 C   0  0  0  0  0  0  0  0  0  0  0  0
   -5.3510   -1.6650    1.6240 C   0  0  0  0  0  0  0  0  0  0  0  0
   -5.4440   -3.0560    1.6270 C   0  0  0  0  0  0  0  0  0  0  0  0
   -4.3690   -3.7440    1.1750 C   0  0  0  0  0  0  0  0  0  0  0  0
   -3.2280   -3.1550    0.7270 C   0  0  0  0  0  0  0  0  0  0  0  0
   -3.1270   -1.7510    0.7210 C   0  0  0  0  0  0  0  0  0  0  0  0
   -2.1530   -0.8850    0.3290 N   0  0  0  0  0  0  0  0  0  0  0  0
    1.7470   -0.5090   -1.5870 C   0  0  0  0  0  0  0  0  0  0  0  0
    2.0590   -0.9780   -0.3050 C   0  0  0  0  0  0  0  0  0  0  0  0
  2  1  1  6
  2  3  1  0
  2  5  1  0
  3  4  3  0
  5  6  1  0
  6  7  2  0
  6 34  1  0
  7  8  1  0
  8  9  2  0
  9 10  1  0
  9 33  1  0
 10 11  1  0
 11 12  2  0
 12 13  1  0
 12 33  1  0
 13 14  2  3
 14 15  1  0
 14 23  1  0
 15 16  1  0
 16 17  2  0
 16 21  1  0
 17 18  1  0
 18 19  2  0
 19 20  1  0
 20 21  2  0
 21 22  1  0
 22 23  2  0
 23 24  1  0
 24 25  2  0
 24 32  1  0
 25 26  1  0
 26 27  2  0
 26 31  1  0
 27 28  1  0
 28 29  2  0
 29 30  1  0
 30 31  2  0
 31 32  1  0
 33 34  2  0
M  END
