
     RDKit          3D

 41 45  0  0  0  0  0  0  0  0999 V2000
    7.7620   -3.1550   -3.3510 C   0  0  0  0  0  0  0  0  0  0  0  0
    6.4160   -3.1010   -3.7790 O   0  0  0  0  0  0  0  0  0  0  0  0
    5.5410   -2.1310   -3.2720 C   0  0  0  0  0  0  0  0  0  0  0  0
    5.9670   -1.2050   -2.3460 C   0  0  0  0  0  0  0  0  0  0  0  0
    5.1090   -0.2450   -1.8420 C   0  0  0  0  0  0  0  0  0  0  0  0
    3.7770   -0.1780   -2.2550 C   0  0  0  0  0  0  0  0  0  0  0  0
    2.6970    1.0470   -1.6070 S   0  0  1  0  0  0  0  0  0  0  0  0
    3.4490    2.2790   -1.2230 O   0  0  0  0  0  0  0  0  0  0  0  0
    1.7250    1.4380   -2.6950 O   0  0  0  0  0  0  0  0  0  0  0  0
    1.8220    0.4590   -0.2900 N   0  0  0  0  0  0  0  0  0  0  0  0
    2.5330    0.0420    0.8480 C   0  0  0  0  0  0  0  0  0  0  0  0
    2.8190   -1.4430    0.8270 C   0  0  2  0  0  0  0  0  0  0  0  0
    1.5480   -2.2630    0.7820 C   0  0  0  0  0  0  0  0  0  0  0  0
    3.5330   -1.7500    2.1500 C   0  0  0  0  0  0  0  0  0  0  0  0
    0.5010    0.8980   -0.1410 C   0  0  0  0  0  0  0  0  0  0  0  0
    0.2250    2.0360    0.7860 C   0  0  1  0  0  0  0  0  0  0  0  0
    0.8520    3.2140    0.5150 O   0  0  0  0  0  0  0  0  0  0  0  0
   -1.2570    2.3010    0.9440 C   0  0  2  0  0  0  0  0  0  0  0  0
   -1.4650    3.1400    2.1770 C   0  0  0  0  0  0  0  0  0  0  0  0
   -0.8070    4.4450    2.1920 C   0  0  0  0  0  0  0  0  0  0  0  0
    0.4340    4.6500    2.7630 C   0  0  0  0  0  0  0  0  0  0  0  0
    1.0280    5.8780    2.7680 C   0  0  0  0  0  0  0  0  0  0  0  0
    0.3600    6.9290    2.1850 C   0  0  0  0  0  0  0  0  0  0  0  0
   -0.8910    6.7600    1.6000 C   0  0  0  0  0  0  0  0  0  0  0  0
   -1.4640    5.5130    1.6100 C   0  0  0  0  0  0  0  0  0  0  0  0
   -1.8720    0.9690    1.1860 N   0  0  0  0  0  0  0  0  0  0  0  0
   -2.8280    0.4660    0.2610 C   0  0  0  0  0  0  0  0  0  0  0  0
   -3.0990    1.1940   -0.7260 O   0  0  0  0  0  0  0  0  0  0  0  0
   -3.4640   -0.7380    0.3710 O   0  0  0  0  0  0  0  0  0  0  0  0
   -4.3870   -1.1270   -0.6100 C   0  0  2  0  0  0  0  0  0  0  0  0
   -5.7740   -1.3620   -0.1070 C   0  0  2  0  0  0  0  0  0  0  0  0
   -5.8830   -1.8240    1.2970 C   0  0  0  0  0  0  0  0  0  0  0  0
   -6.0760   -3.1800    1.3230 O   0  0  0  0  0  0  0  0  0  0  0  0
   -6.1320   -3.6700    0.0540 C   0  0  2  0  0  0  0  0  0  0  0  0
   -4.9610   -4.3740   -0.2180 O   0  0  0  0  0  0  0  0  0  0  0  0
   -3.8470   -3.5480   -0.3370 C   0  0  0  0  0  0  0  0  0  0  0  0
   -4.0470   -2.4130   -1.3030 C   0  0  1  0  0  0  0  0  0  0  0  0
   -5.3650   -2.7000   -2.0390 C   0  0  0  0  0  0  0  0  0  0  0  0
   -6.3440   -2.5180   -0.8930 C   0  0  2  0  0  0  0  0  0  0  0  0
    3.3700   -1.1120   -3.1820 C   0  0  0  0  0  0  0  0  0  0  0  0
    4.2280   -2.0690   -3.6830 C   0  0  0  0  0  0  0  0  0  0  0  0
  1  2  1  0
  2  3  1  0
  3  4  2  0
  3 41  1  0
  4  5  1  0
  5  6  2  0
  6  7  1  0
  6 40  1  0
  7  8  2  0
  7  9  2  0
  7 10  1  1
 10 11  1  0
 10 15  1  0
 11 12  1  0
 12 13  1  1
 12 14  1  0
 15 16  1  0
 16 17  1  6
 16 18  1  0
 18 19  1  1
 18 26  1  0
 19 20  1  0
 20 21  2  0
 20 25  1  0
 21 22  1  0
 22 23  2  0
 23 24  1  0
 24 25  2  0
 26 27  1  0
 27 28  2  0
 27 29  1  0
 30 29  1  1
 30 31  1  0
 30 37  1  0
 31 32  1  1
 31 39  1  0
 32 33  1  0
 34 33  1  1
 34 35  1  0
 34 39  1  0
 35 36  1  0
 37 36  1  1
 37 38  1  0
 39 38  1  6
 40 41  2  0
M  END
