
     RDKit          3D

 40 44  0  0  0  0  0  0  0  0999 V2000
   -6.9230    4.4380   -0.3040 C   0  0  0  0  0  0  0  0  0  0  0  0
   -5.8570    3.4990   -0.1910 O   0  0  0  0  0  0  0  0  0  0  0  0
   -6.1130    2.1150   -0.2540 C   0  0  0  0  0  0  0  0  0  0  0  0
   -7.2880    1.7840   -0.4080 O   0  0  0  0  0  0  0  0  0  0  0  0
   -5.0300    1.1490   -0.1400 C   0  0  0  0  0  0  0  0  0  0  0  0
   -3.7100    1.4500    0.0230 N   0  0  0  0  0  0  0  0  0  0  0  0
   -2.9810    0.3030    0.0800 C   0  0  0  0  0  0  0  0  0  0  0  0
   -1.6370    0.0610    0.2310 C   0  0  0  0  0  0  0  0  0  0  0  0
   -1.1280   -1.2470    0.2580 C   0  0  0  0  0  0  0  0  0  0  0  0
    0.2750   -1.3740    0.4030 N   0  0  0  0  0  0  0  0  0  0  0  0
    0.9430   -2.5670    0.7740 C   0  0  0  0  0  0  0  0  0  0  0  0
    0.3090   -3.6170    1.0170 O   0  0  0  0  0  0  0  0  0  0  0  0
    2.4380   -2.6070    0.8910 C   0  0  0  0  0  0  0  0  0  0  0  0
    3.0550   -1.4360    0.4160 O   0  0  0  0  0  0  0  0  0  0  0  0
    2.9770   -1.0280   -0.9140 C   0  0  0  0  0  0  0  0  0  0  0  0
    2.2850   -1.7900   -1.8350 C   0  0  0  0  0  0  0  0  0  0  0  0
    2.2090   -1.3880   -3.1560 C   0  0  0  0  0  0  0  0  0  0  0  0
    2.8150   -0.2340   -3.5710 C   0  0  0  0  0  0  0  0  0  0  0  0
    3.5030    0.5280   -2.6600 C   0  0  0  0  0  0  0  0  0  0  0  0
    3.5730    0.1220   -1.3560 C   0  0  0  0  0  0  0  0  0  0  0  0
    4.2850    0.9040   -0.3860 N   0  0  0  0  0  0  0  0  0  0  0  0
    5.5110    0.5710   -0.1820 C   0  0  0  0  0  0  0  0  0  0  0  0
    6.2890   -0.7070   -0.9860 S   0  0  0  0  0  0  0  0  0  0  0  0
    7.9100   -0.9140   -0.5150 C   0  0  0  0  0  0  0  0  0  0  0  0
    8.3590   -0.0260    0.4410 C   0  0  0  0  0  0  0  0  0  0  0  0
   10.0500   -0.2360    0.9370 Cl  0  0  0  0  0  0  0  0  0  0  0  0
    7.6060    0.9710    1.0090 C   0  0  0  0  0  0  0  0  0  0  0  0
    8.2500    1.7640    1.9620 C   0  0  0  0  0  0  0  0  0  0  0  0
    7.5900    2.7920    2.5950 C   0  0  0  0  0  0  0  0  0  0  0  0
    6.3040    3.0740    2.3240 N   0  0  0  0  0  0  0  0  0  0  0  0
    5.6850    2.3130    1.4100 C   0  0  0  0  0  0  0  0  0  0  0  0
    6.3080    1.2590    0.7390 C   0  0  0  0  0  0  0  0  0  0  0  0
   -2.0220   -2.2850    0.1270 C   0  0  0  0  0  0  0  0  0  0  0  0
   -3.3870   -2.0730   -0.0270 C   0  0  0  0  0  0  0  0  0  0  0  0
   -3.8340   -0.7760   -0.0470 C   0  0  0  0  0  0  0  0  0  0  0  0
   -5.1120   -0.2190   -0.1820 C   0  0  0  0  0  0  0  0  0  0  0  0
   -6.3440   -1.0180   -0.3270 C   0  0  0  0  0  0  0  0  0  0  0  0
   -7.1430   -1.1710    0.9230 C   0  0  0  0  0  0  0  0  0  0  0  0
   -8.3850   -2.0140    0.6070 C   0  0  0  0  0  0  0  0  0  0  0  0
   -7.9960   -3.2710    0.1370 F   0  0  0  0  0  0  0  0  0  0  0  0
  1  2  1  0
  2  3  1  0
  3  4  2  0
  3  5  1  0
  5  6  1  0
  5 36  2  0
  6  7  1  0
  7  8  2  0
  7 35  1  0
  8  9  1  0
  9 10  1  0
  9 33  2  0
 10 11  1  0
 11 12  2  0
 11 13  1  0
 13 14  1  0
 14 15  1  0
 15 16  2  0
 15 20  1  0
 16 17  1  0
 17 18  2  0
 18 19  1  0
 19 20  2  0
 20 21  1  0
 21 22  2  3
 22 23  1  0
 22 32  1  0
 23 24  1  0
 24 25  2  0
 25 26  1  0
 25 27  1  0
 27 28  2  0
 27 32  1  0
 28 29  1  0
 29 30  2  0
 30 31  1  0
 31 32  2  0
 33 34  1  0
 34 35  2  0
 35 36  1  0
 36 37  1  0
 37 38  1  0
 38 39  1  0
 39 40  1  0
M  CHG  1  30   1
M  END
