
     RDKit          3D

 40 45  0  0  0  0  0  0  0  0999 V2000
    2.2240   -2.8600   -0.8170 O   0  0  0  0  0  0  0  0  0  0  0  0
    1.3630   -2.0790   -0.3400 C   0  0  0  0  0  0  0  0  0  0  0  0
   -0.0900   -2.4010   -0.5490 C   0  0  0  0  0  0  0  0  0  0  0  0
   -0.8470   -1.4000    0.0580 O   0  0  0  0  0  0  0  0  0  0  0  0
   -2.2170   -1.3830    0.0510 C   0  0  0  0  0  0  0  0  0  0  0  0
   -2.9770   -2.3530   -0.5570 C   0  0  0  0  0  0  0  0  0  0  0  0
   -4.3680   -2.2930   -0.5380 C   0  0  0  0  0  0  0  0  0  0  0  0
   -4.9990   -1.2650    0.0870 C   0  0  0  0  0  0  0  0  0  0  0  0
   -6.4400   -1.0890    0.1750 C   0  0  0  0  0  0  0  0  0  0  0  0
   -7.0780    0.1080   -0.0710 C   0  0  0  0  0  0  0  0  0  0  0  0
   -8.4390    0.2880    0.0050 C   0  0  0  0  0  0  0  0  0  0  0  0
   -9.2830    1.3560   -0.1910 C   0  0  0  0  0  0  0  0  0  0  0  0
  -10.5650    0.9250    0.0330 C   0  0  0  0  0  0  0  0  0  0  0  0
  -10.4940   -0.3910    0.3600 N   0  0  0  0  0  0  0  0  0  0  0  0
   -9.2150   -0.8150    0.3530 C   0  0  0  0  0  0  0  0  0  0  0  0
   -8.6180   -2.0190    0.6050 C   0  0  0  0  0  0  0  0  0  0  0  0
   -7.2500   -2.1510    0.5170 C   0  0  0  0  0  0  0  0  0  0  0  0
   -6.5350   -3.7270    0.8560 Cl  0  0  0  0  0  0  0  0  0  0  0  0
  -11.6210    1.7090   -0.0720 C   0  0  0  0  0  0  0  0  0  0  0  0
  -11.4130    3.0170   -0.4220 O   0  0  0  0  0  0  0  0  0  0  0  0
  -10.1370    3.5690   -0.6750 C   0  0  0  0  0  0  0  0  0  0  0  0
   -9.0480    2.5970   -0.5260 C   0  0  0  0  0  0  0  0  0  0  0  0
   -4.2150   -0.2880    0.6990 C   0  0  0  0  0  0  0  0  0  0  0  0
   -2.8430   -0.3230    0.6960 C   0  0  0  0  0  0  0  0  0  0  0  0
   -2.1400    0.6640    1.3140 F   0  0  0  0  0  0  0  0  0  0  0  0
    1.7590   -0.9290    0.3740 N   0  0  0  0  0  0  0  0  0  0  0  0
    3.1430   -0.6180    0.5690 C   0  0  0  0  0  0  0  0  0  0  0  0
    3.8370   -0.4110   -0.7480 C   0  0  0  0  0  0  0  0  0  0  0  0
    5.3050   -0.0720   -0.5530 C   0  0  0  0  0  0  0  0  0  0  0  0
    6.0080   -1.1240    0.1410 N   0  0  0  0  0  0  0  0  0  0  0  0
    7.3830   -0.9130    0.3830 C   0  0  0  0  0  0  0  0  0  0  0  0
    8.2020    0.0510    0.1170 N   0  0  0  0  0  0  0  0  0  0  0  0
    9.4670    0.0210    0.4490 C   0  0  0  0  0  0  0  0  0  0  0  0
   10.4610    1.1240    0.1600 C   0  0  0  0  0  0  0  0  0  0  0  0
   10.1760    2.2470   -0.4610 C   0  0  0  0  0  0  0  0  0  0  0  0
   11.3590    3.1330   -0.5960 C   0  0  0  0  0  0  0  0  0  0  0  0
   12.3160    2.4580    0.3980 C   0  0  0  0  0  0  0  0  0  0  0  0
   11.7820    1.1420    0.4840 O   0  0  0  0  0  0  0  0  0  0  0  0
    9.9190   -1.1270    1.1240 C   0  0  0  0  0  0  0  0  0  0  0  0
    8.4400   -2.1270    1.2420 S   0  0  0  0  0  0  0  0  0  0  0  0
  1  2  2  0
  2  3  1  0
  2 26  1  0
  3  4  1  0
  4  5  1  0
  5  6  2  0
  5 24  1  0
  6  7  1  0
  7  8  2  0
  8  9  1  0
  8 23  1  0
  9 10  2  0
  9 17  1  0
 10 11  1  0
 11 12  1  0
 11 15  2  0
 12 13  1  0
 12 22  2  0
 13 14  1  0
 13 19  2  0
 14 15  1  0
 15 16  1  0
 16 17  2  0
 17 18  1  0
 19 20  1  0
 20 21  1  0
 21 22  1  0
 23 24  2  0
 24 25  1  0
 26 27  1  0
 27 28  1  0
 28 29  1  0
 29 30  1  0
 30 31  1  0
 31 32  2  0
 31 40  1  0
 32 33  1  0
 33 34  1  0
 33 39  2  0
 34 35  2  0
 34 38  1  0
 35 36  1  0
 36 37  1  0
 37 38  1  0
 39 40  1  0
M  CHG  1  32   1
M  END
