
     RDKit          3D

 40 44  0  0  0  0  0  0  0  0999 V2000
   -7.9580   -0.2840    0.5760 C   0  0  0  0  0  0  0  0  0  0  0  0
   -6.8580    0.5100    0.0210 C   0  0  0  0  0  0  0  0  0  0  0  0
   -6.7500    1.8230    0.0250 C   0  0  0  0  0  0  0  0  0  0  0  0
   -5.5590    2.3660   -0.5920 N   0  0  0  0  0  0  0  0  0  0  0  0
   -4.5910    2.8110    0.3830 C   0  0  0  0  0  0  0  0  0  0  0  0
   -3.5030    1.7380    0.3860 C   0  0  0  0  0  0  0  0  0  0  0  0
   -3.4240    0.5930    1.0460 C   0  0  0  0  0  0  0  0  0  0  0  0
   -2.3940   -0.2060    0.9150 N   0  0  0  0  0  0  0  0  0  0  0  0
   -2.3000   -1.5180    1.6610 C   0  0  0  0  0  0  0  0  0  0  0  0
   -2.9200   -2.5830    0.8610 C   0  0  0  0  0  0  0  0  0  0  0  0
   -2.2900   -3.3640   -0.0730 C   0  0  0  0  0  0  0  0  0  0  0  0
   -3.2410   -4.2460   -0.5960 C   0  0  0  0  0  0  0  0  0  0  0  0
   -4.4020   -3.9260    0.0750 C   0  0  0  0  0  0  0  0  0  0  0  0
   -4.1720   -2.9460    0.9210 O   0  0  0  0  0  0  0  0  0  0  0  0
   -1.4250    0.1860    0.0830 C   0  0  0  0  0  0  0  0  0  0  0  0
   -0.2690   -0.3720   -0.2680 N   0  0  0  0  0  0  0  0  0  0  0  0
    0.5570    0.3160   -1.1980 C   0  0  0  0  0  0  0  0  0  0  0  0
    0.1530    1.2630   -1.9080 O   0  0  0  0  0  0  0  0  0  0  0  0
    1.9410   -0.1290   -1.3040 C   0  0  0  0  0  0  0  0  0  0  0  0
    2.4460   -1.1740   -0.5640 C   0  0  0  0  0  0  0  0  0  0  0  0
    3.7520   -1.5880   -0.6570 C   0  0  0  0  0  0  0  0  0  0  0  0
    4.6050   -0.9180   -1.5410 C   0  0  0  0  0  0  0  0  0  0  0  0
    6.0130   -1.3830   -1.6350 C   0  0  0  0  0  0  0  0  0  0  0  0
    6.7430   -0.8820   -0.4460 C   0  0  0  0  0  0  0  0  0  0  0  0
    6.9640   -1.7890    0.5920 C   0  0  0  0  0  0  0  0  0  0  0  0
    7.6180   -1.3600    1.7160 C   0  0  0  0  0  0  0  0  0  0  0  0
    7.8480   -2.2410    2.7550 O   0  0  0  0  0  0  0  0  0  0  0  0
    8.0460   -0.0550    1.8120 C   0  0  0  0  0  0  0  0  0  0  0  0
    7.8270    0.8370    0.7880 C   0  0  0  0  0  0  0  0  0  0  0  0
    7.1630    0.4190   -0.3660 C   0  0  0  0  0  0  0  0  0  0  0  0
    7.0970    1.5390   -1.2430 N   0  0  0  0  0  0  0  0  0  0  0  0
    7.4510    2.7090   -0.4650 C   0  0  0  0  0  0  0  0  0  0  0  0
    8.1560    2.1890    0.6470 O   0  0  0  0  0  0  0  0  0  0  0  0
    4.1500    0.1250   -2.2970 C   0  0  0  0  0  0  0  0  0  0  0  0
    2.8150    0.5100   -2.1690 C   0  0  0  0  0  0  0  0  0  0  0  0
   -2.0480    1.7860   -0.5280 S   0  0  0  0  0  0  0  0  0  0  0  0
   -7.7740    2.6520    0.6070 C   0  0  0  0  0  0  0  0  0  0  0  0
   -9.2490    1.9950    1.3400 Cl  0  0  0  0  0  0  0  0  0  0  0  0
   -7.6830    3.9660    0.6270 C   0  0  0  0  0  0  0  0  0  0  0  0
   -6.6110    4.5970    0.0980 F   0  0  0  0  0  0  0  0  0  0  0  0
  1  2  1  0
  2  3  2  3
  3  4  1  0
  3 37  1  0
  4  5  1  0
  5  6  1  0
  6  7  2  0
  6 36  1  0
  7  8  1  0
  8  9  1  0
  8 15  1  0
  9 10  1  0
 10 11  2  0
 10 14  1  0
 11 12  1  0
 12 13  2  0
 13 14  1  0
 15 16  2  3
 15 36  1  0
 16 17  1  0
 17 18  2  0
 17 19  1  0
 19 20  2  0
 19 35  1  0
 20 21  1  0
 21 22  2  0
 22 23  1  0
 22 34  1  0
 23 24  1  0
 24 25  2  0
 24 30  1  0
 25 26  1  0
 26 27  1  0
 26 28  2  0
 28 29  1  0
 29 30  2  0
 29 33  1  0
 30 31  1  0
 31 32  1  0
 32 33  1  0
 34 35  2  0
 37 38  1  0
 37 39  2  3
 39 40  1  0
M  CHG  1   4   1
M  END
