
     RDKit          3D

 26 28  0  0  0  0  0  0  0  0999 V2000
    8.1130    1.3940   -1.2470 C   0  0  0  0  0  0  0  0  0  0  0  0
    7.0200    0.6580   -1.1690 C   0  0  0  0  0  0  0  0  0  0  0  0
    6.9110   -0.5700   -1.8150 O   0  0  0  0  0  0  0  0  0  0  0  0
    5.9090    1.1580   -0.3820 C   0  0  0  0  0  0  0  0  0  0  0  0
    4.7990    0.4330   -0.2900 C   0  0  0  0  0  0  0  0  0  0  0  0
    3.6530    0.8750    0.4790 C   0  0  0  0  0  0  0  0  0  0  0  0
    2.5320    0.2200    0.6170 C   0  0  0  0  0  0  0  0  0  0  0  0
    2.2000   -1.0500    0.0510 C   0  0  0  0  0  0  0  0  0  0  0  0
    2.9700   -1.8240   -0.7310 N   0  0  0  0  0  0  0  0  0  0  0  0
    2.3330   -2.9290   -1.0660 N   0  0  0  0  0  0  0  0  0  0  0  0
    1.1230   -2.8510   -0.4780 C   0  0  0  0  0  0  0  0  0  0  0  0
   -0.0250   -4.0160   -0.6180 S   0  0  0  0  0  0  0  0  0  0  0  0
    1.0360   -1.7000    0.2080 N   0  0  0  0  0  0  0  0  0  0  0  0
   -0.0670   -1.2570    0.9530 C   0  0  0  0  0  0  0  0  0  0  0  0
    0.0120   -1.3520    2.3430 C   0  0  0  0  0  0  0  0  0  0  0  0
   -1.0310   -0.9370    3.1480 C   0  0  0  0  0  0  0  0  0  0  0  0
   -2.1550   -0.4220    2.5040 C   0  0  0  0  0  0  0  0  0  0  0  0
   -2.2480   -0.3220    1.1340 C   0  0  0  0  0  0  0  0  0  0  0  0
   -3.4200    0.2060    0.5610 N   0  0  0  0  0  0  0  0  0  0  0  0
   -4.5380    0.5610    1.4070 C   0  0  0  0  0  0  0  0  0  0  0  0
   -5.8400    0.6610    0.6660 C   0  0  0  0  0  0  0  0  0  0  0  0
   -5.7380    1.2820   -0.6800 C   0  0  0  0  0  0  0  0  0  0  0  0
   -4.3520    1.6290   -1.1060 C   0  0  0  0  0  0  0  0  0  0  0  0
   -3.4840    0.3830   -0.8700 C   0  0  1  0  0  0  0  0  0  0  0  0
   -2.1650    0.5300   -1.5490 C   0  0  0  0  0  0  0  0  0  0  0  0
   -1.1880   -0.7490    0.4360 N   0  0  0  0  0  0  0  0  0  0  0  0
  1  2  2  0
  2  3  1  0
  2  4  1  0
  4  5  2  3
  5  6  1  0
  6  7  2  3
  7  8  1  0
  8  9  2  0
  8 13  1  0
  9 10  1  0
 10 11  1  0
 11 12  2  0
 11 13  1  0
 13 14  1  0
 14 15  2  0
 14 26  1  0
 15 16  1  0
 16 17  2  0
 17 18  1  0
 18 19  1  0
 18 26  2  0
 19 20  1  0
 19 24  1  0
 20 21  1  0
 21 22  1  0
 22 23  1  0
 23 24  1  0
 24 25  1  1
M  END
