
     RDKit          3D

 26 28  0  0  0  0  0  0  0  0999 V2000
    6.7360   -3.0160    2.4720 C   0  0  0  0  0  0  0  0  0  0  0  0
    5.5490   -2.2520    1.9010 C   0  0  0  0  0  0  0  0  0  0  0  0
    4.3300   -2.3260    2.6360 C   0  0  0  0  0  0  0  0  0  0  0  0
    3.2970   -1.2900    1.5660 S   0  0  0  0  0  0  0  0  0  0  0  0
    4.5140   -0.9070    0.3530 C   0  0  0  0  0  0  0  0  0  0  0  0
    4.4990   -0.1160   -0.8600 C   0  0  0  0  0  0  0  0  0  0  0  0
    5.7130   -0.0330   -1.6000 C   0  0  0  0  0  0  0  0  0  0  0  0
    5.7440    0.7020   -2.7480 C   0  0  0  0  0  0  0  0  0  0  0  0
    4.6120    1.3470   -3.1710 C   0  0  0  0  0  0  0  0  0  0  0  0
    3.4950    1.2450   -2.4520 N   0  0  0  0  0  0  0  0  0  0  0  0
    3.4020    0.5230   -1.2910 C   0  0  0  0  0  0  0  0  0  0  0  0
    2.1570    0.5070   -0.6470 N   0  0  0  0  0  0  0  0  0  0  0  0
    1.0320    1.2280   -1.1850 C   0  0  0  0  0  0  0  0  0  0  0  0
    1.2000    1.8700   -2.2430 O   0  0  0  0  0  0  0  0  0  0  0  0
   -0.1940    1.1560   -0.4700 N   0  0  0  0  0  0  0  0  0  0  0  0
   -1.3320    1.8560   -0.9680 C   0  0  0  0  0  0  0  0  0  0  0  0
   -2.5290    1.6050   -0.0300 C   0  0  2  0  0  0  0  0  0  0  0  0
   -3.6610    2.4260   -0.6750 C   0  0  0  0  0  0  0  0  0  0  0  0
   -2.3140    2.1110    1.3460 C   0  0  0  0  0  0  0  0  0  0  0  0
   -2.8630    0.1490    0.0000 C   0  0  0  0  0  0  0  0  0  0  0  0
   -3.9150   -0.2750    0.8620 N   0  0  0  0  0  0  0  0  0  0  0  0
   -4.0360   -1.7320    0.8570 C   0  0  0  0  0  0  0  0  0  0  0  0
   -5.3550   -1.9540    1.5260 C   0  0  0  0  0  0  0  0  0  0  0  0
   -6.2180   -0.9380    0.7890 C   0  0  0  0  0  0  0  0  0  0  0  0
   -5.2110    0.1890    0.5440 C   0  0  0  0  0  0  0  0  0  0  0  0
    5.5690   -1.5760    0.8470 N   0  0  0  0  0  0  0  0  0  0  0  0
  1  2  1  0
  2  3  2  0
  2 26  1  0
  3  4  1  0
  4  5  1  0
  5  6  1  0
  5 26  2  0
  6  7  2  0
  6 11  1  0
  7  8  1  0
  8  9  2  0
  9 10  1  0
 10 11  2  0
 11 12  1  0
 12 13  1  0
 13 14  2  0
 13 15  1  0
 15 16  1  0
 16 17  1  0
 17 18  1  6
 17 19  1  0
 17 20  1  0
 20 21  1  0
 21 22  1  0
 21 25  1  0
 22 23  1  0
 23 24  1  0
 24 25  1  0
M  END
