
     RDKit          3D

 26 28  0  0  0  0  0  0  0  0999 V2000
   -4.9390    3.3140    0.1160 C   0  0  0  0  0  0  0  0  0  0  0  0
   -4.7180    2.2000    1.1100 C   0  0  0  0  0  0  0  0  0  0  0  0
   -3.7760    1.1650    0.6130 C   0  0  0  0  0  0  0  0  0  0  0  0
   -4.0550   -0.0640    0.1450 N   0  0  0  0  0  0  0  0  0  0  0  0
   -2.9250   -0.7020   -0.2090 N   0  0  0  0  0  0  0  0  0  0  0  0
   -2.8410   -2.0160   -0.7440 C   0  0  0  0  0  0  0  0  0  0  0  0
   -2.3660   -3.0900   -0.0270 C   0  0  0  0  0  0  0  0  0  0  0  0
   -2.2940   -4.3610   -0.5650 C   0  0  0  0  0  0  0  0  0  0  0  0
   -2.7100   -4.5690   -1.8630 C   0  0  0  0  0  0  0  0  0  0  0  0
   -3.1820   -3.4820   -2.5640 C   0  0  0  0  0  0  0  0  0  0  0  0
   -3.2350   -2.2650   -2.0020 N   0  0  0  0  0  0  0  0  0  0  0  0
   -1.8740    0.1020    0.0220 C   0  0  0  0  0  0  0  0  0  0  0  0
   -0.4330   -0.2070   -0.2270 C   0  0  0  0  0  0  0  0  0  0  0  0
    0.2420   -0.5090    1.0690 C   0  0  0  0  0  0  0  0  0  0  0  0
    1.6330   -0.8290    0.9940 N   0  0  0  0  0  0  0  0  0  0  0  0
    2.5800    0.1130    0.4820 C   0  0  0  0  0  0  0  0  0  0  0  0
    2.1180    1.2010    0.1200 O   0  0  0  0  0  0  0  0  0  0  0  0
    3.9400   -0.1690    0.3940 N   0  0  0  0  0  0  0  0  0  0  0  0
    4.9610    0.7410   -0.1160 C   0  0  0  0  0  0  0  0  0  0  0  0
    4.7260    1.9660   -0.5830 C   0  0  0  0  0  0  0  0  0  0  0  0
    5.7540    2.7320   -1.0370 C   0  0  0  0  0  0  0  0  0  0  0  0
    7.2220    1.6690   -0.8050 S   0  0  0  0  0  0  0  0  0  0  0  0
    6.2710    0.2890   -0.1120 C   0  0  0  0  0  0  0  0  0  0  0  0
    6.8840   -0.9690    0.3180 C   0  0  0  0  0  0  0  0  0  0  0  0
   -2.3980    1.2700    0.5350 C   0  0  0  0  0  0  0  0  0  0  0  0
   -1.6010    2.4500    0.9380 C   0  0  0  0  0  0  0  0  0  0  0  0
  1  2  1  0
  2  3  1  0
  3  4  2  0
  3 25  1  0
  4  5  1  0
  5  6  1  0
  5 12  1  0
  6  7  2  0
  6 11  1  0
  7  8  1  0
  8  9  2  0
  9 10  1  0
 10 11  2  0
 12 13  1  0
 12 25  2  0
 13 14  1  0
 14 15  1  0
 15 16  1  0
 16 17  2  0
 16 18  1  0
 18 19  1  0
 19 20  1  0
 19 23  2  0
 20 21  2  0
 21 22  1  0
 22 23  1  0
 23 24  1  0
 25 26  1  0
M  END
