
     RDKit          3D

 26 28  0  0  0  0  0  0  0  0999 V2000
    6.8270    0.4460   -1.0320 C   0  0  0  0  0  0  0  0  0  0  0  0
    6.6180   -0.1830    0.3240 C   0  0  0  0  0  0  0  0  0  0  0  0
    7.6160   -0.6820    1.0950 N   0  0  0  0  0  0  0  0  0  0  0  0
    7.0810   -1.1310    2.2440 C   0  0  0  0  0  0  0  0  0  0  0  0
    5.7240   -0.9220    2.2220 C   0  0  0  0  0  0  0  0  0  0  0  0
    5.4110   -0.3200    1.0020 C   0  0  0  0  0  0  0  0  0  0  0  0
    4.1110    0.0150    0.4940 C   0  0  0  0  0  0  0  0  0  0  0  0
    3.4700    1.0260    0.8590 O   0  0  0  0  0  0  0  0  0  0  0  0
    3.4630   -0.8300   -0.4940 N   0  0  0  0  0  0  0  0  0  0  0  0
    2.1820   -0.3970   -0.9780 C   0  0  0  0  0  0  0  0  0  0  0  0
    1.1370   -1.2960   -1.0240 C   0  0  0  0  0  0  0  0  0  0  0  0
   -0.0890   -0.9370   -1.5400 C   0  0  0  0  0  0  0  0  0  0  0  0
   -0.2670    0.3780   -2.0250 C   0  0  0  0  0  0  0  0  0  0  0  0
   -1.8230    0.8420   -2.7370 S   0  0  0  0  0  0  0  0  0  0  0  0
   -2.7320    1.8940   -1.6050 C   0  0  0  0  0  0  0  0  0  0  0  0
   -3.1900    1.1860   -0.4010 C   0  0  0  0  0  0  0  0  0  0  0  0
   -2.4130    1.0080    0.7300 C   0  0  0  0  0  0  0  0  0  0  0  0
   -2.9300    0.3970    1.8510 C   0  0  0  0  0  0  0  0  0  0  0  0
   -4.1960   -0.0440    1.8890 N   0  0  0  0  0  0  0  0  0  0  0  0
   -4.9890    0.1090    0.7900 C   0  0  0  0  0  0  0  0  0  0  0  0
   -6.3230   -0.3530    0.7760 N   0  0  0  0  0  0  0  0  0  0  0  0
   -6.6890   -1.6370    1.3180 C   0  0  0  0  0  0  0  0  0  0  0  0
   -7.3800    0.4720    0.2150 C   0  0  0  0  0  0  0  0  0  0  0  0
   -4.4910    0.7150   -0.3340 C   0  0  0  0  0  0  0  0  0  0  0  0
    0.7870    1.1810   -1.9430 N   0  0  0  0  0  0  0  0  0  0  0  0
    2.0020    0.8850   -1.4520 C   0  0  0  0  0  0  0  0  0  0  0  0
  1  2  1  0
  2  3  1  0
  2  6  2  0
  3  4  1  0
  4  5  2  0
  5  6  1  0
  6  7  1  0
  7  8  2  0
  7  9  1  0
  9 10  1  0
 10 11  2  0
 10 26  1  0
 11 12  1  0
 12 13  2  0
 13 14  1  0
 13 25  1  0
 14 15  1  0
 15 16  1  0
 16 17  2  0
 16 24  1  0
 17 18  1  0
 18 19  2  0
 19 20  1  0
 20 21  1  0
 20 24  2  0
 21 22  1  0
 21 23  1  0
 25 26  2  0
M  END
