
     RDKit          3D

 26 28  0  0  0  0  0  0  0  0999 V2000
   -8.1970    0.4090    1.6140 C   0  0  0  0  0  0  0  0  0  0  0  0
   -7.5720   -0.0390    0.5530 C   0  0  0  0  0  0  0  0  0  0  0  0
   -6.2030   -0.3350    0.4880 N   0  0  0  0  0  0  0  0  0  0  0  0
   -5.2490    0.4640    1.1910 C   0  0  0  0  0  0  0  0  0  0  0  0
   -4.0530    0.6230    0.2370 C   0  0  0  0  0  0  0  0  0  0  0  0
   -3.4370   -0.6510    0.0430 N   0  0  0  0  0  0  0  0  0  0  0  0
   -2.7460   -0.6500   -1.2310 C   0  0  0  0  0  0  0  0  0  0  0  0
   -1.6880    0.3590   -1.3420 C   0  0  0  0  0  0  0  0  0  0  0  0
   -0.3970    0.0670   -0.9510 C   0  0  0  0  0  0  0  0  0  0  0  0
    0.6490    0.9960   -1.0390 C   0  0  0  0  0  0  0  0  0  0  0  0
    1.9580    0.6800   -0.6370 N   0  0  0  0  0  0  0  0  0  0  0  0
    2.3280   -0.6270   -0.1130 C   0  0  0  0  0  0  0  0  0  0  0  0
    3.7880   -0.6560    0.2210 C   0  0  0  0  0  0  0  0  0  0  0  0
    4.5980   -1.6500    0.7040 C   0  0  0  0  0  0  0  0  0  0  0  0
    5.8500   -1.3090    0.8780 N   0  0  0  0  0  0  0  0  0  0  0  0
    6.3860   -0.3030    0.6890 C   0  0  0  0  0  0  0  0  0  0  0  0
    7.7380    0.3950    0.7760 C   0  0  1  0  0  0  0  0  0  0  0  0
    8.1650    0.2260    2.2250 C   0  0  0  0  0  0  0  0  0  0  0  0
    8.6490   -0.4100   -0.1410 C   0  0  0  0  0  0  0  0  0  0  0  0
    4.9420    0.7390    0.0510 S   0  0  0  0  0  0  0  0  0  0  0  0
    0.3720    2.2380   -1.5330 C   0  0  0  0  0  0  0  0  0  0  0  0
   -0.9220    2.5160   -1.9200 C   0  0  0  0  0  0  0  0  0  0  0  0
   -1.1280    3.6860   -2.3740 O   0  0  0  0  0  0  0  0  0  0  0  0
   -1.9040    1.5980   -1.8220 N   0  0  0  0  0  0  0  0  0  0  0  0
   -4.3190   -1.7700    0.0800 C   0  0  0  0  0  0  0  0  0  0  0  0
   -5.7410   -1.4440   -0.2850 C   0  0  0  0  0  0  0  0  0  0  0  0
  1  2  2  0
  2  3  1  0
  3  4  1  0
  3 26  1  0
  4  5  1  0
  5  6  1  0
  6  7  1  0
  6 25  1  0
  7  8  1  0
  8  9  2  0
  8 24  1  0
  9 10  1  0
 10 11  1  0
 10 21  2  0
 11 12  1  0
 12 13  1  0
 13 14  2  0
 13 20  1  0
 14 15  1  0
 15 16  2  0
 16 17  1  0
 16 20  1  0
 17 18  1  1
 17 19  1  0
 21 22  1  0
 22 23  2  0
 22 24  1  0
 25 26  1  0
M  END
