
     RDKit          3D

 26 28  0  0  0  0  0  0  0  0999 V2000
   -6.0020   -0.1250   -1.6770 C   0  0  0  0  0  0  0  0  0  0  0  0
   -5.3030   -0.7300   -0.4990 C   0  0  0  0  0  0  0  0  0  0  0  0
   -4.7150    0.2370    0.4060 N   0  0  0  0  0  0  0  0  0  0  0  0
   -3.2740    0.3660    0.5310 C   0  0  0  0  0  0  0  0  0  0  0  0
   -2.4180    0.9410    1.0860 N   0  0  0  0  0  0  0  0  0  0  0  0
   -1.1500    0.8230    0.9660 N   0  0  0  0  0  0  0  0  0  0  0  0
   -0.6260   -0.0030    0.1630 C   0  0  0  0  0  0  0  0  0  0  0  0
    0.6670   -0.4730   -0.3010 C   0  0  0  0  0  0  0  0  0  0  0  0
    0.9460   -1.4350   -1.2460 C   0  0  0  0  0  0  0  0  0  0  0  0
   -0.0830   -2.2000   -1.9950 C   0  0  0  0  0  0  0  0  0  0  0  0
    2.2500   -1.5710   -1.3820 N   0  0  0  0  0  0  0  0  0  0  0  0
    2.8690   -0.6970   -0.5250 C   0  0  0  0  0  0  0  0  0  0  0  0
    4.3120   -0.6230   -0.4650 C   0  0  0  0  0  0  0  0  0  0  0  0
    5.0060   -1.3290   -1.2750 O   0  0  0  0  0  0  0  0  0  0  0  0
    5.0580    0.1720    0.4210 N   0  0  0  0  0  0  0  0  0  0  0  0
    6.5020    0.1410    0.3580 C   0  0  0  0  0  0  0  0  0  0  0  0
    7.3000    1.1540    0.1180 C   0  0  0  0  0  0  0  0  0  0  0  0
    8.7140    0.6790    0.1460 C   0  0  0  0  0  0  0  0  0  0  0  0
    8.5830   -0.7820    0.4420 C   0  0  0  0  0  0  0  0  0  0  0  0
    7.2890   -1.0540    0.5580 C   0  0  0  0  0  0  0  0  0  0  0  0
    1.8870   -0.0190    0.1420 C   0  0  0  0  0  0  0  0  0  0  0  0
    2.0720    1.0260    1.1580 C   0  0  0  0  0  0  0  0  0  0  0  0
   -2.1890   -0.7470   -0.5520 S   0  0  0  0  0  0  0  0  0  0  0  0
   -5.5010    1.1170    1.2150 C   0  0  2  0  0  0  0  0  0  0  0  0
   -6.4350    0.3370    2.1290 C   0  0  0  0  0  0  0  0  0  0  0  0
   -6.3550    2.0920    0.4380 C   0  0  0  0  0  0  0  0  0  0  0  0
  1  2  1  0
  2  3  1  0
  3  4  1  0
  3 24  1  0
  4  5  2  0
  4 23  1  0
  5  6  1  0
  6  7  2  0
  7  8  1  0
  7 23  1  0
  8  9  2  0
  8 21  1  0
  9 10  1  0
  9 11  1  0
 11 12  1  0
 12 13  1  0
 12 21  2  0
 13 14  2  0
 13 15  1  0
 15 16  1  0
 16 17  2  0
 16 20  1  0
 17 18  1  0
 18 19  1  0
 19 20  2  0
 21 22  1  0
 24 25  1  6
 24 26  1  0
M  END
