
     RDKit          3D

 27 29  0  0  0  0  0  0  0  0999 V2000
   -4.6710   -2.5270   -1.1380 C   0  0  0  0  0  0  0  0  0  0  0  0
   -3.5830   -1.6220   -0.6770 C   0  0  0  0  0  0  0  0  0  0  0  0
   -3.8070   -0.2820   -0.4430 C   0  0  0  0  0  0  0  0  0  0  0  0
   -2.7890    0.5450   -0.0160 C   0  0  0  0  0  0  0  0  0  0  0  0
   -3.0760    1.8520    0.1960 N   0  0  0  0  0  0  0  0  0  0  0  0
   -2.1510    2.7330    0.6140 C   0  0  0  0  0  0  0  0  0  0  0  0
   -2.3980    4.0700    0.8430 C   0  0  0  0  0  0  0  0  0  0  0  0
   -3.5470    4.5150    0.6570 O   0  0  0  0  0  0  0  0  0  0  0  0
   -1.4190    4.8900    1.2600 N   0  0  0  0  0  0  0  0  0  0  0  0
   -0.1910    4.3790    1.4500 C   0  0  0  0  0  0  0  0  0  0  0  0
    0.7170    5.1830    1.8470 O   0  0  0  0  0  0  0  0  0  0  0  0
    0.1230    3.0860    1.2480 N   0  0  0  0  0  0  0  0  0  0  0  0
   -0.8120    2.1980    0.8270 C   0  0  0  0  0  0  0  0  0  0  0  0
   -0.5080    0.8860    0.6170 N   0  0  0  0  0  0  0  0  0  0  0  0
    0.8240    0.4250    0.8440 C   0  0  0  0  0  0  0  0  0  0  0  0
    1.7010    0.5290   -0.3800 C   0  0  2  0  0  0  0  0  0  0  0  0
    1.2580   -0.2010   -1.4560 O   0  0  0  0  0  0  0  0  0  0  0  0
    3.1690    0.3090   -0.0850 C   0  0  2  0  0  0  0  0  0  0  0  0
    3.8290    0.7400   -1.2690 O   0  0  0  0  0  0  0  0  0  0  0  0
    3.5320   -1.1120    0.2220 C   0  0  2  0  0  0  0  0  0  0  0  0
    2.9010   -1.5000    1.3930 O   0  0  0  0  0  0  0  0  0  0  0  0
    5.0180   -1.2870    0.4340 C   0  0  0  0  0  0  0  0  0  0  0  0
    5.4780   -0.5020    1.4990 O   0  0  0  0  0  0  0  0  0  0  0  0
   -1.4870    0.0770    0.2020 C   0  0  0  0  0  0  0  0  0  0  0  0
   -1.2970   -1.2700   -0.0410 C   0  0  0  0  0  0  0  0  0  0  0  0
   -2.3130   -2.0990   -0.4680 C   0  0  0  0  0  0  0  0  0  0  0  0
   -2.0570   -3.5420   -0.7170 C   0  0  0  0  0  0  0  0  0  0  0  0
  1  2  1  0
  2  3  2  0
  2 26  1  0
  3  4  1  0
  4  5  1  0
  4 24  2  0
  5  6  2  0
  6  7  1  0
  6 13  1  0
  7  8  2  0
  7  9  1  0
  9 10  1  0
 10 11  2  0
 10 12  1  0
 12 13  2  0
 13 14  1  0
 14 15  1  0
 14 24  1  0
 15 16  1  0
 16 17  1  6
 16 18  1  0
 18 19  1  6
 18 20  1  0
 20 21  1  1
 20 22  1  0
 22 23  1  0
 24 25  1  0
 25 26  2  0
 26 27  1  0
M  END
