
     RDKit          3D

 26 28  0  0  0  0  0  0  0  0999 V2000
    7.2310    2.7630    0.6180 C   0  0  0  0  0  0  0  0  0  0  0  0
    5.8360    2.6560    0.0720 C   0  0  0  0  0  0  0  0  0  0  0  0
    5.1820    1.4300    0.4360 N   0  0  0  0  0  0  0  0  0  0  0  0
    3.8450    1.2330   -0.0340 C   0  0  0  0  0  0  0  0  0  0  0  0
    3.2640    2.1160   -0.7470 O   0  0  0  0  0  0  0  0  0  0  0  0
    3.0890    0.0670    0.2540 N   0  0  0  0  0  0  0  0  0  0  0  0
    1.7630   -0.0690   -0.2420 C   0  0  0  0  0  0  0  0  0  0  0  0
    1.0810    0.8130   -0.9930 N   0  0  0  0  0  0  0  0  0  0  0  0
   -0.1530    0.3230   -1.2640 C   0  0  0  0  0  0  0  0  0  0  0  0
   -1.3400    1.1940   -2.2340 S   0  0  0  0  0  0  0  0  0  0  0  0
   -2.3880    2.2850   -1.2730 C   0  0  0  0  0  0  0  0  0  0  0  0
   -3.2770    1.5520   -0.3420 C   0  0  0  0  0  0  0  0  0  0  0  0
   -2.8450    1.2750    0.9360 C   0  0  0  0  0  0  0  0  0  0  0  0
   -3.6360    0.5960    1.8500 C   0  0  0  0  0  0  0  0  0  0  0  0
   -4.9120    0.1850    1.4490 C   0  0  0  0  0  0  0  0  0  0  0  0
   -5.3130    0.4770    0.1670 C   0  0  0  0  0  0  0  0  0  0  0  0
   -4.5080    1.1460   -0.7050 N   0  0  0  0  0  0  0  0  0  0  0  0
   -0.2830   -0.8860   -0.6880 N   0  0  0  0  0  0  0  0  0  0  0  0
   -1.4380   -1.7520   -0.7340 C   0  0  0  0  0  0  0  0  0  0  0  0
   -1.8030   -2.2570   -1.9740 C   0  0  0  0  0  0  0  0  0  0  0  0
   -2.8800   -3.0800   -2.1040 C   0  0  0  0  0  0  0  0  0  0  0  0
   -3.6180   -3.4160   -0.9990 C   0  0  0  0  0  0  0  0  0  0  0  0
   -3.2550   -2.9130    0.2350 C   0  0  0  0  0  0  0  0  0  0  0  0
   -2.1640   -2.0800    0.3690 C   0  0  0  0  0  0  0  0  0  0  0  0
    0.8930   -1.1230   -0.0630 C   0  0  0  0  0  0  0  0  0  0  0  0
    1.1870   -2.3580    0.7040 C   0  0  0  0  0  0  0  0  0  0  0  0
  1  2  1  0
  2  3  1  0
  3  4  1  0
  4  5  2  0
  4  6  1  0
  6  7  1  0
  7  8  1  0
  7 25  2  0
  8  9  2  0
  9 10  1  0
  9 18  1  0
 10 11  1  0
 11 12  1  0
 12 13  2  0
 12 17  1  0
 13 14  1  0
 14 15  2  0
 15 16  1  0
 16 17  2  0
 18 19  1  0
 18 25  1  0
 19 20  2  0
 19 24  1  0
 20 21  1  0
 21 22  2  0
 22 23  1  0
 23 24  2  0
 25 26  1  0
M  END
