
     RDKit          3D

 26 28  0  0  0  0  0  0  0  0999 V2000
    2.7130   -3.5210    0.1460 C   0  0  0  0  0  0  0  0  0  0  0  0
    2.5020   -2.3570   -0.4930 C   0  0  0  0  0  0  0  0  0  0  0  0
    1.8690   -1.3760    0.2200 O   0  0  0  0  0  0  0  0  0  0  0  0
    2.9490   -2.2250   -1.8570 C   0  0  0  0  0  0  0  0  0  0  0  0
    2.8360   -1.1890   -2.6320 C   0  0  0  0  0  0  0  0  0  0  0  0
    2.2250    0.0710   -2.2750 C   0  0  0  0  0  0  0  0  0  0  0  0
    2.1790    1.0330   -3.1550 C   0  0  0  0  0  0  0  0  0  0  0  0
    1.5980    2.3380   -2.9280 C   0  0  0  0  0  0  0  0  0  0  0  0
    1.5590    3.3490   -3.8620 N   0  0  0  0  0  0  0  0  0  0  0  0
    0.9720    4.3990   -3.3580 N   0  0  0  0  0  0  0  0  0  0  0  0
    0.6330    4.0860   -2.1190 C   0  0  0  0  0  0  0  0  0  0  0  0
   -0.1320    5.0860   -1.0790 S   0  0  0  0  0  0  0  0  0  0  0  0
    1.0190    2.7970   -1.8330 N   0  0  0  0  0  0  0  0  0  0  0  0
    0.7710    2.2090   -0.5630 C   0  0  0  0  0  0  0  0  0  0  0  0
    1.6760    2.3740    0.4830 C   0  0  0  0  0  0  0  0  0  0  0  0
    1.3990    1.8120    1.7060 C   0  0  0  0  0  0  0  0  0  0  0  0
    0.2490    1.0880    1.9280 C   0  0  0  0  0  0  0  0  0  0  0  0
   -0.6320    0.9370    0.8780 C   0  0  0  0  0  0  0  0  0  0  0  0
   -1.8440    0.1920    1.0580 N   0  0  0  0  0  0  0  0  0  0  0  0
   -2.7400    0.0570   -0.0750 C   0  0  0  0  0  0  0  0  0  0  0  0
   -2.8410   -1.4500   -0.3450 C   0  0  0  0  0  0  0  0  0  0  0  0
   -3.5100   -2.0590    0.8710 C   0  0  0  0  0  0  0  0  0  0  0  0
   -3.5850   -1.0970    2.0320 C   0  0  0  0  0  0  0  0  0  0  0  0
   -2.2270   -0.4270    2.2830 C   0  0  1  0  0  0  0  0  0  0  0  0
   -1.2990   -1.4810    2.7840 C   0  0  0  0  0  0  0  0  0  0  0  0
   -0.3420    1.4920   -0.2980 N   0  0  0  0  0  0  0  0  0  0  0  0
  1  2  2  0
  2  3  1  0
  2  4  1  0
  4  5  2  3
  5  6  1  0
  6  7  2  3
  7  8  1  0
  8  9  2  0
  8 13  1  0
  9 10  1  0
 10 11  1  0
 11 12  2  0
 11 13  1  0
 13 14  1  0
 14 15  2  0
 14 26  1  0
 15 16  1  0
 16 17  2  0
 17 18  1  0
 18 19  1  0
 18 26  2  0
 19 20  1  0
 19 24  1  0
 20 21  1  0
 21 22  1  0
 22 23  1  0
 23 24  1  0
 24 25  1  6
M  END
