
     RDKit          3D

 26 28  0  0  0  0  0  0  0  0999 V2000
   -5.7910   -1.1520   -2.1380 C   0  0  0  0  0  0  0  0  0  0  0  0
   -5.2230    0.0840   -1.5280 C   0  0  0  0  0  0  0  0  0  0  0  0
   -4.7240   -0.2060   -0.2060 N   0  0  0  0  0  0  0  0  0  0  0  0
   -3.3050   -0.1760    0.0080 C   0  0  0  0  0  0  0  0  0  0  0  0
   -2.5730   -0.3720    1.0120 N   0  0  0  0  0  0  0  0  0  0  0  0
   -1.2910   -0.2800    0.9260 N   0  0  0  0  0  0  0  0  0  0  0  0
   -0.6540   -0.0160   -0.0380 C   0  0  0  0  0  0  0  0  0  0  0  0
    0.7020    0.1830   -0.5570 C   0  0  0  0  0  0  0  0  0  0  0  0
    1.0990    0.4990   -1.8220 C   0  0  0  0  0  0  0  0  0  0  0  0
    0.2050    0.7180   -3.0040 C   0  0  0  0  0  0  0  0  0  0  0  0
    2.4390    0.5810   -1.8330 N   0  0  0  0  0  0  0  0  0  0  0  0
    2.9330    0.3210   -0.5820 C   0  0  0  0  0  0  0  0  0  0  0  0
    4.3370    0.3360   -0.2430 C   0  0  0  0  0  0  0  0  0  0  0  0
    5.1660    0.7130   -1.1530 O   0  0  0  0  0  0  0  0  0  0  0  0
    4.9170   -0.0220    0.9950 N   0  0  0  0  0  0  0  0  0  0  0  0
    6.3600    0.0590    1.1590 C   0  0  0  0  0  0  0  0  0  0  0  0
    7.0120    0.8010    2.0390 C   0  0  0  0  0  0  0  0  0  0  0  0
    8.4620    0.6040    1.8860 C   0  0  0  0  0  0  0  0  0  0  0  0
    8.5470   -0.3730    0.7740 C   0  0  0  0  0  0  0  0  0  0  0  0
    7.3280   -0.6810    0.3620 C   0  0  0  0  0  0  0  0  0  0  0  0
    1.8330    0.0740    0.2040 C   0  0  0  0  0  0  0  0  0  0  0  0
    1.8190   -0.2500    1.6470 C   0  0  0  0  0  0  0  0  0  0  0  0
   -2.0910    0.1900   -1.2560 S   0  0  0  0  0  0  0  0  0  0  0  0
   -5.5290   -0.5270    0.9220 C   0  0  1  0  0  0  0  0  0  0  0  0
   -6.5830    0.5470    1.2020 C   0  0  0  0  0  0  0  0  0  0  0  0
   -6.2250   -1.8600    0.8840 C   0  0  0  0  0  0  0  0  0  0  0  0
  1  2  1  0
  2  3  1  0
  3  4  1  0
  3 24  1  0
  4  5  2  0
  4 23  1  0
  5  6  1  0
  6  7  2  0
  7  8  1  0
  7 23  1  0
  8  9  2  0
  8 21  1  0
  9 10  1  0
  9 11  1  0
 11 12  1  0
 12 13  1  0
 12 21  2  0
 13 14  2  0
 13 15  1  0
 15 16  1  0
 16 17  2  0
 16 20  1  0
 17 18  1  0
 18 19  1  0
 19 20  2  0
 21 22  1  0
 24 25  1  6
 24 26  1  0
M  END
