
     RDKit          3D

 26 28  0  0  0  0  0  0  0  0999 V2000
   -7.2410   -0.1690    1.6100 C   0  0  0  0  0  0  0  0  0  0  0  0
   -6.0690    0.4390    1.6690 C   0  0  0  0  0  0  0  0  0  0  0  0
   -4.9110   -0.1250    1.0690 N   0  0  0  0  0  0  0  0  0  0  0  0
   -4.5940    0.0790   -0.3280 C   0  0  0  0  0  0  0  0  0  0  0  0
   -3.3210   -0.6650   -0.6320 C   0  0  0  0  0  0  0  0  0  0  0  0
   -2.2730   -0.2380    0.2420 N   0  0  0  0  0  0  0  0  0  0  0  0
   -1.0480   -0.9620    0.0110 C   0  0  0  0  0  0  0  0  0  0  0  0
   -0.5150   -0.8160   -1.3450 C   0  0  0  0  0  0  0  0  0  0  0  0
    0.3690    0.1830   -1.6990 C   0  0  0  0  0  0  0  0  0  0  0  0
    0.8760    0.3240   -2.9810 C   0  0  0  0  0  0  0  0  0  0  0  0
    1.7860    1.3540   -3.3270 N   0  0  0  0  0  0  0  0  0  0  0  0
    2.2980    2.2840   -2.3770 C   0  0  0  0  0  0  0  0  0  0  0  0
    3.0770    1.5590   -1.3470 C   0  0  0  0  0  0  0  0  0  0  0  0
    3.4660    0.2900   -1.1670 C   0  0  0  0  0  0  0  0  0  0  0  0
    4.1710    0.0390   -0.0850 N   0  0  0  0  0  0  0  0  0  0  0  0
    4.5120    0.7530    0.7480 C   0  0  0  0  0  0  0  0  0  0  0  0
    5.2780    0.8490    2.0610 C   0  0  1  0  0  0  0  0  0  0  0  0
    4.5900   -0.1080    3.0010 C   0  0  0  0  0  0  0  0  0  0  0  0
    6.7180    0.4370    1.8360 C   0  0  0  0  0  0  0  0  0  0  0  0
    3.7530    2.3840    0.0850 S   0  0  0  0  0  0  0  0  0  0  0  0
    0.4460   -0.6010   -3.9080 C   0  0  0  0  0  0  0  0  0  0  0  0
   -0.4370   -1.6070   -3.5750 C   0  0  0  0  0  0  0  0  0  0  0  0
   -0.8060   -2.4370   -4.4600 O   0  0  0  0  0  0  0  0  0  0  0  0
   -0.8900   -1.6820   -2.2990 N   0  0  0  0  0  0  0  0  0  0  0  0
   -2.6100   -0.3530    1.6390 C   0  0  0  0  0  0  0  0  0  0  0  0
   -4.0040   -0.9320    1.8510 C   0  0  0  0  0  0  0  0  0  0  0  0
  1  2  2  0
  2  3  1  0
  3  4  1  0
  3 26  1  0
  4  5  1  0
  5  6  1  0
  6  7  1  0
  6 25  1  0
  7  8  1  0
  8  9  2  0
  8 24  1  0
  9 10  1  0
 10 11  1  0
 10 21  2  0
 11 12  1  0
 12 13  1  0
 13 14  2  0
 13 20  1  0
 14 15  1  0
 15 16  2  0
 16 17  1  0
 16 20  1  0
 17 18  1  1
 17 19  1  0
 21 22  1  0
 22 23  2  0
 22 24  1  0
 25 26  1  0
M  END
