
     RDKit          3D

 26 28  0  0  0  0  0  0  0  0999 V2000
    8.2840   -0.3920    2.0870 C   0  0  0  0  0  0  0  0  0  0  0  0
    6.8040   -0.4100    1.6880 C   0  0  0  0  0  0  0  0  0  0  0  0
    5.8750   -0.8160    2.6220 C   0  0  0  0  0  0  0  0  0  0  0  0
    4.3590   -0.6460    1.6540 S   0  0  0  0  0  0  0  0  0  0  0  0
    5.1600   -0.0680    0.1620 C   0  0  0  0  0  0  0  0  0  0  0  0
    4.5220    0.2990   -1.1190 C   0  0  0  0  0  0  0  0  0  0  0  0
    5.4380    0.6800   -2.0920 C   0  0  0  0  0  0  0  0  0  0  0  0
    4.9730    1.0540   -3.3220 C   0  0  0  0  0  0  0  0  0  0  0  0
    3.6330    1.0480   -3.5710 C   0  0  0  0  0  0  0  0  0  0  0  0
    2.7680    0.6780   -2.6240 N   0  0  0  0  0  0  0  0  0  0  0  0
    3.2000    0.2960   -1.3770 C   0  0  0  0  0  0  0  0  0  0  0  0
    2.2370   -0.0970   -0.4150 N   0  0  0  0  0  0  0  0  0  0  0  0
    0.8290   -0.0520   -0.7740 C   0  0  0  0  0  0  0  0  0  0  0  0
    0.5490    0.3480   -1.9320 O   0  0  0  0  0  0  0  0  0  0  0  0
   -0.1940   -0.4430    0.1330 N   0  0  0  0  0  0  0  0  0  0  0  0
   -1.5440   -0.3440   -0.3620 C   0  0  0  0  0  0  0  0  0  0  0  0
   -2.5940   -0.7900    0.6310 C   0  0  1  0  0  0  0  0  0  0  0  0
   -2.2740   -2.2730    0.9440 C   0  0  0  0  0  0  0  0  0  0  0  0
   -2.4360   -0.0420    1.9040 C   0  0  0  0  0  0  0  0  0  0  0  0
   -3.9350   -0.7960   -0.0060 C   0  0  0  0  0  0  0  0  0  0  0  0
   -4.4330    0.4340   -0.5270 N   0  0  0  0  0  0  0  0  0  0  0  0
   -5.6480    0.0950   -1.2730 C   0  0  0  0  0  0  0  0  0  0  0  0
   -6.6500    1.1730   -1.0140 C   0  0  0  0  0  0  0  0  0  0  0  0
   -6.3400    1.5070    0.4400 C   0  0  0  0  0  0  0  0  0  0  0  0
   -4.8240    1.4160    0.4410 C   0  0  0  0  0  0  0  0  0  0  0  0
    6.3590   -0.0660    0.5220 N   0  0  0  0  0  0  0  0  0  0  0  0
  1  2  1  0
  2  3  2  0
  2 26  1  0
  3  4  1  0
  4  5  1  0
  5  6  1  0
  5 26  2  0
  6  7  2  0
  6 11  1  0
  7  8  1  0
  8  9  2  0
  9 10  1  0
 10 11  2  0
 11 12  1  0
 12 13  1  0
 13 14  2  0
 13 15  1  0
 15 16  1  0
 16 17  1  0
 17 18  1  1
 17 19  1  0
 17 20  1  0
 20 21  1  0
 21 22  1  0
 21 25  1  0
 22 23  1  0
 23 24  1  0
 24 25  1  0
M  END
