
     RDKit          3D

 27 29  0  0  0  0  0  0  0  0999 V2000
   -5.2240   -1.8520    0.7170 C   0  0  0  0  0  0  0  0  0  0  0  0
   -3.9700   -1.0940    0.4100 C   0  0  0  0  0  0  0  0  0  0  0  0
   -3.9290    0.2840    0.4530 C   0  0  0  0  0  0  0  0  0  0  0  0
   -2.7620    0.9850    0.1660 C   0  0  0  0  0  0  0  0  0  0  0  0
   -2.7880    2.3430    0.2280 N   0  0  0  0  0  0  0  0  0  0  0  0
   -1.6540    2.9780   -0.0510 C   0  0  0  0  0  0  0  0  0  0  0  0
   -1.5820    4.3660   -0.0150 C   0  0  0  0  0  0  0  0  0  0  0  0
   -2.6300    4.9810    0.2910 O   0  0  0  0  0  0  0  0  0  0  0  0
   -0.4220    4.9760   -0.3030 N   0  0  0  0  0  0  0  0  0  0  0  0
    0.6730    4.2760   -0.6250 C   0  0  0  0  0  0  0  0  0  0  0  0
    1.7470    4.9020   -0.8880 O   0  0  0  0  0  0  0  0  0  0  0  0
    0.6970    2.9320   -0.6850 N   0  0  0  0  0  0  0  0  0  0  0  0
   -0.4520    2.2560   -0.4040 C   0  0  0  0  0  0  0  0  0  0  0  0
   -0.4460    0.9050   -0.4590 N   0  0  0  0  0  0  0  0  0  0  0  0
    0.7510    0.1990   -0.8090 C   0  0  0  0  0  0  0  0  0  0  0  0
    1.6100   -0.1580    0.3800 C   0  0  2  0  0  0  0  0  0  0  0  0
    2.0190    0.9740    1.0780 O   0  0  0  0  0  0  0  0  0  0  0  0
    2.8630   -0.8230   -0.1680 C   0  0  2  0  0  0  0  0  0  0  0  0
    2.5130   -1.9740   -0.8840 O   0  0  0  0  0  0  0  0  0  0  0  0
    3.7280   -1.2540    1.0030 C   0  0  2  0  0  0  0  0  0  0  0  0
    4.1030   -0.1350    1.7480 O   0  0  0  0  0  0  0  0  0  0  0  0
    4.9890   -1.9150    0.5140 C   0  0  0  0  0  0  0  0  0  0  0  0
    5.6970   -1.0000   -0.2810 O   0  0  0  0  0  0  0  0  0  0  0  0
   -1.6210    0.2860   -0.1680 C   0  0  0  0  0  0  0  0  0  0  0  0
   -1.6850   -1.0830   -0.2050 C   0  0  0  0  0  0  0  0  0  0  0  0
   -2.8390   -1.8090    0.0770 C   0  0  0  0  0  0  0  0  0  0  0  0
   -2.8300   -3.2940    0.0160 C   0  0  0  0  0  0  0  0  0  0  0  0
  1  2  1  0
  2  3  2  0
  2 26  1  0
  3  4  1  0
  4  5  1  0
  4 24  2  0
  5  6  2  0
  6  7  1  0
  6 13  1  0
  7  8  2  0
  7  9  1  0
  9 10  1  0
 10 11  2  0
 10 12  1  0
 12 13  2  0
 13 14  1  0
 14 15  1  0
 14 24  1  0
 15 16  1  0
 16 17  1  6
 16 18  1  0
 18 19  1  1
 18 20  1  0
 20 21  1  6
 20 22  1  0
 22 23  1  0
 24 25  1  0
 25 26  2  0
 26 27  1  0
M  END
