
     RDKit          3D

 37 41  0  0  0  0  0  0  0  0999 V2000
   -0.6600    2.5750   -3.1510 C   0  0  0  0  0  0  0  0  0  0  0  0
   -0.5990    2.4310   -1.6130 C   0  0  0  0  0  0  0  0  0  0  0  0
   -1.5850    1.7540   -1.0270 C   0  0  0  0  0  0  0  0  0  0  0  0
   -2.0470    1.3010    0.2620 C   0  0  0  0  0  0  0  0  0  0  0  0
   -2.6970    2.3000    1.0660 C   0  0  0  0  0  0  0  0  0  0  0  0
   -3.1760    2.1310    2.3040 C   0  0  0  0  0  0  0  0  0  0  0  0
   -3.7850    3.1720    2.9790 F   0  0  0  0  0  0  0  0  0  0  0  0
   -3.0470    0.9010    2.8820 C   0  0  0  0  0  0  0  0  0  0  0  0
   -3.5290    0.7110    4.1500 F   0  0  0  0  0  0  0  0  0  0  0  0
   -2.4450   -0.1190    2.1860 C   0  0  0  0  0  0  0  0  0  0  0  0
   -1.9460    0.0540    0.8850 C   0  0  0  0  0  0  0  0  0  0  0  0
   -1.5460   -1.2220    0.3100 N   0  0  0  0  0  0  0  0  0  0  0  0
   -2.3470   -2.3570    0.2040 C   0  0  0  0  0  0  0  0  0  0  0  0
   -3.7510   -2.5410    0.6250 C   0  0  0  0  0  0  0  0  0  0  0  0
   -4.2810   -3.9420    0.5180 C   0  0  0  0  0  0  0  0  0  0  0  0
   -3.6190   -4.9610    1.3800 C   0  0  0  0  0  0  0  0  0  0  0  0
   -2.2880   -5.1480    1.1590 F   0  0  0  0  0  0  0  0  0  0  0  0
   -1.6450   -3.3050   -0.4060 N   0  0  0  0  0  0  0  0  0  0  0  0
   -0.4570   -2.8200   -0.6810 N   0  0  0  0  0  0  0  0  0  0  0  0
   -0.3860   -1.5450   -0.2460 C   0  0  0  0  0  0  0  0  0  0  0  0
    0.8270   -0.6770   -0.3430 C   0  0  0  0  0  0  0  0  0  0  0  0
    1.4620   -0.9240   -1.6580 C   0  0  0  0  0  0  0  0  0  0  0  0
    2.3380    0.2820   -1.9670 C   0  0  0  0  0  0  0  0  0  0  0  0
    2.9500    0.7940   -0.7330 N   0  0  0  0  0  0  0  0  0  0  0  0
    4.2640    0.2290   -0.4250 C   0  0  0  0  0  0  0  0  0  0  0  0
    4.3370   -1.0110    0.2890 C   0  0  0  0  0  0  0  0  0  0  0  0
    4.6580   -2.2510   -0.2840 C   0  0  0  0  0  0  0  0  0  0  0  0
    4.6320   -3.1340    0.7160 N   0  0  0  0  0  0  0  0  0  0  0  0
    4.3270   -2.5780    1.8540 N   0  0  0  0  0  0  0  0  0  0  0  0
    4.1380   -1.2580    1.6210 C   0  0  0  0  0  0  0  0  0  0  0  0
    2.3100    1.7840    0.0870 C   0  0  0  0  0  0  0  0  0  0  0  0
    2.3990    1.5130    1.3530 O   0  0  0  0  0  0  0  0  0  0  0  0
    1.6110    3.0070   -0.3300 C   0  0  0  0  0  0  0  0  0  0  0  0
    2.1790    4.2850    0.0080 C   0  0  0  0  0  0  0  0  0  0  0  0
    1.4300    5.2490   -0.4980 N   0  0  0  0  0  0  0  0  0  0  0  0
    0.4060    4.7250   -1.1450 C   0  0  0  0  0  0  0  0  0  0  0  0
    0.4970    3.2780   -1.0460 C   0  0  0  0  0  0  0  0  0  0  0  0
  1  2  1  0
  2  3  2  0
  2 37  1  0
  3  4  1  0
  4  5  2  0
  4 11  1  0
  5  6  1  0
  6  7  1  0
  6  8  2  0
  8  9  1  0
  8 10  1  0
 10 11  2  0
 11 12  1  0
 12 13  1  0
 12 20  1  0
 13 14  1  0
 13 18  2  0
 14 15  1  0
 15 16  1  0
 16 17  1  0
 18 19  1  0
 19 20  2  0
 20 21  1  0
 21 22  1  0
 22 23  1  0
 23 24  1  0
 24 25  1  0
 24 31  1  0
 25 26  1  0
 26 27  1  0
 26 30  2  0
 27 28  2  0
 28 29  1  0
 29 30  1  0
 31 32  2  0
 31 33  1  0
 33 34  2  0
 33 37  1  0
 34 35  1  0
 35 36  1  0
 36 37  2  0
M  END
