
     RDKit          3D

 37 41  0  0  0  0  0  0  0  0999 V2000
    8.5340    2.4190   -0.4980 C   0  0  0  0  0  0  0  0  0  0  0  0
    8.9580    1.0150   -0.3050 C   0  0  0  0  0  0  0  0  0  0  0  0
   10.2210    0.5150   -0.1490 C   0  0  0  0  0  0  0  0  0  0  0  0
   10.1500   -0.8200   -0.0020 N   0  0  0  0  0  0  0  0  0  0  0  0
    8.8370   -1.1700   -0.0650 C   0  0  0  0  0  0  0  0  0  0  0  0
    8.2070   -2.3720    0.0230 N   0  0  0  0  0  0  0  0  0  0  0  0
    6.8690   -2.4870   -0.0690 C   0  0  0  0  0  0  0  0  0  0  0  0
    6.2880   -3.6040    0.0130 O   0  0  0  0  0  0  0  0  0  0  0  0
    6.1050   -1.3510   -0.2580 C   0  0  0  0  0  0  0  0  0  0  0  0
    4.6170   -1.4550   -0.3610 C   0  0  0  0  0  0  0  0  0  0  0  0
    4.0770   -0.0800   -0.5870 C   0  0  0  0  0  0  0  0  0  0  0  0
    2.6620    0.0220   -0.7040 N   0  0  0  0  0  0  0  0  0  0  0  0
    1.7080   -0.1810    0.3190 C   0  0  0  0  0  0  0  0  0  0  0  0
    2.0250   -0.4690    1.6280 C   0  0  0  0  0  0  0  0  0  0  0  0
    1.0510   -0.6680    2.5730 C   0  0  0  0  0  0  0  0  0  0  0  0
   -0.2400   -0.5740    2.1860 N   0  0  0  0  0  0  0  0  0  0  0  0
   -0.5920   -0.2960    0.9250 C   0  0  0  0  0  0  0  0  0  0  0  0
   -2.0080   -0.2040    0.5580 C   0  0  0  0  0  0  0  0  0  0  0  0
   -2.4000    0.0770   -0.7290 C   0  0  0  0  0  0  0  0  0  0  0  0
   -3.7580    0.1600   -1.0540 C   0  0  0  0  0  0  0  0  0  0  0  0
   -4.7620   -0.0300   -0.1320 C   0  0  0  0  0  0  0  0  0  0  0  0
   -6.1450    0.0480   -0.4300 N   0  0  0  0  0  0  0  0  0  0  0  0
   -6.7000    0.3540   -1.7190 C   0  0  0  0  0  0  0  0  0  0  0  0
   -7.6250    1.5730   -1.6350 C   0  0  0  0  0  0  0  0  0  0  0  0
   -8.6910    1.2450   -0.6420 C   0  0  0  0  0  0  0  0  0  0  0  0
   -9.7810    1.9600   -0.5250 C   0  0  0  0  0  0  0  0  0  0  0  0
   -9.9490    3.0330   -1.3330 F   0  0  0  0  0  0  0  0  0  0  0  0
   -8.4910    0.0760    0.2200 C   0  0  0  0  0  0  0  0  0  0  0  0
   -9.5100   -0.6960    0.5840 C   0  0  0  0  0  0  0  0  0  0  0  0
  -10.7760   -0.5000    0.2190 F   0  0  0  0  0  0  0  0  0  0  0  0
   -9.1990   -1.7600    1.3950 F   0  0  0  0  0  0  0  0  0  0  0  0
   -7.0920   -0.2030    0.6570 C   0  0  0  0  0  0  0  0  0  0  0  0
   -4.3430   -0.3160    1.1780 C   0  0  0  0  0  0  0  0  0  0  0  0
   -3.0100   -0.3940    1.4830 C   0  0  0  0  0  0  0  0  0  0  0  0
    0.3770   -0.1080    0.0330 N   0  0  0  0  0  0  0  0  0  0  0  0
    6.7810   -0.1530   -0.3420 C   0  0  0  0  0  0  0  0  0  0  0  0
    8.1300   -0.0610   -0.2470 N   0  0  0  0  0  0  0  0  0  0  0  0
  1  2  1  0
  2  3  2  0
  2 37  1  0
  3  4  1  0
  4  5  2  0
  5  6  1  0
  5 37  1  0
  6  7  1  0
  7  8  2  0
  7  9  1  0
  9 10  1  0
  9 36  2  0
 10 11  1  0
 11 12  1  0
 12 13  1  0
 13 14  2  0
 13 35  1  0
 14 15  1  0
 15 16  2  0
 16 17  1  0
 17 18  1  0
 17 35  2  0
 18 19  2  0
 18 34  1  0
 19 20  1  0
 20 21  2  0
 21 22  1  0
 21 33  1  0
 22 23  1  0
 22 32  1  0
 23 24  1  0
 24 25  1  0
 25 26  2  3
 25 28  1  0
 26 27  1  0
 28 29  2  3
 28 32  1  0
 29 30  1  0
 29 31  1  0
 33 34  2  0
 36 37  1  0
M  END
