
     RDKit          3D

 36 40  0  0  0  0  0  0  0  0999 V2000
    2.4280   -4.3610   -0.6000 C   0  0  0  0  0  0  0  0  0  0  0  0
    2.4150   -2.9290   -0.1680 C   0  0  0  0  0  0  0  0  0  0  0  0
    3.5970   -2.3200    0.1310 N   0  0  0  0  0  0  0  0  0  0  0  0
    3.6690   -1.0340    0.5110 C   0  0  0  0  0  0  0  0  0  0  0  0
    2.5500   -0.2410    0.6250 C   0  0  0  0  0  0  0  0  0  0  0  0
    2.6270    1.1680    1.0600 C   0  0  0  0  0  0  0  0  0  0  0  0
    3.9680    1.5990    1.2870 N   0  0  0  0  0  0  0  0  0  0  0  0
    4.9430    1.7550    0.2770 C   0  0  0  0  0  0  0  0  0  0  0  0
    4.6460    1.5450   -1.0490 C   0  0  0  0  0  0  0  0  0  0  0  0
    5.6200    1.7180   -2.0360 C   0  0  0  0  0  0  0  0  0  0  0  0
    5.3420    1.5160   -3.3380 F   0  0  0  0  0  0  0  0  0  0  0  0
    6.9050    2.1050   -1.6960 C   0  0  0  0  0  0  0  0  0  0  0  0
    7.1960    2.3120   -0.3780 C   0  0  0  0  0  0  0  0  0  0  0  0
    6.2260    2.1370    0.5810 C   0  0  0  0  0  0  0  0  0  0  0  0
    6.5350    2.3500    1.9030 F   0  0  0  0  0  0  0  0  0  0  0  0
    1.3470   -0.8440    0.3260 C   0  0  0  0  0  0  0  0  0  0  0  0
    0.0680   -0.3980    0.3170 N   0  0  0  0  0  0  0  0  0  0  0  0
   -0.7740   -1.3720   -0.0550 C   0  0  0  0  0  0  0  0  0  0  0  0
   -2.2380   -1.2460   -0.1870 C   0  0  0  0  0  0  0  0  0  0  0  0
   -2.8310   -2.2640   -0.5590 O   0  0  0  0  0  0  0  0  0  0  0  0
   -2.9500   -0.0600    0.0830 N   0  0  0  0  0  0  0  0  0  0  0  0
   -2.2520    1.0990    0.5170 N   0  0  0  0  0  0  0  0  0  0  0  0
   -2.8240    2.2080    0.7880 C   0  0  0  0  0  0  0  0  0  0  0  0
   -2.0970    3.3890    1.2320 C   0  0  0  0  0  0  0  0  0  0  0  0
   -2.7640    4.4980    1.4930 C   0  0  0  0  0  0  0  0  0  0  0  0
   -4.2080    4.5700    1.3480 C   0  0  0  0  0  0  0  0  0  0  0  0
   -4.9240    3.5360    0.9500 C   0  0  0  0  0  0  0  0  0  0  0  0
   -4.2470    2.3210    0.6580 N   0  0  0  0  0  0  0  0  0  0  0  0
   -4.9450    1.2150    0.2410 N   0  0  0  0  0  0  0  0  0  0  0  0
   -4.3330    0.0660   -0.0390 C   0  0  0  0  0  0  0  0  0  0  0  0
   -5.2160   -1.0250   -0.4920 C   0  0  1  0  0  0  0  0  0  0  0  0
   -5.0310   -1.4510   -1.9100 C   0  0  0  0  0  0  0  0  0  0  0  0
   -5.3610   -2.1370    0.5120 C   0  0  0  0  0  0  0  0  0  0  0  0
   -0.0550   -2.5200   -0.3080 C   0  0  0  0  0  0  0  0  0  0  0  0
   -0.5540   -3.8730   -0.7330 C   0  0  0  0  0  0  0  0  0  0  0  0
    1.2760   -2.1870   -0.0700 C   0  0  0  0  0  0  0  0  0  0  0  0
  1  2  1  0
  2  3  2  0
  2 36  1  0
  3  4  1  0
  4  5  2  0
  5  6  1  0
  5 16  1  0
  6  7  1  0
  7  8  1  0
  8  9  2  0
  8 14  1  0
  9 10  1  0
 10 11  1  0
 10 12  2  0
 12 13  1  0
 13 14  2  0
 14 15  1  0
 16 17  1  0
 16 36  2  0
 17 18  1  0
 18 19  1  0
 18 34  2  0
 19 20  2  0
 19 21  1  0
 21 22  1  0
 21 30  1  0
 22 23  2  0
 23 24  1  0
 23 28  1  0
 24 25  2  0
 25 26  1  0
 26 27  2  0
 27 28  1  0
 28 29  1  0
 29 30  2  0
 30 31  1  0
 31 32  1  6
 31 33  1  0
 34 35  1  0
 34 36  1  0
M  END
