
     RDKit          3D

 37 41  0  0  0  0  0  0  0  0999 V2000
    7.5000    2.4550   -0.9200 C   0  0  0  0  0  0  0  0  0  0  0  0
    6.6300    1.4230   -0.3370 C   0  0  0  0  0  0  0  0  0  0  0  0
    5.2870    1.5730   -0.0530 C   0  0  0  0  0  0  0  0  0  0  0  0
    4.5220    0.5740    0.5190 C   0  0  0  0  0  0  0  0  0  0  0  0
    5.0980   -0.6580    0.8440 C   0  0  0  0  0  0  0  0  0  0  0  0
    4.3580   -1.7180    1.3990 N   0  0  0  0  0  0  0  0  0  0  0  0
    3.0990   -2.2360    1.1620 C   0  0  0  0  0  0  0  0  0  0  0  0
    2.2470   -1.3420    0.3550 C   0  0  0  0  0  0  0  0  0  0  0  0
    2.4090   -1.1610   -0.9880 C   0  0  0  0  0  0  0  0  0  0  0  0
    1.3240   -0.5650   -1.6270 N   0  0  0  0  0  0  0  0  0  0  0  0
    0.2510   -0.1860   -1.0350 C   0  0  0  0  0  0  0  0  0  0  0  0
   -0.9550    0.3860   -1.7290 C   0  0  0  0  0  0  0  0  0  0  0  0
   -1.9970    0.0450   -1.2100 N   0  0  0  0  0  0  0  0  0  0  0  0
   -3.2880   -0.0690   -0.9930 C   0  0  0  0  0  0  0  0  0  0  0  0
   -3.8630   -1.2610   -0.4330 C   0  0  0  0  0  0  0  0  0  0  0  0
   -5.1490   -1.3030   -0.1260 N   0  0  0  0  0  0  0  0  0  0  0  0
   -5.9470   -0.3060   -0.2970 C   0  0  0  0  0  0  0  0  0  0  0  0
   -7.3830   -0.1430    0.0240 C   0  0  0  0  0  0  0  0  0  0  0  0
   -7.7260    0.1330    1.3210 C   0  0  0  0  0  0  0  0  0  0  0  0
   -9.0710    0.4190    1.6270 C   0  0  0  0  0  0  0  0  0  0  0  0
   -9.3850    0.7270    2.9280 F   0  0  0  0  0  0  0  0  0  0  0  0
  -10.0430    0.4300    0.6560 C   0  0  0  0  0  0  0  0  0  0  0  0
  -11.3310    0.7600    0.9900 F   0  0  0  0  0  0  0  0  0  0  0  0
   -9.6620    0.1580   -0.6430 C   0  0  0  0  0  0  0  0  0  0  0  0
   -8.3210   -0.1310   -0.9500 C   0  0  0  0  0  0  0  0  0  0  0  0
   -7.9650   -0.4300   -2.2380 F   0  0  0  0  0  0  0  0  0  0  0  0
   -5.4210    0.8620   -0.8240 N   0  0  0  0  0  0  0  0  0  0  0  0
   -4.1550    0.9890   -1.1650 C   0  0  0  0  0  0  0  0  0  0  0  0
   -3.6890    2.0760   -1.6520 O   0  0  0  0  0  0  0  0  0  0  0  0
    0.1100   -0.3410    0.3500 N   0  0  0  0  0  0  0  0  0  0  0  0
   -0.8130    0.0950    1.2060 C   0  0  0  0  0  0  0  0  0  0  0  0
   -0.3590   -0.2320    2.4860 C   0  0  0  0  0  0  0  0  0  0  0  0
    0.8380   -0.8520    2.3070 N   0  0  0  0  0  0  0  0  0  0  0  0
    1.1070   -0.9130    0.9730 C   0  0  0  0  0  0  0  0  0  0  0  0
    6.4360   -0.7750    0.5580 C   0  0  0  0  0  0  0  0  0  0  0  0
    7.1870    0.2070   -0.0080 C   0  0  0  0  0  0  0  0  0  0  0  0
    8.6320   -0.0650   -0.3610 C   0  0  0  0  0  0  0  0  0  0  0  0
  1  2  1  0
  2  3  2  0
  2 36  1  0
  3  4  1  0
  4  5  2  0
  5  6  1  0
  5 35  1  0
  6  7  1  0
  7  8  1  0
  8  9  2  0
  8 34  1  0
  9 10  1  0
 10 11  2  0
 11 12  1  0
 11 30  1  0
 12 13  2  3
 13 14  1  0
 14 15  2  0
 14 28  1  0
 15 16  1  0
 16 17  2  0
 17 18  1  0
 17 27  1  0
 18 19  2  0
 18 25  1  0
 19 20  1  0
 20 21  1  0
 20 22  2  0
 22 23  1  0
 22 24  1  0
 24 25  2  0
 25 26  1  0
 27 28  1  0
 28 29  2  0
 30 31  1  0
 30 34  1  0
 31 32  2  0
 32 33  1  0
 33 34  2  0
 35 36  2  0
 36 37  1  0
M  END
