
     RDKit          3D

 37 41  0  0  0  0  0  0  0  0999 V2000
   -8.6420    1.6850    1.6610 C   0  0  0  0  0  0  0  0  0  0  0  0
   -8.3310    0.5210    1.1220 C   0  0  0  0  0  0  0  0  0  0  0  0
   -7.7330    0.3610   -0.2230 C   0  0  0  0  0  0  0  0  0  0  0  0
   -6.4470   -0.2990   -0.0550 N   0  0  0  0  0  0  0  0  0  0  0  0
   -5.6920   -0.5720   -1.2010 C   0  0  0  0  0  0  0  0  0  0  0  0
   -6.2040   -0.8530   -2.3470 N   0  0  0  0  0  0  0  0  0  0  0  0
   -5.4900   -1.1260   -3.5000 N   0  0  0  0  0  0  0  0  0  0  0  0
   -6.1490   -1.3180   -4.8010 C   0  0  0  0  0  0  0  0  0  0  0  0
   -4.0680   -1.2310   -3.4800 C   0  0  0  0  0  0  0  0  0  0  0  0
   -3.4440   -0.8510   -2.1990 C   0  0  0  0  0  0  0  0  0  0  0  0
   -2.0920   -0.8000   -2.0740 N   0  0  0  0  0  0  0  0  0  0  0  0
   -1.4530   -0.4850   -0.9420 C   0  0  0  0  0  0  0  0  0  0  0  0
   -0.1680   -0.3620   -0.5610 N   0  0  0  0  0  0  0  0  0  0  0  0
   -0.0840   -0.0090    0.7300 C   0  0  0  0  0  0  0  0  0  0  0  0
    1.1310    0.2310    1.5230 C   0  0  0  0  0  0  0  0  0  0  0  0
    1.0760    0.5880    2.8490 C   0  0  0  0  0  0  0  0  0  0  0  0
    2.2080    0.8220    3.5940 C   0  0  0  0  0  0  0  0  0  0  0  0
    2.1650    1.1750    4.9000 F   0  0  0  0  0  0  0  0  0  0  0  0
    3.4560    0.6840    2.9480 C   0  0  0  0  0  0  0  0  0  0  0  0
    3.5810    0.3340    1.6360 C   0  0  0  0  0  0  0  0  0  0  0  0
    4.8020    0.2320    0.8910 C   0  0  0  0  0  0  0  0  0  0  0  0
    4.7480   -0.3470   -0.2850 O   0  0  0  0  0  0  0  0  0  0  0  0
    6.0670    0.6830    1.2680 N   0  0  0  0  0  0  0  0  0  0  0  0
    6.3050    1.5910    2.3630 C   0  0  0  0  0  0  0  0  0  0  0  0
    7.2350    0.3050    0.4980 C   0  0  0  0  0  0  0  0  0  0  0  0
    7.2340    0.5150   -0.8550 C   0  0  0  0  0  0  0  0  0  0  0  0
    8.3400    0.1620   -1.6200 C   0  0  0  0  0  0  0  0  0  0  0  0
    8.3600    0.3600   -2.9560 F   0  0  0  0  0  0  0  0  0  0  0  0
    9.4390   -0.4020   -1.0090 C   0  0  0  0  0  0  0  0  0  0  0  0
    9.4360   -0.6120    0.3500 C   0  0  0  0  0  0  0  0  0  0  0  0
    8.3140   -0.2520    1.1180 C   0  0  0  0  0  0  0  0  0  0  0  0
    8.3640   -0.4790    2.4410 F   0  0  0  0  0  0  0  0  0  0  0  0
    2.3690    0.1120    0.9480 C   0  0  0  0  0  0  0  0  0  0  0  0
   -1.3500    0.0900    1.1670 N   0  0  0  0  0  0  0  0  0  0  0  0
   -2.2220   -0.1980    0.1570 C   0  0  0  0  0  0  0  0  0  0  0  0
   -3.5980   -0.2340    0.0890 C   0  0  0  0  0  0  0  0  0  0  0  0
   -4.2280   -0.5650   -1.1090 C   0  0  0  0  0  0  0  0  0  0  0  0
  1  2  2  0
  2  3  1  0
  3  4  1  0
  4  5  1  0
  5  6  2  0
  5 37  1  0
  6  7  1  0
  7  8  1  0
  7  9  1  0
  9 10  1  0
 10 11  2  0
 10 37  1  0
 11 12  1  0
 12 13  1  0
 12 35  2  0
 13 14  2  0
 14 15  1  0
 14 34  1  0
 15 16  2  0
 15 33  1  0
 16 17  1  0
 17 18  1  0
 17 19  2  0
 19 20  1  0
 20 21  1  0
 20 33  2  0
 21 22  2  0
 21 23  1  0
 23 24  1  0
 23 25  1  0
 25 26  2  0
 25 31  1  0
 26 27  1  0
 27 28  1  0
 27 29  2  0
 29 30  1  0
 30 31  2  0
 31 32  1  0
 34 35  1  0
 35 36  1  0
 36 37  2  0
M  END
