
     RDKit          3D

 37 41  0  0  0  0  0  0  0  0999 V2000
   -1.7930    4.9700   -0.5150 C   0  0  0  0  0  0  0  0  0  0  0  0
   -2.1920    3.6280   -0.3160 O   0  0  0  0  0  0  0  0  0  0  0  0
   -3.4180    3.3930    0.2870 C   0  0  0  0  0  0  0  0  0  0  0  0
   -4.2460    4.4430    0.6880 C   0  0  0  0  0  0  0  0  0  0  0  0
   -5.4600    4.1680    1.2850 C   0  0  0  0  0  0  0  0  0  0  0  0
   -5.8280    2.8520    1.4710 C   0  0  0  0  0  0  0  0  0  0  0  0
   -5.0070    1.8070    1.0720 C   0  0  0  0  0  0  0  0  0  0  0  0
   -5.3530    0.5070    1.2470 F   0  0  0  0  0  0  0  0  0  0  0  0
   -3.7980    2.0810    0.4780 C   0  0  0  0  0  0  0  0  0  0  0  0
   -2.9600    1.0640    0.0710 O   0  0  0  0  0  0  0  0  0  0  0  0
   -1.9980    0.5940    1.0450 C   0  0  0  0  0  0  0  0  0  0  0  0
   -1.2040   -0.4860    0.4120 C   0  0  0  0  0  0  0  0  0  0  0  0
    0.0520   -0.4580    0.2520 C   0  0  0  0  0  0  0  0  0  0  0  0
    1.0070    0.6050    0.6360 C   0  0  0  0  0  0  0  0  0  0  0  0
    0.5380    1.6700    1.2450 F   0  0  0  0  0  0  0  0  0  0  0  0
    2.2860    0.4120    0.3580 C   0  0  0  0  0  0  0  0  0  0  0  0
    2.5000   -0.8070   -0.2680 N   0  0  0  0  0  0  0  0  0  0  0  0
    3.7280   -1.1920   -0.6280 C   0  0  0  0  0  0  0  0  0  0  0  0
    4.7790   -0.3390   -0.3570 C   0  0  0  0  0  0  0  0  0  0  0  0
    4.5800    0.8650    0.2590 C   0  0  0  0  0  0  0  0  0  0  0  0
    5.4670    1.8420    0.6100 C   0  0  0  0  0  0  0  0  0  0  0  0
    4.7180    2.8200    1.1900 C   0  0  0  0  0  0  0  0  0  0  0  0
    3.3540    2.4400    1.1950 C   0  0  0  0  0  0  0  0  0  0  0  0
    2.2770    3.2720    1.7390 C   0  0  0  0  0  0  0  0  0  0  0  0
    3.2950    1.2270    0.6150 N   0  0  0  0  0  0  0  0  0  0  0  0
    5.9140   -0.9100   -0.7950 C   0  0  0  0  0  0  0  0  0  0  0  0
    7.2870   -0.3520   -0.7140 C   0  0  0  0  0  0  0  0  0  0  0  0
    5.5980   -2.2350   -1.3980 C   0  0  0  0  0  0  0  0  0  0  0  0
    4.1840   -2.3790   -1.2730 N   0  0  0  0  0  0  0  0  0  0  0  0
   -1.8860   -1.5910   -0.0230 N   0  0  0  0  0  0  0  0  0  0  0  0
   -2.5150   -2.4700   -0.4280 C   0  0  0  0  0  0  0  0  0  0  0  0
   -3.7190   -2.4280   -1.2470 N   0  0  0  0  0  0  0  0  0  0  0  0
   -4.3660   -3.7070   -1.4500 C   0  0  0  0  0  0  0  0  0  0  0  0
   -3.4150   -4.7230   -2.0620 C   0  0  0  0  0  0  0  0  0  0  0  0
   -2.0250   -4.5890   -1.4810 C   0  0  0  0  0  0  0  0  0  0  0  0
   -2.1240   -3.9130   -0.1310 C   0  0  1  0  0  0  0  0  0  0  0  0
   -0.8200   -3.9320    0.6180 C   0  0  0  0  0  0  0  0  0  0  0  0
  1  2  1  0
  2  3  1  0
  3  4  2  0
  3  9  1  0
  4  5  1  0
  5  6  2  0
  6  7  1  0
  7  8  1  0
  7  9  2  0
  9 10  1  0
 10 11  1  0
 11 12  1  0
 12 13  2  3
 12 30  1  0
 13 14  1  0
 14 15  1  0
 14 16  2  3
 16 17  1  0
 16 25  1  0
 17 18  2  0
 18 19  1  0
 18 29  1  0
 19 20  1  0
 19 26  2  0
 20 21  2  0
 20 25  1  0
 21 22  1  0
 22 23  2  0
 23 24  1  0
 23 25  1  0
 26 27  1  0
 26 28  1  0
 28 29  1  0
 30 31  2  3
 31 32  1  0
 31 36  1  0
 32 33  1  0
 33 34  1  0
 34 35  1  0
 35 36  1  0
 36 37  1  6
M  END
