
     RDKit          3D

 37 41  0  0  0  0  0  0  0  0999 V2000
   -4.5940    3.1780    1.8820 C   0  0  0  0  0  0  0  0  0  0  0  0
   -4.7350    1.6710    1.7890 C   0  0  0  0  0  0  0  0  0  0  0  0
   -3.8860    1.1890    0.6940 N   0  0  0  0  0  0  0  0  0  0  0  0
   -4.2300    1.5260   -0.6680 C   0  0  0  0  0  0  0  0  0  0  0  0
   -5.5740    0.9510   -0.9490 C   0  0  0  0  0  0  0  0  0  0  0  0
   -5.6780   -0.3750   -1.2980 C   0  0  0  0  0  0  0  0  0  0  0  0
   -6.9320   -0.9180   -1.5630 C   0  0  0  0  0  0  0  0  0  0  0  0
   -7.0610   -2.2300   -1.9100 F   0  0  0  0  0  0  0  0  0  0  0  0
   -8.0650   -0.1180   -1.4750 C   0  0  0  0  0  0  0  0  0  0  0  0
   -7.9820    1.2200   -1.1260 C   0  0  0  0  0  0  0  0  0  0  0  0
   -9.0970    1.9810   -1.0460 F   0  0  0  0  0  0  0  0  0  0  0  0
   -6.7180    1.7300   -0.8670 C   0  0  0  0  0  0  0  0  0  0  0  0
   -2.7490    0.4000    0.9850 C   0  0  0  0  0  0  0  0  0  0  0  0
   -1.8840   -0.0980    0.0370 C   0  0  0  0  0  0  0  0  0  0  0  0
   -0.7810   -0.8750    0.4260 C   0  0  0  0  0  0  0  0  0  0  0  0
    0.0910   -1.3680   -0.5790 N   0  0  0  0  0  0  0  0  0  0  0  0
   -0.2070   -2.0230   -1.6910 N   0  0  0  0  0  0  0  0  0  0  0  0
    0.9230   -2.3140   -2.3880 C   0  0  0  0  0  0  0  0  0  0  0  0
    1.9950   -1.8150   -1.6750 C   0  0  0  0  0  0  0  0  0  0  0  0
    3.3560   -1.8200   -1.9030 C   0  0  0  0  0  0  0  0  0  0  0  0
    3.8570   -2.3530   -2.9280 O   0  0  0  0  0  0  0  0  0  0  0  0
    4.1470   -1.2320   -0.9900 N   0  0  0  0  0  0  0  0  0  0  0  0
    3.6210   -0.6620    0.1070 C   0  0  0  0  0  0  0  0  0  0  0  0
    4.3650   -0.0920    0.9960 N   0  0  0  0  0  0  0  0  0  0  0  0
    5.7670   -0.0870    0.7760 C   0  0  0  0  0  0  0  0  0  0  0  0
    6.2720    1.0530    0.3370 C   0  0  0  0  0  0  0  0  0  0  0  0
    7.6910    1.3200    0.0310 C   0  0  0  0  0  0  0  0  0  0  0  0
    8.6110    0.4350   -0.3020 C   0  0  0  0  0  0  0  0  0  0  0  0
    8.5030   -1.0240   -0.4630 C   0  0  0  0  0  0  0  0  0  0  0  0
    7.6510   -1.7040    0.5330 C   0  0  0  0  0  0  0  0  0  0  0  0
    6.5130   -1.3240    1.0530 C   0  0  0  0  0  0  0  0  0  0  0  0
    5.8990   -2.1350    1.9650 F   0  0  0  0  0  0  0  0  0  0  0  0
    2.2780   -0.6540    0.3370 N   0  0  0  0  0  0  0  0  0  0  0  0
    1.4490   -1.2300   -0.5510 C   0  0  0  0  0  0  0  0  0  0  0  0
   -0.6000   -1.1160    1.7660 C   0  0  0  0  0  0  0  0  0  0  0  0
   -1.4770   -0.6100    2.7210 C   0  0  0  0  0  0  0  0  0  0  0  0
   -2.5110    0.1240    2.2900 N   0  0  0  0  0  0  0  0  0  0  0  0
  1  2  1  0
  2  3  1  0
  3  4  1  0
  3 13  1  0
  4  5  1  0
  5  6  2  0
  5 12  1  0
  6  7  1  0
  7  8  1  0
  7  9  2  0
  9 10  1  0
 10 11  1  0
 10 12  2  0
 13 14  2  0
 13 37  1  0
 14 15  1  0
 15 16  1  0
 15 35  2  0
 16 17  1  0
 16 34  1  0
 17 18  2  0
 18 19  1  0
 19 20  1  0
 19 34  2  0
 20 21  2  0
 20 22  1  0
 22 23  1  0
 23 24  2  3
 23 33  1  0
 24 25  1  0
 25 26  2  0
 25 31  1  0
 26 27  1  0
 27 28  2  0
 28 29  1  0
 29 30  1  0
 30 31  2  0
 31 32  1  0
 33 34  1  0
 35 36  1  0
 36 37  2  0
M  END
