
     RDKit          3D

 37 41  0  0  0  0  0  0  0  0999 V2000
   -9.8090    0.1800   -1.5050 C   0  0  0  0  0  0  0  0  0  0  0  0
   -8.3640    0.4730   -1.1730 C   0  0  0  0  0  0  0  0  0  0  0  0
   -7.8980    0.2770    0.0460 C   0  0  0  0  0  0  0  0  0  0  0  0
   -8.7170   -0.1970    1.0290 F   0  0  0  0  0  0  0  0  0  0  0  0
   -6.5000    0.5730    0.3180 C   0  0  0  0  0  0  0  0  0  0  0  0
   -5.6470    1.0340   -0.5800 C   0  0  0  0  0  0  0  0  0  0  0  0
   -4.2830    1.3070   -0.2530 N   0  0  0  0  0  0  0  0  0  0  0  0
   -3.3850    0.2760    0.1300 C   0  0  0  0  0  0  0  0  0  0  0  0
   -3.8170   -1.0290    0.1960 C   0  0  0  0  0  0  0  0  0  0  0  0
   -2.9710   -2.0670    0.5670 C   0  0  0  0  0  0  0  0  0  0  0  0
   -3.4760   -3.4630    0.6260 C   0  0  2  0  0  0  0  0  0  0  0  0
   -3.4110   -3.8400    1.9740 F   0  0  0  0  0  0  0  0  0  0  0  0
   -2.7380   -4.3250   -0.1490 F   0  0  0  0  0  0  0  0  0  0  0  0
   -1.7160   -1.7290    0.8560 N   0  0  0  0  0  0  0  0  0  0  0  0
   -1.2540   -0.4500    0.8020 C   0  0  0  0  0  0  0  0  0  0  0  0
    0.1340   -0.1970    1.1380 C   0  0  0  0  0  0  0  0  0  0  0  0
    0.5760    0.0900    2.4200 C   0  0  0  0  0  0  0  0  0  0  0  0
   -0.2420    0.1940    3.6560 C   0  0  0  0  0  0  0  0  0  0  0  0
    1.8880    0.2560    2.3230 N   0  0  0  0  0  0  0  0  0  0  0  0
    2.3140    0.0980    1.0860 N   0  0  0  0  0  0  0  0  0  0  0  0
    3.6710    0.2160    0.6840 C   0  0  0  0  0  0  0  0  0  0  0  0
    4.3060   -0.8670    0.1140 C   0  0  0  0  0  0  0  0  0  0  0  0
    5.6400   -0.6790   -0.2570 C   0  0  0  0  0  0  0  0  0  0  0  0
    6.2880    0.5180   -0.0670 C   0  0  0  0  0  0  0  0  0  0  0  0
    7.6930    0.7480   -0.4470 C   0  0  0  0  0  0  0  0  0  0  0  0
    8.4570   -0.2390   -1.0270 C   0  0  0  0  0  0  0  0  0  0  0  0
    9.7890    0.0060   -1.3790 C   0  0  0  0  0  0  0  0  0  0  0  0
   10.3380    1.2410   -1.1440 C   0  0  0  0  0  0  0  0  0  0  0  0
    9.5840    2.2360   -0.5640 C   0  0  0  0  0  0  0  0  0  0  0  0
    8.2830    1.9650   -0.2320 C   0  0  0  0  0  0  0  0  0  0  0  0
    5.6130    1.5370    0.4940 N   0  0  0  0  0  0  0  0  0  0  0  0
    4.3700    1.3630    0.8410 N   0  0  0  0  0  0  0  0  0  0  0  0
    1.2580   -0.1820    0.3380 C   0  0  0  0  0  0  0  0  0  0  0  0
    1.2160   -0.4490   -1.1440 C   0  0  0  0  0  0  0  0  0  0  0  0
   -2.1060    0.5460    0.4350 N   0  0  0  0  0  0  0  0  0  0  0  0
   -6.1470    1.2630   -1.9580 C   0  0  0  0  0  0  0  0  0  0  0  0
   -7.4980    0.9540   -2.1360 O   0  0  0  0  0  0  0  0  0  0  0  0
  1  2  1  0
  2  3  2  0
  2 37  1  0
  3  4  1  0
  3  5  1  0
  5  6  2  0
  6  7  1  0
  6 36  1  0
  7  8  1  0
  8  9  2  0
  8 35  1  0
  9 10  1  0
 10 11  1  0
 10 14  2  0
 11 12  1  1
 11 13  1  0
 14 15  1  0
 15 16  1  0
 15 35  2  0
 16 17  1  0
 16 33  2  0
 17 18  1  0
 17 19  2  0
 19 20  1  0
 20 21  1  0
 20 33  1  0
 21 22  2  0
 21 32  1  0
 22 23  1  0
 23 24  2  0
 24 25  1  0
 24 31  1  0
 25 26  2  0
 25 30  1  0
 26 27  1  0
 27 28  2  0
 28 29  1  0
 29 30  2  0
 31 32  2  0
 33 34  1  0
 36 37  1  0
M  END
