
     RDKit          3D

 36 41  0  0  0  0  0  0  0  0999 V2000
    5.1230    5.6040   -3.2850 C   0  0  0  0  0  0  0  0  0  0  0  0
    3.9090    5.0640   -2.8120 O   0  0  0  0  0  0  0  0  0  0  0  0
    3.8340    3.8650   -2.1350 C   0  0  0  0  0  0  0  0  0  0  0  0
    4.9900    3.1500   -1.9150 C   0  0  0  0  0  0  0  0  0  0  0  0
    4.9470    1.9340   -1.2340 C   0  0  0  0  0  0  0  0  0  0  0  0
    3.6950    1.4960   -0.7990 C   0  0  0  0  0  0  0  0  0  0  0  0
    2.5620    2.2190   -1.0260 C   0  0  0  0  0  0  0  0  0  0  0  0
    2.5920    3.4150   -1.6940 C   0  0  0  0  0  0  0  0  0  0  0  0
    1.4380    4.1150   -1.9060 O   0  0  0  0  0  0  0  0  0  0  0  0
    1.2510    1.7390   -0.5530 C   0  0  0  0  0  0  0  0  0  0  0  0
    0.2270    2.4110   -0.7720 O   0  0  0  0  0  0  0  0  0  0  0  0
    1.2130    0.4860    0.1540 C   0  0  0  0  0  0  0  0  0  0  0  0
   -0.0300    0.0340    0.6020 C   0  0  0  0  0  0  0  0  0  0  0  0
   -0.1650   -1.1610    1.2820 C   0  0  0  0  0  0  0  0  0  0  0  0
    0.9420   -1.8970    1.5180 C   0  0  0  0  0  0  0  0  0  0  0  0
    2.2220   -1.4800    1.0880 C   0  0  0  0  0  0  0  0  0  0  0  0
    3.2860   -2.2790    1.3650 O   0  0  0  0  0  0  0  0  0  0  0  0
    2.3570   -0.2930    0.4080 C   0  0  0  0  0  0  0  0  0  0  0  0
    3.6290    0.2090   -0.0710 C   0  0  0  0  0  0  0  0  0  0  0  0
    4.6710   -0.4450    0.1290 O   0  0  0  0  0  0  0  0  0  0  0  0
   -1.4950   -1.6180    1.7430 C   0  0  1  0  0  0  0  0  0  0  0  0
   -1.9260   -0.6910    2.6770 O   0  0  0  0  0  0  0  0  0  0  0  0
   -2.6340   -0.8750    1.4560 C   0  0  2  0  0  0  0  0  0  0  0  0
   -4.0670   -1.0250    1.9170 C   0  0  1  0  0  0  0  0  0  0  0  0
   -4.4820    0.1840    2.7730 C   0  0  0  0  0  0  0  0  0  0  0  0
   -5.0000   -1.1390    0.9310 O   0  0  0  0  0  0  0  0  0  0  0  0
   -2.4420    0.1000    0.3510 C   0  0  2  0  0  0  0  0  0  0  0  0
   -2.5010   -0.4150   -1.0310 C   0  0  0  0  0  0  0  0  0  0  0  0
   -2.9580   -1.4460   -1.6320 C   0  0  0  0  0  0  0  0  0  0  0  0
   -3.6500   -2.6470   -1.2840 C   0  0  0  0  0  0  0  0  0  0  0  0
   -3.2140   -3.7740   -0.7420 C   0  0  0  0  0  0  0  0  0  0  0  0
   -1.8720   -4.1140   -0.3380 C   0  0  0  0  0  0  0  0  0  0  0  0
   -1.2250   -3.8230    0.7720 C   0  0  0  0  0  0  0  0  0  0  0  0
   -1.6850   -3.0620    1.9380 C   0  0  1  0  0  0  0  0  0  0  0  0
   -1.0300   -3.5400    3.1070 O   0  0  0  0  0  0  0  0  0  0  0  0
   -1.1920    0.8320    0.4780 N   0  0  0  0  0  0  0  0  0  0  0  0
  1  2  1  0
  2  3  1  0
  3  4  2  0
  3  8  1  0
  4  5  1  0
  5  6  2  0
  6  7  1  0
  6 19  1  0
  7  8  2  0
  7 10  1  0
  8  9  1  0
 10 11  2  0
 10 12  1  0
 12 13  2  0
 12 18  1  0
 13 14  1  0
 13 36  1  0
 14 15  2  0
 14 21  1  0
 15 16  1  0
 16 17  1  0
 16 18  2  0
 18 19  1  0
 19 20  2  0
 21 22  1  1
 21 23  1  0
 21 34  1  0
 23 22  1  1
 23 24  1  0
 23 27  1  0
 24 25  1  6
 24 26  1  0
 27 28  1  0
 27 36  1  1
 28 29  2  0
 29 30  1  0
 30 31  2  0
 31 32  1  0
 32 33  2  0
 33 34  1  0
 34 35  1  1
M  END
