
     RDKit          3D

 37 41  0  0  0  0  0  0  0  0999 V2000
   -2.8350    6.9830    0.9620 C   0  0  0  0  0  0  0  0  0  0  0  0
   -1.9500    5.9430    0.5930 O   0  0  0  0  0  0  0  0  0  0  0  0
   -2.4750    4.7500    0.1150 C   0  0  0  0  0  0  0  0  0  0  0  0
   -3.8380    4.5710   -0.0020 C   0  0  0  0  0  0  0  0  0  0  0  0
   -4.3670    3.3940   -0.4730 C   0  0  0  0  0  0  0  0  0  0  0  0
   -3.5380    2.3720   -0.8370 C   0  0  0  0  0  0  0  0  0  0  0  0
   -2.1850    2.5070   -0.7380 C   0  0  0  0  0  0  0  0  0  0  0  0
   -1.3100    1.3970   -1.1340 C   0  0  0  0  0  0  0  0  0  0  0  0
   -0.9800    0.4830   -0.1050 N   0  0  0  0  0  0  0  0  0  0  0  0
   -2.0250   -0.2130    0.5290 C   0  0  0  0  0  0  0  0  0  0  0  0
   -2.7690   -1.1900   -0.3480 C   0  0  0  0  0  0  0  0  0  0  0  0
   -1.9330   -2.3340   -0.6480 N   0  0  0  0  0  0  0  0  0  0  0  0
   -2.6800   -3.5180   -0.8540 C   0  0  0  0  0  0  0  0  0  0  0  0
   -2.6420   -4.2030   -2.0420 C   0  0  0  0  0  0  0  0  0  0  0  0
   -3.3840   -5.3670   -2.2330 C   0  0  0  0  0  0  0  0  0  0  0  0
   -4.1760   -5.8530   -1.2160 C   0  0  0  0  0  0  0  0  0  0  0  0
   -4.2080   -5.1580   -0.0260 C   0  0  0  0  0  0  0  0  0  0  0  0
   -3.4650   -3.9890    0.1670 C   0  0  0  0  0  0  0  0  0  0  0  0
   -3.5830   -3.4040    1.3790 F   0  0  0  0  0  0  0  0  0  0  0  0
   -0.5320   -2.4960   -0.7730 C   0  0  0  0  0  0  0  0  0  0  0  0
    0.3120   -1.6020    0.0690 C   0  0  0  0  0  0  0  0  0  0  0  0
    0.2720   -0.1590   -0.2670 C   0  0  2  0  0  0  0  0  0  0  0  0
    1.2560    0.5450    0.6260 C   0  0  0  0  0  0  0  0  0  0  0  0
    0.8570    1.4670    1.3580 O   0  0  0  0  0  0  0  0  0  0  0  0
    2.6350    0.1830    0.6560 N   0  0  0  0  0  0  0  0  0  0  0  0
    3.6250    0.7470    1.4780 C   0  0  0  0  0  0  0  0  0  0  0  0
    3.3530    1.6600    2.4540 N   0  0  0  0  0  0  0  0  0  0  0  0
    4.4810    1.9630    3.1170 N   0  0  0  0  0  0  0  0  0  0  0  0
    5.4960    1.2680    2.5980 C   0  0  0  0  0  0  0  0  0  0  0  0
    4.9480    0.4950    1.5520 C   0  0  0  0  0  0  0  0  0  0  0  0
    5.7820   -0.3470    0.6940 C   0  0  0  0  0  0  0  0  0  0  0  0
    7.0540   -0.6550    0.9800 C   0  0  0  0  0  0  0  0  0  0  0  0
    7.6080   -1.5010   -0.0650 C   0  0  2  0  0  0  0  0  0  0  0  0
    8.7220   -0.8440   -0.5770 F   0  0  0  0  0  0  0  0  0  0  0  0
    6.5470   -1.6620   -1.0380 C   0  0  0  0  0  0  0  0  0  0  0  0
    5.5020   -0.9890   -0.5770 C   0  0  0  0  0  0  0  0  0  0  0  0
   -1.6690    3.6890   -0.2650 C   0  0  0  0  0  0  0  0  0  0  0  0
  1  2  1  0
  2  3  1  0
  3  4  2  0
  3 37  1  0
  4  5  1  0
  5  6  2  0
  6  7  1  0
  7  8  1  0
  7 37  2  0
  8  9  1  0
  9 10  1  0
  9 22  1  0
 10 11  1  0
 11 12  1  0
 12 13  1  0
 12 20  1  0
 13 14  2  0
 13 18  1  0
 14 15  1  0
 15 16  2  0
 16 17  1  0
 17 18  2  0
 18 19  1  0
 20 21  1  0
 21 22  1  0
 22 23  1  1
 23 24  2  0
 23 25  1  0
 25 26  1  0
 26 27  1  0
 26 30  2  0
 27 28  1  0
 28 29  2  0
 29 30  1  0
 30 31  1  0
 31 32  2  0
 31 36  1  0
 32 33  1  0
 33 34  1  6
 33 35  1  0
 35 36  2  0
M  END
