
     RDKit          3D

 16 17  0  0  0  0  0  0  0  0999 V2000
   -0.4470   -2.7770   -0.4070 O   0  0  0  0  0  0  0  0  0  0  0  0
   -0.9500   -1.8290   -1.3140 C   0  0  0  0  0  0  0  0  0  0  0  0
   -0.6590   -0.4650   -0.6690 C   0  0  2  0  0  0  0  0  0  0  0  0
    0.8520   -0.3790   -0.5830 C   0  0  2  0  0  0  0  0  0  0  0  0
    1.3270   -1.3730    0.2660 O   0  0  0  0  0  0  0  0  0  0  0  0
    1.3110    0.9860   -0.1260 C   0  0  0  0  0  0  0  0  0  0  0  0
    2.7840    1.0210   -0.0580 C   0  0  0  0  0  0  0  0  0  0  0  0
    3.6050    0.0770   -0.3190 N   0  0  0  0  0  0  0  0  0  0  0  0
    4.9300    0.3540   -0.1840 N   0  0  0  0  0  0  0  0  0  0  0  0
    5.2550    1.3320    0.6890 O   0  0  0  0  0  0  0  0  0  0  0  0
    3.8700    2.3680    0.4180 S   0  0  0  0  0  0  0  0  0  0  0  0
   -1.2030   -0.5100    0.7150 C   0  0  0  0  0  0  0  0  0  0  0  0
   -2.0880    0.6690    1.0480 C   0  0  0  0  0  0  0  0  0  0  0  0
   -3.0740    0.7830   -0.0910 C   0  0  0  0  0  0  0  0  0  0  0  0
   -2.3610    0.9770   -1.3650 C   0  0  0  0  0  0  0  0  0  0  0  0
   -1.1160    0.4940   -1.4900 O   0  0  0  0  0  0  0  0  0  0  0  0
  1  2  1  0
  3  2  1  6
  3  4  1  0
  3 12  1  0
  3 16  1  0
  4  5  1  1
  4  6  1  0
  6  7  1  0
  7  8  2  0
  7 11  1  0
  8  9  1  0
  9 10  1  0
 10 11  1  0
 12 13  1  0
 13 14  1  0
 14 15  1  0
 15 16  1  0
M  END
