
     RDKit          3D

 16 17  0  0  0  0  0  0  0  0999 V2000
   -2.9860   -1.9700   -1.0760 N   0  0  0  0  0  0  0  0  0  0  0  0
   -1.6510   -1.5870   -0.6660 C   0  0  2  0  0  0  0  0  0  0  0  0
   -1.4480   -2.1010    0.6060 O   0  0  0  0  0  0  0  0  0  0  0  0
   -2.1770   -1.3590    1.4940 C   0  0  0  0  0  0  0  0  0  0  0  0
   -2.6980   -0.1380    0.7660 C   0  0  1  0  0  0  0  0  0  0  0  0
   -2.6580    1.3360    1.7980 S   0  0  0  0  0  0  0  0  0  0  0  0
   -1.6830   -0.0800   -0.3600 C   0  0  1  0  0  0  0  0  0  0  0  0
   -0.4130    0.3860    0.1930 C   0  0  0  0  0  0  0  0  0  0  0  0
   -0.3720    0.9170    1.3320 O   0  0  0  0  0  0  0  0  0  0  0  0
    0.8400    0.2840   -0.4870 N   0  0  0  0  0  0  0  0  0  0  0  0
    2.0880    0.7380    0.0470 C   0  0  2  0  0  0  0  0  0  0  0  0
    2.7860    1.7270   -0.8800 C   0  0  0  0  0  0  0  0  0  0  0  0
    4.2250    1.5890   -0.3720 C   0  0  0  0  0  0  0  0  0  0  0  0
    4.3350    0.2040   -0.0950 O   0  0  0  0  0  0  0  0  0  0  0  0
    3.0780   -0.3570    0.0970 C   0  0  0  0  0  0  0  0  0  0  0  0
    2.7800   -1.5760    0.2840 O   0  0  0  0  0  0  0  0  0  0  0  0
  2  1  1  1
  2  3  1  0
  2  7  1  0
  3  4  1  0
  4  5  1  0
  5  6  1  1
  5  7  1  0
  7  8  1  1
  8  9  2  0
  8 10  1  0
 11 10  1  6
 11 12  1  0
 11 15  1  0
 12 13  1  0
 13 14  1  0
 14 15  1  0
 15 16  2  0
M  END
