
     RDKit          3D

 16 17  0  0  0  0  0  0  0  0999 V2000
   -1.7390    0.9980   -1.6550 C   0  0  0  0  0  0  0  0  0  0  0  0
   -1.3470    0.3500   -0.3460 C   0  0  2  0  0  0  0  0  0  0  0  0
    0.1900    0.9210    0.3200 S   0  0  0  0  0  0  0  0  0  0  0  0
    1.6660    0.5600   -0.5910 C   0  0  1  0  0  0  0  0  0  0  0  0
    2.8410    1.1420    0.1840 C   0  0  0  0  0  0  0  0  0  0  0  0
    3.5990    0.0820    0.9370 C   0  0  0  0  0  0  0  0  0  0  0  0
    4.0120   -0.9860    0.1940 O   0  0  0  0  0  0  0  0  0  0  0  0
    2.8890   -1.5830   -0.3220 N   0  0  0  0  0  0  0  0  0  0  0  0
    1.8870   -0.8290   -0.9740 C   0  0  0  0  0  0  0  0  0  0  0  0
    1.2040   -1.3610   -1.8690 O   0  0  0  0  0  0  0  0  0  0  0  0
   -1.4140   -1.1380   -0.3650 C   0  0  0  0  0  0  0  0  0  0  0  0
   -2.6040   -1.5430    0.3560 N   0  0  0  0  0  0  0  0  0  0  0  0
   -2.9090   -0.5070    1.2550 C   0  0  0  0  0  0  0  0  0  0  0  0
   -3.4660   -0.6230    2.3520 O   0  0  0  0  0  0  0  0  0  0  0  0
   -2.4430    0.7550    0.6550 C   0  0  2  0  0  0  0  0  0  0  0  0
   -3.5370    1.3310    0.0100 O   0  0  0  0  0  0  0  0  0  0  0  0
  2  1  1  6
  2  3  1  0
  2 11  1  0
  2 15  1  0
  4  3  1  1
  4  5  1  0
  4  9  1  0
  5  6  1  0
  6  7  1  0
  7  8  1  0
  8  9  1  0
  9 10  2  0
 11 12  1  0
 12 13  1  0
 13 14  2  0
 13 15  1  0
 15 16  1  6
M  END
