
     RDKit          3D

 16 17  0  0  0  0  0  0  0  0999 V2000
   -2.8690    1.7770    2.0890 O   0  0  0  0  0  0  0  0  0  0  0  0
   -2.6660    0.3030    1.7660 S   0  0  0  0  0  0  0  0  0  0  0  0
   -3.4340   -0.0050    0.1440 C   0  0  0  0  0  0  0  0  0  0  0  0
   -2.3080   -0.7720   -0.5230 C   0  0  0  0  0  0  0  0  0  0  0  0
   -1.0340   -0.0240   -0.2000 C   0  0  2  0  0  0  0  0  0  0  0  0
   -1.1070    1.2710   -0.6770 O   0  0  0  0  0  0  0  0  0  0  0  0
    0.1050   -0.7910   -0.8280 C   0  0  2  0  0  0  0  0  0  0  0  0
    0.1000   -2.0750   -0.2900 O   0  0  0  0  0  0  0  0  0  0  0  0
    1.3960   -0.1140   -0.5800 C   0  0  0  0  0  0  0  0  0  0  0  0
    2.0050    0.5740   -1.5930 C   0  0  0  0  0  0  0  0  0  0  0  0
    3.1920    1.1970   -1.3670 N   0  0  0  0  0  0  0  0  0  0  0  0
    3.7320    1.1080   -0.1220 C   0  0  0  0  0  0  0  0  0  0  0  0
    3.0980    0.4050    0.8940 C   0  0  0  0  0  0  0  0  0  0  0  0
    3.6870    0.3360    2.1650 O   0  0  0  0  0  0  0  0  0  0  0  0
    1.9220   -0.2110    0.6660 N   0  0  0  0  0  0  0  0  0  0  0  0
   -0.9260    0.0220    1.3070 C   0  0  0  0  0  0  0  0  0  0  0  0
  1  2  2  0
  2  3  1  6
  2 16  1  0
  3  4  1  0
  4  5  1  0
  5  6  1  6
  5  7  1  0
  5 16  1  0
  7  8  1  1
  7  9  1  0
  9 10  2  0
  9 15  1  0
 10 11  1  0
 11 12  2  0
 12 13  1  0
 13 14  1  0
 13 15  2  0
M  END
