
     RDKit          3D

 16 17  0  0  0  0  0  0  0  0999 V2000
    4.4270    0.0530   -0.0910 C   0  0  0  0  0  0  0  0  0  0  0  0
    3.8790   -1.3560    0.0120 C   0  0  0  0  0  0  0  0  0  0  0  0
    2.9450   -1.6980   -1.0150 N   0  0  0  0  0  0  0  0  0  0  0  0
    1.6660   -1.0260   -1.0020 C   0  0  0  0  0  0  0  0  0  0  0  0
    1.3350    0.0450   -0.4550 N   0  0  0  0  0  0  0  0  0  0  0  0
    0.0470    0.5600   -0.5410 C   0  0  1  0  0  0  0  0  0  0  0  0
   -0.9570   -0.4710   -1.0110 C   0  0  2  0  0  0  0  0  0  0  0  0
   -1.6510   -1.0660    0.0220 O   0  0  0  0  0  0  0  0  0  0  0  0
   -2.5960   -0.1970    0.5270 C   0  0  2  0  0  0  0  0  0  0  0  0
   -3.8350   -0.1250   -0.3420 C   0  0  0  0  0  0  0  0  0  0  0  0
   -4.4090   -1.3880   -0.4320 O   0  0  0  0  0  0  0  0  0  0  0  0
   -1.9780    1.1680    0.6560 C   0  0  1  0  0  0  0  0  0  0  0  0
   -2.5340    1.9490    1.6440 O   0  0  0  0  0  0  0  0  0  0  0  0
   -0.4660    0.9700    0.8420 C   0  0  2  0  0  0  0  0  0  0  0  0
    0.0800    2.1530    1.2780 O   0  0  0  0  0  0  0  0  0  0  0  0
    0.1830   -1.6310   -1.8240 S   0  0  0  0  0  0  0  0  0  0  0  0
  1  2  1  0
  2  3  1  0
  3  4  1  0
  4  5  2  0
  4 16  1  0
  6  5  1  1
  6  7  1  0
  6 14  1  0
  7  8  1  1
  7 16  1  0
  8  9  1  0
  9 10  1  6
  9 12  1  0
 10 11  1  0
 12 13  1  1
 12 14  1  0
 14 15  1  6
M  END
