
     RDKit          3D

 16 17  0  0  0  0  0  0  0  0999 V2000
    3.9390   -0.3620    1.9820 O   0  0  0  0  0  0  0  0  0  0  0  0
    3.9360   -0.7620    0.6520 C   0  0  0  0  0  0  0  0  0  0  0  0
    2.9640    0.0140   -0.1860 C   0  0  0  0  0  0  0  0  0  0  0  0
    1.5660   -0.1340    0.2970 C   0  0  0  0  0  0  0  0  0  0  0  0
    1.2450   -0.8500    1.3190 N   0  0  0  0  0  0  0  0  0  0  0  0
   -0.1050   -0.8120    1.5420 O   0  0  0  0  0  0  0  0  0  0  0  0
   -0.6160    0.2680    0.8210 C   0  0  1  0  0  0  0  0  0  0  0  0
    0.3680    0.4320   -0.2160 N   0  0  0  0  0  0  0  0  0  0  0  0
    0.3050    1.0170   -1.5290 C   0  0  0  0  0  0  0  0  0  0  0  0
   -0.1540   -0.0060   -2.5710 C   0  0  0  0  0  0  0  0  0  0  0  0
   -1.9520   -0.2600   -2.3810 S   0  0  0  0  0  0  0  0  0  0  0  0
   -2.1960   -0.9490   -0.7040 C   0  0  0  0  0  0  0  0  0  0  0  0
   -2.0100    0.1010    0.3370 C   0  0  2  0  0  0  0  0  0  0  0  0
   -2.4540    1.3300   -0.1540 O   0  0  0  0  0  0  0  0  0  0  0  0
   -2.8880   -0.2450    1.5230 C   0  0  0  0  0  0  0  0  0  0  0  0
   -4.2310   -0.3400    1.1420 O   0  0  0  0  0  0  0  0  0  0  0  0
  1  2  1  0
  2  3  1  0
  3  4  1  0
  4  5  2  0
  4  8  1  0
  5  6  1  0
  7  6  1  6
  7  8  1  0
  7 13  1  0
  8  9  1  0
  9 10  1  0
 10 11  1  0
 11 12  1  0
 12 13  1  0
 13 14  1  6
 13 15  1  0
 15 16  1  0
M  END
