
     RDKit          3D

 29 29  0  0  0  0  0  0  0  0999 V2000
   -4.8060   -5.6610   -0.6400 C   0  0  0  0  0  0  0  0  0  0  0  0
   -4.8130   -4.1790   -0.3170 C   0  0  0  0  0  0  0  0  0  0  0  0
   -3.4860   -3.7880   -0.1750 O   0  0  0  0  0  0  0  0  0  0  0  0
   -3.4740   -2.4230    0.1230 C   0  0  0  0  0  0  0  0  0  0  0  0
   -2.0630   -1.9420    0.2880 C   0  0  0  0  0  0  0  0  0  0  0  0
   -1.0970   -2.6410    0.1770 O   0  0  0  0  0  0  0  0  0  0  0  0
   -1.8710   -0.5000    0.6100 C   0  0  1  0  0  0  0  0  0  0  0  0
   -0.4680   -0.1910    0.7370 N   0  0  0  0  0  0  0  0  0  0  0  0
    0.0220    0.3570    1.9310 C   0  0  0  0  0  0  0  0  0  0  0  0
   -0.7570    0.5770    2.8810 O   0  0  0  0  0  0  0  0  0  0  0  0
    1.4510    0.6760    2.0720 C   0  0  0  0  0  0  0  0  0  0  0  0
    2.1070    0.3390    0.8740 O   0  0  0  0  0  0  0  0  0  0  0  0
    3.4720    0.5180    0.6810 C   0  0  0  0  0  0  0  0  0  0  0  0
    4.2830    1.0450    1.6640 C   0  0  0  0  0  0  0  0  0  0  0  0
    5.6540    1.2140    1.4430 C   0  0  0  0  0  0  0  0  0  0  0  0
    6.2330    0.8620    0.2450 C   0  0  0  0  0  0  0  0  0  0  0  0
    7.6790    1.0190   -0.0460 C   0  0  0  0  0  0  0  0  0  0  0  0
    5.4290    0.3350   -0.7430 C   0  0  0  0  0  0  0  0  0  0  0  0
    6.0020   -0.0430   -2.0080 C   0  0  0  0  0  0  0  0  0  0  0  0
    6.8350   -1.1770   -2.1160 N   0  0  0  0  0  0  0  0  0  0  0  0
    5.6900    0.8400   -3.3310 S   0  0  0  0  0  0  0  0  0  0  0  0
    4.0660    0.1710   -0.5130 C   0  0  0  0  0  0  0  0  0  0  0  0
   -2.4840    0.3110   -0.4520 N   0  0  0  0  0  0  0  0  0  0  0  0
   -3.5390    1.2540   -0.1520 C   0  0  0  0  0  0  0  0  0  0  0  0
   -3.8600    1.3040    1.0570 O   0  0  0  0  0  0  0  0  0  0  0  0
   -4.1370    2.0370   -1.1500 N   0  0  0  0  0  0  0  0  0  0  0  0
   -5.1660    2.9990   -0.9110 C   0  0  0  0  0  0  0  0  0  0  0  0
   -4.7130    4.1180   -0.0450 C   0  0  0  0  0  0  0  0  0  0  0  0
   -4.2780    3.7880    1.2600 N   0  0  0  0  0  0  0  0  0  0  0  0
  1  2  1  0
  2  3  1  0
  3  4  1  0
  4  5  1  0
  5  6  2  0
  5  7  1  0
  7  8  1  6
  7 23  1  0
  8  9  1  0
  9 10  2  0
  9 11  1  0
 11 12  1  0
 12 13  1  0
 13 14  2  0
 13 22  1  0
 14 15  1  0
 15 16  2  0
 16 17  1  0
 16 18  1  0
 18 19  1  0
 18 22  2  0
 19 20  1  0
 19 21  2  0
 23 24  1  0
 24 25  2  0
 24 26  1  0
 26 27  1  0
 27 28  1  0
 28 29  1  0
M  CHG  1  20   1
M  END
