
     RDKit          3D

 29 29  0  0  0  0  0  0  0  0999 V2000
   -6.2660    0.0920   -2.5140 C   0  0  0  0  0  0  0  0  0  0  0  0
   -5.5070   -0.4810   -1.3150 C   0  0  0  0  0  0  0  0  0  0  0  0
   -6.0430    0.2230   -0.0710 C   0  0  2  0  0  0  0  0  0  0  0  0
   -5.2020   -0.3890    1.4140 S   0  0  0  0  0  0  0  0  0  0  0  0
   -3.5080    0.1120    1.3030 C   0  0  0  0  0  0  0  0  0  0  0  0
   -2.5880   -0.6920    0.7010 C   0  0  0  0  0  0  0  0  0  0  0  0
   -1.2370   -0.2880    0.6110 C   0  0  0  0  0  0  0  0  0  0  0  0
   -0.8160    0.9040    1.1170 C   0  0  0  0  0  0  0  0  0  0  0  0
    0.4840    1.4100    1.1040 N   0  0  0  0  0  0  0  0  0  0  0  0
    1.6150    0.6300    0.7650 C   0  0  0  0  0  0  0  0  0  0  0  0
    1.5490   -0.5820    0.4510 O   0  0  0  0  0  0  0  0  0  0  0  0
    2.9720    1.2800    0.7770 C   0  0  0  0  0  0  0  0  0  0  0  0
    3.9620    0.4540    0.0960 C   0  0  1  0  0  0  0  0  0  0  0  0
    3.6580    0.2730   -1.3350 C   0  0  0  0  0  0  0  0  0  0  0  0
    2.4420   -0.1520   -1.8660 N   0  0  0  0  0  0  0  0  0  0  0  0
    4.6020    0.5320   -2.1920 O   0  0  0  0  0  0  0  0  0  0  0  0
    5.3480    0.9390    0.2480 N   0  0  1  0  0  0  0  0  0  0  0  0
    5.6630    1.0960    1.6450 C   0  0  0  0  0  0  0  0  0  0  0  0
    6.1300    0.0700   -0.4420 N   0  0  0  0  0  0  0  0  0  0  0  0
    6.7490   -0.9830    0.3030 C   0  0  0  0  0  0  0  0  0  0  0  0
    7.5770   -1.8810   -0.5100 C   0  0  0  0  0  0  0  0  0  0  0  0
    7.7740   -1.7570   -1.9030 N   0  0  0  0  0  0  0  0  0  0  0  0
    8.1590   -2.8350    0.0690 O   0  0  0  0  0  0  0  0  0  0  0  0
   -1.7910    1.6970    1.7260 C   0  0  0  0  0  0  0  0  0  0  0  0
   -3.1220    1.3150    1.8220 C   0  0  0  0  0  0  0  0  0  0  0  0
   -7.4750   -0.1200    0.0400 C   0  0  0  0  0  0  0  0  0  0  0  0
   -8.4020    0.7300    0.0330 O   0  0  0  0  0  0  0  0  0  0  0  0
   -7.8330   -1.4550    0.1590 O   0  0  0  0  0  0  0  0  0  0  0  0
   -9.2010   -1.8020    0.2670 C   0  0  0  0  0  0  0  0  0  0  0  0
  1  2  1  0
  3  2  1  6
  3  4  1  0
  3 26  1  0
  4  5  1  0
  5  6  2  0
  5 25  1  0
  6  7  1  0
  7  8  2  0
  8  9  1  0
  8 24  1  0
  9 10  1  0
 10 11  2  0
 10 12  1  0
 13 12  1  6
 13 14  1  0
 13 17  1  0
 14 15  1  0
 14 16  2  0
 17 18  1  1
 17 19  1  0
 19 20  1  0
 20 21  1  0
 21 22  1  0
 21 23  2  0
 24 25  2  0
 26 27  2  0
 26 28  1  0
 28 29  1  0
M  CHG  1  17   1
M  END
