
     RDKit          3D

 30 31  0  0  0  0  0  0  0  0999 V2000
   -6.3880   -2.3180    0.7140 C   0  0  0  0  0  0  0  0  0  0  0  0
   -5.1420   -2.6550   -0.0020 C   0  0  0  0  0  0  0  0  0  0  0  0
   -4.4670   -3.5990    0.3430 O   0  0  0  0  0  0  0  0  0  0  0  0
   -4.6990   -1.8410   -1.1590 C   0  0  0  0  0  0  0  0  0  0  0  0
   -3.8180   -0.7780   -0.7910 N   0  0  0  0  0  0  0  0  0  0  0  0
   -4.2240    0.4830   -0.4580 C   0  0  0  0  0  0  0  0  0  0  0  0
   -5.6590    0.7460   -0.4850 C   0  0  0  0  0  0  0  0  0  0  0  0
   -3.3420    1.4630   -0.1010 C   0  0  0  0  0  0  0  0  0  0  0  0
   -3.7210    2.7920    0.2350 C   0  0  0  0  0  0  0  0  0  0  0  0
   -4.9840    3.5060    0.1670 C   0  0  0  0  0  0  0  0  0  0  0  0
   -2.7450    3.5400    0.6990 O   0  0  0  0  0  0  0  0  0  0  0  0
   -1.9700    1.1420   -0.0820 C   0  0  0  0  0  0  0  0  0  0  0  0
   -1.5260   -0.1120   -0.4110 C   0  0  0  0  0  0  0  0  0  0  0  0
   -0.1530   -0.5180   -0.4200 N   0  0  0  0  0  0  0  0  0  0  0  0
    0.9680    0.2340   -0.0950 C   0  0  0  0  0  0  0  0  0  0  0  0
    0.7830    1.4440    0.2720 O   0  0  0  0  0  0  0  0  0  0  0  0
    2.3770   -0.1990   -0.1170 C   0  0  0  0  0  0  0  0  0  0  0  0
    3.3120    0.5100    0.5820 C   0  0  0  0  0  0  0  0  0  0  0  0
    4.6600    0.1050    0.6060 C   0  0  0  0  0  0  0  0  0  0  0  0
    5.4530    0.8580    1.3080 C   0  0  0  0  0  0  0  0  0  0  0  0
    6.8770    0.8620    1.6350 C   0  0  0  0  0  0  0  0  0  0  0  0
    7.6920    1.4420    0.5750 N   0  0  0  0  0  0  0  0  0  0  0  0
    5.0340   -1.0090   -0.0800 C   0  0  0  0  0  0  0  0  0  0  0  0
    6.2440   -1.4880   -0.1560 C   0  0  0  0  0  0  0  0  0  0  0  0
    6.5330   -2.9890   -1.1230 S   0  0  0  0  0  0  0  0  0  0  0  0
    4.0910   -1.7010   -0.7700 N   0  0  0  0  0  0  0  0  0  0  0  0
    2.8260   -1.3090   -0.7840 C   0  0  0  0  0  0  0  0  0  0  0  0
    1.9820   -1.9940   -1.4500 O   0  0  0  0  0  0  0  0  0  0  0  0
   -2.4760   -1.0480   -0.7610 C   0  0  0  0  0  0  0  0  0  0  0  0
   -2.0760   -2.2130   -1.0670 O   0  0  0  0  0  0  0  0  0  0  0  0
  1  2  1  0
  2  3  2  0
  2  4  1  0
  4  5  1  0
  5  6  1  0
  5 29  1  0
  6  7  1  0
  6  8  2  0
  8  9  1  0
  8 12  1  0
  9 10  1  0
  9 11  2  0
 12 13  2  0
 13 14  1  0
 13 29  1  0
 14 15  1  0
 15 16  2  0
 15 17  1  0
 17 18  2  0
 17 27  1  0
 18 19  1  0
 19 20  2  3
 19 23  1  0
 20 21  1  0
 21 22  1  0
 23 24  2  3
 23 26  1  0
 24 25  1  0
 26 27  1  0
 27 28  2  0
 29 30  2  0
M  CHG  1  22   1
M  END
