
     RDKit          3D

 30 31  0  0  0  0  0  0  0  0999 V2000
    1.6040    5.5500    1.4130 C   0  0  0  0  0  0  0  0  0  0  0  0
    0.1990    5.0820    1.1800 C   0  0  0  0  0  0  0  0  0  0  0  0
    0.1010    4.5920   -0.2720 C   0  0  0  0  0  0  0  0  0  0  0  0
    1.0470    3.4780   -0.4300 C   0  0  0  0  0  0  0  0  0  0  0  0
    2.3910    3.7680   -0.1420 O   0  0  0  0  0  0  0  0  0  0  0  0
    0.7500    2.2670   -0.8090 C   0  0  0  0  0  0  0  0  0  0  0  0
    1.7900    1.2610   -0.9180 C   0  0  0  0  0  0  0  0  0  0  0  0
    2.9790    1.5390   -0.6450 O   0  0  0  0  0  0  0  0  0  0  0  0
    1.4780   -0.0510   -1.3340 N   0  0  0  0  0  0  0  0  0  0  0  0
    2.4880   -1.0440   -1.4450 N   0  0  0  0  0  0  0  0  0  0  0  0
    3.3350   -1.3420   -0.3350 C   0  0  0  0  0  0  0  0  0  0  0  0
    3.1840   -0.7260    0.7380 O   0  0  0  0  0  0  0  0  0  0  0  0
    4.3950   -2.3900   -0.4690 C   0  0  0  0  0  0  0  0  0  0  0  0
    5.1450   -2.4860    0.8410 C   0  0  0  0  0  0  0  0  0  0  0  0
    6.1830   -3.4740    0.7950 N   0  0  0  0  0  0  0  0  0  0  0  0
    6.6620   -3.6370   -0.5490 C   0  0  0  0  0  0  0  0  0  0  0  0
   -0.6360    1.9190   -1.1820 C   0  0  0  0  0  0  0  0  0  0  0  0
   -1.4830    2.5140   -2.0220 C   0  0  0  0  0  0  0  0  0  0  0  0
   -2.7220    2.0220   -2.1770 C   0  0  0  0  0  0  0  0  0  0  0  0
   -3.0870    0.9290   -1.4760 C   0  0  0  0  0  0  0  0  0  0  0  0
   -4.3230    0.1810   -1.4290 C   0  0  0  0  0  0  0  0  0  0  0  0
   -5.3090    0.5570   -2.1630 O   0  0  0  0  0  0  0  0  0  0  0  0
   -4.4840   -0.9400   -0.6110 N   0  0  0  0  0  0  0  0  0  0  0  0
   -5.8040   -1.6130   -0.6590 C   0  0  0  0  0  0  0  0  0  0  0  0
   -6.1370   -1.8100    0.8270 C   0  0  0  0  0  0  0  0  0  0  0  0
   -5.2070   -2.8990    1.2930 C   0  0  2  0  0  0  0  0  0  0  0  0
   -5.4630   -3.2100    2.6410 O   0  0  0  0  0  0  0  0  0  0  0  0
   -3.7720   -2.6860    0.9900 C   0  0  0  0  0  0  0  0  0  0  0  0
   -3.4440   -1.4190    0.2330 C   0  0  0  0  0  0  0  0  0  0  0  0
   -1.5620    0.5760   -0.5310 S   0  0  0  0  0  0  0  0  0  0  0  0
  1  2  1  0
  2  3  1  0
  3  4  1  0
  4  5  1  0
  4  6  2  3
  6  7  1  0
  6 17  1  0
  7  8  2  0
  7  9  1  0
  9 10  1  0
 10 11  1  0
 11 12  2  0
 11 13  1  0
 13 14  1  0
 14 15  1  0
 15 16  1  0
 17 18  2  0
 17 30  1  0
 18 19  1  0
 19 20  2  0
 20 21  1  0
 20 30  1  0
 21 22  2  0
 21 23  1  0
 23 24  1  0
 23 29  1  0
 24 25  1  0
 25 26  1  0
 26 27  1  1
 26 28  1  0
 28 29  1  0
M  CHG  1  15   1
M  END
