
     RDKit          3D

 30 31  0  0  0  0  0  0  0  0999 V2000
   -4.2780   -5.6660   -1.1180 C   0  0  0  0  0  0  0  0  0  0  0  0
   -4.3730   -4.2700   -0.6510 C   0  0  0  0  0  0  0  0  0  0  0  0
   -3.5010   -3.3470   -1.0520 C   0  0  0  0  0  0  0  0  0  0  0  0
   -3.6140   -1.9550   -0.5740 C   0  0  0  0  0  0  0  0  0  0  0  0
   -2.7500   -1.0790   -0.9820 C   0  0  0  0  0  0  0  0  0  0  0  0
   -1.7030   -1.4580   -1.8840 N   0  0  0  0  0  0  0  0  0  0  0  0
   -0.3710   -1.3350   -1.4570 C   0  0  0  0  0  0  0  0  0  0  0  0
   -0.0860   -0.8990   -0.2900 O   0  0  0  0  0  0  0  0  0  0  0  0
    0.7470   -1.7020   -2.3350 C   0  0  0  0  0  0  0  0  0  0  0  0
    2.0060   -1.4810   -1.6580 N   0  0  0  0  0  0  0  0  0  0  0  0
    2.4250   -0.2090   -1.1780 C   0  0  0  0  0  0  0  0  0  0  0  0
    1.6500    0.7660   -1.3600 O   0  0  0  0  0  0  0  0  0  0  0  0
    3.7270   -0.0420   -0.4910 C   0  0  0  0  0  0  0  0  0  0  0  0
    3.8820    1.4140   -0.1040 C   0  0  0  0  0  0  0  0  0  0  0  0
    5.4120    1.7160    0.7260 S   0  0  1  0  0  0  0  0  0  0  0  0
    6.5740    1.4520   -0.1570 O   0  0  0  0  0  0  0  0  0  0  0  0
    5.4360    3.1550    1.1500 O   0  0  0  0  0  0  0  0  0  0  0  0
    5.4350    0.7160    2.1960 C   0  0  0  0  0  0  0  0  0  0  0  0
    6.7040    0.9560    2.9010 C   0  0  0  0  0  0  0  0  0  0  0  0
    6.8000    1.9790    3.8680 N   0  0  0  0  0  0  0  0  0  0  0  0
    7.7000    0.2530    2.6440 O   0  0  0  0  0  0  0  0  0  0  0  0
   -2.7720    0.3060   -0.5690 C   0  0  0  0  0  0  0  0  0  0  0  0
   -1.9110    1.2840   -1.0160 N   0  0  0  0  0  0  0  0  0  0  0  0
   -2.1750    2.4510   -0.4470 C   0  0  0  0  0  0  0  0  0  0  0  0
   -1.4810    3.7590   -0.6540 C   0  0  0  0  0  0  0  0  0  0  0  0
   -3.2550    2.2160    0.4060 C   0  0  0  0  0  0  0  0  0  0  0  0
   -3.6410    0.8890    0.3450 C   0  0  0  0  0  0  0  0  0  0  0  0
   -4.7670    0.6770    1.2470 C   0  0  0  0  0  0  0  0  0  0  0  0
   -5.0490    1.8290    1.8280 C   0  0  0  0  0  0  0  0  0  0  0  0
   -4.1410    2.8900    1.3620 C   0  0  0  0  0  0  0  0  0  0  0  0
  1  2  1  0
  2  3  2  3
  3  4  1  0
  4  5  2  3
  5  6  1  0
  5 22  1  0
  6  7  1  0
  7  8  2  0
  7  9  1  0
  9 10  1  0
 10 11  1  0
 11 12  2  0
 11 13  1  0
 13 14  1  0
 15 14  1  6
 15 16  2  0
 15 17  2  0
 15 18  1  0
 18 19  1  0
 19 20  1  0
 19 21  2  0
 22 23  1  0
 22 27  2  0
 23 24  1  0
 24 25  1  0
 24 26  2  0
 26 27  1  0
 26 30  1  0
 27 28  1  0
 28 29  2  0
 29 30  1  0
M  END
