
     RDKit          3D

 29 29  0  0  0  0  0  0  0  0999 V2000
   -9.4670   -0.2440   -0.6510 C   0  0  0  0  0  0  0  0  0  0  0  0
   -8.5020    0.8930   -0.8160 C   0  0  0  0  0  0  0  0  0  0  0  0
   -7.1810    0.4140   -0.6640 O   0  0  0  0  0  0  0  0  0  0  0  0
   -6.7190   -0.5640   -1.5320 C   0  0  0  0  0  0  0  0  0  0  0  0
   -7.4960   -0.9890   -2.4230 O   0  0  0  0  0  0  0  0  0  0  0  0
   -5.3180   -1.1080   -1.4110 C   0  0  0  0  0  0  0  0  0  0  0  0
   -4.6210   -0.4730   -0.3290 N   0  0  0  0  0  0  0  0  0  0  0  0
   -3.7800   -1.3760    0.4280 C   0  0  0  0  0  0  0  0  0  0  0  0
   -2.8350   -2.1420   -0.4770 C   0  0  0  0  0  0  0  0  0  0  0  0
   -1.7470   -1.0160   -1.3910 S   0  0  0  0  0  0  0  0  0  0  0  0
   -0.6130   -0.1510   -0.2310 C   0  0  2  0  0  0  0  0  0  0  0  0
    0.2220    0.7360   -1.1020 C   0  0  0  0  0  0  0  0  0  0  0  0
    0.0770   -1.1460    0.6010 C   0  0  0  0  0  0  0  0  0  0  0  0
    0.9900   -0.7790    1.5950 N   0  0  0  0  0  0  0  0  0  0  0  0
    2.2530   -0.1400    1.3860 C   0  0  0  0  0  0  0  0  0  0  0  0
    2.6550    0.1340    0.2340 O   0  0  0  0  0  0  0  0  0  0  0  0
    3.0910    0.2020    2.4810 N   0  0  0  0  0  0  0  0  0  0  0  0
    4.3470    0.8160    2.4000 C   0  0  0  0  0  0  0  0  0  0  0  0
    4.9090    1.3410    3.5750 C   0  0  0  0  0  0  0  0  0  0  0  0
    6.1410    1.9410    3.5820 C   0  0  0  0  0  0  0  0  0  0  0  0
    6.8700    2.0460    2.4250 C   0  0  0  0  0  0  0  0  0  0  0  0
    6.3480    1.5350    1.2290 C   0  0  0  0  0  0  0  0  0  0  0  0
    7.1590    1.6950    0.0880 N   0  0  0  0  0  0  0  0  0  0  0  0
    6.9650    1.1110   -1.1850 C   0  0  0  0  0  0  0  0  0  0  0  0
    6.0070    0.3620   -1.4030 O   0  0  0  0  0  0  0  0  0  0  0  0
    7.8910    1.3680   -2.2980 C   0  0  0  0  0  0  0  0  0  0  0  0
    7.7250    0.7960   -3.5790 N   0  0  0  0  0  0  0  0  0  0  0  0
    8.8610    2.1260   -2.0900 O   0  0  0  0  0  0  0  0  0  0  0  0
    5.0980    0.9340    1.2590 C   0  0  0  0  0  0  0  0  0  0  0  0
  1  2  1  0
  2  3  1  0
  3  4  1  0
  4  5  2  0
  4  6  1  0
  6  7  1  0
  7  8  1  0
  8  9  1  0
  9 10  1  0
 10 11  1  0
 11 12  1  6
 11 13  1  0
 13 14  1  0
 14 15  1  0
 15 16  2  0
 15 17  1  0
 17 18  1  0
 18 19  2  0
 18 29  1  0
 19 20  1  0
 20 21  2  0
 21 22  1  0
 22 23  1  0
 22 29  2  0
 23 24  1  0
 24 25  2  0
 24 26  1  0
 26 27  1  0
 26 28  2  0
M  CHG  1   7   1
M  END
