
     RDKit          3D

 30 31  0  0  0  0  0  0  0  0999 V2000
   -8.4180    2.3340    0.3340 C   0  0  0  0  0  0  0  0  0  0  0  0
   -7.9080    0.9080    0.1110 C   0  0  0  0  0  0  0  0  0  0  0  0
   -7.1200    0.9540   -1.0130 O   0  0  0  0  0  0  0  0  0  0  0  0
   -6.6020   -0.2610   -1.3610 C   0  0  0  0  0  0  0  0  0  0  0  0
   -5.7340   -0.8640   -0.3160 C   0  0  0  0  0  0  0  0  0  0  0  0
   -4.5840   -0.0150    0.0090 N   0  0  0  0  0  0  0  0  0  0  0  0
   -3.6960   -0.5320    1.0140 C   0  0  0  0  0  0  0  0  0  0  0  0
   -4.3230   -0.5750    2.4020 C   0  0  0  0  0  0  0  0  0  0  0  0
   -2.4650   -0.9230    0.8150 C   0  0  0  0  0  0  0  0  0  0  0  0
   -1.7190   -1.4270    1.9850 C   0  0  0  0  0  0  0  0  0  0  0  0
   -2.3570   -1.8820    2.9690 O   0  0  0  0  0  0  0  0  0  0  0  0
   -0.2880   -1.4010    1.9960 N   0  0  0  0  0  0  0  0  0  0  0  0
    0.3300   -0.8860    0.8180 C   0  0  0  0  0  0  0  0  0  0  0  0
    1.7230   -0.6540    0.8980 C   0  0  0  0  0  0  0  0  0  0  0  0
    2.3990   -0.0030   -0.1060 C   0  0  0  0  0  0  0  0  0  0  0  0
    4.1240    0.3010   -0.0380 S   0  0  2  0  0  0  0  0  0  0  0  0
    4.5060    0.4430    1.4060 O   0  0  0  0  0  0  0  0  0  0  0  0
    4.4070    1.5560   -0.8110 O   0  0  0  0  0  0  0  0  0  0  0  0
    4.9150   -1.0980   -0.7840 C   0  0  0  0  0  0  0  0  0  0  0  0
    6.3740   -0.9100   -0.7600 C   0  0  0  0  0  0  0  0  0  0  0  0
    7.0970   -1.8130   -1.2550 O   0  0  0  0  0  0  0  0  0  0  0  0
    6.9530    0.2400   -0.2050 N   0  0  0  0  0  0  0  0  0  0  0  0
    8.4160    0.4370   -0.1770 C   0  0  2  0  0  0  0  0  0  0  0  0
    8.9200    0.4860    1.2420 C   0  0  0  0  0  0  0  0  0  0  0  0
    8.8160    1.6350   -0.9880 C   0  0  0  0  0  0  0  0  0  0  0  0
    1.6560    0.4120   -1.1940 C   0  0  0  0  0  0  0  0  0  0  0  0
    0.3150    0.2040   -1.3100 C   0  0  0  0  0  0  0  0  0  0  0  0
   -0.3520   -0.4570   -0.2900 C   0  0  0  0  0  0  0  0  0  0  0  0
   -1.7700   -0.8730   -0.4410 C   0  0  2  0  0  0  0  0  0  0  0  0
   -2.3950   -0.3500   -1.5990 N   0  0  0  0  0  0  0  0  0  0  0  0
  1  2  1  0
  2  3  1  0
  3  4  1  0
  4  5  1  0
  5  6  1  0
  6  7  1  0
  7  8  1  0
  7  9  2  3
  9 10  1  0
  9 29  1  0
 10 11  2  0
 10 12  1  0
 12 13  1  0
 13 14  2  0
 13 28  1  0
 14 15  1  0
 15 16  1  0
 15 26  2  0
 16 17  2  0
 16 18  2  0
 16 19  1  6
 19 20  1  0
 20 21  2  0
 20 22  1  0
 22 23  1  0
 23 24  1  1
 23 25  1  0
 26 27  1  0
 27 28  2  0
 28 29  1  0
 29 30  1  6
M  CHG  1  30   1
M  END
