
     RDKit          3D

 30 31  0  0  0  0  0  0  0  0999 V2000
   -6.2420    1.6320   -0.1740 C   0  0  0  0  0  0  0  0  0  0  0  0
   -4.9070    0.9200   -0.1790 C   0  0  2  0  0  0  0  0  0  0  0  0
   -3.8790    1.7270    0.5950 C   0  0  0  0  0  0  0  0  0  0  0  0
   -4.3220    1.9270    1.9190 O   0  0  0  0  0  0  0  0  0  0  0  0
   -4.4000    0.7440   -1.5360 N   0  0  0  0  0  0  0  0  0  0  0  0
   -5.0670   -0.3390   -2.2020 C   0  0  0  0  0  0  0  0  0  0  0  0
   -4.1690   -1.1610   -3.0870 C   0  0  0  0  0  0  0  0  0  0  0  0
   -3.0830   -1.7650   -2.2740 C   0  0  0  0  0  0  0  0  0  0  0  0
   -3.0170   -1.5710   -1.0500 O   0  0  0  0  0  0  0  0  0  0  0  0
   -2.1060   -2.5750   -2.8990 N   0  0  0  0  0  0  0  0  0  0  0  0
   -1.0340   -3.1830   -2.1740 C   0  0  0  0  0  0  0  0  0  0  0  0
   -0.1980   -2.1090   -1.5380 C   0  0  0  0  0  0  0  0  0  0  0  0
   -0.5830   -0.9520   -1.7610 O   0  0  0  0  0  0  0  0  0  0  0  0
    0.9190   -2.4370   -0.7600 N   0  0  0  0  0  0  0  0  0  0  0  0
    1.2680   -3.8630   -0.5690 C   0  0  0  0  0  0  0  0  0  0  0  0
    1.7860   -1.5340   -0.1140 C   0  0  0  0  0  0  0  0  0  0  0  0
    2.7700   -2.0130    0.5600 O   0  0  0  0  0  0  0  0  0  0  0  0
    1.6200   -0.1490   -0.1760 N   0  0  0  0  0  0  0  0  0  0  0  0
    2.4400    0.8180    0.4380 C   0  0  0  0  0  0  0  0  0  0  0  0
    3.5660    0.5240    1.1560 C   0  0  0  0  0  0  0  0  0  0  0  0
    4.3860    1.4750    1.7590 C   0  0  0  0  0  0  0  0  0  0  0  0
    5.5940    1.0660    2.5190 C   0  0  0  0  0  0  0  0  0  0  0  0
    6.3560    1.9260    3.0870 C   0  0  0  0  0  0  0  0  0  0  0  0
    7.5350    1.4400    3.8230 C   0  0  0  0  0  0  0  0  0  0  0  0
    7.1190   -0.3170    4.0320 S   0  0  0  0  0  0  0  0  0  0  0  0
    5.9550   -0.3670    2.6380 C   0  0  0  0  0  0  0  0  0  0  0  0
    3.9920    2.7760    1.5900 C   0  0  0  0  0  0  0  0  0  0  0  0
    2.8730    3.1180    0.8790 C   0  0  0  0  0  0  0  0  0  0  0  0
    2.0700    2.1680    0.2870 C   0  0  0  0  0  0  0  0  0  0  0  0
    0.9450    2.5660   -0.4230 O   0  0  0  0  0  0  0  0  0  0  0  0
  2  1  1  6
  2  3  1  0
  2  5  1  0
  3  4  1  0
  5  6  1  0
  6  7  1  0
  7  8  1  0
  8  9  2  0
  8 10  1  0
 10 11  1  0
 11 12  1  0
 12 13  2  0
 12 14  1  0
 14 15  1  0
 14 16  1  0
 16 17  2  0
 16 18  1  0
 18 19  1  0
 19 20  2  0
 19 29  1  0
 20 21  1  0
 21 22  1  0
 21 27  2  0
 22 23  2  0
 22 26  1  0
 23 24  1  0
 24 25  1  0
 25 26  1  0
 27 28  1  0
 28 29  2  0
 29 30  1  0
M  CHG  1   5   1
M  END
