
     RDKit          3D

 30 31  0  0  0  0  0  0  0  0999 V2000
   -1.0530    5.1230   -2.3220 C   0  0  0  0  0  0  0  0  0  0  0  0
   -1.3330    3.8400   -1.8600 C   0  0  0  0  0  0  0  0  0  0  0  0
   -0.4760    2.8090   -2.2590 C   0  0  0  0  0  0  0  0  0  0  0  0
   -0.1960    1.5640   -2.2120 C   0  0  0  0  0  0  0  0  0  0  0  0
    0.9800    1.1310   -2.9450 O   0  0  0  0  0  0  0  0  0  0  0  0
    1.0180   -0.1850   -3.4630 C   0  0  1  0  0  0  0  0  0  0  0  0
    2.3170   -0.5060   -3.9980 N   0  0  0  0  0  0  0  0  0  0  0  0
    0.7290   -1.0700   -2.3350 N   0  0  0  0  0  0  0  0  0  0  0  0
   -0.4660   -0.7960   -1.5440 C   0  0  0  0  0  0  0  0  0  0  0  0
   -0.9630   -1.9380   -0.8140 C   0  0  0  0  0  0  0  0  0  0  0  0
   -0.3010   -3.0570   -1.0090 O   0  0  0  0  0  0  0  0  0  0  0  0
   -1.9770   -2.1340    0.0560 O   0  0  0  0  0  0  0  0  0  0  0  0
   -2.3270   -3.3220    0.6930 C   0  0  0  0  0  0  0  0  0  0  0  0
   -0.8850    0.4510   -1.5110 C   0  0  0  0  0  0  0  0  0  0  0  0
   -2.1590    0.7690   -0.8410 C   0  0  1  0  0  0  0  0  0  0  0  0
   -3.3000   -0.1900   -1.1290 C   0  0  0  0  0  0  0  0  0  0  0  0
   -2.1200    1.3250    0.8150 S   0  0  0  0  0  0  0  0  0  0  0  0
   -1.5330    0.3040    2.1150 C   0  0  0  0  0  0  0  0  0  0  0  0
   -0.0400    0.0890    1.9660 C   0  0  0  0  0  0  0  0  0  0  0  0
    0.5990    0.6510    1.0670 O   0  0  0  0  0  0  0  0  0  0  0  0
    0.6190   -0.7560    2.8620 N   0  0  0  0  0  0  0  0  0  0  0  0
    1.9870   -1.0930    2.9130 C   0  0  0  0  0  0  0  0  0  0  0  0
    2.9320   -0.5220    2.0970 C   0  0  0  0  0  0  0  0  0  0  0  0
    4.2850   -0.8710    2.1600 C   0  0  0  0  0  0  0  0  0  0  0  0
    4.6590   -1.8200    3.0750 C   0  0  0  0  0  0  0  0  0  0  0  0
    3.7090   -2.4150    3.9170 C   0  0  0  0  0  0  0  0  0  0  0  0
    4.0820   -3.3940    4.8670 N   0  0  0  0  0  0  0  0  0  0  0  0
    2.3840   -2.0490    3.8310 C   0  0  0  0  0  0  0  0  0  0  0  0
   -2.4480    3.8360   -1.0590 O   0  0  0  0  0  0  0  0  0  0  0  0
   -3.7030    4.3170   -1.4580 C   0  0  0  0  0  0  0  0  0  0  0  0
  1  2  2  0
  2  3  1  0
  2 29  1  0
  3  4  2  3
  4  5  1  0
  4 14  1  0
  5  6  1  0
  6  7  1  1
  6  8  1  0
  8  9  1  0
  9 10  1  0
  9 14  2  0
 10 11  2  0
 10 12  1  0
 12 13  1  0
 14 15  1  0
 15 16  1  1
 15 17  1  0
 17 18  1  0
 18 19  1  0
 19 20  2  0
 19 21  1  0
 21 22  1  0
 22 23  2  0
 22 28  1  0
 23 24  1  0
 24 25  2  0
 25 26  1  0
 26 27  1  0
 26 28  2  0
 29 30  1  0
M  CHG  1   7   1
M  END
