
     RDKit          3D

 33 35  0  0  0  0  0  0  0  0999 V2000
   -4.8050   -3.3200   -1.7040 C   0  0  0  0  0  0  0  0  0  0  0  0
   -4.7860   -2.2230   -0.8490 C   0  0  0  0  0  0  0  0  0  0  0  0
   -3.5610   -1.5460   -0.7160 C   0  0  0  0  0  0  0  0  0  0  0  0
   -3.2200   -0.5010    0.0070 C   0  0  0  0  0  0  0  0  0  0  0  0
   -1.8410   -0.0090   -0.0430 N   0  0  0  0  0  0  0  0  0  0  0  0
   -1.4200    1.0010    0.5780 C   0  0  0  0  0  0  0  0  0  0  0  0
   -0.0700    1.4280    0.4900 N   0  0  0  0  0  0  0  0  0  0  0  0
    0.9370    0.5890   -0.0960 C   0  0  0  0  0  0  0  0  0  0  0  0
    1.1120   -0.6570    0.7970 C   0  0  0  0  0  0  0  0  0  0  0  0
    2.1450   -1.4850    0.2420 N   0  0  0  0  0  0  0  0  0  0  0  0
    3.4670   -0.9960    0.2140 C   0  0  0  0  0  0  0  0  0  0  0  0
    3.7500    0.1230    0.7620 O   0  0  0  0  0  0  0  0  0  0  0  0
    4.4570   -1.7740   -0.4460 N   0  0  0  0  0  0  0  0  0  0  0  0
    5.8410   -1.3070   -0.4060 C   0  0  1  0  0  0  0  0  0  0  0  0
    6.7040   -2.3880   -0.8730 C   0  0  0  0  0  0  0  0  0  0  0  0
    8.1000   -2.3030   -1.0610 N   0  0  0  0  0  0  0  0  0  0  0  0
    6.1860   -3.5320   -1.1370 O   0  0  0  0  0  0  0  0  0  0  0  0
    5.9500   -0.0710   -1.2210 C   0  0  0  0  0  0  0  0  0  0  0  0
    6.1070    1.2060   -0.7730 C   0  0  0  0  0  0  0  0  0  0  0  0
    6.1650    2.0190   -1.8960 C   0  0  0  0  0  0  0  0  0  0  0  0
    6.0370    1.1710   -3.0000 C   0  0  0  0  0  0  0  0  0  0  0  0
    6.0540    1.6720   -4.4010 C   0  0  0  0  0  0  0  0  0  0  0  0
    5.9130   -0.0420   -2.5440 O   0  0  0  0  0  0  0  0  0  0  0  0
   -2.3700    1.7760    1.4300 C   0  0  0  0  0  0  0  0  0  0  0  0
   -1.8430    2.9840    2.1380 C   0  0  0  0  0  0  0  0  0  0  0  0
   -3.6120    1.4070    1.5350 C   0  0  0  0  0  0  0  0  0  0  0  0
   -4.5540    2.2040    2.3940 C   0  0  0  0  0  0  0  0  0  0  0  0
   -4.0780    0.2390    0.8130 N   0  0  0  0  0  0  0  0  0  0  0  0
   -5.4660   -0.0260    1.0450 C   0  0  0  0  0  0  0  0  0  0  0  0
   -5.9420   -0.7610    2.0190 C   0  0  0  0  0  0  0  0  0  0  0  0
   -7.4150   -0.7810    1.9250 C   0  0  0  0  0  0  0  0  0  0  0  0
   -7.7160    0.0570    0.7490 C   0  0  0  0  0  0  0  0  0  0  0  0
   -6.5740    0.4790    0.2580 C   0  0  0  0  0  0  0  0  0  0  0  0
  1  2  2  0
  2  3  1  0
  3  4  2  3
  4  5  1  0
  4 28  1  0
  5  6  2  0
  6  7  1  0
  6 24  1  0
  7  8  1  0
  8  9  1  0
  9 10  1  0
 10 11  1  0
 11 12  2  0
 11 13  1  0
 14 13  1  6
 14 15  1  0
 14 18  1  0
 15 16  1  0
 15 17  2  0
 18 19  2  0
 18 23  1  0
 19 20  1  0
 20 21  2  0
 21 22  1  0
 21 23  1  0
 24 25  1  0
 24 26  2  0
 26 27  1  0
 26 28  1  0
 28 29  1  0
 29 30  2  0
 29 33  1  0
 30 31  1  0
 31 32  1  0
 32 33  2  0
M  END
