
     RDKit          3D

 33 36  0  0  0  0  0  0  0  0999 V2000
   -7.3600    2.2120    0.2910 C   0  0  0  0  0  0  0  0  0  0  0  0
   -7.1560    0.8170   -0.2830 C   0  0  0  0  0  0  0  0  0  0  0  0
   -5.6890    0.5170   -0.3540 C   0  0  0  0  0  0  0  0  0  0  0  0
   -5.1150   -0.3340    0.5990 C   0  0  0  0  0  0  0  0  0  0  0  0
   -3.7740   -0.6350    0.5840 C   0  0  0  0  0  0  0  0  0  0  0  0
   -3.1550   -1.4510    1.5330 N   0  0  0  0  0  0  0  0  0  0  0  0
   -3.8310   -2.1520    2.5510 C   0  0  0  0  0  0  0  0  0  0  0  0
   -5.0640   -2.1360    2.7230 O   0  0  0  0  0  0  0  0  0  0  0  0
   -3.0020   -2.9810    3.5020 C   0  0  0  0  0  0  0  0  0  0  0  0
   -1.6550   -2.8710    3.2250 O   0  0  0  0  0  0  0  0  0  0  0  0
   -2.9760   -0.0720   -0.4100 C   0  0  0  0  0  0  0  0  0  0  0  0
   -1.5680   -0.4150   -0.4340 C   0  0  0  0  0  0  0  0  0  0  0  0
   -0.6290    0.4880   -0.5470 C   0  0  0  0  0  0  0  0  0  0  0  0
    0.8200    0.2200   -0.5820 C   0  0  0  0  0  0  0  0  0  0  0  0
    1.4080    1.4010   -0.6700 C   0  0  0  0  0  0  0  0  0  0  0  0
    2.8570    1.6040   -0.7320 C   0  0  0  0  0  0  0  0  0  0  0  0
    3.6240    0.4100   -0.7120 N   0  0  0  0  0  0  0  0  0  0  0  0
    3.5480   -0.4100   -1.8860 C   0  0  0  0  0  0  0  0  0  0  0  0
    4.7090    0.0460   -2.7840 C   0  0  0  0  0  0  0  0  0  0  0  0
    5.5630    0.9620   -1.8930 C   0  0  0  0  0  0  0  0  0  0  0  0
    5.0420    0.6150   -0.5470 C   0  0  2  0  0  0  0  0  0  0  0  0
    5.7190   -0.4390    0.1880 C   0  0  0  0  0  0  0  0  0  0  0  0
    6.8910   -1.0220   -0.2710 C   0  0  0  0  0  0  0  0  0  0  0  0
    7.4810   -2.0040    0.4780 N   0  0  0  0  0  0  0  0  0  0  0  0
    6.9100   -2.3770    1.6380 C   0  0  0  0  0  0  0  0  0  0  0  0
    5.7740   -1.8140    2.0850 N   0  0  0  0  0  0  0  0  0  0  0  0
    5.1490   -0.8350    1.3790 C   0  0  0  0  0  0  0  0  0  0  0  0
    3.9340   -0.2500    1.8740 C   0  0  0  0  0  0  0  0  0  0  0  0
    0.4730    2.4220   -0.6960 O   0  0  0  0  0  0  0  0  0  0  0  0
   -0.7900    1.8930   -0.6220 N   0  0  0  0  0  0  0  0  0  0  0  0
   -3.5180    0.7650   -1.3550 C   0  0  0  0  0  0  0  0  0  0  0  0
   -4.8700    1.0480   -1.3110 C   0  0  0  0  0  0  0  0  0  0  0  0
   -5.4460    1.9170   -2.2860 N   0  0  0  0  0  0  0  0  0  0  0  0
  1  2  1  0
  2  3  1  0
  3  4  2  0
  3 32  1  0
  4  5  1  0
  5  6  1  0
  5 11  2  0
  6  7  1  0
  7  8  2  0
  7  9  1  0
  9 10  1  0
 11 12  1  0
 11 31  1  0
 12 13  2  3
 13 14  1  0
 13 30  1  0
 14 15  2  0
 15 16  1  0
 15 29  1  0
 16 17  1  0
 17 18  1  0
 17 21  1  0
 18 19  1  0
 19 20  1  0
 20 21  1  0
 21 22  1  6
 22 23  2  0
 22 27  1  0
 23 24  1  0
 24 25  2  0
 25 26  1  0
 26 27  2  0
 27 28  1  0
 29 30  1  0
 31 32  2  0
 32 33  1  0
M  END
