
     RDKit          3D

 32 36  0  0  0  0  0  0  0  0999 V2000
    7.9090   -1.1120   -1.3290 C   0  0  0  0  0  0  0  0  0  0  0  0
    6.6090   -0.8830   -0.5440 C   0  0  0  0  0  0  0  0  0  0  0  0
    5.4580   -0.7990   -1.4440 C   0  0  0  0  0  0  0  0  0  0  0  0
    5.7500   -0.9270   -2.7020 O   0  0  0  0  0  0  0  0  0  0  0  0
    4.1030   -0.5990   -1.0950 N   0  0  0  0  0  0  0  0  0  0  0  0
    3.1150   -0.5350   -1.9950 N   0  0  0  0  0  0  0  0  0  0  0  0
    1.9250   -0.3370   -1.3750 C   0  0  0  0  0  0  0  0  0  0  0  0
    0.6710   -0.2280   -2.1630 C   0  0  0  0  0  0  0  0  0  0  0  0
    2.1870   -0.2770   -0.0430 C   0  0  0  0  0  0  0  0  0  0  0  0
    1.4220   -0.0980    1.0820 C   0  0  0  0  0  0  0  0  0  0  0  0
    2.0280   -0.0860    2.3460 C   0  0  0  0  0  0  0  0  0  0  0  0
    1.0670    0.1030    3.2670 N   0  0  0  0  0  0  0  0  0  0  0  0
   -0.1030    0.2080    2.6290 C   0  0  0  0  0  0  0  0  0  0  0  0
   -1.3520    0.4080    3.1850 C   0  0  0  0  0  0  0  0  0  0  0  0
   -2.4540    0.4910    2.3810 C   0  0  0  0  0  0  0  0  0  0  0  0
   -2.2970    0.3740    1.0250 C   0  0  0  0  0  0  0  0  0  0  0  0
   -3.4880    0.4690    0.1970 C   0  0  0  0  0  0  0  0  0  0  0  0
   -3.6840   -0.4380   -0.8090 C   0  0  0  0  0  0  0  0  0  0  0  0
   -4.8060   -0.4000   -1.6340 C   0  0  0  0  0  0  0  0  0  0  0  0
   -5.0210   -1.3100   -2.6590 O   0  0  0  0  0  0  0  0  0  0  0  0
   -4.0340   -2.3130   -2.8470 C   0  0  0  0  0  0  0  0  0  0  0  0
   -5.7180    0.6040   -1.3870 C   0  0  0  0  0  0  0  0  0  0  0  0
   -5.5290    1.5250   -0.3730 C   0  0  0  0  0  0  0  0  0  0  0  0
   -4.3910    1.4660    0.4450 C   0  0  0  0  0  0  0  0  0  0  0  0
   -4.2290    2.4060    1.4560 O   0  0  0  0  0  0  0  0  0  0  0  0
   -5.2090    3.4050    1.6470 C   0  0  0  0  0  0  0  0  0  0  0  0
   -1.0320    0.1700    0.4400 C   0  0  0  0  0  0  0  0  0  0  0  0
    0.0590    0.0890    1.2560 C   0  0  0  0  0  0  0  0  0  0  0  0
    3.3710   -0.2530    2.4440 C   0  0  0  0  0  0  0  0  0  0  0  0
    3.9060   -0.2410    3.5820 O   0  0  0  0  0  0  0  0  0  0  0  0
    4.1340   -0.4290    1.3630 N   0  0  0  0  0  0  0  0  0  0  0  0
    3.5770   -0.4450    0.1240 C   0  0  0  0  0  0  0  0  0  0  0  0
  1  2  1  0
  2  3  1  0
  3  4  2  0
  3  5  1  0
  5  6  1  0
  5 32  1  0
  6  7  2  0
  7  8  1  0
  7  9  1  0
  9 10  1  0
  9 32  2  0
 10 11  2  0
 10 28  1  0
 11 12  1  0
 11 29  1  0
 12 13  1  0
 13 14  2  0
 13 28  1  0
 14 15  1  0
 15 16  2  0
 16 17  1  0
 16 27  1  0
 17 18  2  0
 17 24  1  0
 18 19  1  0
 19 20  1  0
 19 22  2  0
 20 21  1  0
 22 23  1  0
 23 24  2  0
 24 25  1  0
 25 26  1  0
 27 28  2  0
 29 30  2  0
 29 31  1  0
 31 32  1  0
M  END
