
     RDKit          3D

 33 38  0  0  0  0  0  0  0  0999 V2000
   -1.5440   -2.2210   -2.2180 C   0  0  0  0  0  0  0  0  0  0  0  0
   -2.4050   -1.2880   -1.6290 O   0  0  0  0  0  0  0  0  0  0  0  0
   -2.0490   -0.4090   -0.6350 C   0  0  0  0  0  0  0  0  0  0  0  0
   -0.7230   -0.4660   -0.1910 C   0  0  0  0  0  0  0  0  0  0  0  0
   -0.3210    0.3920    0.8020 C   0  0  0  0  0  0  0  0  0  0  0  0
   -1.2340    1.3000    1.3440 C   0  0  0  0  0  0  0  0  0  0  0  0
   -2.5260    1.3140    0.8700 C   0  0  0  0  0  0  0  0  0  0  0  0
   -2.9690    0.4690   -0.1240 C   0  0  0  0  0  0  0  0  0  0  0  0
   -4.3520    0.5220   -0.5920 C   0  0  0  0  0  0  0  0  0  0  0  0
   -5.4130   -0.2040   -0.0790 C   0  0  0  0  0  0  0  0  0  0  0  0
   -5.3380   -1.1880    1.0590 C   0  0  0  0  0  0  0  0  0  0  0  0
   -6.4990    0.1340   -0.7800 N   0  0  0  0  0  0  0  0  0  0  0  0
   -6.1820    1.0120   -1.6840 O   0  0  0  0  0  0  0  0  0  0  0  0
   -4.9020    1.2750   -1.6080 C   0  0  0  0  0  0  0  0  0  0  0  0
   -4.0860    2.2080   -2.4290 C   0  0  0  0  0  0  0  0  0  0  0  0
   -0.6350    2.0450    2.2770 N   0  0  0  0  0  0  0  0  0  0  0  0
    0.6560    1.6430    2.3590 C   0  0  0  0  0  0  0  0  0  0  0  0
    1.6790    2.0840    3.1310 N   0  0  0  0  0  0  0  0  0  0  0  0
    2.9080    1.5580    3.0530 C   0  0  0  0  0  0  0  0  0  0  0  0
    4.0450    2.0470    3.9070 C   0  0  0  0  0  0  0  0  0  0  0  0
    3.0970    0.5670    2.1780 N   0  0  0  0  0  0  0  0  0  0  0  0
    2.1040    0.0740    1.3680 C   0  0  0  0  0  0  0  0  0  0  0  0
    2.4370   -1.0150    0.4710 C   0  0  0  0  0  0  0  0  0  0  0  0
    1.9530   -2.2970    0.5850 C   0  0  0  0  0  0  0  0  0  0  0  0
    2.4000   -3.2960   -0.2720 C   0  0  0  0  0  0  0  0  0  0  0  0
    3.3080   -3.0600   -1.2330 N   0  0  0  0  0  0  0  0  0  0  0  0
    3.7950   -1.8170   -1.3630 C   0  0  0  0  0  0  0  0  0  0  0  0
    4.7350   -1.5700   -2.3530 C   0  0  0  0  0  0  0  0  0  0  0  0
    5.2750   -0.3010   -2.5330 C   0  0  0  0  0  0  0  0  0  0  0  0
    4.8400    0.6880   -1.6950 C   0  0  0  0  0  0  0  0  0  0  0  0
    3.9030    0.4620   -0.7010 C   0  0  0  0  0  0  0  0  0  0  0  0
    3.3670   -0.7930   -0.5210 C   0  0  0  0  0  0  0  0  0  0  0  0
    0.8620    0.6140    1.4490 C   0  0  0  0  0  0  0  0  0  0  0  0
  1  2  1  0
  2  3  1  0
  3  4  2  0
  3  8  1  0
  4  5  1  0
  5  6  2  0
  5 33  1  0
  6  7  1  0
  6 16  1  0
  7  8  2  0
  8  9  1  0
  9 10  1  0
  9 14  2  0
 10 11  1  0
 10 12  2  0
 12 13  1  0
 13 14  1  0
 14 15  1  0
 16 17  1  0
 17 18  2  0
 17 33  1  0
 18 19  1  0
 19 20  1  0
 19 21  2  0
 21 22  1  0
 22 23  1  0
 22 33  2  0
 23 24  2  0
 23 32  1  0
 24 25  1  0
 25 26  2  0
 26 27  1  0
 27 28  2  0
 27 32  1  0
 28 29  1  0
 29 30  2  0
 30 31  1  0
 31 32  2  0
M  END
