
     RDKit          3D

 31 35  0  0  0  0  0  0  0  0999 V2000
   -0.5960   -1.7010    2.0860 N   0  0  0  0  0  0  0  0  0  0  0  0
   -0.0030   -2.1990    0.9040 C   0  0  0  0  0  0  0  0  0  0  0  0
    0.3600   -3.3950    0.8570 O   0  0  0  0  0  0  0  0  0  0  0  0
    0.1840   -1.2990   -0.2740 C   0  0  2  0  0  0  0  0  0  0  0  0
    1.6510   -1.2740   -0.6640 C   0  0  0  0  0  0  0  0  0  0  0  0
    2.4920   -0.7670    0.4760 C   0  0  0  0  0  0  0  0  0  0  0  0
    3.9090   -0.7490    0.0830 C   0  0  0  0  0  0  0  0  0  0  0  0
    4.7440   -1.8370    0.2820 C   0  0  0  0  0  0  0  0  0  0  0  0
    6.0640   -1.7600   -0.1090 C   0  0  0  0  0  0  0  0  0  0  0  0
    6.5670   -0.6040   -0.6990 C   0  0  0  0  0  0  0  0  0  0  0  0
    5.7450    0.4850   -0.9010 C   0  0  0  0  0  0  0  0  0  0  0  0
    4.4420    0.3790   -0.5050 C   0  0  0  0  0  0  0  0  0  0  0  0
    6.5370    1.4770   -1.5060 O   0  0  0  0  0  0  0  0  0  0  0  0
    7.9070    1.1230   -1.3320 C   0  0  0  0  0  0  0  0  0  0  0  0
    7.8450   -0.2880   -1.1710 O   0  0  0  0  0  0  0  0  0  0  0  0
   -0.3130    0.0270    0.0050 N   0  0  0  0  0  0  0  0  0  0  0  0
   -1.5770    0.1920    0.1120 C   0  0  0  0  0  0  0  0  0  0  0  0
   -2.4880   -0.8470   -0.0290 C   0  0  0  0  0  0  0  0  0  0  0  0
   -3.8250   -0.5620    0.1050 C   0  0  0  0  0  0  0  0  0  0  0  0
   -4.8380   -1.5980   -0.0290 C   0  0  0  0  0  0  0  0  0  0  0  0
   -6.2150   -1.4340    0.0840 C   0  0  0  0  0  0  0  0  0  0  0  0
   -6.7920   -2.6630   -0.1120 C   0  0  0  0  0  0  0  0  0  0  0  0
   -5.7600   -3.5370   -0.3380 C   0  0  0  0  0  0  0  0  0  0  0  0
   -4.6460   -2.8600   -0.2780 O   0  0  0  0  0  0  0  0  0  0  0  0
   -4.2110    0.6880    0.3630 N   0  0  0  0  0  0  0  0  0  0  0  0
   -3.3190    1.7090    0.5020 C   0  0  0  0  0  0  0  0  0  0  0  0
   -2.0090    1.4360    0.3720 N   0  0  0  0  0  0  0  0  0  0  0  0
   -1.0440    2.4970    0.5110 C   0  0  0  0  0  0  0  0  0  0  0  0
   -1.5300    3.6070   -0.4110 C   0  0  0  0  0  0  0  0  0  0  0  0
   -2.9240    4.0210   -0.1140 C   0  0  0  0  0  0  0  0  0  0  0  0
   -3.6960    3.1040    0.7890 C   0  0  0  0  0  0  0  0  0  0  0  0
  1  2  1  0
  2  3  2  0
  2  4  1  0
  4  5  1  1
  4 16  1  0
  5  6  1  0
  6  7  1  0
  7  8  2  0
  7 12  1  0
  8  9  1  0
  9 10  2  0
 10 11  1  0
 10 15  1  0
 11 12  2  0
 11 13  1  0
 13 14  1  0
 14 15  1  0
 16 17  2  3
 17 18  1  0
 17 27  1  0
 18 19  2  0
 19 20  1  0
 19 25  1  0
 20 21  2  0
 20 24  1  0
 21 22  1  0
 22 23  2  0
 23 24  1  0
 25 26  2  0
 26 27  1  0
 26 31  1  0
 27 28  1  0
 28 29  1  0
 29 30  1  0
 30 31  1  0
M  END
