
     RDKit          3D

 32 36  0  0  0  0  0  0  0  0999 V2000
   -5.1960    2.2980   -1.4250 C   0  0  0  0  0  0  0  0  0  0  0  0
   -4.7430    1.1660   -0.5470 C   0  0  0  0  0  0  0  0  0  0  0  0
   -3.3870    0.9270   -0.4270 C   0  0  0  0  0  0  0  0  0  0  0  0
   -2.9560   -0.1000    0.3690 C   0  0  0  0  0  0  0  0  0  0  0  0
   -1.5930   -0.4090    0.5430 C   0  0  0  0  0  0  0  0  0  0  0  0
   -0.6250    0.3640   -0.1250 N   0  0  0  0  0  0  0  0  0  0  0  0
    0.7560    0.1320   -0.0140 C   0  0  0  0  0  0  0  0  0  0  0  0
    1.2460   -0.7570    0.6680 O   0  0  0  0  0  0  0  0  0  0  0  0
    1.6800    1.0390   -0.7860 C   0  0  0  0  0  0  0  0  0  0  0  0
    2.9940    0.6410   -0.5390 O   0  0  0  0  0  0  0  0  0  0  0  0
    4.0510    1.2750   -1.1010 C   0  0  0  0  0  0  0  0  0  0  0  0
    3.7390    2.2620   -1.8700 O   0  0  0  0  0  0  0  0  0  0  0  0
    5.4600    1.0230   -0.9760 C   0  0  0  0  0  0  0  0  0  0  0  0
    6.3610    1.8010   -1.6440 N   0  0  0  0  0  0  0  0  0  0  0  0
    7.6480    1.6380   -1.5820 N   0  0  0  0  0  0  0  0  0  0  0  0
    8.2440    0.6890   -0.8590 C   0  0  0  0  0  0  0  0  0  0  0  0
    9.4790    0.5130   -0.7840 O   0  0  0  0  0  0  0  0  0  0  0  0
    7.4030   -0.1570   -0.1400 C   0  0  0  0  0  0  0  0  0  0  0  0
    7.9210   -1.1580    0.6300 C   0  0  0  0  0  0  0  0  0  0  0  0
    7.0900   -1.9950    1.3400 C   0  0  0  0  0  0  0  0  0  0  0  0
    5.7330   -1.8510    1.2990 C   0  0  0  0  0  0  0  0  0  0  0  0
    5.2000   -0.8330    0.5160 C   0  0  0  0  0  0  0  0  0  0  0  0
    6.0140    0.0120   -0.2000 C   0  0  0  0  0  0  0  0  0  0  0  0
   -1.3000   -1.4610    1.3680 C   0  0  0  0  0  0  0  0  0  0  0  0
   -2.2780   -2.2120    2.0190 C   0  0  0  0  0  0  0  0  0  0  0  0
   -3.5530   -1.8770    1.8180 N   0  0  0  0  0  0  0  0  0  0  0  0
   -3.9200   -0.8630    1.0280 C   0  0  0  0  0  0  0  0  0  0  0  0
   -5.2830   -0.6180    0.9050 C   0  0  0  0  0  0  0  0  0  0  0  0
   -5.6880    0.4140    0.1030 C   0  0  0  0  0  0  0  0  0  0  0  0
   -7.1920    0.4800    0.1300 C   0  0  0  0  0  0  0  0  0  0  0  0
   -7.5640   -0.9320    0.5220 C   0  0  0  0  0  0  0  0  0  0  0  0
   -6.4830   -1.2840    1.5000 C   0  0  0  0  0  0  0  0  0  0  0  0
  1  2  1  0
  2  3  2  0
  2 29  1  0
  3  4  1  0
  4  5  2  0
  4 27  1  0
  5  6  1  0
  5 24  1  0
  6  7  1  0
  7  8  2  0
  7  9  1  0
  9 10  1  0
 10 11  1  0
 11 12  2  0
 11 13  1  0
 13 14  2  0
 13 23  1  0
 14 15  1  0
 15 16  1  0
 16 17  2  0
 16 18  1  0
 18 19  2  0
 18 23  1  0
 19 20  1  0
 20 21  2  0
 21 22  1  0
 22 23  2  0
 24 25  2  0
 25 26  1  0
 26 27  2  0
 27 28  1  0
 28 29  2  0
 28 32  1  0
 29 30  1  0
 30 31  1  0
 31 32  1  0
M  END
