
     RDKit          3D

 32 36  0  0  0  0  0  0  0  0999 V2000
   -5.6000    1.7140    2.3260 C   0  0  0  0  0  0  0  0  0  0  0  0
   -4.6390    1.3480    1.2400 C   0  0  0  0  0  0  0  0  0  0  0  0
   -4.7500   -0.0630    0.8190 C   0  0  0  0  0  0  0  0  0  0  0  0
   -5.7750   -0.5720    0.0090 C   0  0  0  0  0  0  0  0  0  0  0  0
   -5.5280   -1.8920   -0.1430 C   0  0  0  0  0  0  0  0  0  0  0  0
   -4.4100   -2.1670    0.5420 N   0  0  0  0  0  0  0  0  0  0  0  0
   -3.9310   -1.0560    1.1290 N   0  0  0  0  0  0  0  0  0  0  0  0
   -2.7080   -1.0670    1.9280 C   0  0  0  0  0  0  0  0  0  0  0  0
   -1.5090   -0.8540    1.0860 C   0  0  0  0  0  0  0  0  0  0  0  0
   -0.9350   -1.8870    0.3580 C   0  0  0  0  0  0  0  0  0  0  0  0
    0.1780   -1.6970   -0.4200 C   0  0  0  0  0  0  0  0  0  0  0  0
    0.7700   -0.4370   -0.4990 C   0  0  0  0  0  0  0  0  0  0  0  0
    1.9310   -0.2690   -1.3260 C   0  0  0  0  0  0  0  0  0  0  0  0
    2.5000   -1.2360   -1.9220 O   0  0  0  0  0  0  0  0  0  0  0  0
    2.5170    1.0010   -1.5290 N   0  0  0  0  0  0  0  0  0  0  0  0
    3.7000    1.2000   -2.3660 C   0  0  0  0  0  0  0  0  0  0  0  0
    4.8930    0.7620   -1.6280 C   0  0  0  0  0  0  0  0  0  0  0  0
    5.5160   -0.4370   -1.8660 C   0  0  0  0  0  0  0  0  0  0  0  0
    6.6420   -0.7940   -1.1320 C   0  0  0  0  0  0  0  0  0  0  0  0
    7.1510    0.0400   -0.1610 C   0  0  0  0  0  0  0  0  0  0  0  0
    6.5430    1.2480    0.0960 C   0  0  0  0  0  0  0  0  0  0  0  0
    5.4340    1.5770   -0.6410 C   0  0  0  0  0  0  0  0  0  0  0  0
    7.2990    1.9090    1.1700 C   0  0  0  0  0  0  0  0  0  0  0  0
    6.8770    2.8780    1.8280 O   0  0  0  0  0  0  0  0  0  0  0  0
    8.5780    1.1560    1.2280 C   0  0  0  0  0  0  0  0  0  0  0  0
    8.2520   -0.1250    0.6750 O   0  0  0  0  0  0  0  0  0  0  0  0
    0.2230    0.5840    0.2060 C   0  0  0  0  0  0  0  0  0  0  0  0
   -0.9180    0.3820    1.0020 C   0  0  0  0  0  0  0  0  0  0  0  0
   -6.5380   -2.4630   -0.9600 N   0  0  0  0  0  0  0  0  0  0  0  0
   -7.2420   -1.4080   -1.6360 C   0  0  0  0  0  0  0  0  0  0  0  0
   -6.9830   -0.2370   -0.7230 C   0  0  0  0  0  0  0  0  0  0  0  0
   -7.6730    0.8100   -0.6190 O   0  0  0  0  0  0  0  0  0  0  0  0
  1  2  1  0
  2  3  1  0
  3  4  2  0
  3  7  1  0
  4  5  1  0
  4 31  1  0
  5  6  2  0
  5 29  1  0
  6  7  1  0
  7  8  1  0
  8  9  1  0
  9 10  2  0
  9 28  1  0
 10 11  1  0
 11 12  2  0
 12 13  1  0
 12 27  1  0
 13 14  2  0
 13 15  1  0
 15 16  1  0
 16 17  1  0
 17 18  2  0
 17 22  1  0
 18 19  1  0
 19 20  2  0
 20 21  1  0
 20 26  1  0
 21 22  2  0
 21 23  1  0
 23 24  2  0
 23 25  1  0
 25 26  1  0
 27 28  2  0
 29 30  1  0
 30 31  1  0
 31 32  2  0
M  END
