
     RDKit          3D

 30 32  0  0  0  0  0  0  0  0999 V2000
   -4.9270   -2.4760    2.1300 C   0  0  0  0  0  0  0  0  0  0  0  0
   -5.2500   -1.4580    1.0690 C   0  0  1  0  0  0  0  0  0  0  0  0
   -6.4760   -0.8220    1.2890 O   0  0  0  0  0  0  0  0  0  0  0  0
   -6.9290    0.1420    0.4090 C   0  0  0  0  0  0  0  0  0  0  0  0
   -7.1430   -0.1310   -0.8660 C   0  0  0  0  0  0  0  0  0  0  0  0
   -7.6130    0.8540   -1.7960 C   0  0  0  0  0  0  0  0  0  0  0  0
   -7.8050    0.5470   -3.0080 O   0  0  0  0  0  0  0  0  0  0  0  0
   -7.8900    2.2470   -1.3980 C   0  0  0  0  0  0  0  0  0  0  0  0
   -7.6180    2.4410    0.0380 C   0  0  0  0  0  0  0  0  0  0  0  0
   -7.8420    3.7090    0.5310 F   0  0  0  0  0  0  0  0  0  0  0  0
   -7.1910    1.5070    0.8440 C   0  0  0  0  0  0  0  0  0  0  0  0
   -6.9860    1.8500    2.1610 F   0  0  0  0  0  0  0  0  0  0  0  0
   -4.1320   -0.4940    0.9120 C   0  0  0  0  0  0  0  0  0  0  0  0
   -4.4000    0.7430    0.9880 O   0  0  0  0  0  0  0  0  0  0  0  0
   -2.7940   -0.9110    0.6840 N   0  0  0  0  0  0  0  0  0  0  0  0
   -1.8060    0.0680    0.5500 N   0  0  0  0  0  0  0  0  0  0  0  0
   -0.4180   -0.2670    0.4070 C   0  0  0  0  0  0  0  0  0  0  0  0
   -0.1340   -1.4820    0.4090 O   0  0  0  0  0  0  0  0  0  0  0  0
    0.5920    0.6890    0.2710 N   0  0  0  0  0  0  0  0  0  0  0  0
    1.9370    0.2200    0.1360 C   0  0  0  0  0  0  0  0  0  0  0  0
    2.5860   -0.8010    0.0930 N   0  0  0  0  0  0  0  0  0  0  0  0
    3.8640   -0.8550   -0.0460 N   0  0  0  0  0  0  0  0  0  0  0  0
    4.5860    0.1310   -0.1510 C   0  0  0  0  0  0  0  0  0  0  0  0
    6.0120    0.4750   -0.3170 C   0  0  2  0  0  0  0  0  0  0  0  0
    6.4890   -0.1250   -1.6150 C   0  0  0  0  0  0  0  0  0  0  0  0
    7.7050   -0.9850   -1.4460 C   0  0  0  0  0  0  0  0  0  0  0  0
    8.7970   -0.2990   -0.6690 C   0  0  0  0  0  0  0  0  0  0  0  0
    8.2920    0.4450    0.5290 C   0  0  0  0  0  0  0  0  0  0  0  0
    6.8700   -0.0310    0.8120 C   0  0  0  0  0  0  0  0  0  0  0  0
    3.2600    1.4740   -0.0420 S   0  0  0  0  0  0  0  0  0  0  0  0
  2  1  1  1
  2  3  1  0
  2 13  1  0
  3  4  1  0
  4  5  2  0
  4 11  1  0
  5  6  1  0
  6  7  2  0
  6  8  1  0
  8  9  1  0
  9 10  1  0
  9 11  2  0
 11 12  1  0
 13 14  2  0
 13 15  1  0
 15 16  1  0
 16 17  1  0
 17 18  2  0
 17 19  1  0
 19 20  1  0
 20 21  2  0
 20 30  1  0
 21 22  1  0
 22 23  2  0
 24 23  1  1
 23 30  1  0
 24 25  1  0
 24 29  1  0
 25 26  1  0
 26 27  1  0
 27 28  1  0
 28 29  1  0
M  END
