
     RDKit          3D

 30 32  0  0  0  0  0  0  0  0999 V2000
    5.2090   -0.8450   -1.4130 O   0  0  0  0  0  0  0  0  0  0  0  0
    4.7820   -0.1220   -0.4960 C   0  0  0  0  0  0  0  0  0  0  0  0
    3.3170    0.2730   -0.4450 C   0  0  0  0  0  0  0  0  0  0  0  0
    2.6240   -0.4300   -1.6030 C   0  0  0  0  0  0  0  0  0  0  0  0
    1.1930   -0.0930   -1.5850 N   0  0  0  0  0  0  0  0  0  0  0  0
    0.2410   -0.7430   -0.9290 N   0  0  0  0  0  0  0  0  0  0  0  0
   -0.9560   -0.1700   -1.1210 C   0  0  0  0  0  0  0  0  0  0  0  0
   -2.5430   -0.6990   -0.4430 S   0  0  0  0  0  0  0  0  0  0  0  0
   -2.7580    0.2810    1.0890 C   0  0  0  0  0  0  0  0  0  0  0  0
   -4.0100   -0.0960    1.7470 C   0  0  0  0  0  0  0  0  0  0  0  0
   -3.8900   -0.7220    2.8740 O   0  0  0  0  0  0  0  0  0  0  0  0
   -5.2910    0.1740    1.2400 N   0  0  0  0  0  0  0  0  0  0  0  0
   -5.4520    0.8520   -0.0200 C   0  0  0  0  0  0  0  0  0  0  0  0
   -6.4810    0.1460   -0.8890 C   0  0  0  0  0  0  0  0  0  0  0  0
   -7.7000   -0.2540   -0.1330 C   0  0  1  0  0  0  0  0  0  0  0  0
   -8.5080   -0.9890   -1.0150 O   0  0  0  0  0  0  0  0  0  0  0  0
   -7.3270   -1.0930    1.0670 C   0  0  0  0  0  0  0  0  0  0  0  0
   -6.4610   -0.2330    1.9720 C   0  0  0  0  0  0  0  0  0  0  0  0
   -0.7100    0.8750   -1.9310 N   0  0  0  0  0  0  0  0  0  0  0  0
    0.6000    0.9300   -2.2200 C   0  0  0  0  0  0  0  0  0  0  0  0
    1.1160    1.8030   -2.9560 O   0  0  0  0  0  0  0  0  0  0  0  0
    5.6710    0.3330    0.5060 N   0  0  0  0  0  0  0  0  0  0  0  0
    7.0400    0.0640    0.6150 C   0  0  0  0  0  0  0  0  0  0  0  0
    7.7750   -0.7370   -0.2290 C   0  0  0  0  0  0  0  0  0  0  0  0
    9.1420   -0.9080    0.0210 C   0  0  0  0  0  0  0  0  0  0  0  0
    9.8800   -1.6900   -0.8040 F   0  0  0  0  0  0  0  0  0  0  0  0
    9.7810   -0.3130    1.0680 C   0  0  0  0  0  0  0  0  0  0  0  0
    9.0550    0.4840    1.9110 C   0  0  0  0  0  0  0  0  0  0  0  0
    7.7160    0.6540    1.6700 C   0  0  0  0  0  0  0  0  0  0  0  0
    7.0520    1.4720    2.5550 F   0  0  0  0  0  0  0  0  0  0  0  0
  1  2  2  0
  2  3  1  0
  2 22  1  0
  3  4  1  0
  4  5  1  0
  5  6  1  0
  5 20  1  0
  6  7  2  0
  7  8  1  0
  7 19  1  0
  8  9  1  0
  9 10  1  0
 10 11  2  0
 10 12  1  0
 12 13  1  0
 12 18  1  0
 13 14  1  0
 14 15  1  0
 15 16  1  6
 15 17  1  0
 17 18  1  0
 19 20  1  0
 20 21  2  0
 22 23  1  0
 23 24  2  0
 23 29  1  0
 24 25  1  0
 25 26  1  0
 25 27  2  0
 27 28  1  0
 28 29  2  0
 29 30  1  0
M  END
