
     RDKit          3D

 30 32  0  0  0  0  0  0  0  0999 V2000
   -6.5430    4.0510    0.5870 N   0  0  0  0  0  0  0  0  0  0  0  0
   -6.1420    2.9270    0.5370 C   0  0  0  0  0  0  0  0  0  0  0  0
   -5.6730    1.5640    0.4970 C   0  0  0  0  0  0  0  0  0  0  0  0
   -5.3390    0.8950    1.6640 C   0  0  0  0  0  0  0  0  0  0  0  0
   -4.8110   -0.3620    1.5740 C   0  0  0  0  0  0  0  0  0  0  0  0
   -4.4550   -1.0780    2.7010 F   0  0  0  0  0  0  0  0  0  0  0  0
   -4.6150   -0.9510    0.3240 C   0  0  0  0  0  0  0  0  0  0  0  0
   -4.1140   -2.3560    0.2890 C   0  0  0  0  0  0  0  0  0  0  0  0
   -2.9180   -2.4100    1.0610 N   0  0  0  0  0  0  0  0  0  0  0  0
   -1.6700   -1.8240    0.8000 C   0  0  0  0  0  0  0  0  0  0  0  0
   -1.2260   -1.4060   -0.4270 C   0  0  0  0  0  0  0  0  0  0  0  0
    0.0410   -0.8350   -0.6190 C   0  0  0  0  0  0  0  0  0  0  0  0
    0.9080   -0.6610    0.4160 C   0  0  0  0  0  0  0  0  0  0  0  0
    2.2060   -0.1160    0.3600 N   0  0  0  0  0  0  0  0  0  0  0  0
    2.6050    1.1430   -0.7410 S   0  0  1  0  0  0  0  0  0  0  0  0
    2.1150    0.7060   -2.1510 O   0  0  0  0  0  0  0  0  0  0  0  0
    1.8780    2.4030   -0.4200 O   0  0  0  0  0  0  0  0  0  0  0  0
    4.2840    1.3200   -0.8920 N   0  0  0  0  0  0  0  0  0  0  0  0
    5.2130    0.9000    0.1420 C   0  0  0  0  0  0  0  0  0  0  0  0
    6.1200   -0.0910   -0.4250 C   0  0  0  0  0  0  0  0  0  0  0  0
    6.6290   -1.0440    0.1680 O   0  0  0  0  0  0  0  0  0  0  0  0
    6.4290    0.0840   -1.8420 N   0  0  0  0  0  0  0  0  0  0  0  0
    6.2790    1.4130   -2.4200 C   0  0  0  0  0  0  0  0  0  0  0  0
    4.8800    1.8650   -2.0780 C   0  0  0  0  0  0  0  0  0  0  0  0
    4.2400    2.6760   -2.7710 O   0  0  0  0  0  0  0  0  0  0  0  0
    0.4750   -1.0800    1.6990 C   0  0  0  0  0  0  0  0  0  0  0  0
   -0.7700   -1.6330    1.8450 C   0  0  0  0  0  0  0  0  0  0  0  0
   -4.9360   -0.3080   -0.8280 C   0  0  0  0  0  0  0  0  0  0  0  0
   -4.7560   -0.8430   -2.0800 F   0  0  0  0  0  0  0  0  0  0  0  0
   -5.4770    0.9760   -0.7380 C   0  0  0  0  0  0  0  0  0  0  0  0
  1  2  3  0
  2  3  1  0
  3  4  2  0
  3 30  1  0
  4  5  1  0
  5  6  1  0
  5  7  2  0
  7  8  1  0
  7 28  1  0
  8  9  1  0
  9 10  1  0
 10 11  2  0
 10 27  1  0
 11 12  1  0
 12 13  2  0
 13 14  1  0
 13 26  1  0
 15 14  1  1
 15 16  2  0
 15 17  2  0
 15 18  1  0
 18 19  1  0
 18 24  1  0
 19 20  1  0
 20 21  2  0
 20 22  1  0
 22 23  1  0
 23 24  1  0
 24 25  2  0
 26 27  2  0
 28 29  1  0
 28 30  2  0
M  END
