
     RDKit          3D

 29 31  0  0  0  0  0  0  0  0999 V2000
    7.5660    0.9060   -1.2360 C   0  0  0  0  0  0  0  0  0  0  0  0
    6.2940    0.5380   -0.5420 C   0  0  0  0  0  0  0  0  0  0  0  0
    5.0790    1.0640   -0.9240 C   0  0  0  0  0  0  0  0  0  0  0  0
    3.9070    0.7150   -0.2710 C   0  0  0  0  0  0  0  0  0  0  0  0
    3.8920   -0.1680    0.7860 C   0  0  0  0  0  0  0  0  0  0  0  0
    2.7020   -0.5400    1.4740 N   0  0  0  0  0  0  0  0  0  0  0  0
    1.4840    0.5730    1.9690 S   0  0  1  0  0  0  0  0  0  0  0  0
    0.9340    0.1860    3.2930 O   0  0  0  0  0  0  0  0  0  0  0  0
    2.1240    1.9430    2.1450 O   0  0  0  0  0  0  0  0  0  0  0  0
    0.2730    0.6690    0.7410 N   0  0  0  0  0  0  0  0  0  0  0  0
   -0.7810   -0.3250    1.0000 C   0  0  0  0  0  0  0  0  0  0  0  0
   -1.7920   -0.1630   -0.1230 C   0  0  0  0  0  0  0  0  0  0  0  0
   -2.8850   -1.0870    0.0120 N   0  0  0  0  0  0  0  0  0  0  0  0
   -2.7000   -2.5110   -0.1610 C   0  0  0  0  0  0  0  0  0  0  0  0
   -3.8660   -3.0400   -0.9680 C   0  0  0  0  0  0  0  0  0  0  0  0
   -5.1070   -2.7210   -0.2110 C   0  0  0  0  0  0  0  0  0  0  0  0
   -5.9970   -3.5550    0.0590 O   0  0  0  0  0  0  0  0  0  0  0  0
   -5.2810   -1.3390    0.2380 C   0  0  0  0  0  0  0  0  0  0  0  0
   -6.4970   -0.8590    0.5400 F   0  0  0  0  0  0  0  0  0  0  0  0
   -4.1680   -0.6070    0.3220 C   0  0  0  0  0  0  0  0  0  0  0  0
   -4.3450    0.7530    0.7650 N   0  0  0  0  0  0  0  0  0  0  0  0
   -4.9270    1.5630   -0.0470 C   0  0  0  0  0  0  0  0  0  0  0  0
   -5.4720    1.3440   -1.4130 C   0  0  0  0  0  0  0  0  0  0  0  0
   -5.4830    2.6540   -1.9360 O   0  0  0  0  0  0  0  0  0  0  0  0
   -6.0720    3.3580   -0.8590 C   0  0  0  0  0  0  0  0  0  0  0  0
   -5.1820    2.9350    0.2310 N   0  0  0  0  0  0  0  0  0  0  0  0
    5.1280   -0.6970    1.1670 C   0  0  0  0  0  0  0  0  0  0  0  0
    6.2930   -0.3490    0.5160 C   0  0  0  0  0  0  0  0  0  0  0  0
    7.6040   -0.9200    0.9320 C   0  0  0  0  0  0  0  0  0  0  0  0
  1  2  1  0
  2  3  2  0
  2 28  1  0
  3  4  1  0
  4  5  2  0
  5  6  1  0
  5 27  1  0
  7  6  1  6
  7  8  2  0
  7  9  2  0
  7 10  1  0
 10 11  1  0
 11 12  1  0
 12 13  1  0
 13 14  1  0
 13 20  1  0
 14 15  1  0
 15 16  1  0
 16 17  2  0
 16 18  1  0
 18 19  1  0
 18 20  2  0
 20 21  1  0
 21 22  2  3
 22 23  1  0
 22 26  1  0
 23 24  1  0
 24 25  1  0
 25 26  1  0
 27 28  2  0
 28 29  1  0
M  END
