
     RDKit          3D

 30 33  0  0  0  0  0  0  0  0999 V2000
    1.2700   -1.7750    0.8740 N   0  0  0  0  0  0  0  0  0  0  0  0
    1.5260   -0.8340   -0.1270 C   0  0  0  0  0  0  0  0  0  0  0  0
    2.8380   -0.6940   -0.6070 C   0  0  0  0  0  0  0  0  0  0  0  0
    3.8840   -1.5410   -0.1150 C   0  0  0  0  0  0  0  0  0  0  0  0
    3.4230   -2.4640    0.7290 O   0  0  0  0  0  0  0  0  0  0  0  0
    5.3010   -1.6430   -0.3050 C   0  0  0  0  0  0  0  0  0  0  0  0
    6.2650   -0.3580   -1.0140 S   0  0  0  0  0  0  0  0  0  0  0  0
    6.4290    1.1260   -0.0130 C   0  0  0  0  0  0  0  0  0  0  0  0
    7.2250    0.7610    1.2310 C   0  0  1  0  0  0  0  0  0  0  0  0
    7.3410    1.9280    1.9930 F   0  0  0  0  0  0  0  0  0  0  0  0
    6.5640   -0.2100    1.9850 F   0  0  0  0  0  0  0  0  0  0  0  0
    2.9890    0.2560   -1.5790 C   0  0  0  0  0  0  0  0  0  0  0  0
    4.0970    0.4830   -2.0990 O   0  0  0  0  0  0  0  0  0  0  0  0
    1.9730    1.0230   -2.0640 N   0  0  0  0  0  0  0  0  0  0  0  0
    0.7460    0.8690   -1.5920 C   0  0  0  0  0  0  0  0  0  0  0  0
   -0.2550    1.6840   -2.1360 C   0  0  0  0  0  0  0  0  0  0  0  0
   -1.5260    1.5210   -1.6530 C   0  0  0  0  0  0  0  0  0  0  0  0
   -1.7940    0.5790   -0.6620 C   0  0  0  0  0  0  0  0  0  0  0  0
   -3.1440    0.4720   -0.2360 N   0  0  0  0  0  0  0  0  0  0  0  0
   -4.2480    0.7250   -0.9530 N   0  0  0  0  0  0  0  0  0  0  0  0
   -5.3230    0.4920   -0.1830 C   0  0  0  0  0  0  0  0  0  0  0  0
   -4.8760    0.0910    1.0240 N   0  0  0  0  0  0  0  0  0  0  0  0
   -3.5330    0.0800    0.9880 C   0  0  0  0  0  0  0  0  0  0  0  0
   -2.7960   -0.2500    1.9640 O   0  0  0  0  0  0  0  0  0  0  0  0
   -5.9200   -0.2100    1.9870 C   0  0  0  0  0  0  0  0  0  0  0  0
   -6.9060   -1.1130    1.2390 C   0  0  0  0  0  0  0  0  0  0  0  0
   -7.4670   -0.4840    0.1660 O   0  0  0  0  0  0  0  0  0  0  0  0
   -6.7920    0.5760   -0.3680 C   0  0  0  0  0  0  0  0  0  0  0  0
   -0.7970   -0.2130   -0.1390 C   0  0  0  0  0  0  0  0  0  0  0  0
    0.5060   -0.0590   -0.6210 C   0  0  0  0  0  0  0  0  0  0  0  0
  1  2  1  0
  2  3  2  0
  2 30  1  0
  3  4  1  0
  3 12  1  0
  4  5  2  0
  4  6  1  0
  6  7  1  0
  7  8  1  0
  8  9  1  0
  9 10  1  1
  9 11  1  0
 12 13  2  0
 12 14  1  0
 14 15  1  0
 15 16  2  0
 15 30  1  0
 16 17  1  0
 17 18  2  0
 18 19  1  0
 18 29  1  0
 19 20  1  0
 19 23  1  0
 20 21  2  0
 21 22  1  0
 21 28  1  0
 22 23  1  0
 22 25  1  0
 23 24  2  0
 25 26  1  0
 26 27  1  0
 27 28  1  0
 29 30  2  0
M  END
