
     RDKit          3D

 30 32  0  0  0  0  0  0  0  0999 V2000
   -7.5700   -1.5870    2.0310 C   0  0  0  0  0  0  0  0  0  0  0  0
   -6.5290   -0.9610    1.3330 O   0  0  0  0  0  0  0  0  0  0  0  0
   -6.7970   -0.1910    0.1520 C   0  0  0  0  0  0  0  0  0  0  0  0
   -8.0960   -0.0860   -0.2730 C   0  0  0  0  0  0  0  0  0  0  0  0
   -8.0160    0.9190   -1.7230 S   0  0  0  0  0  0  0  0  0  0  0  0
   -6.2030    1.1380   -1.6650 C   0  0  0  0  0  0  0  0  0  0  0  0
   -5.8520    0.4490   -0.5850 C   0  0  0  0  0  0  0  0  0  0  0  0
   -4.4490    0.3700   -0.1760 N   0  0  0  0  0  0  0  0  0  0  0  0
   -3.3970    0.9960   -0.8720 C   0  0  0  0  0  0  0  0  0  0  0  0
   -3.6140    1.6690   -1.9010 O   0  0  0  0  0  0  0  0  0  0  0  0
   -2.0380    0.8940   -0.4390 N   0  0  0  0  0  0  0  0  0  0  0  0
   -1.0330    1.5830   -1.2150 C   0  0  0  0  0  0  0  0  0  0  0  0
    0.0290    0.5340   -1.5710 C   0  0  0  0  0  0  0  0  0  0  0  0
    0.5800    0.1160   -0.3000 N   0  0  0  0  0  0  0  0  0  0  0  0
    1.9920   -0.0110   -0.1950 C   0  0  0  0  0  0  0  0  0  0  0  0
    2.6540    0.1320    0.9460 C   0  0  0  0  0  0  0  0  0  0  0  0
    4.0860    0.0060    1.0670 C   0  0  0  0  0  0  0  0  0  0  0  0
    4.6260    0.1570    2.1870 O   0  0  0  0  0  0  0  0  0  0  0  0
    4.9330   -0.2900   -0.0630 N   0  0  0  0  0  0  0  0  0  0  0  0
    6.3330   -0.3820    0.2210 C   0  0  0  0  0  0  0  0  0  0  0  0
    7.2490   -0.6780   -0.8660 C   0  0  0  0  0  0  0  0  0  0  0  0
    8.7330   -0.7590   -0.4850 C   0  0  0  0  0  0  0  0  0  0  0  0
    7.0120   -0.8890   -2.1330 C   0  0  0  0  0  0  0  0  0  0  0  0
    8.0590   -1.1600   -3.0140 F   0  0  0  0  0  0  0  0  0  0  0  0
    5.7720   -0.8560   -2.6400 F   0  0  0  0  0  0  0  0  0  0  0  0
    1.8550    0.4270    2.1120 N   0  0  0  0  0  0  0  0  0  0  0  0
    0.4490    0.5480    1.9970 C   0  0  0  0  0  0  0  0  0  0  0  0
   -0.1630    1.2330    2.8340 O   0  0  0  0  0  0  0  0  0  0  0  0
   -0.2180   -0.1690    0.8570 C   0  0  1  0  0  0  0  0  0  0  0  0
   -1.6550    0.1450    0.7160 C   0  0  0  0  0  0  0  0  0  0  0  0
  1  2  1  0
  2  3  1  0
  3  4  2  0
  3  7  1  0
  4  5  1  0
  5  6  1  0
  6  7  2  0
  7  8  1  0
  8  9  1  0
  9 10  2  0
  9 11  1  0
 11 12  1  0
 11 30  1  0
 12 13  1  0
 13 14  1  0
 14 15  1  0
 14 29  1  0
 15 16  2  0
 16 17  1  0
 16 26  1  0
 17 18  2  0
 17 19  1  0
 19 20  1  0
 20 21  1  0
 21 22  1  0
 21 23  2  3
 23 24  1  0
 23 25  1  0
 26 27  1  0
 27 28  2  0
 27 29  1  0
 29 30  1  6
M  END
