
     RDKit          3D

 30 33  0  0  0  0  0  0  0  0999 V2000
    2.9040    0.8750    0.4200 O   0  0  0  0  0  0  0  0  0  0  0  0
    2.2820   -0.2300    0.3300 C   0  0  0  0  0  0  0  0  0  0  0  0
    3.0640   -1.4190    0.3930 N   0  0  0  0  0  0  0  0  0  0  0  0
    4.4820   -1.4670    0.5510 C   0  0  0  0  0  0  0  0  0  0  0  0
    4.8990   -0.8160    1.8550 C   0  0  0  0  0  0  0  0  0  0  0  0
    6.4140   -0.8760    2.0210 C   0  0  0  0  0  0  0  0  0  0  0  0
    7.1120   -0.1800    0.9280 C   0  0  0  0  0  0  0  0  0  0  0  0
    7.4450   -0.9230   -0.1950 C   0  0  0  0  0  0  0  0  0  0  0  0
    8.0950   -0.2660   -1.2090 C   0  0  0  0  0  0  0  0  0  0  0  0
    8.4310    1.0660   -1.1770 C   0  0  0  0  0  0  0  0  0  0  0  0
    8.0780    1.7710   -0.0330 C   0  0  0  0  0  0  0  0  0  0  0  0
    7.4270    1.1440    0.9990 C   0  0  0  0  0  0  0  0  0  0  0  0
    0.8350   -0.2550    0.1690 C   0  0  0  0  0  0  0  0  0  0  0  0
    0.1810    0.9770    0.1520 C   0  0  0  0  0  0  0  0  0  0  0  0
   -1.2020    1.0140    0.0010 C   0  0  0  0  0  0  0  0  0  0  0  0
   -1.9570   -0.1030   -0.1340 C   0  0  0  0  0  0  0  0  0  0  0  0
   -3.3620   -0.1660   -0.2890 N   0  0  0  0  0  0  0  0  0  0  0  0
   -4.2730    0.9090   -0.2940 C   0  0  0  0  0  0  0  0  0  0  0  0
   -3.8450    2.0700   -0.1480 O   0  0  0  0  0  0  0  0  0  0  0  0
   -5.6910    0.6960   -0.4650 N   0  0  0  0  0  0  0  0  0  0  0  0
   -6.3210   -0.4790   -0.6350 C   0  0  0  0  0  0  0  0  0  0  0  0
   -7.6660   -0.1970   -0.7560 C   0  0  0  0  0  0  0  0  0  0  0  0
   -8.7980   -0.9550   -0.9440 C   0  0  0  0  0  0  0  0  0  0  0  0
  -10.0490   -0.3920   -1.0310 C   0  0  0  0  0  0  0  0  0  0  0  0
  -10.2050    0.9650   -0.9300 C   0  0  0  0  0  0  0  0  0  0  0  0
   -9.1030    1.7490   -0.7430 C   0  0  0  0  0  0  0  0  0  0  0  0
   -7.8440    1.1830   -0.6560 C   0  0  0  0  0  0  0  0  0  0  0  0
   -6.5770    1.7010   -0.4740 C   0  0  0  0  0  0  0  0  0  0  0  0
   -1.2990   -1.3370   -0.1170 C   0  0  0  0  0  0  0  0  0  0  0  0
    0.0680   -1.3690    0.0330 C   0  0  0  0  0  0  0  0  0  0  0  0
  1  2  2  0
  2  3  1  0
  2 13  1  0
  3  4  1  0
  4  5  1  0
  5  6  1  0
  6  7  1  0
  7  8  2  0
  7 12  1  0
  8  9  1  0
  9 10  2  0
 10 11  1  0
 11 12  2  0
 13 14  2  0
 13 30  1  0
 14 15  1  0
 15 16  2  0
 16 17  1  0
 16 29  1  0
 17 18  1  0
 18 19  2  0
 18 20  1  0
 20 21  1  0
 20 28  1  0
 21 22  2  0
 22 23  1  0
 22 27  1  0
 23 24  2  0
 24 25  1  0
 25 26  2  0
 26 27  1  0
 27 28  2  0
 29 30  2  0
M  END
