
     RDKit          3D

 30 33  0  0  0  0  0  0  0  0999 V2000
   -5.9620    3.1650    0.1730 C   0  0  0  0  0  0  0  0  0  0  0  0
   -5.1970    2.4970   -0.9130 C   0  0  0  0  0  0  0  0  0  0  0  0
   -4.0930    1.7690   -0.6780 C   0  0  0  0  0  0  0  0  0  0  0  0
   -3.3930    1.1390   -1.8020 C   0  0  0  0  0  0  0  0  0  0  0  0
   -1.9280    0.8950   -1.5090 C   0  0  0  0  0  0  0  0  0  0  0  0
   -1.8140    0.3260   -0.1310 C   0  0  1  0  0  0  0  0  0  0  0  0
   -2.7410   -0.8330    0.1110 C   0  0  0  0  0  0  0  0  0  0  0  0
   -2.5210   -2.0060   -0.8140 C   0  0  0  0  0  0  0  0  0  0  0  0
   -3.5460   -3.0770   -0.4300 C   0  0  2  0  0  0  0  0  0  0  0  0
   -4.9490   -2.6010   -0.5680 C   0  0  0  0  0  0  0  0  0  0  0  0
   -3.2040   -3.6420    0.9070 C   0  0  0  0  0  0  0  0  0  0  0  0
   -0.4360   -0.0750    0.2750 C   0  0  1  0  0  0  0  0  0  0  0  0
    0.6710    0.7560   -0.2180 C   0  0  2  0  0  0  0  0  0  0  0  0
    0.7670    0.8330   -1.6070 O   0  0  0  0  0  0  0  0  0  0  0  0
    2.0020    0.1860    0.2250 C   0  0  1  0  0  0  0  0  0  0  0  0
    2.2780   -1.1980   -0.2590 C   0  0  0  0  0  0  0  0  0  0  0  0
    3.5810   -1.6370    0.4310 C   0  0  0  0  0  0  0  0  0  0  0  0
    4.6800   -0.8460   -0.1770 C   0  0  1  0  0  0  0  0  0  0  0  0
    4.4620    0.6450   -0.1150 C   0  0  1  0  0  0  0  0  0  0  0  0
    5.4140    1.2320   -1.1640 C   0  0  0  0  0  0  0  0  0  0  0  0
    6.8210    0.9280   -0.7710 C   0  0  0  0  0  0  0  0  0  0  0  0
    7.0780   -0.5040   -0.4590 C   0  0  0  0  0  0  0  0  0  0  0  0
    6.0320   -1.1220    0.4390 C   0  0  1  0  0  0  0  0  0  0  0  0
    6.0640   -0.5200    1.7160 O   0  0  0  0  0  0  0  0  0  0  0  0
    3.0800    1.0720   -0.4340 C   0  0  0  0  0  0  0  0  0  0  0  0
   -0.5010   -0.0050    1.7830 C   0  0  0  0  0  0  0  0  0  0  0  0
   -1.7370    0.8270    2.1390 C   0  0  0  0  0  0  0  0  0  0  0  0
   -2.1960    1.4280    0.8320 C   0  0  1  0  0  0  0  0  0  0  0  0
   -1.5070    2.6130    0.5890 O   0  0  0  0  0  0  0  0  0  0  0  0
   -3.6660    1.6650    0.7560 C   0  0  0  0  0  0  0  0  0  0  0  0
  1  2  1  0
  2  3  2  3
  3  4  1  0
  3 30  1  0
  4  5  1  0
  5  6  1  0
  6  7  1  6
  6 12  1  0
  6 28  1  0
  7  8  1  0
  8  9  1  0
  9 10  1  1
  9 11  1  0
 12 13  1  0
 12 26  1  1
 13 14  1  6
 13 15  1  0
 15 16  1  6
 15 25  1  0
 16 17  1  0
 18 17  1  1
 18 19  1  0
 18 23  1  0
 19 20  1  6
 19 25  1  0
 20 21  1  0
 21 22  1  0
 22 23  1  0
 23 24  1  1
 26 27  1  0
 27 28  1  0
 28 29  1  6
 28 30  1  0
M  END
