
     RDKit          3D

 30 32  0  0  0  0  0  0  0  0999 V2000
   -2.8160   -3.4780   -0.0860 O   0  0  0  0  0  0  0  0  0  0  0  0
   -2.6000   -2.2010    0.0600 C   0  0  0  0  0  0  0  0  0  0  0  0
   -3.7300   -1.4740    0.5890 C   0  0  0  0  0  0  0  0  0  0  0  0
   -3.6860   -0.0620    0.7300 N   0  0  0  0  0  0  0  0  0  0  0  0
   -4.6970    0.6300    1.5310 C   0  0  0  0  0  0  0  0  0  0  0  0
   -4.7090    1.8990    1.2370 C   0  0  0  0  0  0  0  0  0  0  0  0
   -5.6050    2.9300    1.8470 C   0  0  0  0  0  0  0  0  0  0  0  0
   -6.3960    3.5310    0.8790 F   0  0  0  0  0  0  0  0  0  0  0  0
   -3.7280    2.2130    0.2320 C   0  0  0  0  0  0  0  0  0  0  0  0
   -3.5830    3.5450   -0.6430 S   0  0  0  0  0  0  0  0  0  0  0  0
   -2.8560    0.9770    0.1810 C   0  0  0  0  0  0  0  0  0  0  0  0
   -1.3200   -1.7810   -0.3180 N   0  0  0  0  0  0  0  0  0  0  0  0
   -0.2950   -2.5850   -0.8460 C   0  0  0  0  0  0  0  0  0  0  0  0
   -0.4890   -3.8080   -1.4120 C   0  0  0  0  0  0  0  0  0  0  0  0
    0.5520   -4.5520   -1.9980 C   0  0  0  0  0  0  0  0  0  0  0  0
    1.8190   -4.0330   -2.0040 C   0  0  0  0  0  0  0  0  0  0  0  0
    2.8500   -4.7240   -2.5630 F   0  0  0  0  0  0  0  0  0  0  0  0
    2.0340   -2.8010   -1.4370 C   0  0  0  0  0  0  0  0  0  0  0  0
    1.0200   -2.0780   -0.8660 C   0  0  0  0  0  0  0  0  0  0  0  0
    1.2470   -0.8450   -0.2350 N   0  0  0  0  0  0  0  0  0  0  0  0
    2.4890   -0.1740   -0.2840 C   0  0  0  0  0  0  0  0  0  0  0  0
    3.5160   -0.5560   -0.8650 O   0  0  0  0  0  0  0  0  0  0  0  0
    2.6040    1.1450    0.4350 C   0  0  0  0  0  0  0  0  0  0  0  0
    3.9210    1.7200    0.3230 N   0  0  0  0  0  0  0  0  0  0  0  0
    4.4090    2.5960   -0.6760 C   0  0  0  0  0  0  0  0  0  0  0  0
    3.8710    2.8620   -1.7880 O   0  0  0  0  0  0  0  0  0  0  0  0
    5.6880    3.1600   -0.1840 C   0  0  0  0  0  0  0  0  0  0  0  0
    6.0760    2.2030    0.8320 N   0  0  0  0  0  0  0  0  0  0  0  0
    4.9460    1.4640    1.2710 C   0  0  0  0  0  0  0  0  0  0  0  0
    4.9300    0.7530    2.2960 O   0  0  0  0  0  0  0  0  0  0  0  0
  1  2  2  0
  2  3  1  0
  2 12  1  0
  3  4  1  0
  4  5  1  0
  4 11  1  0
  5  6  2  0
  6  7  1  0
  6  9  1  0
  7  8  1  0
  9 10  2  0
  9 11  1  0
 12 13  1  0
 13 14  2  0
 13 19  1  0
 14 15  1  0
 15 16  2  0
 16 17  1  0
 16 18  1  0
 18 19  2  0
 19 20  1  0
 20 21  1  0
 21 22  2  0
 21 23  1  0
 23 24  1  0
 24 25  1  0
 24 29  1  0
 25 26  2  0
 25 27  1  0
 27 28  1  0
 28 29  1  0
 29 30  2  0
M  END
