
     RDKit          3D

 31 35  0  0  0  0  0  0  0  0999 V2000
   -5.2650   -1.3330   -0.1620 C   0  0  0  0  0  0  0  0  0  0  0  0
   -4.3240   -0.8400   -1.1500 C   0  0  0  0  0  0  0  0  0  0  0  0
   -4.4290   -0.9390   -2.5240 C   0  0  0  0  0  0  0  0  0  0  0  0
   -5.6970   -1.5370   -3.0280 C   0  0  0  0  0  0  0  0  0  0  0  0
   -6.6590   -1.9720   -3.4160 N   0  0  0  0  0  0  0  0  0  0  0  0
   -3.4590   -0.5620   -3.4230 C   0  0  0  0  0  0  0  0  0  0  0  0
   -2.2710   -0.0490   -2.9400 N   0  0  0  0  0  0  0  0  0  0  0  0
   -2.1380    0.0510   -1.6310 C   0  0  0  0  0  0  0  0  0  0  0  0
   -3.1030   -0.3090   -0.7200 C   0  0  0  0  0  0  0  0  0  0  0  0
   -3.1100   -0.2320    0.7270 C   0  0  0  0  0  0  0  0  0  0  0  0
   -4.1230    0.3070    1.3080 C   0  0  0  0  0  0  0  0  0  0  0  0
   -4.6100    0.5940    2.7060 C   0  0  0  0  0  0  0  0  0  0  0  0
   -6.0290    0.8680    2.1460 C   0  0  0  0  0  0  0  0  0  0  0  0
   -5.2270    1.2150    0.9050 C   0  0  0  0  0  0  0  0  0  0  0  0
   -1.8920   -0.6090    1.5130 C   0  0  0  0  0  0  0  0  0  0  0  0
   -2.1330   -1.0380    2.6230 O   0  0  0  0  0  0  0  0  0  0  0  0
   -0.5270   -0.4990    1.0660 N   0  0  0  0  0  0  0  0  0  0  0  0
   -0.0890    0.1310   -0.1550 C   0  0  0  0  0  0  0  0  0  0  0  0
    1.1750    0.5950   -0.3810 C   0  0  0  0  0  0  0  0  0  0  0  0
    2.2970    0.3850    0.6100 C   0  0  0  0  0  0  0  0  0  0  0  0
    3.4130    0.7300    0.2510 C   0  0  0  0  0  0  0  0  0  0  0  0
    4.7500    1.0810   -0.0350 C   0  0  0  0  0  0  0  0  0  0  0  0
    5.1610    1.6650   -1.1060 O   0  0  0  0  0  0  0  0  0  0  0  0
    5.8660    0.7670    0.9680 C   0  0  1  0  0  0  0  0  0  0  0  0
    5.8820   -0.6740    1.3220 C   0  0  0  0  0  0  0  0  0  0  0  0
    6.7870   -1.3500    0.3210 C   0  0  0  0  0  0  0  0  0  0  0  0
    7.8180   -0.2990   -0.0050 C   0  0  0  0  0  0  0  0  0  0  0  0
    7.1790    1.0460    0.2630 C   0  0  0  0  0  0  0  0  0  0  0  0
    1.2760    1.1710   -1.6010 N   0  0  0  0  0  0  0  0  0  0  0  0
    0.0410    1.0580   -2.1480 C   0  0  0  0  0  0  0  0  0  0  0  0
   -0.7730    0.4370   -1.2970 N   0  0  0  0  0  0  0  0  0  0  0  0
  1  2  1  0
  2  3  2  0
  2  9  1  0
  3  4  1  0
  3  6  1  0
  4  5  3  0
  6  7  2  0
  7  8  1  0
  8  9  2  0
  8 31  1  0
  9 10  1  0
 10 11  2  3
 10 15  1  0
 11 12  1  0
 11 14  1  0
 12 13  1  0
 13 14  1  0
 15 16  2  0
 15 17  1  0
 17 18  1  0
 18 19  2  0
 18 31  1  0
 19 20  1  0
 19 29  1  0
 20 21  2  3
 21 22  1  0
 22 23  2  0
 24 22  1  6
 24 25  1  0
 24 28  1  0
 25 26  1  0
 26 27  1  0
 27 28  1  0
 29 30  2  0
 30 31  1  0
M  END
