
     RDKit          3D

 31 34  0  0  0  0  0  0  0  0999 V2000
   -7.6400   -0.7230    0.7660 C   0  0  0  0  0  0  0  0  0  0  0  0
   -6.1370   -0.5660    1.0220 C   0  0  1  0  0  0  0  0  0  0  0  0
   -5.9370   -0.2520    2.4990 C   0  0  0  0  0  0  0  0  0  0  0  0
   -5.4830   -1.7600    0.7760 O   0  0  0  0  0  0  0  0  0  0  0  0
   -5.6900    0.5740    0.2230 C   0  0  0  0  0  0  0  0  0  0  0  0
   -6.2910    1.6800    0.4470 O   0  0  0  0  0  0  0  0  0  0  0  0
   -4.6720    0.5340   -0.7490 N   0  0  0  0  0  0  0  0  0  0  0  0
   -3.9740   -0.6680   -1.0380 C   0  0  0  0  0  0  0  0  0  0  0  0
   -2.9490   -0.5320   -2.1340 C   0  0  0  0  0  0  0  0  0  0  0  0
   -2.2080    0.7460   -2.1550 C   0  0  2  0  0  0  0  0  0  0  0  0
   -0.7900    0.5960   -1.6900 C   0  0  0  0  0  0  0  0  0  0  0  0
   -0.5230    0.1780   -0.4100 C   0  0  0  0  0  0  0  0  0  0  0  0
    0.7980    0.0350    0.0350 C   0  0  0  0  0  0  0  0  0  0  0  0
    1.8730    0.3020   -0.7760 C   0  0  0  0  0  0  0  0  0  0  0  0
    3.2360    0.1800   -0.4100 N   0  0  0  0  0  0  0  0  0  0  0  0
    3.7460   -0.2910    0.8050 C   0  0  0  0  0  0  0  0  0  0  0  0
    2.9950   -0.6620    1.7110 O   0  0  0  0  0  0  0  0  0  0  0  0
    5.1720   -0.3530    1.0250 N   0  0  0  0  0  0  0  0  0  0  0  0
    5.7880   -0.7820    2.1360 C   0  0  0  0  0  0  0  0  0  0  0  0
    7.1330   -0.6850    1.9530 C   0  0  0  0  0  0  0  0  0  0  0  0
    8.1690   -1.0060    2.8110 C   0  0  0  0  0  0  0  0  0  0  0  0
    9.4680   -0.8160    2.3910 C   0  0  0  0  0  0  0  0  0  0  0  0
    9.7130   -0.3110    1.1280 C   0  0  0  0  0  0  0  0  0  0  0  0
   10.9700   -0.1200    0.7010 F   0  0  0  0  0  0  0  0  0  0  0  0
    8.6680    0.0020    0.2880 C   0  0  0  0  0  0  0  0  0  0  0  0
    7.3470   -0.1840    0.6990 C   0  0  0  0  0  0  0  0  0  0  0  0
    6.1200    0.0130    0.1450 C   0  0  0  0  0  0  0  0  0  0  0  0
    1.5740    0.7270   -2.0750 C   0  0  0  0  0  0  0  0  0  0  0  0
    0.2760    0.8680   -2.5160 C   0  0  0  0  0  0  0  0  0  0  0  0
   -2.8110    1.8650   -1.3750 C   0  0  0  0  0  0  0  0  0  0  0  0
   -4.3300    1.7610   -1.4710 C   0  0  0  0  0  0  0  0  0  0  0  0
  2  1  1  1
  2  3  1  0
  2  4  1  0
  2  5  1  0
  5  6  2  0
  5  7  1  0
  7  8  1  0
  7 31  1  0
  8  9  1  0
  9 10  1  0
 10 11  1  1
 10 30  1  0
 11 12  2  0
 11 29  1  0
 12 13  1  0
 13 14  2  0
 14 15  1  0
 14 28  1  0
 15 16  1  0
 16 17  2  0
 16 18  1  0
 18 19  1  0
 18 27  1  0
 19 20  2  0
 20 21  1  0
 20 26  1  0
 21 22  2  0
 22 23  1  0
 23 24  1  0
 23 25  2  0
 25 26  1  0
 26 27  2  0
 28 29  2  0
 30 31  1  0
M  END
