
     RDKit          3D

 30 34  0  0  0  0  0  0  0  0999 V2000
   -7.8530    1.1890   -1.7670 C   0  0  0  0  0  0  0  0  0  0  0  0
   -6.8180    0.4750   -0.9240 C   0  0  0  0  0  0  0  0  0  0  0  0
   -6.0220    1.4730   -0.0890 C   0  0  0  0  0  0  0  0  0  0  0  0
   -5.0520    0.7370    0.6920 N   0  0  0  0  0  0  0  0  0  0  0  0
   -5.2060    0.2270    1.9190 N   0  0  0  0  0  0  0  0  0  0  0  0
   -4.1060   -0.3880    2.3330 C   0  0  0  0  0  0  0  0  0  0  0  0
   -3.8060   -1.0930    3.6030 C   0  0  0  0  0  0  0  0  0  0  0  0
   -3.1970   -0.2580    1.3010 C   0  0  0  0  0  0  0  0  0  0  0  0
   -1.8780   -0.6820    1.1230 C   0  0  0  0  0  0  0  0  0  0  0  0
   -1.3380   -1.3210    2.0520 O   0  0  0  0  0  0  0  0  0  0  0  0
   -1.1910   -0.4240   -0.0010 N   0  0  0  0  0  0  0  0  0  0  0  0
    0.1500   -0.8660   -0.1590 C   0  0  0  0  0  0  0  0  0  0  0  0
    0.4730   -2.1940   -0.3700 C   0  0  0  0  0  0  0  0  0  0  0  0
    1.7790   -2.6030   -0.5200 C   0  0  0  0  0  0  0  0  0  0  0  0
    2.8120   -1.6900   -0.4640 C   0  0  0  0  0  0  0  0  0  0  0  0
    4.1510   -1.8140   -0.5760 N   0  0  0  0  0  0  0  0  0  0  0  0
    4.7500   -0.6200   -0.4490 C   0  0  0  0  0  0  0  0  0  0  0  0
    6.0670   -0.2230   -0.4860 C   0  0  0  0  0  0  0  0  0  0  0  0
    7.1450   -1.2160   -0.7030 C   0  0  0  0  0  0  0  0  0  0  0  0
    6.3520    1.1240   -0.3150 C   0  0  0  0  0  0  0  0  0  0  0  0
    7.7890    1.5570   -0.3560 C   0  0  0  0  0  0  0  0  0  0  0  0
    5.3290    2.0210   -0.1160 C   0  0  0  0  0  0  0  0  0  0  0  0
    4.0300    1.6130   -0.0820 C   0  0  0  0  0  0  0  0  0  0  0  0
    3.7210    0.2920   -0.2470 C   0  0  0  0  0  0  0  0  0  0  0  0
    2.5100   -0.3640   -0.2550 C   0  0  0  0  0  0  0  0  0  0  0  0
    1.2070    0.0430   -0.1050 C   0  0  0  0  0  0  0  0  0  0  0  0
   -1.8210    0.2670   -0.9670 C   0  0  0  0  0  0  0  0  0  0  0  0
   -1.1610    0.5010   -2.0170 O   0  0  0  0  0  0  0  0  0  0  0  0
   -3.0930    0.6950   -0.8360 N   0  0  0  0  0  0  0  0  0  0  0  0
   -3.8060    0.4480    0.2860 C   0  0  0  0  0  0  0  0  0  0  0  0
  1  2  1  0
  2  3  1  0
  3  4  1  0
  4  5  1  0
  4 30  1  0
  5  6  2  0
  6  7  1  0
  6  8  1  0
  8  9  1  0
  8 30  2  0
  9 10  2  0
  9 11  1  0
 11 12  1  0
 11 27  1  0
 12 13  2  0
 12 26  1  0
 13 14  1  0
 14 15  2  0
 15 16  1  0
 15 25  1  0
 16 17  1  0
 17 18  2  0
 17 24  1  0
 18 19  1  0
 18 20  1  0
 20 21  1  0
 20 22  2  0
 22 23  1  0
 23 24  2  0
 24 25  1  0
 25 26  2  0
 27 28  2  0
 27 29  1  0
 29 30  1  0
M  END
