
     RDKit          3D

 31 35  0  0  0  0  0  0  0  0999 V2000
   -8.4270   -3.3910   -0.0550 C   0  0  0  0  0  0  0  0  0  0  0  0
   -7.4160   -2.2960   -0.0580 C   0  0  0  0  0  0  0  0  0  0  0  0
   -6.0610   -2.5630   -0.0500 C   0  0  0  0  0  0  0  0  0  0  0  0
   -5.1280   -1.5550   -0.0520 C   0  0  0  0  0  0  0  0  0  0  0  0
   -5.4990   -0.2270   -0.0620 C   0  0  0  0  0  0  0  0  0  0  0  0
   -4.5250    0.8480   -0.0640 C   0  0  0  0  0  0  0  0  0  0  0  0
   -4.9240    2.1420   -0.0730 N   0  0  0  0  0  0  0  0  0  0  0  0
   -4.0520    3.1540   -0.0760 C   0  0  0  0  0  0  0  0  0  0  0  0
   -4.5100    4.4880   -0.0860 N   0  0  0  0  0  0  0  0  0  0  0  0
   -2.6890    2.8440   -0.0670 C   0  0  0  0  0  0  0  0  0  0  0  0
   -2.2590    1.5410   -0.0570 C   0  0  0  0  0  0  0  0  0  0  0  0
   -0.8730    1.1090   -0.0480 C   0  0  0  0  0  0  0  0  0  0  0  0
    0.1160    2.0640   -0.0500 C   0  0  0  0  0  0  0  0  0  0  0  0
    1.4420    1.6100   -0.0410 C   0  0  0  0  0  0  0  0  0  0  0  0
    1.7770    0.2760   -0.0310 C   0  0  0  0  0  0  0  0  0  0  0  0
    3.0950   -0.1660   -0.0220 O   0  0  0  0  0  0  0  0  0  0  0  0
    4.1100    0.8180   -0.0230 C   0  0  0  0  0  0  0  0  0  0  0  0
    5.4620    0.1980   -0.0130 C   0  0  0  0  0  0  0  0  0  0  0  0
    6.0570   -0.0680    1.2010 C   0  0  0  0  0  0  0  0  0  0  0  0
    7.3080   -0.6410    1.2840 C   0  0  0  0  0  0  0  0  0  0  0  0
    8.0020   -0.9660    0.1280 C   0  0  0  0  0  0  0  0  0  0  0  0
    7.4090   -0.7000   -1.0810 C   0  0  0  0  0  0  0  0  0  0  0  0
    6.1390   -0.1190   -1.1680 C   0  0  0  0  0  0  0  0  0  0  0  0
    8.2950   -1.1120   -2.0590 O   0  0  0  0  0  0  0  0  0  0  0  0
    9.3100   -1.8980   -1.4800 C   0  0  0  0  0  0  0  0  0  0  0  0
    9.2810   -1.5530   -0.0630 N   0  0  0  0  0  0  0  0  0  0  0  0
    0.7340   -0.6260   -0.0300 C   0  0  0  0  0  0  0  0  0  0  0  0
   -0.5410   -0.2020   -0.0390 N   0  0  0  0  0  0  0  0  0  0  0  0
   -3.2280    0.5860   -0.0560 N   0  0  0  0  0  0  0  0  0  0  0  0
   -6.8690    0.0300   -0.0690 C   0  0  0  0  0  0  0  0  0  0  0  0
   -7.8110   -0.9760   -0.0670 C   0  0  0  0  0  0  0  0  0  0  0  0
  1  2  1  0
  2  3  2  0
  2 31  1  0
  3  4  1  0
  4  5  2  0
  5  6  1  0
  5 30  1  0
  6  7  2  0
  6 29  1  0
  7  8  1  0
  8  9  1  0
  8 10  2  0
 10 11  1  0
 11 12  1  0
 11 29  2  0
 12 13  2  0
 12 28  1  0
 13 14  1  0
 14 15  2  0
 15 16  1  0
 15 27  1  0
 16 17  1  0
 17 18  1  0
 18 19  2  0
 18 23  1  0
 19 20  1  0
 20 21  2  0
 21 22  1  0
 21 26  1  0
 22 23  2  0
 22 24  1  0
 24 25  1  0
 25 26  1  0
 27 28  2  0
 30 31  2  0
M  END
