
     RDKit          3D

 31 35  0  0  0  0  0  0  0  0999 V2000
   -4.8720   -2.9700    1.7560 C   0  0  0  0  0  0  0  0  0  0  0  0
   -5.0970   -1.7590    0.9350 C   0  0  0  0  0  0  0  0  0  0  0  0
   -4.1420   -1.2460    0.0660 C   0  0  0  0  0  0  0  0  0  0  0  0
   -4.3870   -0.1810   -0.7210 C   0  0  0  0  0  0  0  0  0  0  0  0
   -3.4480    0.2970   -1.7780 C   0  0  0  0  0  0  0  0  0  0  0  0
   -2.4840    1.1470   -1.1410 N   0  0  0  0  0  0  0  0  0  0  0  0
   -1.1360    1.1700   -0.8600 C   0  0  0  0  0  0  0  0  0  0  0  0
   -0.7180    2.3300   -0.1470 C   0  0  0  0  0  0  0  0  0  0  0  0
    0.5620    2.5150    0.2480 C   0  0  0  0  0  0  0  0  0  0  0  0
    1.4730    1.5380   -0.0610 C   0  0  0  0  0  0  0  0  0  0  0  0
    2.8220    1.4400    0.2220 C   0  0  0  0  0  0  0  0  0  0  0  0
    3.5590    2.5080    0.9450 C   0  0  0  0  0  0  0  0  0  0  0  0
    3.2580    0.2370   -0.3140 C   0  0  0  0  0  0  0  0  0  0  0  0
    4.6070   -0.2050   -0.1860 C   0  0  0  0  0  0  0  0  0  0  0  0
    5.2520    0.1710    0.8960 O   0  0  0  0  0  0  0  0  0  0  0  0
    5.4080   -1.0130   -1.0450 N   0  0  0  0  0  0  0  0  0  0  0  0
    6.7260   -1.2740   -0.5020 C   0  0  0  0  0  0  0  0  0  0  0  0
    6.8380   -2.4220    0.2830 C   0  0  0  0  0  0  0  0  0  0  0  0
    8.0340   -2.6680    0.9460 C   0  0  0  0  0  0  0  0  0  0  0  0
    9.0920   -1.7990    0.8380 C   0  0  0  0  0  0  0  0  0  0  0  0
    8.9580   -0.7060    0.0750 N   0  0  0  0  0  0  0  0  0  0  0  0
    7.7890   -0.4370   -0.5950 C   0  0  0  0  0  0  0  0  0  0  0  0
    2.1980   -0.3280   -0.8850 O   0  0  0  0  0  0  0  0  0  0  0  0
    1.1160    0.4110   -0.7490 C   0  0  0  0  0  0  0  0  0  0  0  0
   -0.1870    0.2800   -1.1210 N   0  0  0  0  0  0  0  0  0  0  0  0
   -5.6480    0.4210   -0.6530 C   0  0  0  0  0  0  0  0  0  0  0  0
   -6.6290   -0.0370    0.1890 C   0  0  0  0  0  0  0  0  0  0  0  0
   -6.3210   -1.1350    0.9750 C   0  0  0  0  0  0  0  0  0  0  0  0
   -7.7290    0.7190    0.0790 C   0  0  0  0  0  0  0  0  0  0  0  0
   -7.4330    1.7560   -0.9240 C   0  0  0  0  0  0  0  0  0  0  0  0
   -6.0650    1.4630   -1.2860 N   0  0  0  0  0  0  0  0  0  0  0  0
  1  2  1  0
  2  3  1  0
  2 28  2  0
  3  4  2  0
  4  5  1  0
  4 26  1  0
  5  6  1  0
  6  7  1  0
  7  8  2  0
  7 25  1  0
  8  9  1  0
  9 10  2  0
 10 11  1  0
 10 24  1  0
 11 12  1  0
 11 13  2  0
 13 14  1  0
 13 23  1  0
 14 15  2  0
 14 16  1  0
 16 17  1  0
 17 18  2  0
 17 22  1  0
 18 19  1  0
 19 20  2  0
 20 21  1  0
 21 22  2  0
 23 24  1  0
 24 25  2  0
 26 27  1  0
 26 31  2  0
 27 28  1  0
 27 29  2  0
 29 30  1  0
 30 31  1  0
M  END
