
     RDKit          3D

 31 33  0  0  0  0  0  0  0  0999 V2000
   -6.9580    2.5140   -2.0230 N   0  0  0  0  0  0  0  0  0  0  0  0
   -6.7610    1.4070   -1.1270 C   0  0  0  0  0  0  0  0  0  0  0  0
   -7.7150    0.7560   -0.6710 O   0  0  0  0  0  0  0  0  0  0  0  0
   -5.3980    1.0420   -0.7460 C   0  0  0  0  0  0  0  0  0  0  0  0
   -4.3300    1.6950   -1.3840 C   0  0  0  0  0  0  0  0  0  0  0  0
   -3.0340    1.3340   -1.0450 C   0  0  0  0  0  0  0  0  0  0  0  0
   -2.7440    0.3750   -0.1220 C   0  0  0  0  0  0  0  0  0  0  0  0
   -1.4260    0.0010    0.2130 N   0  0  0  0  0  0  0  0  0  0  0  0
   -0.2290    0.3910   -0.3860 C   0  0  0  0  0  0  0  0  0  0  0  0
   -0.2480    1.1720   -1.3600 O   0  0  0  0  0  0  0  0  0  0  0  0
    1.0570   -0.0510    0.0460 N   0  0  0  0  0  0  0  0  0  0  0  0
    2.2680    0.3780   -0.6020 C   0  0  0  0  0  0  0  0  0  0  0  0
    3.4730   -0.2180    0.0320 C   0  0  0  0  0  0  0  0  0  0  0  0
    3.2830   -0.9790    1.0000 O   0  0  0  0  0  0  0  0  0  0  0  0
    4.7820    0.0340   -0.4030 N   0  0  0  0  0  0  0  0  0  0  0  0
    5.9830   -0.4710    0.1110 C   0  0  0  0  0  0  0  0  0  0  0  0
    6.0420   -1.4910    1.0090 C   0  0  0  0  0  0  0  0  0  0  0  0
    7.2900   -1.9420    1.5060 C   0  0  0  0  0  0  0  0  0  0  0  0
    8.4690   -1.3680    1.0980 C   0  0  0  0  0  0  0  0  0  0  0  0
    8.4190   -0.3350    0.1890 C   0  0  0  0  0  0  0  0  0  0  0  0
    9.9410    0.3780   -0.3090 S   0  0  1  0  0  0  0  0  0  0  0  0
   10.7450   -0.5800   -1.1400 O   0  0  0  0  0  0  0  0  0  0  0  0
    9.6140    1.6250   -1.1040 O   0  0  0  0  0  0  0  0  0  0  0  0
    7.2140    0.0820   -0.2730 C   0  0  0  0  0  0  0  0  0  0  0  0
   -3.8360   -0.2380    0.4800 C   0  0  0  0  0  0  0  0  0  0  0  0
   -5.1520    0.0760    0.1880 C   0  0  0  0  0  0  0  0  0  0  0  0
   -6.2140   -0.5960    0.9260 C   0  0  0  0  0  0  0  0  0  0  0  0
   -6.4920   -1.9500    0.9750 C   0  0  0  0  0  0  0  0  0  0  0  0
   -7.5450   -2.0940    1.8440 C   0  0  0  0  0  0  0  0  0  0  0  0
   -7.9090   -0.8970    2.3150 N   0  0  0  0  0  0  0  0  0  0  0  0
   -7.1130    0.0180    1.7690 C   0  0  0  0  0  0  0  0  0  0  0  0
  1  2  1  0
  2  3  2  0
  2  4  1  0
  4  5  2  0
  4 26  1  0
  5  6  1  0
  6  7  2  0
  7  8  1  0
  7 25  1  0
  8  9  1  0
  9 10  2  0
  9 11  1  0
 11 12  1  0
 12 13  1  0
 13 14  2  0
 13 15  1  0
 15 16  1  0
 16 17  2  0
 16 24  1  0
 17 18  1  0
 18 19  2  0
 19 20  1  0
 21 20  1  6
 20 24  2  0
 21 22  2  0
 21 23  2  0
 25 26  2  0
 26 27  1  0
 27 28  1  0
 27 31  2  0
 28 29  2  0
 29 30  1  0
 30 31  1  0
M  END
