
     RDKit          3D

 31 35  0  0  0  0  0  0  0  0999 V2000
   -3.7560    3.7870    2.2180 C   0  0  0  0  0  0  0  0  0  0  0  0
   -3.6740    2.4790    1.4930 C   0  0  0  0  0  0  0  0  0  0  0  0
   -3.0320    1.4210    2.0700 C   0  0  0  0  0  0  0  0  0  0  0  0
   -2.9400    0.1730    1.4050 C   0  0  0  0  0  0  0  0  0  0  0  0
   -2.2510   -0.9220    2.1590 C   0  0  0  0  0  0  0  0  0  0  0  0
   -3.4770   -0.0470    0.1680 C   0  0  0  0  0  0  0  0  0  0  0  0
   -3.4480   -1.3260   -0.5010 C   0  0  0  0  0  0  0  0  0  0  0  0
   -4.3400   -1.4660   -1.4450 O   0  0  0  0  0  0  0  0  0  0  0  0
   -2.5800   -2.4620   -0.2880 C   0  0  0  0  0  0  0  0  0  0  0  0
   -2.9600   -3.7750    0.0480 C   0  0  0  0  0  0  0  0  0  0  0  0
   -1.8420   -4.4960    0.1130 N   0  0  0  0  0  0  0  0  0  0  0  0
   -0.7800   -3.7900   -0.1450 N   0  0  0  0  0  0  0  0  0  0  0  0
   -1.2040   -2.5440   -0.3930 C   0  0  0  0  0  0  0  0  0  0  0  0
   -0.1520   -1.5510   -0.7300 C   0  0  0  0  0  0  0  0  0  0  0  0
    0.7670   -2.1780   -1.6040 N   0  0  0  0  0  0  0  0  0  0  0  0
    1.4180   -1.3830   -2.5530 C   0  0  0  0  0  0  0  0  0  0  0  0
    2.2040   -0.3200   -1.8420 C   0  0  0  0  0  0  0  0  0  0  0  0
    3.4940   -0.4600   -1.4350 N   0  0  0  0  0  0  0  0  0  0  0  0
    3.8280    0.7090   -0.8450 C   0  0  0  0  0  0  0  0  0  0  0  0
    5.0120    1.0840   -0.2690 C   0  0  0  0  0  0  0  0  0  0  0  0
    5.1240    2.3650    0.2860 C   0  0  0  0  0  0  0  0  0  0  0  0
    6.4140    2.7380    0.8990 C   0  0  0  0  0  0  0  0  0  0  0  0
    4.0610    3.2410    0.2550 C   0  0  0  0  0  0  0  0  0  0  0  0
    2.8820    2.8390   -0.3290 C   0  0  0  0  0  0  0  0  0  0  0  0
    2.7500    1.5710   -0.8860 C   0  0  0  0  0  0  0  0  0  0  0  0
    1.7690    0.8980   -1.5090 N   0  0  0  0  0  0  0  0  0  0  0  0
    1.4120   -3.3460   -1.1520 C   0  0  0  0  0  0  0  0  0  0  0  0
    0.6240   -4.1810   -0.1830 C   0  0  0  0  0  0  0  0  0  0  0  0
   -4.1370    1.0520   -0.4180 C   0  0  0  0  0  0  0  0  0  0  0  0
   -4.7060    0.9590   -1.6430 O   0  0  0  0  0  0  0  0  0  0  0  0
   -4.2170    2.2850    0.2620 C   0  0  0  0  0  0  0  0  0  0  0  0
  1  2  1  0
  2  3  2  0
  2 31  1  0
  3  4  1  0
  4  5  1  0
  4  6  2  0
  6  7  1  0
  6 29  1  0
  7  8  2  0
  7  9  1  0
  9 10  1  0
  9 13  2  0
 10 11  2  0
 11 12  1  0
 12 13  1  0
 12 28  1  0
 13 14  1  0
 14 15  1  0
 15 16  1  0
 15 27  1  0
 16 17  1  0
 17 18  2  0
 17 26  1  0
 18 19  1  0
 19 20  2  0
 19 25  1  0
 20 21  1  0
 21 22  1  0
 21 23  2  0
 23 24  1  0
 24 25  2  0
 25 26  1  0
 27 28  1  0
 29 30  1  0
 29 31  2  0
M  END
