
     RDKit          3D

 23 25  0  0  0  0  0  0  0  0999 V2000
   -2.8110   -2.1570    1.3170 C   0  0  0  0  0  0  0  0  0  0  0  0
   -2.5210   -2.1400   -0.1330 C   0  0  0  0  0  0  0  0  0  0  0  0
   -2.1340   -0.8300   -0.7370 C   0  0  1  0  0  0  0  0  0  0  0  0
   -3.1620    0.2200   -0.6150 C   0  0  0  0  0  0  0  0  0  0  0  0
   -4.4560   -0.1330   -0.3640 C   0  0  0  0  0  0  0  0  0  0  0  0
   -5.4350    0.8500   -0.2360 C   0  0  0  0  0  0  0  0  0  0  0  0
   -5.1210    2.1860   -0.3590 C   0  0  0  0  0  0  0  0  0  0  0  0
   -3.8140    2.4930   -0.6100 C   0  0  0  0  0  0  0  0  0  0  0  0
   -2.8310    1.5470   -0.7410 C   0  0  0  0  0  0  0  0  0  0  0  0
   -0.8000   -0.3650   -0.2520 C   0  0  0  0  0  0  0  0  0  0  0  0
    0.3540   -0.6180   -0.9670 C   0  0  0  0  0  0  0  0  0  0  0  0
    0.3560   -1.3120   -2.1510 O   0  0  0  0  0  0  0  0  0  0  0  0
    1.5820   -0.1500   -0.4720 C   0  0  0  0  0  0  0  0  0  0  0  0
    1.6070    0.5460    0.7120 C   0  0  0  0  0  0  0  0  0  0  0  0
    0.4960    0.7720    1.3700 O   0  0  0  0  0  0  0  0  0  0  0  0
   -0.6610    0.3430    0.9240 C   0  0  0  0  0  0  0  0  0  0  0  0
   -1.7230    0.5740    1.5790 O   0  0  0  0  0  0  0  0  0  0  0  0
    2.6770    1.1920    1.5500 C   0  0  0  0  0  0  0  0  0  0  0  0
    3.8110    1.6420    0.6640 C   0  0  0  0  0  0  0  0  0  0  0  0
    4.9270    0.6300    0.6060 C   0  0  0  0  0  0  0  0  0  0  0  0
    4.9150   -0.0750   -0.7430 C   0  0  0  0  0  0  0  0  0  0  0  0
    3.8430   -1.1300   -0.7760 C   0  0  0  0  0  0  0  0  0  0  0  0
    2.5930   -0.5750   -1.4460 C   0  0  0  0  0  0  0  0  0  0  0  0
  1  2  1  0
  3  2  1  1
  3  4  1  0
  3 10  1  0
  4  5  2  0
  4  9  1  0
  5  6  1  0
  6  7  2  0
  7  8  1  0
  8  9  2  0
 10 11  2  0
 10 16  1  0
 11 12  1  0
 11 13  1  0
 13 14  2  0
 13 23  1  0
 14 15  1  0
 14 18  1  0
 15 16  1  0
 16 17  2  0
 18 19  1  0
 19 20  1  0
 20 21  1  0
 21 22  1  0
 22 23  1  0
M  END
