
     RDKit          3D

 23 25  0  0  0  0  0  0  0  0999 V2000
   -4.1830   -1.5530    0.5500 C   0  0  0  0  0  0  0  0  0  0  0  0
   -3.3080   -0.3760    0.5340 C   0  0  0  0  0  0  0  0  0  0  0  0
   -3.4830    0.7230    1.3310 C   0  0  0  0  0  0  0  0  0  0  0  0
   -2.6360    1.8000    1.2740 C   0  0  0  0  0  0  0  0  0  0  0  0
   -1.5900    1.7760    0.4040 C   0  0  0  0  0  0  0  0  0  0  0  0
   -1.3800    0.6610   -0.4290 C   0  0  0  0  0  0  0  0  0  0  0  0
   -0.1510    0.7320   -1.1860 C   0  0  0  0  0  0  0  0  0  0  0  0
    0.0630    1.4140   -2.2060 O   0  0  0  0  0  0  0  0  0  0  0  0
    0.9940   -0.0910   -0.6800 C   0  0  0  0  0  0  0  0  0  0  0  0
    2.1920    0.0100   -1.5740 C   0  0  0  0  0  0  0  0  0  0  0  0
    3.2900   -0.8350   -1.0000 C   0  0  2  0  0  0  0  0  0  0  0  0
    3.6670   -0.3620    0.4080 C   0  0  0  0  0  0  0  0  0  0  0  0
    5.0960   -0.8010    0.6400 C   0  0  0  0  0  0  0  0  0  0  0  0
    5.9550    0.1160   -0.2360 C   0  0  0  0  0  0  0  0  0  0  0  0
    5.2020    0.3520   -1.5500 C   0  0  0  0  0  0  0  0  0  0  0  0
    4.4100   -0.7550   -1.8180 O   0  0  0  0  0  0  0  0  0  0  0  0
   -2.1990   -0.3940   -0.3880 C   0  0  0  0  0  0  0  0  0  0  0  0
   -2.1070   -1.6040   -1.2080 C   0  0  1  0  0  0  0  0  0  0  0  0
   -1.3930   -1.4520   -2.4930 C   0  0  0  0  0  0  0  0  0  0  0  0
   -1.5260   -2.6720   -0.4940 O   0  0  0  0  0  0  0  0  0  0  0  0
   -3.1350    2.8020    2.2710 C   0  0  0  0  0  0  0  0  0  0  0  0
   -3.7360    1.8810    3.3070 C   0  0  0  0  0  0  0  0  0  0  0  0
   -4.5530    0.9770    2.3670 C   0  0  0  0  0  0  0  0  0  0  0  0
  1  2  1  0
  2  3  2  0
  2 17  1  0
  3  4  1  0
  3 23  1  0
  4  5  2  0
  4 21  1  0
  5  6  1  0
  6  7  1  0
  6 17  2  0
  7  8  2  0
  7  9  1  0
  9 10  1  0
 11 10  1  6
 11 12  1  0
 11 16  1  0
 12 13  1  0
 13 14  1  0
 14 15  1  0
 15 16  1  0
 17 18  1  0
 18 19  1  6
 18 20  1  0
 21 22  1  0
 22 23  1  0
M  END
