
     RDKit          3D

 23 25  0  0  0  0  0  0  0  0999 V2000
    5.2290    0.8740    1.7450 C   0  0  0  0  0  0  0  0  0  0  0  0
    4.0960    0.5530    0.8650 C   0  0  0  0  0  0  0  0  0  0  0  0
    2.8390    0.2800    1.3660 C   0  0  0  0  0  0  0  0  0  0  0  0
    1.8010   -0.0180    0.4780 C   0  0  0  0  0  0  0  0  0  0  0  0
    1.9860   -0.0500   -0.8810 C   0  0  0  0  0  0  0  0  0  0  0  0
    0.8490   -0.3800   -1.7780 C   0  0  2  0  0  0  0  0  0  0  0  0
    0.8250    0.6160   -2.7650 O   0  0  0  0  0  0  0  0  0  0  0  0
   -0.4570   -0.4260   -1.1270 C   0  0  0  0  0  0  0  0  0  0  0  0
   -1.3590    0.6300   -1.2040 C   0  0  0  0  0  0  0  0  0  0  0  0
   -2.5960    0.6180   -0.5920 C   0  0  0  0  0  0  0  0  0  0  0  0
   -2.9280   -0.5110    0.1260 C   0  0  0  0  0  0  0  0  0  0  0  0
   -2.0330   -1.5710    0.2090 C   0  0  0  0  0  0  0  0  0  0  0  0
   -0.7990   -1.5510   -0.4070 C   0  0  0  0  0  0  0  0  0  0  0  0
    0.0560   -2.7490   -0.2480 C   0  0  0  0  0  0  0  0  0  0  0  0
   -4.2380   -0.5910    0.8060 C   0  0  0  0  0  0  0  0  0  0  0  0
   -5.2530    0.3510    0.2050 C   0  0  1  0  0  0  0  0  0  0  0  0
   -6.4390    0.5430    1.1600 C   0  0  0  0  0  0  0  0  0  0  0  0
   -4.7360    1.6300   -0.0340 O   0  0  0  0  0  0  0  0  0  0  0  0
   -3.5190    1.7390   -0.6870 C   0  0  0  0  0  0  0  0  0  0  0  0
   -3.1890    2.7560   -1.3500 O   0  0  0  0  0  0  0  0  0  0  0  0
    3.2510    0.2260   -1.3770 C   0  0  0  0  0  0  0  0  0  0  0  0
    4.2820    0.5220   -0.5050 C   0  0  0  0  0  0  0  0  0  0  0  0
    5.6340    0.8160   -1.0260 C   0  0  0  0  0  0  0  0  0  0  0  0
  1  2  1  0
  2  3  2  0
  2 22  1  0
  3  4  1  0
  4  5  2  0
  5  6  1  0
  5 21  1  0
  6  7  1  6
  6  8  1  0
  8  9  2  0
  8 13  1  0
  9 10  1  0
 10 11  2  0
 10 19  1  0
 11 12  1  0
 11 15  1  0
 12 13  2  0
 13 14  1  0
 15 16  1  0
 16 17  1  1
 16 18  1  0
 18 19  1  0
 19 20  2  0
 21 22  2  0
 22 23  1  0
M  END
