
     RDKit          3D

 23 25  0  0  0  0  0  0  0  0999 V2000
    5.8280   -0.4920   -0.6980 C   0  0  0  0  0  0  0  0  0  0  0  0
    4.4160   -0.3390   -0.2220 C   0  0  0  0  0  0  0  0  0  0  0  0
    3.3620   -0.9570   -0.8470 C   0  0  0  0  0  0  0  0  0  0  0  0
    2.0630   -0.8220   -0.4150 C   0  0  0  0  0  0  0  0  0  0  0  0
    1.7640   -0.0460    0.6810 C   0  0  0  0  0  0  0  0  0  0  0  0
    2.8370    0.5710    1.3010 C   0  0  0  0  0  0  0  0  0  0  0  0
    4.1340    0.4400    0.8750 C   0  0  0  0  0  0  0  0  0  0  0  0
    5.2600    1.1220    1.5700 C   0  0  0  0  0  0  0  0  0  0  0  0
    0.3940    0.0740    1.1290 C   0  0  1  0  0  0  0  0  0  0  0  0
    0.1420    1.2410    2.0530 C   0  0  0  0  0  0  0  0  0  0  0  0
   -1.3130    1.1080    2.4010 C   0  0  0  0  0  0  0  0  0  0  0  0
   -1.6900    1.0010    3.5970 O   0  0  0  0  0  0  0  0  0  0  0  0
   -2.1710    1.1150    1.3280 O   0  0  0  0  0  0  0  0  0  0  0  0
   -1.7780    0.5880    0.0780 C   0  0  0  0  0  0  0  0  0  0  0  0
   -2.7560    0.6370   -1.0020 C   0  0  0  0  0  0  0  0  0  0  0  0
   -4.0040   -0.1800   -0.7040 C   0  0  1  0  0  0  0  0  0  0  0  0
   -4.9490   -0.0600   -1.8820 C   0  0  0  0  0  0  0  0  0  0  0  0
   -3.7330   -1.6290   -0.4750 C   0  0  0  0  0  0  0  0  0  0  0  0
   -4.6980    0.3830    0.4970 C   0  0  0  0  0  0  0  0  0  0  0  0
   -0.5580    0.0970    0.0030 C   0  0  0  0  0  0  0  0  0  0  0  0
   -0.1180   -0.4840   -1.2530 C   0  0  0  0  0  0  0  0  0  0  0  0
   -0.6230   -0.1140   -2.3140 O   0  0  0  0  0  0  0  0  0  0  0  0
    0.9570   -1.5270   -1.1740 C   0  0  0  0  0  0  0  0  0  0  0  0
  1  2  1  0
  2  3  2  0
  2  7  1  0
  3  4  1  0
  4  5  2  0
  4 23  1  0
  5  6  1  0
  5  9  1  0
  6  7  2  0
  7  8  1  0
  9 10  1  6
  9 20  1  0
 10 11  1  0
 11 12  2  0
 11 13  1  0
 13 14  1  0
 14 15  1  0
 14 20  2  0
 15 16  1  0
 16 17  1  6
 16 18  1  0
 16 19  1  0
 20 21  1  0
 21 22  2  0
 21 23  1  0
M  END
