
     RDKit          3D

 23 25  0  0  0  0  0  0  0  0999 V2000
   -2.9780   -1.5900    2.0390 C   0  0  0  0  0  0  0  0  0  0  0  0
   -2.8410   -0.4170    1.1370 C   0  0  0  0  0  0  0  0  0  0  0  0
   -2.1930   -0.4760   -0.0900 C   0  0  0  0  0  0  0  0  0  0  0  0
   -2.0800    0.6310   -0.9070 C   0  0  0  0  0  0  0  0  0  0  0  0
   -1.3910    0.5050   -2.1790 C   0  0  1  0  0  0  0  0  0  0  0  0
   -2.1590    1.1590   -3.1550 O   0  0  0  0  0  0  0  0  0  0  0  0
    0.0090    1.0060   -2.2230 C   0  0  2  0  0  0  0  0  0  0  0  0
    0.5170    0.7650   -3.6550 C   0  0  0  0  0  0  0  0  0  0  0  0
    0.9350    0.2460   -1.3480 C   0  0  0  0  0  0  0  0  0  0  0  0
    1.7560    0.9610   -0.4940 C   0  0  0  0  0  0  0  0  0  0  0  0
    2.6380    0.3220    0.3460 C   0  0  0  0  0  0  0  0  0  0  0  0
    2.7000   -1.0510    0.3320 C   0  0  0  0  0  0  0  0  0  0  0  0
    3.6510   -1.7460    1.2360 C   0  0  2  0  0  0  0  0  0  0  0  0
    3.3600   -1.4130    2.6710 C   0  0  0  0  0  0  0  0  0  0  0  0
    5.0850   -1.3500    0.9470 C   0  0  0  0  0  0  0  0  0  0  0  0
    1.8760   -1.7510   -0.5240 C   0  0  0  0  0  0  0  0  0  0  0  0
    0.9880   -1.1410   -1.3710 C   0  0  0  0  0  0  0  0  0  0  0  0
   -2.6490    1.8000   -0.4330 C   0  0  0  0  0  0  0  0  0  0  0  0
   -3.2990    1.8940    0.7790 C   0  0  0  0  0  0  0  0  0  0  0  0
   -3.3910    0.7740    1.5650 C   0  0  0  0  0  0  0  0  0  0  0  0
   -4.0860    1.1470    2.7140 O   0  0  0  0  0  0  0  0  0  0  0  0
   -4.7060    2.4050    2.5090 C   0  0  0  0  0  0  0  0  0  0  0  0
   -3.9310    2.9330    1.4480 O   0  0  0  0  0  0  0  0  0  0  0  0
  1  2  1  0
  2  3  2  0
  2 20  1  0
  3  4  1  0
  4  5  1  0
  4 18  2  0
  5  6  1  6
  5  7  1  0
  7  8  1  6
  7  9  1  0
  9 10  2  0
  9 17  1  0
 10 11  1  0
 11 12  2  0
 12 13  1  0
 12 16  1  0
 13 14  1  1
 13 15  1  0
 16 17  2  0
 18 19  1  0
 19 20  2  0
 19 23  1  0
 20 21  1  0
 21 22  1  0
 22 23  1  0
M  END
