
     RDKit          3D

 23 25  0  0  0  0  0  0  0  0999 V2000
   -3.9690    2.4410   -1.2430 C   0  0  0  0  0  0  0  0  0  0  0  0
   -4.5870    1.1010   -1.0630 C   0  0  0  0  0  0  0  0  0  0  0  0
   -5.8950    0.9260   -1.4850 O   0  0  0  0  0  0  0  0  0  0  0  0
   -3.8720    0.1400   -0.5130 C   0  0  0  0  0  0  0  0  0  0  0  0
   -4.4000   -1.1930   -0.3020 C   0  0  0  0  0  0  0  0  0  0  0  0
   -5.3120   -1.6240   -1.0740 O   0  0  0  0  0  0  0  0  0  0  0  0
   -3.9350   -2.1010    0.7740 C   0  0  0  0  0  0  0  0  0  0  0  0
   -2.5620   -1.7260    1.2780 C   0  0  0  0  0  0  0  0  0  0  0  0
   -2.3720   -0.2280    1.2850 C   0  0  0  0  0  0  0  0  0  0  0  0
   -2.4660    0.3820   -0.0760 C   0  0  1  0  0  0  0  0  0  0  0  0
   -1.5470   -0.2650   -1.1110 C   0  0  0  0  0  0  0  0  0  0  0  0
   -0.2660   -0.1490   -0.9330 O   0  0  0  0  0  0  0  0  0  0  0  0
    0.9250   -0.2610   -0.3740 C   0  0  0  0  0  0  0  0  0  0  0  0
    1.1070   -0.9150    0.8290 C   0  0  0  0  0  0  0  0  0  0  0  0
    2.3640   -1.0030    1.3690 C   0  0  0  0  0  0  0  0  0  0  0  0
    3.4520   -0.4490    0.7330 C   0  0  0  0  0  0  0  0  0  0  0  0
    4.7170   -0.5360    1.2740 C   0  0  0  0  0  0  0  0  0  0  0  0
    5.8520   -0.0080    0.6980 C   0  0  0  0  0  0  0  0  0  0  0  0
    5.6710    0.6480   -0.5090 C   0  0  0  0  0  0  0  0  0  0  0  0
    6.8530    1.2350   -1.1740 C   0  0  0  0  0  0  0  0  0  0  0  0
    4.4360    0.7670   -1.0970 C   0  0  0  0  0  0  0  0  0  0  0  0
    3.3250    0.2170   -0.4740 C   0  0  0  0  0  0  0  0  0  0  0  0
    2.0710    0.2940   -0.9960 C   0  0  0  0  0  0  0  0  0  0  0  0
  1  2  1  0
  2  3  1  0
  2  4  2  3
  4  5  1  0
  4 10  1  0
  5  6  2  0
  5  7  1  0
  7  8  1  0
  8  9  1  0
  9 10  1  0
 10 11  1  6
 11 12  1  0
 12 13  1  0
 13 14  2  0
 13 23  1  0
 14 15  1  0
 15 16  2  0
 16 17  1  0
 16 22  1  0
 17 18  2  0
 18 19  1  0
 19 20  1  0
 19 21  2  0
 21 22  1  0
 22 23  2  0
M  END
