
     RDKit          3D

 42 47  0  0  0  0  0  0  0  0999 V2000
  -10.6670    1.9960   -0.7170 C   0  0  0  0  0  0  0  0  0  0  0  0
   -9.8910    0.8480   -0.9270 O   0  0  0  0  0  0  0  0  0  0  0  0
   -8.9850    1.0520   -1.9600 C   0  0  2  0  0  0  0  0  0  0  0  0
   -9.2630    0.0990   -3.0990 C   0  0  0  0  0  0  0  0  0  0  0  0
   -7.6000    0.8420   -1.4690 C   0  0  0  0  0  0  0  0  0  0  0  0
   -7.1310    1.3350   -0.3120 N   0  0  0  0  0  0  0  0  0  0  0  0
   -5.8390    0.9570   -0.1760 C   0  0  0  0  0  0  0  0  0  0  0  0
   -4.8880    1.1840    0.8140 C   0  0  0  0  0  0  0  0  0  0  0  0
   -3.6250    0.6680    0.6910 C   0  0  0  0  0  0  0  0  0  0  0  0
   -2.5640    0.8850    1.7100 C   0  0  0  0  0  0  0  0  0  0  0  0
   -1.4780    0.0130    1.5730 O   0  0  0  0  0  0  0  0  0  0  0  0
   -1.6520   -1.3490    1.7060 C   0  0  0  0  0  0  0  0  0  0  0  0
   -2.8830   -1.8710    1.9890 C   0  0  0  0  0  0  0  0  0  0  0  0
   -3.0970   -3.2210    2.1300 C   0  0  0  0  0  0  0  0  0  0  0  0
   -2.0400   -4.0620    1.9820 C   0  0  0  0  0  0  0  0  0  0  0  0
   -2.1950   -5.8110    2.1410 Cl  0  0  0  0  0  0  0  0  0  0  0  0
   -0.7950   -3.5400    1.6970 C   0  0  0  0  0  0  0  0  0  0  0  0
   -0.5470   -2.2130    1.5500 C   0  0  0  0  0  0  0  0  0  0  0  0
    0.6790   -1.5950    1.2600 N   0  0  0  0  0  0  0  0  0  0  0  0
    1.9180   -2.2520    1.0660 C   0  0  0  0  0  0  0  0  0  0  0  0
    1.9800   -3.4880    1.1480 O   0  0  0  0  0  0  0  0  0  0  0  0
    3.1330   -1.4580    0.7640 C   0  0  0  0  0  0  0  0  0  0  0  0
    3.0220   -0.2250    0.6910 O   0  0  0  0  0  0  0  0  0  0  0  0
    4.3860   -2.0610    0.5630 N   0  0  0  0  0  0  0  0  0  0  0  0
    5.5960   -1.3590    0.2700 C   0  0  0  0  0  0  0  0  0  0  0  0
    5.8800   -0.0730    0.1130 C   0  0  0  0  0  0  0  0  0  0  0  0
    7.1460    0.3150   -0.1640 C   0  0  0  0  0  0  0  0  0  0  0  0
    7.6500    1.6190   -0.3650 C   0  0  0  0  0  0  0  0  0  0  0  0
    6.5780    3.0240   -0.2670 Cl  0  0  0  0  0  0  0  0  0  0  0  0
    8.9610    1.8650   -0.6400 C   0  0  0  0  0  0  0  0  0  0  0  0
    9.3920    3.1930   -0.8280 C   0  0  0  0  0  0  0  0  0  0  0  0
   10.7030    3.4570   -1.1040 C   0  0  0  0  0  0  0  0  0  0  0  0
   11.6350    2.4610   -1.2080 C   0  0  0  0  0  0  0  0  0  0  0  0
   11.1930    1.1650   -1.0200 C   0  0  0  0  0  0  0  0  0  0  0  0
    9.8910    0.8560   -0.7420 C   0  0  0  0  0  0  0  0  0  0  0  0
    9.4350   -0.4510   -0.5510 C   0  0  0  0  0  0  0  0  0  0  0  0
    8.0940   -0.6590   -0.2730 C   0  0  0  0  0  0  0  0  0  0  0  0
    7.1690   -2.1510    0.0250 S   0  0  0  0  0  0  0  0  0  0  0  0
   -3.3360   -0.0810   -0.4450 C   0  0  0  0  0  0  0  0  0  0  0  0
   -4.2820   -0.3030   -1.4210 C   0  0  0  0  0  0  0  0  0  0  0  0
   -5.5580    0.2170   -1.2990 C   0  0  0  0  0  0  0  0  0  0  0  0
   -6.6410    0.1720   -2.0500 O   0  0  0  0  0  0  0  0  0  0  0  0
  1  2  1  0
  2  3  1  0
  3  4  1  6
  3  5  1  0
  5  6  2  0
  5 42  1  0
  6  7  1  0
  7  8  2  0
  7 41  1  0
  8  9  1  0
  9 10  1  0
  9 39  2  0
 10 11  1  0
 11 12  1  0
 12 13  2  0
 12 18  1  0
 13 14  1  0
 14 15  2  0
 15 16  1  0
 15 17  1  0
 17 18  2  0
 18 19  1  0
 19 20  1  0
 20 21  2  0
 20 22  1  0
 22 23  2  0
 22 24  1  0
 24 25  1  0
 25 26  2  0
 25 38  1  0
 26 27  1  0
 27 28  2  0
 27 37  1  0
 28 29  1  0
 28 30  1  0
 30 31  2  0
 30 35  1  0
 31 32  1  0
 32 33  2  0
 33 34  1  0
 34 35  2  0
 35 36  1  0
 36 37  2  0
 37 38  1  0
 39 40  1  0
 40 41  2  0
 41 42  1  0
M  END
