
     RDKit          3D

 42 47  0  0  0  0  0  0  0  0999 V2000
    9.0220   -3.0680    1.2820 C   0  0  0  0  0  0  0  0  0  0  0  0
    8.4670   -2.2670    0.2090 N   0  0  0  0  0  0  0  0  0  0  0  0
    7.3810   -1.3550    0.4330 C   0  0  0  0  0  0  0  0  0  0  0  0
    6.9690   -1.3160    1.6120 O   0  0  0  0  0  0  0  0  0  0  0  0
    6.8850   -0.6000   -0.6730 C   0  0  0  0  0  0  0  0  0  0  0  0
    5.9160    0.2700   -0.6550 C   0  0  0  0  0  0  0  0  0  0  0  0
    5.1150    0.6660    0.5170 C   0  0  0  0  0  0  0  0  0  0  0  0
    3.7280    0.3670    0.2750 O   0  0  0  0  0  0  0  0  0  0  0  0
    3.3050   -0.9110    0.0260 C   0  0  0  0  0  0  0  0  0  0  0  0
    4.1570   -1.8340    0.0080 O   0  0  0  0  0  0  0  0  0  0  0  0
    1.9070   -1.2620   -0.2220 C   0  0  0  0  0  0  0  0  0  0  0  0
    1.5410   -2.5860   -0.4640 C   0  0  0  0  0  0  0  0  0  0  0  0
    0.2410   -2.9480   -0.6940 C   0  0  0  0  0  0  0  0  0  0  0  0
   -0.3550   -4.1620   -0.9510 C   0  0  0  0  0  0  0  0  0  0  0  0
   -1.6640   -3.8980   -1.0930 N   0  0  0  0  0  0  0  0  0  0  0  0
   -1.9010   -2.5840   -0.9350 N   0  0  0  0  0  0  0  0  0  0  0  0
   -3.1960   -2.0030   -1.0250 C   0  0  0  0  0  0  0  0  0  0  0  0
   -3.6210   -1.2990   -2.1160 C   0  0  0  0  0  0  0  0  0  0  0  0
   -4.8840   -0.7700   -2.1290 C   0  0  0  0  0  0  0  0  0  0  0  0
   -5.7190   -0.9520   -1.0420 C   0  0  0  0  0  0  0  0  0  0  0  0
   -7.3500   -0.2670   -1.0600 Cl  0  0  0  0  0  0  0  0  0  0  0  0
   -5.3260   -1.6510    0.0640 C   0  0  0  0  0  0  0  0  0  0  0  0
   -6.2700   -1.8150    1.1960 C   0  0  0  0  0  0  0  0  0  0  0  0
   -7.3270   -2.8560    0.8990 C   0  0  0  0  0  0  0  0  0  0  0  0
   -8.4130   -2.9670    2.3470 S   0  0  0  0  0  0  0  0  0  0  0  0
   -4.0460   -2.1690    0.0420 C   0  0  0  0  0  0  0  0  0  0  0  0
   -0.7300   -1.9710   -0.6870 C   0  0  0  0  0  0  0  0  0  0  0  0
   -0.4220   -0.6540   -0.4550 C   0  0  0  0  0  0  0  0  0  0  0  0
   -1.1370    0.5220   -0.3840 C   0  0  0  0  0  0  0  0  0  0  0  0
   -0.2360    1.5400   -0.1140 C   0  0  0  0  0  0  0  0  0  0  0  0
   -0.5700    2.9500    0.0420 C   0  0  0  0  0  0  0  0  0  0  0  0
    0.3440    3.9660    0.3130 C   0  0  0  0  0  0  0  0  0  0  0  0
   -0.3700    5.1430    0.3830 C   0  0  0  0  0  0  0  0  0  0  0  0
   -0.0100    6.4320    0.6170 C   0  0  0  0  0  0  0  0  0  0  0  0
   -0.9490    7.4410    0.6320 C   0  0  0  0  0  0  0  0  0  0  0  0
   -2.2640    7.0890    0.4010 C   0  0  0  0  0  0  0  0  0  0  0  0
   -2.6370    5.7810    0.1620 C   0  0  0  0  0  0  0  0  0  0  0  0
   -4.3180    5.3870   -0.1250 Cl  0  0  0  0  0  0  0  0  0  0  0  0
   -1.6790    4.8080    0.1550 C   0  0  0  0  0  0  0  0  0  0  0  0
   -1.7470    3.4970   -0.0420 O   0  0  0  0  0  0  0  0  0  0  0  0
    0.9570    0.9960   -0.0280 O   0  0  0  0  0  0  0  0  0  0  0  0
    0.9100   -0.3000   -0.2210 C   0  0  0  0  0  0  0  0  0  0  0  0
  1  2  1  0
  2  3  1  0
  3  4  2  0
  3  5  1  0
  5  6  2  3
  6  7  1  0
  7  8  1  0
  8  9  1  0
  9 10  2  0
  9 11  1  0
 11 12  2  0
 11 42  1  0
 12 13  1  0
 13 14  1  0
 13 27  2  0
 14 15  2  0
 15 16  1  0
 16 17  1  0
 16 27  1  0
 17 18  2  0
 17 26  1  0
 18 19  1  0
 19 20  2  0
 20 21  1  0
 20 22  1  0
 22 23  1  0
 22 26  2  0
 23 24  1  0
 24 25  1  0
 27 28  1  0
 28 29  1  0
 28 42  2  0
 29 30  2  0
 30 31  1  0
 30 41  1  0
 31 32  2  0
 31 40  1  0
 32 33  1  0
 33 34  2  0
 33 39  1  0
 34 35  1  0
 35 36  2  0
 36 37  1  0
 37 38  1  0
 37 39  2  0
 39 40  1  0
 41 42  1  0
M  END
