
     RDKit          3D

 42 46  0  0  0  0  0  0  0  0999 V2000
   -3.5560    8.1640   -2.4600 C   0  0  0  0  0  0  0  0  0  0  0  0
   -3.8180    7.0920   -3.3810 C   0  0  0  0  0  0  0  0  0  0  0  0
   -3.7190    5.7700   -2.6820 C   0  0  0  0  0  0  0  0  0  0  0  0
   -3.2090    5.8950   -0.9800 Cl  0  0  0  0  0  0  0  0  0  0  0  0
   -3.9330    4.6660   -3.3040 C   0  0  0  0  0  0  0  0  0  0  0  0
   -3.7280    3.4300   -2.5000 C   0  0  0  0  0  0  0  0  0  0  0  0
   -2.1980    3.1980   -3.2990 C   0  0  0  0  0  0  0  0  0  0  0  0
   -1.5720    2.1680   -2.9130 C   0  0  0  0  0  0  0  0  0  0  0  0
   -1.8020    1.1270   -1.9660 C   0  0  0  0  0  0  0  0  0  0  0  0
   -0.9370    0.2700   -1.7910 O   0  0  0  0  0  0  0  0  0  0  0  0
   -0.4120   -0.3460   -0.4720 C   0  0  0  0  0  0  0  0  0  0  0  0
   -0.9090    0.0860    0.4230 O   0  0  0  0  0  0  0  0  0  0  0  0
    0.5680   -1.2220   -0.8780 O   0  0  0  0  0  0  0  0  0  0  0  0
    1.3690   -1.7580    0.0910 C   0  0  0  0  0  0  0  0  0  0  0  0
    1.3440   -2.4190    1.2090 C   0  0  0  0  0  0  0  0  0  0  0  0
    2.4440   -2.7440    2.0580 C   0  0  0  0  0  0  0  0  0  0  0  0
    3.7250   -2.2870    1.6610 C   0  0  0  0  0  0  0  0  0  0  0  0
    4.9360   -2.3590    2.2270 N   0  0  0  0  0  0  0  0  0  0  0  0
    5.8660   -1.7790    1.4500 C   0  0  0  0  0  0  0  0  0  0  0  0
    7.2730   -1.5480    1.6830 C   0  0  0  0  0  0  0  0  0  0  0  0
    8.3700   -1.2370    1.1140 C   0  0  0  0  0  0  0  0  0  0  0  0
    9.4420   -1.1250    1.7810 C   0  0  0  0  0  0  0  0  0  0  0  0
    8.9790   -1.4250    3.1450 C   0  0  0  0  0  0  0  0  0  0  0  0
    7.6780   -1.6760    3.0630 O   0  0  0  0  0  0  0  0  0  0  0  0
    5.1650   -1.3190    0.3630 C   0  0  0  0  0  0  0  0  0  0  0  0
    5.7330   -0.6040   -0.8460 C   0  0  0  0  0  0  0  0  0  0  0  0
    3.7900   -1.6180    0.4840 C   0  0  0  0  0  0  0  0  0  0  0  0
    2.7550   -1.3390   -0.2800 C   0  0  0  0  0  0  0  0  0  0  0  0
   -3.1390    1.2800   -1.2500 C   0  0  0  0  0  0  0  0  0  0  0  0
   -3.8290    0.4000   -0.5410 C   0  0  0  0  0  0  0  0  0  0  0  0
   -4.8930    0.7350    0.1310 O   0  0  0  0  0  0  0  0  0  0  0  0
   -3.6430   -1.0430   -0.3170 N   0  0  0  0  0  0  0  0  0  0  0  0
   -4.6140   -1.6920    0.4830 C   0  0  0  0  0  0  0  0  0  0  0  0
   -6.2830   -1.1080    0.9880 S   0  0  0  0  0  0  0  0  0  0  0  0
   -6.6390   -2.5200    2.2010 C   0  0  0  0  0  0  0  0  0  0  0  0
   -8.0950   -2.6770    3.0410 Cl  0  0  0  0  0  0  0  0  0  0  0  0
   -5.4450   -3.1650    1.9900 C   0  0  0  0  0  0  0  0  0  0  0  0
   -5.3740   -4.5490    2.8360 C   0  0  0  0  0  0  0  0  0  0  0  0
   -4.5260   -2.8460    1.2860 C   0  0  0  0  0  0  0  0  0  0  0  0
   -2.9720   -3.4950    1.4170 C   0  0  0  0  0  0  0  0  0  0  0  0
   -2.0040   -3.9100    1.4880 N   0  0  0  0  0  0  0  0  0  0  0  0
   -3.5670    2.5370   -1.9280 C   0  0  0  0  0  0  0  0  0  0  0  0
  1  2  2  0
  2  3  1  0
  3  4  1  0
  3  5  2  3
  5  6  1  0
  6  7  2  0
  6 42  1  0
  7  8  1  0
  8  9  2  0
  9 10  1  0
  9 29  1  0
 10 11  1  0
 11 12  2  0
 11 13  1  0
 13 14  1  0
 14 15  2  0
 14 28  1  0
 15 16  1  0
 16 17  2  0
 17 18  1  0
 17 27  1  0
 18 19  1  0
 19 20  1  0
 19 25  2  0
 20 21  2  0
 20 24  1  0
 21 22  1  0
 22 23  2  0
 23 24  1  0
 25 26  1  0
 25 27  1  0
 27 28  2  0
 29 30  1  0
 29 42  2  0
 30 31  2  0
 30 32  1  0
 32 33  1  0
 33 34  1  0
 33 39  2  0
 34 35  1  0
 35 36  1  0
 35 37  2  0
 37 38  1  0
 37 39  1  0
 39 40  1  0
 40 41  3  0
M  END
