
     RDKit          3D

 42 47  0  0  0  0  0  0  0  0999 V2000
    6.5920    1.0820    2.0970 C   0  0  0  0  0  0  0  0  0  0  0  0
    6.2060    0.3740    0.9600 O   0  0  0  0  0  0  0  0  0  0  0  0
    6.9710   -0.4430    0.1660 C   0  0  0  0  0  0  0  0  0  0  0  0
    8.3090   -0.6830    0.4140 C   0  0  0  0  0  0  0  0  0  0  0  0
    9.0480   -1.5050   -0.3970 C   0  0  0  0  0  0  0  0  0  0  0  0
    8.5070   -2.1380   -1.4980 C   0  0  0  0  0  0  0  0  0  0  0  0
    7.1800   -1.8960   -1.7390 C   0  0  0  0  0  0  0  0  0  0  0  0
    6.3930   -1.0610   -0.9310 C   0  0  0  0  0  0  0  0  0  0  0  0
    4.9940   -0.8720   -1.2800 C   0  0  0  0  0  0  0  0  0  0  0  0
    4.0530   -0.1290   -0.6600 C   0  0  0  0  0  0  0  0  0  0  0  0
    2.8650   -0.2770   -1.3860 C   0  0  0  0  0  0  0  0  0  0  0  0
    1.5990    0.3420   -1.0840 C   0  0  0  0  0  0  0  0  0  0  0  0
    0.5130    0.1160   -1.8890 C   0  0  0  0  0  0  0  0  0  0  0  0
   -0.7200    0.7160   -1.5940 C   0  0  0  0  0  0  0  0  0  0  0  0
   -0.8540    1.5340   -0.4960 C   0  0  0  0  0  0  0  0  0  0  0  0
   -2.3790    2.2850   -0.1110 S   0  0  2  0  0  0  0  0  0  0  0  0
   -3.1430    2.6340   -1.3350 O   0  0  0  0  0  0  0  0  0  0  0  0
   -2.0300    3.5850    0.6140 O   0  0  0  0  0  0  0  0  0  0  0  0
   -3.3670    1.3260    0.9170 N   0  0  0  0  0  0  0  0  0  0  0  0
   -3.8750    0.0480    0.6180 C   0  0  0  0  0  0  0  0  0  0  0  0
   -5.0840   -0.1140    0.0010 C   0  0  0  0  0  0  0  0  0  0  0  0
   -5.9290    1.0200   -0.3590 C   0  0  0  0  0  0  0  0  0  0  0  0
   -6.0640    1.4230   -1.6700 C   0  0  0  0  0  0  0  0  0  0  0  0
   -6.8630    2.4900   -2.0490 C   0  0  0  0  0  0  0  0  0  0  0  0
   -7.5660    3.1990   -1.0910 C   0  0  0  0  0  0  0  0  0  0  0  0
   -7.4430    2.8110    0.2200 C   0  0  0  0  0  0  0  0  0  0  0  0
   -6.6330    1.7300    0.5880 C   0  0  0  0  0  0  0  0  0  0  0  0
   -6.5080    1.2450    2.2680 Cl  0  0  0  0  0  0  0  0  0  0  0  0
   -5.5230   -1.4180   -0.2760 C   0  0  0  0  0  0  0  0  0  0  0  0
   -4.7640   -2.5100    0.0620 C   0  0  0  0  0  0  0  0  0  0  0  0
   -5.3270   -4.1520   -0.2910 Cl  0  0  0  0  0  0  0  0  0  0  0  0
   -3.5410   -2.3730    0.6860 C   0  0  0  0  0  0  0  0  0  0  0  0
   -2.7710   -3.4760    1.0350 C   0  0  0  0  0  0  0  0  0  0  0  0
   -1.5550   -3.2930    1.6640 C   0  0  0  0  0  0  0  0  0  0  0  0
   -1.1530   -2.0010    1.9230 C   0  0  0  0  0  0  0  0  0  0  0  0
   -0.0390   -1.8290    2.5000 O   0  0  0  0  0  0  0  0  0  0  0  0
   -1.9360   -0.9400    1.5660 N   0  0  0  0  0  0  0  0  0  0  0  0
   -3.1260   -1.0920    0.9500 C   0  0  0  0  0  0  0  0  0  0  0  0
    0.2510    1.7590    0.3180 C   0  0  0  0  0  0  0  0  0  0  0  0
    1.4810    1.1560    0.0150 C   0  0  0  0  0  0  0  0  0  0  0  0
    3.1750   -1.0990   -2.3940 N   0  0  0  0  0  0  0  0  0  0  0  0
    4.4110   -1.4290   -2.3120 O   0  0  0  0  0  0  0  0  0  0  0  0
  1  2  1  0
  2  3  1  0
  3  4  2  0
  3  8  1  0
  4  5  1  0
  5  6  2  0
  6  7  1  0
  7  8  2  0
  8  9  1  0
  9 10  2  0
  9 42  1  0
 10 11  1  0
 11 12  1  0
 11 41  2  0
 12 13  2  0
 12 40  1  0
 13 14  1  0
 14 15  2  0
 15 16  1  0
 15 39  1  0
 16 17  2  0
 16 18  2  0
 16 19  1  1
 19 20  1  0
 20 21  1  0
 20 38  2  0
 21 22  1  0
 21 29  2  0
 22 23  2  0
 22 27  1  0
 23 24  1  0
 24 25  2  0
 25 26  1  0
 26 27  2  0
 27 28  1  0
 29 30  1  0
 30 31  1  0
 30 32  2  0
 32 33  1  0
 32 38  1  0
 33 34  2  0
 34 35  1  0
 35 36  2  0
 35 37  1  0
 37 38  1  0
 39 40  2  0
 41 42  1  0
M  END
