
     RDKit          3D

 42 47  0  0  0  0  0  0  0  0999 V2000
   11.7390    0.0120   -2.4250 C   0  0  0  0  0  0  0  0  0  0  0  0
   10.3660   -0.2170   -1.9230 C   0  0  0  0  0  0  0  0  0  0  0  0
    9.4210   -0.1140   -2.6860 O   0  0  0  0  0  0  0  0  0  0  0  0
   10.1980   -0.5700   -0.4810 C   0  0  0  0  0  0  0  0  0  0  0  0
    8.7550   -0.7670   -0.1500 C   0  0  0  0  0  0  0  0  0  0  0  0
    8.2490   -2.0390    0.0040 C   0  0  0  0  0  0  0  0  0  0  0  0
    6.9200   -2.2520    0.3050 C   0  0  0  0  0  0  0  0  0  0  0  0
    6.0510   -1.1710    0.4600 C   0  0  0  0  0  0  0  0  0  0  0  0
    6.5420    0.1060    0.3090 C   0  0  0  0  0  0  0  0  0  0  0  0
    7.8870    0.2870    0.0060 C   0  0  0  0  0  0  0  0  0  0  0  0
    8.4710    1.9210   -0.1780 Cl  0  0  0  0  0  0  0  0  0  0  0  0
    5.6740    1.1620    0.4640 O   0  0  0  0  0  0  0  0  0  0  0  0
    4.3360    0.9040    0.7680 C   0  0  0  0  0  0  0  0  0  0  0  0
    3.4480    1.9410    0.9280 C   0  0  0  0  0  0  0  0  0  0  0  0
    2.0950    1.7100    1.2340 C   0  0  0  0  0  0  0  0  0  0  0  0
    1.6020    0.4450    1.3860 C   0  0  0  0  0  0  0  0  0  0  0  0
    0.2580    0.1560    1.7070 N   0  0  0  0  0  0  0  0  0  0  0  0
   -0.7070    1.0520    2.1450 C   0  0  0  0  0  0  0  0  0  0  0  0
   -0.4390    2.2650    2.3060 O   0  0  0  0  0  0  0  0  0  0  0  0
   -2.1020    0.6240    2.4470 C   0  0  0  0  0  0  0  0  0  0  0  0
   -3.0830    0.6370    1.4790 C   0  0  0  0  0  0  0  0  0  0  0  0
   -4.3750    0.2560    1.7070 C   0  0  0  0  0  0  0  0  0  0  0  0
   -5.4070    0.2740    0.6760 C   0  0  0  0  0  0  0  0  0  0  0  0
   -6.6200   -0.0910    0.9080 N   0  0  0  0  0  0  0  0  0  0  0  0
   -7.6140   -0.0710   -0.0880 C   0  0  0  0  0  0  0  0  0  0  0  0
   -7.8100    1.0130   -0.8480 N   0  0  0  0  0  0  0  0  0  0  0  0
   -8.7030    1.1620   -1.8110 C   0  0  0  0  0  0  0  0  0  0  0  0
   -8.6970    2.3010   -2.3980 O   0  0  0  0  0  0  0  0  0  0  0  0
   -9.6260    0.2580   -2.2540 C   0  0  0  0  0  0  0  0  0  0  0  0
  -10.4950    0.6060   -3.2970 C   0  0  0  0  0  0  0  0  0  0  0  0
  -11.4400   -0.2790   -3.7730 C   0  0  0  0  0  0  0  0  0  0  0  0
  -11.5670   -1.5460   -3.2380 C   0  0  0  0  0  0  0  0  0  0  0  0
  -10.7010   -1.8730   -2.2080 C   0  0  0  0  0  0  0  0  0  0  0  0
   -9.7590   -1.0020   -1.7280 C   0  0  0  0  0  0  0  0  0  0  0  0
   -8.6670   -1.3570   -0.4620 S   0  0  0  0  0  0  0  0  0  0  0  0
   -4.7330   -0.1680    2.9730 C   0  0  0  0  0  0  0  0  0  0  0  0
   -3.7640   -0.1930    3.9780 C   0  0  0  0  0  0  0  0  0  0  0  0
   -2.4710    0.2000    3.7050 C   0  0  0  0  0  0  0  0  0  0  0  0
   -1.3070    0.1450    5.0100 Cl  0  0  0  0  0  0  0  0  0  0  0  0
    2.5160   -0.6110    1.2200 C   0  0  0  0  0  0  0  0  0  0  0  0
    3.8360   -0.3790    0.9210 C   0  0  0  0  0  0  0  0  0  0  0  0
    4.7300   -1.4530    0.7610 O   0  0  0  0  0  0  0  0  0  0  0  0
  1  2  1  0
  2  3  2  0
  2  4  1  0
  4  5  1  0
  5  6  2  0
  5 10  1  0
  6  7  1  0
  7  8  2  0
  8  9  1  0
  8 42  1  0
  9 10  2  0
  9 12  1  0
 10 11  1  0
 12 13  1  0
 13 14  2  0
 13 41  1  0
 14 15  1  0
 15 16  2  0
 16 17  1  0
 16 40  1  0
 17 18  1  0
 18 19  2  0
 18 20  1  0
 20 21  2  0
 20 38  1  0
 21 22  1  0
 22 23  1  0
 22 36  2  0
 23 24  2  3
 24 25  1  0
 25 26  2  0
 25 35  1  0
 26 27  1  0
 27 28  2  0
 27 29  1  0
 29 30  2  0
 29 34  1  0
 30 31  1  0
 31 32  2  0
 32 33  1  0
 33 34  2  0
 34 35  1  0
 36 37  1  0
 37 38  2  0
 38 39  1  0
 40 41  2  0
 41 42  1  0
M  END
