
     RDKit          3D

 42 47  0  0  0  0  0  0  0  0999 V2000
   -7.9460    3.3960    0.4860 C   0  0  0  0  0  0  0  0  0  0  0  0
   -7.9470    2.0170   -0.0600 C   0  0  0  0  0  0  0  0  0  0  0  0
   -9.0330    1.4980   -0.3580 O   0  0  0  0  0  0  0  0  0  0  0  0
   -6.6920    1.2440   -0.2610 C   0  0  0  0  0  0  0  0  0  0  0  0
   -6.8650    0.0290   -0.7600 C   0  0  0  0  0  0  0  0  0  0  0  0
   -8.4340   -0.5890   -1.1390 Cl  0  0  0  0  0  0  0  0  0  0  0  0
   -5.6450   -0.7810   -0.9300 C   0  0  0  0  0  0  0  0  0  0  0  0
   -5.6230   -1.9640   -1.5140 C   0  0  0  0  0  0  0  0  0  0  0  0
   -4.4180   -2.8560   -1.7040 C   0  0  0  0  0  0  0  0  0  0  0  0
   -5.0880   -4.2230   -1.5650 C   0  0  0  0  0  0  0  0  0  0  0  0
   -4.6010   -5.2360   -0.9380 N   0  0  0  0  0  0  0  0  0  0  0  0
   -6.3060   -4.1030   -2.2580 N   0  0  0  0  0  0  0  0  0  0  0  0
   -6.6530   -2.6920   -2.2370 C   0  0  0  0  0  0  0  0  0  0  0  0
   -7.6910   -2.2610   -2.7860 O   0  0  0  0  0  0  0  0  0  0  0  0
   -4.3640   -0.1510   -0.5230 C   0  0  0  0  0  0  0  0  0  0  0  0
   -2.6630   -0.7700   -0.5680 S   0  0  0  0  0  0  0  0  0  0  0  0
   -1.9340    0.7330    0.1090 C   0  0  0  0  0  0  0  0  0  0  0  0
   -0.5150    0.9130    0.3450 C   0  0  0  0  0  0  0  0  0  0  0  0
    0.2300   -0.0430    0.0520 O   0  0  0  0  0  0  0  0  0  0  0  0
    0.0440    2.0890    0.8760 N   0  0  0  0  0  0  0  0  0  0  0  0
    1.3950    2.3650    1.1390 C   0  0  0  0  0  0  0  0  0  0  0  0
    2.4390    1.5060    0.9050 C   0  0  0  0  0  0  0  0  0  0  0  0
    3.7770    1.8390    1.1850 C   0  0  0  0  0  0  0  0  0  0  0  0
    4.7630    0.9230    0.9220 O   0  0  0  0  0  0  0  0  0  0  0  0
    4.4670   -0.3070    0.3910 C   0  0  0  0  0  0  0  0  0  0  0  0
    5.5090   -1.2780    0.1130 C   0  0  0  0  0  0  0  0  0  0  0  0
    6.7810   -1.0820    0.3330 C   0  0  0  0  0  0  0  0  0  0  0  0
    7.3280    0.1290    0.8830 C   0  0  0  0  0  0  0  0  0  0  0  0
    8.6330    0.2650    1.0830 C   0  0  0  0  0  0  0  0  0  0  0  0
    9.6270   -0.7660    0.7760 C   0  0  0  0  0  0  0  0  0  0  0  0
    9.0080   -1.9670    0.2210 C   0  0  0  0  0  0  0  0  0  0  0  0
    7.7300   -2.1600    0.0020 C   0  0  0  0  0  0  0  0  0  0  0  0
    7.2640   -3.3630   -0.5360 O   0  0  0  0  0  0  0  0  0  0  0  0
    5.9150   -3.5480   -0.7600 C   0  0  0  0  0  0  0  0  0  0  0  0
    5.0820   -2.5870   -0.4640 C   0  0  0  0  0  0  0  0  0  0  0  0
    4.0900    3.0700    1.7180 C   0  0  0  0  0  0  0  0  0  0  0  0
    3.0520    3.9260    1.9510 C   0  0  0  0  0  0  0  0  0  0  0  0
    1.7330    3.6030    1.6770 C   0  0  0  0  0  0  0  0  0  0  0  0
    0.4350    4.7340    1.9950 Cl  0  0  0  0  0  0  0  0  0  0  0  0
   -2.9900    1.5350    0.3010 C   0  0  0  0  0  0  0  0  0  0  0  0
   -4.2290    1.0950   -0.0170 C   0  0  0  0  0  0  0  0  0  0  0  0
   -5.4820    1.9060    0.1260 C   0  0  0  0  0  0  0  0  0  0  0  0
  1  2  1  0
  2  3  2  0
  2  4  1  0
  4  5  2  0
  4 42  1  0
  5  6  1  0
  5  7  1  0
  7  8  2  3
  7 15  1  0
  8  9  1  0
  8 13  1  0
  9 10  1  0
 10 11  2  0
 10 12  1  0
 12 13  1  0
 13 14  2  0
 15 16  1  0
 15 41  2  0
 16 17  1  0
 17 18  1  0
 17 40  2  0
 18 19  2  0
 18 20  1  0
 20 21  1  0
 21 22  2  0
 21 38  1  0
 22 23  1  0
 23 24  1  0
 23 36  2  0
 24 25  1  0
 25 26  1  0
 26 27  2  0
 26 35  1  0
 27 28  1  0
 27 32  1  0
 28 29  2  0
 29 30  1  0
 30 31  1  0
 31 32  2  0
 32 33  1  0
 33 34  1  0
 34 35  2  0
 36 37  1  0
 37 38  2  0
 38 39  1  0
 40 41  1  0
 41 42  1  0
M  END
