
     RDKit          3D

 42 47  0  0  0  0  0  0  0  0999 V2000
   -9.6580    1.5490    0.8430 C   0  0  0  0  0  0  0  0  0  0  0  0
   -8.4930    0.6230    0.6730 C   0  0  0  0  0  0  0  0  0  0  0  0
   -7.3010    1.1630    0.2260 C   0  0  0  0  0  0  0  0  0  0  0  0
   -6.2720    0.3330    0.0780 N   0  0  0  0  0  0  0  0  0  0  0  0
   -6.2750   -0.9830    0.3180 C   0  0  0  0  0  0  0  0  0  0  0  0
   -5.1770   -1.7610    0.1300 C   0  0  0  0  0  0  0  0  0  0  0  0
   -3.8960   -1.2400   -0.3220 C   0  0  0  0  0  0  0  0  0  0  0  0
   -3.0210   -2.1210   -0.7160 O   0  0  0  0  0  0  0  0  0  0  0  0
   -3.4680    0.0800   -0.3930 N   0  0  0  0  0  0  0  0  0  0  0  0
   -2.2400    0.6000   -0.8270 C   0  0  0  0  0  0  0  0  0  0  0  0
   -1.1910   -0.1870   -1.2220 C   0  0  0  0  0  0  0  0  0  0  0  0
    0.0370    0.3630   -1.6460 C   0  0  0  0  0  0  0  0  0  0  0  0
    1.3050   -0.7770   -2.1400 S   0  0  0  0  0  0  0  0  0  0  0  0
    2.3290   -1.3030   -0.7810 C   0  0  0  0  0  0  0  0  0  0  0  0
    3.1860   -0.2300   -0.2390 C   0  0  0  0  0  0  0  0  0  0  0  0
    3.2180    0.9300   -0.7200 O   0  0  0  0  0  0  0  0  0  0  0  0
    4.0350   -0.4860    0.8880 N   0  0  0  0  0  0  0  0  0  0  0  0
    4.8670    0.5240    1.4150 C   0  0  0  0  0  0  0  0  0  0  0  0
    4.4700    1.4240    2.3750 C   0  0  0  0  0  0  0  0  0  0  0  0
    2.8490    1.3510    2.9900 Cl  0  0  0  0  0  0  0  0  0  0  0  0
    5.3090    2.3940    2.8770 C   0  0  0  0  0  0  0  0  0  0  0  0
    4.7260    3.5170    4.1150 Cl  0  0  0  0  0  0  0  0  0  0  0  0
    6.5980    2.5020    2.4300 C   0  0  0  0  0  0  0  0  0  0  0  0
    7.0390    1.5990    1.4490 C   0  0  0  0  0  0  0  0  0  0  0  0
    6.1740    0.6420    0.9690 C   0  0  0  0  0  0  0  0  0  0  0  0
    6.7190   -0.2620   -0.0410 C   0  0  0  0  0  0  0  0  0  0  0  0
    7.9410   -0.1530   -0.4440 C   0  0  0  0  0  0  0  0  0  0  0  0
    8.8920    0.8490    0.0420 C   0  0  0  0  0  0  0  0  0  0  0  0
    8.3280    1.6930    0.9890 O   0  0  0  0  0  0  0  0  0  0  0  0
    8.3910   -1.0530   -1.4140 O   0  0  0  0  0  0  0  0  0  0  0  0
    7.8190   -2.3210   -1.5300 C   0  0  0  0  0  0  0  0  0  0  0  0
    6.3880   -2.4230   -1.1190 C   0  0  0  0  0  0  0  0  0  0  0  0
    5.8700   -1.2390   -0.5460 O   0  0  0  0  0  0  0  0  0  0  0  0
    0.1920    1.7200   -1.6660 C   0  0  0  0  0  0  0  0  0  0  0  0
   -0.8670    2.5320   -1.2680 C   0  0  0  0  0  0  0  0  0  0  0  0
   -2.0530    1.9930   -0.8590 C   0  0  0  0  0  0  0  0  0  0  0  0
   -3.1740    2.8520   -0.4420 C   0  0  0  0  0  0  0  0  0  0  0  0
   -5.3180   -3.1260    0.4090 C   0  0  0  0  0  0  0  0  0  0  0  0
   -6.4820   -3.6930    0.8510 C   0  0  0  0  0  0  0  0  0  0  0  0
   -7.5820   -2.8850    1.0350 C   0  0  0  0  0  0  0  0  0  0  0  0
   -7.4920   -1.5230    0.7720 C   0  0  0  0  0  0  0  0  0  0  0  0
   -8.5800   -0.7160    0.9420 C   0  0  0  0  0  0  0  0  0  0  0  0
  1  2  1  0
  2  3  2  0
  2 42  1  0
  3  4  1  0
  4  5  2  0
  5  6  1  0
  5 41  1  0
  6  7  1  0
  6 38  2  0
  7  8  2  0
  7  9  1  0
  9 10  1  0
 10 11  2  0
 10 36  1  0
 11 12  1  0
 12 13  1  0
 12 34  2  0
 13 14  1  0
 14 15  1  0
 15 16  2  0
 15 17  1  0
 17 18  1  0
 18 19  2  0
 18 25  1  0
 19 20  1  0
 19 21  1  0
 21 22  1  0
 21 23  2  0
 23 24  1  0
 24 25  2  0
 24 29  1  0
 25 26  1  0
 26 27  2  0
 26 33  1  0
 27 28  1  0
 27 30  1  0
 28 29  1  0
 30 31  1  0
 31 32  1  0
 32 33  1  0
 34 35  1  0
 35 36  2  0
 36 37  1  0
 38 39  1  0
 39 40  2  0
 40 41  1  0
 41 42  2  0
M  END
