
     RDKit          3D

 23 25  0  0  0  0  0  0  0  0999 V2000
   -4.8520    2.4270    0.1530 C   0  0  0  0  0  0  0  0  0  0  0  0
   -3.8400    1.3750   -0.0250 C   0  0  0  0  0  0  0  0  0  0  0  0
   -2.6900    1.6350   -0.7350 C   0  0  0  0  0  0  0  0  0  0  0  0
   -1.7280    0.6370   -0.9050 C   0  0  0  0  0  0  0  0  0  0  0  0
   -1.9180   -0.6230   -0.3630 C   0  0  0  0  0  0  0  0  0  0  0  0
   -0.8530   -1.6180   -0.5890 C   0  0  1  0  0  0  0  0  0  0  0  0
   -0.9390   -2.3460   -1.8820 C   0  0  0  0  0  0  0  0  0  0  0  0
    0.4170   -0.9830   -0.3520 N   0  0  0  0  0  0  0  0  0  0  0  0
    1.5220   -1.8650   -0.2620 C   0  0  0  0  0  0  0  0  0  0  0  0
    2.7650   -1.1060   -0.0260 C   0  0  0  0  0  0  0  0  0  0  0  0
    3.9820   -1.7030    0.2100 C   0  0  0  0  0  0  0  0  0  0  0  0
    5.1360   -0.9940    0.4250 C   0  0  0  0  0  0  0  0  0  0  0  0
    5.1080    0.4150    0.4120 C   0  0  0  0  0  0  0  0  0  0  0  0
    3.8810    0.9800    0.1740 C   0  0  0  0  0  0  0  0  0  0  0  0
    2.7210    0.2630   -0.0430 C   0  0  0  0  0  0  0  0  0  0  0  0
    4.2120    2.7150    0.2270 S   0  0  1  0  0  0  0  0  0  0  0  0
    3.9570    3.3390   -1.1140 O   0  0  0  0  0  0  0  0  0  0  0  0
    3.4620    3.3780    1.3210 O   0  0  0  0  0  0  0  0  0  0  0  0
    5.8910    2.5830    0.5480 N   0  0  0  0  0  0  0  0  0  0  0  0
    6.1790    1.3510    0.6110 C   0  0  0  0  0  0  0  0  0  0  0  0
   -3.0640   -0.8640    0.3380 C   0  0  0  0  0  0  0  0  0  0  0  0
   -4.0280    0.1390    0.5070 C   0  0  0  0  0  0  0  0  0  0  0  0
   -5.2360   -0.1860    1.2710 C   0  0  0  0  0  0  0  0  0  0  0  0
  1  2  1  0
  2  3  2  0
  2 22  1  0
  3  4  1  0
  4  5  2  0
  5  6  1  0
  5 21  1  0
  6  7  1  6
  6  8  1  0
  8  9  1  0
  9 10  1  0
 10 11  2  0
 10 15  1  0
 11 12  1  0
 12 13  2  0
 13 14  1  0
 13 20  1  0
 14 15  2  0
 14 16  1  0
 16 17  2  0
 16 18  2  0
 16 19  1  1
 19 20  2  0
 21 22  2  0
 22 23  1  0
M  END
