
     RDKit          3D

 23 25  0  0  0  0  0  0  0  0999 V2000
    8.5000   -1.6110    0.1880 C   0  0  0  0  0  0  0  0  0  0  0  0
    7.8490   -0.2910    0.5470 C   0  0  0  0  0  0  0  0  0  0  0  0
    6.3600   -0.4510    0.3420 C   0  0  0  0  0  0  0  0  0  0  0  0
    5.6340    0.7870    0.6670 C   0  0  0  0  0  0  0  0  0  0  0  0
    6.2330    1.7880    1.0510 O   0  0  0  0  0  0  0  0  0  0  0  0
    4.1860    0.8250    0.5300 C   0  0  0  0  0  0  0  0  0  0  0  0
    3.3180    1.8490    0.7710 C   0  0  0  0  0  0  0  0  0  0  0  0
    2.0200    1.6480    0.5720 C   0  0  0  0  0  0  0  0  0  0  0  0
    1.5950    0.4310    0.1360 C   0  0  0  0  0  0  0  0  0  0  0  0
    0.2710   -0.1120   -0.1750 C   0  0  0  0  0  0  0  0  0  0  0  0
    0.1110   -1.2870   -0.5710 O   0  0  0  0  0  0  0  0  0  0  0  0
   -0.8610    0.7030   -0.0290 N   0  0  0  0  0  0  0  0  0  0  0  0
   -2.1830    0.2510   -0.3110 C   0  0  0  0  0  0  0  0  0  0  0  0
   -3.2560    1.1350   -0.1360 C   0  0  0  0  0  0  0  0  0  0  0  0
   -4.5390    0.7370   -0.3960 C   0  0  0  0  0  0  0  0  0  0  0  0
   -4.7620   -0.5440   -0.8330 C   0  0  0  0  0  0  0  0  0  0  0  0
   -3.6710   -1.4110   -1.0000 C   0  0  0  0  0  0  0  0  0  0  0  0
   -2.4190   -1.0000   -0.7380 N   0  0  0  0  0  0  0  0  0  0  0  0
   -6.1430   -1.0040   -1.1260 C   0  0  0  0  0  0  0  0  0  0  0  0
   -7.2120   -0.2960   -0.3780 C   0  0  0  0  0  0  0  0  0  0  0  0
   -6.7400    0.7980    0.5240 C   0  0  0  0  0  0  0  0  0  0  0  0
   -5.6890    1.6360   -0.2210 C   0  0  0  0  0  0  0  0  0  0  0  0
    3.1510   -0.4900   -0.0010 S   0  0  0  0  0  0  0  0  0  0  0  0
  1  2  1  0
  2  3  1  0
  3  4  1  0
  4  5  2  0
  4  6  1  0
  6  7  2  0
  6 23  1  0
  7  8  1  0
  8  9  2  0
  9 10  1  0
  9 23  1  0
 10 11  2  0
 10 12  1  0
 12 13  1  0
 13 14  2  0
 13 18  1  0
 14 15  1  0
 15 16  2  0
 15 22  1  0
 16 17  1  0
 16 19  1  0
 17 18  2  0
 19 20  1  0
 20 21  1  0
 21 22  1  0
M  END
