
     RDKit          3D

 23 25  0  0  0  0  0  0  0  0999 V2000
    2.2170    0.6530    0.8010 O   0  0  0  0  0  0  0  0  0  0  0  0
    2.8940   -0.1410    0.0890 C   0  0  0  0  0  0  0  0  0  0  0  0
    2.3220   -1.1530   -0.8220 C   0  0  0  0  0  0  0  0  0  0  0  0
    0.8290   -0.9990   -0.8820 C   0  0  0  0  0  0  0  0  0  0  0  0
    0.4750    0.3330   -1.4580 C   0  0  0  0  0  0  0  0  0  0  0  0
   -0.9940    0.6070   -1.5660 C   0  0  0  0  0  0  0  0  0  0  0  0
   -1.7080    0.6040   -0.2750 C   0  0  0  0  0  0  0  0  0  0  0  0
   -1.0200    0.4740    0.7810 O   0  0  0  0  0  0  0  0  0  0  0  0
   -3.1050    0.7390   -0.1590 N   0  0  0  0  0  0  0  0  0  0  0  0
   -3.9560    0.8910   -1.3140 C   0  0  0  0  0  0  0  0  0  0  0  0
   -5.4180    1.0430   -0.8940 C   0  0  0  0  0  0  0  0  0  0  0  0
   -5.7130   -0.1260    0.0510 C   0  0  0  0  0  0  0  0  0  0  0  0
   -6.7600   -0.9740   -0.0970 C   0  0  0  0  0  0  0  0  0  0  0  0
   -6.5270   -2.0880    1.3150 S   0  0  0  0  0  0  0  0  0  0  0  0
   -5.0570   -1.3050    1.9560 C   0  0  0  0  0  0  0  0  0  0  0  0
   -4.8640   -0.2770    1.0610 C   0  0  0  0  0  0  0  0  0  0  0  0
   -3.7230    0.7270    1.1420 C   0  0  0  0  0  0  0  0  0  0  0  0
    4.3490   -0.0710    0.1550 C   0  0  0  0  0  0  0  0  0  0  0  0
    4.9330    0.8090    0.9480 C   0  0  0  0  0  0  0  0  0  0  0  0
    6.3360    0.8850    1.0200 N   0  0  0  0  0  0  0  0  0  0  0  0
    7.2260    0.0610    0.2820 C   0  0  0  0  0  0  0  0  0  0  0  0
    6.5130   -0.8880   -0.5720 C   0  0  0  0  0  0  0  0  0  0  0  0
    5.2030   -0.9460   -0.6290 C   0  0  0  0  0  0  0  0  0  0  0  0
  1  2  2  0
  2  3  1  0
  2 18  1  0
  3  4  1  0
  4  5  1  0
  5  6  1  0
  6  7  1  0
  7  8  2  0
  7  9  1  0
  9 10  1  0
  9 17  1  0
 10 11  1  0
 11 12  1  0
 12 13  2  0
 12 16  1  0
 13 14  1  0
 14 15  1  0
 15 16  2  0
 16 17  1  0
 18 19  2  0
 18 23  1  0
 19 20  1  0
 20 21  1  0
 21 22  1  0
 22 23  2  0
M  END
