
     RDKit          3D

 23 24  0  0  0  0  0  0  0  0999 V2000
   -4.5960   -1.0350   -0.5360 C   0  0  0  0  0  0  0  0  0  0  0  0
   -3.3480   -0.3630   -0.9170 C   0  0  0  0  0  0  0  0  0  0  0  0
   -3.2230    0.9470   -0.7860 C   0  0  0  0  0  0  0  0  0  0  0  0
   -4.3540    1.7250   -0.2550 C   0  0  0  0  0  0  0  0  0  0  0  0
   -4.6370    2.9590   -0.6790 C   0  0  0  0  0  0  0  0  0  0  0  0
   -4.0450    3.8650   -1.6610 C   0  0  0  0  0  0  0  0  0  0  0  0
   -3.1200    3.2700   -2.6680 C   0  0  0  0  0  0  0  0  0  0  0  0
   -1.9450    2.5760   -2.1140 C   0  0  0  0  0  0  0  0  0  0  0  0
   -1.9520    1.5150   -1.2510 C   0  0  0  0  0  0  0  0  0  0  0  0
   -0.7080    0.9280   -0.9260 C   0  0  0  0  0  0  0  0  0  0  0  0
   -0.2360    0.0250   -0.1320 C   0  0  0  0  0  0  0  0  0  0  0  0
   -0.9450   -0.7480    0.8020 N   0  0  0  0  0  0  0  0  0  0  0  0
   -0.2840   -1.7810    1.5570 C   0  0  0  0  0  0  0  0  0  0  0  0
   -0.8990   -2.7780    1.9650 O   0  0  0  0  0  0  0  0  0  0  0  0
    1.1690   -1.6190    1.8400 C   0  0  0  0  0  0  0  0  0  0  0  0
    1.7820   -1.3660    0.5560 N   0  0  0  0  0  0  0  0  0  0  0  0
    2.9050   -2.1600    0.1290 C   0  0  0  0  0  0  0  0  0  0  0  0
    4.2420   -1.6190    0.5300 C   0  0  0  0  0  0  0  0  0  0  0  0
    4.4070   -1.5290    2.0250 C   0  0  0  0  0  0  0  0  0  0  0  0
    6.0640   -0.8620    2.4220 S   0  0  0  0  0  0  0  0  0  0  0  0
    7.2900   -2.0790    1.8780 C   0  0  0  0  0  0  0  0  0  0  0  0
    1.2220   -0.3340   -0.2370 C   0  0  0  0  0  0  0  0  0  0  0  0
    1.9650    0.2790   -1.0320 O   0  0  0  0  0  0  0  0  0  0  0  0
  1  2  1  0
  2  3  2  3
  3  4  1  0
  3  9  1  0
  4  5  2  0
  5  6  1  0
  6  7  1  0
  7  8  1  0
  8  9  2  0
  9 10  1  0
 10 11  2  3
 11 12  1  0
 11 22  1  0
 12 13  1  0
 13 14  2  0
 13 15  1  0
 15 16  1  0
 16 17  1  0
 16 22  1  0
 17 18  1  0
 18 19  1  0
 19 20  1  0
 20 21  1  0
 22 23  2  0
M  END
