
     RDKit          3D

 23 24  0  0  0  0  0  0  0  0999 V2000
   -0.9550   -2.6500   -1.0750 C   0  0  0  0  0  0  0  0  0  0  0  0
   -1.4080   -1.7510   -0.2040 C   0  0  0  0  0  0  0  0  0  0  0  0
   -2.4840   -0.7490   -0.4190 C   0  0  0  0  0  0  0  0  0  0  0  0
   -3.2090   -0.6750   -1.7270 C   0  0  0  0  0  0  0  0  0  0  0  0
   -2.6400   -0.0510    0.6640 C   0  0  0  0  0  0  0  0  0  0  0  0
   -3.5230    1.0420    1.0260 C   0  0  0  0  0  0  0  0  0  0  0  0
   -4.4120    1.6470    0.0270 C   0  0  0  0  0  0  0  0  0  0  0  0
   -3.7520    2.2940   -1.1500 C   0  0  0  0  0  0  0  0  0  0  0  0
   -1.6600   -0.5590    1.6740 C   0  0  0  0  0  0  0  0  0  0  0  0
   -1.5120   -0.1260    2.8510 O   0  0  0  0  0  0  0  0  0  0  0  0
   -0.9160   -1.6020    1.1150 N   0  0  0  0  0  0  0  0  0  0  0  0
    0.1230   -2.4050    1.7090 C   0  0  0  0  0  0  0  0  0  0  0  0
    1.4910   -1.8500    1.5700 C   0  0  0  0  0  0  0  0  0  0  0  0
    2.3990   -2.5480    2.0830 O   0  0  0  0  0  0  0  0  0  0  0  0
    1.7990   -0.6280    0.9190 N   0  0  0  0  0  0  0  0  0  0  0  0
    3.0660   -0.0400    0.7650 C   0  0  0  0  0  0  0  0  0  0  0  0
    4.1750   -0.4900    1.3770 C   0  0  0  0  0  0  0  0  0  0  0  0
    5.4390    0.1960    1.1840 C   0  0  0  0  0  0  0  0  0  0  0  0
    5.5750    1.2790    0.4470 C   0  0  0  0  0  0  0  0  0  0  0  0
    4.4470    1.9050   -0.2410 C   0  0  0  0  0  0  0  0  0  0  0  0
    3.2470    0.9820   -0.2700 C   0  0  0  0  0  0  0  0  0  0  0  0
    2.4530    1.0970   -1.3070 C   0  0  0  0  0  0  0  0  0  0  0  0
    1.0580    0.1290   -1.7230 S   0  0  0  0  0  0  0  0  0  0  0  0
  1  2  2  0
  2  3  1  0
  2 11  1  0
  3  4  1  0
  3  5  2  0
  5  6  1  0
  5  9  1  0
  6  7  1  0
  7  8  1  0
  9 10  2  0
  9 11  1  0
 11 12  1  0
 12 13  1  0
 13 14  2  0
 13 15  1  0
 15 16  1  0
 16 17  2  0
 16 21  1  0
 17 18  1  0
 18 19  2  0
 19 20  1  0
 20 21  1  0
 21 22  2  3
 22 23  1  0
M  END
