
     RDKit          3D

 22 23  0  0  0  0  0  0  0  0999 V2000
   -1.8690   -2.3820    1.3120 O   0  0  0  0  0  0  0  0  0  0  0  0
   -1.5420   -1.8430    0.0640 C   0  0  0  0  0  0  0  0  0  0  0  0
   -0.9890   -0.4680    0.1550 C   0  0  1  0  0  0  0  0  0  0  0  0
   -1.9890    0.4890    0.7150 C   0  0  0  0  0  0  0  0  0  0  0  0
   -3.2590    0.6560   -0.0530 C   0  0  1  0  0  0  0  0  0  0  0  0
   -4.0690    1.6200    0.6100 O   0  0  0  0  0  0  0  0  0  0  0  0
   -3.4280    2.7640    0.6680 O   0  0  0  0  0  0  0  0  0  0  0  0
   -3.1150    0.9640   -1.3830 O   0  0  0  0  0  0  0  0  0  0  0  0
   -4.3160    0.6300   -1.9760 C   0  0  0  0  0  0  0  0  0  0  0  0
   -4.8540   -0.4710   -1.1130 C   0  0  0  0  0  0  0  0  0  0  0  0
   -4.0350   -0.5040    0.0000 O   0  0  0  0  0  0  0  0  0  0  0  0
    0.2120   -0.4200    0.8770 O   0  0  0  0  0  0  0  0  0  0  0  0
    1.2700    0.0340    0.1170 C   0  0  0  0  0  0  0  0  0  0  0  0
    2.5470    0.0730    0.9260 C   0  0  2  0  0  0  0  0  0  0  0  0
    2.4810    0.8890    2.0140 O   0  0  0  0  0  0  0  0  0  0  0  0
    3.7580    0.3410    0.0640 C   0  0  2  0  0  0  0  0  0  0  0  0
    3.5720    1.4930   -0.8730 C   0  0  0  0  0  0  0  0  0  0  0  0
    4.7400    1.6430   -1.6070 O   0  0  0  0  0  0  0  0  0  0  0  0
    3.9020   -0.9830   -0.6330 C   0  0  0  0  0  0  0  0  0  0  0  0
    3.4220   -1.9640    0.1960 O   0  0  0  0  0  0  0  0  0  0  0  0
    2.8520   -1.3840    1.3040 C   0  0  1  0  0  0  0  0  0  0  0  0
    3.7780   -1.3300    2.3450 O   0  0  0  0  0  0  0  0  0  0  0  0
  1  2  1  0
  3  2  1  1
  3  4  1  0
  3 12  1  0
  5  4  1  1
  5  6  1  0
  5  8  1  0
  5 11  1  0
  6  7  1  0
  8  9  1  0
  9 10  1  0
 10 11  1  0
 12 13  1  0
 13 14  1  0
 14 15  1  1
 14 16  1  0
 14 21  1  0
 16 17  1  6
 16 19  1  0
 17 18  1  0
 19 20  1  0
 20 21  1  0
 21 22  1  1
M  END
