
     RDKit          3D

 22 22  0  0  0  0  0  0  0  0999 V2000
    5.0240   -0.1500   -1.4570 O   0  0  0  0  0  0  0  0  0  0  0  0
    4.7520    0.1100   -0.2580 C   0  0  0  0  0  0  0  0  0  0  0  0
    5.8560    0.2790    0.7260 C   0  0  0  0  0  0  0  0  0  0  0  0
    7.2040    0.1070    0.1220 C   0  0  0  0  0  0  0  0  0  0  0  0
    8.1550    0.2840    1.1220 O   0  0  0  0  0  0  0  0  0  0  0  0
    3.4180    0.2270    0.0860 O   0  0  0  0  0  0  0  0  0  0  0  0
    2.3710    0.0610   -0.8790 C   0  0  0  0  0  0  0  0  0  0  0  0
    1.0160    0.2460   -0.2150 C   0  0  1  0  0  0  0  0  0  0  0  0
    0.9690    1.5570    0.3290 O   0  0  0  0  0  0  0  0  0  0  0  0
   -0.0120    0.1390   -1.0970 O   0  0  0  0  0  0  0  0  0  0  0  0
   -1.0250   -0.7230   -0.8520 C   0  0  0  0  0  0  0  0  0  0  0  0
   -1.8700   -0.4750    0.3580 C   0  0  1  0  0  0  0  0  0  0  0  0
   -1.1200   -0.5200    1.5000 O   0  0  0  0  0  0  0  0  0  0  0  0
   -2.6640    0.8130    0.2280 C   0  0  0  0  0  0  0  0  0  0  0  0
   -4.0250    0.4230   -0.2560 C   0  0  2  0  0  0  0  0  0  0  0  0
   -4.3000    0.9550   -1.5140 O   0  0  0  0  0  0  0  0  0  0  0  0
   -5.0810    0.9650    0.6940 C   0  0  0  0  0  0  0  0  0  0  0  0
   -4.9870    2.3520    0.6980 O   0  0  0  0  0  0  0  0  0  0  0  0
   -4.0840   -1.0650   -0.3610 C   0  0  0  0  0  0  0  0  0  0  0  0
   -2.9560   -1.5410    0.5050 C   0  0  2  0  0  0  0  0  0  0  0  0
   -3.4250   -1.5870    1.8190 O   0  0  0  0  0  0  0  0  0  0  0  0
   -2.4100   -2.7420    0.1070 O   0  0  0  0  0  0  0  0  0  0  0  0
  1  2  2  0
  2  3  1  0
  2  6  1  0
  3  4  1  0
  4  5  1  0
  6  7  1  0
  7  8  1  0
  8  9  1  6
  8 10  1  0
 10 11  1  0
 11 12  1  0
 12 13  1  1
 12 14  1  0
 12 20  1  0
 14 15  1  0
 15 16  1  6
 15 17  1  0
 15 19  1  0
 17 18  1  0
 19 20  1  0
 20 21  1  1
 20 22  1  0
M  END
