
     RDKit          3D

 22 22  0  0  0  0  0  0  0  0999 V2000
    1.1380    2.0650   -0.1820 O   0  0  0  0  0  0  0  0  0  0  0  0
    0.9790    0.8620    0.2210 C   0  0  0  0  0  0  0  0  0  0  0  0
    1.7910   -0.0680   -0.3710 O   0  0  0  0  0  0  0  0  0  0  0  0
    2.7590    0.1970   -1.3580 C   0  0  0  0  0  0  0  0  0  0  0  0
    3.8110    1.1370   -0.8400 C   0  0  0  0  0  0  0  0  0  0  0  0
    4.4370    0.5750    0.2570 O   0  0  0  0  0  0  0  0  0  0  0  0
    5.0890   -0.6160    0.0070 C   0  0  2  0  0  0  0  0  0  0  0  0
    4.5640   -1.6600    0.7710 O   0  0  0  0  0  0  0  0  0  0  0  0
    6.4470   -0.4260    0.2680 O   0  0  0  0  0  0  0  0  0  0  0  0
   -0.0330    0.6130    1.2530 C   0  0  1  0  0  0  0  0  0  0  0  0
   -0.5870    1.8200    1.6560 O   0  0  0  0  0  0  0  0  0  0  0  0
   -1.0420   -0.4530    0.9440 C   0  0  2  0  0  0  0  0  0  0  0  0
   -0.3490   -1.7570    0.7700 C   0  0  0  0  0  0  0  0  0  0  0  0
   -1.1840   -2.8390    0.4990 O   0  0  0  0  0  0  0  0  0  0  0  0
   -1.9480   -0.0920   -0.1980 C   0  0  1  0  0  0  0  0  0  0  0  0
   -1.1750    0.1120   -1.3290 O   0  0  0  0  0  0  0  0  0  0  0  0
   -3.0200   -1.1200   -0.4820 C   0  0  0  0  0  0  0  0  0  0  0  0
   -3.8480   -1.3250    0.6030 O   0  0  0  0  0  0  0  0  0  0  0  0
   -4.5400   -0.2000    0.9940 C   0  0  0  0  0  0  0  0  0  0  0  0
   -3.6490    0.9820    1.2400 C   0  0  0  0  0  0  0  0  0  0  0  0
   -2.7360    1.1940    0.0570 C   0  0  2  0  0  0  0  0  0  0  0  0
   -3.6000    1.3020   -1.0670 O   0  0  0  0  0  0  0  0  0  0  0  0
  1  2  2  0
  2  3  1  0
  2 10  1  0
  3  4  1  0
  4  5  1  0
  5  6  1  0
  6  7  1  0
  7  8  1  1
  7  9  1  0
 10 11  1  6
 10 12  1  0
 12 13  1  6
 12 15  1  0
 13 14  1  0
 15 16  1  6
 15 17  1  0
 15 21  1  0
 17 18  1  0
 18 19  1  0
 19 20  1  0
 20 21  1  0
 21 22  1  6
M  END
