
     RDKit          3D

 23 25  0  0  0  0  0  0  0  0999 V2000
   -5.0300   -5.8120    3.3090 N   0  0  0  0  0  0  0  0  0  0  0  0
   -4.2100   -5.1050    2.9210 C   0  0  0  0  0  0  0  0  0  0  0  0
   -3.1780   -4.1920    2.4090 C   0  0  0  0  0  0  0  0  0  0  0  0
   -2.1050   -4.8260    1.7570 C   0  0  0  0  0  0  0  0  0  0  0  0
   -1.1020   -4.0300    1.2770 C   0  0  0  0  0  0  0  0  0  0  0  0
   -1.0840   -2.6320    1.3970 C   0  0  0  0  0  0  0  0  0  0  0  0
    0.0240   -1.9230    0.8830 N   0  0  0  0  0  0  0  0  0  0  0  0
   -0.0220   -0.5580    0.5120 C   0  0  0  0  0  0  0  0  0  0  0  0
   -1.1580    0.1570    0.6900 N   0  0  0  0  0  0  0  0  0  0  0  0
   -1.2940    1.4360    0.2910 C   0  0  0  0  0  0  0  0  0  0  0  0
   -2.5400    2.0580    0.5300 N   0  0  0  0  0  0  0  0  0  0  0  0
   -0.2380    2.0470   -0.3220 C   0  0  0  0  0  0  0  0  0  0  0  0
    0.9630    1.3200   -0.5220 C   0  0  0  0  0  0  0  0  0  0  0  0
    1.9960    1.9950   -1.2430 N   0  0  0  0  0  0  0  0  0  0  0  0
    3.1970    2.4580   -0.9230 C   0  0  0  0  0  0  0  0  0  0  0  0
    3.7520    3.0870   -2.0190 C   0  0  0  0  0  0  0  0  0  0  0  0
    2.8010    2.9740   -3.0500 C   0  0  0  0  0  0  0  0  0  0  0  0
    3.0550    3.5160   -4.3940 C   0  0  0  0  0  0  0  0  0  0  0  0
    4.3910    3.2520   -4.7250 O   0  0  0  0  0  0  0  0  0  0  0  0
    1.7760    2.3120   -2.5230 N   0  0  0  0  0  0  0  0  0  0  0  0
    1.0060    0.0780   -0.0990 N   0  0  0  0  0  0  0  0  0  0  0  0
   -2.1600   -2.0310    2.0470 C   0  0  0  0  0  0  0  0  0  0  0  0
   -3.1770   -2.8730    2.5320 C   0  0  0  0  0  0  0  0  0  0  0  0
  1  2  3  0
  2  3  1  0
  3  4  2  0
  3 23  1  0
  4  5  1  0
  5  6  2  0
  6  7  1  0
  6 22  1  0
  7  8  1  0
  8  9  2  0
  8 21  1  0
  9 10  1  0
 10 11  1  0
 10 12  2  0
 12 13  1  0
 13 14  1  0
 13 21  2  0
 14 15  1  0
 14 20  1  0
 15 16  2  0
 16 17  1  0
 17 18  1  0
 17 20  2  0
 18 19  1  0
 22 23  2  0
M  END
