
     RDKit          3D

 22 22  0  0  0  0  0  0  0  0999 V2000
   -1.0390    4.9780   -0.8500 O   0  0  0  0  0  0  0  0  0  0  0  0
   -0.5200    3.8420   -1.0220 C   0  0  0  0  0  0  0  0  0  0  0  0
    0.8580    3.7790   -1.0540 O   0  0  0  0  0  0  0  0  0  0  0  0
   -1.3230    2.6030   -1.1880 C   0  0  2  0  0  0  0  0  0  0  0  0
   -2.6620    2.9800   -1.1160 O   0  0  0  0  0  0  0  0  0  0  0  0
   -0.9630    1.7370   -0.1690 O   0  0  0  0  0  0  0  0  0  0  0  0
   -0.4380    0.5360   -0.6390 C   0  0  0  0  0  0  0  0  0  0  0  0
   -0.1020   -0.2930    0.5820 C   0  0  1  0  0  0  0  0  0  0  0  0
   -1.3920   -0.4020    1.3780 C   0  0  0  0  0  0  0  0  0  0  0  0
   -2.4670   -0.9060    0.7560 O   0  0  0  0  0  0  0  0  0  0  0  0
   -2.4920   -2.1480    0.2300 C   0  0  0  0  0  0  0  0  0  0  0  0
   -3.9140   -2.3400   -0.3670 C   0  0  0  0  0  0  0  0  0  0  0  0
   -4.8350   -2.2030    0.6450 O   0  0  0  0  0  0  0  0  0  0  0  0
    0.4990   -1.6270    0.2770 C   0  0  0  0  0  0  0  0  0  0  0  0
    1.8860   -1.7040    0.8730 C   0  0  0  0  0  0  0  0  0  0  0  0
    2.7100   -0.5510    0.3720 C   0  0  1  0  0  0  0  0  0  0  0  0
    3.9450   -0.4790    1.0380 O   0  0  0  0  0  0  0  0  0  0  0  0
    2.9470   -0.7260   -1.1090 C   0  0  0  0  0  0  0  0  0  0  0  0
    3.6640    0.3820   -1.5580 O   0  0  0  0  0  0  0  0  0  0  0  0
    1.9820    0.7280    0.7150 C   0  0  2  0  0  0  0  0  0  0  0  0
    2.7420    1.5310    1.6040 O   0  0  0  0  0  0  0  0  0  0  0  0
    0.8320    0.3650    1.4070 O   0  0  0  0  0  0  0  0  0  0  0  0
  1  2  2  0
  2  3  1  0
  2  4  1  0
  4  5  1  1
  4  6  1  0
  6  7  1  0
  8  7  1  6
  8  9  1  0
  8 14  1  0
  8 22  1  0
  9 10  1  0
 10 11  1  0
 11 12  1  0
 12 13  1  0
 14 15  1  0
 15 16  1  0
 16 17  1  1
 16 18  1  0
 16 20  1  0
 18 19  1  0
 20 21  1  1
 20 22  1  0
M  END
