
     RDKit          3D

 22 22  0  0  0  0  0  0  0  0999 V2000
   -2.8140   -2.1130    1.3450 O   0  0  0  0  0  0  0  0  0  0  0  0
   -3.2210   -0.9750    1.0180 C   0  0  0  0  0  0  0  0  0  0  0  0
   -4.5800   -0.7680    0.8830 O   0  0  0  0  0  0  0  0  0  0  0  0
   -5.4490   -1.8580    1.1210 C   0  0  0  0  0  0  0  0  0  0  0  0
   -6.8670   -1.3690    0.9080 C   0  0  0  0  0  0  0  0  0  0  0  0
   -7.1660   -0.3290    1.7800 O   0  0  0  0  0  0  0  0  0  0  0  0
   -2.2290    0.0990    0.7910 C   0  0  2  0  0  0  0  0  0  0  0  0
   -2.8750    1.2820    0.4390 O   0  0  0  0  0  0  0  0  0  0  0  0
   -1.4280   -0.2620   -0.2980 O   0  0  0  0  0  0  0  0  0  0  0  0
   -0.0730   -0.2230    0.1040 C   0  0  0  0  0  0  0  0  0  0  0  0
    0.7620   -0.6190   -1.0980 C   0  0  1  0  0  0  0  0  0  0  0  0
    0.3710   -1.9160   -1.4880 O   0  0  0  0  0  0  0  0  0  0  0  0
    0.4800    0.3340   -2.2310 C   0  0  0  0  0  0  0  0  0  0  0  0
    1.5510    1.1940   -2.4640 O   0  0  0  0  0  0  0  0  0  0  0  0
    2.0180    1.7920   -1.3240 C   0  0  0  0  0  0  0  0  0  0  0  0
    2.6110    0.8020   -0.3870 C   0  0  2  0  0  0  0  0  0  0  0  0
    3.9800    0.9710   -0.2030 O   0  0  0  0  0  0  0  0  0  0  0  0
    4.3540    1.2970    1.0680 C   0  0  2  0  0  0  0  0  0  0  0  0
    5.0090    2.5490    1.0020 O   0  0  0  0  0  0  0  0  0  0  0  0
    5.4380    0.3120    1.5190 C   0  0  0  0  0  0  0  0  0  0  0  0
    6.5420    0.3870    0.6730 O   0  0  0  0  0  0  0  0  0  0  0  0
    2.2350   -0.5830   -0.7780 C   0  0  0  0  0  0  0  0  0  0  0  0
  1  2  2  0
  2  3  1  0
  2  7  1  0
  3  4  1  0
  4  5  1  0
  5  6  1  0
  7  8  1  6
  7  9  1  0
  9 10  1  0
 10 11  1  0
 11 12  1  6
 11 13  1  0
 11 22  1  0
 13 14  1  0
 14 15  1  0
 15 16  1  0
 16 17  1  6
 16 22  1  0
 17 18  1  0
 18 19  1  6
 18 20  1  0
 20 21  1  0
M  END
