
     RDKit          3D

 22 22  0  0  0  0  0  0  0  0999 V2000
   -2.5920   -1.8840   -0.1140 C   0  0  0  0  0  0  0  0  0  0  0  0
   -1.7870   -0.6110    0.0430 C   0  0  2  0  0  0  0  0  0  0  0  0
   -2.0450   -0.0770    1.4180 C   0  0  0  0  0  0  0  0  0  0  0  0
   -3.4380    0.1670    1.4960 O   0  0  0  0  0  0  0  0  0  0  0  0
   -2.4140    0.3700   -0.9520 C   0  0  0  0  0  0  0  0  0  0  0  0
   -3.7840    0.5760   -0.6370 O   0  0  0  0  0  0  0  0  0  0  0  0
   -4.5570    1.4280   -1.4050 C   0  0  0  0  0  0  0  0  0  0  0  0
   -4.0050    2.0020   -2.3770 O   0  0  0  0  0  0  0  0  0  0  0  0
   -5.9050    1.6650   -1.1400 O   0  0  0  0  0  0  0  0  0  0  0  0
   -0.3550   -0.7730   -0.3230 C   0  0  1  0  0  0  0  0  0  0  0  0
   -0.2920   -1.1650   -1.6650 O   0  0  0  0  0  0  0  0  0  0  0  0
    0.4260    0.4850   -0.0790 C   0  0  0  0  0  0  0  0  0  0  0  0
    1.2040    0.1790    1.1730 C   0  0  2  0  0  0  0  0  0  0  0  0
    1.0980    1.1260    2.1590 O   0  0  0  0  0  0  0  0  0  0  0  0
    2.7000    0.0830    0.8230 C   0  0  0  0  0  0  0  0  0  0  0  0
    3.1530    1.3010    0.3830 O   0  0  0  0  0  0  0  0  0  0  0  0
    4.4740    1.3710    0.0640 C   0  0  0  0  0  0  0  0  0  0  0  0
    4.8150    0.4120   -1.0460 C   0  0  0  0  0  0  0  0  0  0  0  0
    4.0590    0.7210   -2.1790 O   0  0  0  0  0  0  0  0  0  0  0  0
    0.7760   -1.0680    1.6140 O   0  0  0  0  0  0  0  0  0  0  0  0
    0.3960   -1.7740    0.4920 C   0  0  1  0  0  0  0  0  0  0  0  0
   -0.3200   -2.8860    0.8630 O   0  0  0  0  0  0  0  0  0  0  0  0
  2  1  1  1
  2  3  1  0
  2  5  1  0
  2 10  1  0
  3  4  1  0
  5  6  1  0
  6  7  1  0
  7  8  2  0
  7  9  1  0
 10 11  1  6
 10 12  1  0
 10 21  1  0
 12 13  1  0
 13 14  1  1
 13 15  1  0
 13 20  1  0
 15 16  1  0
 16 17  1  0
 17 18  1  0
 18 19  1  0
 20 21  1  0
 21 22  1  1
M  END
