
     RDKit          3D

 25 26  0  0  0  0  0  0  0  0999 V2000
   -4.5030   -1.1320   -2.6240 C   0  0  0  0  0  0  0  0  0  0  0  0
   -4.3150   -0.5650   -1.2740 C   0  0  0  0  0  0  0  0  0  0  0  0
   -3.2180   -0.0090   -0.8230 C   0  0  0  0  0  0  0  0  0  0  0  0
   -3.2280    0.4930    0.5410 C   0  0  0  0  0  0  0  0  0  0  0  0
   -2.2480    1.0590    1.1320 N   0  0  0  0  0  0  0  0  0  0  0  0
   -4.3910    0.3780    1.3410 O   0  0  0  0  0  0  0  0  0  0  0  0
   -2.0640    0.0820   -1.6810 C   0  0  0  0  0  0  0  0  0  0  0  0
   -2.1500   -0.3860   -2.8700 O   0  0  0  0  0  0  0  0  0  0  0  0
   -0.8050    0.6420   -1.3680 N   0  0  0  0  0  0  0  0  0  0  0  0
    0.2650    0.6620   -2.3410 C   0  0  1  0  0  0  0  0  0  0  0  0
    0.7960    2.0320   -2.6240 C   0  0  0  0  0  0  0  0  0  0  0  0
    2.1040    1.7860   -3.1140 O   0  0  0  0  0  0  0  0  0  0  0  0
    2.5260    0.5090   -2.8100 C   0  0  0  0  0  0  0  0  0  0  0  0
    3.5640   -0.0670   -3.2040 O   0  0  0  0  0  0  0  0  0  0  0  0
    1.4880   -0.0860   -1.8960 C   0  0  1  0  0  0  0  0  0  0  0  0
    1.8230    0.1360   -0.5040 N   0  0  0  0  0  0  0  0  0  0  0  0
    2.0280   -0.8820    0.4330 C   0  0  0  0  0  0  0  0  0  0  0  0
    1.8970   -2.0690   -0.0350 O   0  0  0  0  0  0  0  0  0  0  0  0
    2.3630   -0.7550    1.8310 C   0  0  0  0  0  0  0  0  0  0  0  0
    2.5180   -1.8590    2.5620 C   0  0  0  0  0  0  0  0  0  0  0  0
    2.8590   -1.8870    3.9990 C   0  0  0  0  0  0  0  0  0  0  0  0
    3.0130   -0.6230    4.5510 O   0  0  0  0  0  0  0  0  0  0  0  0
    2.8590    0.5270    3.8220 C   0  0  0  0  0  0  0  0  0  0  0  0
    2.5470    0.5130    2.5120 C   0  0  0  0  0  0  0  0  0  0  0  0
    2.4040    1.7020    1.8230 O   0  0  0  0  0  0  0  0  0  0  0  0
  1  2  1  0
  2  3  2  3
  3  4  1  0
  3  7  1  0
  4  5  2  0
  4  6  1  0
  7  8  2  0
  7  9  1  0
 10  9  1  1
 10 11  1  0
 10 15  1  0
 11 12  1  0
 12 13  1  0
 13 14  2  0
 13 15  1  0
 15 16  1  1
 16 17  1  0
 17 18  2  0
 17 19  1  0
 19 20  2  0
 19 24  1  0
 20 21  1  0
 21 22  1  0
 22 23  1  0
 23 24  2  0
 24 25  1  0
M  END
