
     RDKit          3D

 25 26  0  0  0  0  0  0  0  0999 V2000
    8.7200   -0.9110    1.3500 C   0  0  0  0  0  0  0  0  0  0  0  0
    7.8040   -1.5050    0.4590 O   0  0  0  0  0  0  0  0  0  0  0  0
    6.4890   -0.9830    0.3480 C   0  0  0  0  0  0  0  0  0  0  0  0
    6.2740   -0.0030    1.0910 O   0  0  0  0  0  0  0  0  0  0  0  0
    5.5700   -1.5950   -0.5600 C   0  0  0  0  0  0  0  0  0  0  0  0
    4.3640   -1.3070   -0.8240 C   0  0  0  0  0  0  0  0  0  0  0  0
    3.7250   -2.1370   -1.7990 O   0  0  0  0  0  0  0  0  0  0  0  0
    3.5300   -0.2530   -0.2790 C   0  0  0  0  0  0  0  0  0  0  0  0
    2.2570   -0.1060   -0.6900 C   0  0  0  0  0  0  0  0  0  0  0  0
    1.3540    0.9200   -0.1980 C   0  0  1  0  0  0  0  0  0  0  0  0
    0.0570    0.3970    0.2010 N   0  0  0  0  0  0  0  0  0  0  0  0
   -1.1610    0.6900   -0.4230 C   0  0  0  0  0  0  0  0  0  0  0  0
   -1.1440    1.4720   -1.4150 O   0  0  0  0  0  0  0  0  0  0  0  0
   -2.4060    0.1570    0.0010 N   0  0  0  0  0  0  0  0  0  0  0  0
   -3.6620    0.4690   -0.6550 C   0  0  1  0  0  0  0  0  0  0  0  0
   -4.2540   -0.7560   -1.2940 C   0  0  0  0  0  0  0  0  0  0  0  0
   -5.6360   -1.0540   -0.8070 C   0  0  0  0  0  0  0  0  0  0  0  0
   -5.6110   -0.9700    0.5950 O   0  0  0  0  0  0  0  0  0  0  0  0
   -5.5200    0.3280    1.0320 C   0  0  2  0  0  0  0  0  0  0  0  0
   -6.9470    0.8930    1.0430 C   0  0  0  0  0  0  0  0  0  0  0  0
   -4.6070    1.1990    0.2450 C   0  0  0  0  0  0  0  0  0  0  0  0
    1.9230    1.7840    0.7770 N   0  0  0  0  0  0  0  0  0  0  0  0
    3.2820    1.6130    1.2050 C   0  0  0  0  0  0  0  0  0  0  0  0
    3.7340    2.4050    2.0690 O   0  0  0  0  0  0  0  0  0  0  0  0
    4.0300    0.6090    0.6650 O   0  0  0  0  0  0  0  0  0  0  0  0
  1  2  1  0
  2  3  1  0
  3  4  2  0
  3  5  1  0
  5  6  2  3
  6  7  1  0
  6  8  1  0
  8  9  2  0
  8 25  1  0
  9 10  1  0
 10 11  1  1
 10 22  1  0
 11 12  1  0
 12 13  2  0
 12 14  1  0
 15 14  1  1
 15 16  1  0
 15 21  1  0
 16 17  1  0
 17 18  1  0
 18 19  1  0
 19 20  1  6
 19 21  1  0
 22 23  1  0
 23 24  2  0
 23 25  1  0
M  END
