
     RDKit          3D

 25 26  0  0  0  0  0  0  0  0999 V2000
   -5.7080   -0.1480   -0.0270 C   0  0  0  0  0  0  0  0  0  0  0  0
   -4.4410    0.3940   -0.6090 C   0  0  1  0  0  0  0  0  0  0  0  0
   -3.7310    1.1540    0.3520 O   0  0  0  0  0  0  0  0  0  0  0  0
   -2.4180    0.7240    0.4430 C   0  0  0  0  0  0  0  0  0  0  0  0
   -1.3670    1.3890    1.2340 C   0  0  1  0  0  0  0  0  0  0  0  0
   -1.7890    1.4090    2.6960 C   0  0  0  0  0  0  0  0  0  0  0  0
   -1.9130    0.0810    3.1100 O   0  0  0  0  0  0  0  0  0  0  0  0
   -0.1000    0.7010    1.0760 N   0  0  0  0  0  0  0  0  0  0  0  0
    1.0740    1.3290    0.6250 C   0  0  0  0  0  0  0  0  0  0  0  0
    1.0660    2.5440    0.3340 O   0  0  0  0  0  0  0  0  0  0  0  0
    2.3090    0.5640    0.4940 C   0  0  0  0  0  0  0  0  0  0  0  0
    2.3700   -0.6610    0.7740 O   0  0  0  0  0  0  0  0  0  0  0  0
    3.5000    1.1950    0.0370 N   0  0  0  0  0  0  0  0  0  0  0  0
    4.6920    0.4290   -0.0820 C   0  0  0  0  0  0  0  0  0  0  0  0
    5.7780    0.7470    0.6060 C   0  0  0  0  0  0  0  0  0  0  0  0
    6.9810   -0.0920    0.4350 C   0  0  0  0  0  0  0  0  0  0  0  0
    7.9840    0.0430    1.1730 O   0  0  0  0  0  0  0  0  0  0  0  0
    6.9760   -1.1090   -0.6460 C   0  0  0  0  0  0  0  0  0  0  0  0
    6.0310   -0.6860   -1.6040 O   0  0  0  0  0  0  0  0  0  0  0  0
    4.7780   -0.7550   -0.9780 C   0  0  0  0  0  0  0  0  0  0  0  0
   -2.2520   -0.3690   -0.2830 C   0  0  0  0  0  0  0  0  0  0  0  0
   -3.5290   -0.7160   -0.9160 C   0  0  0  0  0  0  0  0  0  0  0  0
   -3.7540   -1.8250   -1.6130 C   0  0  0  0  0  0  0  0  0  0  0  0
   -5.0640   -2.0060   -2.1650 N   0  0  0  0  0  0  0  0  0  0  0  0
   -5.3980   -1.4340   -3.3320 O   0  0  0  0  0  0  0  0  0  0  0  0
  2  1  1  1
  2  3  1  0
  2 22  1  0
  3  4  1  0
  4  5  1  0
  4 21  2  0
  5  6  1  1
  5  8  1  0
  6  7  1  0
  8  9  1  0
  9 10  2  0
  9 11  1  0
 11 12  2  0
 11 13  1  0
 13 14  1  0
 14 15  2  0
 14 20  1  0
 15 16  1  0
 16 17  2  0
 16 18  1  0
 18 19  1  0
 19 20  1  0
 21 22  1  0
 22 23  2  3
 23 24  1  0
 24 25  1  0
M  END
