
     RDKit          3D

 25 26  0  0  0  0  0  0  0  0999 V2000
   -5.7140   -0.9170   -1.6780 C   0  0  0  0  0  0  0  0  0  0  0  0
   -5.3310    0.0700   -0.6080 C   0  0  1  0  0  0  0  0  0  0  0  0
   -6.4770    0.6670   -0.1020 O   0  0  0  0  0  0  0  0  0  0  0  0
   -4.6800   -0.6990    0.5290 C   0  0  0  0  0  0  0  0  0  0  0  0
   -3.6720    0.2380    1.2210 C   0  0  0  0  0  0  0  0  0  0  0  0
   -2.5300    0.3880    0.2740 C   0  0  2  0  0  0  0  0  0  0  0  0
   -1.3400    1.0630    0.8700 C   0  0  0  0  0  0  0  0  0  0  0  0
   -0.7880    1.9940    0.2320 O   0  0  0  0  0  0  0  0  0  0  0  0
   -0.8340    0.7020    2.0920 O   0  0  0  0  0  0  0  0  0  0  0  0
    0.2590    1.2500    2.7270 C   0  0  0  0  0  0  0  0  0  0  0  0
    1.5800    1.0880    2.2470 C   0  0  0  0  0  0  0  0  0  0  0  0
    2.5980    1.5260    2.6050 O   0  0  0  0  0  0  0  0  0  0  0  0
    1.7390    0.0340    0.8680 N   0  0  0  0  0  0  0  0  0  0  0  0
    3.1060    0.1200    0.7680 C   0  0  0  0  0  0  0  0  0  0  0  0
    4.0200    0.6650    1.2910 O   0  0  0  0  0  0  0  0  0  0  0  0
    3.5320   -0.7750   -0.3840 N   0  0  0  0  0  0  0  0  0  0  0  0
    4.8440   -0.8750   -0.7770 C   0  0  0  0  0  0  0  0  0  0  0  0
    5.1840   -0.5700   -2.0310 C   0  0  0  0  0  0  0  0  0  0  0  0
    6.5560   -0.6380   -2.5570 C   0  0  0  0  0  0  0  0  0  0  0  0
    7.4690   -1.1210   -1.6330 O   0  0  0  0  0  0  0  0  0  0  0  0
    7.1180   -1.4230   -0.3420 C   0  0  0  0  0  0  0  0  0  0  0  0
    5.8880   -1.3280    0.1230 C   0  0  0  0  0  0  0  0  0  0  0  0
   -2.9880    1.0080   -0.9450 N   0  0  0  0  0  0  0  0  0  0  0  0
   -4.4090    1.1140   -1.1290 C   0  0  0  0  0  0  0  0  0  0  0  0
   -4.8920    2.0870   -1.7300 O   0  0  0  0  0  0  0  0  0  0  0  0
  2  1  1  6
  2  3  1  0
  2  4  1  0
  2 24  1  0
  4  5  1  0
  5  6  1  0
  6  7  1  1
  6 23  1  0
  7  8  2  0
  7  9  1  0
  9 10  1  0
 10 11  1  0
 11 12  2  0
 11 13  1  0
 13 14  1  0
 14 15  2  0
 14 16  1  0
 16 17  1  0
 17 18  2  0
 17 22  1  0
 18 19  1  0
 19 20  1  0
 20 21  1  0
 21 22  2  0
 23 24  1  0
 24 25  2  0
M  END
