
     RDKit          3D

 25 26  0  0  0  0  0  0  0  0999 V2000
   -2.3030   -0.6360   -1.7380 C   0  0  0  0  0  0  0  0  0  0  0  0
   -2.8350    0.4610   -1.2180 O   0  0  0  0  0  0  0  0  0  0  0  0
   -3.1150    0.7040    0.0420 C   0  0  1  0  0  0  0  0  0  0  0  0
   -2.1750    0.9850    1.1280 C   0  0  0  0  0  0  0  0  0  0  0  0
   -1.1040    0.1580    1.4820 N   0  0  0  0  0  0  0  0  0  0  0  0
    0.1010   -0.0970    0.7700 C   0  0  0  0  0  0  0  0  0  0  0  0
    0.2970    0.5070   -0.2890 O   0  0  0  0  0  0  0  0  0  0  0  0
    1.0830   -1.0190    1.2330 N   0  0  0  0  0  0  0  0  0  0  0  0
    2.2930   -1.2690    0.5440 C   0  0  0  0  0  0  0  0  0  0  0  0
    2.5600   -2.4690    0.0050 C   0  0  0  0  0  0  0  0  0  0  0  0
    3.8120   -2.7500   -0.7160 C   0  0  2  0  0  0  0  0  0  0  0  0
    4.2220   -4.0460   -0.3760 O   0  0  0  0  0  0  0  0  0  0  0  0
    4.9360   -1.8240   -0.2680 C   0  0  0  0  0  0  0  0  0  0  0  0
    4.4830   -0.4840   -0.2740 O   0  0  0  0  0  0  0  0  0  0  0  0
    3.2850   -0.2170    0.4120 C   0  0  0  0  0  0  0  0  0  0  0  0
    3.0550    0.9710    0.9370 C   0  0  0  0  0  0  0  0  0  0  0  0
    4.1090    1.9970    0.7630 C   0  0  0  0  0  0  0  0  0  0  0  0
    3.9340    3.1450    1.2470 O   0  0  0  0  0  0  0  0  0  0  0  0
    5.2750    1.7360    0.0880 O   0  0  0  0  0  0  0  0  0  0  0  0
    6.2800    2.6530   -0.1000 N   0  0  0  0  0  0  0  0  0  0  0  0
   -4.0150    2.0010   -0.0110 C   0  0  0  0  0  0  0  0  0  0  0  0
   -4.9980    1.7340   -1.1240 C   0  0  0  0  0  0  0  0  0  0  0  0
   -5.1240    0.4130   -1.4730 O   0  0  0  0  0  0  0  0  0  0  0  0
   -5.2640   -0.4220   -0.3930 C   0  0  0  0  0  0  0  0  0  0  0  0
   -4.1630   -0.3060    0.6100 C   0  0  0  0  0  0  0  0  0  0  0  0
  1  2  1  0
  2  3  1  0
  3  4  1  1
  3 21  1  0
  3 25  1  0
  4  5  1  0
  5  6  1  0
  6  7  2  0
  6  8  1  0
  8  9  1  0
  9 10  2  0
  9 15  1  0
 10 11  1  0
 11 12  1  1
 11 13  1  0
 13 14  1  0
 14 15  1  0
 15 16  2  3
 16 17  1  0
 17 18  2  0
 17 19  1  0
 19 20  1  0
 21 22  1  0
 22 23  1  0
 23 24  1  0
 24 25  1  0
M  END
