
     RDKit          3D

 25 26  0  0  0  0  0  0  0  0999 V2000
   -7.4020    2.0770    0.2630 C   0  0  0  0  0  0  0  0  0  0  0  0
   -6.5830    0.9230    0.2130 O   0  0  0  0  0  0  0  0  0  0  0  0
   -5.3030    1.3440    0.4070 C   0  0  0  0  0  0  0  0  0  0  0  0
   -4.2830    0.2670    0.3460 C   0  0  2  0  0  0  0  0  0  0  0  0
   -3.0100    0.8470    0.5750 N   0  0  0  0  0  0  0  0  0  0  0  0
   -1.8380   -0.0300    0.9250 C   0  0  0  0  0  0  0  0  0  0  0  0
   -2.1210   -1.1900    0.9580 O   0  0  0  0  0  0  0  0  0  0  0  0
   -0.7350    0.7970    1.1050 N   0  0  0  0  0  0  0  0  0  0  0  0
    0.3930   -0.5090    1.3420 C   0  0  0  0  0  0  0  0  0  0  0  0
   -0.0930   -1.5560    1.2880 O   0  0  0  0  0  0  0  0  0  0  0  0
    1.7390    0.0090    1.5580 C   0  0  0  0  0  0  0  0  0  0  0  0
    2.7550   -1.1280    1.2610 C   0  0  1  0  0  0  0  0  0  0  0  0
    2.4940   -1.4800   -0.2090 C   0  0  0  0  0  0  0  0  0  0  0  0
    3.3850   -0.4160   -0.8860 C   0  0  0  0  0  0  0  0  0  0  0  0
    4.5640   -0.5150   -0.0170 C   0  0  0  0  0  0  0  0  0  0  0  0
    5.8310   -0.4630   -0.3660 C   0  0  0  0  0  0  0  0  0  0  0  0
    6.3440   -0.2950   -1.6640 O   0  0  0  0  0  0  0  0  0  0  0  0
    7.7230   -0.3000   -1.6660 C   0  0  0  0  0  0  0  0  0  0  0  0
    8.1390   -0.4650   -0.4170 C   0  0  0  0  0  0  0  0  0  0  0  0
    7.0050   -0.5810    0.5050 C   0  0  0  0  0  0  0  0  0  0  0  0
    6.9620   -0.7430    1.7230 O   0  0  0  0  0  0  0  0  0  0  0  0
    4.0680   -0.6700    1.2630 O   0  0  0  0  0  0  0  0  0  0  0  0
   -4.2630   -0.3590   -1.0370 C   0  0  0  0  0  0  0  0  0  0  0  0
   -5.3630   -1.0490   -1.5220 N   0  0  0  0  0  0  0  0  0  0  0  0
   -3.2210   -0.2550   -1.7670 O   0  0  0  0  0  0  0  0  0  0  0  0
  1  2  1  0
  2  3  1  0
  4  3  1  6
  4  5  1  0
  4 23  1  0
  5  6  1  0
  6  7  2  0
  6  8  1  0
  8  9  1  0
  9 10  2  0
  9 11  1  0
 12 11  1  6
 12 13  1  0
 12 22  1  0
 13 14  1  0
 14 15  1  0
 15 16  2  3
 15 22  1  0
 16 17  1  0
 16 20  1  0
 17 18  1  0
 18 19  2  0
 19 20  1  0
 20 21  2  0
 23 24  1  0
 23 25  2  0
M  END
