
     RDKit          3D

 25 26  0  0  0  0  0  0  0  0999 V2000
   -3.8500   -3.6870   -1.2080 C   0  0  0  0  0  0  0  0  0  0  0  0
   -3.3000   -2.7880   -0.2730 O   0  0  0  0  0  0  0  0  0  0  0  0
   -2.1790   -2.0490   -0.6080 C   0  0  0  0  0  0  0  0  0  0  0  0
   -1.6900   -2.2140   -1.7510 O   0  0  0  0  0  0  0  0  0  0  0  0
   -1.5510   -1.0990    0.3020 C   0  0  1  0  0  0  0  0  0  0  0  0
   -0.4090   -0.4690   -0.2930 N   0  0  0  0  0  0  0  0  0  0  0  0
    0.9150   -0.6380    0.2780 C   0  0  0  0  0  0  0  0  0  0  0  0
    0.9860   -1.3430    1.2870 O   0  0  0  0  0  0  0  0  0  0  0  0
    2.0370   -0.0150   -0.3120 N   0  0  0  0  0  0  0  0  0  0  0  0
    3.3900   -0.0960    0.1440 C   0  0  0  0  0  0  0  0  0  0  0  0
    3.7180   -0.7950    1.2090 C   0  0  0  0  0  0  0  0  0  0  0  0
    5.0870   -0.9280    1.7420 C   0  0  0  0  0  0  0  0  0  0  0  0
    6.0100   -0.2250    0.9890 O   0  0  0  0  0  0  0  0  0  0  0  0
    5.6900    0.5110   -0.1260 C   0  0  0  0  0  0  0  0  0  0  0  0
    4.4400    0.6070   -0.5780 C   0  0  0  0  0  0  0  0  0  0  0  0
    4.2150    1.4070   -1.7590 C   0  0  0  0  0  0  0  0  0  0  0  0
    3.1230    1.6100   -2.3200 O   0  0  0  0  0  0  0  0  0  0  0  0
    5.3240    2.0440   -2.3720 O   0  0  0  0  0  0  0  0  0  0  0  0
   -2.4830   -0.0390    0.8210 C   0  0  2  0  0  0  0  0  0  0  0  0
   -3.0850    0.8040   -0.2630 C   0  0  0  0  0  0  0  0  0  0  0  0
   -4.1260    1.6990    0.4040 C   0  0  0  0  0  0  0  0  0  0  0  0
   -3.4010    2.7450    1.1840 C   0  0  0  0  0  0  0  0  0  0  0  0
   -2.0810    2.2350    1.6450 C   0  0  0  0  0  0  0  0  0  0  0  0
   -1.2240    3.1180    1.9730 O   0  0  0  0  0  0  0  0  0  0  0  0
   -1.7720    0.8470    1.7220 N   0  0  0  0  0  0  0  0  0  0  0  0
  1  2  1  0
  2  3  1  0
  3  4  2  0
  3  5  1  0
  5  6  1  6
  5 19  1  0
  6  7  1  0
  7  8  2  0
  7  9  1  0
  9 10  1  0
 10 11  2  0
 10 15  1  0
 11 12  1  0
 12 13  1  0
 13 14  1  0
 14 15  2  0
 15 16  1  0
 16 17  2  0
 16 18  1  0
 19 20  1  6
 19 25  1  0
 20 21  1  0
 21 22  1  0
 22 23  1  0
 23 24  2  0
 23 25  1  0
M  END
