
     RDKit          3D

 25 26  0  0  0  0  0  0  0  0999 V2000
    0.9680    3.1600    3.1600 C   0  0  0  0  0  0  0  0  0  0  0  0
    1.0370    2.6450    1.9440 C   0  0  0  0  0  0  0  0  0  0  0  0
   -0.0480    2.9380    0.9620 C   0  0  0  0  0  0  0  0  0  0  0  0
   -0.6710    1.6120    0.5240 C   0  0  0  0  0  0  0  0  0  0  0  0
   -1.9350    1.5030    0.8230 C   0  0  0  0  0  0  0  0  0  0  0  0
   -2.5870    2.6070    1.5140 O   0  0  0  0  0  0  0  0  0  0  0  0
   -2.9010    0.4350    0.5940 C   0  0  0  0  0  0  0  0  0  0  0  0
   -3.4960    0.0650    1.7130 O   0  0  0  0  0  0  0  0  0  0  0  0
   -3.2900   -0.2180   -0.4890 O   0  0  0  0  0  0  0  0  0  0  0  0
   -2.9730   -1.1300   -1.4260 C   0  0  0  0  0  0  0  0  0  0  0  0
   -3.2910   -2.5510   -0.9290 C   0  0  0  0  0  0  0  0  0  0  0  0
   -2.0960   -3.0810   -0.4610 O   0  0  0  0  0  0  0  0  0  0  0  0
   -2.1770   -3.1030    0.9380 C   0  0  0  0  0  0  0  0  0  0  0  0
   -1.1250   -2.1550    1.5360 C   0  0  0  0  0  0  0  0  0  0  0  0
   -0.6540   -1.3110    0.6210 O   0  0  0  0  0  0  0  0  0  0  0  0
    0.2400   -0.6420   -0.1050 C   0  0  0  0  0  0  0  0  0  0  0  0
    0.2520    0.7210   -0.1620 C   0  0  0  0  0  0  0  0  0  0  0  0
    1.3910    1.0610   -1.0360 C   0  0  0  0  0  0  0  0  0  0  0  0
    1.5400    2.0940   -1.7420 O   0  0  0  0  0  0  0  0  0  0  0  0
    2.3380   -0.0780   -0.9100 C   0  0  2  0  0  0  0  0  0  0  0  0
    3.2480   -0.1460   -2.0240 N   0  0  0  0  0  0  0  0  0  0  0  0
    4.6390   -0.0680   -1.7780 C   0  0  0  0  0  0  0  0  0  0  0  0
    5.5360   -0.1360   -2.8840 N   0  0  0  0  0  0  0  0  0  0  0  0
    5.0970    0.0590   -0.6060 O   0  0  0  0  0  0  0  0  0  0  0  0
    1.3230   -1.1020   -0.9480 N   0  0  0  0  0  0  0  0  0  0  0  0
  1  2  2  0
  2  3  1  0
  3  4  1  0
  4  5  2  0
  4 17  1  0
  5  6  1  0
  5  7  1  0
  7  8  2  0
  7  9  1  0
  9 10  1  0
 10 11  1  0
 11 12  1  0
 12 13  1  0
 13 14  1  0
 14 15  1  0
 15 16  1  0
 16 17  2  0
 16 25  1  0
 17 18  1  0
 18 19  2  0
 18 20  1  0
 20 21  1  6
 20 25  1  0
 21 22  1  0
 22 23  1  0
 22 24  2  0
M  END
