
     RDKit          3D

 19 19  0  0  0  0  0  0  0  0999 V2000
   -2.1710   -2.7190    0.5190 C   0  0  0  0  0  0  0  0  0  0  0  0
   -1.8880   -1.3700    0.3030 O   0  0  0  0  0  0  0  0  0  0  0  0
   -0.7720   -1.2020   -0.5160 C   0  0  1  0  0  0  0  0  0  0  0  0
   -1.2040   -0.4680   -1.6200 O   0  0  0  0  0  0  0  0  0  0  0  0
   -1.2740    0.8550   -1.2090 C   0  0  2  0  0  0  0  0  0  0  0  0
   -1.0740    1.7600   -2.2350 O   0  0  0  0  0  0  0  0  0  0  0  0
   -0.2730    1.0520   -0.1180 C   0  0  2  0  0  0  0  0  0  0  0  0
   -0.9720    1.5600    1.0030 O   0  0  0  0  0  0  0  0  0  0  0  0
    1.0650    2.2420   -0.5270 P   0  0  0  0  0  0  0  0  0  0  0  0
    2.5930    1.8160    0.1280 O   0  0  0  0  0  0  0  0  0  0  0  0
    0.5750    3.8380   -0.0860 O   0  0  0  0  0  0  0  0  0  0  0  0
    0.1990   -0.3160    0.2340 C   0  0  2  0  0  0  0  0  0  0  0  0
    1.5310   -0.5930   -0.0220 O   0  0  0  0  0  0  0  0  0  0  0  0
    2.0900   -0.5170   -1.2790 C   0  0  0  0  0  0  0  0  0  0  0  0
    1.3400   -0.1810   -2.2220 O   0  0  0  0  0  0  0  0  0  0  0  0
    3.4330   -0.7980   -1.5230 O   0  0  0  0  0  0  0  0  0  0  0  0
   -0.0660   -0.6720    2.0630 P   0  0  0  0  0  0  0  0  0  0  0  0
    0.5480    0.6400    3.0170 O   0  0  0  0  0  0  0  0  0  0  0  0
    0.9150   -2.0720    2.4570 O   0  0  0  0  0  0  0  0  0  0  0  0
  1  2  1  0
  3  2  1  1
  3  4  1  0
  3 12  1  0
  4  5  1  0
  5  6  1  6
  5  7  1  0
  7  8  1  1
  7  9  1  0
  7 12  1  0
  9 10  1  0
  9 11  1  0
 12 13  1  6
 12 17  1  0
 13 14  1  0
 14 15  2  0
 14 16  1  0
 17 18  1  0
 17 19  1  0
M  END
