
     RDKit          3D

 19 19  0  0  0  0  0  0  0  0999 V2000
    4.9980   -1.4280   -2.5690 O   0  0  0  0  0  0  0  0  0  0  0  0
    5.3080   -0.3590   -1.9270 C   0  0  0  0  0  0  0  0  0  0  0  0
    6.5400    0.1450   -2.1970 O   0  0  0  0  0  0  0  0  0  0  0  0
    4.3470    0.1020   -1.0710 O   0  0  0  0  0  0  0  0  0  0  0  0
    3.1230   -0.5330   -0.8980 C   0  0  0  0  0  0  0  0  0  0  0  0
    2.9090   -1.6000   -1.5760 O   0  0  0  0  0  0  0  0  0  0  0  0
    2.1050   -0.0960   -0.0350 N   0  0  0  0  0  0  0  0  0  0  0  0
    0.8700   -0.7790    0.1460 C   0  0  0  0  0  0  0  0  0  0  0  0
    0.7720   -1.8520   -0.5570 O   0  0  0  0  0  0  0  0  0  0  0  0
   -0.1970   -0.3610    1.0140 C   0  0  1  0  0  0  0  0  0  0  0  0
    0.1290   -0.2410    2.4840 C   0  0  0  0  0  0  0  0  0  0  0  0
   -1.1830   -0.1400    3.2740 C   0  0  0  0  0  0  0  0  0  0  0  0
   -2.2220    0.2210    2.4110 O   0  0  0  0  0  0  0  0  0  0  0  0
   -1.8770    1.2930    1.6270 C   0  0  0  0  0  0  0  0  0  0  0  0
   -0.8290    0.9870    0.6240 C   0  0  2  0  0  0  0  0  0  0  0  0
   -1.1670    0.9260   -0.7290 N   0  0  0  0  0  0  0  0  0  0  0  0
   -2.0730    0.0230   -1.2630 C   0  0  0  0  0  0  0  0  0  0  0  0
   -3.5200    0.1620   -0.9180 C   0  0  0  0  0  0  0  0  0  0  0  0
   -4.2820   -0.8470   -1.5660 O   0  0  0  0  0  0  0  0  0  0  0  0
  1  2  2  0
  2  3  1  0
  2  4  1  0
  4  5  1  0
  5  6  2  0
  5  7  1  0
  7  8  1  0
  8  9  2  0
 10  8  1  6
 10 11  1  0
 10 15  1  0
 11 12  1  0
 12 13  1  0
 13 14  1  0
 14 15  1  0
 15 16  1  6
 16 17  1  0
 17 18  1  0
 18 19  1  0
M  END
