
     RDKit          3D

 19 19  0  0  0  0  0  0  0  0999 V2000
    0.6890    1.2850   -1.0120 O   0  0  0  0  0  0  0  0  0  0  0  0
    0.9890    0.4810   -0.0750 C   0  0  0  0  0  0  0  0  0  0  0  0
    2.2960    0.5690    0.4580 N   0  0  0  0  0  0  0  0  0  0  0  0
    3.2180    1.5510   -0.0770 C   0  0  0  0  0  0  0  0  0  0  0  0
    4.5600    1.4960    0.6130 C   0  0  0  0  0  0  0  0  0  0  0  0
    5.3630   -0.1560    0.4250 P   0  0  0  0  0  0  0  0  0  0  0  0
    7.0960   -0.0220    0.3530 O   0  0  0  0  0  0  0  0  0  0  0  0
    4.7690   -0.9680   -1.0030 O   0  0  0  0  0  0  0  0  0  0  0  0
    0.0180   -0.4450    0.3820 N   0  0  0  0  0  0  0  0  0  0  0  0
   -1.2950   -0.4400   -0.2450 C   0  0  1  0  0  0  0  0  0  0  0  0
   -1.5540   -1.7480   -0.9600 C   0  0  0  0  0  0  0  0  0  0  0  0
   -1.5350   -2.8400   -0.1280 O   0  0  0  0  0  0  0  0  0  0  0  0
   -2.3800   -0.1740    0.7640 C   0  0  0  0  0  0  0  0  0  0  0  0
   -3.7080   -0.1750    0.1100 C   0  0  1  0  0  0  0  0  0  0  0  0
   -4.7540    0.0670    1.0300 O   0  0  0  0  0  0  0  0  0  0  0  0
   -5.8350    0.1750    0.1560 C   0  0  0  0  0  0  0  0  0  0  0  0
   -5.3720    0.9680   -0.9220 O   0  0  0  0  0  0  0  0  0  0  0  0
   -3.9620    0.9200   -0.8410 C   0  0  0  0  0  0  0  0  0  0  0  0
   -3.1350    1.6230   -1.4240 O   0  0  0  0  0  0  0  0  0  0  0  0
  1  2  2  0
  2  3  1  0
  2  9  1  0
  3  4  1  0
  4  5  1  0
  5  6  1  0
  6  7  1  0
  6  8  1  0
  9 10  1  0
 10 11  1  1
 10 13  1  0
 11 12  1  0
 14 13  1  1
 14 15  1  0
 14 18  1  0
 15 16  1  0
 16 17  1  0
 17 18  1  0
 18 19  2  0
M  END
