
     RDKit          3D

 19 19  0  0  0  0  0  0  0  0999 V2000
   -1.2890   -2.5680   -1.0270 C   0  0  0  0  0  0  0  0  0  0  0  0
   -0.5940   -2.2770    0.2720 C   0  0  2  0  0  0  0  0  0  0  0  0
   -1.4600   -1.5180    1.0520 O   0  0  0  0  0  0  0  0  0  0  0  0
   -1.1230   -0.1820    0.8130 C   0  0  1  0  0  0  0  0  0  0  0  0
   -2.1750    0.5380    0.2960 O   0  0  0  0  0  0  0  0  0  0  0  0
   -0.7490    0.3460    2.0600 O   0  0  0  0  0  0  0  0  0  0  0  0
   -2.0610    0.2390    3.1980 P   0  0  0  0  0  0  0  0  0  0  0  0
   -1.7210    0.3330    4.7100 O   0  0  0  0  0  0  0  0  0  0  0  0
    0.0830   -0.2430   -0.0730 C   0  0  2  0  0  0  0  0  0  0  0  0
    1.0330    0.7150    0.2460 O   0  0  0  0  0  0  0  0  0  0  0  0
    0.4920    1.9640   -0.0510 C   0  0  0  0  0  0  0  0  0  0  0  0
    1.4380    3.0610    0.2580 C   0  0  0  0  0  0  0  0  0  0  0  0
    2.5650    2.7700    0.7280 O   0  0  0  0  0  0  0  0  0  0  0  0
    1.1410    4.3950    0.0520 O   0  0  0  0  0  0  0  0  0  0  0  0
   -0.1970   -0.1300   -1.4190 O   0  0  0  0  0  0  0  0  0  0  0  0
    1.3080   -0.2230   -2.2790 P   0  0  0  0  0  0  0  0  0  0  0  0
    1.6680   -1.8120   -2.8170 O   0  0  0  0  0  0  0  0  0  0  0  0
    2.5790    0.2960   -1.2150 O   0  0  0  0  0  0  0  0  0  0  0  0
    0.5610   -1.5410    0.1370 O   0  0  0  0  0  0  0  0  0  0  0  0
  2  1  1  6
  2  3  1  0
  2 19  1  0
  3  4  1  0
  4  5  1  6
  4  6  1  0
  4  9  1  0
  6  7  1  0
  7  8  2  0
  9 10  1  1
  9 15  1  0
  9 19  1  0
 10 11  1  0
 11 12  1  0
 12 13  2  0
 12 14  1  0
 15 16  1  0
 16 17  1  0
 16 18  1  0
M  END
