
     RDKit          3D

 20 20  0  0  0  0  0  0  0  0999 V2000
   -4.7390    0.4840   -1.1350 C   0  0  0  0  0  0  0  0  0  0  0  0
   -3.9510    1.2030   -0.0670 C   0  0  0  0  0  0  0  0  0  0  0  0
   -3.4770    0.2500    1.0060 C   0  0  2  0  0  0  0  0  0  0  0  0
   -2.6560   -0.7470    0.5000 O   0  0  0  0  0  0  0  0  0  0  0  0
   -1.1790   -0.6830    1.4020 P   0  0  0  0  0  0  0  0  0  0  0  0
    0.1700   -1.6660    0.5880 C   0  0  0  0  0  0  0  0  0  0  0  0
    1.1520   -0.6970    0.0840 N   0  0  0  0  0  0  0  0  0  0  0  0
    2.5200   -1.0430    0.1210 C   0  0  0  0  0  0  0  0  0  0  0  0
    2.8640   -2.1800    0.5810 O   0  0  0  0  0  0  0  0  0  0  0  0
    3.5760   -0.2100   -0.3230 N   0  0  0  0  0  0  0  0  0  0  0  0
    4.9720   -0.6710   -0.2390 C   0  0  0  0  0  0  0  0  0  0  0  0
    5.8720    0.4220   -0.7810 C   0  0  0  0  0  0  0  0  0  0  0  0
    7.1900    0.0040   -0.7100 O   0  0  0  0  0  0  0  0  0  0  0  0
    0.6860    0.5700   -0.4280 C   0  0  0  0  0  0  0  0  0  0  0  0
    0.2740    1.4790    0.6930 C   0  0  0  0  0  0  0  0  0  0  0  0
    0.7940    2.5930    0.8900 O   0  0  0  0  0  0  0  0  0  0  0  0
   -0.7340    1.0260    1.5260 O   0  0  0  0  0  0  0  0  0  0  0  0
   -4.7140   -0.4430    1.5000 C   0  0  0  0  0  0  0  0  0  0  0  0
   -4.8750   -1.6840    1.4240 O   0  0  0  0  0  0  0  0  0  0  0  0
   -5.7100    0.3360    2.0620 O   0  0  0  0  0  0  0  0  0  0  0  0
  1  2  1  0
  3  2  1  6
  3  4  1  0
  3 18  1  0
  4  5  1  0
  5  6  1  0
  5 17  1  0
  6  7  1  0
  7  8  1  0
  7 14  1  0
  8  9  2  0
  8 10  1  0
 10 11  1  0
 11 12  1  0
 12 13  1  0
 14 15  1  0
 15 16  2  0
 15 17  1  0
 18 19  2  0
 18 20  1  0
M  END
