
     RDKit          3D

 19 19  0  0  0  0  0  0  0  0999 V2000
    5.4320    1.4760   -1.0720 C   0  0  0  0  0  0  0  0  0  0  0  0
    4.3430    0.6290   -1.1030 O   0  0  0  0  0  0  0  0  0  0  0  0
    3.1460    1.3550   -0.9320 C   0  0  0  0  0  0  0  0  0  0  0  0
    1.9580    0.4220   -0.9660 C   0  0  0  0  0  0  0  0  0  0  0  0
    2.1160   -0.4920    0.0710 O   0  0  0  0  0  0  0  0  0  0  0  0
    1.1310   -1.3550    0.1310 O   0  0  0  0  0  0  0  0  0  0  0  0
    0.0740   -0.9040    0.9120 C   0  0  0  0  0  0  0  0  0  0  0  0
   -0.9720   -1.9620    0.9020 C   0  0  0  0  0  0  0  0  0  0  0  0
   -2.1660   -1.7680    0.4630 N   0  0  0  0  0  0  0  0  0  0  0  0
   -2.4750   -0.4580   -0.0350 C   0  0  0  0  0  0  0  0  0  0  0  0
   -2.6490   -0.1140   -1.3030 C   0  0  0  0  0  0  0  0  0  0  0  0
   -2.9290    1.2450   -1.3160 O   0  0  0  0  0  0  0  0  0  0  0  0
   -3.1060    1.7500   -0.0200 C   0  0  1  0  0  0  0  0  0  0  0  0
   -4.4270    2.0820    0.2670 O   0  0  0  0  0  0  0  0  0  0  0  0
   -4.4760    3.3250    0.6950 O   0  0  0  0  0  0  0  0  0  0  0  0
   -2.6360    0.6640    0.8160 N   0  0  0  0  0  0  0  0  0  0  0  0
   -0.6730   -3.2300    1.3830 O   0  0  0  0  0  0  0  0  0  0  0  0
   -1.4140   -4.3280    0.8750 C   0  0  0  0  0  0  0  0  0  0  0  0
   -0.9390   -5.4660    1.4980 F   0  0  0  0  0  0  0  0  0  0  0  0
  1  2  1  0
  2  3  1  0
  3  4  1  0
  4  5  1  0
  5  6  1  0
  6  7  1  0
  7  8  1  0
  8  9  2  3
  8 17  1  0
  9 10  1  0
 10 11  2  0
 10 16  1  0
 11 12  1  0
 12 13  1  0
 13 14  1  1
 13 16  1  0
 14 15  1  0
 17 18  1  0
 18 19  1  0
M  END
