
     RDKit          3D

 20 20  0  0  0  0  0  0  0  0999 V2000
    0.6520   -1.7190    1.9210 O   0  0  0  0  0  0  0  0  0  0  0  0
   -0.4370   -2.2370    2.2670 C   0  0  0  0  0  0  0  0  0  0  0  0
   -1.4020   -2.3660    1.2860 O   0  0  0  0  0  0  0  0  0  0  0  0
   -1.1390   -1.9290   -0.0160 C   0  0  1  0  0  0  0  0  0  0  0  0
   -0.0690   -2.5680   -0.5840 O   0  0  0  0  0  0  0  0  0  0  0  0
   -2.2590   -2.3680   -0.7880 O   0  0  0  0  0  0  0  0  0  0  0  0
   -2.0790   -1.7000   -1.9600 O   0  0  0  0  0  0  0  0  0  0  0  0
   -1.6210   -0.4240   -1.6860 C   0  0  0  0  0  0  0  0  0  0  0  0
   -1.4890    0.6040   -2.3740 O   0  0  0  0  0  0  0  0  0  0  0  0
   -1.2510   -0.4690   -0.2240 C   0  0  2  0  0  0  0  0  0  0  0  0
   -0.1930    0.3270    0.0070 O   0  0  0  0  0  0  0  0  0  0  0  0
    0.9540    0.1680   -0.6960 C   0  0  0  0  0  0  0  0  0  0  0  0
    2.0180    1.1770   -0.3000 C   0  0  0  0  0  0  0  0  0  0  0  0
    1.5890    2.4850   -0.5160 O   0  0  0  0  0  0  0  0  0  0  0  0
    2.9130    3.5180   -0.0160 P   0  0  0  0  0  0  0  0  0  0  0  0
    3.9740    2.6820    1.0630 O   0  0  0  0  0  0  0  0  0  0  0  0
    3.8170    4.0990   -1.3470 O   0  0  0  0  0  0  0  0  0  0  0  0
   -2.7910    0.1140    0.6650 P   0  0  0  0  0  0  0  0  0  0  0  0
   -3.7900   -1.2440    1.0820 O   0  0  0  0  0  0  0  0  0  0  0  0
   -3.7400    1.1470   -0.3710 O   0  0  0  0  0  0  0  0  0  0  0  0
  1  2  2  0
  2  3  1  0
  3  4  1  0
  4  5  1  6
  4  6  1  0
  4 10  1  0
  6  7  1  0
  7  8  1  0
  8  9  2  0
  8 10  1  0
 10 11  1  6
 10 18  1  0
 11 12  1  0
 12 13  1  0
 13 14  1  0
 14 15  1  0
 15 16  1  0
 15 17  1  0
 18 19  1  0
 18 20  1  0
M  END
