
     RDKit          3D

 20 19  0  0  0  0  0  0  0  0999 V2000
    4.4770    0.4040    2.1550 C   0  0  0  0  0  0  0  0  0  0  0  0
    4.0600    0.6390    0.7620 C   0  0  0  0  0  0  0  0  0  0  0  0
    5.1180    0.7500   -0.2670 C   0  0  0  0  0  0  0  0  0  0  0  0
    2.8070    0.6990    0.4040 C   0  0  0  0  0  0  0  0  0  0  0  0
    2.2060    0.9110   -0.9280 C   0  0  0  0  0  0  0  0  0  0  0  0
    1.7880   -0.3380   -1.6250 C   0  0  0  0  0  0  0  0  0  0  0  0
    0.7950   -1.0940   -0.7570 C   0  0  0  0  0  0  0  0  0  0  0  0
    1.1830   -2.4080   -0.1520 C   0  0  0  0  0  0  0  0  0  0  0  0
   -0.3640   -0.6100   -0.6380 C   0  0  0  0  0  0  0  0  0  0  0  0
   -0.5810    0.5980   -1.3750 F   0  0  0  0  0  0  0  0  0  0  0  0
   -1.5510   -1.0870    0.1150 C   0  0  0  0  0  0  0  0  0  0  0  0
   -2.5410   -1.3000   -0.9030 O   0  0  0  0  0  0  0  0  0  0  0  0
   -3.7640   -0.2480   -0.6270 P   0  0  1  0  0  0  0  0  0  0  0  0
   -3.2310    0.9510    0.2300 O   0  0  0  0  0  0  0  0  0  0  0  0
   -4.3860    0.3820   -2.1060 O   0  0  0  0  0  0  0  0  0  0  0  0
   -5.0750   -0.7820    0.2340 O   0  0  0  0  0  0  0  0  0  0  0  0
   -5.9290    0.6600    0.7590 P   0  0  2  0  0  0  0  0  0  0  0  0
   -7.3790    0.3850    0.7010 O   0  0  0  0  0  0  0  0  0  0  0  0
   -5.4510    1.9930   -0.1630 O   0  0  0  0  0  0  0  0  0  0  0  0
   -5.4110    0.9190    2.3270 O   0  0  0  0  0  0  0  0  0  0  0  0
  1  2  1  0
  2  3  1  0
  2  4  2  3
  4  5  1  0
  5  6  1  0
  6  7  1  0
  7  8  1  0
  7  9  2  3
  9 10  1  0
  9 11  1  0
 11 12  1  0
 12 13  1  0
 13 14  2  0
 13 15  1  6
 13 16  1  0
 16 17  1  0
 17 18  2  0
 17 19  1  6
 17 20  1  0
M  END
