
     RDKit          3D

 27 28  0  0  0  0  0  0  0  0999 V2000
   -3.8590   -4.1240   -1.4500 O   0  0  0  0  0  0  0  0  0  0  0  0
   -2.8900   -3.4120   -1.0870 C   0  0  0  0  0  0  0  0  0  0  0  0
   -1.6800   -3.3170   -1.6970 O   0  0  0  0  0  0  0  0  0  0  0  0
   -1.0210   -2.2020   -2.1840 C   0  0  0  0  0  0  0  0  0  0  0  0
    0.0490   -1.8310   -1.3640 O   0  0  0  0  0  0  0  0  0  0  0  0
    0.7390   -0.7400   -1.8890 C   0  0  0  0  0  0  0  0  0  0  0  0
    1.6250   -0.0910   -0.8710 C   0  0  2  0  0  0  0  0  0  0  0  0
    1.4110   -0.4930    0.4120 O   0  0  0  0  0  0  0  0  0  0  0  0
    2.4330   -1.1100    1.0670 C   0  0  0  0  0  0  0  0  0  0  0  0
    3.6800   -0.2590    1.2090 C   0  0  0  0  0  0  0  0  0  0  0  0
    3.4040    0.9150    1.9220 O   0  0  0  0  0  0  0  0  0  0  0  0
    4.5100    1.6070    2.0130 O   0  0  0  0  0  0  0  0  0  0  0  0
    5.2660    1.4410    0.9280 O   0  0  0  0  0  0  0  0  0  0  0  0
    1.4750    1.3690   -0.9610 C   0  0  0  0  0  0  0  0  0  0  0  0
    2.3850    2.0100   -1.5980 O   0  0  0  0  0  0  0  0  0  0  0  0
    0.4640    2.1130   -0.4350 O   0  0  0  0  0  0  0  0  0  0  0  0
   -0.1470    2.0060    0.8090 C   0  0  0  0  0  0  0  0  0  0  0  0
   -1.5440    2.6190    0.8280 C   0  0  2  0  0  0  0  0  0  0  0  0
   -2.3030    1.9250    1.8080 O   0  0  0  0  0  0  0  0  0  0  0  0
   -2.7230    0.6080    1.5520 C   0  0  0  0  0  0  0  0  0  0  0  0
   -2.9840   -0.2060    2.4800 O   0  0  0  0  0  0  0  0  0  0  0  0
   -2.8500    0.2010    0.1270 C   0  0  1  0  0  0  0  0  0  0  0  0
   -3.9340   -0.8440    0.0080 C   0  0  0  0  0  0  0  0  0  0  0  0
   -3.1860   -2.4460    0.3850 S   0  0  0  0  0  0  0  0  0  0  0  0
   -3.1100    1.3510   -0.6580 O   0  0  0  0  0  0  0  0  0  0  0  0
   -2.2400    2.4230   -0.4790 C   0  0  0  0  0  0  0  0  0  0  0  0
   -2.0040    3.2650   -1.3940 O   0  0  0  0  0  0  0  0  0  0  0  0
  1  2  2  0
  2  3  1  0
  2 24  1  0
  3  4  1  0
  4  5  1  0
  5  6  1  0
  6  7  1  0
  7  8  1  1
  7 14  1  0
  8  9  1  0
  9 10  1  0
 10 11  1  0
 11 12  1  0
 12 13  1  0
 14 15  2  0
 14 16  1  0
 16 17  1  0
 18 17  1  6
 18 19  1  0
 18 26  1  0
 19 20  1  0
 20 21  2  0
 20 22  1  0
 22 23  1  1
 22 25  1  0
 23 24  1  0
 25 26  1  0
 26 27  2  0
M  END
