
     RDKit          3D

 27 28  0  0  0  0  0  0  0  0999 V2000
    1.5460   -3.3870   -0.2800 O   0  0  0  0  0  0  0  0  0  0  0  0
    2.3870   -2.5720   -0.6860 C   0  0  0  0  0  0  0  0  0  0  0  0
    2.0580   -1.2580   -0.6680 O   0  0  0  0  0  0  0  0  0  0  0  0
    0.8530   -0.6640   -0.2350 C   0  0  2  0  0  0  0  0  0  0  0  0
    0.6460   -0.9870    1.1960 C   0  0  0  0  0  0  0  0  0  0  0  0
   -0.0520   -2.2030    1.4260 O   0  0  0  0  0  0  0  0  0  0  0  0
   -1.3110   -2.3040    0.7910 C   0  0  0  0  0  0  0  0  0  0  0  0
   -2.1020   -3.2330    0.9510 O   0  0  0  0  0  0  0  0  0  0  0  0
   -1.5440   -1.1170   -0.1070 C   0  0  1  0  0  0  0  0  0  0  0  0
   -0.3400   -1.1680   -1.0620 C   0  0  0  0  0  0  0  0  0  0  0  0
   -2.6770   -1.1140   -0.7890 O   0  0  0  0  0  0  0  0  0  0  0  0
   -3.8200   -0.6440   -0.3090 C   0  0  0  0  0  0  0  0  0  0  0  0
   -3.8620    0.4790    0.6440 C   0  0  1  0  0  0  0  0  0  0  0  0
   -3.2530    0.1740    1.8840 O   0  0  0  0  0  0  0  0  0  0  0  0
   -3.5150    1.8250    0.1460 C   0  0  0  0  0  0  0  0  0  0  0  0
   -2.4310    1.9660   -0.6480 O   0  0  0  0  0  0  0  0  0  0  0  0
   -1.5140    2.9240   -0.2650 C   0  0  0  0  0  0  0  0  0  0  0  0
   -0.4740    2.4520    0.7150 C   0  0  0  0  0  0  0  0  0  0  0  0
    0.6340    1.8460    0.1910 O   0  0  0  0  0  0  0  0  0  0  0  0
    0.9350    0.7900   -0.5620 C   0  0  0  0  0  0  0  0  0  0  0  0
    1.3690    0.9750   -1.7660 O   0  0  0  0  0  0  0  0  0  0  0  0
    3.9930   -3.0670   -1.2830 S   0  0  0  0  0  0  0  0  0  0  0  0
    5.0330   -1.6670   -1.7480 C   0  0  0  0  0  0  0  0  0  0  0  0
    5.4210   -0.8770   -0.6750 O   0  0  0  0  0  0  0  0  0  0  0  0
    4.4120   -0.3500   -0.0270 O   0  0  0  0  0  0  0  0  0  0  0  0
    4.6430    0.8890    0.3420 O   0  0  0  0  0  0  0  0  0  0  0  0
    5.8400    0.9380    0.8870 O   0  0  0  0  0  0  0  0  0  0  0  0
  1  2  2  0
  2  3  1  0
  2 22  1  0
  4  3  1  6
  4  5  1  0
  4 10  1  0
  4 20  1  0
  5  6  1  0
  6  7  1  0
  7  8  2  0
  7  9  1  0
  9 10  1  0
  9 11  1  6
 11 12  1  0
 12 13  1  0
 13 14  1  1
 13 15  1  0
 15 16  1  0
 16 17  1  0
 17 18  1  0
 18 19  1  0
 19 20  1  0
 20 21  2  0
 22 23  1  0
 23 24  1  0
 24 25  1  0
 25 26  1  0
 26 27  1  0
M  END
