
     RDKit          3D

 20 19  0  0  0  0  0  0  0  0999 V2000
    5.6970   -1.3760    0.8710 C   0  0  0  0  0  0  0  0  0  0  0  0
    4.5160   -0.5000    1.0160 C   0  0  0  0  0  0  0  0  0  0  0  0
    4.6810    0.8840    1.5180 C   0  0  0  0  0  0  0  0  0  0  0  0
    3.3040   -0.9400    0.6990 C   0  0  0  0  0  0  0  0  0  0  0  0
    2.1070   -0.0810    0.8350 C   0  0  0  0  0  0  0  0  0  0  0  0
    1.4090    0.1960   -0.4430 C   0  0  0  0  0  0  0  0  0  0  0  0
    0.8790   -0.9280   -1.1980 C   0  0  0  0  0  0  0  0  0  0  0  0
    1.8100   -1.9260   -1.8580 C   0  0  0  0  0  0  0  0  0  0  0  0
   -0.4240   -1.0940   -1.3520 C   0  0  0  0  0  0  0  0  0  0  0  0
   -0.8380   -2.1890   -2.0870 F   0  0  0  0  0  0  0  0  0  0  0  0
   -1.3970   -0.1860   -0.7650 C   0  0  0  0  0  0  0  0  0  0  0  0
   -2.1540    0.3810   -1.7820 O   0  0  0  0  0  0  0  0  0  0  0  0
   -3.2540    1.4200   -1.0160 P   0  0  0  0  0  0  0  0  0  0  0  0
   -2.0570    2.3340   -0.6910 O   0  0  0  0  0  0  0  0  0  0  0  0
   -4.0420    2.5110   -1.9280 O   0  0  0  0  0  0  0  0  0  0  0  0
   -3.6150    1.2260    0.5610 O   0  0  0  0  0  0  0  0  0  0  0  0
   -4.9970    0.9370    1.1120 P   0  0  0  0  0  0  0  0  0  0  0  0
   -5.7420    2.0280    0.1090 O   0  0  0  0  0  0  0  0  0  0  0  0
   -4.5430    1.3630    2.6330 O   0  0  0  0  0  0  0  0  0  0  0  0
   -4.8960   -0.6400    0.6520 O   0  0  0  0  0  0  0  0  0  0  0  0
  1  2  1  0
  2  3  1  0
  2  4  2  3
  4  5  1  0
  5  6  1  0
  6  7  1  0
  7  8  1  0
  7  9  2  3
  9 10  1  0
  9 11  1  0
 11 12  1  0
 12 13  1  0
 13 14  1  0
 13 15  1  0
 13 16  1  0
 16 17  1  0
 17 18  1  0
 17 19  1  0
 17 20  1  0
M  END
