
     RDKit          3D

 27 28  0  0  0  0  0  0  0  0999 V2000
   -5.2560    1.4260    0.1540 O   0  0  0  0  0  0  0  0  0  0  0  0
   -5.1510    0.8270   -0.9620 C   0  0  0  0  0  0  0  0  0  0  0  0
   -4.1820   -0.1570   -1.1090 O   0  0  0  0  0  0  0  0  0  0  0  0
   -3.3600   -0.4500   -0.0240 C   0  0  1  0  0  0  0  0  0  0  0  0
   -3.3930   -1.7990    0.3400 O   0  0  0  0  0  0  0  0  0  0  0  0
   -2.4360   -1.8480    1.3500 C   0  0  0  0  0  0  0  0  0  0  0  0
   -1.3010   -0.9880    0.8490 C   0  0  0  0  0  0  0  0  0  0  0  0
   -0.2110   -0.9400    1.3570 O   0  0  0  0  0  0  0  0  0  0  0  0
   -1.8780   -0.2940   -0.3350 C   0  0  1  0  0  0  0  0  0  0  0  0
   -1.5080   -1.0230   -1.5660 C   0  0  0  0  0  0  0  0  0  0  0  0
   -1.6940   -0.4320   -2.6610 O   0  0  0  0  0  0  0  0  0  0  0  0
   -0.9860   -2.2820   -1.5410 O   0  0  0  0  0  0  0  0  0  0  0  0
    0.0660   -2.8200   -0.8870 C   0  0  0  0  0  0  0  0  0  0  0  0
   -0.0240   -3.7910   -0.0840 O   0  0  0  0  0  0  0  0  0  0  0  0
    1.4350   -2.2810   -1.0830 C   0  0  0  0  0  0  0  0  0  0  0  0
    2.2400   -2.4960    0.0610 O   0  0  0  0  0  0  0  0  0  0  0  0
    3.2940   -1.7010    0.4400 C   0  0  0  0  0  0  0  0  0  0  0  0
    4.4190   -2.1510    0.7650 O   0  0  0  0  0  0  0  0  0  0  0  0
    3.0910   -0.2320    0.4640 C   0  0  0  0  0  0  0  0  0  0  0  0
    4.2990    0.4580    0.6420 O   0  0  0  0  0  0  0  0  0  0  0  0
    4.1600    1.6180    0.0280 O   0  0  0  0  0  0  0  0  0  0  0  0
    3.2860    2.4060    0.7450 C   0  0  0  0  0  0  0  0  0  0  0  0
    2.0700    2.8300   -0.0250 C   0  0  0  0  0  0  0  0  0  0  0  0
    0.9520    2.0630    0.2550 O   0  0  0  0  0  0  0  0  0  0  0  0
    0.1950    1.7670   -0.8760 C   0  0  0  0  0  0  0  0  0  0  0  0
   -1.4770    1.4430   -0.3890 S   0  0  0  0  0  0  0  0  0  0  0  0
   -2.4990    2.2360   -1.1710 O   0  0  0  0  0  0  0  0  0  0  0  0
  1  2  2  0
  2  3  1  0
  4  3  1  6
  4  5  1  0
  4  9  1  0
  5  6  1  0
  6  7  1  0
  7  8  2  0
  9  7  1  1
  9 10  1  0
  9 26  1  0
 10 11  2  0
 10 12  1  0
 12 13  1  0
 13 14  2  0
 13 15  1  0
 15 16  1  0
 16 17  1  0
 17 18  2  0
 17 19  1  0
 19 20  1  0
 20 21  1  0
 21 22  1  0
 22 23  1  0
 23 24  1  0
 24 25  1  0
 26 25  1  6
 26 27  2  0
M  END
