
     RDKit          3D

 27 29  0  0  0  0  0  0  0  0999 V2000
   -1.7700    0.7810    3.8960 O   0  0  0  0  0  0  0  0  0  0  0  0
   -1.1380    1.4440    3.1180 C   0  0  0  0  0  0  0  0  0  0  0  0
   -0.6260    2.7700    3.5020 C   0  0  0  0  0  0  0  0  0  0  0  0
    0.4510    3.1900    2.6760 O   0  0  0  0  0  0  0  0  0  0  0  0
    1.0480    2.3840    1.7370 C   0  0  0  0  0  0  0  0  0  0  0  0
    1.9590    2.8190    0.9810 O   0  0  0  0  0  0  0  0  0  0  0  0
    0.6360    0.9620    1.5800 C   0  0  2  0  0  0  0  0  0  0  0  0
    1.0640    0.4190    0.3670 O   0  0  0  0  0  0  0  0  0  0  0  0
    1.9290   -0.6700    0.3150 C   0  0  0  0  0  0  0  0  0  0  0  0
    2.3120   -1.1490    1.3950 O   0  0  0  0  0  0  0  0  0  0  0  0
    2.4090   -1.2780   -0.9410 C   0  0  1  0  0  0  0  0  0  0  0  0
    1.9160   -0.6630   -2.0660 O   0  0  0  0  0  0  0  0  0  0  0  0
    3.9260   -1.1870   -0.9410 C   0  0  1  0  0  0  0  0  0  0  0  0
    4.5090    0.5150   -1.0620 S   0  0  0  0  0  0  0  0  0  0  0  0
    4.1120    1.2150   -2.5760 O   0  0  0  0  0  0  0  0  0  0  0  0
    4.4780   -1.7970    0.1810 O   0  0  0  0  0  0  0  0  0  0  0  0
    5.2670   -2.7640   -0.2940 O   0  0  0  0  0  0  0  0  0  0  0  0
    5.6640   -2.2950   -1.4720 O   0  0  0  0  0  0  0  0  0  0  0  0
    4.4810   -1.9460   -1.9800 O   0  0  0  0  0  0  0  0  0  0  0  0
   -0.8700    0.9310    1.7590 C   0  0  1  0  0  0  0  0  0  0  0  0
   -1.4130   -0.3020    1.5150 O   0  0  0  0  0  0  0  0  0  0  0  0
   -2.3300   -0.2280    0.5120 C   0  0  2  0  0  0  0  0  0  0  0  0
   -3.7280   -0.6400    0.9240 C   0  0  0  0  0  0  0  0  0  0  0  0
   -4.4790   -0.9210   -0.3630 C   0  0  0  0  0  0  0  0  0  0  0  0
   -4.0140   -0.1190   -1.4140 O   0  0  0  0  0  0  0  0  0  0  0  0
   -2.7570   -0.5220   -1.8560 C   0  0  0  0  0  0  0  0  0  0  0  0
   -1.9770   -1.1080   -0.6860 C   0  0  0  0  0  0  0  0  0  0  0  0
  1  2  2  0
  2  3  1  0
  2 20  1  0
  3  4  1  0
  4  5  1  0
  5  6  2  0
  5  7  1  0
  7  8  1  6
  7 20  1  0
  8  9  1  0
  9 10  2  0
  9 11  1  0
 11 12  1  6
 11 13  1  0
 13 14  1  6
 13 16  1  0
 13 19  1  0
 14 15  1  0
 16 17  1  0
 17 18  1  0
 18 19  1  0
 20 21  1  1
 22 21  1  1
 22 23  1  0
 22 27  1  0
 23 24  1  0
 24 25  1  0
 25 26  1  0
 26 27  1  0
M  END
