
     RDKit          3D

 33 34  0  0  0  0  0  0  0  0999 V2000
   -5.5000    0.3950    2.4290 C   0  0  0  0  0  0  0  0  0  0  0  0
   -4.2320    0.2610    2.7680 C   0  0  0  0  0  0  0  0  0  0  0  0
   -3.2220    0.0360    1.7950 N   0  0  0  0  0  0  0  0  0  0  0  0
   -2.2270   -0.8860    1.9170 N   0  0  0  0  0  0  0  0  0  0  0  0
   -1.2800   -1.1000    1.0080 C   0  0  0  0  0  0  0  0  0  0  0  0
   -0.3700   -2.0890    1.3520 N   0  0  0  0  0  0  0  0  0  0  0  0
   -0.8170   -3.1400    2.0050 C   0  0  0  0  0  0  0  0  0  0  0  0
    0.1130   -4.1450    2.3540 N   0  0  0  0  0  0  0  0  0  0  0  0
   -1.2550   -0.3380   -0.2010 C   0  0  0  0  0  0  0  0  0  0  0  0
   -0.4450   -0.3890   -1.2340 C   0  0  0  0  0  0  0  0  0  0  0  0
   -0.7980    0.5900   -2.2700 N   0  0  0  0  0  0  0  0  0  0  0  0
   -0.1790    0.7750   -3.3360 C   0  0  0  0  0  0  0  0  0  0  0  0
    1.0010   -0.0120   -3.6360 C   0  0  0  0  0  0  0  0  0  0  0  0
    1.3920   -0.9140   -2.7700 C   0  0  0  0  0  0  0  0  0  0  0  0
    0.6740   -1.1550   -1.5010 N   0  0  0  0  0  0  0  0  0  0  0  0
    1.1900   -2.1720   -0.6770 C   0  0  0  0  0  0  0  0  0  0  0  0
    2.4320   -1.9340    0.0910 C   0  0  2  0  0  0  0  0  0  0  0  0
    2.4090   -0.9020    0.9940 O   0  0  0  0  0  0  0  0  0  0  0  0
    3.7000   -1.9490   -0.7460 C   0  0  0  0  0  0  0  0  0  0  0  0
    4.8480   -2.1510   -0.0240 O   0  0  0  0  0  0  0  0  0  0  0  0
    5.1760   -1.2480    0.9360 C   0  0  0  0  0  0  0  0  0  0  0  0
    5.3980    0.1450    0.4080 C   0  0  0  0  0  0  0  0  0  0  0  0
    5.7480    1.1280    1.4720 C   0  0  0  0  0  0  0  0  0  0  0  0
    6.9930    0.8030    2.2320 C   0  0  0  0  0  0  0  0  0  0  0  0
   -2.3730    0.6680   -0.2780 C   0  0  0  0  0  0  0  0  0  0  0  0
   -2.4940    1.6230   -1.3360 N   0  0  0  0  0  0  0  0  0  0  0  0
   -3.7110    1.8650   -2.0580 C   0  0  0  0  0  0  0  0  0  0  0  0
   -4.7690    2.5200   -1.1970 C   0  0  0  0  0  0  0  0  0  0  0  0
   -5.8960    2.7050   -1.9970 O   0  0  0  0  0  0  0  0  0  0  0  0
   -7.1790    3.4610   -1.0970 P   0  0  0  0  0  0  0  0  0  0  0  0
   -7.4650    2.5970    0.3950 O   0  0  0  0  0  0  0  0  0  0  0  0
   -6.6600    5.0980   -0.7300 O   0  0  0  0  0  0  0  0  0  0  0  0
   -3.2270    0.7950    0.6370 N   0  0  0  0  0  0  0  0  0  0  0  0
  1  2  2  0
  2  3  1  0
  3  4  1  0
  3 33  1  0
  4  5  2  0
  5  6  1  0
  5  9  1  0
  6  7  2  3
  7  8  1  0
  9 10  2  3
  9 25  1  0
 10 11  1  0
 10 15  1  0
 11 12  2  0
 12 13  1  0
 13 14  2  0
 14 15  1  0
 15 16  1  0
 16 17  1  0
 17 18  1  6
 17 19  1  0
 19 20  1  0
 20 21  1  0
 21 22  1  0
 22 23  1  0
 23 24  1  0
 25 26  1  0
 25 33  2  0
 26 27  1  0
 27 28  1  0
 28 29  1  0
 29 30  1  0
 30 31  1  0
 30 32  1  0
M  END
