
     RDKit          3D

 33 34  0  0  0  0  0  0  0  0999 V2000
    9.0850   -1.0160    0.2740 C   0  0  0  0  0  0  0  0  0  0  0  0
    7.6620   -0.6530   -0.0610 C   0  0  2  0  0  0  0  0  0  0  0  0
    7.6070    0.1270   -1.2920 N   0  0  0  0  0  0  0  0  0  0  0  0
    7.0190    0.2070    1.0130 C   0  0  0  0  0  0  0  0  0  0  0  0
    5.6360    0.5130    0.6070 C   0  0  0  0  0  0  0  0  0  0  0  0
    5.1580    0.0610   -0.4790 O   0  0  0  0  0  0  0  0  0  0  0  0
    4.7530    1.3150    1.3770 N   0  0  0  0  0  0  0  0  0  0  0  0
    3.3970    1.6150    0.9810 C   0  0  0  0  0  0  0  0  0  0  0  0
    2.5590    0.4020    1.2420 C   0  0  0  0  0  0  0  0  0  0  0  0
    3.0400   -0.6920    1.8420 N   0  0  0  0  0  0  0  0  0  0  0  0
    2.2840   -1.7420    2.0610 N   0  0  0  0  0  0  0  0  0  0  0  0
    0.9920   -1.7450    1.6820 C   0  0  0  0  0  0  0  0  0  0  0  0
    0.4630   -0.6380    1.0610 C   0  0  0  0  0  0  0  0  0  0  0  0
   -0.9360   -0.7890    0.6290 C   0  0  0  0  0  0  0  0  0  0  0  0
   -1.2080   -1.8930    0.1070 N   0  0  0  0  0  0  0  0  0  0  0  0
   -2.4090   -2.3970   -0.3960 C   0  0  0  0  0  0  0  0  0  0  0  0
   -3.2140   -3.2390    0.3660 C   0  0  0  0  0  0  0  0  0  0  0  0
   -4.4060   -3.7360   -0.0970 C   0  0  0  0  0  0  0  0  0  0  0  0
   -4.8740   -3.4230   -1.3550 C   0  0  0  0  0  0  0  0  0  0  0  0
   -6.4440   -4.0510   -2.0210 P   0  0  0  0  0  0  0  0  0  0  0  0
   -7.8040   -3.1890   -1.4370 O   0  0  0  0  0  0  0  0  0  0  0  0
   -6.4380   -4.1880   -3.7390 O   0  0  0  0  0  0  0  0  0  0  0  0
   -4.0870   -2.5940   -2.1130 C   0  0  0  0  0  0  0  0  0  0  0  0
   -2.8670   -2.0810   -1.6490 C   0  0  0  0  0  0  0  0  0  0  0  0
   -1.8890    0.1530    0.3240 N   0  0  0  0  0  0  0  0  0  0  0  0
   -2.4500    1.2120    1.0030 C   0  0  0  0  0  0  0  0  0  0  0  0
   -2.0820    1.2890    2.1850 O   0  0  0  0  0  0  0  0  0  0  0  0
   -3.3540    2.0970    0.4130 N   0  0  0  0  0  0  0  0  0  0  0  0
   -3.9720    3.1680    1.1340 C   0  0  0  0  0  0  0  0  0  0  0  0
   -4.9210    3.9160    0.2060 C   0  0  0  0  0  0  0  0  0  0  0  0
   -4.2420    4.5180   -0.9810 C   0  0  0  0  0  0  0  0  0  0  0  0
   -5.2440    5.1660   -1.7300 O   0  0  0  0  0  0  0  0  0  0  0  0
    1.2500    0.4130    0.8520 N   0  0  0  0  0  0  0  0  0  0  0  0
  2  1  1  1
  2  3  1  0
  2  4  1  0
  4  5  1  0
  5  6  2  0
  5  7  1  0
  7  8  1  0
  8  9  1  0
  9 10  2  0
  9 33  1  0
 10 11  1  0
 11 12  2  0
 12 13  1  0
 13 14  1  0
 13 33  2  0
 14 15  2  3
 14 25  1  0
 15 16  1  0
 16 17  2  0
 16 24  1  0
 17 18  1  0
 18 19  2  0
 19 20  1  0
 19 23  1  0
 20 21  1  0
 20 22  1  0
 23 24  2  0
 25 26  1  0
 26 27  2  0
 26 28  1  0
 28 29  1  0
 29 30  1  0
 30 31  1  0
 31 32  1  0
M  END
