
     RDKit          3D

 33 34  0  0  0  0  0  0  0  0999 V2000
   -5.0230    4.4510    0.8120 C   0  0  0  0  0  0  0  0  0  0  0  0
   -4.8920    2.9810    0.4160 C   0  0  0  0  0  0  0  0  0  0  0  0
   -3.7720    2.8040   -0.5700 C   0  0  0  0  0  0  0  0  0  0  0  0
   -3.6450    1.3750   -0.9860 C   0  0  0  0  0  0  0  0  0  0  0  0
   -3.3530    0.4170    0.1370 C   0  0  0  0  0  0  0  0  0  0  0  0
   -2.1660    0.7920    0.7390 O   0  0  0  0  0  0  0  0  0  0  0  0
   -1.7530   -0.0210    1.7510 C   0  0  0  0  0  0  0  0  0  0  0  0
   -1.3650   -1.4130    1.4040 C   0  0  0  0  0  0  0  0  0  0  0  0
   -0.1410   -1.4540    0.4730 C   0  0  2  0  0  0  0  0  0  0  0  0
    0.1890   -2.9080    0.1980 C   0  0  0  0  0  0  0  0  0  0  0  0
   -0.6380   -3.6280   -0.6720 N   0  0  0  0  0  0  0  0  0  0  0  0
   -1.5220   -2.9850   -1.5680 C   0  0  0  0  0  0  0  0  0  0  0  0
   -1.6800   -1.7830   -1.7250 O   0  0  0  0  0  0  0  0  0  0  0  0
    1.0730   -3.5060    0.9890 C   0  0  0  0  0  0  0  0  0  0  0  0
    1.7000   -2.8060    2.1100 C   0  0  0  0  0  0  0  0  0  0  0  0
    2.5840   -3.4320    2.8150 N   0  0  0  0  0  0  0  0  0  0  0  0
    2.9760   -4.7620    2.5500 C   0  0  0  0  0  0  0  0  0  0  0  0
    2.4640   -5.4170    1.5810 N   0  0  0  0  0  0  0  0  0  0  0  0
    1.4790   -4.8640    0.7130 N   0  0  0  0  0  0  0  0  0  0  0  0
    1.0710   -5.6130   -0.4360 C   0  0  0  0  0  0  0  0  0  0  0  0
    1.3980   -1.3820    2.4290 C   0  0  0  0  0  0  0  0  0  0  0  0
    0.9720   -0.8120    1.1630 N   0  0  0  0  0  0  0  0  0  0  0  0
    1.6130    0.3040    0.6460 C   0  0  0  0  0  0  0  0  0  0  0  0
    2.5550    0.8440    1.2710 O   0  0  0  0  0  0  0  0  0  0  0  0
    1.2100    0.8900   -0.6500 C   0  0  0  0  0  0  0  0  0  0  0  0
    2.0110    2.0520   -0.9870 N   0  0  0  0  0  0  0  0  0  0  0  0
    1.8270    3.2480   -0.1510 C   0  0  0  0  0  0  0  0  0  0  0  0
    2.9440    2.1060   -2.0530 C   0  0  0  0  0  0  0  0  0  0  0  0
    2.7540    2.8960   -3.0740 N   0  0  0  0  0  0  0  0  0  0  0  0
    4.1150    1.3100   -2.0560 N   0  0  0  0  0  0  0  0  0  0  0  0
    5.6310    1.8510   -2.8590 P   0  0  0  0  0  0  0  0  0  0  0  0
    6.8070    2.1480   -1.5880 O   0  0  0  0  0  0  0  0  0  0  0  0
    5.3660    3.3480   -3.6970 O   0  0  0  0  0  0  0  0  0  0  0  0
  1  2  1  0
  2  3  1  0
  3  4  1  0
  4  5  1  0
  5  6  1  0
  6  7  1  0
  7  8  1  0
  9  8  1  1
  9 10  1  0
  9 22  1  0
 10 11  1  0
 10 14  2  0
 11 12  1  0
 12 13  2  0
 14 15  1  0
 14 19  1  0
 15 16  2  0
 15 21  1  0
 16 17  1  0
 17 18  2  0
 18 19  1  0
 19 20  1  0
 21 22  1  0
 22 23  1  0
 23 24  2  0
 23 25  1  0
 25 26  1  0
 26 27  1  0
 26 28  1  0
 28 29  2  0
 28 30  1  0
 30 31  1  0
 31 32  1  0
 31 33  1  0
M  END
