
     RDKit          3D

 33 34  0  0  0  0  0  0  0  0999 V2000
    0.6800   -2.7000    0.9750 N   0  0  0  0  0  0  0  0  0  0  0  0
    0.3980   -2.0780   -0.1110 C   0  0  0  0  0  0  0  0  0  0  0  0
   -0.4850   -0.9600   -0.0380 N   0  0  0  0  0  0  0  0  0  0  0  0
   -1.4930   -0.8770    0.9840 C   0  0  2  0  0  0  0  0  0  0  0  0
   -2.4240   -2.0580    0.8670 C   0  0  0  0  0  0  0  0  0  0  0  0
   -3.1260   -2.1070   -0.4710 C   0  0  0  0  0  0  0  0  0  0  0  0
   -4.2280   -3.6090   -0.4710 P   0  0  0  0  0  0  0  0  0  0  0  0
   -3.3410   -5.0680   -0.2920 O   0  0  0  0  0  0  0  0  0  0  0  0
   -5.4810   -3.4270    0.7020 O   0  0  0  0  0  0  0  0  0  0  0  0
   -2.2150    0.3790    0.8170 N   0  0  0  0  0  0  0  0  0  0  0  0
   -2.2560    1.3730    1.8130 C   0  0  0  0  0  0  0  0  0  0  0  0
   -1.6150    1.1080    2.8880 O   0  0  0  0  0  0  0  0  0  0  0  0
   -2.9640    2.6350    1.6800 C   0  0  0  0  0  0  0  0  0  0  0  0
   -2.9580    3.5530    2.7090 C   0  0  0  0  0  0  0  0  0  0  0  0
   -3.5980    4.7360    2.6350 N   0  0  0  0  0  0  0  0  0  0  0  0
   -4.2820    5.0470    1.5020 C   0  0  0  0  0  0  0  0  0  0  0  0
   -4.8670    6.1680    1.4780 O   0  0  0  0  0  0  0  0  0  0  0  0
   -4.3090    4.1820    0.4860 N   0  0  0  0  0  0  0  0  0  0  0  0
   -3.6630    2.9760    0.5470 C   0  0  0  0  0  0  0  0  0  0  0  0
    0.8780   -2.4650   -1.3770 N   0  0  0  0  0  0  0  0  0  0  0  0
    0.0880   -3.4840   -2.0620 C   0  0  0  0  0  0  0  0  0  0  0  0
    0.4570   -3.8780   -3.2200 N   0  0  0  0  0  0  0  0  0  0  0  0
    1.5900   -3.3720   -3.8570 N   0  0  0  0  0  0  0  0  0  0  0  0
    2.3560   -2.4900   -3.3690 C   0  0  0  0  0  0  0  0  0  0  0  0
    2.0040   -1.9520   -1.9900 C   0  0  0  0  0  0  0  0  0  0  0  0
    2.8100   -1.0500   -1.4920 C   0  0  0  0  0  0  0  0  0  0  0  0
    2.7750   -0.3660   -0.2430 C   0  0  0  0  0  0  0  0  0  0  0  0
    3.7040    0.5450    0.0980 C   0  0  0  0  0  0  0  0  0  0  0  0
    4.8210    0.9540   -0.6950 C   0  0  0  0  0  0  0  0  0  0  0  0
    5.6890    1.8560   -0.2870 C   0  0  0  0  0  0  0  0  0  0  0  0
    5.6340    2.5410    0.9910 C   0  0  0  0  0  0  0  0  0  0  0  0
    6.5960    3.4300    1.2510 C   0  0  0  0  0  0  0  0  0  0  0  0
    6.5560    4.0910    2.4670 O   0  0  0  0  0  0  0  0  0  0  0  0
  1  2  2  0
  2  3  1  0
  2 20  1  0
  3  4  1  0
  4  5  1  6
  4 10  1  0
  5  6  1  0
  6  7  1  0
  7  8  1  0
  7  9  1  0
 10 11  1  0
 11 12  2  0
 11 13  1  0
 13 14  1  0
 13 19  2  0
 14 15  2  0
 15 16  1  0
 16 17  2  0
 16 18  1  0
 18 19  1  0
 20 21  1  0
 20 25  1  0
 21 22  2  0
 22 23  1  0
 23 24  2  0
 24 25  1  0
 25 26  2  3
 26 27  1  0
 27 28  2  3
 28 29  1  0
 29 30  2  3
 30 31  1  0
 31 32  2  3
 32 33  1  0
M  END
