
     RDKit          3D

 32 34  0  0  0  0  0  0  0  0999 V2000
   -2.5990    3.8640    0.6730 N   0  0  0  0  0  0  0  0  0  0  0  0
   -1.6570    2.7650    0.3540 C   0  0  0  0  0  0  0  0  0  0  0  0
   -2.1210    1.5240    1.0890 C   0  0  0  0  0  0  0  0  0  0  0  0
   -1.4870    0.4160    1.0030 O   0  0  0  0  0  0  0  0  0  0  0  0
   -1.0950   -0.4630    0.1250 C   0  0  1  0  0  0  0  0  0  0  0  0
   -2.0940   -1.1970   -0.7390 C   0  0  0  0  0  0  0  0  0  0  0  0
   -3.1010   -1.9490   -0.0950 N   0  0  0  0  0  0  0  0  0  0  0  0
   -2.9780   -3.1730    0.4310 C   0  0  0  0  0  0  0  0  0  0  0  0
   -4.1190   -3.5710    1.0210 N   0  0  0  0  0  0  0  0  0  0  0  0
   -4.9590   -2.6140    0.8710 N   0  0  0  0  0  0  0  0  0  0  0  0
   -4.3850   -1.5570    0.1720 C   0  0  0  0  0  0  0  0  0  0  0  0
   -5.1110   -0.4630   -0.1360 N   0  0  0  0  0  0  0  0  0  0  0  0
   -5.3290    0.6010   -0.6280 C   0  0  0  0  0  0  0  0  0  0  0  0
   -4.4600    1.4320   -1.4200 N   0  0  0  0  0  0  0  0  0  0  0  0
   -6.6500    1.2040   -0.4350 N   0  0  0  0  0  0  0  0  0  0  0  0
   -0.1420    0.1860   -0.8990 C   0  0  0  0  0  0  0  0  0  0  0  0
    0.6560   -0.7860   -1.6920 C   0  0  0  0  0  0  0  0  0  0  0  0
    1.3070   -1.7320   -0.9610 O   0  0  0  0  0  0  0  0  0  0  0  0
    0.5550   -2.3390    0.0050 C   0  0  0  0  0  0  0  0  0  0  0  0
   -0.2250   -1.4820    0.8980 C   0  0  1  0  0  0  0  0  0  0  0  0
    0.5940   -0.8210    1.9460 C   0  0  0  0  0  0  0  0  0  0  0  0
    1.5340    0.1730    1.5650 N   0  0  0  0  0  0  0  0  0  0  0  0
    2.8150    0.0330    1.0080 C   0  0  0  0  0  0  0  0  0  0  0  0
    3.5580   -1.1210    1.1380 C   0  0  0  0  0  0  0  0  0  0  0  0
    4.8270   -1.2510    0.5720 C   0  0  0  0  0  0  0  0  0  0  0  0
    5.3850   -0.2250   -0.1410 C   0  0  0  0  0  0  0  0  0  0  0  0
    7.0430   -0.4230   -0.8700 P   0  0  0  0  0  0  0  0  0  0  0  0
    7.0100   -1.3990   -2.2830 O   0  0  0  0  0  0  0  0  0  0  0  0
    7.8390    1.0700   -1.1440 O   0  0  0  0  0  0  0  0  0  0  0  0
    7.1580    1.8380   -1.9580 O   0  0  0  0  0  0  0  0  0  0  0  0
    4.6480    0.9320   -0.2760 C   0  0  0  0  0  0  0  0  0  0  0  0
    3.3940    1.0550    0.2860 C   0  0  0  0  0  0  0  0  0  0  0  0
  1  2  1  0
  2  3  1  0
  3  4  1  0
  4  5  1  0
  5  6  1  6
  5 16  1  0
  5 20  1  0
  6  7  1  0
  7  8  1  0
  7 11  1  0
  8  9  2  0
  9 10  1  0
 10 11  2  0
 11 12  1  0
 12 13  2  3
 13 14  1  0
 13 15  1  0
 16 17  1  0
 17 18  1  0
 18 19  1  0
 19 20  1  0
 20 21  1  1
 21 22  1  0
 22 23  1  0
 23 24  2  0
 23 32  1  0
 24 25  1  0
 25 26  2  0
 26 27  1  0
 26 31  1  0
 27 28  1  0
 27 29  1  0
 29 30  1  0
 31 32  2  0
M  END
