
     RDKit          3D

 33 33  0  0  0  0  0  0  0  0999 V2000
   -2.9480    2.3690    1.4080 C   0  0  0  0  0  0  0  0  0  0  0  0
   -2.3780    1.8260    0.2810 C   0  0  0  0  0  0  0  0  0  0  0  0
   -2.4650    2.6530   -0.8760 C   0  0  0  0  0  0  0  0  0  0  0  0
   -2.0720    2.5310   -2.1070 C   0  0  0  0  0  0  0  0  0  0  0  0
   -2.4060    3.9110   -3.3400 P   0  0  0  0  0  0  0  0  0  0  0  0
   -1.7140    5.3840   -2.7180 O   0  0  0  0  0  0  0  0  0  0  0  0
   -4.1170    4.0840   -3.5690 O   0  0  0  0  0  0  0  0  0  0  0  0
   -1.8000    0.5210    0.5010 C   0  0  0  0  0  0  0  0  0  0  0  0
   -1.9120    0.0800    1.7140 O   0  0  0  0  0  0  0  0  0  0  0  0
   -1.1430   -0.3290   -0.3960 N   0  0  0  0  0  0  0  0  0  0  0  0
   -0.5960   -1.6610   -0.0590 C   0  0  1  0  0  0  0  0  0  0  0  0
    0.7810   -1.4850    0.4340 C   0  0  0  0  0  0  0  0  0  0  0  0
    0.9940   -0.6370    1.6400 C   0  0  0  0  0  0  0  0  0  0  0  0
    2.4030   -0.5250    2.0480 N   0  0  0  0  0  0  0  0  0  0  0  0
    3.3610    0.1940    1.2110 C   0  0  0  0  0  0  0  0  0  0  0  0
    3.2210    1.4920    1.2020 C   0  0  0  0  0  0  0  0  0  0  0  0
    2.1400    2.0340    2.0170 N   0  0  0  0  0  0  0  0  0  0  0  0
    1.9000    3.2590    2.1190 N   0  0  0  0  0  0  0  0  0  0  0  0
    2.6810    4.1980    1.4350 N   0  0  0  0  0  0  0  0  0  0  0  0
    3.6550    3.8650    0.6900 C   0  0  0  0  0  0  0  0  0  0  0  0
    4.4550    4.8900   -0.0150 C   0  0  0  0  0  0  0  0  0  0  0  0
    3.9740    2.4660    0.5390 N   0  0  0  0  0  0  0  0  0  0  0  0
    4.2830   -0.5480    0.4700 N   0  0  0  0  0  0  0  0  0  0  0  0
    5.1540   -0.0920   -0.5900 C   0  0  0  0  0  0  0  0  0  0  0  0
    4.3640   -1.9780    0.7710 C   0  0  0  0  0  0  0  0  0  0  0  0
    3.6940   -2.5370    1.6540 O   0  0  0  0  0  0  0  0  0  0  0  0
   -1.4830   -2.3970    0.8060 N   0  0  0  0  0  0  0  0  0  0  0  0
   -0.9430   -3.6680    1.1850 C   0  0  0  0  0  0  0  0  0  0  0  0
   -0.7230   -4.6620    0.0950 C   0  0  0  0  0  0  0  0  0  0  0  0
   -2.8390   -2.4160    0.4100 C   0  0  0  0  0  0  0  0  0  0  0  0
   -3.1760   -3.2090   -0.8300 C   0  0  0  0  0  0  0  0  0  0  0  0
   -4.6870   -3.0430   -1.1230 C   0  0  0  0  0  0  0  0  0  0  0  0
   -4.9090   -1.6930   -1.3150 O   0  0  0  0  0  0  0  0  0  0  0  0
  1  2  2  0
  2  3  1  0
  2  8  1  0
  3  4  2  3
  4  5  1  0
  5  6  1  0
  5  7  1  0
  8  9  2  0
  8 10  1  0
 10 11  1  0
 11 12  1  1
 11 27  1  0
 12 13  1  0
 13 14  1  0
 14 15  1  0
 15 16  2  3
 15 23  1  0
 16 17  1  0
 16 22  1  0
 17 18  2  0
 18 19  1  0
 19 20  2  0
 20 21  1  0
 20 22  1  0
 23 24  1  0
 23 25  1  0
 25 26  2  0
 27 28  1  0
 27 30  1  0
 28 29  1  0
 30 31  1  0
 31 32  1  0
 32 33  1  0
M  END
