
     RDKit          3D

 47 52  0  0  0  0  0  0  0  0999 V2000
    5.3780   -3.9860    0.3270 C   0  0  0  0  0  0  0  0  0  0  0  0
    5.2050   -3.3290   -1.0330 C   0  0  0  0  0  0  0  0  0  0  0  0
    5.1070   -1.8340   -0.8960 C   0  0  0  0  0  0  0  0  0  0  0  0
    6.0950   -0.9210   -1.1820 C   0  0  0  0  0  0  0  0  0  0  0  0
    5.6100    0.3240   -0.9250 N   0  0  0  0  0  0  0  0  0  0  0  0
    4.3500    0.2440   -0.4850 C   0  0  0  0  0  0  0  0  0  0  0  0
    3.4210    1.2100   -0.0910 C   0  0  0  0  0  0  0  0  0  0  0  0
    2.1920    0.7690    0.3120 C   0  0  0  0  0  0  0  0  0  0  0  0
    1.8720   -0.5940    0.3300 C   0  0  0  0  0  0  0  0  0  0  0  0
    0.5540   -1.0420    0.7590 C   0  0  0  0  0  0  0  0  0  0  0  0
    0.3750   -1.2360    1.9650 O   0  0  0  0  0  0  0  0  0  0  0  0
   -0.4730   -1.2410   -0.1970 N   0  0  0  0  0  0  0  0  0  0  0  0
   -1.8110   -1.6840    0.0820 C   0  0  1  0  0  0  0  0  0  0  0  0
   -1.9100   -2.8750    1.0000 C   0  0  0  0  0  0  0  0  0  0  0  0
   -1.2350   -4.0710    0.4530 C   0  0  0  0  0  0  0  0  0  0  0  0
   -1.9650   -4.9220   -0.3850 C   0  0  0  0  0  0  0  0  0  0  0  0
   -1.4100   -6.0590   -0.9270 C   0  0  0  0  0  0  0  0  0  0  0  0
   -0.1020   -6.4030   -0.6600 C   0  0  0  0  0  0  0  0  0  0  0  0
    0.6230   -5.5900    0.1520 C   0  0  0  0  0  0  0  0  0  0  0  0
    0.0600   -4.4500    0.6930 C   0  0  0  0  0  0  0  0  0  0  0  0
   -2.6320   -0.5200    0.4570 C   0  0  2  0  0  0  0  0  0  0  0  0
   -2.1030    0.1160    1.6060 O   0  0  0  0  0  0  0  0  0  0  0  0
   -4.1040   -0.7370    0.6080 C   0  0  2  0  0  0  0  0  0  0  0  0
   -4.6930   -1.3820   -0.5460 N   0  0  0  0  0  0  0  0  0  0  0  0
   -4.6830   -0.5280   -1.7120 C   0  0  0  0  0  0  0  0  0  0  0  0
   -5.6960    0.5970   -1.5030 C   0  0  0  0  0  0  0  0  0  0  0  0
   -5.1760    1.3840   -0.3750 N   0  0  0  0  0  0  0  0  0  0  0  0
   -5.1440    2.8330   -0.4160 C   0  0  0  0  0  0  0  0  0  0  0  0
   -6.3390    3.4820    0.1110 C   0  0  0  0  0  0  0  0  0  0  0  0
   -6.3880    3.9100    1.4120 C   0  0  0  0  0  0  0  0  0  0  0  0
   -7.4970    4.5320    1.9670 C   0  0  0  0  0  0  0  0  0  0  0  0
   -8.5870    4.7130    1.1430 C   0  0  0  0  0  0  0  0  0  0  0  0
   -8.5590    4.2920   -0.1630 C   0  0  0  0  0  0  0  0  0  0  0  0
   -7.4330    3.6710   -0.6920 C   0  0  0  0  0  0  0  0  0  0  0  0
   -4.7120    0.6390    0.7410 C   0  0  0  0  0  0  0  0  0  0  0  0
   -4.8170    1.1600    1.8900 O   0  0  0  0  0  0  0  0  0  0  0  0
    2.7920   -1.5420   -0.0590 C   0  0  0  0  0  0  0  0  0  0  0  0
    4.0240   -1.1030   -0.4630 C   0  0  0  0  0  0  0  0  0  0  0  0
    3.5450    2.6240   -0.0320 N   0  0  0  0  0  0  0  0  0  0  0  0
    2.3240    3.3850    0.2570 C   0  0  0  0  0  0  0  0  0  0  0  0
    4.9880    3.5610   -0.2660 S   0  0  1  0  0  0  0  0  0  0  0  0
    5.0770    4.0430   -1.6820 O   0  0  0  0  0  0  0  0  0  0  0  0
    5.0300    4.7450    0.6580 O   0  0  0  0  0  0  0  0  0  0  0  0
    6.3780    2.4720    0.0070 C   0  0  1  0  0  0  0  0  0  0  0  0
    7.6790    3.2440    0.0190 C   0  0  0  0  0  0  0  0  0  0  0  0
    6.2020    1.8390    1.3490 C   0  0  0  0  0  0  0  0  0  0  0  0
    6.4100    1.5130   -1.1330 C   0  0  0  0  0  0  0  0  0  0  0  0
  1  2  1  0
  2  3  1  0
  3  4  2  0
  3 38  1  0
  4  5  1  0
  5  6  1  0
  5 47  1  0
  6  7  2  0
  6 38  1  0
  7  8  1  0
  7 39  1  0
  8  9  2  0
  9 10  1  0
  9 37  1  0
 10 11  2  0
 10 12  1  0
 12 13  1  0
 13 14  1  1
 13 21  1  0
 14 15  1  0
 15 16  2  0
 15 20  1  0
 16 17  1  0
 17 18  2  0
 18 19  1  0
 19 20  2  0
 21 22  1  1
 21 23  1  0
 23 24  1  6
 23 35  1  0
 24 25  1  0
 25 26  1  0
 26 27  1  0
 27 28  1  0
 27 35  1  0
 28 29  1  0
 29 30  2  0
 29 34  1  0
 30 31  1  0
 31 32  2  0
 32 33  1  0
 33 34  2  0
 35 36  2  0
 37 38  2  0
 39 40  1  0
 41 39  1  6
 41 42  2  0
 41 43  2  0
 41 44  1  0
 44 45  1  1
 44 46  1  0
 44 47  1  0
M  CHG  1  24   1
M  END
