
     RDKit          3D

 46 50  0  0  0  0  0  0  0  0999 V2000
   -3.2070    7.3560   -0.8900 C   0  0  0  0  0  0  0  0  0  0  0  0
   -3.2380    5.8670   -0.7670 C   0  0  0  0  0  0  0  0  0  0  0  0
   -2.5650    5.2780    0.2800 C   0  0  0  0  0  0  0  0  0  0  0  0
   -2.5750    3.8940    0.4190 C   0  0  0  0  0  0  0  0  0  0  0  0
   -3.2230    3.0680   -0.4380 C   0  0  0  0  0  0  0  0  0  0  0  0
   -3.2390    1.6120   -0.3960 C   0  0  0  0  0  0  0  0  0  0  0  0
   -4.3350    1.1030   -0.7930 O   0  0  0  0  0  0  0  0  0  0  0  0
   -2.1790    0.7460    0.0350 C   0  0  0  0  0  0  0  0  0  0  0  0
   -0.9130    1.2820    0.1370 C   0  0  0  0  0  0  0  0  0  0  0  0
    0.2290    0.5610    0.4270 C   0  0  0  0  0  0  0  0  0  0  0  0
    1.5100    1.2390    0.5010 C   0  0  0  0  0  0  0  0  0  0  0  0
    1.6080    2.4560    0.1210 O   0  0  0  0  0  0  0  0  0  0  0  0
    2.6840    0.6100    0.9830 N   0  0  0  0  0  0  0  0  0  0  0  0
    3.9210    1.3550    1.0210 C   0  0  1  0  0  0  0  0  0  0  0  0
    4.3670    1.6200    2.4530 C   0  0  2  0  0  0  0  0  0  0  0  0
    3.2110    2.1030    3.3000 C   0  0  0  0  0  0  0  0  0  0  0  0
    2.2500    1.0770    3.2660 O   0  0  0  0  0  0  0  0  0  0  0  0
    5.4930    2.6250    2.3730 C   0  0  0  0  0  0  0  0  0  0  0  0
    6.0260    2.6710    0.9710 C   0  0  0  0  0  0  0  0  0  0  0  0
    6.1710    1.4540    0.3570 O   0  0  0  0  0  0  0  0  0  0  0  0
    5.0510    0.6530    0.3470 C   0  0  2  0  0  0  0  0  0  0  0  0
    4.7070    0.1220   -1.0230 C   0  0  0  0  0  0  0  0  0  0  0  0
    5.8560   -0.5600   -1.6300 C   0  0  0  0  0  0  0  0  0  0  0  0
    6.6230    0.0260   -2.6360 C   0  0  0  0  0  0  0  0  0  0  0  0
    7.6900   -0.6620   -3.1660 C   0  0  0  0  0  0  0  0  0  0  0  0
    8.6430    0.1000   -4.4360 Cl  0  0  0  0  0  0  0  0  0  0  0  0
    8.0460   -1.9300   -2.7440 C   0  0  0  0  0  0  0  0  0  0  0  0
    7.2890   -2.5060   -1.7520 C   0  0  0  0  0  0  0  0  0  0  0  0
    6.2110   -1.8210   -1.2110 C   0  0  0  0  0  0  0  0  0  0  0  0
    5.4520   -2.5040   -0.1570 C   0  0  0  0  0  0  0  0  0  0  0  0
    0.1010   -0.7620    0.6250 C   0  0  0  0  0  0  0  0  0  0  0  0
   -1.1640   -1.3580    0.5330 C   0  0  0  0  0  0  0  0  0  0  0  0
   -2.3070   -0.6310    0.2420 C   0  0  0  0  0  0  0  0  0  0  0  0
   -3.5950   -1.2200    0.2300 N   0  0  0  0  0  0  0  0  0  0  0  0
   -3.8870   -2.6000    0.1720 C   0  0  0  0  0  0  0  0  0  0  0  0
   -2.9690   -3.4370    0.1180 O   0  0  0  0  0  0  0  0  0  0  0  0
   -5.3010   -3.1000    0.1740 C   0  0  1  0  0  0  0  0  0  0  0  0
   -6.0650   -2.5990   -1.0140 C   0  0  0  0  0  0  0  0  0  0  0  0
   -7.5060   -3.0870   -0.8500 C   0  0  0  0  0  0  0  0  0  0  0  0
   -7.5560   -4.3190   -0.1860 O   0  0  0  0  0  0  0  0  0  0  0  0
   -6.4860   -5.1450   -0.5620 C   0  0  2  0  0  0  0  0  0  0  0  0
   -6.7500   -6.5240   -0.0390 C   0  0  0  0  0  0  0  0  0  0  0  0
   -7.9400   -7.0390   -0.5670 O   0  0  0  0  0  0  0  0  0  0  0  0
   -5.2680   -4.6050    0.1530 C   0  0  0  0  0  0  0  0  0  0  0  0
   -3.9000    3.7170   -1.4950 C   0  0  0  0  0  0  0  0  0  0  0  0
   -3.9020    5.0700   -1.6470 C   0  0  0  0  0  0  0  0  0  0  0  0
  1  2  1  0
  2  3  2  0
  2 46  1  0
  3  4  1  0
  4  5  2  0
  5  6  1  0
  5 45  1  0
  6  7  2  0
  6  8  1  0
  8  9  2  0
  8 33  1  0
  9 10  1  0
 10 11  1  0
 10 31  2  0
 11 12  2  0
 11 13  1  0
 14 13  1  1
 14 15  1  0
 14 21  1  0
 15 16  1  1
 15 18  1  0
 16 17  1  0
 18 19  1  0
 19 20  1  0
 20 21  1  0
 21 22  1  6
 22 23  1  0
 23 24  2  0
 23 29  1  0
 24 25  1  0
 25 26  1  0
 25 27  2  0
 27 28  1  0
 28 29  2  0
 29 30  1  0
 31 32  1  0
 32 33  2  0
 33 34  1  0
 34 35  1  0
 35 36  2  0
 37 35  1  6
 37 38  1  0
 37 44  1  0
 38 39  1  0
 39 40  1  0
 40 41  1  0
 41 42  1  1
 41 44  1  0
 42 43  1  0
 45 46  2  0
M  END
