
     RDKit          3D

 46 50  0  0  0  0  0  0  0  0999 V2000
   -7.7790    2.2700   -0.7720 C   0  0  0  0  0  0  0  0  0  0  0  0
   -8.3850    1.1910   -1.4150 O   0  0  0  0  0  0  0  0  0  0  0  0
   -7.5050    0.5550   -2.2830 C   0  0  0  0  0  0  0  0  0  0  0  0
   -6.3360    0.0550   -1.4760 C   0  0  0  0  0  0  0  0  0  0  0  0
   -5.1260    0.6930   -1.2960 C   0  0  0  0  0  0  0  0  0  0  0  0
   -4.3020   -0.0900   -0.4830 C   0  0  0  0  0  0  0  0  0  0  0  0
   -2.9000    0.2010   -0.0350 C   0  0  1  0  0  0  0  0  0  0  0  0
   -2.8760    0.3360    1.4020 C   0  0  0  0  0  0  0  0  0  0  0  0
   -3.6930    1.2630    2.0190 C   0  0  0  0  0  0  0  0  0  0  0  0
   -3.7080    1.4270    3.3890 C   0  0  0  0  0  0  0  0  0  0  0  0
   -2.8950    0.6590    4.1910 C   0  0  0  0  0  0  0  0  0  0  0  0
   -2.0810   -0.2640    3.5760 C   0  0  0  0  0  0  0  0  0  0  0  0
   -2.0780   -0.4170    2.1900 C   0  0  0  0  0  0  0  0  0  0  0  0
   -1.1700   -1.4230    1.6540 C   0  0  1  0  0  0  0  0  0  0  0  0
   -1.7090   -3.0210    2.2850 Cl  0  0  0  0  0  0  0  0  0  0  0  0
   -0.9490   -1.4280    0.1870 C   0  0  1  0  0  0  0  0  0  0  0  0
   -0.7910   -2.8360   -0.3470 C   0  0  0  0  0  0  0  0  0  0  0  0
    0.1840   -3.7310    0.1380 N   0  0  0  0  0  0  0  0  0  0  0  0
   -1.5670   -3.2030   -1.2590 O   0  0  0  0  0  0  0  0  0  0  0  0
   -1.8650   -0.6710   -0.6740 C   0  0  2  0  0  0  0  0  0  0  0  0
   -1.1460    0.0270   -1.7710 C   0  0  0  0  0  0  0  0  0  0  0  0
   -1.3010   -0.5150   -2.9380 O   0  0  0  0  0  0  0  0  0  0  0  0
   -0.3560    1.1650   -1.7120 N   0  0  0  0  0  0  0  0  0  0  0  0
    0.1300    1.7050   -3.0140 C   0  0  0  0  0  0  0  0  0  0  0  0
    0.1260    1.8620   -0.5730 C   0  0  0  0  0  0  0  0  0  0  0  0
    1.4720    1.4740   -0.1020 C   0  0  0  0  0  0  0  0  0  0  0  0
    2.1950    0.5450   -0.8060 C   0  0  0  0  0  0  0  0  0  0  0  0
    3.4830    0.1900   -0.3980 C   0  0  0  0  0  0  0  0  0  0  0  0
    4.2200   -0.8010   -1.1700 C   0  0  0  0  0  0  0  0  0  0  0  0
    3.6190   -1.6700   -1.8830 O   0  0  0  0  0  0  0  0  0  0  0  0
    5.6600   -0.7910   -1.1190 C   0  0  0  0  0  0  0  0  0  0  0  0
    6.3520   -1.9400   -0.7440 C   0  0  0  0  0  0  0  0  0  0  0  0
    7.7210   -1.9070   -0.7020 C   0  0  0  0  0  0  0  0  0  0  0  0
    8.4520   -0.7770   -1.0170 C   0  0  0  0  0  0  0  0  0  0  0  0
    9.9390   -0.8220   -0.9480 C   0  0  0  0  0  0  0  0  0  0  0  0
   10.3370   -0.4560    0.3540 O   0  0  0  0  0  0  0  0  0  0  0  0
    7.7430    0.3380   -1.3820 C   0  0  0  0  0  0  0  0  0  0  0  0
    6.3600    0.3340   -1.4330 C   0  0  0  0  0  0  0  0  0  0  0  0
    5.7010    1.4700   -1.8030 F   0  0  0  0  0  0  0  0  0  0  0  0
    4.0400    0.7660    0.7100 C   0  0  0  0  0  0  0  0  0  0  0  0
    3.3230    1.7070    1.4340 C   0  0  0  0  0  0  0  0  0  0  0  0
    2.0510    2.0420    1.0120 C   0  0  0  0  0  0  0  0  0  0  0  0
    1.3370    2.9790    1.7330 O   0  0  0  0  0  0  0  0  0  0  0  0
   -5.0800   -1.1910   -0.2060 C   0  0  0  0  0  0  0  0  0  0  0  0
   -4.7240   -2.3750    0.6270 C   0  0  0  0  0  0  0  0  0  0  0  0
   -6.2560   -1.0620   -0.8060 O   0  0  0  0  0  0  0  0  0  0  0  0
  1  2  1  0
  2  3  1  0
  3  4  1  0
  4  5  2  0
  4 46  1  0
  5  6  1  0
  7  6  1  1
  6 44  2  0
  7  8  1  0
  7 20  1  0
  8  9  2  0
  8 13  1  0
  9 10  1  0
 10 11  2  0
 11 12  1  0
 12 13  2  0
 13 14  1  0
 14 15  1  6
 14 16  1  0
 16 17  1  6
 16 20  1  0
 17 18  1  0
 17 19  2  0
 20 21  1  6
 21 22  2  0
 21 23  1  0
 23 24  1  0
 23 25  1  0
 25 26  1  0
 26 27  2  0
 26 42  1  0
 27 28  1  0
 28 29  1  0
 28 40  2  0
 29 30  2  0
 29 31  1  0
 31 32  2  0
 31 38  1  0
 32 33  1  0
 33 34  2  0
 34 35  1  0
 34 37  1  0
 35 36  1  0
 37 38  2  0
 38 39  1  0
 40 41  1  0
 41 42  2  0
 42 43  1  0
 44 45  1  0
 44 46  1  0
M  END
