
     RDKit          3D

 46 49  0  0  0  0  0  0  0  0999 V2000
    7.9050   -0.4470    1.9850 C   0  0  0  0  0  0  0  0  0  0  0  0
    7.3330    0.9060    1.6310 C   0  0  0  0  0  0  0  0  0  0  0  0
    6.4880    0.7310    0.3800 C   0  0  0  0  0  0  0  0  0  0  0  0
    5.9000    2.0740   -0.0040 C   0  0  1  0  0  0  0  0  0  0  0  0
    7.0670    2.8840   -0.2360 O   0  0  0  0  0  0  0  0  0  0  0  0
    5.1810    2.0170   -1.2770 C   0  0  2  0  0  0  0  0  0  0  0  0
    4.8430    3.4540   -1.6930 C   0  0  0  0  0  0  0  0  0  0  0  0
    3.9340    1.2260   -1.2680 N   0  0  0  0  0  0  0  0  0  0  0  0
    3.7270    0.2520   -2.2900 C   0  0  0  0  0  0  0  0  0  0  0  0
    4.0710   -1.1570   -2.1030 C   0  0  2  0  0  0  0  0  0  0  0  0
    3.5430   -1.8560   -1.0560 O   0  0  0  0  0  0  0  0  0  0  0  0
    5.5000   -1.4520   -2.4340 C   0  0  0  0  0  0  0  0  0  0  0  0
    5.7830   -2.7340   -2.8230 O   0  0  0  0  0  0  0  0  0  0  0  0
    5.1870   -3.2190   -3.9450 C   0  0  0  0  0  0  0  0  0  0  0  0
    2.9970    1.5520   -0.3050 C   0  0  0  0  0  0  0  0  0  0  0  0
    3.3500    2.5520    0.4640 O   0  0  0  0  0  0  0  0  0  0  0  0
    1.6990    1.0350    0.0550 C   0  0  0  0  0  0  0  0  0  0  0  0
    1.0280    1.5620    1.1770 C   0  0  0  0  0  0  0  0  0  0  0  0
   -0.2140    1.1310    1.5670 C   0  0  0  0  0  0  0  0  0  0  0  0
   -0.8900    0.1390    0.8720 C   0  0  0  0  0  0  0  0  0  0  0  0
   -0.2660   -0.3890   -0.2170 C   0  0  0  0  0  0  0  0  0  0  0  0
    1.0040    0.0550   -0.6120 C   0  0  0  0  0  0  0  0  0  0  0  0
   -0.9440   -1.4290   -0.9900 C   0  0  0  0  0  0  0  0  0  0  0  0
   -0.3350   -1.8980   -1.9960 O   0  0  0  0  0  0  0  0  0  0  0  0
   -2.1750   -1.8340   -0.5950 O   0  0  0  0  0  0  0  0  0  0  0  0
   -2.8790   -1.4570    0.5440 C   0  0  2  0  0  0  0  0  0  0  0  0
   -4.2770   -1.1720    0.1890 C   0  0  0  0  0  0  0  0  0  0  0  0
   -5.1800   -2.2050    0.0900 C   0  0  0  0  0  0  0  0  0  0  0  0
   -6.5000   -1.9970   -0.2580 C   0  0  0  0  0  0  0  0  0  0  0  0
   -7.4270   -3.1660   -0.3420 C   0  0  0  0  0  0  0  0  0  0  0  0
   -6.9660   -0.7370   -0.5230 C   0  0  0  0  0  0  0  0  0  0  0  0
   -8.3420   -0.5020   -0.8870 N   0  0  0  0  0  0  0  0  0  0  0  0
   -6.0750    0.3240   -0.4310 C   0  0  0  0  0  0  0  0  0  0  0  0
   -6.5710    1.6560   -0.7180 C   0  0  0  0  0  0  0  0  0  0  0  0
   -5.7320    2.8800   -0.6760 C   0  0  0  0  0  0  0  0  0  0  0  0
   -7.8090    1.7980   -1.0290 O   0  0  0  0  0  0  0  0  0  0  0  0
   -4.7520    0.0890   -0.0780 C   0  0  0  0  0  0  0  0  0  0  0  0
   -2.2160   -0.3350    1.2880 C   0  0  0  0  0  0  0  0  0  0  0  0
   -2.8110    0.2450    2.2890 C   0  0  0  0  0  0  0  0  0  0  0  0
   -4.0920   -0.0150    2.8990 C   0  0  0  0  0  0  0  0  0  0  0  0
   -4.4890   -1.2710    3.2430 C   0  0  0  0  0  0  0  0  0  0  0  0
   -5.7530   -1.4610    3.8240 C   0  0  0  0  0  0  0  0  0  0  0  0
   -6.6160   -0.4170    4.0630 C   0  0  0  0  0  0  0  0  0  0  0  0
   -6.2090    0.8560    3.7140 C   0  0  0  0  0  0  0  0  0  0  0  0
   -4.9690    1.0490    3.1430 C   0  0  0  0  0  0  0  0  0  0  0  0
   -4.5250    2.6930    2.7370 Cl  0  0  0  0  0  0  0  0  0  0  0  0
  1  2  1  0
  2  3  1  0
  3  4  1  0
  4  5  1  6
  4  6  1  0
  6  7  1  1
  6  8  1  0
  8  9  1  0
  8 15  1  0
  9 10  1  0
 10 11  1  1
 10 12  1  0
 12 13  1  0
 13 14  1  0
 15 16  2  0
 15 17  1  0
 17 18  2  0
 17 22  1  0
 18 19  1  0
 19 20  2  0
 20 21  1  0
 20 38  1  0
 21 22  2  0
 21 23  1  0
 23 24  2  0
 23 25  1  0
 25 26  1  0
 26 27  1  6
 26 38  1  0
 27 28  2  0
 27 37  1  0
 28 29  1  0
 29 30  1  0
 29 31  2  0
 31 32  1  0
 31 33  1  0
 33 34  1  0
 33 37  2  0
 34 35  1  0
 34 36  2  0
 38 39  2  3
 39 40  1  0
 40 41  2  0
 40 45  1  0
 41 42  1  0
 42 43  2  0
 43 44  1  0
 44 45  2  0
 45 46  1  0
M  END
