
     RDKit          3D

 46 50  0  0  0  0  0  0  0  0999 V2000
    7.0690    2.3910   -1.3010 O   0  0  0  0  0  0  0  0  0  0  0  0
    7.8600    2.0330   -0.4130 C   0  0  0  0  0  0  0  0  0  0  0  0
    7.6960    0.7420    0.2800 C   0  0  0  0  0  0  0  0  0  0  0  0
    6.5000    0.0240   -0.2140 C   0  0  0  0  0  0  0  0  0  0  0  0
    6.5880   -0.7560   -1.3460 C   0  0  0  0  0  0  0  0  0  0  0  0
    5.5020   -1.4370   -1.7980 C   0  0  0  0  0  0  0  0  0  0  0  0
    4.3130   -1.3350   -1.1060 C   0  0  0  0  0  0  0  0  0  0  0  0
    4.2100   -0.5610    0.0260 C   0  0  0  0  0  0  0  0  0  0  0  0
    2.9340   -0.4900    0.7740 C   0  0  0  0  0  0  0  0  0  0  0  0
    1.9600   -1.4500    0.3100 N   0  0  0  0  0  0  0  0  0  0  0  0
    1.1690   -1.2610   -0.8490 C   0  0  0  0  0  0  0  0  0  0  0  0
    1.3210   -0.1970   -1.4980 O   0  0  0  0  0  0  0  0  0  0  0  0
    0.1760   -2.2780   -1.3140 C   0  0  1  0  0  0  0  0  0  0  0  0
    0.8970   -3.5720   -1.6600 C   0  0  0  0  0  0  0  0  0  0  0  0
    0.1080   -4.7660   -1.1850 C   0  0  0  0  0  0  0  0  0  0  0  0
    0.0170   -4.6300    0.3070 C   0  0  0  0  0  0  0  0  0  0  0  0
    0.4490   -5.6060    1.1720 C   0  0  0  0  0  0  0  0  0  0  0  0
    0.3340   -5.4070    2.5310 C   0  0  0  0  0  0  0  0  0  0  0  0
   -0.2180   -4.2190    2.9610 C   0  0  0  0  0  0  0  0  0  0  0  0
   -0.3660   -3.9650    4.6830 Cl  0  0  0  0  0  0  0  0  0  0  0  0
   -0.6580   -3.2260    2.0720 C   0  0  0  0  0  0  0  0  0  0  0  0
   -0.5340   -3.4440    0.7430 C   0  0  0  0  0  0  0  0  0  0  0  0
   -0.9580   -2.4800   -0.3380 C   0  0  1  0  0  0  0  0  0  0  0  0
   -1.3430   -1.2820    0.1790 O   0  0  0  0  0  0  0  0  0  0  0  0
   -2.6220   -0.8680   -0.0040 C   0  0  0  0  0  0  0  0  0  0  0  0
   -3.0940   -0.5800   -1.3740 C   0  0  1  0  0  0  0  0  0  0  0  0
   -2.9630   -1.6810   -2.2170 O   0  0  0  0  0  0  0  0  0  0  0  0
   -4.6130   -0.3270   -1.3420 C   0  0  0  0  0  0  0  0  0  0  0  0
   -4.8110    0.7820   -0.4660 O   0  0  0  0  0  0  0  0  0  0  0  0
   -6.1110    1.2540   -0.2340 C   0  0  0  0  0  0  0  0  0  0  0  0
   -7.1900    0.6450   -0.8580 C   0  0  0  0  0  0  0  0  0  0  0  0
   -8.4870    1.0700   -0.6640 C   0  0  0  0  0  0  0  0  0  0  0  0
   -8.7290    2.1420    0.1830 C   0  0  0  0  0  0  0  0  0  0  0  0
  -10.1190    2.6080    0.4050 C   0  0  0  0  0  0  0  0  0  0  0  0
  -10.3420    3.7800   -0.2950 F   0  0  0  0  0  0  0  0  0  0  0  0
   -7.6780    2.7700    0.8190 C   0  0  0  0  0  0  0  0  0  0  0  0
   -7.9010    3.8330    1.6630 C   0  0  0  0  0  0  0  0  0  0  0  0
   -6.8290    4.4310    2.2800 C   0  0  0  0  0  0  0  0  0  0  0  0
   -5.5300    4.0080    2.0890 C   0  0  0  0  0  0  0  0  0  0  0  0
   -5.3230    2.9480    1.2450 C   0  0  0  0  0  0  0  0  0  0  0  0
   -6.3730    2.3110    0.5990 C   0  0  0  0  0  0  0  0  0  0  0  0
    5.3170    0.1390    0.4930 C   0  0  0  0  0  0  0  0  0  0  0  0
    8.9390    2.8510   -0.0410 N   0  0  0  0  0  0  0  0  0  0  0  0
    9.1890    4.1230   -0.6600 C   0  0  0  0  0  0  0  0  0  0  0  0
    8.0180    5.0630   -0.4890 C   0  0  0  0  0  0  0  0  0  0  0  0
    7.7940    5.2600    0.8630 O   0  0  0  0  0  0  0  0  0  0  0  0
  1  2  2  0
  2  3  1  0
  2 43  1  0
  3  4  1  0
  4  5  2  0
  4 42  1  0
  5  6  1  0
  6  7  2  0
  7  8  1  0
  8  9  1  0
  8 42  2  0
  9 10  1  0
 10 11  1  0
 11 12  2  0
 13 11  1  1
 13 14  1  0
 13 23  1  0
 14 15  1  0
 15 16  1  0
 16 17  2  0
 16 22  1  0
 17 18  1  0
 18 19  2  0
 19 20  1  0
 19 21  1  0
 21 22  2  0
 22 23  1  0
 23 24  1  1
 24 25  1  0
 25 26  1  0
 26 27  1  6
 26 28  1  0
 28 29  1  0
 29 30  1  0
 30 31  2  0
 30 41  1  0
 31 32  1  0
 32 33  2  0
 33 34  1  0
 33 36  1  0
 34 35  1  0
 36 37  2  0
 36 41  1  0
 37 38  1  0
 38 39  2  0
 39 40  1  0
 40 41  2  0
 43 44  1  0
 44 45  1  0
 45 46  1  0
M  END
