
     RDKit          3D

 46 50  0  0  0  0  0  0  0  0999 V2000
   -5.1700    3.4740    1.3430 C   0  0  0  0  0  0  0  0  0  0  0  0
   -5.2800    2.2340    0.5000 C   0  0  0  0  0  0  0  0  0  0  0  0
   -4.2270    1.8090   -0.2550 C   0  0  0  0  0  0  0  0  0  0  0  0
   -4.3500    0.6860   -1.0120 C   0  0  0  0  0  0  0  0  0  0  0  0
   -3.2940    0.2040   -1.8050 O   0  0  0  0  0  0  0  0  0  0  0  0
   -2.0830    0.9500   -1.7940 C   0  0  0  0  0  0  0  0  0  0  0  0
   -1.0600    0.2340   -2.6940 C   0  0  2  0  0  0  0  0  0  0  0  0
   -1.5910    0.1580   -3.9990 O   0  0  0  0  0  0  0  0  0  0  0  0
   -0.8330   -1.1650   -2.1620 C   0  0  0  0  0  0  0  0  0  0  0  0
   -0.2640   -1.0700   -0.8770 O   0  0  0  0  0  0  0  0  0  0  0  0
    1.0300   -0.5600   -0.7460 C   0  0  0  0  0  0  0  0  0  0  0  0
    1.6800   -0.2060   -1.7580 O   0  0  0  0  0  0  0  0  0  0  0  0
    1.6540   -0.4320    0.5950 C   0  0  0  0  0  0  0  0  0  0  0  0
    0.9240   -0.6970    1.7330 C   0  0  0  0  0  0  0  0  0  0  0  0
    1.5970   -0.5720    2.9270 C   0  0  0  0  0  0  0  0  0  0  0  0
    2.9300   -0.2030    3.0080 C   0  0  0  0  0  0  0  0  0  0  0  0
    3.6200    0.0500    1.8680 C   0  0  0  0  0  0  0  0  0  0  0  0
    5.0290    0.4310    1.8370 C   0  0  2  0  0  0  0  0  0  0  0  0
    5.7450   -0.4190    0.8940 N   0  0  0  0  0  0  0  0  0  0  0  0
    6.2700    0.1140   -0.3180 C   0  0  0  0  0  0  0  0  0  0  0  0
    6.1380    1.3220   -0.6180 O   0  0  0  0  0  0  0  0  0  0  0  0
    6.9730   -0.7240   -1.2370 N   0  0  0  0  0  0  0  0  0  0  0  0
    7.5400   -0.3610   -2.4600 C   0  0  0  0  0  0  0  0  0  0  0  0
    7.4970    0.8530   -3.0580 C   0  0  0  0  0  0  0  0  0  0  0  0
    8.1080    1.0850   -4.2900 C   0  0  0  0  0  0  0  0  0  0  0  0
    8.7890    0.0860   -4.9620 C   0  0  0  0  0  0  0  0  0  0  0  0
    8.8410   -1.1620   -4.3610 C   0  0  0  0  0  0  0  0  0  0  0  0
    8.2350   -1.3760   -3.1490 C   0  0  0  0  0  0  0  0  0  0  0  0
    8.3410   -2.6350   -2.6370 F   0  0  0  0  0  0  0  0  0  0  0  0
    5.7980    0.4520    3.0940 C   0  0  2  0  0  0  0  0  0  0  0  0
    5.9240   -0.8140    3.8550 C   0  0  0  0  0  0  0  0  0  0  0  0
    5.9690   -0.3560    5.2940 C   0  0  0  0  0  0  0  0  0  0  0  0
    5.4300    0.8930    5.3450 O   0  0  0  0  0  0  0  0  0  0  0  0
    5.3910    1.4750    4.1120 C   0  0  0  0  0  0  0  0  0  0  0  0
    2.9660   -0.0670    0.6440 C   0  0  0  0  0  0  0  0  0  0  0  0
   -5.5590   -0.0120   -0.9990 C   0  0  0  0  0  0  0  0  0  0  0  0
   -5.6390   -1.1120   -1.8300 C   0  0  0  0  0  0  0  0  0  0  0  0
   -6.8160   -1.7780   -1.8720 C   0  0  0  0  0  0  0  0  0  0  0  0
   -7.9290   -1.4400   -1.1490 C   0  0  0  0  0  0  0  0  0  0  0  0
   -9.1900   -2.1820   -1.2450 C   0  0  0  0  0  0  0  0  0  0  0  0
   -7.8430   -0.3060   -0.2890 C   0  0  0  0  0  0  0  0  0  0  0  0
   -9.0340   -0.0060    0.4630 C   0  0  2  0  0  0  0  0  0  0  0  0
   -8.9620    0.7200    1.7390 C   0  0  0  0  0  0  0  0  0  0  0  0
   -9.7620   -1.2050    0.7500 O   0  0  0  0  0  0  0  0  0  0  0  0
   -6.6710    0.3750   -0.2420 C   0  0  0  0  0  0  0  0  0  0  0  0
   -6.4720    1.5220    0.4960 C   0  0  0  0  0  0  0  0  0  0  0  0
  1  2  1  0
  2  3  2  0
  2 46  1  0
  3  4  1  0
  4  5  1  0
  4 36  2  0
  5  6  1  0
  6  7  1  0
  7  8  1  6
  7  9  1  0
  9 10  1  0
 10 11  1  0
 11 12  2  0
 11 13  1  0
 13 14  2  0
 13 35  1  0
 14 15  1  0
 15 16  2  0
 16 17  1  0
 17 18  1  0
 17 35  2  0
 18 19  1  6
 18 30  1  0
 19 20  1  0
 20 21  2  0
 20 22  1  0
 22 23  1  0
 23 24  2  0
 23 28  1  0
 24 25  1  0
 25 26  2  0
 26 27  1  0
 27 28  2  0
 28 29  1  0
 30 31  1  1
 30 34  1  0
 31 32  1  0
 32 33  1  0
 33 34  1  0
 36 37  1  0
 36 45  1  0
 37 38  2  0
 38 39  1  0
 39 40  1  0
 39 41  2  0
 41 42  1  0
 41 45  1  0
 42 43  1  1
 42 44  1  0
 45 46  2  0
M  END
