
     RDKit          3D

 28 29  0  0  0  0  0  0  0  0999 V2000
   -6.7390   -1.8050   -0.0140 C   0  0  0  0  0  0  0  0  0  0  0  0
   -5.5680   -1.2010   -0.7240 C   0  0  0  0  0  0  0  0  0  0  0  0
   -5.7410    0.2860   -0.9550 C   0  0  1  0  0  0  0  0  0  0  0  0
   -6.9510    0.5880   -1.7880 C   0  0  0  0  0  0  0  0  0  0  0  0
   -5.9070    1.1420    0.6100 S   0  0  2  0  0  0  0  0  0  0  0  0
   -7.1470    0.6360    1.3030 O   0  0  0  0  0  0  0  0  0  0  0  0
   -6.0860    2.5960    0.3800 O   0  0  0  0  0  0  0  0  0  0  0  0
   -4.4870    0.7900    1.5600 C   0  0  0  0  0  0  0  0  0  0  0  0
   -3.2930    0.7630    1.0070 C   0  0  0  0  0  0  0  0  0  0  0  0
   -2.1360    0.4660    1.8330 C   0  0  0  0  0  0  0  0  0  0  0  0
   -0.9140    0.4350    1.2890 C   0  0  0  0  0  0  0  0  0  0  0  0
    0.2110    0.1430    2.1060 C   0  0  0  0  0  0  0  0  0  0  0  0
    1.4550    0.0940    1.6370 C   0  0  0  0  0  0  0  0  0  0  0  0
    2.7250   -0.2840    2.8060 Cl  0  0  0  0  0  0  0  0  0  0  0  0
    1.7890    0.3360    0.2570 C   0  0  0  0  0  0  0  0  0  0  0  0
    2.9840    0.2970   -0.2450 C   0  0  0  0  0  0  0  0  0  0  0  0
    4.1840    0.0070    0.4890 C   0  0  0  0  0  0  0  0  0  0  0  0
    5.4530   -0.0280   -0.2490 N   0  0  0  0  0  0  0  0  0  0  0  0
    6.5790   -0.3770    0.6290 C   0  0  0  0  0  0  0  0  0  0  0  0
    7.7200   -1.0190   -0.0740 C   0  0  0  0  0  0  0  0  0  0  0  0
    8.1460   -0.1040   -1.5620 S   0  0  1  0  0  0  0  0  0  0  0  0
    8.9480    1.1040   -1.2390 O   0  0  0  0  0  0  0  0  0  0  0  0
    8.9000   -1.0540   -2.4760 O   0  0  0  0  0  0  0  0  0  0  0  0
    6.6550    0.2500   -2.3230 N   0  0  0  0  0  0  0  0  0  0  0  0
    5.5530    0.2450   -1.6100 C   0  0  0  0  0  0  0  0  0  0  0  0
    4.3480    0.5590   -2.3530 N   0  0  0  0  0  0  0  0  0  0  0  0
    3.1040    0.5840   -1.6910 C   0  0  0  0  0  0  0  0  0  0  0  0
    2.0740    0.8570   -2.3490 O   0  0  0  0  0  0  0  0  0  0  0  0
  1  2  1  0
  2  3  1  0
  3  4  1  6
  3  5  1  0
  5  6  2  0
  5  7  2  0
  5  8  1  1
  8  9  2  3
  9 10  1  0
 10 11  2  3
 11 12  1  0
 12 13  2  3
 13 14  1  0
 13 15  1  0
 15 16  2  3
 16 17  1  0
 16 27  1  0
 17 18  1  0
 18 19  1  0
 18 25  1  0
 19 20  1  0
 21 20  1  1
 21 22  2  0
 21 23  2  0
 21 24  1  0
 24 25  2  0
 25 26  1  0
 26 27  1  0
 27 28  2  0
M  END
