
     RDKit          3D

 20 21  0  0  0  0  0  0  0  0999 V2000
   -2.7990   -2.9900    0.7670 N   0  0  0  0  0  0  0  0  0  0  0  0
   -3.0560   -2.1250   -0.3900 C   0  0  0  0  0  0  0  0  0  0  0  0
   -1.7420   -1.4820   -0.8500 C   0  0  1  0  0  0  0  0  0  0  0  0
   -2.0410   -0.6820   -1.9370 O   0  0  0  0  0  0  0  0  0  0  0  0
   -1.3150   -0.5610    0.2790 C   0  0  2  0  0  0  0  0  0  0  0  0
   -2.4010    0.2730    0.5220 O   0  0  0  0  0  0  0  0  0  0  0  0
   -2.1880    1.5750    0.0760 C   0  0  0  0  0  0  0  0  0  0  0  0
   -1.1190    2.1630    0.9690 C   0  0  2  0  0  0  0  0  0  0  0  0
   -0.7710    3.5520    0.5070 C   0  0  0  0  0  0  0  0  0  0  0  0
    0.6050    3.6020    0.7080 O   0  0  0  0  0  0  0  0  0  0  0  0
    1.0600    2.4060    0.1540 C   0  0  0  0  0  0  0  0  0  0  0  0
    0.1510    1.3700    0.8290 C   0  0  1  0  0  0  0  0  0  0  0  0
    0.6580    1.0480    2.0890 O   0  0  0  0  0  0  0  0  0  0  0  0
   -0.0520    0.1700   -0.0350 C   0  0  1  0  0  0  0  0  0  0  0  0
    1.0980   -0.8090    0.0810 C   0  0  0  0  0  0  0  0  0  0  0  0
    2.3410   -0.1890   -0.2040 O   0  0  0  0  0  0  0  0  0  0  0  0
    3.4760   -0.9680   -0.1360 C   0  0  0  0  0  0  0  0  0  0  0  0
    3.3740   -2.2000    0.1760 O   0  0  0  0  0  0  0  0  0  0  0  0
    4.8330   -0.4530   -0.4070 C   0  0  0  0  0  0  0  0  0  0  0  0
    5.7970   -1.4460   -0.2680 O   0  0  0  0  0  0  0  0  0  0  0  0
  1  2  1  0
  2  3  1  0
  3  4  1  6
  3  5  1  0
  5  6  1  6
  5 14  1  0
  6  7  1  0
  8  7  1  6
  8  9  1  0
  8 12  1  0
  9 10  1  0
 10 11  1  0
 11 12  1  0
 12 13  1  1
 12 14  1  0
 14 15  1  1
 15 16  1  0
 16 17  1  0
 17 18  2  0
 17 19  1  0
 19 20  1  0
M  CHG  1   1   1
M  END
