
     RDKit          3D

 28 30  0  0  0  0  0  0  0  0999 V2000
   -4.9630   -1.2280   -0.8320 C   0  0  0  0  0  0  0  0  0  0  0  0
   -4.5880   -1.3450    0.7670 S   0  0  0  0  0  0  0  0  0  0  0  0
   -5.1390   -2.8670    0.9540 C   0  0  0  0  0  0  0  0  0  0  0  0
   -5.5710    0.0030    0.9780 O   0  0  0  0  0  0  0  0  0  0  0  0
   -2.9850   -1.0650    0.4150 N   0  0  0  0  0  0  0  0  0  0  0  0
   -2.4930    0.2270    0.3560 C   0  0  0  0  0  0  0  0  0  0  0  0
   -3.3540    1.1610    0.5920 O   0  0  0  0  0  0  0  0  0  0  0  0
   -1.1240    0.5630    0.0560 C   0  0  0  0  0  0  0  0  0  0  0  0
   -0.7520    1.9130    0.1340 C   0  0  0  0  0  0  0  0  0  0  0  0
   -1.9630    3.0750    0.6690 Cl  0  0  0  0  0  0  0  0  0  0  0  0
    0.4980    2.3250   -0.1340 N   0  0  0  0  0  0  0  0  0  0  0  0
    0.8930    3.7100   -0.1460 C   0  0  0  0  0  0  0  0  0  0  0  0
    2.1500    4.1510   -0.1120 C   0  0  0  0  0  0  0  0  0  0  0  0
    2.1360    5.6640   -0.1470 C   0  0  0  0  0  0  0  0  0  0  0  0
    0.7110    5.9780   -0.2280 C   0  0  0  0  0  0  0  0  0  0  0  0
    0.0090    4.8420   -0.2240 C   0  0  0  0  0  0  0  0  0  0  0  0
    1.4220    1.3980   -0.4870 C   0  0  0  0  0  0  0  0  0  0  0  0
    2.6340    1.7210   -0.7570 O   0  0  0  0  0  0  0  0  0  0  0  0
    1.0810    0.0980   -0.5640 N   0  0  0  0  0  0  0  0  0  0  0  0
    2.1080   -0.8510   -0.9630 C   0  0  0  0  0  0  0  0  0  0  0  0
    2.9440   -1.3690    0.1600 C   0  0  1  0  0  0  0  0  0  0  0  0
    2.2100   -2.1120    1.2320 C   0  0  0  0  0  0  0  0  0  0  0  0
    3.4140   -3.0480    2.2710 S   0  0  0  0  0  0  0  0  0  0  0  0
    4.6710   -3.7570    1.1210 C   0  0  0  0  0  0  0  0  0  0  0  0
    4.1260   -3.3500   -0.2660 C   0  0  0  0  0  0  0  0  0  0  0  0
    4.0910   -1.9870   -0.3030 O   0  0  0  0  0  0  0  0  0  0  0  0
   -0.1620   -0.3230   -0.3020 C   0  0  0  0  0  0  0  0  0  0  0  0
   -0.4050   -1.5790   -0.4040 O   0  0  0  0  0  0  0  0  0  0  0  0
  1  2  1  0
  2  3  1  0
  2  4  2  0
  2  5  1  0
  5  6  1  0
  6  7  2  0
  6  8  1  0
  8  9  2  0
  8 27  1  0
  9 10  1  0
  9 11  1  0
 11 12  1  0
 11 17  1  0
 12 13  2  0
 12 16  1  0
 13 14  1  0
 14 15  1  0
 15 16  2  0
 17 18  2  0
 17 19  1  0
 19 20  1  0
 19 27  1  0
 21 20  1  6
 21 22  1  0
 21 26  1  0
 22 23  1  0
 23 24  1  0
 24 25  1  0
 25 26  1  0
 27 28  2  0
M  END
