
     RDKit          3D

 28 30  0  0  0  0  0  0  0  0999 V2000
    1.4120    1.0000    1.7940 C   0  0  0  0  0  0  0  0  0  0  0  0
    1.7000    0.9870    0.3910 N   0  0  0  0  0  0  0  0  0  0  0  0
    0.7250    0.2340   -0.4530 C   0  0  0  0  0  0  0  0  0  0  0  0
   -0.3100    0.9640   -0.7050 C   0  0  0  0  0  0  0  0  0  0  0  0
   -0.3700    2.6240   -0.0380 Cl  0  0  0  0  0  0  0  0  0  0  0  0
   -1.5340    0.6620   -1.5060 C   0  0  0  0  0  0  0  0  0  0  0  0
   -2.5510    0.1690   -0.5680 C   0  0  0  0  0  0  0  0  0  0  0  0
   -3.6060    1.0290   -0.0190 C   0  0  1  0  0  0  0  0  0  0  0  0
   -4.8440    1.1220   -0.8970 C   0  0  0  0  0  0  0  0  0  0  0  0
   -5.9280    1.3820    0.1280 C   0  0  0  0  0  0  0  0  0  0  0  0
   -5.2970    1.1310    1.4790 C   0  0  0  0  0  0  0  0  0  0  0  0
   -4.1830    0.2530    1.1070 N   0  0  0  0  0  0  0  0  0  0  0  0
   -3.6750   -0.9740    1.5760 C   0  0  0  0  0  0  0  0  0  0  0  0
   -3.5720   -1.0710    2.8540 O   0  0  0  0  0  0  0  0  0  0  0  0
   -3.1610   -2.3940    0.6540 S   0  0  0  0  0  0  0  0  0  0  0  0
   -1.4420   -2.8570    0.8090 C   0  0  0  0  0  0  0  0  0  0  0  0
   -0.8120   -2.8670   -0.5670 C   0  0  0  0  0  0  0  0  0  0  0  0
    0.5800   -2.3620   -0.5980 C   0  0  0  0  0  0  0  0  0  0  0  0
    1.3820   -3.3760   -0.3590 O   0  0  0  0  0  0  0  0  0  0  0  0
    1.0710   -1.0790   -0.8290 N   0  0  0  0  0  0  0  0  0  0  0  0
    3.0270    1.7450   -0.3490 S   0  0  2  0  0  0  0  0  0  0  0  0
    2.9740    3.2210    0.0120 O   0  0  0  0  0  0  0  0  0  0  0  0
    2.9280    1.6100   -1.8370 O   0  0  0  0  0  0  0  0  0  0  0  0
    4.5630    1.1070    0.2210 C   0  0  0  0  0  0  0  0  0  0  0  0
    4.6860   -0.3700   -0.0620 C   0  0  0  0  0  0  0  0  0  0  0  0
    6.0070   -0.8920    0.4350 C   0  0  1  0  0  0  0  0  0  0  0  0
    7.2790   -0.3870   -0.0510 C   0  0  0  0  0  0  0  0  0  0  0  0
    6.7740    0.0560    1.1980 O   0  0  0  0  0  0  0  0  0  0  0  0
  1  2  1  0
  2  3  1  0
  2 21  1  0
  3  4  2  0
  3 20  1  0
  4  5  1  0
  4  6  1  0
  6  7  1  0
  8  7  1  6
  8  9  1  0
  8 12  1  0
  9 10  1  0
 10 11  1  0
 11 12  1  0
 12 13  1  0
 13 14  2  0
 13 15  1  0
 15 16  1  0
 16 17  1  0
 17 18  1  0
 18 19  2  0
 18 20  1  0
 21 22  2  0
 21 23  2  0
 21 24  1  1
 24 25  1  0
 26 25  1  6
 26 27  1  0
 26 28  1  0
 27 28  1  0
M  END
