
     RDKit          3D

 28 30  0  0  0  0  0  0  0  0999 V2000
    6.0870   -2.8450    1.5230 C   0  0  0  0  0  0  0  0  0  0  0  0
    4.8750   -2.4930    2.8250 S   0  0  0  0  0  0  0  0  0  0  0  0
    4.0140   -0.9260    2.5080 C   0  0  1  0  0  0  0  0  0  0  0  0
    3.2280   -1.1030    1.3200 N   0  0  0  0  0  0  0  0  0  0  0  0
    2.0530   -0.6470    1.5330 C   0  0  0  0  0  0  0  0  0  0  0  0
    0.9600   -0.6640    0.5130 C   0  0  1  0  0  0  0  0  0  0  0  0
    0.5460    0.7690    0.2690 C   0  0  0  0  0  0  0  0  0  0  0  0
   -0.7400    0.8720   -0.4970 C   0  0  2  0  0  0  0  0  0  0  0  0
   -1.6210    1.8970    0.1030 C   0  0  0  0  0  0  0  0  0  0  0  0
   -0.9080    3.2480    0.0240 C   0  0  0  0  0  0  0  0  0  0  0  0
   -0.0130    3.5280    0.8590 O   0  0  0  0  0  0  0  0  0  0  0  0
   -1.2350    4.1710   -0.9580 O   0  0  0  0  0  0  0  0  0  0  0  0
   -0.5270    5.4010   -0.9630 C   0  0  0  0  0  0  0  0  0  0  0  0
   -1.0080    6.2790   -2.1030 C   0  0  0  0  0  0  0  0  0  0  0  0
   -2.7220    6.6110   -1.9200 Cl  0  0  0  0  0  0  0  0  0  0  0  0
   -1.3430   -0.4390   -0.7150 N   0  0  0  0  0  0  0  0  0  0  0  0
   -2.4300   -0.8460   -0.0000 C   0  0  0  0  0  0  0  0  0  0  0  0
   -2.9010    0.0600    0.8330 O   0  0  0  0  0  0  0  0  0  0  0  0
   -3.1280   -2.1100   -0.0240 C   0  0  0  0  0  0  0  0  0  0  0  0
   -3.0610   -3.3050   -0.5620 C   0  0  0  0  0  0  0  0  0  0  0  0
   -3.9880   -4.2580   -0.3520 C   0  0  0  0  0  0  0  0  0  0  0  0
   -5.0380   -3.9550    0.4600 C   0  0  0  0  0  0  0  0  0  0  0  0
   -4.7080   -2.2700    0.9430 S   0  0  0  0  0  0  0  0  0  0  0  0
   -0.8160   -1.3700   -1.7400 C   0  0  0  0  0  0  0  0  0  0  0  0
    0.2600   -2.2280   -1.1790 C   0  0  0  0  0  0  0  0  0  0  0  0
    1.3380   -1.3980   -0.6420 N   0  0  0  0  0  0  0  0  0  0  0  0
    2.0340   -0.1700    2.8330 O   0  0  0  0  0  0  0  0  0  0  0  0
    3.0740   -0.7450    3.5040 O   0  0  0  0  0  0  0  0  0  0  0  0
  1  2  1  0
  3  2  1  1
  3  4  1  0
  3 28  1  0
  4  5  2  0
  6  5  1  1
  5 27  1  0
  6  7  1  0
  6 26  1  0
  7  8  1  0
  8  9  1  1
  8 16  1  0
  9 10  1  0
 10 11  2  0
 10 12  1  0
 12 13  1  0
 13 14  1  0
 14 15  1  0
 16 17  1  0
 16 24  1  0
 17 18  2  0
 17 19  1  0
 19 20  2  0
 19 23  1  0
 20 21  1  0
 21 22  2  0
 22 23  1  0
 24 25  1  0
 25 26  1  0
 27 28  1  0
M  END
