
     RDKit          3D

 20 21  0  0  0  0  0  0  0  0999 V2000
   -3.8580    2.2230   -0.5550 N   0  0  0  0  0  0  0  0  0  0  0  0
   -3.4190    0.8520   -0.6750 C   0  0  0  0  0  0  0  0  0  0  0  0
   -2.4970    0.4770    0.4980 C   0  0  2  0  0  0  0  0  0  0  0  0
   -1.3340    1.4110    0.4270 C   0  0  2  0  0  0  0  0  0  0  0  0
   -0.8090    1.5520   -0.8420 O   0  0  0  0  0  0  0  0  0  0  0  0
   -0.3090    0.9540    1.4340 C   0  0  0  0  0  0  0  0  0  0  0  0
    0.2310   -0.4160    1.0550 C   0  0  2  0  0  0  0  0  0  0  0  0
    1.1230   -0.1930   -0.0210 O   0  0  0  0  0  0  0  0  0  0  0  0
    2.4930   -0.3630    0.1210 C   0  0  0  0  0  0  0  0  0  0  0  0
    2.9020   -0.7270    1.2600 O   0  0  0  0  0  0  0  0  0  0  0  0
    3.4040   -0.1650   -0.8760 O   0  0  0  0  0  0  0  0  0  0  0  0
    4.7910   -0.3470   -0.6940 C   0  0  0  0  0  0  0  0  0  0  0  0
    5.3450    0.5720    0.3740 C   0  0  0  0  0  0  0  0  0  0  0  0
    5.1230    1.9200    0.0080 O   0  0  0  0  0  0  0  0  0  0  0  0
   -0.8270   -1.4100    0.7560 C   0  0  2  0  0  0  0  0  0  0  0  0
   -0.5120   -2.2490   -0.4920 C   0  0  2  0  0  0  0  0  0  0  0  0
   -0.0810   -1.4540   -1.5400 O   0  0  0  0  0  0  0  0  0  0  0  0
   -1.9170   -2.7100   -0.8290 C   0  0  0  0  0  0  0  0  0  0  0  0
   -2.6130   -1.4990   -0.7230 O   0  0  0  0  0  0  0  0  0  0  0  0
   -2.1930   -0.9580    0.5210 C   0  0  2  0  0  0  0  0  0  0  0  0
  1  2  1  0
  3  2  1  6
  3  4  1  0
  3 20  1  0
  4  5  1  6
  4  6  1  0
  6  7  1  0
  7  8  1  6
 15  7  1  6
  8  9  1  0
  9 10  2  0
  9 11  1  0
 11 12  1  0
 12 13  1  0
 13 14  1  0
 15 16  1  0
 15 20  1  0
 16 17  1  6
 16 18  1  0
 18 19  1  0
 20 19  1  6
M  CHG  1   1   1
M  END
