
     RDKit          3D

 15 15  0  0  0  0  0  0  0  0999 V2000
   -1.0750   -2.6670    0.2450 C   0  0  0  0  0  0  0  0  0  0  0  0
   -0.8130   -1.4990    1.0530 N   0  0  0  0  0  0  0  0  0  0  0  0
   -0.2330   -0.4120    0.3260 C   0  0  1  0  0  0  0  0  0  0  0  0
    1.2000   -0.3020    0.6880 C   0  0  0  0  0  0  0  0  0  0  0  0
    1.6870   -1.1000    1.5120 O   0  0  0  0  0  0  0  0  0  0  0  0
    2.0580    0.6850    0.1340 N   0  0  0  0  0  0  0  0  0  0  0  0
    3.4240    0.7340    0.5270 C   0  0  0  0  0  0  0  0  0  0  0  0
    4.2890    1.7230   -0.0280 N   0  0  0  0  0  0  0  0  0  0  0  0
    3.8900   -0.0900    1.3650 O   0  0  0  0  0  0  0  0  0  0  0  0
   -0.3060   -0.5860   -1.1660 C   0  0  0  0  0  0  0  0  0  0  0  0
   -1.5410   -0.4400   -1.7070 O   0  0  0  0  0  0  0  0  0  0  0  0
   -2.4450    0.2910   -0.9930 C   0  0  0  0  0  0  0  0  0  0  0  0
   -1.8400    1.4330   -0.2440 C   0  0  2  0  0  0  0  0  0  0  0  0
   -1.2210    2.3170   -1.1360 O   0  0  0  0  0  0  0  0  0  0  0  0
   -0.8860    0.8920    0.7720 C   0  0  0  0  0  0  0  0  0  0  0  0
  1  2  1  0
  3  2  1  1
  3  4  1  0
  3 10  1  0
  3 15  1  0
  4  5  2  0
  4  6  1  0
  6  7  1  0
  7  8  1  0
  7  9  2  0
 10 11  1  0
 11 12  1  0
 12 13  1  0
 13 14  1  6
 13 15  1  0
M  CHG  1   2   1
M  END
