
     RDKit          3D

 15 15  0  0  0  0  0  0  0  0999 V2000
    4.3890    0.0550    1.3070 C   0  0  0  0  0  0  0  0  0  0  0  0
    3.4630   -0.6200    0.3120 C   0  0  0  0  0  0  0  0  0  0  0  0
    2.0640   -0.1100    0.4750 C   0  0  0  0  0  0  0  0  0  0  0  0
    1.2280   -0.7400   -0.4460 O   0  0  0  0  0  0  0  0  0  0  0  0
   -0.0470   -0.2420   -0.2600 C   0  0  2  0  0  0  0  0  0  0  0  0
   -1.0550   -1.3130    0.0760 C   0  0  0  0  0  0  0  0  0  0  0  0
   -2.3230   -0.6560    0.5020 C   0  0  1  0  0  0  0  0  0  0  0  0
   -3.3560   -1.6080    0.3510 O   0  0  0  0  0  0  0  0  0  0  0  0
   -2.2390   -0.3850    1.8690 O   0  0  0  0  0  0  0  0  0  0  0  0
   -2.6750    0.5750   -0.2810 C   0  0  2  0  0  0  0  0  0  0  0  0
   -2.5990    1.7300    0.6080 N   0  0  0  0  0  0  0  0  0  0  0  0
   -3.9780    0.5290   -0.7770 O   0  0  0  0  0  0  0  0  0  0  0  0
   -1.8050    0.8030   -1.4120 N   0  0  0  0  0  0  0  0  0  0  0  0
   -0.5770    0.4500   -1.4650 C   0  0  0  0  0  0  0  0  0  0  0  0
    0.2880    0.6700   -2.5730 N   0  0  0  0  0  0  0  0  0  0  0  0
  1  2  1  0
  2  3  1  0
  3  4  1  0
  5  4  1  6
  5  6  1  0
  5 14  1  0
  6  7  1  0
  7  8  1  1
  7  9  1  0
  7 10  1  0
 10 11  1  1
 10 12  1  0
 10 13  1  0
 13 14  2  0
 14 15  1  0
M  END
