
     RDKit          3D

 17 19  0  0  0  0  0  0  0  0999 V2000
    5.7160    0.3740    1.9570 N   0  0  0  0  0  0  0  0  0  0  0  0
    4.6440    0.2390    1.5430 C   0  0  0  0  0  0  0  0  0  0  0  0
    3.2970    0.0930    1.0130 C   0  0  0  0  0  0  0  0  0  0  0  0
    2.5720   -1.0700    1.1800 C   0  0  0  0  0  0  0  0  0  0  0  0
    1.2780   -1.1840    0.6610 C   0  0  0  0  0  0  0  0  0  0  0  0
    0.7030   -0.1510   -0.0200 C   0  0  0  0  0  0  0  0  0  0  0  0
   -0.6470   -0.2010   -0.5910 C   0  0  0  0  0  0  0  0  0  0  0  0
   -0.8770   -0.6440   -1.8780 C   0  0  0  0  0  0  0  0  0  0  0  0
   -2.1550   -0.6910   -2.4150 C   0  0  0  0  0  0  0  0  0  0  0  0
   -3.2370   -0.2900   -1.6610 C   0  0  0  0  0  0  0  0  0  0  0  0
   -2.9860    0.1490   -0.3790 C   0  0  0  0  0  0  0  0  0  0  0  0
   -3.8280    0.6010    0.5900 N   0  0  0  0  0  0  0  0  0  0  0  0
   -3.0660    0.9060    1.6680 C   0  0  0  0  0  0  0  0  0  0  0  0
   -1.7830    0.6450    1.3640 N   0  0  0  0  0  0  0  0  0  0  0  0
   -1.7200    0.1850    0.1240 N   0  0  0  0  0  0  0  0  0  0  0  0
    1.4300    1.0110   -0.1860 C   0  0  0  0  0  0  0  0  0  0  0  0
    2.6950    1.1200    0.3230 C   0  0  0  0  0  0  0  0  0  0  0  0
  1  2  3  0
  2  3  1  0
  3  4  2  0
  3 17  1  0
  4  5  1  0
  5  6  2  0
  6  7  1  0
  6 16  1  0
  7  8  2  0
  7 15  1  0
  8  9  1  0
  9 10  2  0
 10 11  1  0
 11 12  2  0
 11 15  1  0
 12 13  1  0
 13 14  2  0
 14 15  1  0
 16 17  2  0
M  END
