
     RDKit          3D

 15 15  0  0  0  0  0  0  0  0999 V2000
    3.9510   -0.7530    0.5790 N   0  0  0  0  0  0  0  0  0  0  0  0
    2.9230    0.0450    0.8950 O   0  0  0  0  0  0  0  0  0  0  0  0
    1.9770    0.4200   -0.0620 C   0  0  0  0  0  0  0  0  0  0  0  0
    2.2070    1.4740   -0.8030 C   0  0  0  0  0  0  0  0  0  0  0  0
    3.3870    2.2260   -0.6480 O   0  0  0  0  0  0  0  0  0  0  0  0
    0.7590   -0.3860   -0.1970 C   0  0  2  0  0  0  0  0  0  0  0  0
    1.0450   -1.6960   -0.5790 O   0  0  0  0  0  0  0  0  0  0  0  0
   -0.2100    0.2840   -1.1230 C   0  0  0  0  0  0  0  0  0  0  0  0
   -1.4720   -0.3320   -0.6660 N   0  0  0  0  0  0  0  0  0  0  0  0
   -1.4450   -0.3390    0.7530 C   0  0  0  0  0  0  0  0  0  0  0  0
   -2.4400   -0.2390    1.6170 C   0  0  0  0  0  0  0  0  0  0  0  0
   -3.8210   -0.0950    1.2070 C   0  0  0  0  0  0  0  0  0  0  0  0
   -4.2050   -0.0490   -0.1500 N   0  0  0  0  0  0  0  0  0  0  0  0
   -4.7120   -0.0080    2.0860 O   0  0  0  0  0  0  0  0  0  0  0  0
    0.0090   -0.4840    1.1340 C   0  0  0  0  0  0  0  0  0  0  0  0
  1  2  1  0
  2  3  1  0
  3  4  2  3
  3  6  1  0
  4  5  1  0
  6  7  1  6
  6  8  1  0
  6 15  1  0
  8  9  1  0
  9 10  1  0
 10 11  2  3
 10 15  1  0
 11 12  1  0
 12 13  1  0
 12 14  2  0
M  END
