
     RDKit          3D

 14 14  0  0  0  0  0  0  0  0999 V2000
   -0.8780    2.2120    1.8950 N   0  0  0  0  0  0  0  0  0  0  0  0
   -1.1890    1.6470    0.6330 C   0  0  0  0  0  0  0  0  0  0  0  0
   -1.4580    2.4530   -0.2880 O   0  0  0  0  0  0  0  0  0  0  0  0
   -1.2180    0.2150    0.3480 C   0  0  1  0  0  0  0  0  0  0  0  0
   -1.6590   -0.0800   -1.0300 N   0  0  0  0  0  0  0  0  0  0  0  0
   -1.9930   -1.4500   -1.2430 C   0  0  0  0  0  0  0  0  0  0  0  0
   -2.8250   -1.7300   -2.1370 O   0  0  0  0  0  0  0  0  0  0  0  0
   -1.3330   -2.4250   -0.4010 C   0  0  0  0  0  0  0  0  0  0  0  0
   -0.4700   -2.0470    0.5040 C   0  0  0  0  0  0  0  0  0  0  0  0
   -0.0760   -0.6110    0.7560 C   0  0  1  0  0  0  0  0  0  0  0  0
    1.2670   -0.4050    0.2040 C   0  0  1  0  0  0  0  0  0  0  0  0
    1.5060   -0.5330   -1.1790 N   0  0  0  0  0  0  0  0  0  0  0  0
    1.9650    0.8480    0.6810 C   0  0  0  0  0  0  0  0  0  0  0  0
    1.5780    2.0000    0.0500 O   0  0  0  0  0  0  0  0  0  0  0  0
  1  2  1  0
  2  3  2  0
  4  2  1  6
  4  5  1  0
  4 10  1  0
  5  6  1  0
  6  7  2  0
  6  8  1  0
  8  9  2  0
 10  9  1  6
 10 11  1  0
 11 12  1  6
 11 13  1  0
 13 14  1  0
M  CHG  1  12   1
M  END
