
     RDKit          3D

 26 29  0  0  0  0  0  0  0  0999 V2000
    6.2020    2.2510   -0.3340 C   0  0  0  0  0  0  0  0  0  0  0  0
    5.9090    0.8070   -0.6740 C   0  0  0  0  0  0  0  0  0  0  0  0
    4.7800    0.3620    0.1940 C   0  0  0  0  0  0  0  0  0  0  0  0
    3.4590    0.4870   -0.1890 C   0  0  0  0  0  0  0  0  0  0  0  0
    2.3960    0.0840    0.5930 C   0  0  0  0  0  0  0  0  0  0  0  0
    0.9760    0.2210    0.1740 C   0  0  0  0  0  0  0  0  0  0  0  0
    0.5320   -0.9640   -0.3900 N   0  0  0  0  0  0  0  0  0  0  0  0
    1.1460   -1.5060   -1.5330 C   0  0  0  0  0  0  0  0  0  0  0  0
    1.2800   -2.9800   -1.1130 C   0  0  0  0  0  0  0  0  0  0  0  0
   -0.0880   -3.1850   -0.4860 C   0  0  0  0  0  0  0  0  0  0  0  0
   -0.2170   -1.8900    0.3290 C   0  0  2  0  0  0  0  0  0  0  0  0
   -1.6380   -1.5420    0.5640 C   0  0  0  0  0  0  0  0  0  0  0  0
   -2.3450   -2.3390    1.2020 O   0  0  0  0  0  0  0  0  0  0  0  0
   -2.1920   -0.3420    0.0840 N   0  0  0  0  0  0  0  0  0  0  0  0
   -3.5270    0.1110    0.2370 C   0  0  0  0  0  0  0  0  0  0  0  0
   -4.5220   -0.5610    0.8680 C   0  0  0  0  0  0  0  0  0  0  0  0
   -5.8110   -0.0220    0.9660 C   0  0  0  0  0  0  0  0  0  0  0  0
   -6.1070    1.2000    0.4270 C   0  0  0  0  0  0  0  0  0  0  0  0
   -7.2810    1.9230    0.3970 C   0  0  0  0  0  0  0  0  0  0  0  0
   -6.9680    3.0800   -0.2860 C   0  0  0  0  0  0  0  0  0  0  0  0
   -5.6740    3.0370   -0.6380 N   0  0  0  0  0  0  0  0  0  0  0  0
   -5.0970    1.8900   -0.2190 C   0  0  0  0  0  0  0  0  0  0  0  0
   -3.8460    1.3590   -0.3090 C   0  0  0  0  0  0  0  0  0  0  0  0
    2.7160   -0.4730    1.8260 C   0  0  0  0  0  0  0  0  0  0  0  0
    4.0410   -0.5870    2.1840 C   0  0  0  0  0  0  0  0  0  0  0  0
    5.0460   -0.1790    1.3860 N   0  0  0  0  0  0  0  0  0  0  0  0
  1  2  1  0
  2  3  1  0
  3  4  2  0
  3 26  1  0
  4  5  1  0
  5  6  1  0
  5 24  2  0
  6  7  1  0
  7  8  1  0
  7 11  1  0
  8  9  1  0
  9 10  1  0
 10 11  1  0
 11 12  1  6
 12 13  2  0
 12 14  1  0
 14 15  1  0
 15 16  2  0
 15 23  1  0
 16 17  1  0
 17 18  2  0
 18 19  1  0
 18 22  1  0
 19 20  2  0
 20 21  1  0
 21 22  1  0
 22 23  2  0
 24 25  1  0
 25 26  2  0
M  CHG  1  26   1
M  END
