
     RDKit          3D

 28 31  0  0  0  0  0  0  0  0999 V2000
   -0.7850    0.8780   -3.3560 C   0  0  0  0  0  0  0  0  0  0  0  0
   -0.9290   -0.0960   -2.3130 N   0  0  0  0  0  0  0  0  0  0  0  0
   -0.9880    0.3370   -0.9380 C   0  0  0  0  0  0  0  0  0  0  0  0
   -0.8880    1.5960   -0.7650 O   0  0  0  0  0  0  0  0  0  0  0  0
   -1.1520   -0.5820    0.1700 C   0  0  0  0  0  0  0  0  0  0  0  0
   -2.2790   -0.7400    0.9770 C   0  0  0  0  0  0  0  0  0  0  0  0
   -3.5200    0.0060    0.8380 C   0  0  0  0  0  0  0  0  0  0  0  0
   -3.8570    0.6390   -0.3070 C   0  0  0  0  0  0  0  0  0  0  0  0
   -4.9970    1.4480   -0.3480 C   0  0  0  0  0  0  0  0  0  0  0  0
   -5.7750    1.5960    0.7960 C   0  0  0  0  0  0  0  0  0  0  0  0
   -6.8950    2.4270    0.6820 O   0  0  0  0  0  0  0  0  0  0  0  0
   -5.4410    0.9540    1.9660 C   0  0  0  0  0  0  0  0  0  0  0  0
   -4.3170    0.1550    2.0010 C   0  0  0  0  0  0  0  0  0  0  0  0
   -2.0360   -1.6500    1.8920 O   0  0  0  0  0  0  0  0  0  0  0  0
   -0.8110   -2.1260    1.7590 C   0  0  0  0  0  0  0  0  0  0  0  0
   -0.1550   -3.0850    2.4940 C   0  0  0  0  0  0  0  0  0  0  0  0
    1.1280   -3.4170    2.1620 C   0  0  0  0  0  0  0  0  0  0  0  0
    1.7590   -2.8040    1.1230 C   0  0  0  0  0  0  0  0  0  0  0  0
    3.0760   -3.0740    0.7170 O   0  0  0  0  0  0  0  0  0  0  0  0
    1.0790   -1.8170    0.3690 C   0  0  0  0  0  0  0  0  0  0  0  0
    1.8020   -1.1770   -0.7410 C   0  0  0  0  0  0  0  0  0  0  0  0
    3.0530   -0.5530   -0.2340 N   0  0  0  0  0  0  0  0  0  0  0  0
    2.8440    0.3300    0.8410 C   0  0  0  0  0  0  0  0  0  0  0  0
    3.3570    1.7080    0.7940 C   0  0  0  0  0  0  0  0  0  0  0  0
    4.3260    2.0320   -0.3090 C   0  0  0  0  0  0  0  0  0  0  0  0
    3.7140    1.4200   -1.5760 C   0  0  0  0  0  0  0  0  0  0  0  0
    3.7910   -0.0870   -1.3660 C   0  0  0  0  0  0  0  0  0  0  0  0
   -0.2100   -1.4640    0.6690 C   0  0  0  0  0  0  0  0  0  0  0  0
  1  2  1  0
  2  3  1  0
  3  4  2  0
  3  5  1  0
  5  6  2  0
  5 28  1  0
  6  7  1  0
  6 14  1  0
  7  8  2  0
  7 13  1  0
  8  9  1  0
  9 10  2  0
 10 11  1  0
 10 12  1  0
 12 13  2  0
 14 15  1  0
 15 16  2  0
 15 28  1  0
 16 17  1  0
 17 18  2  0
 18 19  1  0
 18 20  1  0
 20 21  1  0
 20 28  2  0
 21 22  1  0
 22 23  1  0
 22 27  1  0
 23 24  1  0
 24 25  1  0
 25 26  1  0
 26 27  1  0
M  END
