
     RDKit          3D

 24 26  0  0  0  0  0  0  0  0999 V2000
    4.8900   -1.9870   -0.4680 C   0  0  0  0  0  0  0  0  0  0  0  0
    4.0590   -1.0950    0.2780 O   0  0  0  0  0  0  0  0  0  0  0  0
    2.7270   -1.3830    0.5530 C   0  0  0  0  0  0  0  0  0  0  0  0
    2.3300   -2.4790    0.0940 O   0  0  0  0  0  0  0  0  0  0  0  0
    1.8530   -0.4640    1.3280 C   0  0  2  0  0  0  0  0  0  0  0  0
    0.4630   -0.8370    1.4970 C   0  0  0  0  0  0  0  0  0  0  0  0
   -0.5600   -0.4500    0.4210 C   0  0  2  0  0  0  0  0  0  0  0  0
   -1.8390   -0.2680    1.2450 C   0  0  0  0  0  0  0  0  0  0  0  0
   -2.9100   -1.2570    0.8850 C   0  0  0  0  0  0  0  0  0  0  0  0
   -3.0740   -1.4340   -0.4530 O   0  0  0  0  0  0  0  0  0  0  0  0
   -1.9950   -2.0750   -0.9610 C   0  0  2  0  0  0  0  0  0  0  0  0
   -2.2040   -3.6030   -1.0040 C   0  0  0  0  0  0  0  0  0  0  0  0
   -0.6810   -1.7290   -0.4130 C   0  0  0  0  0  0  0  0  0  0  0  0
   -0.1300    0.6920   -0.3880 C   0  0  2  0  0  0  0  0  0  0  0  0
    0.5140    0.1340   -1.5310 O   0  0  0  0  0  0  0  0  0  0  0  0
    0.8960    1.6030    0.3130 C   0  0  1  0  0  0  0  0  0  0  0  0
    0.0300    2.5110    1.1470 C   0  0  1  0  0  0  0  0  0  0  0  0
    0.8150    3.6070    1.5100 O   0  0  0  0  0  0  0  0  0  0  0  0
   -1.0430    2.8720    0.1510 C   0  0  0  0  0  0  0  0  0  0  0  0
   -0.9640    1.7730   -0.9150 C   0  0  2  0  0  0  0  0  0  0  0  0
   -2.2900    1.4810   -1.5140 C   0  0  0  0  0  0  0  0  0  0  0  0
   -0.1580    2.4380   -2.0590 C   0  0  0  0  0  0  0  0  0  0  0  0
    2.0370    0.9690    0.9340 C   0  0  1  0  0  0  0  0  0  0  0  0
    2.4510    1.7870    2.0160 O   0  0  0  0  0  0  0  0  0  0  0  0
  1  2  1  0
  2  3  1  0
  3  4  2  0
  5  3  1  6
  5  6  1  0
  5 23  1  0
  7  6  1  1
  7  8  1  0
  7 13  1  0
  7 14  1  0
  8  9  1  0
  9 10  1  0
 10 11  1  0
 11 12  1  1
 11 13  1  0
 14 15  1  6
 14 16  1  0
 14 20  1  0
 16 17  1  1
 16 23  1  0
 17 18  1  6
 17 19  1  0
 19 20  1  0
 20 21  1  6
 20 22  1  0
 23 24  1  1
M  END
