
     RDKit          3D

 26 29  0  0  0  0  0  0  0  0999 V2000
    7.2020   -1.4570    2.4000 C   0  0  0  0  0  0  0  0  0  0  0  0
    6.7390   -0.2540    1.7350 N   0  0  0  0  0  0  0  0  0  0  0  0
    5.4170   -0.3960    1.2100 C   0  0  0  0  0  0  0  0  0  0  0  0
    4.3540   -0.3310    2.2880 C   0  0  0  0  0  0  0  0  0  0  0  0
    2.9980   -0.4810    1.7090 C   0  0  0  0  0  0  0  0  0  0  0  0
    2.1700    0.5330    1.2530 C   0  0  0  0  0  0  0  0  0  0  0  0
    1.0040   -0.0110    0.7930 C   0  0  0  0  0  0  0  0  0  0  0  0
   -0.1100    0.7690    0.2340 C   0  0  0  0  0  0  0  0  0  0  0  0
   -0.0410    2.0060    0.1490 O   0  0  0  0  0  0  0  0  0  0  0  0
   -1.2980    0.1000   -0.2220 N   0  0  0  0  0  0  0  0  0  0  0  0
   -2.4000    0.7110   -0.7890 C   0  0  0  0  0  0  0  0  0  0  0  0
   -3.4890    0.0450   -1.1580 C   0  0  0  0  0  0  0  0  0  0  0  0
   -3.7360   -1.3700   -1.0690 C   0  0  0  0  0  0  0  0  0  0  0  0
   -4.8660   -1.9380   -1.5030 C   0  0  0  0  0  0  0  0  0  0  0  0
   -4.8580   -3.4030   -1.2870 C   0  0  0  0  0  0  0  0  0  0  0  0
   -3.5700   -3.6530   -0.6460 C   0  0  0  0  0  0  0  0  0  0  0  0
   -2.9540   -2.4580   -0.5400 C   0  0  0  0  0  0  0  0  0  0  0  0
   -4.6340    0.9350   -1.4930 C   0  0  0  0  0  0  0  0  0  0  0  0
   -4.6500    2.2540   -1.4290 C   0  0  0  0  0  0  0  0  0  0  0  0
   -3.4800    2.9950   -0.9830 C   0  0  2  0  0  0  0  0  0  0  0  0
   -3.1050    4.2490   -1.6030 C   0  0  0  0  0  0  0  0  0  0  0  0
   -1.9180    4.1350   -2.1690 C   0  0  0  0  0  0  0  0  0  0  0  0
   -1.4210    2.7650   -1.9640 C   0  0  0  0  0  0  0  0  0  0  0  0
   -2.3300    2.1260   -1.2820 C   0  0  0  0  0  0  0  0  0  0  0  0
    1.1040   -1.3190    0.9580 N   0  0  0  0  0  0  0  0  0  0  0  0
    2.2950   -1.6200    1.5070 N   0  0  0  0  0  0  0  0  0  0  0  0
  1  2  1  0
  2  3  1  0
  3  4  1  0
  4  5  1  0
  5  6  1  0
  5 26  2  0
  6  7  2  0
  7  8  1  0
  7 25  1  0
  8  9  2  0
  8 10  1  0
 10 11  1  0
 11 12  2  0
 11 24  1  0
 12 13  1  0
 12 18  1  0
 13 14  2  0
 13 17  1  0
 14 15  1  0
 15 16  1  0
 16 17  2  0
 18 19  2  0
 20 19  1  6
 20 21  1  0
 20 24  1  0
 21 22  2  0
 22 23  1  0
 23 24  2  0
 25 26  1  0
M  CHG  1   2   1
M  END
