
     RDKit          3D

 26 29  0  0  0  0  0  0  0  0999 V2000
   -3.0240   -1.7970   -1.2420 C   0  0  0  0  0  0  0  0  0  0  0  0
   -2.4670   -0.8700   -0.2360 C   0  0  0  0  0  0  0  0  0  0  0  0
   -1.2150   -1.0870    0.3400 C   0  0  0  0  0  0  0  0  0  0  0  0
   -0.6370   -0.2750    1.2640 C   0  0  0  0  0  0  0  0  0  0  0  0
    0.6440   -0.5180    1.8200 N   0  0  0  0  0  0  0  0  0  0  0  0
    1.5490   -1.5210    1.3340 C   0  0  0  0  0  0  0  0  0  0  0  0
    2.0820   -1.2510   -0.0540 C   0  0  1  0  0  0  0  0  0  0  0  0
    2.9130    0.0380    0.0740 C   0  0  0  0  0  0  0  0  0  0  0  0
    4.2860   -0.3880    0.2630 N   0  0  2  0  0  0  0  0  0  0  0  0
    5.1360    0.5890    0.8560 C   0  0  0  0  0  0  0  0  0  0  0  0
    5.9280    1.4280   -0.0900 C   0  0  0  0  0  0  0  0  0  0  0  0
    5.0650    2.1750   -0.9790 C   0  0  0  0  0  0  0  0  0  0  0  0
    4.3950    2.7810   -1.6910 N   0  0  0  0  0  0  0  0  0  0  0  0
    4.7430   -0.8790   -1.0290 C   0  0  0  0  0  0  0  0  0  0  0  0
    3.8070   -2.0380   -1.3850 C   0  0  0  0  0  0  0  0  0  0  0  0
    2.9370   -2.3400   -0.3460 O   0  0  0  0  0  0  0  0  0  0  0  0
   -1.3720    0.8400    1.6390 C   0  0  0  0  0  0  0  0  0  0  0  0
   -2.6200    1.0900    1.0900 C   0  0  0  0  0  0  0  0  0  0  0  0
   -3.2550    2.2120    1.5250 C   0  0  0  0  0  0  0  0  0  0  0  0
   -4.4840    2.5250    1.0290 C   0  0  0  0  0  0  0  0  0  0  0  0
   -5.0530    1.6740    0.0830 C   0  0  0  0  0  0  0  0  0  0  0  0
   -4.4500    0.5290   -0.3860 C   0  0  0  0  0  0  0  0  0  0  0  0
   -3.1890    0.2310    0.1380 C   0  0  0  0  0  0  0  0  0  0  0  0
   -5.3000   -0.1570   -1.3620 C   0  0  0  0  0  0  0  0  0  0  0  0
   -6.6720    0.4750   -1.0170 C   0  0  0  0  0  0  0  0  0  0  0  0
   -6.3030    1.7950   -0.5780 N   0  0  0  0  0  0  0  0  0  0  0  0
  1  2  1  0
  2  3  2  0
  2 23  1  0
  3  4  1  0
  4  5  1  0
  4 17  2  0
  5  6  1  0
  7  6  1  1
  7  8  1  0
  7 16  1  0
  8  9  1  0
  9 10  1  6
  9 14  1  0
 10 11  1  0
 11 12  1  0
 12 13  3  0
 14 15  1  0
 15 16  1  0
 17 18  1  0
 18 19  2  0
 18 23  1  0
 19 20  1  0
 20 21  2  0
 21 22  1  0
 21 26  1  0
 22 23  2  0
 22 24  1  0
 24 25  1  0
 25 26  1  0
M  CHG  1   9   1
M  END
