
     RDKit          3D

 25 28  0  0  0  0  0  0  0  0999 V2000
    2.2720    1.2330    1.6030 O   0  0  0  0  0  0  0  0  0  0  0  0
    3.3760    1.2360    1.0370 C   0  0  0  0  0  0  0  0  0  0  0  0
    4.3680    2.2070    1.0290 O   0  0  0  0  0  0  0  0  0  0  0  0
    5.6010    1.6640    0.5930 C   0  0  0  0  0  0  0  0  0  0  0  0
    5.3650    0.1550    0.5940 C   0  0  0  0  0  0  0  0  0  0  0  0
    3.9170    0.1320    0.1900 C   0  0  1  0  0  0  0  0  0  0  0  0
    3.2740   -1.0280    0.2650 O   0  0  0  0  0  0  0  0  0  0  0  0
    2.7000   -1.6000   -0.8010 C   0  0  0  0  0  0  0  0  0  0  0  0
    1.6370   -0.6900   -1.3750 C   0  0  1  0  0  0  0  0  0  0  0  0
    0.9300   -1.3940   -2.5420 C   0  0  0  0  0  0  0  0  0  0  0  0
   -0.0550   -2.2470   -1.7300 C   0  0  0  0  0  0  0  0  0  0  0  0
   -0.3980   -1.2750   -0.6190 C   0  0  2  0  0  0  0  0  0  0  0  0
   -0.6120   -2.0640    0.6390 C   0  0  0  0  0  0  0  0  0  0  0  0
   -2.0770   -2.1490    1.0060 C   0  0  0  0  0  0  0  0  0  0  0  0
   -2.6790   -0.7780    1.2050 C   0  0  0  0  0  0  0  0  0  0  0  0
   -2.3020    0.1850    0.1280 C   0  0  1  0  0  0  0  0  0  0  0  0
   -3.5090    0.9150   -0.4490 C   0  0  0  0  0  0  0  0  0  0  0  0
   -4.2530    1.6330    0.5280 N   0  0  0  0  0  0  0  0  0  0  0  0
   -3.5080    2.1330    1.6310 C   0  0  0  0  0  0  0  0  0  0  0  0
   -2.0600    2.3370    1.3980 C   0  0  0  0  0  0  0  0  0  0  0  0
   -1.3680    1.2470    0.6570 C   0  0  2  0  0  0  0  0  0  0  0  0
   -0.6840    1.8460   -0.4260 O   0  0  0  0  0  0  0  0  0  0  0  0
   -1.6770   -0.5780   -1.0240 C   0  0  1  0  0  0  0  0  0  0  0  0
   -1.4860    0.2220   -2.1250 O   0  0  0  0  0  0  0  0  0  0  0  0
    0.6550   -0.4250   -0.4530 O   0  0  0  0  0  0  0  0  0  0  0  0
  1  2  2  0
  2  3  1  0
  2  6  1  0
  3  4  1  0
  4  5  1  0
  5  6  1  0
  6  7  1  1
  7  8  1  0
  9  8  1  1
  9 10  1  0
  9 25  1  0
 10 11  1  0
 12 11  1  6
 12 13  1  0
 12 23  1  0
 12 25  1  0
 13 14  1  0
 14 15  1  0
 16 15  1  1
 16 17  1  0
 16 21  1  0
 16 23  1  0
 17 18  1  0
 18 19  1  0
 19 20  1  0
 20 21  1  0
 21 22  1  6
 23 24  1  6
M  CHG  1  18   1
M  END
