
     RDKit          3D

 26 29  0  0  0  0  0  0  0  0999 V2000
   -5.3180    2.9970    0.0440 C   0  0  0  0  0  0  0  0  0  0  0  0
   -4.4060    1.8730    0.3700 C   0  0  0  0  0  0  0  0  0  0  0  0
   -4.7780    0.6390    0.1840 C   0  0  0  0  0  0  0  0  0  0  0  0
   -6.0450    0.2050   -0.3320 N   0  0  0  0  0  0  0  0  0  0  0  0
   -6.0170   -1.0800   -0.3610 C   0  0  0  0  0  0  0  0  0  0  0  0
   -4.7380   -1.5750    0.1310 C   0  0  0  0  0  0  0  0  0  0  0  0
   -3.9630   -0.5510    0.4700 C   0  0  0  0  0  0  0  0  0  0  0  0
   -2.6440   -0.6070    0.9910 N   0  0  0  0  0  0  0  0  0  0  0  0
   -1.6800   -1.4730    0.3440 C   0  0  1  0  0  0  0  0  0  0  0  0
   -1.5480   -1.0030   -1.0790 C   0  0  0  0  0  0  0  0  0  0  0  0
   -1.0430    0.4180   -1.1690 C   0  0  0  0  0  0  0  0  0  0  0  0
    0.4460    0.5080   -1.1920 C   0  0  0  0  0  0  0  0  0  0  0  0
    0.9450    0.2120    0.2160 C   0  0  2  0  0  0  0  0  0  0  0  0
    2.3050    0.8060    0.4600 C   0  0  0  0  0  0  0  0  0  0  0  0
    3.3990   -0.0980    0.3160 N   0  0  0  0  0  0  0  0  0  0  0  0
    4.6760    0.4130   -0.0410 C   0  0  0  0  0  0  0  0  0  0  0  0
    4.9400    1.7650   -0.0960 C   0  0  0  0  0  0  0  0  0  0  0  0
    6.2010    2.2400   -0.4560 C   0  0  0  0  0  0  0  0  0  0  0  0
    7.1950    1.3340   -0.7600 C   0  0  0  0  0  0  0  0  0  0  0  0
    6.9490    0.0140   -0.7090 N   0  0  0  0  0  0  0  0  0  0  0  0
    5.7340   -0.4450   -0.3630 C   0  0  0  0  0  0  0  0  0  0  0  0
    3.2530   -1.5250    0.5280 C   0  0  0  0  0  0  0  0  0  0  0  0
    1.9780   -1.6770    1.3730 C   0  0  0  0  0  0  0  0  0  0  0  0
    0.8440   -1.2580    0.4250 C   0  0  2  0  0  0  0  0  0  0  0  0
    1.0880   -1.9210   -0.7630 O   0  0  0  0  0  0  0  0  0  0  0  0
   -0.4270   -1.6450    1.0900 C   0  0  0  0  0  0  0  0  0  0  0  0
  1  2  1  0
  2  3  2  3
  3  4  1  0
  3  7  1  0
  4  5  2  0
  5  6  1  0
  6  7  2  0
  7  8  1  0
  9  8  1  1
  9 10  1  0
  9 26  1  0
 10 11  1  0
 11 12  1  0
 13 12  1  6
 13 14  1  0
 13 24  1  0
 14 15  1  0
 15 16  1  0
 15 22  1  0
 16 17  2  0
 16 21  1  0
 17 18  1  0
 18 19  2  0
 19 20  1  0
 20 21  2  0
 22 23  1  0
 23 24  1  0
 24 25  1  6
 24 26  1  0
M  CHG  1   4   1
M  END
