
     RDKit          3D

 23 25  0  0  0  0  0  0  0  0999 V2000
   -5.8570   -0.9120    0.6490 C   0  0  0  0  0  0  0  0  0  0  0  0
   -4.9730    0.1840    0.7330 O   0  0  0  0  0  0  0  0  0  0  0  0
   -3.6080    0.0160    0.6710 C   0  0  0  0  0  0  0  0  0  0  0  0
   -3.1150   -1.2700    0.5220 C   0  0  0  0  0  0  0  0  0  0  0  0
   -1.7590   -1.4360    0.4610 C   0  0  0  0  0  0  0  0  0  0  0  0
   -0.8790   -0.3790    0.5410 C   0  0  0  0  0  0  0  0  0  0  0  0
    0.5700   -0.6300    0.4680 C   0  0  0  0  0  0  0  0  0  0  0  0
    1.5800    0.3010    0.5310 C   0  0  0  0  0  0  0  0  0  0  0  0
    2.7530   -0.3400    0.4260 N   0  0  0  0  0  0  0  0  0  0  0  0
    4.0620    0.2130    0.4400 C   0  0  0  0  0  0  0  0  0  0  0  0
    4.6790    0.6130   -0.6530 C   0  0  0  0  0  0  0  0  0  0  0  0
    5.9710    1.1780   -0.7840 N   0  0  0  0  0  0  0  0  0  0  0  0
    6.1800    1.4380   -2.1380 N   0  0  0  0  0  0  0  0  0  0  0  0
    5.1920    1.1070   -2.8310 N   0  0  0  0  0  0  0  0  0  0  0  0
    4.1370    0.5570   -2.0230 C   0  0  0  0  0  0  0  0  0  0  0  0
    3.0120    0.1270   -2.3950 O   0  0  0  0  0  0  0  0  0  0  0  0
    2.5260   -1.6780    0.2950 C   0  0  0  0  0  0  0  0  0  0  0  0
    3.5160   -2.6800    0.1590 N   0  0  0  0  0  0  0  0  0  0  0  0
    1.1840   -1.8170    0.3250 N   0  0  0  0  0  0  0  0  0  0  0  0
   -1.3590    0.9050    0.6890 C   0  0  0  0  0  0  0  0  0  0  0  0
   -2.7260    1.0810    0.7520 C   0  0  0  0  0  0  0  0  0  0  0  0
   -3.3910    2.7240    0.9440 S   0  0  0  0  0  0  0  0  0  0  0  0
   -3.6530    3.4090   -0.7270 C   0  0  0  0  0  0  0  0  0  0  0  0
  1  2  1  0
  2  3  1  0
  3  4  2  0
  3 21  1  0
  4  5  1  0
  5  6  2  0
  6  7  1  0
  6 20  1  0
  7  8  2  0
  7 19  1  0
  8  9  1  0
  9 10  1  0
  9 17  1  0
 10 11  2  3
 11 12  1  0
 11 15  1  0
 12 13  1  0
 13 14  2  0
 14 15  1  0
 15 16  2  0
 17 18  1  0
 17 19  2  0
 20 21  2  0
 21 22  1  0
 22 23  1  0
M  CHG  1  19   1
M  END
