
     RDKit          3D

 23 25  0  0  0  0  0  0  0  0999 V2000
   -5.2660    2.5070    0.8910 N   0  0  0  0  0  0  0  0  0  0  0  0
   -4.4090    1.3740    0.9350 C   0  0  0  0  0  0  0  0  0  0  0  0
   -3.6270    1.0770    2.0380 C   0  0  0  0  0  0  0  0  0  0  0  0
   -2.7990   -0.0190    2.0770 C   0  0  0  0  0  0  0  0  0  0  0  0
   -2.7220   -0.8820    0.9820 C   0  0  0  0  0  0  0  0  0  0  0  0
   -1.8680   -2.0000    1.0310 N   0  0  0  0  0  0  0  0  0  0  0  0
   -0.8180   -2.3880   -0.2740 S   0  0  1  0  0  0  0  0  0  0  0  0
   -0.6160   -3.8910   -0.2440 O   0  0  0  0  0  0  0  0  0  0  0  0
   -1.4140   -2.0680   -1.6050 O   0  0  0  0  0  0  0  0  0  0  0  0
    0.7160   -1.6530   -0.0880 N   0  0  0  0  0  0  0  0  0  0  0  0
    0.9800   -0.4240   -0.2870 C   0  0  0  0  0  0  0  0  0  0  0  0
   -0.0430    0.4930   -0.7060 N   0  0  0  0  0  0  0  0  0  0  0  0
    0.2250    1.8930   -0.4260 C   0  0  0  0  0  0  0  0  0  0  0  0
    1.4750    2.2840   -1.1620 C   0  0  0  0  0  0  0  0  0  0  0  0
    2.4940    1.1930   -1.2310 C   0  0  0  0  0  0  0  0  0  0  0  0
    2.3260    0.1720   -0.1140 C   0  0  2  0  0  0  0  0  0  0  0  0
    3.4120   -0.7960   -0.2320 C   0  0  0  0  0  0  0  0  0  0  0  0
    3.6830   -1.6070   -1.2620 N   0  0  0  0  0  0  0  0  0  0  0  0
    4.7810   -2.3470   -0.9620 C   0  0  0  0  0  0  0  0  0  0  0  0
    5.1730   -1.9620    0.2850 C   0  0  0  0  0  0  0  0  0  0  0  0
    4.3310   -1.0140    0.7250 N   0  0  0  0  0  0  0  0  0  0  0  0
   -3.4940   -0.6000   -0.1220 C   0  0  0  0  0  0  0  0  0  0  0  0
   -4.3140    0.5050   -0.1340 C   0  0  0  0  0  0  0  0  0  0  0  0
  1  2  1  0
  2  3  2  0
  2 23  1  0
  3  4  1  0
  4  5  2  0
  5  6  1  0
  5 22  1  0
  7  6  1  1
  7  8  2  0
  7  9  2  0
  7 10  1  0
 10 11  2  3
 11 12  1  0
 11 16  1  0
 12 13  1  0
 13 14  1  0
 14 15  1  0
 15 16  1  0
 16 17  1  6
 17 18  1  0
 17 21  2  0
 18 19  1  0
 19 20  2  0
 20 21  1  0
 22 23  2  0
M  CHG  1  21   1
M  END
