
     RDKit          3D

 23 25  0  0  0  0  0  0  0  0999 V2000
   -4.1660    2.1450    0.0330 N   0  0  0  0  0  0  0  0  0  0  0  0
   -4.9170    1.0440   -0.4520 C   0  0  0  0  0  0  0  0  0  0  0  0
   -6.0330    1.1020   -1.2150 N   0  0  0  0  0  0  0  0  0  0  0  0
   -6.4740   -0.1100   -1.4800 N   0  0  0  0  0  0  0  0  0  0  0  0
   -5.6610   -1.0000   -0.9010 C   0  0  0  0  0  0  0  0  0  0  0  0
   -5.4080   -2.2960   -0.6880 N   0  0  0  0  0  0  0  0  0  0  0  0
   -4.3090   -2.4510    0.0660 C   0  0  0  0  0  0  0  0  0  0  0  0
   -3.8110   -1.1890    0.3680 C   0  0  0  0  0  0  0  0  0  0  0  0
   -2.6160   -0.8350    1.1600 C   0  0  0  0  0  0  0  0  0  0  0  0
   -1.4880   -0.4560    0.2330 C   0  0  0  0  0  0  0  0  0  0  0  0
   -0.2600   -0.1000    0.9610 C   0  0  0  0  0  0  0  0  0  0  0  0
   -0.2830   -0.1110    2.2160 O   0  0  0  0  0  0  0  0  0  0  0  0
    0.9580    0.2560    0.3250 N   0  0  0  0  0  0  0  0  0  0  0  0
    2.1350    0.5790    1.0270 C   0  0  0  0  0  0  0  0  0  0  0  0
    2.0340    0.5490    2.3060 O   0  0  0  0  0  0  0  0  0  0  0  0
    3.3640    0.9180    0.4220 N   0  0  0  0  0  0  0  0  0  0  0  0
    4.5530    1.2350    1.2140 C   0  0  0  0  0  0  0  0  0  0  0  0
    5.5310    0.1220    0.9410 C   0  0  0  0  0  0  0  0  0  0  0  0
    5.7840    0.0470   -0.5410 C   0  0  1  0  0  0  0  0  0  0  0  0
    6.8250   -1.4300   -0.8250 S   0  0  0  0  0  0  0  0  0  0  0  0
    4.5270   -0.1390   -1.3450 C   0  0  0  0  0  0  0  0  0  0  0  0
    3.5310    0.9660   -1.0080 C   0  0  0  0  0  0  0  0  0  0  0  0
   -4.6600   -0.3060   -0.2380 C   0  0  0  0  0  0  0  0  0  0  0  0
  1  2  1  0
  2  3  2  0
  2 23  1  0
  3  4  1  0
  4  5  1  0
  5  6  1  0
  5 23  2  0
  6  7  1  0
  7  8  2  0
  8  9  1  0
  8 23  1  0
  9 10  1  0
 10 11  1  0
 11 12  2  0
 11 13  1  0
 13 14  1  0
 14 15  2  0
 14 16  1  0
 16 17  1  0
 16 22  1  0
 17 18  1  0
 18 19  1  0
 19 20  1  1
 19 21  1  0
 21 22  1  0
M  CHG  1   3   1
M  END
