
     RDKit          3D

 23 24  0  0  0  0  0  0  0  0999 V2000
   -6.8300   -0.5200    1.4170 C   0  0  0  0  0  0  0  0  0  0  0  0
   -6.5410    0.3540    0.4300 C   0  0  0  0  0  0  0  0  0  0  0  0
   -5.1970    0.3610   -0.0010 C   0  0  0  0  0  0  0  0  0  0  0  0
   -4.2650   -0.3870    0.5080 O   0  0  0  0  0  0  0  0  0  0  0  0
   -4.7160    1.1870   -1.0760 N   0  0  0  0  0  0  0  0  0  0  0  0
   -3.3630    1.0370   -1.2400 C   0  0  0  0  0  0  0  0  0  0  0  0
   -2.7030    0.9410   -2.1490 N   0  0  0  0  0  0  0  0  0  0  0  0
   -1.3530    0.7820   -2.4000 C   0  0  0  0  0  0  0  0  0  0  0  0
   -0.9810    0.6880   -3.5760 O   0  0  0  0  0  0  0  0  0  0  0  0
   -0.3470    0.7100   -1.3080 C   0  0  0  0  0  0  0  0  0  0  0  0
    0.8630    0.5760   -1.5780 N   0  0  0  0  0  0  0  0  0  0  0  0
    1.9790    0.4870   -0.8030 C   0  0  0  0  0  0  0  0  0  0  0  0
    2.4980    1.4350    0.0900 C   0  0  0  0  0  0  0  0  0  0  0  0
    3.6280    0.9580    0.6400 N   0  0  0  0  0  0  0  0  0  0  0  0
    3.8890   -0.2870    0.1430 C   0  0  0  0  0  0  0  0  0  0  0  0
    4.8980   -1.0660    0.4400 C   0  0  0  0  0  0  0  0  0  0  0  0
    5.8980   -0.6730    1.3740 N   0  0  0  0  0  0  0  0  0  0  0  0
    2.8740   -0.5650   -0.7380 C   0  0  0  0  0  0  0  0  0  0  0  0
    2.7570   -1.6890   -1.4400 C   0  0  0  0  0  0  0  0  0  0  0  0
   -0.8730    0.8210    0.0360 C   0  0  0  0  0  0  0  0  0  0  0  0
   -0.5430    0.1950    1.0190 N   0  0  0  0  0  0  0  0  0  0  0  0
    0.3380   -0.8070    1.4350 C   0  0  0  0  0  0  0  0  0  0  0  0
   -2.2500    2.0470    0.0660 S   0  0  0  0  0  0  0  0  0  0  0  0
  1  2  2  0
  2  3  1  0
  3  4  2  0
  3  5  1  0
  5  6  1  0
  6  7  2  0
  6 23  1  0
  7  8  1  0
  8  9  2  0
  8 10  1  0
 10 11  2  3
 10 20  1  0
 11 12  1  0
 12 13  2  0
 12 18  1  0
 13 14  1  0
 14 15  1  0
 15 16  2  3
 15 18  1  0
 16 17  1  0
 18 19  2  0
 20 21  2  3
 20 23  1  0
 21 22  1  0
M  CHG  1  17   1
M  END
