
     RDKit          3D

 23 25  0  0  0  0  0  0  0  0999 V2000
   -1.8690    1.5910    0.2280 C   0  0  0  0  0  0  0  0  0  0  0  0
   -2.3410    0.2140    0.3980 N   0  0  0  0  0  0  0  0  0  0  0  0
   -1.5930   -0.8680    0.6640 C   0  0  0  0  0  0  0  0  0  0  0  0
    0.1770   -0.8170    0.8690 S   0  0  0  0  0  0  0  0  0  0  0  0
    0.9970   -1.0490   -0.7210 C   0  0  0  0  0  0  0  0  0  0  0  0
    2.4810   -0.9670   -0.4880 C   0  0  0  0  0  0  0  0  0  0  0  0
    3.0610   -2.0460   -0.2750 O   0  0  0  0  0  0  0  0  0  0  0  0
    3.1630    0.2620   -0.5130 N   0  0  0  0  0  0  0  0  0  0  0  0
    4.5470    0.4670   -0.3150 C   0  0  0  0  0  0  0  0  0  0  0  0
    5.4750   -0.5380   -0.2850 C   0  0  0  0  0  0  0  0  0  0  0  0
    6.8430   -0.3250   -0.0720 C   0  0  0  0  0  0  0  0  0  0  0  0
    7.2430    0.9770    0.1140 C   0  0  0  0  0  0  0  0  0  0  0  0
    6.3470    2.0250    0.0930 C   0  0  0  0  0  0  0  0  0  0  0  0
    5.0160    1.7830   -0.1180 C   0  0  0  0  0  0  0  0  0  0  0  0
   -2.3810   -1.9530    0.7480 N   0  0  0  0  0  0  0  0  0  0  0  0
   -3.6600   -1.5870    0.5360 C   0  0  0  0  0  0  0  0  0  0  0  0
   -4.8680   -2.2450    0.5000 C   0  0  0  0  0  0  0  0  0  0  0  0
   -4.9430   -3.4830    0.6940 O   0  0  0  0  0  0  0  0  0  0  0  0
   -6.0000   -1.5650    0.2540 N   0  0  0  0  0  0  0  0  0  0  0  0
   -5.9800   -0.2170    0.0360 C   0  0  0  0  0  0  0  0  0  0  0  0
   -7.1690    0.5070   -0.2250 N   0  0  0  0  0  0  0  0  0  0  0  0
   -4.7850    0.4050    0.0760 N   0  0  0  0  0  0  0  0  0  0  0  0
   -3.6220   -0.2220    0.3170 C   0  0  0  0  0  0  0  0  0  0  0  0
  1  2  1  0
  2  3  1  0
  2 23  1  0
  3  4  1  0
  3 15  2  0
  4  5  1  0
  5  6  1  0
  6  7  2  0
  6  8  1  0
  8  9  1  0
  9 10  2  0
  9 14  1  0
 10 11  1  0
 11 12  2  0
 12 13  1  0
 13 14  2  0
 15 16  1  0
 16 17  1  0
 16 23  2  0
 17 18  2  0
 17 19  1  0
 19 20  1  0
 20 21  1  0
 20 22  2  0
 22 23  1  0
M  CHG  1  22   1
M  END
