
     RDKit          3D

 23 25  0  0  0  0  0  0  0  0999 V2000
    6.0410   -2.2620    0.3710 C   0  0  0  0  0  0  0  0  0  0  0  0
    5.3370   -1.0300   -0.1100 C   0  0  0  0  0  0  0  0  0  0  0  0
    6.0260    0.1430   -0.3020 C   0  0  0  0  0  0  0  0  0  0  0  0
    5.3010    1.2470   -0.7300 C   0  0  0  0  0  0  0  0  0  0  0  0
    5.9340    2.3140   -0.9010 O   0  0  0  0  0  0  0  0  0  0  0  0
    3.9950    1.1450   -0.9420 N   0  0  0  0  0  0  0  0  0  0  0  0
    3.3340   -0.0050   -0.7550 C   0  0  0  0  0  0  0  0  0  0  0  0
    1.5780   -0.1470   -1.0110 S   0  0  0  0  0  0  0  0  0  0  0  0
    0.7820    0.1220    0.6270 C   0  0  1  0  0  0  0  0  0  0  0  0
    1.0930    1.5960    0.9320 C   0  0  0  0  0  0  0  0  0  0  0  0
   -0.6110   -0.2090    0.6240 C   0  0  0  0  0  0  0  0  0  0  0  0
   -0.9210   -1.4080    1.1420 O   0  0  0  0  0  0  0  0  0  0  0  0
   -1.7910    0.2880    0.2560 N   0  0  0  0  0  0  0  0  0  0  0  0
   -2.9770    0.7890   -0.1150 C   0  0  0  0  0  0  0  0  0  0  0  0
   -3.4550    1.9660   -0.4410 N   0  0  0  0  0  0  0  0  0  0  0  0
   -4.7320    1.9410   -0.6580 N   0  0  0  0  0  0  0  0  0  0  0  0
   -5.2130    0.7200   -0.4930 C   0  0  0  0  0  0  0  0  0  0  0  0
   -6.4870    0.1680   -0.5980 C   0  0  0  0  0  0  0  0  0  0  0  0
   -6.6910   -1.1220   -0.3620 N   0  0  0  0  0  0  0  0  0  0  0  0
   -5.6260   -1.9040   -0.0130 C   0  0  0  0  0  0  0  0  0  0  0  0
   -4.3370   -1.3740    0.0970 C   0  0  0  0  0  0  0  0  0  0  0  0
   -4.1560   -0.0530   -0.1500 C   0  0  0  0  0  0  0  0  0  0  0  0
    4.0250   -1.0970   -0.3330 N   0  0  0  0  0  0  0  0  0  0  0  0
  1  2  1  0
  2  3  2  0
  2 23  1  0
  3  4  1  0
  4  5  2  0
  4  6  1  0
  6  7  1  0
  7  8  1  0
  7 23  2  0
  8  9  1  0
  9 10  1  6
  9 11  1  0
 11 12  2  0
 11 13  1  0
 13 14  1  0
 14 15  2  0
 14 22  1  0
 15 16  1  0
 16 17  1  0
 17 18  2  0
 17 22  1  0
 18 19  1  0
 19 20  2  0
 20 21  1  0
 21 22  2  0
M  CHG  1  19   1
M  END
