
     RDKit          3D

 23 25  0  0  0  0  0  0  0  0999 V2000
    5.6030   -1.6140    0.6800 C   0  0  0  0  0  0  0  0  0  0  0  0
    4.7760   -0.8590    1.5630 O   0  0  0  0  0  0  0  0  0  0  0  0
    3.5140   -0.4340    1.2080 C   0  0  0  0  0  0  0  0  0  0  0  0
    2.7710    0.2940    2.0870 C   0  0  0  0  0  0  0  0  0  0  0  0
    1.4850    0.7180    1.7100 C   0  0  0  0  0  0  0  0  0  0  0  0
    0.9820    0.4060    0.4780 C   0  0  0  0  0  0  0  0  0  0  0  0
   -0.3120    0.8400    0.0970 N   0  0  0  0  0  0  0  0  0  0  0  0
   -0.4030    1.7730   -1.0030 C   0  0  0  0  0  0  0  0  0  0  0  0
   -1.7320    2.3330   -1.2300 C   0  0  0  0  0  0  0  0  0  0  0  0
   -1.8780    3.2570   -2.3250 N   0  0  0  0  0  0  0  0  0  0  0  0
   -2.7210    2.0420   -0.5200 O   0  0  0  0  0  0  0  0  0  0  0  0
   -1.4870    0.3660    0.7440 C   0  0  0  0  0  0  0  0  0  0  0  0
   -1.7520    0.8010    1.9750 N   0  0  0  0  0  0  0  0  0  0  0  0
   -2.8120    0.4680    2.7190 C   0  0  0  0  0  0  0  0  0  0  0  0
   -3.6940   -0.4050    2.1450 N   0  0  0  0  0  0  0  0  0  0  0  0
   -3.4650   -0.8660    0.9100 C   0  0  0  0  0  0  0  0  0  0  0  0
   -4.3760   -2.0010   -0.1510 S   0  0  0  0  0  0  0  0  0  0  0  0
   -3.1700   -1.8980   -1.5530 C   0  0  0  0  0  0  0  0  0  0  0  0
   -3.3210   -2.5290   -2.6210 N   0  0  0  0  0  0  0  0  0  0  0  0
   -2.2830   -1.0660   -1.0670 N   0  0  0  0  0  0  0  0  0  0  0  0
   -2.3830   -0.5390    0.1210 C   0  0  0  0  0  0  0  0  0  0  0  0
    1.7420   -0.3270   -0.3930 C   0  0  0  0  0  0  0  0  0  0  0  0
    3.0300   -0.7580   -0.0330 C   0  0  0  0  0  0  0  0  0  0  0  0
  1  2  1  0
  2  3  1  0
  3  4  2  0
  3 23  1  0
  4  5  1  0
  5  6  2  0
  6  7  1  0
  6 22  1  0
  7  8  1  0
  7 12  1  0
  8  9  1  0
  9 10  1  0
  9 11  2  0
 12 13  2  0
 12 21  1  0
 13 14  1  0
 14 15  2  0
 15 16  1  0
 16 17  1  0
 16 21  2  0
 17 18  1  0
 18 19  2  0
 18 20  1  0
 20 21  1  0
 22 23  2  0
M  CHG  1  19   1
M  END
