
     RDKit          3D

 23 25  0  0  0  0  0  0  0  0999 V2000
    7.1570    0.9820   -2.3200 C   0  0  0  0  0  0  0  0  0  0  0  0
    7.0700   -0.0970   -1.2690 C   0  0  0  0  0  0  0  0  0  0  0  0
    5.6640   -0.2370   -0.7920 C   0  0  0  0  0  0  0  0  0  0  0  0
    5.0890   -1.0020    0.0780 N   0  0  0  0  0  0  0  0  0  0  0  0
    3.8380   -0.9060    0.2910 N   0  0  0  0  0  0  0  0  0  0  0  0
    3.0600   -0.1550   -0.2360 C   0  0  0  0  0  0  0  0  0  0  0  0
    1.6930    0.2330   -0.2740 N   0  0  0  0  0  0  0  0  0  0  0  0
    0.7380   -0.4230    0.5860 C   0  0  0  0  0  0  0  0  0  0  0  0
    1.2320   -1.3150    1.3170 O   0  0  0  0  0  0  0  0  0  0  0  0
   -0.6630   -0.0360    0.5560 C   0  0  0  0  0  0  0  0  0  0  0  0
   -1.5320   -0.6360    1.3480 C   0  0  0  0  0  0  0  0  0  0  0  0
   -1.1330   -1.6960    2.2770 C   0  0  0  0  0  0  0  0  0  0  0  0
   -2.2440   -2.2390    3.1440 C   0  0  0  0  0  0  0  0  0  0  0  0
   -3.2700   -1.2520    3.3800 N   0  0  0  0  0  0  0  0  0  0  0  0
   -3.7910   -0.5060    2.2910 C   0  0  0  0  0  0  0  0  0  0  0  0
   -4.9930   -0.1340    2.2430 O   0  0  0  0  0  0  0  0  0  0  0  0
   -2.8990   -0.1850    1.2350 N   0  0  0  0  0  0  0  0  0  0  0  0
   -3.3150    0.5520    0.0920 C   0  0  0  0  0  0  0  0  0  0  0  0
   -3.7810    1.8010    0.1700 C   0  0  0  0  0  0  0  0  0  0  0  0
   -4.1250    2.2750   -1.2080 C   0  0  0  0  0  0  0  0  0  0  0  0
   -4.5010    0.9880   -1.8170 N   0  0  0  0  0  0  0  0  0  0  0  0
   -3.3670    0.1790   -1.3370 C   0  0  0  0  0  0  0  0  0  0  0  0
    4.2730    0.7330   -1.3800 S   0  0  0  0  0  0  0  0  0  0  0  0
  1  2  1  0
  2  3  1  0
  3  4  2  0
  3 23  1  0
  4  5  1  0
  5  6  2  0
  6  7  1  0
  6 23  1  0
  7  8  1  0
  8  9  2  0
  8 10  1  0
 10 11  2  3
 11 12  1  0
 11 17  1  0
 12 13  1  0
 13 14  1  0
 14 15  1  0
 15 16  2  0
 15 17  1  0
 17 18  1  0
 18 19  2  0
 18 22  1  0
 19 20  1  0
 20 21  1  0
 21 22  1  0
M  CHG  1  21   1
M  END
