
     RDKit          3D

 13 13  0  0  0  0  0  0  0  0999 V2000
    3.6080    0.1800   -0.4110 N   0  0  0  0  0  0  0  0  0  0  0  0
    2.4500   -0.4260    0.1390 C   0  0  0  0  0  0  0  0  0  0  0  0
    2.5520   -1.4260    0.8850 O   0  0  0  0  0  0  0  0  0  0  0  0
    1.1130    0.0790   -0.1340 C   0  0  0  0  0  0  0  0  0  0  0  0
    0.7740    1.4940   -1.1730 S   0  0  0  0  0  0  0  0  0  0  0  0
   -1.0360    1.3970   -0.9540 C   0  0  0  0  0  0  0  0  0  0  0  0
   -2.2010    2.4700   -1.6690 Cl  0  0  0  0  0  0  0  0  0  0  0  0
   -1.2110    0.2980   -0.1120 C   0  0  0  0  0  0  0  0  0  0  0  0
   -2.8850   -0.1510    0.3590 S   0  0  1  0  0  0  0  0  0  0  0  0
   -3.8160    0.3280   -0.6960 O   0  0  0  0  0  0  0  0  0  0  0  0
   -3.0070   -1.6610    0.4070 O   0  0  0  0  0  0  0  0  0  0  0  0
   -0.1030   -0.3460    0.2850 C   0  0  0  0  0  0  0  0  0  0  0  0
   -0.1470   -1.4890    1.1510 O   0  0  0  0  0  0  0  0  0  0  0  0
  1  2  1  0
  2  3  2  0
  2  4  1  0
  4  5  1  0
  4 12  2  0
  5  6  1  0
  6  7  1  0
  6  8  2  0
  9  8  1  6
  8 12  1  0
  9 10  2  0
  9 11  2  0
 12 13  1  0
M  END
