
     RDKit          3D

 20 21  0  0  0  0  0  0  0  0999 V2000
    4.9340    0.0550   -0.6570 C   0  0  0  0  0  0  0  0  0  0  0  0
    4.3140   -1.2120   -0.9130 O   0  0  0  0  0  0  0  0  0  0  0  0
    3.3980   -1.3700    0.1760 C   0  0  0  0  0  0  0  0  0  0  0  0
    2.3100   -0.3100    0.0630 C   0  0  0  0  0  0  0  0  0  0  0  0
    2.3850    0.7380    0.9630 C   0  0  0  0  0  0  0  0  0  0  0  0
    3.2760    1.0090    1.9730 N   0  0  0  0  0  0  0  0  0  0  0  0
    0.9230    1.7180    0.4970 S   0  0  0  0  0  0  0  0  0  0  0  0
    0.3920    0.6030   -0.7950 N   0  0  0  0  0  0  0  0  0  0  0  0
   -0.8640    0.7970   -1.5060 C   0  0  0  0  0  0  0  0  0  0  0  0
   -2.0710    0.4610   -0.7310 C   0  0  0  0  0  0  0  0  0  0  0  0
   -3.2450    0.2220   -1.4130 C   0  0  0  0  0  0  0  0  0  0  0  0
   -4.4200   -0.0930   -0.7880 C   0  0  0  0  0  0  0  0  0  0  0  0
   -5.6100   -0.3380   -1.4570 O   0  0  0  0  0  0  0  0  0  0  0  0
   -4.4640   -0.1800    0.6050 C   0  0  0  0  0  0  0  0  0  0  0  0
   -5.6520   -0.5140    1.2290 O   0  0  0  0  0  0  0  0  0  0  0  0
   -3.3160    0.0600    1.3140 C   0  0  0  0  0  0  0  0  0  0  0  0
   -2.1610    0.3680    0.6430 C   0  0  0  0  0  0  0  0  0  0  0  0
   -1.0630    0.5880    1.4050 O   0  0  0  0  0  0  0  0  0  0  0  0
    1.2940   -0.3610   -0.8040 C   0  0  0  0  0  0  0  0  0  0  0  0
    1.1340   -1.3280   -1.6710 O   0  0  0  0  0  0  0  0  0  0  0  0
  1  2  1  0
  2  3  1  0
  3  4  1  0
  4  5  2  0
  4 19  1  0
  5  6  1  0
  5  7  1  0
  7  8  1  0
  8  9  1  0
  8 19  1  0
  9 10  1  0
 10 11  2  0
 10 17  1  0
 11 12  1  0
 12 13  1  0
 12 14  2  0
 14 15  1  0
 14 16  1  0
 16 17  2  0
 17 18  1  0
 19 20  2  0
M  END
