
     RDKit          3D

 12 11  0  0  0  0  0  0  0  0999 V2000
    3.3490    1.7330    0.3910 C   0  0  0  0  0  0  0  0  0  0  0  0
    1.5440    1.6870    0.3600 S   0  0  0  0  0  0  0  0  0  0  0  0
    0.9260    0.0570    0.0720 C   0  0  0  0  0  0  0  0  0  0  0  0
    1.8240   -1.0120   -0.1010 N   0  0  0  0  0  0  0  0  0  0  0  0
   -0.4100   -0.1550    0.0190 C   0  0  0  0  0  0  0  0  0  0  0  0
   -1.4590    1.2170    0.2420 S   0  0  0  0  0  0  0  0  0  0  0  0
   -3.1770    0.9560    0.1770 C   0  0  0  0  0  0  0  0  0  0  0  0
   -3.9230    2.0160    0.3500 O   0  0  0  0  0  0  0  0  0  0  0  0
   -3.8670   -0.2270   -0.0350 O   0  0  0  0  0  0  0  0  0  0  0  0
   -0.8760   -1.5020   -0.2180 C   0  0  0  0  0  0  0  0  0  0  0  0
    0.0240   -2.4220   -0.3650 O   0  0  0  0  0  0  0  0  0  0  0  0
   -2.1650   -1.9510   -0.3110 O   0  0  0  0  0  0  0  0  0  0  0  0
  1  2  1  0
  2  3  1  0
  3  4  1  0
  3  5  2  3
  5  6  1  0
  5 10  1  0
  6  7  1  0
  7  8  2  0
  7  9  1  0
 10 11  2  0
 10 12  1  0
M  END
