
     RDKit          3D

 17 18  0  0  0  0  0  0  0  0999 V2000
    0.7180   -0.2310    1.5190 C   0  0  0  0  0  0  0  0  0  0  0  0
    0.2140   -0.3360    0.1710 N   0  0  0  0  0  0  0  0  0  0  0  0
    0.8300   -0.7170   -0.9520 C   0  0  0  0  0  0  0  0  0  0  0  0
    2.4890   -1.1690   -1.2680 S   0  0  0  0  0  0  0  0  0  0  0  0
    3.6790   -0.9750    0.0130 C   0  0  0  0  0  0  0  0  0  0  0  0
    4.1690    0.3990    0.1090 C   0  0  0  0  0  0  0  0  0  0  0  0
    3.6050    1.3090    0.6860 O   0  0  0  0  0  0  0  0  0  0  0  0
    5.3910    0.7160   -0.5070 O   0  0  0  0  0  0  0  0  0  0  0  0
   -0.0950   -0.6930   -1.9690 N   0  0  0  0  0  0  0  0  0  0  0  0
   -1.2590   -0.3110   -1.4960 C   0  0  0  0  0  0  0  0  0  0  0  0
   -2.5170   -0.1270   -2.0630 C   0  0  0  0  0  0  0  0  0  0  0  0
   -2.6440   -0.3450   -3.2870 O   0  0  0  0  0  0  0  0  0  0  0  0
   -3.5030    0.2710   -1.2460 N   0  0  0  0  0  0  0  0  0  0  0  0
   -3.3500    0.4990    0.0630 C   0  0  0  0  0  0  0  0  0  0  0  0
   -4.4660    0.9020    0.8900 N   0  0  0  0  0  0  0  0  0  0  0  0
   -2.1240    0.3190    0.6070 N   0  0  0  0  0  0  0  0  0  0  0  0
   -1.0920   -0.0800   -0.1620 C   0  0  0  0  0  0  0  0  0  0  0  0
  1  2  1  0
  2  3  1  0
  2 17  1  0
  3  4  1  0
  3  9  2  0
  4  5  1  0
  5  6  1  0
  6  7  2  0
  6  8  1  0
  9 10  1  0
 10 11  1  0
 10 17  2  0
 11 12  2  0
 11 13  1  0
 13 14  1  0
 14 15  1  0
 14 16  2  0
 16 17  1  0
M  CHG  1  16   1
M  END
