
     RDKit          3D

 20 21  0  0  0  0  0  0  0  0999 V2000
   -4.2330    2.1560   -0.3080 C   0  0  0  0  0  0  0  0  0  0  0  0
   -4.4630    0.8300   -0.7710 O   0  0  0  0  0  0  0  0  0  0  0  0
   -3.4450   -0.0900   -0.9130 C   0  0  0  0  0  0  0  0  0  0  0  0
   -3.7090   -1.2910   -1.3710 C   0  0  0  0  0  0  0  0  0  0  0  0
   -5.0200   -1.6480   -1.7190 O   0  0  0  0  0  0  0  0  0  0  0  0
   -2.0720    0.2410   -0.5630 C   0  0  0  0  0  0  0  0  0  0  0  0
   -1.7340    1.3750   -0.1150 O   0  0  0  0  0  0  0  0  0  0  0  0
   -1.0490   -0.6830   -0.7060 O   0  0  0  0  0  0  0  0  0  0  0  0
    0.2630   -0.4550   -0.4020 C   0  0  0  0  0  0  0  0  0  0  0  0
    1.0840    0.0440   -1.3900 C   0  0  0  0  0  0  0  0  0  0  0  0
    2.4070    0.2850   -1.1190 C   0  0  0  0  0  0  0  0  0  0  0  0
    3.7150    0.9120   -2.1420 S   0  0  0  0  0  0  0  0  0  0  0  0
    5.0030    0.8350   -0.8480 C   0  0  0  0  0  0  0  0  0  0  0  0
    6.2120    1.1780   -1.0090 N   0  0  0  0  0  0  0  0  0  0  0  0
    4.3020    0.3500    0.1940 N   0  0  0  0  0  0  0  0  0  0  0  0
    3.0370    0.0770    0.0750 C   0  0  0  0  0  0  0  0  0  0  0  0
    2.1590   -0.4400    1.0780 C   0  0  0  0  0  0  0  0  0  0  0  0
    0.8450   -0.6800    0.8130 C   0  0  0  0  0  0  0  0  0  0  0  0
   -0.0030   -1.1860    1.8050 O   0  0  0  0  0  0  0  0  0  0  0  0
    0.4640   -1.4670    3.1120 C   0  0  0  0  0  0  0  0  0  0  0  0
  1  2  1  0
  2  3  1  0
  3  4  2  3
  3  6  1  0
  4  5  1  0
  6  7  2  0
  6  8  1  0
  8  9  1  0
  9 10  2  0
  9 18  1  0
 10 11  1  0
 11 12  1  0
 11 16  2  0
 12 13  1  0
 13 14  2  0
 13 15  1  0
 15 16  1  0
 16 17  1  0
 17 18  2  0
 18 19  1  0
 19 20  1  0
M  END
