
     RDKit          3D

 13 13  0  0  0  0  0  0  0  0999 V2000
    3.1360   -0.1740   -0.6400 N   0  0  0  0  0  0  0  0  0  0  0  0
    2.1700    0.3830    0.6490 S   0  0  2  0  0  0  0  0  0  0  0  0
    2.4250    1.8430    0.8560 O   0  0  0  0  0  0  0  0  0  0  0  0
    2.5500   -0.3180    1.9240 O   0  0  0  0  0  0  0  0  0  0  0  0
    0.4370    0.0970    0.3240 C   0  0  0  0  0  0  0  0  0  0  0  0
   -0.2110    1.0390   -0.2860 C   0  0  0  0  0  0  0  0  0  0  0  0
   -1.6050    1.0920   -0.6790 C   0  0  0  0  0  0  0  0  0  0  0  0
   -2.4610   -0.3480   -0.2280 S   0  0  2  0  0  0  0  0  0  0  0  0
   -3.1730   -0.9970   -1.3970 O   0  0  0  0  0  0  0  0  0  0  0  0
   -3.5420    0.1060    0.7640 O   0  0  0  0  0  0  0  0  0  0  0  0
   -1.4050   -1.4550    0.5660 C   0  0  0  0  0  0  0  0  0  0  0  0
   -0.1440   -1.1580    0.7580 C   0  0  0  0  0  0  0  0  0  0  0  0
    0.8650   -2.3290    1.5700 Cl  0  0  0  0  0  0  0  0  0  0  0  0
  2  1  1  6
  2  3  2  0
  2  4  2  0
  2  5  1  0
  5  6  2  0
  5 12  1  0
  6  7  1  0
  8  7  1  6
  8  9  2  0
  8 10  2  0
  8 11  1  0
 11 12  2  0
 12 13  1  0
M  END
