
     RDKit          3D

 21 21  0  0  0  0  0  0  0  0999 V2000
    6.0500    2.9470    0.6030 O   0  0  0  0  0  0  0  0  0  0  0  0
    6.7760    1.6690    0.2100 S   0  0  0  0  0  0  0  0  0  0  0  0
    5.6790    0.2390    0.3610 C   0  0  0  0  0  0  0  0  0  0  0  0
    4.2660    0.6780    0.3890 C   0  0  0  0  0  0  0  0  0  0  0  0
    3.3920    0.2870   -0.5110 C   0  0  0  0  0  0  0  0  0  0  0  0
    3.7470   -0.5680   -1.5500 O   0  0  0  0  0  0  0  0  0  0  0  0
    1.9870    0.7530   -0.4410 C   0  0  0  0  0  0  0  0  0  0  0  0
    1.0700   -0.3610   -0.3050 N   0  0  0  0  0  0  0  0  0  0  0  0
   -0.3540   -0.1510   -0.2180 C   0  0  0  0  0  0  0  0  0  0  0  0
   -0.7040    1.0410   -0.2700 O   0  0  0  0  0  0  0  0  0  0  0  0
   -1.2180   -1.2640   -0.0860 N   0  0  0  0  0  0  0  0  0  0  0  0
   -2.6200   -1.1370    0.0050 C   0  0  0  0  0  0  0  0  0  0  0  0
   -3.3080    0.0550   -0.0230 C   0  0  0  0  0  0  0  0  0  0  0  0
   -4.7040    0.1030    0.0730 C   0  0  0  0  0  0  0  0  0  0  0  0
   -5.3820    1.3950    0.0380 C   0  0  0  0  0  0  0  0  0  0  0  0
   -6.6280    1.4910    0.1200 O   0  0  0  0  0  0  0  0  0  0  0  0
   -4.6830    2.5910   -0.0880 O   0  0  0  0  0  0  0  0  0  0  0  0
   -5.3550   -1.0960    0.1950 C   0  0  0  0  0  0  0  0  0  0  0  0
   -4.6870   -2.3050    0.2250 C   0  0  0  0  0  0  0  0  0  0  0  0
   -3.3190   -2.3490    0.1310 C   0  0  0  0  0  0  0  0  0  0  0  0
   -2.4900   -3.8870    0.1710 Cl  0  0  0  0  0  0  0  0  0  0  0  0
  1  2  2  0
  2  3  1  0
  3  4  1  0
  4  5  2  3
  5  6  1  0
  5  7  1  0
  7  8  1  0
  8  9  1  0
  9 10  2  0
  9 11  1  0
 11 12  1  0
 12 13  2  0
 12 20  1  0
 13 14  1  0
 14 15  1  0
 14 18  2  0
 15 16  2  0
 15 17  1  0
 18 19  1  0
 19 20  2  0
 20 21  1  0
M  END
