
     RDKit          3D

 30 34  0  0  0  0  0  0  0  0999 V2000
    8.0840    0.3650   -1.4470 C   0  0  0  0  0  0  0  0  0  0  0  0
    6.6130    0.5640   -1.5320 C   0  0  0  0  0  0  0  0  0  0  0  0
    6.0450    1.0520   -2.6910 C   0  0  0  0  0  0  0  0  0  0  0  0
    4.7170    1.2210   -2.7420 N   0  0  0  0  0  0  0  0  0  0  0  0
    3.9350    0.9130   -1.6580 C   0  0  0  0  0  0  0  0  0  0  0  0
    4.4920    0.4280   -0.5020 C   0  0  0  0  0  0  0  0  0  0  0  0
    3.6530    0.1040    0.6440 C   0  0  0  0  0  0  0  0  0  0  0  0
    2.2880    0.2460    0.6800 C   0  0  0  0  0  0  0  0  0  0  0  0
    1.5500   -0.0880    1.8250 C   0  0  0  0  0  0  0  0  0  0  0  0
    2.2030   -0.5680    2.9350 C   0  0  0  0  0  0  0  0  0  0  0  0
    3.5750   -0.7060    2.8850 C   0  0  0  0  0  0  0  0  0  0  0  0
    4.2360   -0.3780    1.7830 N   0  0  0  0  0  0  0  0  0  0  0  0
    1.2470   -0.8100    3.8930 C   0  0  0  0  0  0  0  0  0  0  0  0
    0.0680   -0.4780    3.3500 N   0  0  0  0  0  0  0  0  0  0  0  0
    0.2400   -0.0470    2.1180 N   0  0  0  0  0  0  0  0  0  0  0  0
   -0.7930    0.4000    1.2170 C   0  0  0  0  0  0  0  0  0  0  0  0
   -0.6770    1.5990    0.5470 C   0  0  0  0  0  0  0  0  0  0  0  0
   -1.6700    2.0360   -0.3240 C   0  0  0  0  0  0  0  0  0  0  0  0
   -2.8060    1.2660   -0.5360 C   0  0  0  0  0  0  0  0  0  0  0  0
   -2.8940    0.0770    0.1440 C   0  0  0  0  0  0  0  0  0  0  0  0
   -4.0480   -0.8370   -0.0090 C   0  0  1  0  0  0  0  0  0  0  0  0
   -5.3810   -0.2070   -0.0200 C   0  0  0  0  0  0  0  0  0  0  0  0
   -6.0010    0.0330   -1.2800 N   0  0  0  0  0  0  0  0  0  0  0  0
   -5.8460   -1.0280   -2.2250 C   0  0  0  0  0  0  0  0  0  0  0  0
   -4.3390   -1.2110   -2.4280 C   0  0  0  0  0  0  0  0  0  0  0  0
   -3.7990   -1.7670   -1.1440 C   0  0  1  0  0  0  0  0  0  0  0  0
   -2.4050   -1.9140   -1.2340 F   0  0  0  0  0  0  0  0  0  0  0  0
   -4.3610   -3.0170   -0.9290 F   0  0  0  0  0  0  0  0  0  0  0  0
   -1.9010   -0.3260    0.9930 N   0  0  0  0  0  0  0  0  0  0  0  0
    5.8270    0.2700   -0.4850 N   0  0  0  0  0  0  0  0  0  0  0  0
  1  2  1  0
  2  3  2  0
  2 30  1  0
  3  4  1  0
  4  5  2  0
  5  6  1  0
  6  7  1  0
  6 30  2  0
  7  8  2  0
  7 12  1  0
  8  9  1  0
  9 10  2  0
  9 15  1  0
 10 11  1  0
 10 13  1  0
 11 12  2  0
 13 14  2  0
 14 15  1  0
 15 16  1  0
 16 17  2  0
 16 29  1  0
 17 18  1  0
 18 19  2  0
 19 20  1  0
 21 20  1  6
 20 29  2  0
 21 22  1  0
 21 26  1  0
 22 23  1  0
 23 24  1  0
 24 25  1  0
 25 26  1  0
 26 27  1  6
 26 28  1  0
M  CHG  1  23   1
M  END
