
     RDKit          3D

 29 31  0  0  0  0  0  0  0  0999 V2000
    6.6890   -1.0420   -2.2770 C   0  0  0  0  0  0  0  0  0  0  0  0
    6.0300   -1.5440   -1.1330 O   0  0  0  0  0  0  0  0  0  0  0  0
    4.6690   -1.2500   -0.9280 C   0  0  0  0  0  0  0  0  0  0  0  0
    4.0080   -0.4790   -1.8480 C   0  0  0  0  0  0  0  0  0  0  0  0
    2.6510   -0.1570   -1.6900 C   0  0  0  0  0  0  0  0  0  0  0  0
    1.9720    0.8120   -2.9620 Cl  0  0  0  0  0  0  0  0  0  0  0  0
    1.9710   -0.6160   -0.6050 C   0  0  0  0  0  0  0  0  0  0  0  0
    0.5630   -0.3180   -0.3520 C   0  0  0  0  0  0  0  0  0  0  0  0
   -0.2610   -1.1110   -0.8560 O   0  0  0  0  0  0  0  0  0  0  0  0
    0.1560    0.7820    0.4200 N   0  0  0  0  0  0  0  0  0  0  0  0
   -1.2410    1.1360    0.7650 C   0  0  0  0  0  0  0  0  0  0  0  0
   -1.9960    0.8840    1.8880 C   0  0  0  0  0  0  0  0  0  0  0  0
   -3.1910    1.5350    2.0630 C   0  0  0  0  0  0  0  0  0  0  0  0
   -3.7140    2.4420    1.1040 C   0  0  0  0  0  0  0  0  0  0  0  0
   -3.0090    2.6910   -0.0530 C   0  0  0  0  0  0  0  0  0  0  0  0
   -1.7870    2.0710   -0.2250 C   0  0  0  0  0  0  0  0  0  0  0  0
   -0.6810    2.1680   -1.2850 C   0  0  0  0  0  0  0  0  0  0  0  0
   -3.8650    3.2640   -1.2070 C   0  0  0  0  0  0  0  0  0  0  0  0
   -4.5510    2.2870   -1.9210 C   0  0  0  0  0  0  0  0  0  0  0  0
   -4.4560    0.8650   -1.6000 C   0  0  0  0  0  0  0  0  0  0  0  0
   -4.4710    0.2380   -0.4740 C   0  0  0  0  0  0  0  0  0  0  0  0
   -3.6110   -0.6860   -0.0730 C   0  0  0  0  0  0  0  0  0  0  0  0
   -3.6530   -1.1200    1.3440 C   0  0  0  0  0  0  0  0  0  0  0  0
   -2.3600   -1.4990    1.8100 N   0  0  0  0  0  0  0  0  0  0  0  0
   -1.8210   -0.4160    2.7080 C   0  0  0  0  0  0  0  0  0  0  0  0
    2.6790   -1.4050    0.3210 C   0  0  0  0  0  0  0  0  0  0  0  0
    4.0020   -1.7260    0.1780 C   0  0  0  0  0  0  0  0  0  0  0  0
    4.7130   -2.4970    1.0720 O   0  0  0  0  0  0  0  0  0  0  0  0
    4.2050   -3.0610    2.2420 C   0  0  0  0  0  0  0  0  0  0  0  0
  1  2  1  0
  2  3  1  0
  3  4  2  0
  3 27  1  0
  4  5  1  0
  5  6  1  0
  5  7  2  0
  7  8  1  0
  7 26  1  0
  8  9  2  0
  8 10  1  0
 10 11  1  0
 11 12  1  0
 11 16  2  0
 12 13  2  0
 12 25  1  0
 13 14  1  0
 14 15  2  0
 15 16  1  0
 15 18  1  0
 16 17  1  0
 18 19  2  0
 19 20  1  0
 20 21  2  0
 21 22  2  0
 22 23  1  0
 23 24  1  0
 24 25  1  0
 26 27  2  0
 27 28  1  0
 28 29  1  0
M  END
