
     RDKit          3D

 30 31  0  0  0  0  0  0  0  0999 V2000
   -1.2780    5.7210    0.1490 C   0  0  0  0  0  0  0  0  0  0  0  0
   -0.5460    4.5370   -0.4880 C   0  0  0  0  0  0  0  0  0  0  0  0
   -1.5140    3.7940   -1.2890 C   0  0  0  0  0  0  0  0  0  0  0  0
   -1.8530    2.5230   -1.1140 C   0  0  0  0  0  0  0  0  0  0  0  0
   -1.3320    1.6530   -0.1100 C   0  0  0  0  0  0  0  0  0  0  0  0
   -1.5220    0.4130    0.1880 C   0  0  0  0  0  0  0  0  0  0  0  0
   -0.7670   -0.0320    1.3200 O   0  0  0  0  0  0  0  0  0  0  0  0
    0.6510   -0.0320    1.2610 C   0  0  0  0  0  0  0  0  0  0  0  0
    1.0940   -0.9090    0.1600 C   0  0  0  0  0  0  0  0  0  0  0  0
    0.2060   -1.5100   -0.5400 O   0  0  0  0  0  0  0  0  0  0  0  0
    2.4780   -1.1550   -0.2060 C   0  0  0  0  0  0  0  0  0  0  0  0
    2.8010   -2.0030   -1.2630 C   0  0  0  0  0  0  0  0  0  0  0  0
    4.0910   -2.2680   -1.6480 C   0  0  0  0  0  0  0  0  0  0  0  0
    4.3820   -3.1910   -2.7960 C   0  0  0  0  0  0  0  0  0  0  0  0
    5.1080   -1.6610   -0.9470 C   0  0  0  0  0  0  0  0  0  0  0  0
    4.7980   -0.8080    0.1170 C   0  0  0  0  0  0  0  0  0  0  0  0
    3.5000   -0.5390    0.5060 C   0  0  0  0  0  0  0  0  0  0  0  0
    3.1650    0.2940    1.5490 O   0  0  0  0  0  0  0  0  0  0  0  0
    4.1430    0.9570    2.3060 C   0  0  0  0  0  0  0  0  0  0  0  0
    5.0020    1.9060    1.5250 C   0  0  0  0  0  0  0  0  0  0  0  0
   -2.3720   -0.5360   -0.4960 C   0  0  0  0  0  0  0  0  0  0  0  0
   -2.7380   -0.4740   -1.8200 C   0  0  0  0  0  0  0  0  0  0  0  0
   -3.6160   -1.3520   -2.4410 C   0  0  0  0  0  0  0  0  0  0  0  0
   -4.1800   -2.3640   -1.7410 C   0  0  0  0  0  0  0  0  0  0  0  0
   -3.8360   -2.4680   -0.3930 C   0  0  0  0  0  0  0  0  0  0  0  0
   -4.4420   -3.6220    0.3680 C   0  0  0  0  0  0  0  0  0  0  0  0
   -2.9680   -1.5980    0.2290 C   0  0  0  0  0  0  0  0  0  0  0  0
   -2.7110   -1.7800    1.6610 C   0  0  0  0  0  0  0  0  0  0  0  0
   -3.4590   -0.7560    2.5090 C   0  0  0  0  0  0  0  0  0  0  0  0
   -4.8260   -0.8690    2.3150 O   0  0  0  0  0  0  0  0  0  0  0  0
  1  2  1  0
  2  3  1  0
  3  4  2  3
  4  5  1  0
  5  6  2  3
  6  7  1  0
  6 21  1  0
  7  8  1  0
  8  9  1  0
  9 10  2  0
  9 11  1  0
 11 12  2  0
 11 17  1  0
 12 13  1  0
 13 14  1  0
 13 15  2  0
 15 16  1  0
 16 17  2  0
 17 18  1  0
 18 19  1  0
 19 20  1  0
 21 22  2  0
 21 27  1  0
 22 23  1  0
 23 24  2  0
 24 25  1  0
 25 26  1  0
 25 27  2  0
 27 28  1  0
 28 29  1  0
 29 30  1  0
M  END
