
     RDKit          3D

 29 32  0  0  0  0  0  0  0  0999 V2000
   -4.7920   -0.1660   -2.4380 C   0  0  0  0  0  0  0  0  0  0  0  0
   -3.9520   -0.8910   -1.4690 C   0  0  0  0  0  0  0  0  0  0  0  0
   -3.8740   -2.2770   -1.4080 C   0  0  0  0  0  0  0  0  0  0  0  0
   -4.6250   -3.0200   -2.3040 O   0  0  0  0  0  0  0  0  0  0  0  0
   -3.0680   -2.9120   -0.4770 C   0  0  0  0  0  0  0  0  0  0  0  0
   -2.3220   -2.1510    0.4140 C   0  0  0  0  0  0  0  0  0  0  0  0
   -2.3920   -0.7740    0.3620 C   0  0  0  0  0  0  0  0  0  0  0  0
   -3.2040   -0.1750   -0.5770 C   0  0  0  0  0  0  0  0  0  0  0  0
   -3.2360    1.2880   -0.5860 C   0  0  0  0  0  0  0  0  0  0  0  0
   -3.1040    1.9490    0.7340 C   0  0  2  0  0  0  0  0  0  0  0  0
   -4.5030    2.0360    1.3440 C   0  0  0  0  0  0  0  0  0  0  0  0
   -2.6990    3.4060    0.4590 C   0  0  0  0  0  0  0  0  0  0  0  0
   -2.1640    1.3210    1.6960 C   0  0  0  0  0  0  0  0  0  0  0  0
   -1.5910    0.0010    1.3160 C   0  0  2  0  0  0  0  0  0  0  0  0
   -0.2770    0.1690    0.7190 N   0  0  0  0  0  0  0  0  0  0  0  0
    0.8800   -0.4230    1.2950 C   0  0  0  0  0  0  0  0  0  0  0  0
    0.8110   -1.1190    2.3490 O   0  0  0  0  0  0  0  0  0  0  0  0
    2.2350   -0.2660    0.7030 C   0  0  0  0  0  0  0  0  0  0  0  0
    3.2930   -0.9700    1.4790 C   0  0  0  0  0  0  0  0  0  0  0  0
    4.5630   -0.7300    0.7830 N   0  0  0  0  0  0  0  0  0  0  0  0
    5.1510   -1.5190   -0.2480 C   0  0  0  0  0  0  0  0  0  0  0  0
    6.2880   -1.0130   -0.6410 C   0  0  0  0  0  0  0  0  0  0  0  0
    7.3820   -1.2410   -1.5830 C   0  0  0  0  0  0  0  0  0  0  0  0
    7.4900   -2.5730   -2.7070 Cl  0  0  0  0  0  0  0  0  0  0  0  0
    8.2270   -0.2470   -1.3890 C   0  0  0  0  0  0  0  0  0  0  0  0
    7.7190    0.6480   -0.3290 C   0  0  0  0  0  0  0  0  0  0  0  0
    6.5610    0.1960    0.1210 C   0  0  0  0  0  0  0  0  0  0  0  0
    5.4400    0.3740    1.0410 C   0  0  0  0  0  0  0  0  0  0  0  0
    5.2990    1.3030    1.8720 O   0  0  0  0  0  0  0  0  0  0  0  0
  1  2  1  0
  2  3  2  0
  2  8  1  0
  3  4  1  0
  3  5  1  0
  5  6  2  0
  6  7  1  0
  7  8  2  0
  7 14  1  0
  8  9  1  0
  9 10  1  0
 10 11  1  1
 10 12  1  0
 10 13  1  0
 13 14  1  0
 14 15  1  6
 15 16  1  0
 16 17  2  0
 16 18  1  0
 18 19  1  0
 19 20  1  0
 20 21  1  0
 20 28  1  0
 21 22  2  0
 22 23  1  0
 22 27  1  0
 23 24  1  0
 23 25  2  0
 25 26  1  0
 26 27  2  0
 27 28  1  0
 28 29  2  0
M  END
