
     RDKit          3D

 29 32  0  0  0  0  0  0  0  0999 V2000
    5.6810    1.3780   -1.8650 C   0  0  0  0  0  0  0  0  0  0  0  0
    4.8700    0.2540   -1.2470 C   0  0  2  0  0  0  0  0  0  0  0  0
    3.6480    0.7820   -0.6350 N   0  0  0  0  0  0  0  0  0  0  0  0
    2.3730    0.2270   -0.9240 C   0  0  0  0  0  0  0  0  0  0  0  0
    2.2840   -0.7420   -1.7230 O   0  0  0  0  0  0  0  0  0  0  0  0
    1.1550    0.7840   -0.2870 C   0  0  0  0  0  0  0  0  0  0  0  0
    1.2720    1.7510    0.4860 O   0  0  0  0  0  0  0  0  0  0  0  0
   -0.1210    0.2420   -0.5410 N   0  0  0  0  0  0  0  0  0  0  0  0
   -1.3610    0.6520   -0.0290 C   0  0  0  0  0  0  0  0  0  0  0  0
   -1.5840    1.8040    0.6790 C   0  0  0  0  0  0  0  0  0  0  0  0
   -2.8240    2.1760    1.1830 C   0  0  0  0  0  0  0  0  0  0  0  0
   -3.0360    3.6640    2.0820 Cl  0  0  0  0  0  0  0  0  0  0  0  0
   -3.9020    1.3580    0.9700 C   0  0  0  0  0  0  0  0  0  0  0  0
   -3.6970    0.1850    0.2550 C   0  0  0  0  0  0  0  0  0  0  0  0
   -2.4610   -0.1640   -0.2350 C   0  0  0  0  0  0  0  0  0  0  0  0
   -4.7080   -0.8310   -0.0780 C   0  0  0  0  0  0  0  0  0  0  0  0
   -4.4290   -2.0520   -0.4080 C   0  0  0  0  0  0  0  0  0  0  0  0
   -5.7140   -2.7590   -0.6680 C   0  0  0  0  0  0  0  0  0  0  0  0
   -6.7240   -1.7120   -0.4190 C   0  0  0  0  0  0  0  0  0  0  0  0
   -6.1470   -0.5920   -0.0760 C   0  0  0  0  0  0  0  0  0  0  0  0
   -6.8580    0.6730    0.2630 C   0  0  0  0  0  0  0  0  0  0  0  0
   -6.3360    1.2340    1.5750 C   0  0  0  0  0  0  0  0  0  0  0  0
   -5.0800    1.8130    1.5040 O   0  0  0  0  0  0  0  0  0  0  0  0
    5.6710   -0.3120   -0.1390 C   0  0  0  0  0  0  0  0  0  0  0  0
    7.0230   -0.0950   -0.0640 C   0  0  0  0  0  0  0  0  0  0  0  0
    7.7820   -0.6270    0.9850 C   0  0  0  0  0  0  0  0  0  0  0  0
    7.1940   -1.3850    1.9730 C   0  0  0  0  0  0  0  0  0  0  0  0
    5.8390   -1.6000    1.8960 C   0  0  0  0  0  0  0  0  0  0  0  0
    5.0940   -1.0690    0.8520 C   0  0  0  0  0  0  0  0  0  0  0  0
  2  1  1  1
  2  3  1  0
  2 24  1  0
  3  4  1  0
  4  5  2  0
  4  6  1  0
  6  7  2  0
  6  8  1  0
  8  9  1  0
  9 10  2  0
  9 15  1  0
 10 11  1  0
 11 12  1  0
 11 13  2  0
 13 14  1  0
 13 23  1  0
 14 15  2  0
 14 16  1  0
 16 17  2  0
 16 20  1  0
 17 18  1  0
 18 19  1  0
 19 20  2  0
 20 21  1  0
 21 22  1  0
 22 23  1  0
 24 25  2  0
 24 29  1  0
 25 26  1  0
 26 27  2  0
 27 28  1  0
 28 29  2  0
M  END
