
     RDKit          3D

 30 31  0  0  0  0  0  0  0  0999 V2000
    5.3910   -2.3290    0.1170 C   0  0  0  0  0  0  0  0  0  0  0  0
    5.5200   -1.5790    1.4350 C   0  0  0  0  0  0  0  0  0  0  0  0
    4.6080   -0.5460    1.4730 O   0  0  0  0  0  0  0  0  0  0  0  0
    4.4730    0.5710    0.7160 C   0  0  0  0  0  0  0  0  0  0  0  0
    5.4550    0.7580   -0.2750 C   0  0  0  0  0  0  0  0  0  0  0  0
    5.4390    1.8500   -1.0910 C   0  0  0  0  0  0  0  0  0  0  0  0
    4.4570    2.7790   -0.9460 C   0  0  0  0  0  0  0  0  0  0  0  0
    4.4440    3.9340   -1.8190 C   0  0  0  0  0  0  0  0  0  0  0  0
    3.5430    4.8260   -1.7250 O   0  0  0  0  0  0  0  0  0  0  0  0
    3.4870    2.6060    0.0230 C   0  0  0  0  0  0  0  0  0  0  0  0
    3.4720    1.4920    0.8780 C   0  0  0  0  0  0  0  0  0  0  0  0
    2.3780    1.3070    1.8130 C   0  0  0  0  0  0  0  0  0  0  0  0
    1.1190    0.6970    1.3640 C   0  0  0  0  0  0  0  0  0  0  0  0
    1.0730   -0.6380    0.8080 C   0  0  0  0  0  0  0  0  0  0  0  0
    2.0690   -1.3490    0.6730 O   0  0  0  0  0  0  0  0  0  0  0  0
   -0.2100   -1.2370    0.3620 C   0  0  0  0  0  0  0  0  0  0  0  0
   -1.3770   -0.4970    0.3430 C   0  0  0  0  0  0  0  0  0  0  0  0
   -2.5970   -0.9560   -0.0730 C   0  0  0  0  0  0  0  0  0  0  0  0
   -3.8500   -0.2350   -0.1240 C   0  0  1  0  0  0  0  0  0  0  0  0
   -4.8060   -0.9890   -1.0680 C   0  0  0  0  0  0  0  0  0  0  0  0
   -4.5050   -0.3780    1.2470 C   0  0  0  0  0  0  0  0  0  0  0  0
   -5.8170    0.3190    1.3570 C   0  0  0  0  0  0  0  0  0  0  0  0
   -3.8500    1.1650   -0.6070 C   0  0  1  0  0  0  0  0  0  0  0  0
   -3.0710    2.1740    0.1550 C   0  0  0  0  0  0  0  0  0  0  0  0
   -3.4030    1.1080   -2.0780 C   0  0  0  0  0  0  0  0  0  0  0  0
   -5.1860    1.5950   -0.6610 O   0  0  0  0  0  0  0  0  0  0  0  0
   -2.5910   -2.3000   -0.5030 C   0  0  0  0  0  0  0  0  0  0  0  0
   -1.4650   -3.0580   -0.4980 C   0  0  0  0  0  0  0  0  0  0  0  0
   -0.2560   -2.5220   -0.0600 C   0  0  0  0  0  0  0  0  0  0  0  0
    0.9050   -3.4380   -0.0900 C   0  0  0  0  0  0  0  0  0  0  0  0
  1  2  1  0
  2  3  1  0
  3  4  1  0
  4  5  2  0
  4 11  1  0
  5  6  1  0
  6  7  2  0
  7  8  1  0
  7 10  1  0
  8  9  2  0
 10 11  2  0
 11 12  1  0
 12 13  1  0
 13 14  1  0
 14 15  2  0
 14 16  1  0
 16 17  2  0
 16 29  1  0
 17 18  1  0
 18 19  1  0
 18 27  2  0
 19 20  1  6
 19 21  1  0
 19 23  1  0
 21 22  1  0
 23 24  1  1
 23 25  1  0
 23 26  1  0
 27 28  1  0
 28 29  2  0
 29 30  1  0
M  END
