
     RDKit          3D

 29 32  0  0  0  0  0  0  0  0999 V2000
   -5.5770   -2.1090   -1.8860 C   0  0  0  0  0  0  0  0  0  0  0  0
   -4.9370   -1.0990   -1.0030 C   0  0  0  0  0  0  0  0  0  0  0  0
   -5.7180   -0.4860   -0.0490 C   0  0  0  0  0  0  0  0  0  0  0  0
   -5.1670    0.4540    0.7890 C   0  0  0  0  0  0  0  0  0  0  0  0
   -6.0600    1.0760    1.7930 C   0  0  0  0  0  0  0  0  0  0  0  0
   -3.8090    0.8010    0.6860 C   0  0  0  0  0  0  0  0  0  0  0  0
   -3.0280    0.1910   -0.2640 C   0  0  0  0  0  0  0  0  0  0  0  0
   -3.5990   -0.7470   -1.0940 C   0  0  0  0  0  0  0  0  0  0  0  0
   -2.6480   -1.5530   -2.3210 Cl  0  0  0  0  0  0  0  0  0  0  0  0
   -1.6030    0.5590   -0.3710 C   0  0  2  0  0  0  0  0  0  0  0  0
   -0.7360   -0.2270    0.4440 N   0  0  0  0  0  0  0  0  0  0  0  0
    0.4160   -0.9130   -0.0510 C   0  0  0  0  0  0  0  0  0  0  0  0
    0.6430   -0.7970   -1.2600 O   0  0  0  0  0  0  0  0  0  0  0  0
    1.2280   -1.6890    0.8880 C   0  0  0  0  0  0  0  0  0  0  0  0
    2.4240   -2.3810    0.3480 C   0  0  0  0  0  0  0  0  0  0  0  0
    3.4490   -1.5210   -0.2680 C   0  0  0  0  0  0  0  0  0  0  0  0
    3.4920   -1.3490   -1.6270 C   0  0  0  0  0  0  0  0  0  0  0  0
    4.4470   -0.5200   -2.2180 C   0  0  0  0  0  0  0  0  0  0  0  0
    5.3680    0.1460   -1.4490 C   0  0  0  0  0  0  0  0  0  0  0  0
    5.3480   -0.0100   -0.0720 C   0  0  0  0  0  0  0  0  0  0  0  0
    4.3960   -0.8350    0.4900 C   0  0  0  0  0  0  0  0  0  0  0  0
    6.3130    0.6900    0.7010 N   0  0  0  0  0  0  0  0  0  0  0  0
    7.5350    1.1380    0.0670 C   0  0  0  0  0  0  0  0  0  0  0  0
    7.2500    1.6490   -1.3030 C   0  0  0  0  0  0  0  0  0  0  0  0
    7.8550    2.6790   -1.7520 O   0  0  0  0  0  0  0  0  0  0  0  0
    6.3100    0.9680   -2.0650 O   0  0  0  0  0  0  0  0  0  0  0  0
   -1.4680    2.0060    0.0350 C   0  0  0  0  0  0  0  0  0  0  0  0
   -1.8540    2.1450    1.4810 C   0  0  0  0  0  0  0  0  0  0  0  0
   -3.3130    1.8260    1.6390 C   0  0  0  0  0  0  0  0  0  0  0  0
  1  2  1  0
  2  3  2  0
  2  8  1  0
  3  4  1  0
  4  5  1  0
  4  6  2  0
  6  7  1  0
  6 29  1  0
  7  8  2  0
  7 10  1  0
  8  9  1  0
 10 11  1  1
 10 27  1  0
 11 12  1  0
 12 13  2  0
 12 14  1  0
 14 15  1  0
 15 16  1  0
 16 17  2  0
 16 21  1  0
 17 18  1  0
 18 19  2  0
 19 20  1  0
 19 26  1  0
 20 21  2  0
 20 22  1  0
 22 23  1  0
 23 24  1  0
 24 25  2  0
 24 26  1  0
 27 28  1  0
 28 29  1  0
M  END
