
     RDKit          3D

 19 20  0  0  0  0  0  0  0  0999 V2000
   -4.5660   -0.6490    0.2460 C   0  0  0  0  0  0  0  0  0  0  0  0
   -3.9080    0.5320   -0.4300 C   0  0  0  0  0  0  0  0  0  0  0  0
   -2.5440    0.7140   -0.0040 N   0  0  0  0  0  0  0  0  0  0  0  0
   -2.2790    1.5530    1.1330 C   0  0  0  0  0  0  0  0  0  0  0  0
   -3.2480    2.1030    1.7200 O   0  0  0  0  0  0  0  0  0  0  0  0
   -0.9570    1.7700    1.6000 N   0  0  0  0  0  0  0  0  0  0  0  0
    0.1180    1.1430    0.9250 C   0  0  0  0  0  0  0  0  0  0  0  0
    1.2900    1.6020    1.0580 O   0  0  0  0  0  0  0  0  0  0  0  0
   -0.1170   -0.0420    0.0700 C   0  0  2  0  0  0  0  0  0  0  0  0
   -0.1520   -1.2870    0.9560 C   0  0  0  0  0  0  0  0  0  0  0  0
    0.9240   -0.1690   -0.9170 N   0  0  0  0  0  0  0  0  0  0  0  0
    2.3020   -0.2710   -0.6240 C   0  0  0  0  0  0  0  0  0  0  0  0
    3.1450    0.7510   -0.8130 C   0  0  0  0  0  0  0  0  0  0  0  0
    4.5860    0.6540   -0.5090 C   0  0  0  0  0  0  0  0  0  0  0  0
    5.0050   -0.5850   -0.0360 O   0  0  0  0  0  0  0  0  0  0  0  0
    4.1460   -1.6320    0.1570 C   0  0  0  0  0  0  0  0  0  0  0  0
    2.8650   -1.5030   -0.1150 C   0  0  0  0  0  0  0  0  0  0  0  0
   -1.4220    0.1160   -0.6350 C   0  0  0  0  0  0  0  0  0  0  0  0
   -1.5740   -0.2810   -1.8250 O   0  0  0  0  0  0  0  0  0  0  0  0
  1  2  1  0
  2  3  1  0
  3  4  1  0
  3 18  1  0
  4  5  2  0
  4  6  1  0
  6  7  1  0
  7  8  2  0
  7  9  1  0
  9 10  1  1
  9 11  1  0
  9 18  1  0
 11 12  1  0
 12 13  2  0
 12 17  1  0
 13 14  1  0
 14 15  1  0
 15 16  1  0
 16 17  2  0
 18 19  2  0
M  END
