
     RDKit          3D

 19 20  0  0  0  0  0  0  0  0999 V2000
    0.2850   -0.7530    4.2960 C   0  0  0  0  0  0  0  0  0  0  0  0
    0.3220   -1.9170    3.3160 C   0  0  0  0  0  0  0  0  0  0  0  0
   -0.1150   -1.4070    2.0380 N   0  0  0  0  0  0  0  0  0  0  0  0
   -1.3540   -1.3150    1.3930 N   0  0  0  0  0  0  0  0  0  0  0  0
   -1.3560   -0.8240    0.2550 C   0  0  0  0  0  0  0  0  0  0  0  0
   -2.5790   -0.6190   -0.5550 C   0  0  0  0  0  0  0  0  0  0  0  0
   -2.7870   -1.6170   -1.5050 O   0  0  0  0  0  0  0  0  0  0  0  0
    0.0660   -0.7360   -0.1880 C   0  0  1  0  0  0  0  0  0  0  0  0
    0.2660   -1.9670   -0.8710 O   0  0  0  0  0  0  0  0  0  0  0  0
    0.4450    0.3610   -1.0560 C   0  0  2  0  0  0  0  0  0  0  0  0
   -0.0950    1.6020   -0.3360 C   0  0  0  0  0  0  0  0  0  0  0  0
   -0.5620    2.6670    0.2560 N   0  0  0  0  0  0  0  0  0  0  0  0
   -0.0750    0.4750   -2.4420 C   0  0  0  0  0  0  0  0  0  0  0  0
   -0.3750    1.9640   -2.7080 C   0  0  0  0  0  0  0  0  0  0  0  0
    0.6770    2.6290   -2.0870 O   0  0  0  0  0  0  0  0  0  0  0  0
    1.8660    1.9730   -2.1080 C   0  0  0  0  0  0  0  0  0  0  0  0
    1.9040    0.7330   -1.1400 C   0  0  0  0  0  0  0  0  0  0  0  0
    0.8000   -0.8250    1.0820 C   0  0  0  0  0  0  0  0  0  0  0  0
    1.9700   -0.4950    1.3680 O   0  0  0  0  0  0  0  0  0  0  0  0
  1  2  1  0
  2  3  1  0
  3  4  1  0
  3 18  1  0
  4  5  2  0
  5  6  1  0
  5  8  1  0
  6  7  1  0
  8  9  1  6
  8 10  1  0
  8 18  1  0
 10 11  1  1
 10 13  1  0
 10 17  1  0
 11 12  3  0
 13 14  1  0
 14 15  1  0
 15 16  1  0
 16 17  1  0
 18 19  2  0
M  END
