
     RDKit          3D

 19 20  0  0  0  0  0  0  0  0999 V2000
    3.0140   -2.8520    0.5660 C   0  0  0  0  0  0  0  0  0  0  0  0
    2.4060   -1.4970    0.3690 C   0  0  0  0  0  0  0  0  0  0  0  0
    3.2280   -0.4850    0.0510 C   0  0  0  0  0  0  0  0  0  0  0  0
    2.8710    0.8980   -0.1870 N   0  0  0  0  0  0  0  0  0  0  0  0
    3.9180    1.8600    0.0610 C   0  0  0  0  0  0  0  0  0  0  0  0
    1.6300    1.4080   -0.6370 N   0  0  0  0  0  0  0  0  0  0  0  0
    0.4640    0.5690   -0.8070 C   0  0  0  0  0  0  0  0  0  0  0  0
   -0.2370    0.8100   -1.8320 O   0  0  0  0  0  0  0  0  0  0  0  0
    0.0530   -0.4990    0.0740 C   0  0  0  0  0  0  0  0  0  0  0  0
   -1.2870   -0.7220    0.3990 C   0  0  0  0  0  0  0  0  0  0  0  0
   -2.4360   -0.1370    0.2370 C   0  0  0  0  0  0  0  0  0  0  0  0
   -2.6900    1.0930   -0.4040 N   0  0  0  0  0  0  0  0  0  0  0  0
   -4.0380    1.6000   -0.5920 C   0  0  0  0  0  0  0  0  0  0  0  0
   -4.2980    2.5100   -1.4170 O   0  0  0  0  0  0  0  0  0  0  0  0
   -5.1430    1.0420    0.2020 C   0  0  0  0  0  0  0  0  0  0  0  0
   -4.9150   -0.3160    0.5070 O   0  0  0  0  0  0  0  0  0  0  0  0
   -3.6710   -0.8420    0.7010 C   0  0  0  0  0  0  0  0  0  0  0  0
   -3.6060   -1.9460    1.2880 O   0  0  0  0  0  0  0  0  0  0  0  0
    0.9550   -1.3920    0.5650 C   0  0  0  0  0  0  0  0  0  0  0  0
  1  2  1  0
  2  3  2  0
  2 19  1  0
  3  4  1  0
  4  5  1  0
  4  6  1  0
  6  7  1  0
  7  8  2  0
  7  9  1  0
  9 10  1  0
  9 19  2  0
 10 11  2  3
 11 12  1  0
 11 17  1  0
 12 13  1  0
 13 14  2  0
 13 15  1  0
 15 16  1  0
 16 17  1  0
 17 18  2  0
M  END
