
     RDKit          3D

 18 19  0  0  0  0  0  0  0  0999 V2000
   -3.4440    2.1250    0.2560 C   0  0  0  0  0  0  0  0  0  0  0  0
   -2.8030    1.5970    1.5080 C   0  0  0  0  0  0  0  0  0  0  0  0
   -1.5490    1.1620    1.2550 O   0  0  0  0  0  0  0  0  0  0  0  0
   -1.3460    0.1460    0.3820 C   0  0  2  0  0  0  0  0  0  0  0  0
    0.1470   -0.0940    0.3620 C   0  0  0  0  0  0  0  0  0  0  0  0
    0.8470    0.0280   -0.7550 C   0  0  0  0  0  0  0  0  0  0  0  0
    2.2800   -0.1990   -0.7890 C   0  0  0  0  0  0  0  0  0  0  0  0
    2.9770   -0.0770   -1.9030 C   0  0  0  0  0  0  0  0  0  0  0  0
    4.4030   -0.3070   -1.9210 C   0  0  0  0  0  0  0  0  0  0  0  0
    5.0720   -0.6690   -0.7280 N   0  0  0  0  0  0  0  0  0  0  0  0
    5.0470   -0.1870   -2.9830 O   0  0  0  0  0  0  0  0  0  0  0  0
    2.9190   -0.5610    0.4250 N   0  0  0  0  0  0  0  0  0  0  0  0
    2.2330   -0.6790    1.5100 C   0  0  0  0  0  0  0  0  0  0  0  0
    0.8280   -0.4580    1.5540 N   0  0  0  0  0  0  0  0  0  0  0  0
   -1.8120    0.4550   -0.8670 O   0  0  0  0  0  0  0  0  0  0  0  0
   -2.3690   -0.6780   -1.4460 C   0  0  0  0  0  0  0  0  0  0  0  0
   -1.9420   -1.7660   -0.4940 C   0  0  0  0  0  0  0  0  0  0  0  0
   -1.9400   -1.0730    0.7320 O   0  0  0  0  0  0  0  0  0  0  0  0
  1  2  1  0
  2  3  1  0
  4  3  1  1
  4  5  1  0
  4 15  1  0
  4 18  1  0
  5  6  2  0
  5 14  1  0
  6  7  1  0
  7  8  2  3
  7 12  1  0
  8  9  1  0
  9 10  1  0
  9 11  2  0
 12 13  2  0
 13 14  1  0
 15 16  1  0
 16 17  1  0
 17 18  1  0
M  END
