
     RDKit          3D

 18 19  0  0  0  0  0  0  0  0999 V2000
    4.4220    1.4670   -0.3160 C   0  0  0  0  0  0  0  0  0  0  0  0
    3.1800    0.5990   -0.2710 C   0  0  1  0  0  0  0  0  0  0  0  0
    3.5050   -0.8200    0.1070 C   0  0  0  0  0  0  0  0  0  0  0  0
    2.2780   -1.6280    0.1430 C   0  0  0  0  0  0  0  0  0  0  0  0
    1.1260   -1.0750    0.4450 C   0  0  0  0  0  0  0  0  0  0  0  0
    0.0300   -2.0070    0.4360 N   0  0  0  0  0  0  0  0  0  0  0  0
   -1.3540   -1.7200    0.3470 C   0  0  0  0  0  0  0  0  0  0  0  0
   -2.1030   -2.7090    0.1400 O   0  0  0  0  0  0  0  0  0  0  0  0
   -2.0710   -0.4380    0.4570 C   0  0  2  0  0  0  0  0  0  0  0  0
   -3.3950   -0.7450    1.1380 C   0  0  0  0  0  0  0  0  0  0  0  0
   -2.4060   -0.0060   -0.9660 C   0  0  0  0  0  0  0  0  0  0  0  0
   -3.1500    1.3090   -0.9830 C   0  0  0  0  0  0  0  0  0  0  0  0
   -3.4210    1.6380   -2.3090 O   0  0  0  0  0  0  0  0  0  0  0  0
   -1.3920    0.5930    1.2170 C   0  0  0  0  0  0  0  0  0  0  0  0
   -2.0560    1.1480    2.1400 O   0  0  0  0  0  0  0  0  0  0  0  0
   -0.0430    1.0770    1.0600 N   0  0  0  0  0  0  0  0  0  0  0  0
    0.9860    0.3470    0.7350 C   0  0  0  0  0  0  0  0  0  0  0  0
    2.2070    1.1200    0.6650 N   0  0  0  0  0  0  0  0  0  0  0  0
  2  1  1  1
  2  3  1  0
  2 18  1  0
  3  4  1  0
  4  5  2  0
  5  6  1  0
  5 17  1  0
  6  7  1  0
  7  8  2  0
  7  9  1  0
  9 10  1  1
  9 11  1  0
  9 14  1  0
 11 12  1  0
 12 13  1  0
 14 15  2  0
 14 16  1  0
 16 17  2  0
 17 18  1  0
M  END
