
     RDKit          3D

 19 20  0  0  0  0  0  0  0  0999 V2000
    3.4900    2.2680    0.6090 C   0  0  0  0  0  0  0  0  0  0  0  0
    3.0120    0.9230    0.5690 O   0  0  0  0  0  0  0  0  0  0  0  0
    2.4070    0.3860   -0.5530 C   0  0  0  0  0  0  0  0  0  0  0  0
    2.2830    1.1230   -1.5620 O   0  0  0  0  0  0  0  0  0  0  0  0
    1.9140   -0.9910   -0.6070 C   0  0  1  0  0  0  0  0  0  0  0  0
    3.0540   -1.9910   -0.3370 C   0  0  0  0  0  0  0  0  0  0  0  0
    0.8080   -1.3540    0.3230 C   0  0  1  0  0  0  0  0  0  0  0  0
    1.1600   -1.1600    1.6650 O   0  0  0  0  0  0  0  0  0  0  0  0
   -0.5540   -0.8970   -0.0340 C   0  0  1  0  0  0  0  0  0  0  0  0
   -1.5630   -1.3960    1.0260 C   0  0  0  0  0  0  0  0  0  0  0  0
   -2.8970   -0.6980    0.7980 C   0  0  0  0  0  0  0  0  0  0  0  0
   -3.3160   -0.8050   -0.6490 C   0  0  0  0  0  0  0  0  0  0  0  0
   -2.9740    0.4850   -1.3420 C   0  0  0  0  0  0  0  0  0  0  0  0
   -1.8680    1.1250   -0.6490 N   0  0  0  0  0  0  0  0  0  0  0  0
   -0.7660    0.5710   -0.0510 C   0  0  0  0  0  0  0  0  0  0  0  0
   -0.0160    1.5420    0.4710 N   0  0  0  0  0  0  0  0  0  0  0  0
   -0.6280    2.7100    0.2120 N   0  0  0  0  0  0  0  0  0  0  0  0
   -1.7540    2.4510   -0.4700 C   0  0  0  0  0  0  0  0  0  0  0  0
   -2.5860    3.2910   -0.8850 O   0  0  0  0  0  0  0  0  0  0  0  0
  1  2  1  0
  2  3  1  0
  3  4  2  0
  3  5  1  0
  5  6  1  1
  5  7  1  0
  7  8  1  1
  7  9  1  0
  9 10  1  1
  9 15  1  0
 10 11  1  0
 11 12  1  0
 12 13  1  0
 13 14  1  0
 14 15  1  0
 14 18  1  0
 15 16  2  0
 16 17  1  0
 17 18  1  0
 18 19  2  0
M  END
