
     RDKit          3D

 19 20  0  0  0  0  0  0  0  0999 V2000
    1.6010    1.7430   -1.4590 C   0  0  0  0  0  0  0  0  0  0  0  0
    1.0770    0.4020   -0.9330 C   0  0  2  0  0  0  0  0  0  0  0  0
   -0.2700    0.5310   -0.6130 O   0  0  0  0  0  0  0  0  0  0  0  0
   -1.2990   -0.1970   -1.2260 C   0  0  0  0  0  0  0  0  0  0  0  0
   -0.8980   -0.9970   -2.1120 O   0  0  0  0  0  0  0  0  0  0  0  0
   -2.6620   -0.0430   -0.8790 N   0  0  0  0  0  0  0  0  0  0  0  0
   -3.6340   -0.8540   -1.5830 C   0  0  0  0  0  0  0  0  0  0  0  0
   -4.2440   -1.7950   -0.5730 C   0  0  0  0  0  0  0  0  0  0  0  0
   -4.1700   -1.3300    0.7760 N   0  0  0  0  0  0  0  0  0  0  0  0
   -3.8050   -0.0080    1.1640 C   0  0  0  0  0  0  0  0  0  0  0  0
   -3.9780    0.4310    2.3180 O   0  0  0  0  0  0  0  0  0  0  0  0
   -3.1970    0.8410    0.1140 C   0  0  1  0  0  0  0  0  0  0  0  0
   -2.2350    1.8460    0.6470 C   0  0  0  0  0  0  0  0  0  0  0  0
    1.9060   -0.0180    0.2480 C   0  0  0  0  0  0  0  0  0  0  0  0
    1.4090   -0.2210    1.3760 O   0  0  0  0  0  0  0  0  0  0  0  0
    3.2970   -0.1870    0.0610 N   0  0  0  0  0  0  0  0  0  0  0  0
    4.1850   -0.5960    1.1600 C   0  0  1  0  0  0  0  0  0  0  0  0
    5.3870   -1.3680    0.7160 C   0  0  0  0  0  0  0  0  0  0  0  0
    5.5420    0.1140    1.1300 C   0  0  0  0  0  0  0  0  0  0  0  0
  2  1  1  1
  2  3  1  0
  2 14  1  0
  3  4  1  0
  4  5  2  0
  4  6  1  0
  6  7  1  0
  6 12  1  0
  7  8  1  0
  8  9  1  0
  9 10  1  0
 10 11  2  0
 10 12  1  0
 12 13  1  1
 14 15  2  0
 14 16  1  0
 17 16  1  6
 17 18  1  0
 17 19  1  0
 18 19  1  0
M  END
