
     RDKit          3D

 18 20  0  0  0  0  0  0  0  0999 V2000
   -4.0870    0.7670    0.7680 C   0  0  0  0  0  0  0  0  0  0  0  0
   -3.3930    0.0500   -0.2910 N   0  0  2  0  0  0  0  0  0  0  0  0
   -4.3800   -0.7990   -0.9330 C   0  0  0  0  0  0  0  0  0  0  0  0
   -2.2710   -0.7150    0.2020 C   0  0  0  0  0  0  0  0  0  0  0  0
   -1.0340   -0.2500   -0.4870 C   0  0  1  0  0  0  0  0  0  0  0  0
   -0.7070    1.1830   -0.2830 C   0  0  1  0  0  0  0  0  0  0  0  0
   -0.3260    1.4960    1.1580 C   0  0  0  0  0  0  0  0  0  0  0  0
    1.0040    0.8030    1.3700 C   0  0  0  0  0  0  0  0  0  0  0  0
    1.2170    0.1170    0.0330 C   0  0  2  0  0  0  0  0  0  0  0  0
    2.6090   -0.2410   -0.2060 C   0  0  0  0  0  0  0  0  0  0  0  0
    3.5180    0.8110   -0.1470 C   0  0  0  0  0  0  0  0  0  0  0  0
    4.8750    0.5890   -0.3470 C   0  0  0  0  0  0  0  0  0  0  0  0
    5.3180   -0.6700   -0.6030 C   0  0  0  0  0  0  0  0  0  0  0  0
    4.4190   -1.7300   -0.6660 C   0  0  0  0  0  0  0  0  0  0  0  0
    3.0800   -1.4870   -0.4650 C   0  0  0  0  0  0  0  0  0  0  0  0
    0.6890    1.2100   -0.8880 C   0  0  0  0  0  0  0  0  0  0  0  0
    0.2130   -0.9680   -0.0620 C   0  0  1  0  0  0  0  0  0  0  0  0
   -0.0610   -1.5920    1.1600 O   0  0  0  0  0  0  0  0  0  0  0  0
  2  1  1  1
  2  3  1  0
  2  4  1  0
  5  4  1  1
  5  6  1  0
  5 17  1  0
  6  7  1  1
  6 16  1  0
  7  8  1  0
  8  9  1  0
  9 10  1  6
  9 16  1  0
  9 17  1  0
 10 11  2  0
 10 15  1  0
 11 12  1  0
 12 13  2  0
 13 14  1  0
 14 15  2  0
 17 18  1  1
M  CHG  1   2   1
M  END
