
     RDKit          3D

 37 40  0  0  0  0  0  0  0  0999 V2000
    7.6610    3.6520   -0.9730 C   0  0  0  0  0  0  0  0  0  0  0  0
    6.1710    3.6860   -1.1700 C   0  0  0  0  0  0  0  0  0  0  0  0
    5.5650    2.3720   -1.0940 N   0  0  0  0  0  0  0  0  0  0  0  0
    5.6960    1.6080    0.1080 C   0  0  0  0  0  0  0  0  0  0  0  0
    6.3350    2.1240    1.0390 O   0  0  0  0  0  0  0  0  0  0  0  0
    5.1090    0.3030    0.2180 N   0  0  0  0  0  0  0  0  0  0  0  0
    5.2520   -0.4410    1.4290 C   0  0  0  0  0  0  0  0  0  0  0  0
    5.9330    0.1150    2.4370 N   0  0  0  0  0  0  0  0  0  0  0  0
    6.1350   -0.4780    3.6210 C   0  0  0  0  0  0  0  0  0  0  0  0
    5.6050   -1.7370    3.8040 C   0  0  0  0  0  0  0  0  0  0  0  0
    4.8990   -2.3680    2.8250 C   0  0  0  0  0  0  0  0  0  0  0  0
    4.7120   -1.7040    1.5940 C   0  0  0  0  0  0  0  0  0  0  0  0
    4.0450   -2.2810    0.6430 O   0  0  0  0  0  0  0  0  0  0  0  0
    3.4330   -2.6430   -0.4480 C   0  0  1  0  0  0  0  0  0  0  0  0
    4.0830   -3.9630   -0.9630 C   0  0  0  0  0  0  0  0  0  0  0  0
    4.0320   -4.9850    0.1450 C   0  0  0  0  0  0  0  0  0  0  0  0
    2.6700   -5.1890    0.7210 C   0  0  0  0  0  0  0  0  0  0  0  0
    1.9330   -3.9010    1.0080 C   0  0  0  0  0  0  0  0  0  0  0  0
    1.9670   -3.0670   -0.2500 C   0  0  1  0  0  0  0  0  0  0  0  0
    1.0700   -1.9520   -0.1610 N   0  0  0  0  0  0  0  0  0  0  0  0
   -0.0270   -1.7580   -1.0470 C   0  0  0  0  0  0  0  0  0  0  0  0
   -0.1500   -2.6610   -1.9320 O   0  0  0  0  0  0  0  0  0  0  0  0
   -0.9570   -0.6390   -0.9840 C   0  0  0  0  0  0  0  0  0  0  0  0
   -0.8830    0.3640   -0.0750 C   0  0  0  0  0  0  0  0  0  0  0  0
   -1.8280    1.3930   -0.0990 C   0  0  0  0  0  0  0  0  0  0  0  0
   -2.8440    1.4220   -1.0290 C   0  0  0  0  0  0  0  0  0  0  0  0
   -3.7970    2.4620   -1.0620 N   0  0  0  0  0  0  0  0  0  0  0  0
   -5.1710    1.9770   -1.0140 C   0  0  2  0  0  0  0  0  0  0  0  0
   -6.0780    2.7550   -1.9110 C   0  0  0  0  0  0  0  0  0  0  0  0
   -7.3340    3.2480   -1.2660 C   0  0  0  0  0  0  0  0  0  0  0  0
   -8.3220    2.1470   -0.9810 C   0  0  0  0  0  0  0  0  0  0  0  0
   -8.1470    1.7010    0.4770 C   0  0  0  0  0  0  0  0  0  0  0  0
   -6.8480    0.9200    0.5120 C   0  0  2  0  0  0  0  0  0  0  0  0
   -6.7190    0.0340    1.7090 C   0  0  0  0  0  0  0  0  0  0  0  0
   -5.6870    1.8820    0.4150 C   0  0  0  0  0  0  0  0  0  0  0  0
   -2.8750    0.3810   -1.9310 C   0  0  0  0  0  0  0  0  0  0  0  0
   -1.9490   -0.6030   -1.8860 N   0  0  0  0  0  0  0  0  0  0  0  0
  1  2  1  0
  2  3  1  0
  3  4  1  0
  4  5  2  0
  4  6  1  0
  6  7  1  0
  7  8  2  0
  7 12  1  0
  8  9  1  0
  9 10  2  0
 10 11  1  0
 11 12  2  0
 12 13  1  0
 14 13  1  1
 14 15  1  0
 14 19  1  0
 15 16  1  0
 16 17  1  0
 17 18  1  0
 18 19  1  0
 19 20  1  1
 20 21  1  0
 21 22  2  0
 21 23  1  0
 23 24  2  0
 23 37  1  0
 24 25  1  0
 25 26  2  0
 26 27  1  0
 26 36  1  0
 28 27  1  1
 28 29  1  0
 28 35  1  0
 29 30  1  0
 30 31  1  0
 31 32  1  0
 32 33  1  0
 33 34  1  1
 33 35  1  0
 36 37  2  0
M  CHG  1  27   1
M  END
