
     RDKit          3D

 37 39  0  0  0  0  0  0  0  0999 V2000
   -8.5440   -0.2000    1.7500 C   0  0  0  0  0  0  0  0  0  0  0  0
   -7.9880   -0.4970    0.3920 C   0  0  0  0  0  0  0  0  0  0  0  0
   -6.6390    0.2080    0.2060 C   0  0  2  0  0  0  0  0  0  0  0  0
   -6.9110    1.7100    0.3670 C   0  0  0  0  0  0  0  0  0  0  0  0
   -6.2440   -0.0630   -1.1530 N   0  0  0  0  0  0  0  0  0  0  0  0
   -5.3000   -1.0850   -1.3120 C   0  0  0  0  0  0  0  0  0  0  0  0
   -5.6940   -2.3120   -1.2750 O   0  0  0  0  0  0  0  0  0  0  0  0
   -3.8800   -0.8850   -1.5240 C   0  0  0  0  0  0  0  0  0  0  0  0
   -3.3190    0.3650   -1.5000 C   0  0  0  0  0  0  0  0  0  0  0  0
   -1.9470    0.5830   -1.7370 C   0  0  0  0  0  0  0  0  0  0  0  0
   -1.4330    2.2870   -1.6670 S   0  0  0  0  0  0  0  0  0  0  0  0
   -0.8510    2.6650   -0.0060 C   0  0  0  0  0  0  0  0  0  0  0  0
    0.4540    2.0080    0.2290 C   0  0  0  0  0  0  0  0  0  0  0  0
    1.4930    2.7270    0.0260 O   0  0  0  0  0  0  0  0  0  0  0  0
    0.6290    0.6820    0.6510 N   0  0  0  0  0  0  0  0  0  0  0  0
    2.0410    0.2460    0.8280 C   0  0  0  0  0  0  0  0  0  0  0  0
    2.3560   -0.1140    2.0030 C   0  0  0  0  0  0  0  0  0  0  0  0
    3.5740   -0.5930    2.5600 C   0  0  0  0  0  0  0  0  0  0  0  0
    4.2000   -1.7970    2.3500 C   0  0  0  0  0  0  0  0  0  0  0  0
    5.3590   -1.7990    3.1150 C   0  0  0  0  0  0  0  0  0  0  0  0
    5.3840   -0.5800    3.7640 C   0  0  0  0  0  0  0  0  0  0  0  0
    6.3670   -0.0860    4.6690 N   0  0  0  0  0  0  0  0  0  0  0  0
    4.3330    0.0790    3.4100 O   0  0  0  0  0  0  0  0  0  0  0  0
    2.8600    0.3320   -0.3660 C   0  0  0  0  0  0  0  0  0  0  0  0
    2.2780    0.7430   -1.4540 O   0  0  0  0  0  0  0  0  0  0  0  0
    4.2230    0.0360   -0.5230 N   0  0  0  0  0  0  0  0  0  0  0  0
    5.0000    0.1220   -1.7090 C   0  0  0  0  0  0  0  0  0  0  0  0
    4.5800    0.4780   -2.9500 C   0  0  0  0  0  0  0  0  0  0  0  0
    5.3900    0.5410   -4.0500 N   0  0  0  0  0  0  0  0  0  0  0  0
    6.6800    0.2380   -3.9250 C   0  0  0  0  0  0  0  0  0  0  0  0
    7.1870   -0.1330   -2.7010 C   0  0  0  0  0  0  0  0  0  0  0  0
    6.3630   -0.1930   -1.5990 C   0  0  0  0  0  0  0  0  0  0  0  0
    6.9100   -0.5790   -0.3540 N   0  0  0  0  0  0  0  0  0  0  0  0
   -1.1460   -0.4810   -1.9970 C   0  0  0  0  0  0  0  0  0  0  0  0
   -1.6740   -1.7560   -2.0280 C   0  0  0  0  0  0  0  0  0  0  0  0
   -3.0180   -1.9400   -1.7940 C   0  0  0  0  0  0  0  0  0  0  0  0
   -3.5270   -3.1810   -1.8280 F   0  0  0  0  0  0  0  0  0  0  0  0
  1  2  1  0
  2  3  1  0
  3  4  1  6
  3  5  1  0
  5  6  1  0
  6  7  2  0
  6  8  1  0
  8  9  2  0
  8 36  1  0
  9 10  1  0
 10 11  1  0
 10 34  2  0
 11 12  1  0
 12 13  1  0
 13 14  2  0
 13 15  1  0
 15 16  1  0
 16 17  2  3
 16 24  1  0
 17 18  1  0
 18 19  2  0
 18 23  1  0
 19 20  1  0
 20 21  2  0
 21 22  1  0
 21 23  1  0
 24 25  2  0
 24 26  1  0
 26 27  1  0
 27 28  2  0
 27 32  1  0
 28 29  1  0
 29 30  2  0
 30 31  1  0
 31 32  2  0
 32 33  1  0
 34 35  1  0
 35 36  2  0
 36 37  1  0
M  CHG  2   5   1  33   1
M  END
