
     RDKit          3D

 37 40  0  0  0  0  0  0  0  0999 V2000
   -6.8440   -4.5400    0.5490 C   0  0  0  0  0  0  0  0  0  0  0  0
   -5.6960   -3.9560    0.2120 C   0  0  0  0  0  0  0  0  0  0  0  0
   -4.9210   -3.1610    1.1800 C   0  0  0  0  0  0  0  0  0  0  0  0
   -4.7490   -1.7580    0.7470 N   0  0  0  0  0  0  0  0  0  0  0  0
   -5.7260   -0.8570    1.1460 C   0  0  0  0  0  0  0  0  0  0  0  0
   -6.8030   -1.3490    1.7360 O   0  0  0  0  0  0  0  0  0  0  0  0
   -5.7210    0.5180    1.0050 N   0  0  0  0  0  0  0  0  0  0  0  0
   -6.8450    1.4370    1.3970 C   0  0  0  0  0  0  0  0  0  0  0  0
   -6.9410    2.2510    0.1220 C   0  0  1  0  0  0  0  0  0  0  0  0
   -7.4380    3.6330    0.4230 C   0  0  0  0  0  0  0  0  0  0  0  0
   -5.5190    2.3520   -0.4160 C   0  0  1  0  0  0  0  0  0  0  0  0
   -4.9970    3.6770   -0.2810 N   0  0  0  0  0  0  0  0  0  0  0  0
   -4.7250    1.4320    0.5240 C   0  0  0  0  0  0  0  0  0  0  0  0
   -3.6180   -1.4210   -0.0240 C   0  0  0  0  0  0  0  0  0  0  0  0
   -3.8080   -1.2880   -1.3930 C   0  0  0  0  0  0  0  0  0  0  0  0
   -2.7150   -0.9980   -2.1690 C   0  0  0  0  0  0  0  0  0  0  0  0
   -1.4570   -0.8470   -1.5800 C   0  0  0  0  0  0  0  0  0  0  0  0
   -1.2350   -0.9710   -0.2480 C   0  0  0  0  0  0  0  0  0  0  0  0
    0.0000   -0.8680    0.4300 N   0  0  0  0  0  0  0  0  0  0  0  0
    1.2770   -0.7870   -0.1700 C   0  0  0  0  0  0  0  0  0  0  0  0
    1.3730   -0.7980   -1.4300 O   0  0  0  0  0  0  0  0  0  0  0  0
    2.5220   -0.6900    0.6430 C   0  0  2  0  0  0  0  0  0  0  0  0
    2.6200    0.5360    1.4910 C   0  0  0  0  0  0  0  0  0  0  0  0
    4.0120    0.7020    2.0050 C   0  0  0  0  0  0  0  0  0  0  0  0
    4.9930   -0.3720    1.7140 C   0  0  0  0  0  0  0  0  0  0  0  0
    4.8830   -1.0650    0.4870 N   0  0  2  0  0  0  0  0  0  0  0  0
    6.0370   -1.3530   -0.2650 C   0  0  0  0  0  0  0  0  0  0  0  0
    6.8870   -0.2860   -0.7650 C   0  0  0  0  0  0  0  0  0  0  0  0
    6.7130    1.0630   -0.6070 C   0  0  0  0  0  0  0  0  0  0  0  0
    7.5930    1.9710   -1.1360 C   0  0  0  0  0  0  0  0  0  0  0  0
    8.6770    1.5000   -1.8430 C   0  0  0  0  0  0  0  0  0  0  0  0
    9.6320    2.4580   -2.4300 C   0  0  0  0  0  0  0  0  0  0  0  0
    8.8800    0.1860   -2.0180 N   0  0  0  0  0  0  0  0  0  0  0  0
    8.0240   -0.6890   -1.5020 C   0  0  0  0  0  0  0  0  0  0  0  0
    8.2450   -1.9350   -1.6870 O   0  0  0  0  0  0  0  0  0  0  0  0
    3.7360   -0.6470   -0.3130 C   0  0  0  0  0  0  0  0  0  0  0  0
   -2.3590   -1.2650    0.5330 C   0  0  0  0  0  0  0  0  0  0  0  0
  1  2  2  0
  2  3  1  0
  3  4  1  0
  4  5  1  0
  4 14  1  0
  5  6  2  0
  5  7  1  0
  7  8  1  0
  7 13  1  0
  8  9  1  0
  9 10  1  1
  9 11  1  0
 11 12  1  1
 11 13  1  0
 14 15  2  0
 14 37  1  0
 15 16  1  0
 16 17  2  0
 17 18  1  0
 18 19  1  0
 18 37  2  0
 19 20  1  0
 20 21  2  0
 22 20  1  6
 22 23  1  0
 22 36  1  0
 23 24  1  0
 24 25  1  0
 25 26  1  0
 26 27  1  6
 26 36  1  0
 27 28  1  0
 28 29  2  0
 28 34  1  0
 29 30  1  0
 30 31  2  0
 31 32  1  0
 31 33  1  0
 33 34  1  0
 34 35  2  0
M  CHG  1  26   1
M  END
