
     RDKit          3D

 37 40  0  0  0  0  0  0  0  0999 V2000
    3.0520    0.2860   -2.2140 C   0  0  0  0  0  0  0  0  0  0  0  0
    2.7450   -1.1330   -1.7810 C   0  0  0  0  0  0  0  0  0  0  0  0
    2.2510   -1.1220   -0.3350 C   0  0  1  0  0  0  0  0  0  0  0  0
    3.2380   -0.5380    0.5060 N   0  0  0  0  0  0  0  0  0  0  0  0
    4.5140   -1.0620    0.8250 C   0  0  0  0  0  0  0  0  0  0  0  0
    5.0170   -2.2750    0.4340 C   0  0  0  0  0  0  0  0  0  0  0  0
    6.3080   -2.7060    0.7330 C   0  0  0  0  0  0  0  0  0  0  0  0
    6.8140   -3.9830    0.2910 N   0  0  0  0  0  0  0  0  0  0  0  0
    7.0980   -1.8460    1.4650 C   0  0  0  0  0  0  0  0  0  0  0  0
    6.5810   -0.6610    1.8400 N   0  0  0  0  0  0  0  0  0  0  0  0
    5.3780   -0.2650    1.5580 N   0  0  0  0  0  0  0  0  0  0  0  0
    0.9640   -0.3490   -0.3200 C   0  0  2  0  0  0  0  0  0  0  0  0
   -0.2540   -1.1030   -0.7870 C   0  0  0  0  0  0  0  0  0  0  0  0
   -1.3340   -0.5570    0.0700 N   0  0  0  0  0  0  0  0  0  0  0  0
   -2.4530   -1.2320    0.5150 C   0  0  0  0  0  0  0  0  0  0  0  0
   -2.3020   -2.4520    1.1870 C   0  0  0  0  0  0  0  0  0  0  0  0
   -3.3260   -3.1680    1.7190 C   0  0  0  0  0  0  0  0  0  0  0  0
   -3.0990   -4.4690    2.4210 C   0  0  0  0  0  0  0  0  0  0  0  0
   -4.6040   -2.6330    1.5740 C   0  0  0  0  0  0  0  0  0  0  0  0
   -5.7430   -3.3920    2.1890 C   0  0  0  0  0  0  0  0  0  0  0  0
   -4.7920   -1.4500    0.9230 C   0  0  0  0  0  0  0  0  0  0  0  0
   -3.7200   -0.7170    0.3740 C   0  0  0  0  0  0  0  0  0  0  0  0
   -4.0520    0.4800   -0.3120 N   0  0  0  0  0  0  0  0  0  0  0  0
   -4.7200    1.5480    0.4100 C   0  0  0  0  0  0  0  0  0  0  0  0
   -3.7920    0.7070   -1.7260 C   0  0  0  0  0  0  0  0  0  0  0  0
   -1.0110    0.8130    0.4190 C   0  0  0  0  0  0  0  0  0  0  0  0
   -0.3530    1.4830   -0.7820 C   0  0  1  0  0  0  0  0  0  0  0  0
   -0.0550    2.8970   -0.4400 C   0  0  0  0  0  0  0  0  0  0  0  0
    0.9160    3.1410    0.5560 C   0  0  0  0  0  0  0  0  0  0  0  0
    1.4130    4.4140    0.7640 C   0  0  0  0  0  0  0  0  0  0  0  0
    2.3840    4.6480    1.7530 O   0  0  0  0  0  0  0  0  0  0  0  0
    0.9540    5.4470   -0.0020 C   0  0  0  0  0  0  0  0  0  0  0  0
   -0.0190    5.2130   -0.9920 C   0  0  0  0  0  0  0  0  0  0  0  0
   -0.5100    3.9470   -1.1950 C   0  0  0  0  0  0  0  0  0  0  0  0
   -1.4970    3.7480   -2.1870 O   0  0  0  0  0  0  0  0  0  0  0  0
   -2.0660    4.7240   -2.9720 C   0  0  0  0  0  0  0  0  0  0  0  0
    0.9720    0.8930   -0.8740 O   0  0  0  0  0  0  0  0  0  0  0  0
  1  2  1  0
  3  2  1  6
  3  4  1  0
  3 12  1  0
  4  5  1  0
  5  6  2  0
  5 11  1  0
  6  7  1  0
  7  8  1  0
  7  9  2  0
  9 10  1  0
 10 11  2  0
 12 13  1  6
 12 37  1  0
 13 14  1  0
 14 15  1  0
 14 26  1  0
 15 16  2  0
 15 22  1  0
 16 17  1  0
 17 18  1  0
 17 19  2  0
 19 20  1  0
 19 21  1  0
 21 22  2  0
 22 23  1  0
 23 24  1  0
 23 25  1  0
 26 27  1  0
 27 28  1  1
 27 37  1  0
 28 29  2  0
 28 34  1  0
 29 30  1  0
 30 31  1  0
 30 32  2  0
 32 33  1  0
 33 34  2  0
 34 35  1  0
 35 36  1  0
M  CHG  1   8   1
M  END
