
     RDKit          3D

 37 40  0  0  0  0  0  0  0  0999 V2000
   -6.2850   -0.4670    3.7040 C   0  0  0  0  0  0  0  0  0  0  0  0
   -5.5240    0.2310    2.6170 C   0  0  2  0  0  0  0  0  0  0  0  0
   -5.7980    1.5240    2.3590 O   0  0  0  0  0  0  0  0  0  0  0  0
   -5.3390   -0.6700    1.4060 C   0  0  0  0  0  0  0  0  0  0  0  0
   -4.7160   -0.0410    0.2640 C   0  0  1  0  0  0  0  0  0  0  0  0
   -5.3730    1.0660   -0.4570 C   0  0  0  0  0  0  0  0  0  0  0  0
   -6.5520    0.7010   -1.1930 N   0  0  1  0  0  0  0  0  0  0  0  0
   -6.5780    1.5050   -2.4510 C   0  0  0  0  0  0  0  0  0  0  0  0
   -6.5090   -0.6640   -1.6570 C   0  0  0  0  0  0  0  0  0  0  0  0
   -3.2670    0.1800    0.3850 N   0  0  0  0  0  0  0  0  0  0  0  0
   -2.5180   -1.0540    0.1970 C   0  0  2  0  0  0  0  0  0  0  0  0
   -1.4660   -1.3230    1.2120 C   0  0  0  0  0  0  0  0  0  0  0  0
   -0.5100   -0.1680    1.1800 C   0  0  0  0  0  0  0  0  0  0  0  0
   -0.0830    0.0430   -0.1390 N   0  0  0  0  0  0  0  0  0  0  0  0
    1.2520    0.6210   -0.2680 C   0  0  0  0  0  0  0  0  0  0  0  0
    2.3930    0.3480   -0.3710 C   0  0  0  0  0  0  0  0  0  0  0  0
    3.3890   -0.6770   -0.4790 C   0  0  0  0  0  0  0  0  0  0  0  0
    2.8630   -1.7630   -1.0500 O   0  0  0  0  0  0  0  0  0  0  0  0
    4.7500   -0.8560   -0.1800 C   0  0  0  0  0  0  0  0  0  0  0  0
    5.3230    0.3610    0.4090 C   0  0  0  0  0  0  0  0  0  0  0  0
    6.5950   -0.0310    0.6740 N   0  0  0  0  0  0  0  0  0  0  0  0
    6.8720   -1.2710    0.3120 C   0  0  0  0  0  0  0  0  0  0  0  0
    8.0290   -2.1240    0.2350 C   0  0  0  0  0  0  0  0  0  0  0  0
    7.9830   -3.3020   -0.3270 C   0  0  0  0  0  0  0  0  0  0  0  0
    6.8040   -3.8330   -0.8610 C   0  0  0  0  0  0  0  0  0  0  0  0
    5.6800   -3.1030   -0.8150 C   0  0  0  0  0  0  0  0  0  0  0  0
    5.6650   -1.8010   -0.2420 C   0  0  0  0  0  0  0  0  0  0  0  0
    4.5420    1.4760    0.5710 N   0  0  0  0  0  0  0  0  0  0  0  0
    5.3490    2.7510    0.8760 C   0  0  0  0  0  0  0  0  0  0  0  0
    5.6210    3.1880   -0.5230 C   0  0  2  0  0  0  0  0  0  0  0  0
    6.2880    1.9770   -1.3140 C   0  0  0  0  0  0  0  0  0  0  0  0
    6.2680    4.2910   -0.8840 C   0  0  0  0  0  0  0  0  0  0  0  0
    6.9300    5.4140   -1.2740 N   0  0  0  0  0  0  0  0  0  0  0  0
    3.2340    1.6220    0.2830 C   0  0  0  0  0  0  0  0  0  0  0  0
    2.5760    2.6410    0.4470 O   0  0  0  0  0  0  0  0  0  0  0  0
   -0.7780   -0.1440   -1.3720 C   0  0  0  0  0  0  0  0  0  0  0  0
   -1.9610   -1.0290   -1.2470 C   0  0  0  0  0  0  0  0  0  0  0  0
  2  1  1  1
  2  3  1  0
  2  4  1  0
  5  4  1  1
  5  6  1  0
  5 10  1  0
  6  7  1  0
  7  8  1  6
  7  9  1  0
 11 10  1  1
 11 12  1  0
 11 37  1  0
 12 13  1  0
 13 14  1  0
 14 15  1  0
 14 36  1  0
 15 16  2  3
 16 17  1  0
 16 34  1  0
 17 18  2  0
 17 19  1  0
 19 20  2  0
 19 27  1  0
 20 21  1  0
 20 28  1  0
 21 22  1  0
 22 23  2  0
 22 27  1  0
 23 24  1  0
 24 25  2  0
 25 26  1  0
 26 27  2  0
 28 29  1  0
 28 34  1  0
 29 30  1  0
 30 31  1  1
 30 32  1  0
 32 33  3  0
 34 35  2  0
 36 37  1  0
M  CHG  1   7   1
M  END
