
     RDKit          3D

 35 38  0  0  0  0  0  0  0  0999 V2000
    5.0190   -4.0430    0.3350 C   0  0  0  0  0  0  0  0  0  0  0  0
    5.4650   -2.6190    0.5260 C   0  0  0  0  0  0  0  0  0  0  0  0
    4.3080   -1.6590    0.6580 C   0  0  1  0  0  0  0  0  0  0  0  0
    3.4240   -1.6740   -0.5710 C   0  0  0  0  0  0  0  0  0  0  0  0
    2.4290   -0.5550   -0.3510 C   0  0  0  0  0  0  0  0  0  0  0  0
    1.5890   -0.7500    0.7800 N   0  0  2  0  0  0  0  0  0  0  0  0
    1.0300    0.6110    1.0880 C   0  0  1  0  0  0  0  0  0  0  0  0
    2.1410    1.5270    1.3960 C   0  0  0  0  0  0  0  0  0  0  0  0
    0.0860    0.8960    0.0320 C   0  0  0  0  0  0  0  0  0  0  0  0
   -0.6660   -0.1800   -0.3840 N   0  0  0  0  0  0  0  0  0  0  0  0
   -1.5870   -0.1340   -1.3220 C   0  0  0  0  0  0  0  0  0  0  0  0
   -2.3520   -1.3480   -1.7080 C   0  0  0  0  0  0  0  0  0  0  0  0
   -3.5690   -1.3820   -0.9540 N   0  0  0  0  0  0  0  0  0  0  0  0
   -4.3620   -2.5520   -1.2950 C   0  0  0  0  0  0  0  0  0  0  0  0
   -5.5000   -2.7340   -0.3350 C   0  0  2  0  0  0  0  0  0  0  0  0
   -6.7370   -3.0860   -1.1430 C   0  0  0  0  0  0  0  0  0  0  0  0
   -5.7790   -1.5480    0.3540 O   0  0  0  0  0  0  0  0  0  0  0  0
   -4.7280   -1.0970    1.1160 C   0  0  2  0  0  0  0  0  0  0  0  0
   -4.8830    0.4130    1.2970 C   0  0  0  0  0  0  0  0  0  0  0  0
   -3.4010   -1.3610    0.4740 C   0  0  0  0  0  0  0  0  0  0  0  0
   -1.8350    1.0590   -1.9450 C   0  0  0  0  0  0  0  0  0  0  0  0
   -1.1200    2.1430   -1.5670 C   0  0  0  0  0  0  0  0  0  0  0  0
   -1.3360    3.2490   -2.1310 O   0  0  0  0  0  0  0  0  0  0  0  0
   -0.1720    2.0360   -0.5840 N   0  0  0  0  0  0  0  0  0  0  0  0
    0.4830    3.2340   -0.2710 C   0  0  0  0  0  0  0  0  0  0  0  0
    0.2850    3.8470    0.9200 C   0  0  0  0  0  0  0  0  0  0  0  0
    0.9090    5.0670    1.2180 C   0  0  0  0  0  0  0  0  0  0  0  0
    0.6910    5.9010    2.7330 Cl  0  0  0  0  0  0  0  0  0  0  0  0
    1.7330    5.6320    0.2690 C   0  0  0  0  0  0  0  0  0  0  0  0
    2.3940    6.8550    0.4970 O   0  0  0  0  0  0  0  0  0  0  0  0
    1.9410    5.0160   -0.9440 C   0  0  0  0  0  0  0  0  0  0  0  0
    1.3040    3.8190   -1.1880 C   0  0  0  0  0  0  0  0  0  0  0  0
    1.5480    3.1730   -2.5140 C   0  0  0  0  0  0  0  0  0  0  0  0
    2.1430   -1.3400    1.9220 C   0  0  0  0  0  0  0  0  0  0  0  0
    3.4510   -2.0050    1.8210 C   0  0  0  0  0  0  0  0  0  0  0  0
  1  2  1  0
  3  2  1  6
  3  4  1  0
  3 35  1  0
  4  5  1  0
  6  5  1  6
  6  7  1  0
  6 34  1  0
  7  8  1  6
  7  9  1  0
  9 10  2  0
  9 24  1  0
 10 11  1  0
 11 12  1  0
 11 21  2  0
 12 13  1  0
 13 14  1  0
 13 20  1  0
 14 15  1  0
 15 16  1  6
 15 17  1  0
 17 18  1  0
 18 19  1  6
 18 20  1  0
 21 22  1  0
 22 23  2  0
 22 24  1  0
 24 25  1  0
 25 26  2  0
 25 32  1  0
 26 27  1  0
 27 28  1  0
 27 29  2  0
 29 30  1  0
 29 31  1  0
 31 32  2  0
 32 33  1  0
 34 35  1  0
M  CHG  1   6   1
M  END
