
     RDKit          3D

 36 39  0  0  0  0  0  0  0  0999 V2000
   -7.6060   -2.4440    0.8130 C   0  0  0  0  0  0  0  0  0  0  0  0
   -8.0520   -1.7040   -0.3660 C   0  0  0  0  0  0  0  0  0  0  0  0
   -7.4660   -0.7690   -1.0430 C   0  0  0  0  0  0  0  0  0  0  0  0
   -6.1820   -0.1960   -0.8070 C   0  0  0  0  0  0  0  0  0  0  0  0
   -5.7820    0.7730   -1.6300 C   0  0  0  0  0  0  0  0  0  0  0  0
   -6.8090    1.3010   -2.9430 Cl  0  0  0  0  0  0  0  0  0  0  0  0
   -4.4990    1.4490   -1.4600 C   0  0  0  0  0  0  0  0  0  0  0  0
   -3.4940    0.5050   -0.8420 C   0  0  0  0  0  0  0  0  0  0  0  0
   -4.0710    0.0780    0.4110 N   0  0  0  0  0  0  0  0  0  0  0  0
   -3.4820    0.3420    1.6620 C   0  0  0  0  0  0  0  0  0  0  0  0
   -4.0250   -0.0160    2.7190 O   0  0  0  0  0  0  0  0  0  0  0  0
   -2.1790    1.0620    1.7800 C   0  0  1  0  0  0  0  0  0  0  0  0
   -1.8890    1.4690    3.1820 C   0  0  0  0  0  0  0  0  0  0  0  0
   -0.6770    0.7130    3.6210 C   0  0  0  0  0  0  0  0  0  0  0  0
   -0.5300   -0.4020    2.5940 C   0  0  0  0  0  0  0  0  0  0  0  0
   -1.0360    0.2400    1.3120 C   0  0  2  0  0  0  0  0  0  0  0  0
    0.0090    1.1060    0.7260 C   0  0  0  0  0  0  0  0  0  0  0  0
   -0.1520    2.3610    0.7950 O   0  0  0  0  0  0  0  0  0  0  0  0
    1.1550    0.5700    0.1070 N   0  0  0  0  0  0  0  0  0  0  0  0
    1.3280   -0.8630    0.0350 C   0  0  0  0  0  0  0  0  0  0  0  0
    1.9880   -1.0850   -1.3440 C   0  0  0  0  0  0  0  0  0  0  0  0
    3.3390   -0.5640   -1.1720 N   0  0  0  0  0  0  0  0  0  0  0  0
    4.4100   -1.4270   -1.4090 C   0  0  0  0  0  0  0  0  0  0  0  0
    4.1700   -2.6380   -1.7800 O   0  0  0  0  0  0  0  0  0  0  0  0
    5.8200   -1.1390   -1.2890 C   0  0  0  0  0  0  0  0  0  0  0  0
    6.5120   -0.6320   -2.3490 C   0  0  0  0  0  0  0  0  0  0  0  0
    7.8740   -0.3460   -2.2630 C   0  0  0  0  0  0  0  0  0  0  0  0
    8.4760   -0.5940   -1.0810 N   0  0  0  0  0  0  0  0  0  0  0  0
    7.8300   -1.0930   -0.0130 C   0  0  0  0  0  0  0  0  0  0  0  0
    6.4640   -1.3760   -0.1120 C   0  0  0  0  0  0  0  0  0  0  0  0
    5.8560   -1.8870    0.9970 F   0  0  0  0  0  0  0  0  0  0  0  0
    3.4580    0.8020   -0.7810 C   0  0  1  0  0  0  0  0  0  0  0  0
    4.3800    1.0520    0.3850 C   0  0  0  0  0  0  0  0  0  0  0  0
    4.0350    1.5850   -1.9630 C   0  0  0  0  0  0  0  0  0  0  0  0
    2.1320    1.4450   -0.4500 C   0  0  0  0  0  0  0  0  0  0  0  0
   -5.3200   -0.6770    0.2900 C   0  0  0  0  0  0  0  0  0  0  0  0
  1  2  1  0
  2  3  2  3
  3  4  1  0
  4  5  2  0
  4 36  1  0
  5  6  1  0
  5  7  1  0
  7  8  1  0
  8  9  1  0
  9 10  1  0
  9 36  1  0
 10 11  2  0
 12 10  1  1
 12 13  1  0
 12 16  1  0
 13 14  1  0
 14 15  1  0
 15 16  1  0
 16 17  1  1
 17 18  2  0
 17 19  1  0
 19 20  1  0
 19 35  1  0
 20 21  1  0
 21 22  1  0
 22 23  1  0
 22 32  1  0
 23 24  2  0
 23 25  1  0
 25 26  2  0
 25 30  1  0
 26 27  1  0
 27 28  2  0
 28 29  1  0
 29 30  2  0
 30 31  1  0
 32 33  1  1
 32 34  1  0
 32 35  1  0
M  CHG  1  28   1
M  END
