
     RDKit          3D

 36 39  0  0  0  0  0  0  0  0999 V2000
    8.1440   -0.3650   -1.9800 C   0  0  0  0  0  0  0  0  0  0  0  0
    7.3680    0.7730   -1.4310 C   0  0  0  0  0  0  0  0  0  0  0  0
    6.2480    0.5860   -0.7190 C   0  0  0  0  0  0  0  0  0  0  0  0
    5.6990   -0.7170   -0.4230 C   0  0  0  0  0  0  0  0  0  0  0  0
    6.2520   -1.7590   -0.8350 O   0  0  0  0  0  0  0  0  0  0  0  0
    4.4530   -0.7820    0.3860 C   0  0  0  0  0  0  0  0  0  0  0  0
    3.9250   -2.1370    0.6710 C   0  0  0  0  0  0  0  0  0  0  0  0
    4.9320   -2.9480    1.4690 C   0  0  0  0  0  0  0  0  0  0  0  0
    3.8520    0.2990    0.8260 C   0  0  0  0  0  0  0  0  0  0  0  0
    2.6060    0.3220    1.6440 C   0  0  0  0  0  0  0  0  0  0  0  0
    1.5110    1.0170    1.0290 N   0  0  0  0  0  0  0  0  0  0  0  0
    0.4130    1.1430    1.9690 C   0  0  0  0  0  0  0  0  0  0  0  0
   -0.3220   -0.1750    2.1310 C   0  0  0  0  0  0  0  0  0  0  0  0
   -0.7560   -0.5260    0.7930 N   0  0  0  0  0  0  0  0  0  0  0  0
   -2.1210   -0.7260    0.5240 C   0  0  0  0  0  0  0  0  0  0  0  0
   -2.9790   -0.6010    1.4740 O   0  0  0  0  0  0  0  0  0  0  0  0
   -2.7030   -1.0810   -0.7960 C   0  0  2  0  0  0  0  0  0  0  0  0
   -2.3740   -0.1280   -1.8940 C   0  0  0  0  0  0  0  0  0  0  0  0
   -3.6720    0.4530   -2.4820 C   0  0  0  0  0  0  0  0  0  0  0  0
   -4.4250    1.1120   -1.3640 C   0  0  0  0  0  0  0  0  0  0  0  0
   -4.9780   -0.0220   -0.5020 C   0  0  1  0  0  0  0  0  0  0  0  0
   -6.2970   -0.2280   -0.7900 O   0  0  0  0  0  0  0  0  0  0  0  0
   -7.4620   -0.0820   -0.1080 C   0  0  0  0  0  0  0  0  0  0  0  0
   -8.6830   -0.3970   -0.7390 C   0  0  0  0  0  0  0  0  0  0  0  0
   -9.8480   -0.2740   -0.1260 N   0  0  0  0  0  0  0  0  0  0  0  0
   -9.9840    0.1580    1.1430 C   0  0  0  0  0  0  0  0  0  0  0  0
   -8.8180    0.4760    1.7940 C   0  0  0  0  0  0  0  0  0  0  0  0
   -7.5630    0.3620    1.1890 C   0  0  0  0  0  0  0  0  0  0  0  0
   -6.4500    0.6970    1.9030 F   0  0  0  0  0  0  0  0  0  0  0  0
   -4.1780   -1.3130   -0.7240 C   0  0  0  0  0  0  0  0  0  0  0  0
    0.2480   -0.6560   -0.2060 C   0  0  0  0  0  0  0  0  0  0  0  0
    1.1050    0.5630   -0.2500 C   0  0  0  0  0  0  0  0  0  0  0  0
    4.4530    1.5710    0.4950 N   0  0  0  0  0  0  0  0  0  0  0  0
    5.5140    1.7250   -0.1880 C   0  0  0  0  0  0  0  0  0  0  0  0
    6.0830    3.0870   -0.4840 C   0  0  0  0  0  0  0  0  0  0  0  0
    5.0000    4.2780    0.2510 Cl  0  0  0  0  0  0  0  0  0  0  0  0
  1  2  1  0
  2  3  2  3
  3  4  1  0
  3 34  1  0
  4  5  2  0
  4  6  1  0
  6  7  1  0
  6  9  2  0
  7  8  1  0
  9 10  1  0
  9 33  1  0
 10 11  1  0
 11 12  1  0
 11 32  1  0
 12 13  1  0
 13 14  1  0
 14 15  1  0
 14 31  1  0
 15 16  2  0
 17 15  1  1
 17 18  1  0
 17 30  1  0
 18 19  1  0
 19 20  1  0
 20 21  1  0
 21 22  1  6
 21 30  1  0
 22 23  1  0
 23 24  2  0
 23 28  1  0
 24 25  1  0
 25 26  2  0
 26 27  1  0
 27 28  2  0
 28 29  1  0
 31 32  1  0
 33 34  2  0
 34 35  1  0
 35 36  1  0
M  CHG  1  33   1
M  END
