
     RDKit          3D

 36 39  0  0  0  0  0  0  0  0999 V2000
    6.3300   -3.1270    0.5360 C   0  0  0  0  0  0  0  0  0  0  0  0
    6.5440   -1.7530    0.0120 C   0  0  2  0  0  0  0  0  0  0  0  0
    7.3210   -0.8680    0.9260 C   0  0  0  0  0  0  0  0  0  0  0  0
    7.5260    0.4170    0.3100 N   0  0  1  0  0  0  0  0  0  0  0  0
    8.9560    0.7650    0.3740 C   0  0  0  0  0  0  0  0  0  0  0  0
    7.0280    0.5640   -1.0100 C   0  0  1  0  0  0  0  0  0  0  0  0
    8.0460   -0.0920   -2.2880 Cl  0  0  0  0  0  0  0  0  0  0  0  0
    5.5610    0.1590   -1.1320 C   0  0  0  0  0  0  0  0  0  0  0  0
    5.3090   -1.0050   -0.3240 N   0  0  0  0  0  0  0  0  0  0  0  0
    4.0700   -1.4690    0.1150 C   0  0  0  0  0  0  0  0  0  0  0  0
    4.0430   -2.5070    0.9000 O   0  0  0  0  0  0  0  0  0  0  0  0
    2.7680   -0.9390   -0.1880 C   0  0  0  0  0  0  0  0  0  0  0  0
    2.4290   -0.0340   -1.1560 C   0  0  0  0  0  0  0  0  0  0  0  0
    1.1490    0.4670   -1.3230 C   0  0  0  0  0  0  0  0  0  0  0  0
    0.1260    0.0790   -0.5170 C   0  0  0  0  0  0  0  0  0  0  0  0
   -1.2260    0.5910   -0.6610 C   0  0  0  0  0  0  0  0  0  0  0  0
   -1.7800    0.6490   -1.9140 C   0  0  0  0  0  0  0  0  0  0  0  0
   -3.0620    1.1500   -2.0020 C   0  0  0  0  0  0  0  0  0  0  0  0
   -3.7300    1.5650   -0.8620 C   0  0  0  0  0  0  0  0  0  0  0  0
   -5.0280    2.0880   -1.0330 N   0  0  0  0  0  0  0  0  0  0  0  0
   -5.2240    3.3700   -1.7370 C   0  0  0  0  0  0  0  0  0  0  0  0
   -6.1580    1.3890   -0.5320 C   0  0  0  0  0  0  0  0  0  0  0  0
   -7.3170    1.8840   -0.6720 O   0  0  0  0  0  0  0  0  0  0  0  0
   -5.9930    0.0820    0.1540 C   0  0  0  0  0  0  0  0  0  0  0  0
   -7.3300   -0.3410    0.5850 N   0  0  0  0  0  0  0  0  0  0  0  0
   -7.8230    0.0250    1.8040 C   0  0  0  0  0  0  0  0  0  0  0  0
   -9.0800   -0.3490    2.2240 C   0  0  0  0  0  0  0  0  0  0  0  0
   -9.8950   -1.1160    1.4200 C   0  0  0  0  0  0  0  0  0  0  0  0
   -9.4040   -1.4900    0.1880 C   0  0  0  0  0  0  0  0  0  0  0  0
   -8.1210   -1.0840   -0.1920 C   0  0  0  0  0  0  0  0  0  0  0  0
   -7.6770   -1.4290   -1.3210 O   0  0  0  0  0  0  0  0  0  0  0  0
   -3.1740    1.5070    0.3950 C   0  0  0  0  0  0  0  0  0  0  0  0
   -1.8760    0.9990    0.4830 C   0  0  0  0  0  0  0  0  0  0  0  0
    0.4190   -0.8310    0.4700 C   0  0  0  0  0  0  0  0  0  0  0  0
   -0.6080   -1.2370    1.2960 F   0  0  0  0  0  0  0  0  0  0  0  0
    1.6780   -1.3210    0.6320 C   0  0  0  0  0  0  0  0  0  0  0  0
  2  1  1  1
  2  3  1  0
  2  9  1  0
  3  4  1  0
  4  5  1  6
  4  6  1  0
  6  7  1  6
  6  8  1  0
  8  9  1  0
  9 10  1  0
 10 11  2  0
 10 12  1  0
 12 13  2  0
 12 36  1  0
 13 14  1  0
 14 15  2  0
 15 16  1  0
 15 34  1  0
 16 17  2  0
 16 33  1  0
 17 18  1  0
 18 19  2  0
 19 20  1  0
 19 32  1  0
 20 21  1  0
 20 22  1  0
 22 23  2  0
 22 24  1  0
 24 25  1  0
 25 26  1  0
 25 30  1  0
 26 27  2  0
 27 28  1  0
 28 29  2  0
 29 30  1  0
 30 31  2  0
 32 33  2  0
 34 35  1  0
 34 36  2  0
M  CHG  1   4   1
M  END
