
     RDKit          3D

 35 38  0  0  0  0  0  0  0  0999 V2000
   -5.3700   -3.1920    0.8980 C   0  0  0  0  0  0  0  0  0  0  0  0
   -4.3660   -2.3880    1.6730 C   0  0  0  0  0  0  0  0  0  0  0  0
   -3.1410   -2.1100    0.8690 C   0  0  0  0  0  0  0  0  0  0  0  0
   -3.3340   -1.3700   -0.3350 N   0  0  0  0  0  0  0  0  0  0  0  0
   -4.0230   -1.9020   -1.5050 C   0  0  0  0  0  0  0  0  0  0  0  0
   -2.8660   -0.0310   -0.4680 C   0  0  0  0  0  0  0  0  0  0  0  0
   -1.6630    0.3490   -0.3360 N   0  0  0  0  0  0  0  0  0  0  0  0
   -0.5640   -0.4970   -0.0320 C   0  0  0  0  0  0  0  0  0  0  0  0
   -0.4040   -1.7500   -0.5760 C   0  0  0  0  0  0  0  0  0  0  0  0
    0.6900   -2.5160   -0.2330 C   0  0  0  0  0  0  0  0  0  0  0  0
    1.6540   -2.0730    0.6500 C   0  0  0  0  0  0  0  0  0  0  0  0
    1.5020   -0.8490    1.1830 N   0  0  0  0  0  0  0  0  0  0  0  0
    2.4950   -0.3520    2.0710 C   0  0  0  0  0  0  0  0  0  0  0  0
    3.7060    0.3000    1.5120 C   0  0  2  0  0  0  0  0  0  0  0  0
    3.5270    1.4980    0.6570 C   0  0  0  0  0  0  0  0  0  0  0  0
    4.0020    0.9890   -0.7040 C   0  0  0  0  0  0  0  0  0  0  0  0
    3.8560   -0.4140   -0.5980 O   0  0  0  0  0  0  0  0  0  0  0  0
    4.5190   -0.6030    0.6400 C   0  0  1  0  0  0  0  0  0  0  0  0
    5.9150   -0.2510    0.4230 C   0  0  0  0  0  0  0  0  0  0  0  0
    6.6140    0.6970    1.0840 C   0  0  0  0  0  0  0  0  0  0  0  0
    7.9500    0.9120    0.7660 C   0  0  0  0  0  0  0  0  0  0  0  0
    8.7890    2.1640    1.6710 Cl  0  0  0  0  0  0  0  0  0  0  0  0
    8.6240    0.2030   -0.2020 C   0  0  0  0  0  0  0  0  0  0  0  0
    7.9030   -0.7640   -0.8720 C   0  0  0  0  0  0  0  0  0  0  0  0
    6.5770   -0.9910   -0.5710 C   0  0  0  0  0  0  0  0  0  0  0  0
    5.9230   -1.9550   -1.2660 F   0  0  0  0  0  0  0  0  0  0  0  0
    0.4380   -0.0910    0.8590 C   0  0  0  0  0  0  0  0  0  0  0  0
    0.2370    1.0760    1.3380 O   0  0  0  0  0  0  0  0  0  0  0  0
   -3.8720    0.9250   -0.7700 N   0  0  0  0  0  0  0  0  0  0  0  0
   -5.0170    1.1750    0.0750 C   0  0  0  0  0  0  0  0  0  0  0  0
   -5.1990    2.6630    0.2400 C   0  0  0  0  0  0  0  0  0  0  0  0
   -4.0410    3.2920   -0.1990 O   0  0  0  0  0  0  0  0  0  0  0  0
   -3.8700    3.1550   -1.5770 C   0  0  1  0  0  0  0  0  0  0  0  0
   -2.6200    3.8580   -2.0530 C   0  0  0  0  0  0  0  0  0  0  0  0
   -3.7540    1.6930   -1.9780 C   0  0  0  0  0  0  0  0  0  0  0  0
  1  2  1  0
  2  3  1  0
  3  4  1  0
  4  5  1  0
  4  6  1  0
  6  7  2  3
  6 29  1  0
  7  8  1  0
  8  9  2  0
  8 27  1  0
  9 10  1  0
 10 11  2  0
 11 12  1  0
 12 13  1  0
 12 27  1  0
 14 13  1  6
 14 15  1  0
 14 18  1  0
 15 16  1  0
 16 17  1  0
 17 18  1  0
 18 19  1  6
 19 20  2  0
 19 25  1  0
 20 21  1  0
 21 22  1  0
 21 23  2  0
 23 24  1  0
 24 25  2  0
 25 26  1  0
 27 28  2  0
 29 30  1  0
 29 35  1  0
 30 31  1  0
 31 32  1  0
 32 33  1  0
 33 34  1  1
 33 35  1  0
M  CHG  1   7   1
M  END
