
     RDKit          3D

 37 40  0  0  0  0  0  0  0  0999 V2000
   -0.7160    6.3490    0.8790 C   0  0  0  0  0  0  0  0  0  0  0  0
   -1.1340    5.1310    0.1330 C   0  0  0  0  0  0  0  0  0  0  0  0
   -2.5870    5.0350   -0.2670 C   0  0  0  0  0  0  0  0  0  0  0  0
   -0.2810    4.1810   -0.1700 C   0  0  0  0  0  0  0  0  0  0  0  0
   -0.7190    2.9550   -0.9260 C   0  0  0  0  0  0  0  0  0  0  0  0
   -0.4900    1.7430   -0.2000 N   0  0  0  0  0  0  0  0  0  0  0  0
    0.6280    0.9230   -0.2100 C   0  0  0  0  0  0  0  0  0  0  0  0
    0.5320   -0.0890    0.6310 O   0  0  0  0  0  0  0  0  0  0  0  0
    1.8250    0.9970   -0.9610 N   0  0  0  0  0  0  0  0  0  0  0  0
    2.0320    2.0530   -1.9090 C   0  0  0  0  0  0  0  0  0  0  0  0
    2.8680   -0.0230   -0.7720 C   0  0  1  0  0  0  0  0  0  0  0  0
    3.4190   -0.0550    0.6120 C   0  0  0  0  0  0  0  0  0  0  0  0
    3.8090   -1.3990    1.1190 C   0  0  0  0  0  0  0  0  0  0  0  0
    4.3300   -2.3670    0.1200 C   0  0  2  0  0  0  0  0  0  0  0  0
    5.7830   -2.3570   -0.0800 C   0  0  0  0  0  0  0  0  0  0  0  0
    6.4770   -1.2480   -0.5370 C   0  0  0  0  0  0  0  0  0  0  0  0
    7.8420   -1.3410   -0.6950 C   0  0  0  0  0  0  0  0  0  0  0  0
    8.5130   -2.4860   -0.4130 N   0  0  0  0  0  0  0  0  0  0  0  0
    7.8670   -3.5780    0.0320 C   0  0  0  0  0  0  0  0  0  0  0  0
    6.5080   -3.5020    0.1950 C   0  0  0  0  0  0  0  0  0  0  0  0
    3.6150   -2.2770   -1.2290 C   0  0  0  0  0  0  0  0  0  0  0  0
    2.3760   -1.3970   -1.1260 C   0  0  0  0  0  0  0  0  0  0  0  0
   -1.5880    1.3520    0.6710 C   0  0  0  0  0  0  0  0  0  0  0  0
   -1.7240    1.9970    1.8700 C   0  0  0  0  0  0  0  0  0  0  0  0
   -2.7340    1.6840    2.7530 C   0  0  0  0  0  0  0  0  0  0  0  0
   -3.6050    0.6910    2.3790 C   0  0  0  0  0  0  0  0  0  0  0  0
   -3.4740    0.0250    1.1540 C   0  0  0  0  0  0  0  0  0  0  0  0
   -4.4210   -0.9880    0.8830 N   0  0  0  0  0  0  0  0  0  0  0  0
   -4.6530   -1.6400   -0.3410 C   0  0  0  0  0  0  0  0  0  0  0  0
   -3.9870   -1.3360   -1.3400 O   0  0  0  0  0  0  0  0  0  0  0  0
   -5.6690   -2.6960   -0.5120 C   0  0  0  0  0  0  0  0  0  0  0  0
   -6.2290   -3.3840    0.5400 C   0  0  0  0  0  0  0  0  0  0  0  0
   -7.1920   -4.3680    0.3470 C   0  0  0  0  0  0  0  0  0  0  0  0
   -7.6300   -4.6960   -0.9280 C   0  0  0  0  0  0  0  0  0  0  0  0
   -7.0640   -4.0010   -1.9750 C   0  0  0  0  0  0  0  0  0  0  0  0
   -6.1090   -3.0250   -1.7820 C   0  0  0  0  0  0  0  0  0  0  0  0
   -2.4730    0.3390    0.2860 C   0  0  0  0  0  0  0  0  0  0  0  0
  1  2  1  0
  2  3  1  0
  2  4  2  3
  4  5  1  0
  5  6  1  0
  6  7  1  0
  6 23  1  0
  7  8  2  0
  7  9  1  0
  9 10  1  0
 11  9  1  1
 11 12  1  0
 11 22  1  0
 12 13  1  0
 13 14  1  0
 14 15  1  6
 14 21  1  0
 15 16  2  0
 15 20  1  0
 16 17  1  0
 17 18  2  0
 18 19  1  0
 19 20  2  0
 21 22  1  0
 23 24  2  0
 23 37  1  0
 24 25  1  0
 25 26  2  0
 26 27  1  0
 27 28  1  0
 27 37  2  0
 28 29  1  0
 29 30  2  0
 29 31  1  0
 31 32  2  0
 31 36  1  0
 32 33  1  0
 33 34  2  0
 34 35  1  0
 35 36  2  0
M  END
