
     RDKit          3D

 36 39  0  0  0  0  0  0  0  0999 V2000
    2.1380    1.6570    1.0950 C   0  0  0  0  0  0  0  0  0  0  0  0
    1.8040    1.3500   -0.3110 C   0  0  0  0  0  0  0  0  0  0  0  0
    2.5580    0.7890   -1.2960 C   0  0  0  0  0  0  0  0  0  0  0  0
    3.9180    0.3270   -1.2530 C   0  0  0  0  0  0  0  0  0  0  0  0
    4.7420    0.3430   -0.2550 C   0  0  0  0  0  0  0  0  0  0  0  0
    6.1230   -0.1880   -0.4160 C   0  0  0  0  0  0  0  0  0  0  0  0
    6.4710   -0.6450   -1.5170 O   0  0  0  0  0  0  0  0  0  0  0  0
    7.0110   -0.1830    0.6220 O   0  0  0  0  0  0  0  0  0  0  0  0
    8.3230   -0.6560    0.5720 C   0  0  1  0  0  0  0  0  0  0  0  0
    9.3550    0.4130    0.8540 C   0  0  0  0  0  0  0  0  0  0  0  0
   10.6750   -0.0690    0.2980 C   0  0  0  0  0  0  0  0  0  0  0  0
   10.8290   -1.5630    0.4710 C   0  0  0  0  0  0  0  0  0  0  0  0
   10.0460   -2.0700    1.6620 C   0  0  0  0  0  0  0  0  0  0  0  0
    8.5800   -1.7910    1.5380 C   0  0  0  0  0  0  0  0  0  0  0  0
    1.7370    0.7450   -2.3970 N   0  0  0  0  0  0  0  0  0  0  0  0
    0.5690    1.2350   -2.1300 N   0  0  0  0  0  0  0  0  0  0  0  0
    0.5610    1.6240   -0.8500 C   0  0  0  0  0  0  0  0  0  0  0  0
   -0.6640    2.2190   -0.3170 C   0  0  0  0  0  0  0  0  0  0  0  0
   -1.8170    1.4660   -0.7520 N   0  0  0  0  0  0  0  0  0  0  0  0
   -2.9600    1.3260    0.0810 C   0  0  0  0  0  0  0  0  0  0  0  0
   -2.9320    1.8780    1.2090 O   0  0  0  0  0  0  0  0  0  0  0  0
   -4.1580    0.5490   -0.3650 C   0  0  0  0  0  0  0  0  0  0  0  0
   -5.1890    0.6100    0.7300 C   0  0  0  0  0  0  0  0  0  0  0  0
   -6.4070   -0.0730    0.4730 N   0  0  1  0  0  0  0  0  0  0  0  0
   -7.4600    0.9570    0.3900 C   0  0  0  0  0  0  0  0  0  0  0  0
   -8.2480    1.0200    1.6810 C   0  0  0  0  0  0  0  0  0  0  0  0
   -9.2400   -0.0670    1.6920 C   0  0  0  0  0  0  0  0  0  0  0  0
   -9.4330   -1.2090    1.0590 C   0  0  0  0  0  0  0  0  0  0  0  0
   -8.7390   -1.9530    0.0210 C   0  0  0  0  0  0  0  0  0  0  0  0
   -7.6120   -1.7800   -0.6510 C   0  0  0  0  0  0  0  0  0  0  0  0
   -7.4130   -2.9110   -1.6220 C   0  0  2  0  0  0  0  0  0  0  0  0
   -7.3460   -2.4540   -2.9220 F   0  0  0  0  0  0  0  0  0  0  0  0
   -8.7620   -4.0640   -1.5340 Cl  0  0  0  0  0  0  0  0  0  0  0  0
   -6.4880   -0.8120   -0.7400 C   0  0  0  0  0  0  0  0  0  0  0  0
   -1.7840    0.8490   -2.0780 C   0  0  0  0  0  0  0  0  0  0  0  0
   -0.6240    1.4190   -2.8990 C   0  0  0  0  0  0  0  0  0  0  0  0
  1  2  1  0
  2  3  1  0
  2 17  2  0
  3  4  1  0
  3 15  2  0
  4  5  2  3
  5  6  1  0
  6  7  2  0
  6  8  1  0
  9  8  1  1
  9 10  1  0
  9 14  1  0
 10 11  1  0
 11 12  1  0
 12 13  1  0
 13 14  1  0
 15 16  1  0
 16 17  1  0
 16 36  1  0
 17 18  1  0
 18 19  1  0
 19 20  1  0
 19 35  1  0
 20 21  2  0
 20 22  1  0
 22 23  1  0
 24 23  1  6
 24 25  1  0
 24 34  1  0
 25 26  1  0
 26 27  1  0
 27 28  2  0
 28 29  1  0
 29 30  2  0
 30 31  1  0
 30 34  1  0
 31 32  1  6
 31 33  1  0
 35 36  1  0
M  CHG  1  24   1
M  END
