
     RDKit          3D

 47 50  0  0  0  0  0  0  0  0999 V2000
   -7.7670   -4.2050    0.2170 C   0  0  0  0  0  0  0  0  0  0  0  0
   -6.5660   -3.6760   -0.0960 C   0  0  0  0  0  0  0  0  0  0  0  0
   -5.3350   -3.2370   -0.2760 C   0  0  0  0  0  0  0  0  0  0  0  0
   -4.9920   -2.3020   -1.4060 C   0  0  0  0  0  0  0  0  0  0  0  0
   -4.4950   -1.0730   -1.2760 O   0  0  0  0  0  0  0  0  0  0  0  0
   -5.0570    0.1830   -1.0480 C   0  0  0  0  0  0  0  0  0  0  0  0
   -6.2360    0.5880   -0.9560 C   0  0  0  0  0  0  0  0  0  0  0  0
   -6.6360    1.9390   -0.7670 C   0  0  0  0  0  0  0  0  0  0  0  0
   -5.7260    2.8070   -0.6830 C   0  0  0  0  0  0  0  0  0  0  0  0
   -5.9800    4.3060   -0.3610 C   0  0  0  0  0  0  0  0  0  0  0  0
   -6.1310    4.2400    1.1670 C   0  0  0  0  0  0  0  0  0  0  0  0
   -4.9780    3.5730    1.8470 C   0  0  0  0  0  0  0  0  0  0  0  0
   -4.3060    2.5000   -0.7920 C   0  0  0  0  0  0  0  0  0  0  0  0
   -3.9660    1.1450   -0.9620 C   0  0  0  0  0  0  0  0  0  0  0  0
   -2.6130    0.7330   -0.6860 C   0  0  2  0  0  0  0  0  0  0  0  0
   -1.7590   -0.0130   -1.5590 C   0  0  0  0  0  0  0  0  0  0  0  0
   -0.3620    0.0450   -1.0660 C   0  0  0  0  0  0  0  0  0  0  0  0
   -0.0940    0.8830   -0.1110 O   0  0  0  0  0  0  0  0  0  0  0  0
    0.7160   -0.7280   -1.5330 N   0  0  0  0  0  0  0  0  0  0  0  0
    2.0220   -0.5140   -1.0450 C   0  0  0  0  0  0  0  0  0  0  0  0
    3.0660   -0.6290   -1.9910 C   0  0  0  0  0  0  0  0  0  0  0  0
    4.3250   -0.2870   -1.6880 C   0  0  0  0  0  0  0  0  0  0  0  0
    4.5980    0.1700   -0.4160 C   0  0  0  0  0  0  0  0  0  0  0  0
    5.9910    0.7050   -0.0770 C   0  0  0  0  0  0  0  0  0  0  0  0
    6.1590    1.8010   -0.1020 O   0  0  0  0  0  0  0  0  0  0  0  0
    6.8330   -0.4410    0.1590 N   0  0  0  0  0  0  0  0  0  0  0  0
    6.4480   -1.8330    0.0950 C   0  0  0  0  0  0  0  0  0  0  0  0
    7.4230   -2.6140   -0.7650 C   0  0  1  0  0  0  0  0  0  0  0  0
    7.4290   -2.1290   -2.1820 C   0  0  0  0  0  0  0  0  0  0  0  0
    7.4410   -1.7310   -3.2910 N   0  0  0  0  0  0  0  0  0  0  0  0
    8.7950   -2.4530   -0.2960 O   0  0  0  0  0  0  0  0  0  0  0  0
    9.1070   -1.1770    0.2050 C   0  0  0  0  0  0  0  0  0  0  0  0
   10.5090   -1.0180    0.4360 C   0  0  0  0  0  0  0  0  0  0  0  0
   10.8290    0.2680    0.9090 C   0  0  0  0  0  0  0  0  0  0  0  0
   12.2330    0.5590    1.0980 C   0  0  0  0  0  0  0  0  0  0  0  0
   13.4670    0.7970    1.2740 N   0  0  0  0  0  0  0  0  0  0  0  0
    9.9480    1.2410    1.1340 C   0  0  0  0  0  0  0  0  0  0  0  0
    8.5880    1.0310    0.9020 C   0  0  0  0  0  0  0  0  0  0  0  0
    8.2240   -0.2570    0.4090 C   0  0  0  0  0  0  0  0  0  0  0  0
    3.6520    0.2960    0.5620 C   0  0  0  0  0  0  0  0  0  0  0  0
    3.9300    0.8420    1.8940 C   0  0  0  0  0  0  0  0  0  0  0  0
    2.3350   -0.0630    0.2040 C   0  0  0  0  0  0  0  0  0  0  0  0
   -2.5230    0.6160    0.8560 C   0  0  0  0  0  0  0  0  0  0  0  0
   -3.6120   -0.0500    1.4500 C   0  0  0  0  0  0  0  0  0  0  0  0
   -2.9280   -0.4720    2.8170 O   0  0  0  0  0  0  0  0  0  0  0  0
   -4.6980   -0.5240    1.6670 O   0  0  0  0  0  0  0  0  0  0  0  0
   -5.8170   -1.0650    1.9990 C   0  0  0  0  0  0  0  0  0  0  0  0
  1  2  1  0
  2  3  2  3
  3  4  1  0
  4  5  1  0
  5  6  1  0
  6  7  2  0
  6 14  1  0
  7  8  1  0
  8  9  2  0
  9 10  1  0
  9 13  1  0
 10 11  1  0
 11 12  1  0
 13 14  2  0
 14 15  1  0
 15 16  1  6
 15 43  1  0
 16 17  1  0
 17 18  2  0
 17 19  1  0
 19 20  1  0
 20 21  2  0
 20 42  1  0
 21 22  1  0
 22 23  2  0
 23 24  1  0
 23 40  1  0
 24 25  2  0
 24 26  1  0
 26 27  1  0
 26 39  1  0
 27 28  1  0
 28 29  1  6
 28 31  1  0
 29 30  3  0
 31 32  1  0
 32 33  2  0
 32 39  1  0
 33 34  1  0
 34 35  1  0
 34 37  2  0
 35 36  3  0
 37 38  1  0
 38 39  2  0
 40 41  1  0
 40 42  2  0
 43 44  1  0
 44 45  2  0
 44 46  1  0
 46 47  1  0
M  END
