
     RDKit          3D

 47 51  0  0  0  0  0  0  0  0999 V2000
   11.1900    1.7380   -3.9030 C   0  0  0  0  0  0  0  0  0  0  0  0
    9.9120    1.4400   -3.2030 C   0  0  0  0  0  0  0  0  0  0  0  0
    9.2440    0.2420   -3.4290 C   0  0  0  0  0  0  0  0  0  0  0  0
    8.0570   -0.0940   -2.8300 C   0  0  0  0  0  0  0  0  0  0  0  0
    7.4500    0.7960   -1.9300 C   0  0  0  0  0  0  0  0  0  0  0  0
    6.2310    0.4030   -1.2990 N   0  0  0  0  0  0  0  0  0  0  0  0
    5.0360    1.0730   -1.6870 C   0  0  0  0  0  0  0  0  0  0  0  0
    5.0880    1.9740   -2.5790 O   0  0  0  0  0  0  0  0  0  0  0  0
    3.7280    0.7930   -1.1040 C   0  0  0  0  0  0  0  0  0  0  0  0
    3.5970   -0.0730   -0.1610 C   0  0  0  0  0  0  0  0  0  0  0  0
    2.3470   -0.4070    0.4660 C   0  0  0  0  0  0  0  0  0  0  0  0
    1.1170    0.0740   -0.0070 C   0  0  0  0  0  0  0  0  0  0  0  0
   -0.0040   -0.2460    0.6940 C   0  0  0  0  0  0  0  0  0  0  0  0
    0.0120   -1.0120    1.8360 C   0  0  0  0  0  0  0  0  0  0  0  0
   -1.1310   -1.3500    2.5500 O   0  0  0  0  0  0  0  0  0  0  0  0
   -2.4490   -1.0160    2.2130 C   0  0  0  0  0  0  0  0  0  0  0  0
   -2.8400   -1.6210    0.8980 C   0  0  0  0  0  0  0  0  0  0  0  0
   -1.9780   -2.3020    0.2900 O   0  0  0  0  0  0  0  0  0  0  0  0
   -4.1270   -1.4360    0.3640 N   0  0  0  0  0  0  0  0  0  0  0  0
   -4.4260   -2.0340   -0.9190 C   0  0  0  0  0  0  0  0  0  0  0  0
   -5.8650   -2.5120   -0.8680 C   0  0  0  0  0  0  0  0  0  0  0  0
   -6.7740   -1.2880   -0.8480 C   0  0  0  0  0  0  0  0  0  0  0  0
   -6.1780   -0.1860   -0.0070 C   0  0  1  0  0  0  0  0  0  0  0  0
   -7.2700    0.5040    0.6250 N   0  0  0  0  0  0  0  0  0  0  0  0
   -7.4390    1.9200    0.6640 C   0  0  0  0  0  0  0  0  0  0  0  0
   -6.5240    2.5780    0.0870 O   0  0  0  0  0  0  0  0  0  0  0  0
   -8.6100    2.5370    1.3390 C   0  0  0  0  0  0  0  0  0  0  0  0
   -8.6620    3.9060    1.3300 O   0  0  0  0  0  0  0  0  0  0  0  0
   -8.7630    4.6810    0.2140 C   0  0  0  0  0  0  0  0  0  0  0  0
   -8.7930    6.0820    0.3180 C   0  0  0  0  0  0  0  0  0  0  0  0
   -8.8970    6.8100   -0.8320 C   0  0  0  0  0  0  0  0  0  0  0  0
   -8.9700    6.1820   -2.0510 C   0  0  0  0  0  0  0  0  0  0  0  0
   -8.9400    4.8250   -2.1460 N   0  0  0  0  0  0  0  0  0  0  0  0
   -8.8400    4.1090   -1.0320 C   0  0  0  0  0  0  0  0  0  0  0  0
   -5.1740   -0.6980    1.0140 C   0  0  0  0  0  0  0  0  0  0  0  0
    1.2330   -1.4810    2.2940 C   0  0  0  0  0  0  0  0  0  0  0  0
    1.2800   -2.2510    3.4370 O   0  0  0  0  0  0  0  0  0  0  0  0
    2.3480   -2.9210    3.9440 C   0  0  0  0  0  0  0  0  0  0  0  0
    2.7630   -4.1910    3.2780 C   0  0  2  0  0  0  0  0  0  0  0  0
    2.9900   -4.2050    1.8170 C   0  0  0  0  0  0  0  0  0  0  0  0
    2.9810   -5.7560    1.5960 C   0  0  0  0  0  0  0  0  0  0  0  0
    1.7640   -6.0500    2.4670 C   0  0  0  0  0  0  0  0  0  0  0  0
    1.7120   -5.1290    3.4740 O   0  0  0  0  0  0  0  0  0  0  0  0
    2.3690   -1.1700    1.5980 C   0  0  0  0  0  0  0  0  0  0  0  0
    8.0980    1.9780   -1.6980 C   0  0  0  0  0  0  0  0  0  0  0  0
    9.3040    2.3000   -2.3160 C   0  0  0  0  0  0  0  0  0  0  0  0
    9.9500    3.6030   -1.9740 C   0  0  0  0  0  0  0  0  0  0  0  0
  1  2  1  0
  2  3  2  0
  2 46  1  0
  3  4  1  0
  4  5  2  0
  5  6  1  0
  5 45  1  0
  6  7  1  0
  7  8  2  0
  7  9  1  0
  9 10  2  3
 10 11  1  0
 11 12  2  0
 11 44  1  0
 12 13  1  0
 13 14  2  0
 14 15  1  0
 14 36  1  0
 15 16  1  0
 16 17  1  0
 17 18  2  0
 17 19  1  0
 19 20  1  0
 19 35  1  0
 20 21  1  0
 21 22  1  0
 22 23  1  0
 23 24  1  1
 23 35  1  0
 24 25  1  0
 25 26  2  0
 25 27  1  0
 27 28  1  0
 28 29  1  0
 29 30  2  0
 29 34  1  0
 30 31  1  0
 31 32  2  0
 32 33  1  0
 33 34  2  0
 36 37  1  0
 36 44  2  0
 37 38  1  0
 39 38  1  6
 39 40  1  0
 39 43  1  0
 40 41  1  0
 41 42  1  0
 42 43  1  0
 45 46  2  0
 46 47  1  0
M  END
