
     RDKit          3D

 47 50  0  0  0  0  0  0  0  0999 V2000
   -7.1500    2.8600    0.8670 C   0  0  0  0  0  0  0  0  0  0  0  0
   -7.2850    1.6270    0.2330 O   0  0  0  0  0  0  0  0  0  0  0  0
   -8.0140    0.5570    0.7090 C   0  0  0  0  0  0  0  0  0  0  0  0
   -8.6640    0.7590    1.9350 C   0  0  0  0  0  0  0  0  0  0  0  0
   -9.4060   -0.2750    2.4570 C   0  0  0  0  0  0  0  0  0  0  0  0
   -9.5240   -1.4850    1.8110 C   0  0  0  0  0  0  0  0  0  0  0  0
   -8.8620   -1.6470    0.5920 C   0  0  0  0  0  0  0  0  0  0  0  0
   -8.1100   -0.6330    0.0410 C   0  0  0  0  0  0  0  0  0  0  0  0
   -7.4670   -0.8470   -1.1840 N   0  0  0  0  0  0  0  0  0  0  0  0
   -8.1270   -1.2450   -2.3950 C   0  0  0  0  0  0  0  0  0  0  0  0
   -8.4980   -0.1080   -3.2780 C   0  0  1  0  0  0  0  0  0  0  0  0
   -9.1070   -0.6290   -4.4580 O   0  0  0  0  0  0  0  0  0  0  0  0
   -9.5200    0.7820   -2.5930 C   0  0  0  0  0  0  0  0  0  0  0  0
  -10.6260    0.0380   -2.2340 O   0  0  0  0  0  0  0  0  0  0  0  0
   -6.0140   -0.7340   -1.2260 C   0  0  0  0  0  0  0  0  0  0  0  0
   -5.5660   -0.7740   -2.3890 O   0  0  0  0  0  0  0  0  0  0  0  0
   -5.2970   -0.6000   -0.0070 C   0  0  0  0  0  0  0  0  0  0  0  0
   -4.1190   -0.4350    0.4090 C   0  0  0  0  0  0  0  0  0  0  0  0
   -2.7950   -0.2730   -0.1090 C   0  0  0  0  0  0  0  0  0  0  0  0
   -1.7170   -0.5700    0.7660 C   0  0  0  0  0  0  0  0  0  0  0  0
   -0.4090   -0.3860    0.4190 C   0  0  0  0  0  0  0  0  0  0  0  0
    0.6650   -0.7140    1.3540 C   0  0  0  0  0  0  0  0  0  0  0  0
    1.9430   -0.5510    1.1320 C   0  0  0  0  0  0  0  0  0  0  0  0
    2.8860   -0.9340    2.1800 C   0  0  0  0  0  0  0  0  0  0  0  0
    4.1720   -0.7770    1.9900 C   0  0  0  0  0  0  0  0  0  0  0  0
    5.0920   -1.1610    3.0370 C   0  0  0  0  0  0  0  0  0  0  0  0
    4.6490   -1.6520    4.1260 O   0  0  0  0  0  0  0  0  0  0  0  0
    6.4750   -1.0080    2.8890 N   0  0  0  0  0  0  0  0  0  0  0  0
    7.0250   -0.4350    1.7000 C   0  0  0  0  0  0  0  0  0  0  0  0
    7.1840    0.9410    1.5750 C   0  0  0  0  0  0  0  0  0  0  0  0
    7.7330    1.4730    0.4300 C   0  0  0  0  0  0  0  0  0  0  0  0
    8.1450    0.7080   -0.6300 C   0  0  0  0  0  0  0  0  0  0  0  0
    8.7260    1.3480   -1.8000 C   0  0  0  0  0  0  0  0  0  0  0  0
    8.8420    2.6180   -1.8310 O   0  0  0  0  0  0  0  0  0  0  0  0
    9.2110    0.6430   -2.9960 C   0  0  2  0  0  0  0  0  0  0  0  0
   10.6310    1.0760   -3.3850 C   0  0  0  0  0  0  0  0  0  0  0  0
    9.4650    1.3350   -4.2660 C   0  0  0  0  0  0  0  0  0  0  0  0
    7.9910   -0.6530   -0.5180 C   0  0  0  0  0  0  0  0  0  0  0  0
    7.4400   -1.1980    0.6290 C   0  0  0  0  0  0  0  0  0  0  0  0
    7.3730   -1.4410    3.9600 C   0  0  2  0  0  0  0  0  0  0  0  0
    8.1440   -0.2620    4.5220 C   0  0  0  0  0  0  0  0  0  0  0  0
    8.3920   -2.4250    3.4620 C   0  0  0  0  0  0  0  0  0  0  0  0
   -0.1620    0.1100   -0.8390 C   0  0  0  0  0  0  0  0  0  0  0  0
   -1.1590    0.3990   -1.6800 N   0  0  0  0  0  0  0  0  0  0  0  0
   -0.8770    0.9200   -3.0050 C   0  0  0  0  0  0  0  0  0  0  0  0
   -2.4690    0.2210   -1.3470 C   0  0  0  0  0  0  0  0  0  0  0  0
   -3.3140    0.5350   -2.2120 O   0  0  0  0  0  0  0  0  0  0  0  0
  1  2  1  0
  2  3  1  0
  3  4  2  0
  3  8  1  0
  4  5  1  0
  5  6  2  0
  6  7  1  0
  7  8  2  0
  8  9  1  0
  9 10  1  0
  9 15  1  0
 10 11  1  0
 11 12  1  6
 11 13  1  0
 13 14  1  0
 15 16  2  0
 15 17  1  0
 17 18  2  3
 18 19  1  0
 19 20  2  0
 19 46  1  0
 20 21  1  0
 21 22  1  0
 21 43  2  0
 22 23  2  3
 23 24  1  0
 24 25  2  3
 25 26  1  0
 26 27  2  0
 26 28  1  0
 28 29  1  0
 28 40  1  0
 29 30  2  0
 29 39  1  0
 30 31  1  0
 31 32  2  0
 32 33  1  0
 32 38  1  0
 33 34  2  0
 35 33  1  1
 35 36  1  0
 35 37  1  0
 36 37  1  0
 38 39  2  0
 40 41  1  6
 40 42  1  0
 43 44  1  0
 44 45  1  0
 44 46  1  0
 46 47  2  0
M  END
