
     RDKit          3D

 34 36  0  0  0  0  0  0  0  0999 V2000
   11.4970   -1.0930    0.2870 C   0  0  0  0  0  0  0  0  0  0  0  0
   10.4600   -0.1390    0.6750 N   0  0  0  0  0  0  0  0  0  0  0  0
    9.6410    0.2520   -0.4430 C   0  0  0  0  0  0  0  0  0  0  0  0
    8.4940   -0.6970   -0.6730 C   0  0  0  0  0  0  0  0  0  0  0  0
    7.6010   -0.8040    0.4400 N   0  0  0  0  0  0  0  0  0  0  0  0
    7.0320    0.4500    0.8680 C   0  0  0  0  0  0  0  0  0  0  0  0
    5.5620    0.3660    0.6820 C   0  0  0  0  0  0  0  0  0  0  0  0
    4.9230    0.7600   -0.4630 C   0  0  0  0  0  0  0  0  0  0  0  0
    3.5410    0.6590   -0.5830 C   0  0  0  0  0  0  0  0  0  0  0  0
    2.7580    0.1610    0.4380 C   0  0  0  0  0  0  0  0  0  0  0  0
    1.3790    0.0670    0.2990 O   0  0  0  0  0  0  0  0  0  0  0  0
    0.5100    1.0650    0.6660 C   0  0  0  0  0  0  0  0  0  0  0  0
    0.9800    2.1170    1.1520 O   0  0  0  0  0  0  0  0  0  0  0  0
   -0.9810    0.9410    0.5060 C   0  0  0  0  0  0  0  0  0  0  0  0
   -1.3130   -0.3050   -0.0590 O   0  0  0  0  0  0  0  0  0  0  0  0
   -2.6530   -0.5850   -0.2750 C   0  0  0  0  0  0  0  0  0  0  0  0
   -3.6540    0.2950    0.0390 C   0  0  0  0  0  0  0  0  0  0  0  0
   -5.0240    0.0370   -0.1690 C   0  0  0  0  0  0  0  0  0  0  0  0
   -5.9300    1.0510    0.2220 C   0  0  0  0  0  0  0  0  0  0  0  0
   -5.3840    2.1060    0.7890 O   0  0  0  0  0  0  0  0  0  0  0  0
   -7.3150    1.1270    0.1080 N   0  0  0  0  0  0  0  0  0  0  0  0
   -8.0190    2.3440    0.6330 C   0  0  0  0  0  0  0  0  0  0  0  0
   -9.0880    1.8290    1.5560 C   0  0  0  0  0  0  0  0  0  0  0  0
  -10.1590    1.1500    0.7150 C   0  0  1  0  0  0  0  0  0  0  0  0
  -11.1640    2.0870    0.4810 O   0  0  0  0  0  0  0  0  0  0  0  0
   -9.6110    0.7160   -0.6120 C   0  0  0  0  0  0  0  0  0  0  0  0
   -8.1720    0.1640   -0.4760 C   0  0  0  0  0  0  0  0  0  0  0  0
   -5.3620   -1.1760   -0.7210 C   0  0  0  0  0  0  0  0  0  0  0  0
   -4.3570   -2.0830   -1.0460 C   0  0  0  0  0  0  0  0  0  0  0  0
   -3.0340   -1.7900   -0.8260 C   0  0  0  0  0  0  0  0  0  0  0  0
   -2.0210   -2.6950   -1.1500 O   0  0  0  0  0  0  0  0  0  0  0  0
   -2.3870   -3.9350   -1.7170 C   0  0  0  0  0  0  0  0  0  0  0  0
    3.4230   -0.2290    1.5810 C   0  0  0  0  0  0  0  0  0  0  0  0
    4.7940   -0.1340    1.7130 C   0  0  0  0  0  0  0  0  0  0  0  0
  1  2  1  0
  2  3  1  0
  3  4  1  0
  4  5  1  0
  5  6  1  0
  6  7  1  0
  7  8  2  0
  7 34  1  0
  8  9  1  0
  9 10  2  0
 10 11  1  0
 10 33  1  0
 11 12  1  0
 12 13  2  0
 12 14  1  0
 14 15  1  0
 15 16  1  0
 16 17  2  0
 16 30  1  0
 17 18  1  0
 18 19  1  0
 18 28  2  0
 19 20  2  0
 19 21  1  0
 21 22  1  0
 21 27  1  0
 22 23  1  0
 23 24  1  0
 24 25  1  6
 24 26  1  0
 26 27  1  0
 28 29  1  0
 29 30  2  0
 30 31  1  0
 31 32  1  0
 33 34  2  0
M  CHG  2   2   1   5   1
M  END
