
     RDKit          3D

 34 35  0  0  0  0  0  0  0  0999 V2000
   -4.7340   -2.2570    1.7900 C   0  0  0  0  0  0  0  0  0  0  0  0
   -4.8230   -0.8910    1.5350 C   0  0  0  0  0  0  0  0  0  0  0  0
   -5.9720   -0.6030    0.6430 O   0  0  0  0  0  0  0  0  0  0  0  0
   -6.4790    0.7360    0.5860 C   0  0  0  0  0  0  0  0  0  0  0  0
   -7.9300    0.8680    0.5600 C   0  0  0  0  0  0  0  0  0  0  0  0
   -5.8000    1.8730    0.5580 C   0  0  0  0  0  0  0  0  0  0  0  0
   -6.4050    3.0960    0.5030 O   0  0  0  0  0  0  0  0  0  0  0  0
   -6.0130    4.1450    1.3560 C   0  0  0  0  0  0  0  0  0  0  0  0
   -4.2980    1.9090    0.5810 C   0  0  0  0  0  0  0  0  0  0  0  0
   -3.7720    2.9230    0.0410 O   0  0  0  0  0  0  0  0  0  0  0  0
   -3.4340    0.9870    1.1060 N   0  0  0  0  0  0  0  0  0  0  0  0
   -2.0300    0.8570    0.8820 C   0  0  0  0  0  0  0  0  0  0  0  0
   -1.8700    0.2330   -0.5370 C   0  0  0  0  0  0  0  0  0  0  0  0
   -0.5270   -0.2370   -0.8910 C   0  0  0  0  0  0  0  0  0  0  0  0
    0.6900    0.5640   -0.8070 C   0  0  1  0  0  0  0  0  0  0  0  0
    1.1600    1.0260    0.5440 C   0  0  0  0  0  0  0  0  0  0  0  0
    1.7080    0.2740   -1.7410 N   0  0  0  0  0  0  0  0  0  0  0  0
    2.4130   -0.9180   -1.8610 C   0  0  0  0  0  0  0  0  0  0  0  0
    3.3570   -1.3480   -0.8280 C   0  0  0  0  0  0  0  0  0  0  0  0
    2.9800   -1.9860    0.4190 C   0  0  0  0  0  0  0  0  0  0  0  0
    3.8910   -2.4960    1.1460 O   0  0  0  0  0  0  0  0  0  0  0  0
    1.6790   -2.1100    0.9120 O   0  0  0  0  0  0  0  0  0  0  0  0
    1.5780   -2.8160    2.1680 C   0  0  0  0  0  0  0  0  0  0  0  0
    4.6550   -1.3170   -1.1270 C   0  0  0  0  0  0  0  0  0  0  0  0
    5.7450   -1.7000   -0.2030 C   0  0  0  0  0  0  0  0  0  0  0  0
    5.1410   -0.9510   -2.4450 N   0  0  0  0  0  0  0  0  0  0  0  0
    5.6890   -1.9690   -3.3600 C   0  0  0  0  0  0  0  0  0  0  0  0
    7.0150   -1.2660   -3.6780 C   0  0  0  0  0  0  0  0  0  0  0  0
    6.5880    0.1980   -3.8640 C   0  0  0  0  0  0  0  0  0  0  0  0
    5.2640    0.2990   -3.1180 C   0  0  0  0  0  0  0  0  0  0  0  0
   -3.9320   -0.2800    2.1220 C   0  0  0  0  0  0  0  0  0  0  0  0
   -2.7730   -0.1460    2.8450 C   0  0  0  0  0  0  0  0  0  0  0  0
   -2.2240    1.1090    3.3120 C   0  0  0  0  0  0  0  0  0  0  0  0
   -2.9380    2.2580    2.9930 O   0  0  0  0  0  0  0  0  0  0  0  0
  1  2  2  0
  2  3  1  0
  2 31  1  0
  3  4  1  0
  4  5  1  0
  4  6  2  0
  6  7  1  0
  6  9  1  0
  7  8  1  0
  9 10  2  0
  9 11  1  0
 11 12  1  0
 11 31  1  0
 12 13  1  0
 13 14  1  0
 14 15  1  0
 15 16  1  1
 15 17  1  0
 17 18  1  0
 18 19  1  0
 19 20  1  0
 19 24  2  3
 20 21  2  0
 20 22  1  0
 22 23  1  0
 24 25  1  0
 24 26  1  0
 26 27  1  0
 26 30  1  0
 27 28  1  0
 28 29  1  0
 29 30  1  0
 31 32  2  3
 32 33  1  0
 33 34  1  0
M  CHG  1  17   1
M  END
