
     RDKit          3D

 34 36  0  0  0  0  0  0  0  0999 V2000
   -6.2290    3.6990    0.7480 C   0  0  0  0  0  0  0  0  0  0  0  0
   -5.9630    2.6390   -0.3120 C   0  0  0  0  0  0  0  0  0  0  0  0
   -4.6690    2.9000   -0.8840 N   0  0  0  0  0  0  0  0  0  0  0  0
   -3.6240    2.0760   -0.3230 C   0  0  0  0  0  0  0  0  0  0  0  0
   -3.1990    1.0430   -1.2890 C   0  0  1  0  0  0  0  0  0  0  0  0
   -2.1390    0.1840   -0.8020 N   0  0  0  0  0  0  0  0  0  0  0  0
   -1.9210    0.1870    0.6030 C   0  0  1  0  0  0  0  0  0  0  0  0
   -2.8090   -0.6740    1.4230 C   0  0  0  0  0  0  0  0  0  0  0  0
   -2.0640   -1.6830    2.2700 C   0  0  0  0  0  0  0  0  0  0  0  0
   -1.0680   -2.3540    1.2800 C   0  0  0  0  0  0  0  0  0  0  0  0
    0.0010   -1.3640    1.1490 C   0  0  0  0  0  0  0  0  0  0  0  0
   -0.4570   -0.0760    0.8150 C   0  0  0  0  0  0  0  0  0  0  0  0
    0.4710    0.9370    0.6780 C   0  0  0  0  0  0  0  0  0  0  0  0
    1.8160    0.6990    0.8630 C   0  0  0  0  0  0  0  0  0  0  0  0
    2.2730   -0.5480    1.1870 C   0  0  0  0  0  0  0  0  0  0  0  0
    3.6160   -0.8390    1.3830 O   0  0  0  0  0  0  0  0  0  0  0  0
    4.6240    0.1580    1.2580 C   0  0  0  0  0  0  0  0  0  0  0  0
    5.9620   -0.3740    1.5080 C   0  0  0  0  0  0  0  0  0  0  0  0
    6.9370   -0.3690    0.6670 C   0  0  0  0  0  0  0  0  0  0  0  0
    6.9300    0.1520   -0.6830 C   0  0  0  0  0  0  0  0  0  0  0  0
    8.0290    0.1280   -1.5510 C   0  0  0  0  0  0  0  0  0  0  0  0
    7.6710    0.6770   -2.6760 O   0  0  0  0  0  0  0  0  0  0  0  0
    6.4270    1.0680   -2.6400 C   0  0  0  0  0  0  0  0  0  0  0  0
    5.6930    1.7320   -3.7460 C   0  0  0  0  0  0  0  0  0  0  0  0
    5.9760    0.7440   -1.4170 N   0  0  0  0  0  0  0  0  0  0  0  0
    1.3260   -1.6000    1.3310 C   0  0  0  0  0  0  0  0  0  0  0  0
    1.8330   -2.9180    1.6660 C   0  0  0  0  0  0  0  0  0  0  0  0
    1.1010   -3.9010    1.8040 O   0  0  0  0  0  0  0  0  0  0  0  0
    3.2170   -3.0970    1.8450 O   0  0  0  0  0  0  0  0  0  0  0  0
    3.6950   -4.3890    2.1730 C   0  0  0  0  0  0  0  0  0  0  0  0
   -4.3310    0.2620   -1.8080 C   0  0  0  0  0  0  0  0  0  0  0  0
   -5.3690    0.7220   -2.3300 O   0  0  0  0  0  0  0  0  0  0  0  0
   -4.3070   -1.1540   -1.7430 O   0  0  0  0  0  0  0  0  0  0  0  0
   -5.3690   -1.9410   -2.2290 C   0  0  0  0  0  0  0  0  0  0  0  0
  1  2  1  0
  2  3  1  0
  3  4  1  0
  5  4  1  1
  5  6  1  0
  5 31  1  0
  7  6  1  6
  7  8  1  0
  7 12  1  0
  8  9  1  0
  9 10  1  0
 10 11  1  0
 11 12  2  0
 11 26  1  0
 12 13  1  0
 13 14  2  0
 14 15  1  0
 15 16  1  0
 15 26  2  0
 16 17  1  0
 17 18  1  0
 18 19  2  3
 19 20  1  0
 20 21  2  0
 20 25  1  0
 21 22  1  0
 22 23  1  0
 23 24  1  0
 23 25  2  0
 26 27  1  0
 27 28  2  0
 27 29  1  0
 29 30  1  0
 31 32  2  0
 31 33  1  0
 33 34  1  0
M  CHG  2   3   1   6   1
M  END
