
     RDKit          3D

 47 51  0  0  0  0  0  0  0  0999 V2000
   -3.6120    3.9210    0.8800 C   0  0  0  0  0  0  0  0  0  0  0  0
   -4.0240    4.4960   -0.4340 C   0  0  0  0  0  0  0  0  0  0  0  0
   -3.4940    3.7030   -1.5750 C   0  0  0  0  0  0  0  0  0  0  0  0
   -4.0120    2.3300   -1.7000 C   0  0  0  0  0  0  0  0  0  0  0  0
   -3.8280    1.3540   -0.6930 N   0  0  0  0  0  0  0  0  0  0  0  0
   -2.6330    0.5630   -0.7300 C   0  0  0  0  0  0  0  0  0  0  0  0
   -1.6800    0.9010   -1.5190 O   0  0  0  0  0  0  0  0  0  0  0  0
   -2.4030   -0.5920    0.0450 N   0  0  0  0  0  0  0  0  0  0  0  0
   -1.2590   -1.4070    0.0750 C   0  0  0  0  0  0  0  0  0  0  0  0
   -1.3550   -2.6770   -0.2480 C   0  0  0  0  0  0  0  0  0  0  0  0
   -2.5130   -3.4240   -0.6560 C   0  0  0  0  0  0  0  0  0  0  0  0
   -2.7900   -4.5820    0.0940 C   0  0  0  0  0  0  0  0  0  0  0  0
   -3.8560   -5.3590   -0.2800 C   0  0  0  0  0  0  0  0  0  0  0  0
   -4.6420   -5.0290   -1.3580 C   0  0  0  0  0  0  0  0  0  0  0  0
   -4.3610   -3.8880   -2.0890 C   0  0  0  0  0  0  0  0  0  0  0  0
   -3.2830   -3.0630   -1.7460 C   0  0  0  0  0  0  0  0  0  0  0  0
   -3.0080   -1.9320   -2.4820 O   0  0  0  0  0  0  0  0  0  0  0  0
   -3.7350   -1.4950   -3.5950 C   0  0  0  0  0  0  0  0  0  0  0  0
    0.0600   -0.8520    0.4830 C   0  0  0  0  0  0  0  0  0  0  0  0
    0.1850    0.4610    0.8630 C   0  0  0  0  0  0  0  0  0  0  0  0
    1.4080    0.9950    1.2370 C   0  0  0  0  0  0  0  0  0  0  0  0
    2.5120    0.1340    1.2120 C   0  0  0  0  0  0  0  0  0  0  0  0
    3.7950    0.6640    1.6310 C   0  0  0  0  0  0  0  0  0  0  0  0
    4.8390   -0.0420    1.6780 O   0  0  0  0  0  0  0  0  0  0  0  0
    4.0190    2.0770    2.0450 C   0  0  0  0  0  0  0  0  0  0  0  0
    4.6690    2.8250    0.8980 C   0  0  0  0  0  0  0  0  0  0  0  0
    4.9360    4.2670    1.2650 C   0  0  2  0  0  0  0  0  0  0  0  0
    5.5900    5.0240    0.1430 C   0  0  0  0  0  0  0  0  0  0  0  0
    6.7670    5.6790    0.7660 C   0  0  0  0  0  0  0  0  0  0  0  0
    6.6800    5.5310    2.1390 O   0  0  0  0  0  0  0  0  0  0  0  0
    5.9460    4.3840    2.3770 C   0  0  0  0  0  0  0  0  0  0  0  0
    2.4000   -1.1880    0.8320 C   0  0  0  0  0  0  0  0  0  0  0  0
    3.4930   -2.0970    0.7520 N   0  0  0  0  0  0  0  0  0  0  0  0
    3.2820   -3.4780    0.3810 C   0  0  0  0  0  0  0  0  0  0  0  0
    2.1240   -3.8550    0.1560 O   0  0  0  0  0  0  0  0  0  0  0  0
    4.4420   -4.4140    0.2790 C   0  0  2  0  0  0  0  0  0  0  0  0
    5.3960   -3.9730   -0.7990 C   0  0  0  0  0  0  0  0  0  0  0  0
    5.7120   -5.3140   -1.4670 C   0  0  0  0  0  0  0  0  0  0  0  0
    4.4890   -6.1390   -1.1840 C   0  0  0  0  0  0  0  0  0  0  0  0
    3.9690   -5.6500   -0.0270 O   0  0  0  0  0  0  0  0  0  0  0  0
    1.1450   -1.6210    0.4790 N   0  0  0  0  0  0  0  0  0  0  0  0
   -4.8070    1.0360    0.2680 C   0  0  0  0  0  0  0  0  0  0  0  0
   -6.1290    0.8650   -0.1370 C   0  0  0  0  0  0  0  0  0  0  0  0
   -7.1460    0.5360    0.7120 C   0  0  0  0  0  0  0  0  0  0  0  0
   -6.8940    0.3560    2.0510 C   0  0  0  0  0  0  0  0  0  0  0  0
   -5.6030    0.5170    2.4870 C   0  0  0  0  0  0  0  0  0  0  0  0
   -4.5850    0.8500    1.6170 C   0  0  0  0  0  0  0  0  0  0  0  0
  1  2  1  0
  2  3  1  0
  3  4  1  0
  4  5  1  0
  5  6  1  0
  5 42  1  0
  6  7  2  0
  6  8  1  0
  8  9  1  0
  9 10  2  3
  9 19  1  0
 10 11  1  0
 11 12  2  0
 11 16  1  0
 12 13  1  0
 13 14  2  0
 14 15  1  0
 15 16  2  0
 16 17  1  0
 17 18  1  0
 19 20  2  0
 19 41  1  0
 20 21  1  0
 21 22  2  0
 22 23  1  0
 22 32  1  0
 23 24  2  0
 23 25  1  0
 25 26  1  0
 27 26  1  6
 27 28  1  0
 27 31  1  0
 28 29  1  0
 29 30  1  0
 30 31  1  0
 32 33  1  0
 32 41  2  0
 33 34  1  0
 34 35  2  0
 36 34  1  6
 36 37  1  0
 36 40  1  0
 37 38  1  0
 38 39  1  0
 39 40  1  0
 42 43  2  0
 42 47  1  0
 43 44  1  0
 44 45  2  0
 45 46  1  0
 46 47  2  0
M  END
