
     RDKit          3D

 36 39  0  0  0  0  0  0  0  0999 V2000
   -6.9860   -1.2530   -1.6510 C   0  0  0  0  0  0  0  0  0  0  0  0
   -5.6220   -1.0780   -1.2060 N   0  0  0  0  0  0  0  0  0  0  0  0
   -5.1530   -1.8870   -0.2440 C   0  0  0  0  0  0  0  0  0  0  0  0
   -6.0580   -2.9200    0.3130 C   0  0  2  0  0  0  0  0  0  0  0  0
   -5.9030   -3.3540    1.7330 C   0  0  0  0  0  0  0  0  0  0  0  0
   -5.3700   -4.2110    0.6560 C   0  0  0  0  0  0  0  0  0  0  0  0
   -3.8680   -1.7900    0.2380 C   0  0  0  0  0  0  0  0  0  0  0  0
   -2.9760   -0.8210   -0.2660 C   0  0  0  0  0  0  0  0  0  0  0  0
   -1.6220   -0.8120    0.2110 C   0  0  0  0  0  0  0  0  0  0  0  0
   -1.2680   -1.9660    0.7640 O   0  0  0  0  0  0  0  0  0  0  0  0
   -0.6250    0.1850    0.1970 N   0  0  0  0  0  0  0  0  0  0  0  0
    0.7190   -0.3070    0.6530 C   0  0  0  0  0  0  0  0  0  0  0  0
    1.4070   -0.8740   -0.5500 C   0  0  0  0  0  0  0  0  0  0  0  0
    2.7620   -1.3950   -0.1600 C   0  0  0  0  0  0  0  0  0  0  0  0
    3.6120   -0.2880    0.3900 C   0  0  0  0  0  0  0  0  0  0  0  0
    4.9420   -0.9230    0.7220 C   0  0  0  0  0  0  0  0  0  0  0  0
    5.9810   -0.1960    1.2540 C   0  0  0  0  0  0  0  0  0  0  0  0
    7.0100   -1.1150    1.4160 C   0  0  0  0  0  0  0  0  0  0  0  0
    6.5500   -2.3360    0.9800 C   0  0  0  0  0  0  0  0  0  0  0  0
    5.3190   -2.1660    0.5800 O   0  0  0  0  0  0  0  0  0  0  0  0
   -0.6930    1.5430   -0.0600 C   0  0  0  0  0  0  0  0  0  0  0  0
   -1.6630    2.2480   -0.4250 O   0  0  0  0  0  0  0  0  0  0  0  0
    0.5420    2.3680    0.1040 C   0  0  0  0  0  0  0  0  0  0  0  0
    1.4080    2.6100   -0.9290 C   0  0  0  0  0  0  0  0  0  0  0  0
    2.5340    3.4210   -0.6610 C   0  0  0  0  0  0  0  0  0  0  0  0
    3.4300    3.6650   -1.7520 C   0  0  0  0  0  0  0  0  0  0  0  0
    3.1200    3.0870   -2.9820 F   0  0  0  0  0  0  0  0  0  0  0  0
    4.5120    4.3800   -1.7050 C   0  0  0  0  0  0  0  0  0  0  0  0
    5.0000    5.0300   -0.6150 O   0  0  0  0  0  0  0  0  0  0  0  0
    2.7090    3.9220    0.6010 C   0  0  0  0  0  0  0  0  0  0  0  0
    1.8280    3.6640    1.6140 N   0  0  0  0  0  0  0  0  0  0  0  0
    0.7590    2.8940    1.3590 C   0  0  0  0  0  0  0  0  0  0  0  0
   -0.0770    2.6390    2.2910 O   0  0  0  0  0  0  0  0  0  0  0  0
   -3.4930   -0.0220   -1.2430 C   0  0  0  0  0  0  0  0  0  0  0  0
   -4.8170   -0.1410   -1.7210 C   0  0  0  0  0  0  0  0  0  0  0  0
   -5.2230    0.6330   -2.6220 O   0  0  0  0  0  0  0  0  0  0  0  0
  1  2  1  0
  2  3  1  0
  2 35  1  0
  4  3  1  1
  3  7  2  0
  4  5  1  0
  4  6  1  0
  5  6  1  0
  7  8  1  0
  8  9  1  0
  8 34  2  0
  9 10  2  0
  9 11  1  0
 11 12  1  0
 11 21  1  0
 12 13  1  0
 13 14  1  0
 14 15  1  0
 15 16  1  0
 16 17  2  0
 16 20  1  0
 17 18  1  0
 18 19  2  0
 19 20  1  0
 21 22  2  0
 21 23  1  0
 23 24  2  0
 23 32  1  0
 24 25  1  0
 25 26  1  0
 25 30  2  0
 26 27  1  0
 26 28  2  3
 28 29  1  0
 30 31  1  0
 31 32  1  0
 32 33  2  0
 34 35  1  0
 35 36  2  0
M  END
