
     RDKit          3D

 36 39  0  0  0  0  0  0  0  0999 V2000
   -7.9220    3.2870   -0.1420 C   0  0  0  0  0  0  0  0  0  0  0  0
   -6.5630    2.6780    0.1610 C   0  0  0  0  0  0  0  0  0  0  0  0
   -6.2800    1.5090   -0.5000 C   0  0  0  0  0  0  0  0  0  0  0  0
   -5.0050    0.8970   -0.3030 C   0  0  0  0  0  0  0  0  0  0  0  0
   -4.8320   -0.2940   -1.0260 O   0  0  0  0  0  0  0  0  0  0  0  0
   -4.7770   -1.4640   -0.1760 C   0  0  1  0  0  0  0  0  0  0  0  0
   -6.3690   -1.5280    0.1860 C   0  0  0  0  0  0  0  0  0  0  0  0
   -4.5820   -2.7320   -0.9140 C   0  0  0  0  0  0  0  0  0  0  0  0
   -4.0890    1.4400    0.4890 C   0  0  0  0  0  0  0  0  0  0  0  0
   -2.6820    0.9690    0.4400 C   0  0  0  0  0  0  0  0  0  0  0  0
   -2.1820    0.3140   -0.6300 N   0  0  0  0  0  0  0  0  0  0  0  0
   -0.8100    0.1450   -0.5400 C   0  0  0  0  0  0  0  0  0  0  0  0
   -0.0020   -0.3630   -1.6310 C   0  0  0  0  0  0  0  0  0  0  0  0
    1.1390   -0.7950   -1.8840 C   0  0  0  0  0  0  0  0  0  0  0  0
    2.3300   -1.0420   -1.1490 C   0  0  0  0  0  0  0  0  0  0  0  0
    3.4310   -1.2510   -1.7940 O   0  0  0  0  0  0  0  0  0  0  0  0
    2.4080   -1.0800    0.2970 N   0  0  0  0  0  0  0  0  0  0  0  0
    3.6720   -1.1490    0.9870 C   0  0  0  0  0  0  0  0  0  0  0  0
    4.8060   -1.7800    0.3370 C   0  0  0  0  0  0  0  0  0  0  0  0
    4.9970   -3.0300   -0.1360 C   0  0  0  0  0  0  0  0  0  0  0  0
    6.2660   -3.4000   -0.6070 C   0  0  0  0  0  0  0  0  0  0  0  0
    6.4150   -4.5920   -1.0380 O   0  0  0  0  0  0  0  0  0  0  0  0
    7.2910   -2.5820   -0.6220 O   0  0  0  0  0  0  0  0  0  0  0  0
    7.1600   -1.3330   -0.1740 C   0  0  0  0  0  0  0  0  0  0  0  0
    5.9590   -0.9330    0.3050 C   0  0  0  0  0  0  0  0  0  0  0  0
    5.8390    0.3530    0.8050 O   0  0  0  0  0  0  0  0  0  0  0  0
    6.7730    1.3560    0.7250 C   0  0  0  0  0  0  0  0  0  0  0  0
    8.0800    0.9170    0.2010 C   0  0  0  0  0  0  0  0  0  0  0  0
    9.1070    1.9200   -0.0290 C   0  0  0  0  0  0  0  0  0  0  0  0
    8.9360    3.1230    0.3580 O   0  0  0  0  0  0  0  0  0  0  0  0
    8.2250   -0.3600   -0.2040 C   0  0  0  0  0  0  0  0  0  0  0  0
   -0.5050    0.7280    0.6560 C   0  0  0  0  0  0  0  0  0  0  0  0
   -1.6540    1.2200    1.2320 N   0  0  0  0  0  0  0  0  0  0  0  0
   -4.4120    2.6220    1.1440 C   0  0  0  0  0  0  0  0  0  0  0  0
   -5.6360    3.2420    0.9920 C   0  0  0  0  0  0  0  0  0  0  0  0
   -5.9850    4.3940    1.6160 F   0  0  0  0  0  0  0  0  0  0  0  0
  1  2  1  0
  2  3  2  0
  2 35  1  0
  3  4  1  0
  4  5  1  0
  4  9  2  0
  5  6  1  0
  6  7  1  6
  6  8  1  0
  9 10  1  0
  9 34  1  0
 10 11  2  0
 10 33  1  0
 11 12  1  0
 12 13  1  0
 12 32  2  0
 13 14  2  3
 14 15  1  0
 15 16  2  0
 15 17  1  0
 17 18  1  0
 18 19  1  0
 19 20  2  0
 19 25  1  0
 20 21  1  0
 21 22  2  0
 21 23  1  0
 23 24  1  0
 24 25  2  0
 24 31  1  0
 25 26  1  0
 26 27  1  0
 27 28  1  0
 28 29  1  0
 28 31  2  0
 29 30  2  0
 32 33  1  0
 34 35  2  0
 35 36  1  0
M  END
