
     RDKit          3D

 36 39  0  0  0  0  0  0  0  0999 V2000
    6.5240    3.0230    0.1390 C   0  0  0  0  0  0  0  0  0  0  0  0
    7.2820    2.5370   -1.0310 O   0  0  0  0  0  0  0  0  0  0  0  0
    6.7820    1.3460   -1.5750 C   0  0  0  0  0  0  0  0  0  0  0  0
    5.6680    0.7370   -1.0460 C   0  0  0  0  0  0  0  0  0  0  0  0
    5.1080   -0.4480   -1.5450 C   0  0  0  0  0  0  0  0  0  0  0  0
    4.0450   -1.1810   -1.0380 N   0  0  0  0  0  0  0  0  0  0  0  0
    3.4290   -1.0680    0.1980 C   0  0  0  0  0  0  0  0  0  0  0  0
    4.1820   -0.7380    1.3320 C   0  0  0  0  0  0  0  0  0  0  0  0
    5.5860   -0.8640    1.3860 C   0  0  0  0  0  0  0  0  0  0  0  0
    6.8310   -0.9600    1.4190 N   0  0  0  0  0  0  0  0  0  0  0  0
    3.4970   -0.5960    2.5700 C   0  0  0  0  0  0  0  0  0  0  0  0
    2.1360   -0.8030    2.5700 N   0  0  0  0  0  0  0  0  0  0  0  0
    1.4660   -1.1210    1.5020 C   0  0  0  0  0  0  0  0  0  0  0  0
    0.1230   -1.5250    1.6390 C   0  0  0  0  0  0  0  0  0  0  0  0
   -0.5780   -2.0470    0.5980 C   0  0  0  0  0  0  0  0  0  0  0  0
   -1.8970   -2.4090    0.7050 O   0  0  0  0  0  0  0  0  0  0  0  0
   -2.7340   -2.1120    1.8220 C   0  0  0  0  0  0  0  0  0  0  0  0
   -2.8420   -0.5440    1.7430 C   0  0  0  0  0  0  0  0  0  0  0  0
   -3.2860   -0.2900    0.3100 C   0  0  0  0  0  0  0  0  0  0  0  0
   -3.4710    1.0700   -0.0770 N   0  0  2  0  0  0  0  0  0  0  0  0
   -3.6210    2.0260    0.9750 C   0  0  0  0  0  0  0  0  0  0  0  0
   -5.0000    2.2970    1.4210 C   0  0  0  0  0  0  0  0  0  0  0  0
   -6.0670    2.1610    0.4840 N   0  0  2  0  0  0  0  0  0  0  0  0
   -7.3100    1.9660    1.2710 C   0  0  0  0  0  0  0  0  0  0  0  0
   -5.9050    0.9960   -0.3250 C   0  0  0  0  0  0  0  0  0  0  0  0
   -4.5690    1.0870   -1.0160 C   0  0  0  0  0  0  0  0  0  0  0  0
   -0.0020   -2.2290   -0.7060 C   0  0  0  0  0  0  0  0  0  0  0  0
   -0.8040   -2.7500   -1.5730 O   0  0  0  0  0  0  0  0  0  0  0  0
   -1.1510   -3.1420   -2.7750 C   0  0  0  0  0  0  0  0  0  0  0  0
    1.3220   -1.7960   -0.7660 C   0  0  0  0  0  0  0  0  0  0  0  0
    2.0390   -1.2770    0.2560 C   0  0  0  0  0  0  0  0  0  0  0  0
    5.7930   -0.9660   -2.6810 C   0  0  0  0  0  0  0  0  0  0  0  0
    5.1150   -2.4060   -3.4710 Cl  0  0  0  0  0  0  0  0  0  0  0  0
    6.8980   -0.3520   -3.2010 C   0  0  0  0  0  0  0  0  0  0  0  0
    7.4330    0.7740   -2.7000 C   0  0  0  0  0  0  0  0  0  0  0  0
    8.8820    1.5350   -3.3050 Cl  0  0  0  0  0  0  0  0  0  0  0  0
  1  2  1  0
  2  3  1  0
  3  4  2  0
  3 35  1  0
  4  5  1  0
  5  6  1  0
  5 32  2  0
  6  7  1  0
  7  8  2  0
  7 31  1  0
  8  9  1  0
  8 11  1  0
  9 10  3  0
 11 12  2  0
 12 13  1  0
 13 14  2  0
 13 31  1  0
 14 15  1  0
 15 16  1  0
 15 27  2  0
 16 17  1  0
 17 18  1  0
 18 19  1  0
 20 19  1  1
 20 21  1  0
 20 26  1  0
 21 22  1  0
 22 23  1  0
 23 24  1  1
 23 25  1  0
 25 26  1  0
 27 28  1  0
 27 30  1  0
 28 29  1  0
 30 31  2  0
 32 33  1  0
 32 34  1  0
 34 35  2  0
 35 36  1  0
M  CHG  2  20   1  23   1
M  END
