
     RDKit          3D

 36 39  0  0  0  0  0  0  0  0999 V2000
   -4.2090   -3.0520    2.3360 C   0  0  0  0  0  0  0  0  0  0  0  0
   -4.8160   -1.9330    1.5500 C   0  0  0  0  0  0  0  0  0  0  0  0
   -6.1640   -1.9370    1.2420 N   0  0  0  0  0  0  0  0  0  0  0  0
   -6.4960   -0.8240    0.6130 C   0  0  0  0  0  0  0  0  0  0  0  0
   -7.8320   -0.4050    0.1270 C   0  0  0  0  0  0  0  0  0  0  0  0
   -8.7870   -1.1630    0.1490 O   0  0  0  0  0  0  0  0  0  0  0  0
   -7.9880    0.8750   -0.3380 O   0  0  0  0  0  0  0  0  0  0  0  0
   -9.1370    1.4960   -0.8050 C   0  0  0  0  0  0  0  0  0  0  0  0
   -8.7460    2.9890   -0.9600 C   0  0  0  0  0  0  0  0  0  0  0  0
   -9.8180    3.7390   -1.3700 F   0  0  0  0  0  0  0  0  0  0  0  0
   -5.3450   -0.0960    0.5080 C   0  0  0  0  0  0  0  0  0  0  0  0
   -5.2390    1.2240   -0.1800 C   0  0  0  0  0  0  0  0  0  0  0  0
   -4.2470   -0.7890    1.1050 C   0  0  0  0  0  0  0  0  0  0  0  0
   -2.9340   -0.1860    1.1130 C   0  0  0  0  0  0  0  0  0  0  0  0
   -2.9150    1.0560    1.5300 O   0  0  0  0  0  0  0  0  0  0  0  0
   -1.6560   -0.6890    0.7320 C   0  0  0  0  0  0  0  0  0  0  0  0
   -1.2090   -1.9520    0.9920 C   0  0  0  0  0  0  0  0  0  0  0  0
   -0.0150   -2.3510    0.4890 C   0  0  0  0  0  0  0  0  0  0  0  0
    0.7850   -1.5280   -0.2850 C   0  0  0  0  0  0  0  0  0  0  0  0
    1.9950   -2.0250   -0.7750 N   0  0  0  0  0  0  0  0  0  0  0  0
    2.7080   -1.5560   -1.9030 C   0  0  0  0  0  0  0  0  0  0  0  0
    3.8810   -0.7050   -1.6590 C   0  0  0  0  0  0  0  0  0  0  0  0
    4.5640   -0.3210   -2.6930 O   0  0  0  0  0  0  0  0  0  0  0  0
    4.3420   -0.2630   -0.4060 N   0  0  0  0  0  0  0  0  0  0  0  0
    5.5010    0.5190   -0.1800 C   0  0  0  0  0  0  0  0  0  0  0  0
    5.6090    1.5360    0.7500 C   0  0  0  0  0  0  0  0  0  0  0  0
    6.8030    2.1940    0.9470 C   0  0  0  0  0  0  0  0  0  0  0  0
    7.9330    1.8860    0.2460 C   0  0  0  0  0  0  0  0  0  0  0  0
    7.8560    0.8730   -0.6930 C   0  0  0  0  0  0  0  0  0  0  0  0
    6.6730    0.2170   -0.8920 C   0  0  0  0  0  0  0  0  0  0  0  0
    9.0450    0.6110   -1.3640 O   0  0  0  0  0  0  0  0  0  0  0  0
   10.2700    0.5880   -0.6580 C   0  0  0  0  0  0  0  0  0  0  0  0
   10.3780    1.7520    0.2610 C   0  0  0  0  0  0  0  0  0  0  0  0
    9.1700    2.4770    0.3690 O   0  0  0  0  0  0  0  0  0  0  0  0
    0.3400   -0.2560   -0.5470 C   0  0  0  0  0  0  0  0  0  0  0  0
   -0.8570    0.1820   -0.0570 C   0  0  0  0  0  0  0  0  0  0  0  0
  1  2  1  0
  2  3  1  0
  2 13  2  0
  3  4  1  0
  4  5  1  0
  4 11  2  0
  5  6  2  0
  5  7  1  0
  7  8  1  0
  8  9  1  0
  9 10  1  0
 11 12  1  0
 11 13  1  0
 13 14  1  0
 14 15  2  0
 14 16  1  0
 16 17  2  0
 16 36  1  0
 17 18  1  0
 18 19  2  0
 19 20  1  0
 19 35  1  0
 20 21  1  0
 21 22  1  0
 22 23  2  0
 22 24  1  0
 24 25  1  0
 25 26  2  0
 25 30  1  0
 26 27  1  0
 27 28  2  0
 28 29  1  0
 28 34  1  0
 29 30  2  0
 29 31  1  0
 31 32  1  0
 32 33  1  0
 33 34  1  0
 35 36  2  0
M  END
