
     RDKit          3D

 36 39  0  0  0  0  0  0  0  0999 V2000
   -4.7030   -1.3240   -1.3230 C   0  0  0  0  0  0  0  0  0  0  0  0
   -5.4710   -1.0560   -0.0720 C   0  0  0  0  0  0  0  0  0  0  0  0
   -6.8680   -0.9020   -0.0960 C   0  0  0  0  0  0  0  0  0  0  0  0
   -7.6330   -0.6560    1.0000 C   0  0  0  0  0  0  0  0  0  0  0  0
   -9.0380   -0.4690    0.9700 N   0  0  0  0  0  0  0  0  0  0  0  0
   -9.7640   -0.2520   -0.2180 C   0  0  0  0  0  0  0  0  0  0  0  0
   -9.2750   -0.1950   -1.3630 O   0  0  0  0  0  0  0  0  0  0  0  0
   -6.9770   -0.5500    2.2250 C   0  0  0  0  0  0  0  0  0  0  0  0
   -5.6030   -0.6970    2.2780 C   0  0  0  0  0  0  0  0  0  0  0  0
   -4.8670   -0.9440    1.1490 C   0  0  0  0  0  0  0  0  0  0  0  0
   -3.4770   -1.0760    1.2880 O   0  0  0  0  0  0  0  0  0  0  0  0
   -2.6420   -0.1780    0.5700 C   0  0  0  0  0  0  0  0  0  0  0  0
   -2.9260    1.1680    0.5550 C   0  0  0  0  0  0  0  0  0  0  0  0
   -2.1180    2.0310   -0.1420 C   0  0  0  0  0  0  0  0  0  0  0  0
   -0.9900    1.5670   -0.8510 C   0  0  0  0  0  0  0  0  0  0  0  0
   -0.7470    0.2230   -0.8070 C   0  0  0  0  0  0  0  0  0  0  0  0
   -1.5550   -0.6450   -0.1100 C   0  0  0  0  0  0  0  0  0  0  0  0
    0.4490   -0.3010   -1.5620 C   0  0  0  0  0  0  0  0  0  0  0  0
    1.4950    0.6360   -1.4000 N   0  0  0  0  0  0  0  0  0  0  0  0
    2.7840    0.4530   -0.8610 C   0  0  0  0  0  0  0  0  0  0  0  0
    3.6080    1.5190   -0.5730 C   0  0  0  0  0  0  0  0  0  0  0  0
    4.8750    1.3940   -0.0490 C   0  0  0  0  0  0  0  0  0  0  0  0
    5.3840    0.1440    0.2160 C   0  0  0  0  0  0  0  0  0  0  0  0
    6.7250    0.0440    0.7640 C   0  0  0  0  0  0  0  0  0  0  0  0
    7.3890    1.1210    0.9770 O   0  0  0  0  0  0  0  0  0  0  0  0
    7.3710   -1.1320    1.0870 O   0  0  0  0  0  0  0  0  0  0  0  0
    8.7020   -1.0370    1.6150 C   0  0  0  0  0  0  0  0  0  0  0  0
    9.5810   -0.4010    0.5950 C   0  0  0  0  0  0  0  0  0  0  0  0
   10.9350   -0.1080    0.8750 N   0  0  0  0  0  0  0  0  0  0  0  0
    9.1070   -0.1140   -0.5410 O   0  0  0  0  0  0  0  0  0  0  0  0
    4.6000   -0.9460   -0.0540 C   0  0  0  0  0  0  0  0  0  0  0  0
    3.3120   -0.7990   -0.5880 C   0  0  0  0  0  0  0  0  0  0  0  0
    2.6390   -1.9450   -0.8200 F   0  0  0  0  0  0  0  0  0  0  0  0
    1.1560    1.9520   -1.8730 C   0  0  0  0  0  0  0  0  0  0  0  0
    2.0010    2.6540   -2.5520 O   0  0  0  0  0  0  0  0  0  0  0  0
   -0.1770    2.5570   -1.5980 C   0  0  0  0  0  0  0  0  0  0  0  0
  1  2  1  0
  2  3  2  0
  2 10  1  0
  3  4  1  0
  4  5  1  0
  4  8  2  0
  5  6  1  0
  6  7  2  0
  8  9  1  0
  9 10  2  0
 10 11  1  0
 11 12  1  0
 12 13  2  0
 12 17  1  0
 13 14  1  0
 14 15  2  0
 15 16  1  0
 15 36  1  0
 16 17  2  0
 16 18  1  0
 18 19  1  0
 19 20  1  0
 19 34  1  0
 20 21  2  0
 20 32  1  0
 21 22  1  0
 22 23  2  0
 23 24  1  0
 23 31  1  0
 24 25  2  0
 24 26  1  0
 26 27  1  0
 27 28  1  0
 28 29  1  0
 28 30  2  0
 31 32  2  0
 32 33  1  0
 34 35  2  0
 34 36  1  0
M  END
