
     RDKit          3D

 36 40  0  0  0  0  0  0  0  0999 V2000
    2.1550    0.0100   -2.5990 C   0  0  0  0  0  0  0  0  0  0  0  0
    2.5700   -0.0000   -1.1020 C   0  0  0  0  0  0  0  0  0  0  0  0
    2.8200    1.1730   -0.4100 C   0  0  0  0  0  0  0  0  0  0  0  0
    3.2440    1.1070    0.9490 C   0  0  0  0  0  0  0  0  0  0  0  0
    3.4340   -0.0190    1.6730 C   0  0  0  0  0  0  0  0  0  0  0  0
    3.8480    0.0410    2.9890 C   0  0  0  0  0  0  0  0  0  0  0  0
    4.0190   -1.1470    3.6570 C   0  0  0  0  0  0  0  0  0  0  0  0
    3.7770   -2.3380    3.0100 C   0  0  0  0  0  0  0  0  0  0  0  0
    3.3680   -2.3740    1.7100 C   0  0  0  0  0  0  0  0  0  0  0  0
    3.1830   -1.1790    0.9940 C   0  0  0  0  0  0  0  0  0  0  0  0
    2.7560   -1.1860   -0.3760 C   0  0  0  0  0  0  0  0  0  0  0  0
    2.6150   -2.5870   -0.7270 N   0  0  0  0  0  0  0  0  0  0  0  0
    1.5200   -3.3460   -1.2660 C   0  0  0  0  0  0  0  0  0  0  0  0
    1.8080   -4.2890   -2.1170 O   0  0  0  0  0  0  0  0  0  0  0  0
    0.1660   -3.2130   -1.0050 N   0  0  0  0  0  0  0  0  0  0  0  0
   -0.6240   -2.0060   -0.8510 C   0  0  0  0  0  0  0  0  0  0  0  0
   -2.0620   -2.2170   -1.2470 C   0  0  2  0  0  0  0  0  0  0  0  0
   -2.1860   -1.8470   -2.5840 O   0  0  0  0  0  0  0  0  0  0  0  0
   -3.0750   -1.4790   -0.4550 C   0  0  0  0  0  0  0  0  0  0  0  0
   -3.0630   -1.7170    0.9430 N   0  0  0  0  0  0  0  0  0  0  0  0
   -2.8000   -3.0360    1.4560 C   0  0  0  0  0  0  0  0  0  0  0  0
   -3.3030   -0.6810    1.8670 C   0  0  0  0  0  0  0  0  0  0  0  0
   -2.7970   -0.6880    3.0420 O   0  0  0  0  0  0  0  0  0  0  0  0
   -4.1580    0.4920    1.5420 C   0  0  0  0  0  0  0  0  0  0  0  0
   -3.3500    1.4470    0.8000 N   0  0  0  0  0  0  0  0  0  0  0  0
   -3.5990    2.3640   -0.1450 C   0  0  0  0  0  0  0  0  0  0  0  0
   -2.4250    2.9750   -0.4720 C   0  0  0  0  0  0  0  0  0  0  0  0
   -1.4830    2.3740    0.3250 C   0  0  0  0  0  0  0  0  0  0  0  0
   -2.0670    1.4690    1.0690 N   0  0  0  0  0  0  0  0  0  0  0  0
   -0.0980    2.7400    0.2960 C   0  0  0  0  0  0  0  0  0  0  0  0
    0.3300    3.3160   -0.9480 N   0  0  0  0  0  0  0  0  0  0  0  0
   -0.6140    3.8140   -1.9060 C   0  0  0  0  0  0  0  0  0  0  0  0
   -2.0040    4.0470   -1.4300 C   0  0  0  0  0  0  0  0  0  0  0  0
    1.7390    3.4200   -1.2810 C   0  0  0  0  0  0  0  0  0  0  0  0
    2.0040    4.3070   -2.1510 O   0  0  0  0  0  0  0  0  0  0  0  0
    2.7440    2.6030   -0.6870 N   0  0  0  0  0  0  0  0  0  0  0  0
  1  2  1  0
  2  3  2  0
  2 11  1  0
  3  4  1  0
  3 36  1  0
  4  5  2  0
  5  6  1  0
  5 10  1  0
  6  7  2  0
  7  8  1  0
  8  9  2  0
  9 10  1  0
 10 11  2  0
 11 12  1  0
 12 13  1  0
 13 14  2  0
 13 15  1  0
 15 16  1  0
 16 17  1  0
 17 18  1  6
 17 19  1  0
 19 20  1  0
 20 21  1  0
 20 22  1  0
 22 23  2  0
 22 24  1  0
 24 25  1  0
 25 26  1  0
 25 29  1  0
 26 27  2  0
 27 28  1  0
 27 33  1  0
 28 29  2  0
 28 30  1  0
 30 31  1  0
 31 32  1  0
 31 34  1  0
 32 33  1  0
 34 35  2  0
 34 36  1  0
M  END
