
     RDKit          3D

 37 40  0  0  0  0  0  0  0  0999 V2000
    3.1040   -0.3260   -3.2240 C   0  0  0  0  0  0  0  0  0  0  0  0
    2.6090   -0.3750   -1.7840 C   0  0  1  0  0  0  0  0  0  0  0  0
    2.2710   -1.8060   -1.4910 C   0  0  0  0  0  0  0  0  0  0  0  0
    1.7890   -2.0550   -0.1660 N   0  0  0  0  0  0  0  0  0  0  0  0
    2.7040   -2.3470    0.9190 C   0  0  0  0  0  0  0  0  0  0  0  0
    0.4060   -2.0240    0.1230 C   0  0  0  0  0  0  0  0  0  0  0  0
   -0.0370   -2.2260    1.2910 O   0  0  0  0  0  0  0  0  0  0  0  0
   -0.5750   -1.7520   -0.9530 C   0  0  0  0  0  0  0  0  0  0  0  0
   -1.9610   -1.7910   -0.3580 N   0  0  0  0  0  0  0  0  0  0  0  0
   -2.6180   -3.0090   -0.3350 C   0  0  0  0  0  0  0  0  0  0  0  0
   -1.9110   -4.0100   -0.7480 O   0  0  0  0  0  0  0  0  0  0  0  0
   -3.9690   -3.2560    0.0950 C   0  0  0  0  0  0  0  0  0  0  0  0
   -4.9160   -2.2850    0.2930 C   0  0  0  0  0  0  0  0  0  0  0  0
   -6.2280   -2.5610    0.6630 C   0  0  0  0  0  0  0  0  0  0  0  0
   -6.5670   -3.8410    0.8290 N   0  0  0  0  0  0  0  0  0  0  0  0
   -5.7380   -4.8510    0.6640 C   0  0  0  0  0  0  0  0  0  0  0  0
   -4.4060   -4.5770    0.2890 C   0  0  0  0  0  0  0  0  0  0  0  0
   -3.5850   -5.6450    0.1340 O   0  0  0  0  0  0  0  0  0  0  0  0
   -2.3690   -0.5110    0.0850 C   0  0  0  0  0  0  0  0  0  0  0  0
   -2.4540   -0.1190    1.4040 C   0  0  0  0  0  0  0  0  0  0  0  0
   -2.8320    1.1460    1.7880 C   0  0  0  0  0  0  0  0  0  0  0  0
   -3.1520    2.1030    0.8370 C   0  0  0  0  0  0  0  0  0  0  0  0
   -3.5230    3.3820    1.2730 N   0  0  0  0  0  0  0  0  0  0  0  0
   -4.1630    4.3000    0.4100 C   0  0  0  0  0  0  0  0  0  0  0  0
   -3.7820    5.6660    0.4120 N   0  0  0  0  0  0  0  0  0  0  0  0
   -5.1070    3.8640   -0.3560 N   0  0  0  0  0  0  0  0  0  0  0  0
   -3.0780    1.7480   -0.4780 C   0  0  0  0  0  0  0  0  0  0  0  0
   -2.6990    0.4830   -0.8520 C   0  0  0  0  0  0  0  0  0  0  0  0
    3.6650    0.1490   -0.8780 C   0  0  0  0  0  0  0  0  0  0  0  0
    4.8950   -0.4550   -0.7460 C   0  0  0  0  0  0  0  0  0  0  0  0
    5.8270    0.0980    0.1350 C   0  0  0  0  0  0  0  0  0  0  0  0
    5.5470    1.2330    0.8770 C   0  0  0  0  0  0  0  0  0  0  0  0
    4.3150    1.8380    0.7460 C   0  0  0  0  0  0  0  0  0  0  0  0
    3.3910    1.2740   -0.1410 C   0  0  0  0  0  0  0  0  0  0  0  0
    4.2860    3.0210    1.6470 C   0  0  0  0  0  0  0  0  0  0  0  0
    5.7540    3.3690    1.7420 C   0  0  0  0  0  0  0  0  0  0  0  0
    6.3740    1.9920    1.8670 C   0  0  0  0  0  0  0  0  0  0  0  0
  2  1  1  6
  2  3  1  0
  2 29  1  0
  3  4  1  0
  4  5  1  0
  4  6  1  0
  6  7  2  0
  6  8  1  0
  8  9  1  0
  9 10  1  0
  9 19  1  0
 10 11  2  0
 10 12  1  0
 12 13  2  0
 12 17  1  0
 13 14  1  0
 14 15  2  0
 15 16  1  0
 16 17  2  0
 17 18  1  0
 19 20  2  0
 19 28  1  0
 20 21  1  0
 21 22  2  0
 22 23  1  0
 22 27  1  0
 23 24  1  0
 24 25  1  0
 24 26  2  0
 27 28  2  0
 29 30  2  0
 29 34  1  0
 30 31  1  0
 31 32  2  0
 32 33  1  0
 32 37  1  0
 33 34  2  0
 33 35  1  0
 35 36  1  0
 36 37  1  0
M  CHG  1  26   1
M  END
