
     RDKit          3D

 36 41  0  0  0  0  0  0  0  0999 V2000
   -5.0830   -0.4680    1.6560 C   0  0  0  0  0  0  0  0  0  0  0  0
   -4.0440   -0.7150    0.6420 C   0  0  0  0  0  0  0  0  0  0  0  0
   -4.3300   -1.1040   -0.5490 N   0  0  0  0  0  0  0  0  0  0  0  0
   -3.1910   -1.2700   -1.3380 C   0  0  2  0  0  0  0  0  0  0  0  0
   -2.8980   -2.6010   -1.8870 C   0  0  0  0  0  0  0  0  0  0  0  0
   -3.7140   -3.5100   -1.8770 O   0  0  0  0  0  0  0  0  0  0  0  0
   -1.5840   -2.8170   -2.4580 N   0  0  0  0  0  0  0  0  0  0  0  0
   -0.5210   -2.0620   -1.9180 C   0  0  0  0  0  0  0  0  0  0  0  0
   -0.7010   -1.1620   -0.8950 C   0  0  0  0  0  0  0  0  0  0  0  0
   -2.0410   -1.0070   -0.3750 C   0  0  0  0  0  0  0  0  0  0  0  0
   -2.5520   -0.6490    0.7510 C   0  0  0  0  0  0  0  0  0  0  0  0
   -1.8940   -0.2270    1.9570 N   0  0  0  0  0  0  0  0  0  0  0  0
   -1.0440    0.8770    2.1690 C   0  0  0  0  0  0  0  0  0  0  0  0
    0.0360    0.7630    2.8030 O   0  0  0  0  0  0  0  0  0  0  0  0
   -1.2920    2.2820    1.6970 C   0  0  0  0  0  0  0  0  0  0  0  0
   -2.4870    2.4160    0.8190 C   0  0  0  0  0  0  0  0  0  0  0  0
   -2.3520    1.9420   -0.5220 N   0  0  0  0  0  0  0  0  0  0  0  0
   -1.2360    1.8910   -1.3770 C   0  0  0  0  0  0  0  0  0  0  0  0
   -1.5630    1.9020   -2.6420 O   0  0  0  0  0  0  0  0  0  0  0  0
    0.1730    1.8360   -1.1300 N   0  0  0  0  0  0  0  0  0  0  0  0
    0.8900    3.0400   -1.6070 C   0  0  0  0  0  0  0  0  0  0  0  0
    2.0880    3.3780   -0.8280 C   0  0  0  0  0  0  0  0  0  0  0  0
    2.6730    4.5800   -0.7440 C   0  0  0  0  0  0  0  0  0  0  0  0
    3.8450    4.4680    0.1170 C   0  0  0  0  0  0  0  0  0  0  0  0
    3.8660    3.0210    0.4780 C   0  0  0  0  0  0  0  0  0  0  0  0
    2.8300    2.4110   -0.0720 C   0  0  0  0  0  0  0  0  0  0  0  0
    2.2500    1.0860    0.0940 C   0  0  0  0  0  0  0  0  0  0  0  0
    2.9240    0.2330    0.7230 O   0  0  0  0  0  0  0  0  0  0  0  0
    0.9020    0.7910   -0.4700 C   0  0  0  0  0  0  0  0  0  0  0  0
    0.5500   -0.5150   -0.4370 C   0  0  0  0  0  0  0  0  0  0  0  0
    1.5390   -1.4790   -0.0260 N   0  0  0  0  0  0  0  0  0  0  0  0
    2.6200   -2.0340   -0.7760 C   0  0  0  0  0  0  0  0  0  0  0  0
    2.5130   -3.5790   -0.8660 C   0  0  0  0  0  0  0  0  0  0  0  0
    2.1980   -4.1280    0.4310 N   0  0  0  0  0  0  0  0  0  0  0  0
    2.4190   -3.1930    1.4940 C   0  0  0  0  0  0  0  0  0  0  0  0
    1.4560   -2.0330    1.2880 C   0  0  0  0  0  0  0  0  0  0  0  0
  1  2  1  0
  2  3  2  0
  2 11  1  0
  4  3  1  1
  4  5  1  0
  4 10  1  0
  5  6  2  0
  5  7  1  0
  7  8  1  0
  8  9  2  0
  9 10  1  0
  9 30  1  0
 10 11  2  0
 11 12  1  0
 12 13  1  0
 13 14  2  0
 13 15  1  0
 15 16  1  0
 16 17  1  0
 17 18  1  0
 18 19  2  0
 18 20  1  0
 20 21  1  0
 20 29  1  0
 21 22  1  0
 22 23  2  0
 22 26  1  0
 23 24  1  0
 24 25  1  0
 25 26  2  0
 26 27  1  0
 27 28  2  0
 27 29  1  0
 29 30  2  0
 30 31  1  0
 31 32  1  0
 31 36  1  0
 32 33  1  0
 33 34  1  0
 34 35  1  0
 35 36  1  0
M  CHG  1  34   1
M  END
