
     RDKit          3D

 37 39  0  0  0  0  0  0  0  0999 V2000
   -6.7490   -6.2130    1.5580 C   0  0  0  0  0  0  0  0  0  0  0  0
   -5.6650   -5.5190    0.7910 C   0  0  0  0  0  0  0  0  0  0  0  0
   -5.4860   -4.0860    1.2220 C   0  0  0  0  0  0  0  0  0  0  0  0
   -4.4260   -3.3780    0.4900 C   0  0  0  0  0  0  0  0  0  0  0  0
   -3.4030   -2.9100    1.2200 C   0  0  0  0  0  0  0  0  0  0  0  0
   -2.2240   -2.1770    0.7520 C   0  0  0  0  0  0  0  0  0  0  0  0
   -2.0390   -1.4430   -0.3460 C   0  0  0  0  0  0  0  0  0  0  0  0
   -0.8210   -0.8110   -0.6240 N   0  0  0  0  0  0  0  0  0  0  0  0
    0.2420   -0.5480    0.2760 C   0  0  0  0  0  0  0  0  0  0  0  0
    0.1770   -0.8700    1.4770 O   0  0  0  0  0  0  0  0  0  0  0  0
    1.4880    0.1370   -0.2110 C   0  0  0  0  0  0  0  0  0  0  0  0
    2.4470    0.2840    0.9500 C   0  0  0  0  0  0  0  0  0  0  0  0
    3.7090    0.9700    0.4930 C   0  0  0  0  0  0  0  0  0  0  0  0
    3.8410    1.3260   -0.7060 O   0  0  0  0  0  0  0  0  0  0  0  0
    4.7670    1.2280    1.3890 N   0  0  0  0  0  0  0  0  0  0  0  0
    5.9740    1.8440    1.0480 C   0  0  0  0  0  0  0  0  0  0  0  0
    6.2250    3.0790    1.5300 C   0  0  0  0  0  0  0  0  0  0  0  0
    7.4410    3.7930    1.2370 C   0  0  0  0  0  0  0  0  0  0  0  0
    8.3450    3.2130    0.4700 C   0  0  0  0  0  0  0  0  0  0  0  0
    8.1400    1.9060   -0.0680 N   0  0  0  0  0  0  0  0  0  0  0  0
    6.9320    1.2210    0.2340 N   0  0  0  0  0  0  0  0  0  0  0  0
    6.7560   -0.0900   -0.2740 C   0  0  1  0  0  0  0  0  0  0  0  0
    7.9900   -0.5610   -1.0680 C   0  0  0  0  0  0  0  0  0  0  0  0
    6.5810   -1.1310    0.8170 C   0  0  0  0  0  0  0  0  0  0  0  0
   -3.1090   -1.1980   -1.3480 C   0  0  0  0  0  0  0  0  0  0  0  0
   -3.3120    0.0150   -1.8220 C   0  0  0  0  0  0  0  0  0  0  0  0
   -4.3640    0.2500   -2.8130 C   0  0  0  0  0  0  0  0  0  0  0  0
   -4.8050    1.5140   -2.9430 C   0  0  0  0  0  0  0  0  0  0  0  0
   -4.2710    2.6100   -2.1720 C   0  0  0  0  0  0  0  0  0  0  0  0
   -3.3020    2.4450   -1.3110 C   0  0  0  0  0  0  0  0  0  0  0  0
   -2.7570    3.4690   -0.5220 N   0  0  0  0  0  0  0  0  0  0  0  0
   -3.7290    4.4550   -0.0980 C   0  0  0  0  0  0  0  0  0  0  0  0
   -3.3760    4.9360    1.2860 C   0  0  0  0  0  0  0  0  0  0  0  0
   -2.5480    1.1240   -1.2460 C   0  0  0  0  0  0  0  0  0  0  0  0
   -4.0310   -2.2770   -1.7900 C   0  0  0  0  0  0  0  0  0  0  0  0
   -4.3170   -2.3560   -2.9830 O   0  0  0  0  0  0  0  0  0  0  0  0
   -4.6330   -3.2630   -0.9200 N   0  0  0  0  0  0  0  0  0  0  0  0
  1  2  1  0
  2  3  1  0
  3  4  1  0
  4  5  2  0
  4 37  1  0
  5  6  1  0
  6  7  2  0
  7  8  1  0
  7 25  1  0
  8  9  1  0
  9 10  2  0
  9 11  1  0
 11 12  1  0
 12 13  1  0
 13 14  2  0
 13 15  1  0
 15 16  1  0
 16 17  2  0
 16 21  1  0
 17 18  1  0
 18 19  2  0
 19 20  1  0
 20 21  1  0
 21 22  1  0
 22 23  1  1
 22 24  1  0
 25 26  2  3
 25 35  1  0
 26 27  1  0
 26 34  1  0
 27 28  2  0
 28 29  1  0
 29 30  2  0
 30 31  1  0
 30 34  1  0
 31 32  1  0
 32 33  1  0
 35 36  2  0
 35 37  1  0
M  CHG  1  31   1
M  END
