
     RDKit          3D

 36 40  0  0  0  0  0  0  0  0999 V2000
    0.6920   -2.9590    3.1000 C   0  0  0  0  0  0  0  0  0  0  0  0
    0.0220   -1.8390    2.6740 O   0  0  0  0  0  0  0  0  0  0  0  0
   -0.9730   -1.7180    1.7510 C   0  0  0  0  0  0  0  0  0  0  0  0
   -1.4040   -2.9010    1.1810 C   0  0  0  0  0  0  0  0  0  0  0  0
   -2.4110   -2.8940    0.2490 C   0  0  0  0  0  0  0  0  0  0  0  0
   -2.8240   -4.0780   -0.3270 C   0  0  0  0  0  0  0  0  0  0  0  0
   -3.8280   -4.1330   -1.2680 C   0  0  0  0  0  0  0  0  0  0  0  0
   -4.4270   -2.9760   -1.6360 C   0  0  0  0  0  0  0  0  0  0  0  0
   -4.0000   -1.7970   -1.0520 C   0  0  0  0  0  0  0  0  0  0  0  0
   -3.0080   -1.6850   -0.1150 C   0  0  0  0  0  0  0  0  0  0  0  0
   -2.5890   -0.4540    0.4540 C   0  0  0  0  0  0  0  0  0  0  0  0
   -1.5690   -0.4640    1.3790 C   0  0  0  0  0  0  0  0  0  0  0  0
   -1.0870    0.7220    1.9560 O   0  0  0  0  0  0  0  0  0  0  0  0
    0.0540    1.3560    1.6330 N   0  0  0  0  0  0  0  0  0  0  0  0
    1.0340    1.9620    1.3790 C   0  0  0  0  0  0  0  0  0  0  0  0
    2.1940    1.3240    0.5540 C   0  0  0  0  0  0  0  0  0  0  0  0
    3.2480    1.9190    0.3810 O   0  0  0  0  0  0  0  0  0  0  0  0
    2.0340    0.0890    0.0170 N   0  0  0  0  0  0  0  0  0  0  0  0
    2.7590   -0.8450   -0.7200 C   0  0  2  0  0  0  0  0  0  0  0  0
    1.6080   -1.8810   -1.0070 C   0  0  0  0  0  0  0  0  0  0  0  0
    0.7520   -2.6780   -1.2320 N   0  0  0  0  0  0  0  0  0  0  0  0
    3.7940   -1.6120   -0.0310 C   0  0  0  0  0  0  0  0  0  0  0  0
    5.1060   -1.1690   -0.5760 C   0  0  0  0  0  0  0  0  0  0  0  0
    4.8040   -0.5910   -1.9280 C   0  0  0  0  0  0  0  0  0  0  0  0
    3.3270   -0.3510   -1.9780 C   0  0  0  0  0  0  0  0  0  0  0  0
    1.3110    3.3280    1.7920 C   0  0  0  0  0  0  0  0  0  0  0  0
    2.4710    3.5510    2.2880 O   0  0  0  0  0  0  0  0  0  0  0  0
    0.3860    4.4130    1.6760 N   0  0  0  0  0  0  0  0  0  0  0  0
   -0.7170    4.3640    0.7630 C   0  0  0  0  0  0  0  0  0  0  0  0
   -1.5130    3.4290    0.6800 N   0  0  0  0  0  0  0  0  0  0  0  0
   -2.4490    3.0410   -0.1960 C   0  0  0  0  0  0  0  0  0  0  0  0
   -2.5340    3.9240   -1.2660 N   0  0  0  0  0  0  0  0  0  0  0  0
   -2.1570    5.2570   -0.9310 N   0  0  0  0  0  0  0  0  0  0  0  0
   -0.9320    5.5330   -0.1540 C   0  0  0  0  0  0  0  0  0  0  0  0
   -3.3190    1.9150   -0.1590 C   0  0  0  0  0  0  0  0  0  0  0  0
   -3.4350    0.6710    0.0590 C   0  0  0  0  0  0  0  0  0  0  0  0
  1  2  1  0
  2  3  1  0
  3  4  2  0
  3 12  1  0
  4  5  1  0
  5  6  2  0
  5 10  1  0
  6  7  1  0
  7  8  2  0
  8  9  1  0
  9 10  2  0
 10 11  1  0
 11 12  2  0
 11 36  1  0
 12 13  1  0
 13 14  1  0
 14 15  2  0
 15 16  1  0
 15 26  1  0
 16 17  2  0
 16 18  1  0
 18 19  1  0
 19 20  1  6
 19 22  1  0
 19 25  1  0
 20 21  3  0
 22 23  1  0
 23 24  1  0
 24 25  1  0
 26 27  2  0
 26 28  1  0
 28 29  1  0
 29 30  2  0
 29 34  1  0
 30 31  1  0
 31 32  2  0
 31 35  1  0
 32 33  1  0
 33 34  1  0
 35 36  2  0
M  END
