
     RDKit          3D

 33 36  0  0  0  0  0  0  0  0999 V2000
    8.4830    1.3160   -1.4060 C   0  0  0  0  0  0  0  0  0  0  0  0
    7.1650    1.3640   -0.7390 C   0  0  0  0  0  0  0  0  0  0  0  0
    6.7580    2.5280   -0.1330 C   0  0  0  0  0  0  0  0  0  0  0  0
    5.5200    2.5530    0.4880 C   0  0  0  0  0  0  0  0  0  0  0  0
    5.1130    3.6910    1.0860 F   0  0  0  0  0  0  0  0  0  0  0  0
    4.7180    1.4030    0.4850 C   0  0  0  0  0  0  0  0  0  0  0  0
    5.0840    0.2540   -0.0960 C   0  0  0  0  0  0  0  0  0  0  0  0
    4.3820   -1.0140   -0.1850 C   0  0  0  0  0  0  0  0  0  0  0  0
    5.0190   -2.2220    0.1040 N   0  0  0  0  0  0  0  0  0  0  0  0
    4.2190   -3.2270   -0.1260 N   0  0  0  0  0  0  0  0  0  0  0  0
    3.0610   -2.7240   -0.5600 C   0  0  0  0  0  0  0  0  0  0  0  0
    1.9120   -3.5640   -0.9460 C   0  0  0  0  0  0  0  0  0  0  0  0
    3.1440   -1.3060   -0.6030 C   0  0  0  0  0  0  0  0  0  0  0  0
    1.9680   -0.5200   -0.9690 C   0  0  0  0  0  0  0  0  0  0  0  0
    1.0930   -0.1690    0.2000 C   0  0  0  0  0  0  0  0  0  0  0  0
    1.2790    0.7970    0.9500 O   0  0  0  0  0  0  0  0  0  0  0  0
   -0.0310   -0.9950    0.4940 N   0  0  0  0  0  0  0  0  0  0  0  0
   -0.9030   -0.7550    1.5840 C   0  0  0  0  0  0  0  0  0  0  0  0
   -2.0030    0.1840    1.3910 C   0  0  0  0  0  0  0  0  0  0  0  0
   -3.2360   -0.3930    1.0160 C   0  0  0  0  0  0  0  0  0  0  0  0
   -4.3470    0.3650    0.8330 C   0  0  0  0  0  0  0  0  0  0  0  0
   -5.5980   -0.2310    0.4620 N   0  0  0  0  0  0  0  0  0  0  0  0
   -6.6120    0.5920   -0.1370 C   0  0  0  0  0  0  0  0  0  0  0  0
   -7.4820   -0.1390   -1.1250 C   0  0  0  0  0  0  0  0  0  0  0  0
   -7.8130   -1.5500   -0.7280 C   0  0  0  0  0  0  0  0  0  0  0  0
   -6.6890   -2.2550   -0.2340 O   0  0  0  0  0  0  0  0  0  0  0  0
   -5.8720   -1.6070    0.6670 C   0  0  0  0  0  0  0  0  0  0  0  0
   -5.3470   -2.1770    1.6760 O   0  0  0  0  0  0  0  0  0  0  0  0
   -4.2280    1.7310    1.0270 C   0  0  0  0  0  0  0  0  0  0  0  0
   -3.0300    2.3220    1.3930 C   0  0  0  0  0  0  0  0  0  0  0  0
   -2.9100    3.7900    1.6030 C   0  0  0  0  0  0  0  0  0  0  0  0
   -1.9560    1.4990    1.5610 N   0  0  0  0  0  0  0  0  0  0  0  0
    6.3530    0.2540   -0.7240 C   0  0  0  0  0  0  0  0  0  0  0  0
  1  2  1  0
  2  3  2  0
  2 33  1  0
  3  4  1  0
  4  5  1  0
  4  6  2  0
  6  7  1  0
  7  8  1  0
  7 33  2  0
  8  9  2  0
  8 13  1  0
  9 10  1  0
 10 11  1  0
 11 12  1  0
 11 13  2  0
 13 14  1  0
 14 15  1  0
 15 16  2  0
 15 17  1  0
 17 18  1  0
 18 19  1  0
 19 20  2  0
 19 32  1  0
 20 21  1  0
 21 22  1  0
 21 29  2  0
 22 23  1  0
 22 27  1  0
 23 24  1  0
 24 25  1  0
 25 26  1  0
 26 27  1  0
 27 28  2  0
 29 30  1  0
 30 31  1  0
 30 32  2  0
M  END
