
     RDKit          3D

 33 36  0  0  0  0  0  0  0  0999 V2000
    5.8950   -1.1980    2.8200 C   0  0  0  0  0  0  0  0  0  0  0  0
    5.3870   -0.3410    1.6730 C   0  0  0  0  0  0  0  0  0  0  0  0
    3.9710   -0.5260    1.4950 N   0  0  0  0  0  0  0  0  0  0  0  0
    3.2590    0.1630    0.4890 C   0  0  0  0  0  0  0  0  0  0  0  0
    3.8900    1.0460   -0.3680 C   0  0  0  0  0  0  0  0  0  0  0  0
    3.1940    1.7170   -1.3470 C   0  0  0  0  0  0  0  0  0  0  0  0
    1.8410    1.4810   -1.4500 C   0  0  0  0  0  0  0  0  0  0  0  0
    1.1600    0.6170   -0.6300 C   0  0  0  0  0  0  0  0  0  0  0  0
   -0.2650    0.4100   -0.7830 C   0  0  1  0  0  0  0  0  0  0  0  0
   -0.6290   -1.0360   -0.9820 C   0  0  0  0  0  0  0  0  0  0  0  0
    0.0950   -1.9700   -1.8190 C   0  0  0  0  0  0  0  0  0  0  0  0
   -0.1500   -3.3850   -1.9540 C   0  0  0  0  0  0  0  0  0  0  0  0
    1.0610   -1.4780   -2.5080 O   0  0  0  0  0  0  0  0  0  0  0  0
   -1.6520   -1.2970   -0.2270 C   0  0  0  0  0  0  0  0  0  0  0  0
   -2.4220   -2.5540   -0.0360 C   0  0  0  0  0  0  0  0  0  0  0  0
   -2.5580   -3.1690    1.1700 C   0  0  0  0  0  0  0  0  0  0  0  0
   -3.3410   -4.2890    1.3260 C   0  0  0  0  0  0  0  0  0  0  0  0
   -3.9910   -4.7800    0.2150 C   0  0  0  0  0  0  0  0  0  0  0  0
   -4.8010   -5.9070    0.2890 O   0  0  0  0  0  0  0  0  0  0  0  0
   -3.8670   -4.1760   -1.0110 C   0  0  0  0  0  0  0  0  0  0  0  0
   -3.0780   -3.0630   -1.1200 C   0  0  0  0  0  0  0  0  0  0  0  0
   -2.0470   -0.0810    0.5280 C   0  0  0  0  0  0  0  0  0  0  0  0
   -1.1810    0.9270    0.1680 C   0  0  0  0  0  0  0  0  0  0  0  0
   -1.3420    2.1830    0.7470 C   0  0  0  0  0  0  0  0  0  0  0  0
   -0.4620    3.2690    0.4100 C   0  0  0  0  0  0  0  0  0  0  0  0
   -0.7260    3.9180   -0.9460 C   0  0  2  0  0  0  0  0  0  0  0  0
    0.3050    5.0340   -1.1070 C   0  0  0  0  0  0  0  0  0  0  0  0
   -2.0330    4.5790   -0.8850 N   0  0  0  0  0  0  0  0  0  0  0  0
   -2.3350    2.3360    1.6240 N   0  0  0  0  0  0  0  0  0  0  0  0
   -3.1760    1.3920    1.9850 N   0  0  0  0  0  0  0  0  0  0  0  0
   -3.0600    0.1630    1.4530 C   0  0  0  0  0  0  0  0  0  0  0  0
   -3.8490   -0.7700    1.7750 O   0  0  0  0  0  0  0  0  0  0  0  0
    1.8870   -0.0380    0.3400 C   0  0  0  0  0  0  0  0  0  0  0  0
  1  2  1  0
  2  3  1  0
  3  4  1  0
  4  5  2  0
  4 33  1  0
  5  6  1  0
  6  7  2  0
  7  8  1  0
  9  8  1  1
  8 33  2  0
  9 10  1  0
  9 23  1  0
 10 11  1  0
 10 14  2  0
 11 12  1  0
 11 13  2  0
 14 15  1  0
 14 22  1  0
 15 16  2  0
 15 21  1  0
 16 17  1  0
 17 18  2  0
 18 19  1  0
 18 20  1  0
 20 21  2  0
 22 23  2  0
 22 31  1  0
 23 24  1  0
 24 25  1  0
 24 29  2  0
 25 26  1  0
 26 27  1  1
 26 28  1  0
 29 30  1  0
 30 31  1  0
 31 32  2  0
M  CHG  1  28   1
M  END
