
     RDKit          3D

 32 35  0  0  0  0  0  0  0  0999 V2000
   -2.7890    2.2940   -3.1410 C   0  0  0  0  0  0  0  0  0  0  0  0
   -2.7160    2.4380   -1.7210 N   0  0  0  0  0  0  0  0  0  0  0  0
   -2.4620    1.3550   -0.8800 C   0  0  0  0  0  0  0  0  0  0  0  0
   -2.2710    0.2330   -1.4860 O   0  0  0  0  0  0  0  0  0  0  0  0
   -2.4000    1.4260    0.5990 C   0  0  2  0  0  0  0  0  0  0  0  0
   -1.8730    0.1310    1.0570 N   0  0  0  0  0  0  0  0  0  0  0  0
   -0.6420   -0.3090    0.5070 C   0  0  0  0  0  0  0  0  0  0  0  0
   -0.0140    0.3740   -0.4590 N   0  0  0  0  0  0  0  0  0  0  0  0
    1.2060   -0.0970   -1.0240 C   0  0  0  0  0  0  0  0  0  0  0  0
    1.6910    0.6300   -2.1660 C   0  0  0  0  0  0  0  0  0  0  0  0
    2.6490    0.6580   -2.9300 C   0  0  0  0  0  0  0  0  0  0  0  0
    3.8350   -0.2980   -2.8580 C   0  0  0  0  0  0  0  0  0  0  0  0
    3.9470   -1.4680   -2.2910 C   0  0  0  0  0  0  0  0  0  0  0  0
    5.2990   -1.8520   -2.5440 C   0  0  0  0  0  0  0  0  0  0  0  0
    6.1510   -2.8200   -2.3220 O   0  0  0  0  0  0  0  0  0  0  0  0
    7.3090   -2.4660   -2.8970 C   0  0  0  0  0  0  0  0  0  0  0  0
    7.1800   -1.2630   -3.4870 C   0  0  0  0  0  0  0  0  0  0  0  0
    5.8870   -0.8450   -3.2670 C   0  0  0  0  0  0  0  0  0  0  0  0
    4.9670    0.1320   -3.4610 O   0  0  0  0  0  0  0  0  0  0  0  0
    1.6250   -1.2150   -0.4910 N   0  0  0  0  0  0  0  0  0  0  0  0
    1.0740   -1.9630    0.4650 C   0  0  0  0  0  0  0  0  0  0  0  0
    1.6370   -3.2100    1.0270 C   0  0  0  0  0  0  0  0  0  0  0  0
   -0.1080   -1.4940    0.9660 C   0  0  0  0  0  0  0  0  0  0  0  0
   -0.8980   -2.3510    1.8050 C   0  0  0  0  0  0  0  0  0  0  0  0
   -1.0760   -2.3000    3.2560 C   0  0  0  0  0  0  0  0  0  0  0  0
   -2.1520   -3.3880    3.4500 C   0  0  0  0  0  0  0  0  0  0  0  0
   -2.9990   -4.2690    3.6050 N   0  0  0  0  0  0  0  0  0  0  0  0
   -3.8200    1.4970    1.1170 C   0  0  0  0  0  0  0  0  0  0  0  0
   -4.0710    2.4750    2.1940 C   0  0  0  0  0  0  0  0  0  0  0  0
   -2.9950    2.5590    3.2400 C   0  0  0  0  0  0  0  0  0  0  0  0
   -1.6180    2.6370    2.6710 C   0  0  0  0  0  0  0  0  0  0  0  0
   -1.5190    2.4630    1.1840 C   0  0  0  0  0  0  0  0  0  0  0  0
  1  2  1  0
  2  3  1  0
  3  4  2  0
  3  5  1  0
  5  6  1  1
  5 28  1  0
  5 32  1  0
  6  7  1  0
  7  8  2  0
  7 23  1  0
  8  9  1  0
  9 10  1  0
  9 20  2  0
 10 11  2  3
 11 12  1  0
 12 13  2  0
 12 19  1  0
 13 14  1  0
 14 15  1  0
 14 18  2  0
 15 16  1  0
 16 17  2  0
 17 18  1  0
 18 19  1  0
 20 21  1  0
 21 22  1  0
 21 23  2  0
 23 24  1  0
 24 25  1  0
 25 26  1  0
 26 27  3  0
 28 29  1  0
 29 30  1  0
 30 31  1  0
 31 32  1  0
M  END
