
     RDKit          3D

 33 36  0  0  0  0  0  0  0  0999 V2000
    0.3520    2.1800   -1.5760 C   0  0  0  0  0  0  0  0  0  0  0  0
    0.9410    1.0220   -0.8770 C   0  0  0  0  0  0  0  0  0  0  0  0
    0.1360    0.0470   -0.4240 N   0  0  0  0  0  0  0  0  0  0  0  0
    0.6140   -1.0260    0.2240 C   0  0  0  0  0  0  0  0  0  0  0  0
   -0.2840   -2.0230    0.6720 N   0  0  0  0  0  0  0  0  0  0  0  0
   -1.6830   -1.9240    0.4630 C   0  0  0  0  0  0  0  0  0  0  0  0
   -2.6560   -2.4880    0.6590 N   0  0  0  0  0  0  0  0  0  0  0  0
   -3.8950   -2.1510    0.3410 C   0  0  0  0  0  0  0  0  0  0  0  0
   -4.0370   -0.9790   -0.3070 C   0  0  0  0  0  0  0  0  0  0  0  0
   -5.2200   -0.2710   -0.8230 C   0  0  0  0  0  0  0  0  0  0  0  0
   -5.0430    0.8260   -1.3990 O   0  0  0  0  0  0  0  0  0  0  0  0
   -6.5190   -0.7820   -0.6890 N   0  0  0  0  0  0  0  0  0  0  0  0
   -7.6840   -0.1260   -1.1770 C   0  0  0  0  0  0  0  0  0  0  0  0
   -8.4110    0.7740   -0.4450 C   0  0  0  0  0  0  0  0  0  0  0  0
   -7.9350    1.0730    0.9420 C   0  0  0  0  0  0  0  0  0  0  0  0
   -9.5130    1.3500   -0.9940 C   0  0  0  0  0  0  0  0  0  0  0  0
   -9.9350    1.0520   -2.2960 C   0  0  0  0  0  0  0  0  0  0  0  0
   -9.2010    0.1450   -3.0300 C   0  0  0  0  0  0  0  0  0  0  0  0
   -8.0930   -0.4250   -2.4590 C   0  0  0  0  0  0  0  0  0  0  0  0
   -7.1820   -1.5780   -3.4130 Cl  0  0  0  0  0  0  0  0  0  0  0  0
   -2.3600   -0.3940   -0.4380 S   0  0  0  0  0  0  0  0  0  0  0  0
    1.9710   -1.1230    0.4250 C   0  0  0  0  0  0  0  0  0  0  0  0
    2.8250   -0.1420   -0.0260 C   0  0  0  0  0  0  0  0  0  0  0  0
    4.2280   -0.1790    0.1590 N   0  0  0  0  0  0  0  0  0  0  0  0
    5.0600    0.7940   -0.5100 C   0  0  0  0  0  0  0  0  0  0  0  0
    6.2840    1.1010    0.2820 C   0  0  0  0  0  0  0  0  0  0  0  0
    6.9850   -0.0480    0.7660 N   0  0  1  0  0  0  0  0  0  0  0  0
    7.2100    0.1180    2.1860 C   0  0  0  0  0  0  0  0  0  0  0  0
    8.6850    0.0060    2.5350 C   0  0  0  0  0  0  0  0  0  0  0  0
    9.3830    0.9850    1.8600 O   0  0  0  0  0  0  0  0  0  0  0  0
    6.3060   -1.2930    0.5590 C   0  0  0  0  0  0  0  0  0  0  0  0
    4.8710   -1.1480    1.0060 C   0  0  0  0  0  0  0  0  0  0  0  0
    2.2480    0.9020   -0.6690 N   0  0  0  0  0  0  0  0  0  0  0  0
  1  2  1  0
  2  3  2  0
  2 33  1  0
  3  4  1  0
  4  5  1  0
  4 22  2  0
  5  6  1  0
  6  7  2  0
  6 21  1  0
  7  8  1  0
  8  9  2  0
  9 10  1  0
  9 21  1  0
 10 11  2  0
 10 12  1  0
 12 13  1  0
 13 14  2  0
 13 19  1  0
 14 15  1  0
 14 16  1  0
 16 17  2  0
 17 18  1  0
 18 19  2  0
 19 20  1  0
 22 23  1  0
 23 24  1  0
 23 33  2  0
 24 25  1  0
 24 32  1  0
 25 26  1  0
 26 27  1  0
 27 28  1  1
 27 31  1  0
 28 29  1  0
 29 30  1  0
 31 32  1  0
M  CHG  1  27   1
M  END
