
     RDKit          3D

 33 35  0  0  0  0  0  0  0  0999 V2000
    7.1900   -2.0800   -1.9690 C   0  0  0  0  0  0  0  0  0  0  0  0
    7.8890   -0.8520   -2.3030 N   0  0  0  0  0  0  0  0  0  0  0  0
    7.7900    0.1280   -1.2400 C   0  0  0  0  0  0  0  0  0  0  0  0
    6.8620   -0.2950   -0.1610 C   0  0  0  0  0  0  0  0  0  0  0  0
    7.3250   -1.1220    0.8350 C   0  0  0  0  0  0  0  0  0  0  0  0
    6.4450   -1.4980    1.8250 C   0  0  0  0  0  0  0  0  0  0  0  0
    5.1420   -1.0780    1.8450 C   0  0  0  0  0  0  0  0  0  0  0  0
    4.2060   -1.4980    2.9160 C   0  0  0  0  0  0  0  0  0  0  0  0
    4.7100   -0.2610    0.8480 C   0  0  0  0  0  0  0  0  0  0  0  0
    3.3570    0.1900    0.8620 N   0  0  0  0  0  0  0  0  0  0  0  0
    2.4450   -0.5380    0.1260 N   0  0  0  0  0  0  0  0  0  0  0  0
    1.1990   -0.0500   -0.3510 C   0  0  0  0  0  0  0  0  0  0  0  0
    0.5120   -0.9370   -0.9180 O   0  0  0  0  0  0  0  0  0  0  0  0
    0.5570    1.2670   -0.3160 C   0  0  1  0  0  0  0  0  0  0  0  0
   -0.9150    1.0780   -0.4830 C   0  0  0  0  0  0  0  0  0  0  0  0
   -1.5800    1.5340   -1.6030 C   0  0  0  0  0  0  0  0  0  0  0  0
   -2.9360    1.3650   -1.7670 C   0  0  0  0  0  0  0  0  0  0  0  0
   -3.7090    0.7180   -0.7980 C   0  0  0  0  0  0  0  0  0  0  0  0
   -5.1330    0.5540   -0.9980 C   0  0  0  0  0  0  0  0  0  0  0  0
   -6.3180    0.4340   -1.1760 C   0  0  0  0  0  0  0  0  0  0  0  0
   -7.7560    0.2970   -1.4120 C   0  0  0  0  0  0  0  0  0  0  0  0
   -8.4520    0.2030   -0.0900 C   0  0  2  0  0  0  0  0  0  0  0  0
   -8.2270    1.4170    0.7770 C   0  0  0  0  0  0  0  0  0  0  0  0
   -8.0490   -1.0330    0.6620 C   0  0  0  0  0  0  0  0  0  0  0  0
   -9.9420    0.1030   -0.3820 C   0  0  0  0  0  0  0  0  0  0  0  0
   -3.0350    0.2700    0.3110 C   0  0  0  0  0  0  0  0  0  0  0  0
   -1.6760    0.4380    0.4780 C   0  0  0  0  0  0  0  0  0  0  0  0
    0.8490    2.0520    0.8950 C   0  0  0  0  0  0  0  0  0  0  0  0
   -0.0390    2.8950    1.1680 O   0  0  0  0  0  0  0  0  0  0  0  0
    1.9270    2.0500    1.8130 N   0  0  0  0  0  0  0  0  0  0  0  0
    3.1450    1.3450    1.6410 C   0  0  0  0  0  0  0  0  0  0  0  0
    4.1600    1.7810    2.2380 O   0  0  0  0  0  0  0  0  0  0  0  0
    5.5600    0.1350   -0.1560 C   0  0  0  0  0  0  0  0  0  0  0  0
  1  2  1  0
  2  3  1  0
  3  4  1  0
  4  5  2  0
  4 33  1  0
  5  6  1  0
  6  7  2  0
  7  8  1  0
  7  9  1  0
  9 10  1  0
  9 33  2  0
 10 11  1  0
 10 31  1  0
 11 12  1  0
 12 13  2  0
 12 14  1  0
 14 15  1  1
 14 28  1  0
 15 16  2  0
 15 27  1  0
 16 17  1  0
 17 18  2  0
 18 19  1  0
 18 26  1  0
 19 20  3  0
 20 21  1  0
 21 22  1  0
 22 23  1  1
 22 24  1  0
 22 25  1  0
 26 27  2  0
 28 29  2  0
 28 30  1  0
 30 31  1  0
 31 32  2  0
M  CHG  1   2   1
M  END
