
     RDKit          3D

 33 37  0  0  0  0  0  0  0  0999 V2000
   -5.5080    0.7530   -1.9020 O   0  0  0  0  0  0  0  0  0  0  0  0
   -6.3490    0.0830   -1.2700 C   0  0  0  0  0  0  0  0  0  0  0  0
   -6.2180   -1.3260   -1.2420 N   0  0  0  0  0  0  0  0  0  0  0  0
   -5.1190   -1.9480   -1.9420 C   0  0  0  0  0  0  0  0  0  0  0  0
   -3.8890   -1.7440   -1.1010 C   0  0  0  0  0  0  0  0  0  0  0  0
   -2.9110   -0.8440   -1.4450 C   0  0  0  0  0  0  0  0  0  0  0  0
   -1.7840   -0.6530   -0.6710 C   0  0  0  0  0  0  0  0  0  0  0  0
   -1.6480   -1.3840    0.4680 C   0  0  0  0  0  0  0  0  0  0  0  0
   -2.6510   -2.2780    0.7810 C   0  0  0  0  0  0  0  0  0  0  0  0
   -3.7450   -2.4600    0.0240 N   0  0  0  0  0  0  0  0  0  0  0  0
   -2.2290   -2.8440    1.9530 N   0  0  0  0  0  0  0  0  0  0  0  0
   -1.0470   -2.3230    2.3230 C   0  0  0  0  0  0  0  0  0  0  0  0
   -0.3970   -2.6380    3.3580 O   0  0  0  0  0  0  0  0  0  0  0  0
   -0.6700   -1.4140    1.4120 N   0  0  0  0  0  0  0  0  0  0  0  0
    0.5340   -0.6200    1.4260 C   0  0  0  0  0  0  0  0  0  0  0  0
    1.6710   -1.3110    0.7100 C   0  0  0  0  0  0  0  0  0  0  0  0
    2.9240   -0.5190    0.7020 C   0  0  0  0  0  0  0  0  0  0  0  0
    3.4730   -0.1040   -0.4550 C   0  0  0  0  0  0  0  0  0  0  0  0
    4.6700    0.6510   -0.4390 N   0  0  0  0  0  0  0  0  0  0  0  0
    5.1350    1.0110   -1.7840 C   0  0  0  0  0  0  0  0  0  0  0  0
    6.6510    0.8000   -1.7310 C   0  0  0  0  0  0  0  0  0  0  0  0
    7.3600    2.0320   -1.2870 C   0  0  0  0  0  0  0  0  0  0  0  0
    7.3510    2.3450    0.1520 C   0  0  0  0  0  0  0  0  0  0  0  0
    6.4040    1.6740    1.0180 C   0  0  0  0  0  0  0  0  0  0  0  0
    5.3060    0.9810    0.7850 C   0  0  0  0  0  0  0  0  0  0  0  0
    4.6720    0.5050    2.0240 C   0  0  0  0  0  0  0  0  0  0  0  0
    3.5560   -0.1960    1.9740 C   0  0  0  0  0  0  0  0  0  0  0  0
    2.9740   -0.6410    3.1360 F   0  0  0  0  0  0  0  0  0  0  0  0
   -7.4710    0.7230   -0.5540 C   0  0  0  0  0  0  0  0  0  0  0  0
   -7.7040    2.0820   -0.5140 C   0  0  0  0  0  0  0  0  0  0  0  0
   -8.8440    2.2430    0.2570 C   0  0  0  0  0  0  0  0  0  0  0  0
   -9.2310    0.9820    0.6350 C   0  0  0  0  0  0  0  0  0  0  0  0
   -8.3950    0.1080    0.1370 O   0  0  0  0  0  0  0  0  0  0  0  0
  1  2  2  0
  2  3  1  0
  2 29  1  0
  3  4  1  0
  4  5  1  0
  5  6  2  0
  5 10  1  0
  6  7  1  0
  7  8  2  0
  8  9  1  0
  8 14  1  0
  9 10  2  0
  9 11  1  0
 11 12  1  0
 12 13  2  0
 12 14  1  0
 14 15  1  0
 15 16  1  0
 16 17  1  0
 17 18  2  0
 17 27  1  0
 18 19  1  0
 19 20  1  0
 19 25  1  0
 20 21  1  0
 21 22  1  0
 22 23  1  0
 23 24  1  0
 24 25  2  0
 25 26  1  0
 26 27  2  0
 27 28  1  0
 29 30  2  0
 29 33  1  0
 30 31  1  0
 31 32  2  0
 32 33  1  0
M  END
