
     RDKit          3D

 32 35  0  0  0  0  0  0  0  0999 V2000
   -5.4410   -1.2390   -3.5530 C   0  0  0  0  0  0  0  0  0  0  0  0
   -4.1860   -0.8970   -2.8130 C   0  0  0  0  0  0  0  0  0  0  0  0
   -4.4000   -1.1790   -1.3190 C   0  0  0  0  0  0  0  0  0  0  0  0
   -5.4690   -1.7820   -0.8460 O   0  0  0  0  0  0  0  0  0  0  0  0
   -5.3610   -1.8440    0.4030 C   0  0  0  0  0  0  0  0  0  0  0  0
   -6.2390   -2.4090    1.4710 C   0  0  0  0  0  0  0  0  0  0  0  0
   -7.3460   -1.3630    1.6890 C   0  0  0  0  0  0  0  0  0  0  0  0
   -6.5110   -0.0690    1.9540 C   0  0  0  0  0  0  0  0  0  0  0  0
   -5.9170    0.8460    2.1300 N   0  0  0  0  0  0  0  0  0  0  0  0
   -4.1490   -1.2520    0.7990 N   0  0  0  0  0  0  0  0  0  0  0  0
   -3.5540   -0.8300   -0.3830 C   0  0  0  0  0  0  0  0  0  0  0  0
   -2.2610   -0.1580   -0.4280 C   0  0  0  0  0  0  0  0  0  0  0  0
   -1.6510    0.0800    0.8890 N   0  0  0  0  0  0  0  0  0  0  0  0
   -0.3590    0.7240    0.9100 C   0  0  0  0  0  0  0  0  0  0  0  0
    0.5630    0.4330   -0.0290 C   0  0  0  0  0  0  0  0  0  0  0  0
    1.8060    1.0920   -0.0090 C   0  0  0  0  0  0  0  0  0  0  0  0
    2.7320    0.7610   -1.0880 C   0  0  0  0  0  0  0  0  0  0  0  0
    2.5610    1.2710   -2.2090 O   0  0  0  0  0  0  0  0  0  0  0  0
    3.7950   -0.1230   -0.8630 N   0  0  0  0  0  0  0  0  0  0  0  0
    4.1540   -0.7090    0.4450 C   0  0  0  0  0  0  0  0  0  0  0  0
    5.5030   -1.3460    0.2710 C   0  0  0  0  0  0  0  0  0  0  0  0
    6.0240   -0.7750   -1.0590 C   0  0  1  0  0  0  0  0  0  0  0  0
    6.6280    0.5810   -0.8400 C   0  0  0  0  0  0  0  0  0  0  0  0
    7.0060   -1.7430   -1.6920 C   0  0  0  0  0  0  0  0  0  0  0  0
    4.7170   -0.7100   -1.8210 C   0  0  0  0  0  0  0  0  0  0  0  0
    2.0120    2.0110    0.9950 C   0  0  0  0  0  0  0  0  0  0  0  0
    3.0990    2.6320    1.0610 O   0  0  0  0  0  0  0  0  0  0  0  0
    1.0670    2.2950    1.9560 N   0  0  0  0  0  0  0  0  0  0  0  0
   -0.1030    1.6670    1.9180 C   0  0  0  0  0  0  0  0  0  0  0  0
   -0.9000    2.1610    3.0680 C   0  0  0  0  0  0  0  0  0  0  0  0
   -0.3880    3.6030    3.2080 C   0  0  0  0  0  0  0  0  0  0  0  0
    1.1180    3.2850    3.0220 C   0  0  0  0  0  0  0  0  0  0  0  0
  1  2  1  0
  2  3  1  0
  3  4  1  0
  3 11  2  0
  4  5  1  0
  5  6  1  0
  5 10  2  0
  6  7  1  0
  7  8  1  0
  8  9  3  0
 10 11  1  0
 11 12  1  0
 12 13  1  0
 13 14  1  0
 14 15  1  0
 14 29  2  0
 15 16  2  0
 16 17  1  0
 16 26  1  0
 17 18  2  0
 17 19  1  0
 19 20  1  0
 19 25  1  0
 20 21  1  0
 21 22  1  0
 22 23  1  1
 22 24  1  0
 22 25  1  0
 26 27  2  0
 26 28  1  0
 28 29  1  0
 28 32  1  0
 29 30  1  0
 30 31  1  0
 31 32  1  0
M  END
