
     RDKit          3D

 33 36  0  0  0  0  0  0  0  0999 V2000
   -3.8260   -0.3720   -2.5650 C   0  0  0  0  0  0  0  0  0  0  0  0
   -3.4500    0.2700   -1.2720 C   0  0  0  0  0  0  0  0  0  0  0  0
   -3.5530    1.6440   -1.1370 C   0  0  0  0  0  0  0  0  0  0  0  0
   -3.1910    2.2390    0.0340 C   0  0  0  0  0  0  0  0  0  0  0  0
   -3.2900    3.5900    0.2040 F   0  0  0  0  0  0  0  0  0  0  0  0
   -2.7140    1.4730    1.1070 C   0  0  0  0  0  0  0  0  0  0  0  0
   -2.6110    0.1050    0.9770 C   0  0  0  0  0  0  0  0  0  0  0  0
   -2.1050   -0.7310    2.0800 C   0  0  0  0  0  0  0  0  0  0  0  0
   -0.8710   -1.3590    1.8260 N   0  0  0  0  0  0  0  0  0  0  0  0
   -0.1460   -2.0910    2.8340 C   0  0  0  0  0  0  0  0  0  0  0  0
    0.2310   -1.2450    3.9790 C   0  0  0  0  0  0  0  0  0  0  0  0
    1.4180   -0.5360    4.1530 C   0  0  0  0  0  0  0  0  0  0  0  0
    1.3390    0.1190    5.3680 C   0  0  0  0  0  0  0  0  0  0  0  0
    0.1080   -0.2270    5.8720 C   0  0  0  0  0  0  0  0  0  0  0  0
   -0.5140   -1.0210    5.0420 O   0  0  0  0  0  0  0  0  0  0  0  0
   -0.2120   -1.3840    0.5340 C   0  0  0  0  0  0  0  0  0  0  0  0
   -0.3060   -2.4810   -0.0550 N   0  0  0  0  0  0  0  0  0  0  0  0
    0.0890   -2.9760   -1.1380 N   0  0  0  0  0  0  0  0  0  0  0  0
    0.4190   -2.9900   -2.3230 C   0  0  0  0  0  0  0  0  0  0  0  0
    0.4950   -1.9140   -3.3590 C   0  0  0  0  0  0  0  0  0  0  0  0
    1.2650   -2.5110   -4.4870 C   0  0  0  0  0  0  0  0  0  0  0  0
    1.6910   -3.8610   -4.0110 C   0  0  0  0  0  0  0  0  0  0  0  0
    0.8280   -4.1980   -2.9450 O   0  0  0  0  0  0  0  0  0  0  0  0
    0.1810   -0.3710   -0.3250 N   0  0  0  0  0  0  0  0  0  0  0  0
    1.0040    0.7090   -0.0100 C   0  0  0  0  0  0  0  0  0  0  0  0
    1.4860    0.6110    1.1210 O   0  0  0  0  0  0  0  0  0  0  0  0
    1.2460    1.7730   -0.9300 N   0  0  0  0  0  0  0  0  0  0  0  0
    2.1660    2.7500   -0.4720 C   0  0  0  0  0  0  0  0  0  0  0  0
    3.3450    2.9770   -1.0050 C   0  0  0  0  0  0  0  0  0  0  0  0
    4.0310    4.0670   -0.2630 C   0  0  0  0  0  0  0  0  0  0  0  0
    3.0390    4.4220    0.7800 C   0  0  0  0  0  0  0  0  0  0  0  0
    1.9700    3.6560    0.6490 C   0  0  0  0  0  0  0  0  0  0  0  0
   -2.9800   -0.4640   -0.2050 C   0  0  0  0  0  0  0  0  0  0  0  0
  1  2  1  0
  2  3  2  0
  2 33  1  0
  3  4  1  0
  4  5  1  0
  4  6  2  0
  6  7  1  0
  7  8  1  0
  7 33  2  0
  8  9  1  0
  9 10  1  0
  9 16  1  0
 10 11  1  0
 11 12  2  0
 11 15  1  0
 12 13  1  0
 13 14  2  0
 14 15  1  0
 16 17  2  3
 16 24  1  0
 17 18  1  0
 18 19  2  3
 19 20  1  0
 19 23  1  0
 20 21  1  0
 21 22  1  0
 22 23  1  0
 24 25  1  0
 25 26  2  0
 25 27  1  0
 27 28  1  0
 28 29  2  0
 28 32  1  0
 29 30  1  0
 30 31  1  0
 31 32  2  0
M  END
