
     RDKit          3D

 32 33  0  0  0  0  0  0  0  0999 V2000
   -6.7770    2.2270    0.1770 C   0  0  0  0  0  0  0  0  0  0  0  0
   -5.9850    1.0540    0.7470 C   0  0  0  0  0  0  0  0  0  0  0  0
   -5.5230    0.1810   -0.3700 C   0  0  0  0  0  0  0  0  0  0  0  0
   -4.7320   -0.9830    0.0220 C   0  0  0  0  0  0  0  0  0  0  0  0
   -3.4310   -0.8980    0.6290 C   0  0  0  0  0  0  0  0  0  0  0  0
   -2.7370    0.1600    0.9320 C   0  0  0  0  0  0  0  0  0  0  0  0
   -1.4230    0.1140    1.5520 N   0  0  2  0  0  0  0  0  0  0  0  0
   -0.8350    1.4370    1.5110 C   0  0  0  0  0  0  0  0  0  0  0  0
   -0.6860   -0.9010    0.8750 C   0  0  2  0  0  0  0  0  0  0  0  0
   -0.6300   -2.1350    1.8010 C   0  0  0  0  0  0  0  0  0  0  0  0
    0.7180   -0.5230    0.5170 C   0  0  0  0  0  0  0  0  0  0  0  0
    1.3070    0.2680    1.2780 O   0  0  0  0  0  0  0  0  0  0  0  0
    1.3860   -1.0160   -0.6200 N   0  0  0  0  0  0  0  0  0  0  0  0
    2.7020   -0.7280   -1.0370 C   0  0  0  0  0  0  0  0  0  0  0  0
    3.5870    0.0290   -0.3270 C   0  0  0  0  0  0  0  0  0  0  0  0
    4.8840    0.2530   -0.8070 C   0  0  0  0  0  0  0  0  0  0  0  0
    5.7820    1.0250   -0.0630 C   0  0  0  0  0  0  0  0  0  0  0  0
    7.0740    1.2710   -0.4840 C   0  0  0  0  0  0  0  0  0  0  0  0
    8.0280    2.0360    0.2260 N   0  0  0  0  0  0  0  0  0  0  0  0
    7.8540    2.6750    1.4590 C   0  0  0  0  0  0  0  0  0  0  0  0
    6.7820    2.6230    2.0750 O   0  0  0  0  0  0  0  0  0  0  0  0
    7.4790    0.7190   -1.7040 C   0  0  0  0  0  0  0  0  0  0  0  0
    8.7340    0.9330   -2.1510 F   0  0  0  0  0  0  0  0  0  0  0  0
    6.6190   -0.0440   -2.4560 C   0  0  0  0  0  0  0  0  0  0  0  0
    5.3150   -0.2700   -1.9920 C   0  0  0  0  0  0  0  0  0  0  0  0
    4.4350   -1.0160   -2.6860 N   0  0  0  0  0  0  0  0  0  0  0  0
    3.1900   -1.2430   -2.2460 C   0  0  0  0  0  0  0  0  0  0  0  0
    2.4360   -1.9490   -2.9550 O   0  0  0  0  0  0  0  0  0  0  0  0
   -5.2770   -2.1920   -0.2370 C   0  0  0  0  0  0  0  0  0  0  0  0
   -6.5830   -2.3630   -0.8730 C   0  0  1  0  0  0  0  0  0  0  0  0
   -6.6170   -2.0320   -2.2100 F   0  0  0  0  0  0  0  0  0  0  0  0
   -7.0060   -3.6930   -0.7580 F   0  0  0  0  0  0  0  0  0  0  0  0
  1  2  1  0
  2  3  1  0
  3  4  1  0
  4  5  1  0
  4 29  2  3
  5  6  2  3
  6  7  1  0
  7  8  1  6
  7  9  1  0
  9 10  1  1
  9 11  1  0
 11 12  2  0
 11 13  1  0
 13 14  1  0
 14 15  2  0
 14 27  1  0
 15 16  1  0
 16 17  2  0
 16 25  1  0
 17 18  1  0
 18 19  1  0
 18 22  2  0
 19 20  1  0
 20 21  2  0
 22 23  1  0
 22 24  1  0
 24 25  2  0
 25 26  1  0
 26 27  1  0
 27 28  2  0
 29 30  1  0
 30 31  1  6
 30 32  1  0
M  CHG  1   7   1
M  END
