
     RDKit          3D

 32 33  0  0  0  0  0  0  0  0999 V2000
   -3.7740    2.9610    3.3050 N   0  0  0  0  0  0  0  0  0  0  0  0
   -4.8280    2.6240    2.3750 C   0  0  0  0  0  0  0  0  0  0  0  0
   -4.8900    1.1300    2.1140 C   0  0  0  0  0  0  0  0  0  0  0  0
   -3.6070    0.6160    1.5380 C   0  0  0  0  0  0  0  0  0  0  0  0
   -3.2300    1.2710    0.2330 C   0  0  1  0  0  0  0  0  0  0  0  0
   -1.9390    0.6500   -0.2140 C   0  0  0  0  0  0  0  0  0  0  0  0
   -0.8520    1.0100    0.7590 C   0  0  0  0  0  0  0  0  0  0  0  0
    0.4630    0.6720    0.0610 C   0  0  0  0  0  0  0  0  0  0  0  0
    0.7930   -0.7260    0.1000 N   0  0  0  0  0  0  0  0  0  0  0  0
    1.8440   -1.1770    1.0170 C   0  0  0  0  0  0  0  0  0  0  0  0
    3.0440   -0.7620    0.7850 C   0  0  0  0  0  0  0  0  0  0  0  0
    4.2620   -1.0300    1.4960 C   0  0  0  0  0  0  0  0  0  0  0  0
    5.4300   -0.5150    1.1200 C   0  0  0  0  0  0  0  0  0  0  0  0
    5.4900    0.3270   -0.0150 N   0  0  0  0  0  0  0  0  0  0  0  0
    6.2220   -0.1500   -1.1780 C   0  0  2  0  0  0  0  0  0  0  0  0
    6.2780    0.8420   -2.3140 C   0  0  0  0  0  0  0  0  0  0  0  0
    5.8310   -0.2400   -3.2620 C   0  0  0  0  0  0  0  0  0  0  0  0
    5.4660   -1.0950   -2.0730 C   0  0  0  0  0  0  0  0  0  0  0  0
    1.3980   -2.0560    2.1170 C   0  0  1  0  0  0  0  0  0  0  0  0
    2.4200   -2.6630    2.7820 F   0  0  0  0  0  0  0  0  0  0  0  0
    0.7240   -1.2750    3.0580 F   0  0  0  0  0  0  0  0  0  0  0  0
    0.4560   -2.9850    1.6830 F   0  0  0  0  0  0  0  0  0  0  0  0
    0.1930   -1.7620   -0.6940 C   0  0  0  0  0  0  0  0  0  0  0  0
   -0.1390   -1.2950   -2.0630 C   0  0  0  0  0  0  0  0  0  0  0  0
   -1.2300   -1.4760   -2.7320 C   0  0  0  0  0  0  0  0  0  0  0  0
   -2.4610   -2.2160   -2.2850 C   0  0  0  0  0  0  0  0  0  0  0  0
   -3.5450   -1.4260   -2.4630 O   0  0  0  0  0  0  0  0  0  0  0  0
   -4.7220   -1.0370   -1.9880 C   0  0  0  0  0  0  0  0  0  0  0  0
   -5.7330   -1.8630   -2.2120 O   0  0  0  0  0  0  0  0  0  0  0  0
   -5.0390    0.1630   -1.2680 N   0  0  0  0  0  0  0  0  0  0  0  0
   -4.2850    1.2200   -0.8030 C   0  0  0  0  0  0  0  0  0  0  0  0
   -4.4910    2.3950   -1.3240 O   0  0  0  0  0  0  0  0  0  0  0  0
  1  2  1  0
  2  3  1  0
  3  4  1  0
  5  4  1  1
  5  6  1  0
  5 31  1  0
  6  7  1  0
  7  8  1  0
  8  9  1  0
  9 10  1  0
  9 23  1  0
 10 11  2  3
 10 19  1  0
 11 12  1  0
 12 13  2  3
 13 14  1  0
 15 14  1  1
 15 16  1  0
 15 18  1  0
 16 17  1  0
 17 18  1  0
 19 20  1  1
 19 21  1  0
 19 22  1  0
 23 24  1  0
 24 25  2  0
 25 26  1  0
 26 27  1  0
 27 28  1  0
 28 29  2  0
 28 30  1  0
 30 31  1  0
 31 32  2  0
M  CHG  1   1   1
M  END
