
     RDKit          3D

 32 33  0  0  0  0  0  0  0  0999 V2000
    5.4040    1.7300   -0.2340 C   0  0  0  0  0  0  0  0  0  0  0  0
    5.4680    0.5130   -0.0500 C   0  0  0  0  0  0  0  0  0  0  0  0
    5.4670   -0.9830    0.2340 C   0  0  0  0  0  0  0  0  0  0  0  0
    6.6110   -1.3960   -0.3230 C   0  0  0  0  0  0  0  0  0  0  0  0
    7.5500   -0.8260   -0.9280 F   0  0  0  0  0  0  0  0  0  0  0  0
    6.8270   -2.9720   -0.3500 C   0  0  1  0  0  0  0  0  0  0  0  0
    7.3850   -3.1440   -1.6810 F   0  0  0  0  0  0  0  0  0  0  0  0
    7.7000   -3.2940    0.5910 F   0  0  0  0  0  0  0  0  0  0  0  0
    4.3530   -1.6780    0.9130 C   0  0  2  0  0  0  0  0  0  0  0  0
    4.8500   -2.8050    1.5620 C   0  0  0  0  0  0  0  0  0  0  0  0
    5.3030   -3.8280    2.1630 N   0  0  0  0  0  0  0  0  0  0  0  0
    3.2960   -2.0560   -0.1290 C   0  0  0  0  0  0  0  0  0  0  0  0
    1.9430   -2.2260    0.6380 C   0  0  0  0  0  0  0  0  0  0  0  0
    1.4730   -0.9040    0.9430 N   0  0  0  0  0  0  0  0  0  0  0  0
    0.3940   -0.3700    1.4740 C   0  0  0  0  0  0  0  0  0  0  0  0
   -0.2850   -0.7910    2.4750 O   0  0  0  0  0  0  0  0  0  0  0  0
   -0.3250    0.9100    1.0120 C   0  0  1  0  0  0  0  0  0  0  0  0
    0.3580    1.5660   -0.0330 N   0  0  0  0  0  0  0  0  0  0  0  0
   -1.7330    0.6930    0.7190 C   0  0  1  0  0  0  0  0  0  0  0  0
   -1.9710   -0.1870   -0.4860 C   0  0  0  0  0  0  0  0  0  0  0  0
   -2.5380   -0.0490    1.8200 C   0  0  0  0  0  0  0  0  0  0  0  0
   -2.6080    1.9750    0.5890 C   0  0  0  0  0  0  0  0  0  0  0  0
   -3.8520    1.4400    0.1060 N   0  0  0  0  0  0  0  0  0  0  0  0
   -5.0070    2.2070   -0.2720 C   0  0  0  0  0  0  0  0  0  0  0  0
   -4.9720    3.3950   -0.0930 O   0  0  0  0  0  0  0  0  0  0  0  0
   -6.1160    1.3840   -0.8850 C   0  0  2  0  0  0  0  0  0  0  0  0
   -5.5660    0.8890   -2.2660 C   0  0  0  0  0  0  0  0  0  0  0  0
   -6.8410    0.6260   -3.0210 C   0  0  0  0  0  0  0  0  0  0  0  0
   -7.8950    1.0850   -2.0540 C   0  0  0  0  0  0  0  0  0  0  0  0
   -7.2390    2.0070   -1.2110 O   0  0  0  0  0  0  0  0  0  0  0  0
    2.6490    0.0670    0.9880 C   0  0  0  0  0  0  0  0  0  0  0  0
    3.7480   -0.6290    1.8060 C   0  0  0  0  0  0  0  0  0  0  0  0
  1  2  2  0
  2  3  1  0
  3  4  2  3
  3  9  1  0
  4  5  1  0
  4  6  1  0
  6  7  1  6
  6  8  1  0
  9 10  1  1
  9 12  1  0
  9 32  1  0
 10 11  3  0
 12 13  1  0
 13 14  1  0
 14 15  1  0
 14 31  1  0
 15 16  2  0
 15 17  1  0
 17 18  1  6
 17 19  1  0
 19 20  1  6
 19 21  1  0
 19 22  1  0
 22 23  1  0
 23 24  1  0
 24 25  2  0
 26 24  1  6
 26 27  1  0
 26 30  1  0
 27 28  1  0
 28 29  1  0
 29 30  1  0
 31 32  1  0
M  CHG  1  18   1
M  END
