
     RDKit          3D

 32 33  0  0  0  0  0  0  0  0999 V2000
   -2.8970    0.3980   -3.7590 C   0  0  0  0  0  0  0  0  0  0  0  0
   -3.3180   -0.9550   -3.2890 C   0  0  0  0  0  0  0  0  0  0  0  0
   -4.0280   -0.9310   -1.9590 C   0  0  2  0  0  0  0  0  0  0  0  0
   -5.2210   -0.1180   -2.0520 N   0  0  0  0  0  0  0  0  0  0  0  0
   -5.8090    0.1630   -0.7830 C   0  0  0  0  0  0  0  0  0  0  0  0
   -4.8710    0.7180    0.2330 C   0  0  0  0  0  0  0  0  0  0  0  0
   -3.4840    0.8190   -0.3050 C   0  0  0  0  0  0  0  0  0  0  0  0
   -3.0760   -0.4960   -0.8970 C   0  0  1  0  0  0  0  0  0  0  0  0
   -2.8910   -1.5180    0.1400 N   0  0  0  0  0  0  0  0  0  0  0  0
   -1.6520   -1.3270    0.8380 C   0  0  0  0  0  0  0  0  0  0  0  0
   -1.7450   -1.7370    2.2950 C   0  0  2  0  0  0  0  0  0  0  0  0
   -2.6950   -1.0140    2.9840 O   0  0  0  0  0  0  0  0  0  0  0  0
   -0.4190   -1.7810    2.9660 C   0  0  0  0  0  0  0  0  0  0  0  0
    0.1970   -0.4890    3.1710 N   0  0  0  0  0  0  0  0  0  0  0  0
   -0.2970    0.5080    4.0670 C   0  0  0  0  0  0  0  0  0  0  0  0
    0.5990    1.7220    4.0140 C   0  0  0  0  0  0  0  0  0  0  0  0
    1.3730   -0.2150    2.4230 C   0  0  0  0  0  0  0  0  0  0  0  0
    2.6790   -0.2700    3.1660 C   0  0  0  0  0  0  0  0  0  0  0  0
    1.3740    0.0700    1.1670 N   0  0  0  0  0  0  0  0  0  0  0  0
    2.5710    0.3330    0.4750 C   0  0  0  0  0  0  0  0  0  0  0  0
    3.1660   -0.6680   -0.2490 C   0  0  0  0  0  0  0  0  0  0  0  0
    4.3450   -0.4420   -0.9400 C   0  0  0  0  0  0  0  0  0  0  0  0
    4.9830    0.7810   -0.9440 C   0  0  0  0  0  0  0  0  0  0  0  0
    6.1030    1.0970   -1.5710 O   0  0  0  0  0  0  0  0  0  0  0  0
    7.0630    0.6340   -2.3870 C   0  0  0  0  0  0  0  0  0  0  0  0
    6.6190    0.2540   -3.7620 C   0  0  1  0  0  0  0  0  0  0  0  0
    6.0590    1.3530   -4.4130 F   0  0  0  0  0  0  0  0  0  0  0  0
    7.7360   -0.0990   -4.5330 F   0  0  0  0  0  0  0  0  0  0  0  0
    5.7400   -0.7590   -3.7560 F   0  0  0  0  0  0  0  0  0  0  0  0
    4.3580    1.8080   -0.1920 C   0  0  0  0  0  0  0  0  0  0  0  0
    4.9530    3.0750   -0.1530 O   0  0  0  0  0  0  0  0  0  0  0  0
    3.1940    1.5550    0.4810 C   0  0  0  0  0  0  0  0  0  0  0  0
  1  2  1  0
  3  2  1  6
  3  4  1  0
  3  8  1  0
  4  5  1  0
  5  6  1  0
  6  7  1  0
  7  8  1  0
  8  9  1  1
  9 10  1  0
 10 11  1  0
 11 12  1  1
 11 13  1  0
 13 14  1  0
 14 15  1  0
 14 17  1  0
 15 16  1  0
 17 18  1  0
 17 19  2  3
 19 20  1  0
 20 21  2  0
 20 32  1  0
 21 22  1  0
 22 23  2  0
 23 24  1  0
 23 30  1  0
 24 25  1  0
 25 26  1  0
 26 27  1  6
 26 28  1  0
 26 29  1  0
 30 31  1  0
 30 32  2  0
M  CHG  1   9   1
M  END
