
     RDKit          3D

 32 33  0  0  0  0  0  0  0  0999 V2000
    8.6860   -2.7980    1.3610 C   0  0  0  0  0  0  0  0  0  0  0  0
    7.7200   -2.3840    0.4920 O   0  0  0  0  0  0  0  0  0  0  0  0
    7.0340   -1.2380    0.8870 C   0  0  0  0  0  0  0  0  0  0  0  0
    7.9070   -0.0680    0.9310 C   0  0  2  0  0  0  0  0  0  0  0  0
    7.4020    1.2540    1.3610 C   0  0  0  0  0  0  0  0  0  0  0  0
    6.3310    1.8130    0.6250 N   0  0  0  0  0  0  0  0  0  0  0  0
    5.0010    1.3170    0.6470 C   0  0  0  0  0  0  0  0  0  0  0  0
    4.6920    0.3440    1.3670 O   0  0  0  0  0  0  0  0  0  0  0  0
    4.0090    1.9170   -0.1460 N   0  0  0  0  0  0  0  0  0  0  0  0
    2.6550    1.5080   -0.1830 C   0  0  0  0  0  0  0  0  0  0  0  0
    1.8470    1.9640   -1.2390 C   0  0  0  0  0  0  0  0  0  0  0  0
    0.5150    1.6300   -1.3420 C   0  0  0  0  0  0  0  0  0  0  0  0
   -0.1220    0.8320   -0.4300 C   0  0  0  0  0  0  0  0  0  0  0  0
   -1.4790    0.4390   -0.4880 N   0  0  0  0  0  0  0  0  0  0  0  0
   -2.3840    0.5980   -1.5340 C   0  0  0  0  0  0  0  0  0  0  0  0
   -2.0230    1.1520   -2.5970 O   0  0  0  0  0  0  0  0  0  0  0  0
   -3.7990    0.1500   -1.4940 C   0  0  0  0  0  0  0  0  0  0  0  0
   -4.1710   -0.4810   -0.2580 N   0  0  0  0  0  0  0  0  0  0  0  0
   -5.4580   -1.0910   -0.2790 C   0  0  2  0  0  0  0  0  0  0  0  0
   -6.1350   -1.0200   -1.6260 C   0  0  0  0  0  0  0  0  0  0  0  0
   -7.5530   -1.5610   -1.3890 C   0  0  0  0  0  0  0  0  0  0  0  0
   -8.3540   -0.5560   -0.6330 C   0  0  0  0  0  0  0  0  0  0  0  0
   -7.6140   -0.1740    0.5980 C   0  0  0  0  0  0  0  0  0  0  0  0
   -8.3960    0.5080    1.6830 C   0  0  0  0  0  0  0  0  0  0  0  0
   -6.3290   -0.4290    0.7160 C   0  0  0  0  0  0  0  0  0  0  0  0
   -5.6850    0.0030    2.0120 C   0  0  0  0  0  0  0  0  0  0  0  0
    0.6900    0.3820    0.6190 C   0  0  0  0  0  0  0  0  0  0  0  0
    2.0220    0.7140    0.7270 C   0  0  0  0  0  0  0  0  0  0  0  0
    8.4500    0.1540   -0.5130 C   0  0  2  0  0  0  0  0  0  0  0  0
    9.2830    1.2370   -0.5430 F   0  0  0  0  0  0  0  0  0  0  0  0
    7.3170    0.5070   -1.2400 F   0  0  0  0  0  0  0  0  0  0  0  0
    8.9880   -1.0180   -0.9230 F   0  0  0  0  0  0  0  0  0  0  0  0
  1  2  1  0
  2  3  1  0
  4  3  1  6
  4  5  1  0
  4 29  1  0
  5  6  1  0
  6  7  1  0
  7  8  2  0
  7  9  1  0
  9 10  1  0
 10 11  2  0
 10 28  1  0
 11 12  1  0
 12 13  2  0
 13 14  1  0
 13 27  1  0
 14 15  1  0
 15 16  2  0
 15 17  1  0
 17 18  1  0
 19 18  1  6
 19 20  1  0
 19 25  1  0
 20 21  1  0
 21 22  1  0
 22 23  1  0
 23 24  1  0
 23 25  2  0
 25 26  1  0
 27 28  2  0
 29 30  1  1
 29 31  1  0
 29 32  1  0
M  CHG  1  18   1
M  END
