
     RDKit          3D

 32 33  0  0  0  0  0  0  0  0999 V2000
   -6.8340   -0.8950    1.9650 C   0  0  0  0  0  0  0  0  0  0  0  0
   -7.4840   -0.6290    0.6120 C   0  0  0  0  0  0  0  0  0  0  0  0
   -7.0160    0.7210    0.1320 C   0  0  2  0  0  0  0  0  0  0  0  0
   -7.5910    1.1000   -1.2010 C   0  0  0  0  0  0  0  0  0  0  0  0
   -5.5530    0.8400    0.1360 N   0  0  0  0  0  0  0  0  0  0  0  0
   -4.9330   -0.0720   -0.7370 C   0  0  0  0  0  0  0  0  0  0  0  0
   -3.4750    0.0700   -0.8340 C   0  0  0  0  0  0  0  0  0  0  0  0
   -2.8550   -0.9080   -1.6580 C   0  0  0  0  0  0  0  0  0  0  0  0
   -3.5990   -1.8650   -2.2750 F   0  0  0  0  0  0  0  0  0  0  0  0
   -1.4990   -0.9260   -1.8620 C   0  0  0  0  0  0  0  0  0  0  0  0
   -0.6900    0.0130   -1.2680 C   0  0  0  0  0  0  0  0  0  0  0  0
    0.8010    0.0470   -1.4440 C   0  0  2  0  0  0  0  0  0  0  0  0
    1.1220    0.5620   -2.8450 C   0  0  0  0  0  0  0  0  0  0  0  0
    1.3420   -1.2690   -1.2180 N   0  0  0  0  0  0  0  0  0  0  0  0
    1.6470   -1.4550    0.1620 C   0  0  0  0  0  0  0  0  0  0  0  0
    2.9420   -0.8370    0.5070 C   0  0  0  0  0  0  0  0  0  0  0  0
    3.4010   -0.8980    1.7060 O   0  0  0  0  0  0  0  0  0  0  0  0
    3.7870   -0.1410   -0.3950 N   0  0  0  0  0  0  0  0  0  0  0  0
    5.0220    0.4240    0.0160 N   0  0  0  0  0  0  0  0  0  0  0  0
    6.0020   -0.4060    0.5880 C   0  0  0  0  0  0  0  0  0  0  0  0
    5.7290   -1.6380    0.7100 O   0  0  0  0  0  0  0  0  0  0  0  0
    7.3030    0.0840    1.0400 C   0  0  0  0  0  0  0  0  0  0  0  0
    7.8200    1.3590    0.9940 C   0  0  0  0  0  0  0  0  0  0  0  0
    9.0370    1.3670    1.5110 O   0  0  0  0  0  0  0  0  0  0  0  0
    9.3670    0.1660    1.9030 C   0  0  0  0  0  0  0  0  0  0  0  0
   10.6720   -0.1700    2.5290 C   0  0  0  0  0  0  0  0  0  0  0  0
    8.3040   -0.6820    1.6270 C   0  0  0  0  0  0  0  0  0  0  0  0
   -1.3040    0.9440   -0.4830 C   0  0  0  0  0  0  0  0  0  0  0  0
   -2.6970    1.0010   -0.2460 C   0  0  0  0  0  0  0  0  0  0  0  0
   -3.1310    2.1410    0.5880 C   0  0  2  0  0  0  0  0  0  0  0  0
   -2.4200    3.2490    0.0910 F   0  0  0  0  0  0  0  0  0  0  0  0
   -2.5740    1.9650    1.8720 F   0  0  0  0  0  0  0  0  0  0  0  0
  1  2  1  0
  2  3  1  0
  3  4  1  6
  3  5  1  0
  5  6  1  0
  6  7  1  0
  7  8  2  0
  7 29  1  0
  8  9  1  0
  8 10  1  0
 10 11  2  0
 11 12  1  0
 11 28  1  0
 12 13  1  6
 12 14  1  0
 14 15  1  0
 15 16  1  0
 16 17  2  0
 16 18  1  0
 18 19  1  0
 19 20  1  0
 20 21  2  0
 20 22  1  0
 22 23  2  0
 22 27  1  0
 23 24  1  0
 24 25  1  0
 25 26  1  0
 25 27  2  0
 28 29  2  0
 29 30  1  0
 30 31  1  6
 30 32  1  0
M  CHG  1  14   1
M  END
