
     RDKit          3D

 32 33  0  0  0  0  0  0  0  0999 V2000
   -2.1270   -3.9740    0.4370 C   0  0  0  0  0  0  0  0  0  0  0  0
   -1.6970   -3.5700   -0.8400 O   0  0  0  0  0  0  0  0  0  0  0  0
   -1.2610   -2.2750   -1.0390 C   0  0  0  0  0  0  0  0  0  0  0  0
   -2.1000   -1.2760   -1.4670 C   0  0  0  0  0  0  0  0  0  0  0  0
   -3.5340   -1.4250   -1.7620 C   0  0  0  0  0  0  0  0  0  0  0  0
   -4.3780   -1.3800   -0.5520 C   0  0  0  0  0  0  0  0  0  0  0  0
   -4.3210   -0.2110    0.2290 N   0  0  0  0  0  0  0  0  0  0  0  0
   -4.8420    0.9960   -0.2830 C   0  0  0  0  0  0  0  0  0  0  0  0
   -5.0990    1.9000    0.9360 C   0  0  0  0  0  0  0  0  0  0  0  0
   -3.9440    2.2130    1.5960 O   0  0  0  0  0  0  0  0  0  0  0  0
   -2.9530    1.2800    1.6150 C   0  0  1  0  0  0  0  0  0  0  0  0
   -2.3520    1.2360    3.0220 C   0  0  0  0  0  0  0  0  0  0  0  0
   -3.3590   -0.1220    1.2600 C   0  0  0  0  0  0  0  0  0  0  0  0
   -1.5380   -0.0130   -1.6300 C   0  0  0  0  0  0  0  0  0  0  0  0
   -0.2220    0.2630   -1.3860 C   0  0  0  0  0  0  0  0  0  0  0  0
    0.2990    1.5880   -1.5690 N   0  0  0  0  0  0  0  0  0  0  0  0
    0.6090   -0.7960   -0.9450 C   0  0  0  0  0  0  0  0  0  0  0  0
    1.9760   -0.4300   -0.7060 C   0  0  0  0  0  0  0  0  0  0  0  0
    2.4040    0.8150   -1.1240 F   0  0  0  0  0  0  0  0  0  0  0  0
    2.8740   -1.1770   -0.1310 C   0  0  0  0  0  0  0  0  0  0  0  0
    4.2190   -0.6560    0.0300 N   0  0  0  0  0  0  0  0  0  0  0  0
    4.5430    0.5870   -0.5350 C   0  0  0  0  0  0  0  0  0  0  0  0
    4.7250    1.6290    0.2950 C   0  0  0  0  0  0  0  0  0  0  0  0
    4.5910    1.4760    1.7200 C   0  0  0  0  0  0  0  0  0  0  0  0
    4.7060    2.3640    2.6510 C   0  0  0  0  0  0  0  0  0  0  0  0
    4.9830    3.6740    2.4720 F   0  0  0  0  0  0  0  0  0  0  0  0
    4.5420    2.0110    3.9730 F   0  0  0  0  0  0  0  0  0  0  0  0
    5.0580    2.9410   -0.3110 C   0  0  0  0  0  0  0  0  0  0  0  0
    6.3800    3.3290    0.0970 N   0  0  0  0  0  0  0  0  0  0  0  0
    0.0960   -2.0430   -0.7780 C   0  0  0  0  0  0  0  0  0  0  0  0
    0.8230   -3.1050   -0.3690 O   0  0  0  0  0  0  0  0  0  0  0  0
    1.4430   -4.0390   -1.2510 C   0  0  0  0  0  0  0  0  0  0  0  0
  1  2  1  0
  2  3  1  0
  3  4  2  0
  3 30  1  0
  4  5  1  0
  4 14  1  0
  5  6  1  0
  6  7  1  0
  7  8  1  0
  7 13  1  0
  8  9  1  0
  9 10  1  0
 10 11  1  0
 11 12  1  1
 11 13  1  0
 14 15  2  0
 15 16  1  0
 15 17  1  0
 17 18  1  0
 17 30  2  0
 18 19  1  0
 18 20  2  3
 20 21  1  0
 21 22  1  0
 22 23  2  3
 23 24  1  0
 23 28  1  0
 24 25  2  3
 25 26  1  0
 25 27  1  0
 28 29  1  0
 30 31  1  0
 31 32  1  0
M  CHG  1  29   1
M  END
