
     RDKit          3D

 36 39  0  0  0  0  0  0  0  0999 V2000
   -5.6330   -1.6930    2.6500 C   0  0  0  0  0  0  0  0  0  0  0  0
   -5.6010   -0.6420    1.6050 C   0  0  0  0  0  0  0  0  0  0  0  0
   -6.5810   -0.2650    0.7480 N   0  0  0  0  0  0  0  0  0  0  0  0
   -6.1670    0.7310   -0.0300 C   0  0  0  0  0  0  0  0  0  0  0  0
   -6.9770    1.3600   -1.0850 C   0  0  0  0  0  0  0  0  0  0  0  0
   -6.4950    2.3030   -1.8070 O   0  0  0  0  0  0  0  0  0  0  0  0
   -8.2180    1.0200   -1.3690 O   0  0  0  0  0  0  0  0  0  0  0  0
   -9.2700    1.2240   -2.1500 C   0  0  0  0  0  0  0  0  0  0  0  0
   -9.1470    1.0230   -3.6410 C   0  0  0  0  0  0  0  0  0  0  0  0
  -10.4360    1.3130   -4.1410 F   0  0  0  0  0  0  0  0  0  0  0  0
   -4.8700    1.0110    0.3370 C   0  0  0  0  0  0  0  0  0  0  0  0
   -4.1060    2.1130   -0.3060 C   0  0  0  0  0  0  0  0  0  0  0  0
   -4.4740    0.1850    1.3440 C   0  0  0  0  0  0  0  0  0  0  0  0
   -3.2540    0.0420    2.0860 C   0  0  0  0  0  0  0  0  0  0  0  0
   -3.3050    0.3070    3.3640 O   0  0  0  0  0  0  0  0  0  0  0  0
   -1.9540   -0.3670    1.6130 C   0  0  0  0  0  0  0  0  0  0  0  0
   -1.1300   -1.0870    2.4840 C   0  0  0  0  0  0  0  0  0  0  0  0
    0.1390   -1.5080    2.2140 C   0  0  0  0  0  0  0  0  0  0  0  0
    0.6420   -1.1690    0.9480 C   0  0  0  0  0  0  0  0  0  0  0  0
    1.9590   -1.5020    0.5620 N   0  0  0  0  0  0  0  0  0  0  0  0
    2.8560   -2.2350    1.3760 C   0  0  0  0  0  0  0  0  0  0  0  0
    4.2970   -2.0210    1.0360 C   0  0  0  0  0  0  0  0  0  0  0  0
    5.1010   -2.7290    1.7310 O   0  0  0  0  0  0  0  0  0  0  0  0
    4.7260   -1.1360    0.0700 N   0  0  0  0  0  0  0  0  0  0  0  0
    6.0680   -0.8860   -0.2840 C   0  0  0  0  0  0  0  0  0  0  0  0
    7.1100   -1.7200   -0.0670 C   0  0  0  0  0  0  0  0  0  0  0  0
    8.4520   -1.4160   -0.3950 C   0  0  0  0  0  0  0  0  0  0  0  0
    8.6690   -0.1590   -0.9740 C   0  0  0  0  0  0  0  0  0  0  0  0
    7.6450    0.7190   -1.2110 C   0  0  0  0  0  0  0  0  0  0  0  0
    6.3780    0.3430   -0.8670 C   0  0  0  0  0  0  0  0  0  0  0  0
    7.9830    1.9300   -1.7850 O   0  0  0  0  0  0  0  0  0  0  0  0
    9.2370    2.5470   -1.5840 C   0  0  0  0  0  0  0  0  0  0  0  0
   10.3320    1.6160   -1.1750 C   0  0  0  0  0  0  0  0  0  0  0  0
    9.9650    0.2460   -1.3330 O   0  0  0  0  0  0  0  0  0  0  0  0
   -0.1270   -0.4650    0.0500 C   0  0  0  0  0  0  0  0  0  0  0  0
   -1.3920   -0.0920    0.4110 C   0  0  0  0  0  0  0  0  0  0  0  0
  1  2  1  0
  2  3  1  0
  2 13  2  0
  3  4  1  0
  4  5  1  0
  4 11  2  0
  5  6  2  0
  5  7  1  0
  7  8  1  0
  8  9  1  0
  9 10  1  0
 11 12  1  0
 11 13  1  0
 13 14  1  0
 14 15  2  0
 14 16  1  0
 16 17  2  0
 16 36  1  0
 17 18  1  0
 18 19  2  0
 19 20  1  0
 19 35  1  0
 20 21  1  0
 21 22  1  0
 22 23  2  0
 22 24  1  0
 24 25  1  0
 25 26  2  0
 25 30  1  0
 26 27  1  0
 27 28  2  0
 28 29  1  0
 28 34  1  0
 29 30  2  0
 29 31  1  0
 31 32  1  0
 32 33  1  0
 33 34  1  0
 35 36  2  0
M  END
