
     RDKit          3D

 36 39  0  0  0  0  0  0  0  0999 V2000
    5.3260   -1.1440    4.3030 C   0  0  0  0  0  0  0  0  0  0  0  0
    6.3210   -0.2900    3.8410 O   0  0  0  0  0  0  0  0  0  0  0  0
    6.4150    0.1350    2.5350 C   0  0  0  0  0  0  0  0  0  0  0  0
    5.5710   -0.1940    1.5350 C   0  0  0  0  0  0  0  0  0  0  0  0
    5.6480    0.2100    0.2490 C   0  0  0  0  0  0  0  0  0  0  0  0
    4.7840   -0.0730   -0.7850 N   0  0  0  0  0  0  0  0  0  0  0  0
    3.6110   -0.8150   -0.9250 C   0  0  0  0  0  0  0  0  0  0  0  0
    3.5680   -2.0860   -1.3780 C   0  0  0  0  0  0  0  0  0  0  0  0
    4.8230   -2.8210   -1.6500 C   0  0  0  0  0  0  0  0  0  0  0  0
    5.7730   -3.3690   -1.8360 N   0  0  0  0  0  0  0  0  0  0  0  0
    2.3440   -2.7180   -1.6060 C   0  0  0  0  0  0  0  0  0  0  0  0
    1.2010   -2.0460   -1.3650 N   0  0  0  0  0  0  0  0  0  0  0  0
    1.2020   -0.7990   -0.9150 C   0  0  0  0  0  0  0  0  0  0  0  0
    0.0000   -0.1250   -0.6330 C   0  0  0  0  0  0  0  0  0  0  0  0
   -0.0030    1.1440   -0.1370 C   0  0  0  0  0  0  0  0  0  0  0  0
   -1.1150    1.8520    0.1510 O   0  0  0  0  0  0  0  0  0  0  0  0
   -2.4530    1.6340   -0.0180 C   0  0  0  0  0  0  0  0  0  0  0  0
   -2.8480    1.5490   -1.4580 C   0  0  0  0  0  0  0  0  0  0  0  0
   -4.3040    1.3910   -1.7240 C   0  0  0  0  0  0  0  0  0  0  0  0
   -4.9710    0.2450   -1.2560 N   0  0  2  0  0  0  0  0  0  0  0  0
   -5.5060    0.3030    0.0840 C   0  0  0  0  0  0  0  0  0  0  0  0
   -6.7410   -0.6060    0.1110 C   0  0  0  0  0  0  0  0  0  0  0  0
   -6.4770   -1.7990   -0.6660 N   0  0  2  0  0  0  0  0  0  0  0  0
   -7.0950   -2.9150    0.0170 C   0  0  0  0  0  0  0  0  0  0  0  0
   -5.0570   -2.0730   -0.7230 C   0  0  0  0  0  0  0  0  0  0  0  0
   -4.2950   -1.0020   -1.4680 C   0  0  0  0  0  0  0  0  0  0  0  0
    1.2380    1.8370    0.1160 C   0  0  0  0  0  0  0  0  0  0  0  0
    1.1420    3.0270    0.5980 O   0  0  0  0  0  0  0  0  0  0  0  0
    1.8860    4.1050    1.0290 C   0  0  0  0  0  0  0  0  0  0  0  0
    2.3680    1.0970   -0.1960 C   0  0  0  0  0  0  0  0  0  0  0  0
    2.3890   -0.1600   -0.6880 C   0  0  0  0  0  0  0  0  0  0  0  0
    6.7390    1.0640   -0.0220 C   0  0  0  0  0  0  0  0  0  0  0  0
    7.0120    1.6780   -1.6640 Cl  0  0  0  0  0  0  0  0  0  0  0  0
    7.6490    1.4630    0.9110 C   0  0  0  0  0  0  0  0  0  0  0  0
    7.4730    0.9780    2.2180 C   0  0  0  0  0  0  0  0  0  0  0  0
    8.6520    1.4870    3.4390 Cl  0  0  0  0  0  0  0  0  0  0  0  0
  1  2  1  0
  2  3  1  0
  3  4  2  0
  3 35  1  0
  4  5  1  0
  5  6  1  0
  5 32  2  0
  6  7  1  0
  7  8  2  0
  7 31  1  0
  8  9  1  0
  8 11  1  0
  9 10  3  0
 11 12  2  0
 12 13  1  0
 13 14  2  0
 13 31  1  0
 14 15  1  0
 15 16  1  0
 15 27  2  0
 16 17  1  0
 17 18  1  0
 18 19  1  0
 20 19  1  1
 20 21  1  0
 20 26  1  0
 21 22  1  0
 22 23  1  0
 23 24  1  1
 23 25  1  0
 25 26  1  0
 27 28  1  0
 27 30  1  0
 28 29  1  0
 30 31  2  0
 32 33  1  0
 32 34  1  0
 34 35  2  0
 35 36  1  0
M  CHG  2  20   1  23   1
M  END
