
     RDKit          3D

 36 39  0  0  0  0  0  0  0  0999 V2000
   -7.2130    1.9130    0.2270 C   0  0  0  0  0  0  0  0  0  0  0  0
   -6.9130    0.4290    0.0690 C   0  0  0  0  0  0  0  0  0  0  0  0
   -7.5170   -0.4230    0.8990 C   0  0  0  0  0  0  0  0  0  0  0  0
   -8.3580    0.0810    1.8210 F   0  0  0  0  0  0  0  0  0  0  0  0
   -5.9950    0.0350   -1.0040 C   0  0  0  0  0  0  0  0  0  0  0  0
   -5.7680   -1.4440   -1.0100 C   0  0  0  0  0  0  0  0  0  0  0  0
   -4.9300   -1.8030   -2.0840 O   0  0  0  0  0  0  0  0  0  0  0  0
   -3.7320   -1.1580   -2.0550 C   0  0  0  0  0  0  0  0  0  0  0  0
   -2.8280   -1.4480   -0.9040 C   0  0  0  0  0  0  0  0  0  0  0  0
   -1.6020   -0.5820   -0.9540 C   0  0  0  0  0  0  0  0  0  0  0  0
   -1.4990    0.4570   -0.0160 C   0  0  0  0  0  0  0  0  0  0  0  0
   -0.4110    1.2900   -0.0150 C   0  0  0  0  0  0  0  0  0  0  0  0
    0.6320    1.1400   -0.9370 C   0  0  0  0  0  0  0  0  0  0  0  0
    1.6840    2.0880   -0.8560 N   0  0  0  0  0  0  0  0  0  0  0  0
    2.8020    1.7640   -0.1840 C   0  0  0  0  0  0  0  0  0  0  0  0
    3.8160    2.6830   -0.0510 C   0  0  0  0  0  0  0  0  0  0  0  0
    3.6420    3.9430   -0.6330 C   0  0  0  0  0  0  0  0  0  0  0  0
    4.5660    4.7850   -0.5130 O   0  0  0  0  0  0  0  0  0  0  0  0
    2.5210    4.2320   -1.2950 N   0  0  0  0  0  0  0  0  0  0  0  0
    1.5460    3.3210   -1.4110 C   0  0  0  0  0  0  0  0  0  0  0  0
    0.4600    3.5250   -2.0240 O   0  0  0  0  0  0  0  0  0  0  0  0
    5.0300    2.3650    0.7030 C   0  0  0  0  0  0  0  0  0  0  0  0
    5.1420    0.9770    1.1680 C   0  0  0  0  0  0  0  0  0  0  0  0
    4.2210    0.0600    1.0640 C   0  0  0  0  0  0  0  0  0  0  0  0
    4.4680   -1.3020    1.5840 C   0  0  0  0  0  0  0  0  0  0  0  0
    3.6450   -2.3870    1.5210 C   0  0  0  0  0  0  0  0  0  0  0  0
    4.2950   -3.4580    2.1440 C   0  0  0  0  0  0  0  0  0  0  0  0
    5.5070   -2.9450    2.5580 C   0  0  0  0  0  0  0  0  0  0  0  0
    6.5710   -3.7250    3.2880 C   0  0  0  0  0  0  0  0  0  0  0  0
    7.5610   -2.8310    3.6790 O   0  0  0  0  0  0  0  0  0  0  0  0
    5.5480   -1.6890    2.2040 O   0  0  0  0  0  0  0  0  0  0  0  0
    2.9930    0.4250    0.3760 C   0  0  0  0  0  0  0  0  0  0  0  0
    2.0860   -0.4180    0.2640 O   0  0  0  0  0  0  0  0  0  0  0  0
    0.5420    0.1370   -1.8480 C   0  0  0  0  0  0  0  0  0  0  0  0
   -0.5770   -0.7130   -1.8440 C   0  0  0  0  0  0  0  0  0  0  0  0
   -0.6590   -1.7470   -2.8080 N   0  0  0  0  0  0  0  0  0  0  0  0
  1  2  1  0
  2  3  2  3
  2  5  1  0
  3  4  1  0
  5  6  1  0
  6  7  1  0
  7  8  1  0
  8  9  1  0
  9 10  1  0
 10 11  2  0
 10 35  1  0
 11 12  1  0
 12 13  2  0
 13 14  1  0
 13 34  1  0
 14 15  1  0
 14 20  1  0
 15 16  2  0
 15 32  1  0
 16 17  1  0
 16 22  1  0
 17 18  2  0
 17 19  1  0
 19 20  1  0
 20 21  2  0
 22 23  1  0
 23 24  2  0
 24 25  1  0
 24 32  1  0
 25 26  2  0
 25 31  1  0
 26 27  1  0
 27 28  2  0
 28 29  1  0
 28 31  1  0
 29 30  1  0
 32 33  2  0
 34 35  2  0
 35 36  1  0
M  END
