
     RDKit          3D

 36 39  0  0  0  0  0  0  0  0999 V2000
    9.1020    1.5640    0.7940 C   0  0  0  0  0  0  0  0  0  0  0  0
    8.2700    0.4530    1.0240 O   0  0  0  0  0  0  0  0  0  0  0  0
    6.8850    0.5370    1.1370 C   0  0  0  0  0  0  0  0  0  0  0  0
    6.3540    1.6710    1.0270 O   0  0  0  0  0  0  0  0  0  0  0  0
    6.1410   -0.7030    1.3760 C   0  0  0  0  0  0  0  0  0  0  0  0
    4.7010   -0.4270    1.4660 N   0  0  0  0  0  0  0  0  0  0  0  0
    3.7880   -1.4970    1.6970 C   0  0  0  0  0  0  0  0  0  0  0  0
    4.2880   -2.6440    1.8120 O   0  0  0  0  0  0  0  0  0  0  0  0
    2.3540   -1.2880    1.7960 C   0  0  0  0  0  0  0  0  0  0  0  0
    1.6300   -0.1230    1.6980 C   0  0  0  0  0  0  0  0  0  0  0  0
    0.2820   -0.3840    1.8550 C   0  0  0  0  0  0  0  0  0  0  0  0
   -0.8840    0.5200    1.8240 C   0  0  1  0  0  0  0  0  0  0  0  0
   -0.5630    1.8400    1.1550 C   0  0  0  0  0  0  0  0  0  0  0  0
   -0.1370    1.6930   -0.2690 C   0  0  0  0  0  0  0  0  0  0  0  0
    0.1840    3.0220   -0.9030 C   0  0  0  0  0  0  0  0  0  0  0  0
    0.6050    2.8760   -2.3130 C   0  0  0  0  0  0  0  0  0  0  0  0
   -0.2190    2.8950   -3.4110 C   0  0  0  0  0  0  0  0  0  0  0  0
    0.6060    2.7230   -4.5260 C   0  0  0  0  0  0  0  0  0  0  0  0
    1.8210    2.6110   -4.1040 O   0  0  0  0  0  0  0  0  0  0  0  0
    1.8780    2.6950   -2.7980 C   0  0  0  0  0  0  0  0  0  0  0  0
   -2.0200   -0.1200    1.1410 N   0  0  0  0  0  0  0  0  0  0  0  0
   -3.2550   -0.3650    1.7880 C   0  0  0  0  0  0  0  0  0  0  0  0
   -3.3260    0.0050    3.0080 O   0  0  0  0  0  0  0  0  0  0  0  0
   -4.4150   -0.9840    1.1960 C   0  0  0  0  0  0  0  0  0  0  0  0
   -5.5650   -1.1610    1.9500 C   0  0  0  0  0  0  0  0  0  0  0  0
   -6.6920   -1.7470    1.4210 C   0  0  0  0  0  0  0  0  0  0  0  0
   -7.7890   -1.8910    2.2170 F   0  0  0  0  0  0  0  0  0  0  0  0
   -6.7080   -2.1740    0.1300 C   0  0  0  0  0  0  0  0  0  0  0  0
   -5.5820   -2.0110   -0.6400 C   0  0  0  0  0  0  0  0  0  0  0  0
   -5.3260   -2.3440   -1.9510 C   0  0  0  0  0  0  0  0  0  0  0  0
   -6.1950   -2.9930   -2.9610 C   0  0  0  0  0  0  0  0  0  0  0  0
   -4.0250   -1.9420   -2.1820 C   0  0  0  0  0  0  0  0  0  0  0  0
   -3.5690   -1.4150   -1.0810 O   0  0  0  0  0  0  0  0  0  0  0  0
   -4.4410   -1.4220   -0.1190 C   0  0  0  0  0  0  0  0  0  0  0  0
    0.2340   -1.7690    2.0520 C   0  0  0  0  0  0  0  0  0  0  0  0
    1.4580   -2.2650    2.0110 N   0  0  0  0  0  0  0  0  0  0  0  0
  1  2  1  0
  2  3  1  0
  3  4  2  0
  3  5  1  0
  5  6  1  0
  6  7  1  0
  7  8  2  0
  7  9  1  0
  9 10  2  0
  9 36  1  0
 10 11  1  0
 11 12  1  0
 11 35  2  0
 12 13  1  6
 12 21  1  0
 13 14  1  0
 14 15  1  0
 15 16  1  0
 16 17  1  0
 16 20  2  0
 17 18  2  0
 18 19  1  0
 19 20  1  0
 21 22  1  0
 22 23  2  0
 22 24  1  0
 24 25  2  0
 24 34  1  0
 25 26  1  0
 26 27  1  0
 26 28  2  0
 28 29  1  0
 29 30  1  0
 29 34  2  0
 30 31  1  0
 30 32  2  0
 32 33  1  0
 33 34  1  0
 35 36  1  0
M  END
