
     RDKit          3D

 36 39  0  0  0  0  0  0  0  0999 V2000
   -3.6210    1.2510   -3.3620 C   0  0  0  0  0  0  0  0  0  0  0  0
   -2.6650    1.8560   -2.3770 C   0  0  0  0  0  0  0  0  0  0  0  0
   -3.0320    1.4170   -0.9520 C   0  0  0  0  0  0  0  0  0  0  0  0
   -2.1580    0.7180   -0.3220 C   0  0  0  0  0  0  0  0  0  0  0  0
   -0.8980    0.4680   -1.1110 N   0  0  0  0  0  0  0  0  0  0  0  0
   -0.7500   -0.7910   -1.6960 C   0  0  0  0  0  0  0  0  0  0  0  0
   -1.8250   -1.2930   -2.4130 O   0  0  0  0  0  0  0  0  0  0  0  0
    0.4060   -1.5430   -1.5920 C   0  0  0  0  0  0  0  0  0  0  0  0
    1.3930   -0.9300   -0.8560 N   0  0  0  0  0  0  0  0  0  0  0  0
    2.6850   -1.2950   -0.4930 C   0  0  0  0  0  0  0  0  0  0  0  0
    3.1180   -2.3920   -0.8700 O   0  0  0  0  0  0  0  0  0  0  0  0
    3.5800   -0.4470    0.3210 C   0  0  0  0  0  0  0  0  0  0  0  0
    3.2160    0.7560    0.8050 C   0  0  0  0  0  0  0  0  0  0  0  0
    4.1370    1.4910    1.5640 C   0  0  0  0  0  0  0  0  0  0  0  0
    5.3650    1.0100    1.8090 N   0  0  0  0  0  0  0  0  0  0  0  0
    5.7690   -0.1870    1.3450 C   0  0  0  0  0  0  0  0  0  0  0  0
    7.1310   -0.7170    1.6170 C   0  0  1  0  0  0  0  0  0  0  0  0
    8.2880    0.2040    1.7150 C   0  0  0  0  0  0  0  0  0  0  0  0
    7.7190   -0.3240    2.9700 C   0  0  0  0  0  0  0  0  0  0  0  0
    4.8520   -0.8970    0.6010 C   0  0  0  0  0  0  0  0  0  0  0  0
    0.3470   -2.7840   -2.2530 C   0  0  0  0  0  0  0  0  0  0  0  0
    1.3520   -3.8310   -2.3680 C   0  0  0  0  0  0  0  0  0  0  0  0
   -0.7770   -3.0500   -2.8640 O   0  0  0  0  0  0  0  0  0  0  0  0
   -2.1580    0.0270    0.9020 C   0  0  0  0  0  0  0  0  0  0  0  0
   -0.9590   -0.4770    1.2100 O   0  0  0  0  0  0  0  0  0  0  0  0
   -3.1640   -0.2650    1.9040 C   0  0  0  0  0  0  0  0  0  0  0  0
   -4.4960   -0.1010    2.0000 C   0  0  0  0  0  0  0  0  0  0  0  0
   -4.9490   -0.5740    3.2340 C   0  0  0  0  0  0  0  0  0  0  0  0
   -3.8180   -1.0230    3.8540 C   0  0  0  0  0  0  0  0  0  0  0  0
   -2.8190   -0.8380    3.0810 O   0  0  0  0  0  0  0  0  0  0  0  0
   -4.2810    2.0100   -0.4900 C   0  0  0  0  0  0  0  0  0  0  0  0
   -5.5450    1.9610   -1.0380 C   0  0  0  0  0  0  0  0  0  0  0  0
   -6.4080    2.6850   -0.2440 C   0  0  0  0  0  0  0  0  0  0  0  0
   -5.6280    3.1590    0.7810 C   0  0  0  0  0  0  0  0  0  0  0  0
   -6.1240    3.9370    1.7970 F   0  0  0  0  0  0  0  0  0  0  0  0
   -4.4090    2.7590    0.6180 O   0  0  0  0  0  0  0  0  0  0  0  0
  1  2  1  0
  2  3  1  0
  3  4  2  3
  3 31  1  0
  4  5  1  0
  4 24  1  0
  5  6  1  0
  6  7  1  0
  6  8  2  3
  8  9  1  0
  8 21  1  0
  9 10  1  0
 10 11  2  0
 10 12  1  0
 12 13  2  0
 12 20  1  0
 13 14  1  0
 14 15  2  0
 15 16  1  0
 17 16  1  1
 16 20  2  0
 17 18  1  0
 17 19  1  0
 18 19  1  0
 21 22  1  0
 21 23  2  0
 24 25  2  0
 24 26  1  0
 26 27  2  0
 26 30  1  0
 27 28  1  0
 28 29  2  0
 29 30  1  0
 31 32  2  0
 31 36  1  0
 32 33  1  0
 33 34  2  0
 34 35  1  0
 34 36  1  0
M  END
