
     RDKit          3D

 36 40  0  0  0  0  0  0  0  0999 V2000
   -0.7000    0.3330    1.0220 C   0  0  0  0  0  0  0  0  0  0  0  0
   -2.1150    0.4190    0.3890 C   0  0  0  0  0  0  0  0  0  0  0  0
   -2.7760    1.6370    0.2610 C   0  0  0  0  0  0  0  0  0  0  0  0
   -4.1310    1.6470   -0.1830 C   0  0  0  0  0  0  0  0  0  0  0  0
   -4.8740    0.5640   -0.5120 C   0  0  0  0  0  0  0  0  0  0  0  0
   -6.1910    0.7100   -0.9210 C   0  0  0  0  0  0  0  0  0  0  0  0
   -6.8850   -0.4400   -1.2290 C   0  0  0  0  0  0  0  0  0  0  0  0
   -6.2730   -1.6630   -1.1280 C   0  0  0  0  0  0  0  0  0  0  0  0
   -4.9600   -1.7760   -0.7200 C   0  0  0  0  0  0  0  0  0  0  0  0
   -4.2170   -0.6230   -0.3940 C   0  0  0  0  0  0  0  0  0  0  0  0
   -2.8550   -0.7270    0.0460 C   0  0  0  0  0  0  0  0  0  0  0  0
   -2.5210   -2.1350   -0.0340 N   0  0  0  0  0  0  0  0  0  0  0  0
   -1.4770   -2.8580   -0.7110 C   0  0  0  0  0  0  0  0  0  0  0  0
   -1.7390   -4.0090   -1.2900 O   0  0  0  0  0  0  0  0  0  0  0  0
   -0.1260   -2.4680   -0.8430 N   0  0  0  0  0  0  0  0  0  0  0  0
    0.9240   -2.4960    0.1470 C   0  0  0  0  0  0  0  0  0  0  0  0
    2.0310   -3.4860   -0.2290 C   0  0  2  0  0  0  0  0  0  0  0  0
    1.6030   -4.7570    0.0800 O   0  0  0  0  0  0  0  0  0  0  0  0
    3.2860   -3.1860    0.5930 C   0  0  0  0  0  0  0  0  0  0  0  0
    4.0730   -2.1200    0.0290 N   0  0  0  0  0  0  0  0  0  0  0  0
    4.2950   -2.2040   -1.4230 C   0  0  0  0  0  0  0  0  0  0  0  0
    4.6360   -1.0370    0.7120 C   0  0  0  0  0  0  0  0  0  0  0  0
    5.8250   -0.6890    0.3940 O   0  0  0  0  0  0  0  0  0  0  0  0
    3.9880   -0.2400    1.7840 C   0  0  0  0  0  0  0  0  0  0  0  0
    3.3110    0.9210    1.2260 N   0  0  0  0  0  0  0  0  0  0  0  0
    3.6080    1.5670    0.0760 C   0  0  0  0  0  0  0  0  0  0  0  0
    2.7070    2.5660   -0.0240 C   0  0  0  0  0  0  0  0  0  0  0  0
    1.8800    2.5020    1.0770 C   0  0  0  0  0  0  0  0  0  0  0  0
    2.2630    1.4890    1.8330 N   0  0  0  0  0  0  0  0  0  0  0  0
    0.8200    3.4690    1.2320 C   0  0  0  0  0  0  0  0  0  0  0  0
    0.0620    3.6400    0.0160 N   0  0  0  0  0  0  0  0  0  0  0  0
    0.8550    3.6360   -1.2260 C   0  0  0  0  0  0  0  0  0  0  0  0
    2.3420    3.6850   -0.9690 C   0  0  0  0  0  0  0  0  0  0  0  0
   -1.3490    3.8520   -0.0600 C   0  0  0  0  0  0  0  0  0  0  0  0
   -1.6130    4.9940   -0.6500 O   0  0  0  0  0  0  0  0  0  0  0  0
   -2.4270    3.0510    0.3880 N   0  0  0  0  0  0  0  0  0  0  0  0
  1  2  1  0
  2  3  2  0
  2 11  1  0
  3  4  1  0
  3 36  1  0
  4  5  2  0
  5  6  1  0
  5 10  1  0
  6  7  2  0
  7  8  1  0
  8  9  2  0
  9 10  1  0
 10 11  2  0
 11 12  1  0
 12 13  1  0
 13 14  2  0
 13 15  1  0
 15 16  1  0
 16 17  1  0
 17 18  1  1
 17 19  1  0
 19 20  1  0
 20 21  1  0
 20 22  1  0
 22 23  2  0
 22 24  1  0
 24 25  1  0
 25 26  1  0
 25 29  1  0
 26 27  2  0
 27 28  1  0
 27 33  1  0
 28 29  2  0
 28 30  1  0
 30 31  1  0
 31 32  1  0
 31 34  1  0
 32 33  1  0
 34 35  2  0
 34 36  1  0
M  END
