
     RDKit          3D

 37 40  0  0  0  0  0  0  0  0999 V2000
   -4.2420   -2.7350    3.5930 C   0  0  0  0  0  0  0  0  0  0  0  0
   -3.1410   -2.1770    2.9160 O   0  0  0  0  0  0  0  0  0  0  0  0
   -3.1540   -2.0910    1.5320 C   0  0  0  0  0  0  0  0  0  0  0  0
   -4.2380   -2.5460    0.7990 C   0  0  0  0  0  0  0  0  0  0  0  0
   -4.2130   -2.4420   -0.5710 C   0  0  0  0  0  0  0  0  0  0  0  0
   -3.1090   -1.8860   -1.2090 C   0  0  0  0  0  0  0  0  0  0  0  0
   -3.0970   -1.7890   -2.5750 O   0  0  0  0  0  0  0  0  0  0  0  0
   -4.1380   -2.2170   -3.4140 C   0  0  0  0  0  0  0  0  0  0  0  0
   -2.0180   -1.4270   -0.4960 C   0  0  0  0  0  0  0  0  0  0  0  0
   -0.9380   -0.8770   -1.1990 N   0  0  0  0  0  0  0  0  0  0  0  0
   -0.5280    0.3450   -1.0760 C   0  0  0  0  0  0  0  0  0  0  0  0
   -1.1320    1.2740   -0.2060 N   0  0  0  0  0  0  0  0  0  0  0  0
   -0.6510    2.4470   -0.0010 C   0  0  0  0  0  0  0  0  0  0  0  0
   -1.3050    3.3990    0.9210 C   0  0  0  0  0  0  0  0  0  0  0  0
   -0.9020    4.7140    0.9820 C   0  0  0  0  0  0  0  0  0  0  0  0
   -1.5080    5.6060    1.8410 C   0  0  0  0  0  0  0  0  0  0  0  0
   -2.5390    5.2290    2.6740 C   0  0  0  0  0  0  0  0  0  0  0  0
   -3.1570    6.1190    3.5440 O   0  0  0  0  0  0  0  0  0  0  0  0
   -2.9320    3.9070    2.6020 C   0  0  0  0  0  0  0  0  0  0  0  0
   -2.3330    3.0050    1.7460 C   0  0  0  0  0  0  0  0  0  0  0  0
    0.5070    2.7900   -0.7260 N   0  0  0  0  0  0  0  0  0  0  0  0
    1.1260    2.0530   -1.5720 C   0  0  0  0  0  0  0  0  0  0  0  0
    2.2900    2.6200   -2.1830 N   0  0  0  0  0  0  0  0  0  0  0  0
    0.6220    0.7290   -1.9010 C   0  0  1  0  0  0  0  0  0  0  0  0
    1.6680   -0.3260   -2.0780 C   0  0  2  0  0  0  0  0  0  0  0  0
    2.3250   -0.8200   -0.8720 C   0  0  0  0  0  0  0  0  0  0  0  0
    2.0940   -0.3560    0.4020 C   0  0  0  0  0  0  0  0  0  0  0  0
    2.7760   -0.9180    1.4620 C   0  0  0  0  0  0  0  0  0  0  0  0
    3.6950   -1.9370    1.3340 C   0  0  0  0  0  0  0  0  0  0  0  0
    4.4150   -2.5280    2.4770 C   0  0  0  0  0  0  0  0  0  0  0  0
    4.0210   -1.9750    3.7380 N   0  0  0  0  0  0  0  0  0  0  0  0
    3.9080   -2.3840    0.0430 C   0  0  0  0  0  0  0  0  0  0  0  0
    3.2400   -1.8400   -1.0330 C   0  0  0  0  0  0  0  0  0  0  0  0
    2.5270    0.0080   -3.1480 N   0  0  0  0  0  0  0  0  0  0  0  0
    1.9990    0.1110   -4.4450 C   0  0  0  0  0  0  0  0  0  0  0  0
    3.9000    0.1550   -2.9370 C   0  0  0  0  0  0  0  0  0  0  0  0
   -2.0660   -1.5410    0.8760 C   0  0  0  0  0  0  0  0  0  0  0  0
  1  2  1  0
  2  3  1  0
  3  4  2  0
  3 37  1  0
  4  5  1  0
  5  6  2  0
  6  7  1  0
  6  9  1  0
  7  8  1  0
  9 10  1  0
  9 37  2  0
 10 11  2  3
 11 12  1  0
 24 11  1  1
 12 13  2  0
 13 14  1  0
 13 21  1  0
 14 15  2  0
 14 20  1  0
 15 16  1  0
 16 17  2  0
 17 18  1  0
 17 19  1  0
 19 20  2  0
 21 22  2  0
 22 23  1  0
 22 24  1  0
 24 25  1  0
 25 26  1  0
 25 34  1  6
 26 27  2  0
 26 33  1  0
 27 28  1  0
 28 29  2  0
 29 30  1  0
 29 32  1  0
 30 31  1  0
 32 33  2  0
 34 35  1  0
 34 36  1  0
M  CHG  1  31   1
M  END
