
     RDKit          3D

 36 40  0  0  0  0  0  0  0  0999 V2000
    2.2440   -3.9400    2.8990 C   0  0  0  0  0  0  0  0  0  0  0  0
    1.8950   -2.7370    2.1140 C   0  0  0  0  0  0  0  0  0  0  0  0
    2.9050   -2.0420    1.4210 C   0  0  0  0  0  0  0  0  0  0  0  0
    2.6550   -0.9350    0.6850 C   0  0  0  0  0  0  0  0  0  0  0  0
    3.6720   -0.2080    0.0760 N   0  0  0  0  0  0  0  0  0  0  0  0
    4.9010   -0.5570   -0.4410 C   0  0  0  0  0  0  0  0  0  0  0  0
    5.7310    0.4200   -0.9470 N   0  0  0  0  0  0  0  0  0  0  0  0
    6.8970    0.1860   -1.5190 C   0  0  0  0  0  0  0  0  0  0  0  0
    7.3330   -1.0890   -1.6290 N   0  0  0  0  0  0  0  0  0  0  0  0
    6.5800   -2.0760   -1.1620 C   0  0  0  0  0  0  0  0  0  0  0  0
    6.9520   -3.2570   -1.2490 O   0  0  0  0  0  0  0  0  0  0  0  0
    5.3760   -1.7940   -0.5770 N   0  0  0  0  0  0  0  0  0  0  0  0
    1.3270   -0.4470    0.6070 C   0  0  0  0  0  0  0  0  0  0  0  0
    0.3440   -1.1600    1.3070 C   0  0  0  0  0  0  0  0  0  0  0  0
    0.6710   -2.2450    2.0100 N   0  0  0  0  0  0  0  0  0  0  0  0
   -1.0560   -0.7720    1.2760 N   0  0  0  0  0  0  0  0  0  0  0  0
   -1.8330   -0.5620    0.1000 C   0  0  1  0  0  0  0  0  0  0  0  0
   -2.5790   -1.8490   -0.2940 C   0  0  1  0  0  0  0  0  0  0  0  0
   -3.6370   -2.2050    0.6950 C   0  0  0  0  0  0  0  0  0  0  0  0
   -4.6050   -3.0240   -0.1690 C   0  0  0  0  0  0  0  0  0  0  0  0
   -4.3150   -2.5070   -1.5420 C   0  0  0  0  0  0  0  0  0  0  0  0
   -3.3040   -1.5590   -1.4360 O   0  0  0  0  0  0  0  0  0  0  0  0
   -2.7400    0.5950    0.1470 C   0  0  0  0  0  0  0  0  0  0  0  0
   -2.8370    1.3400    1.4270 C   0  0  0  0  0  0  0  0  0  0  0  0
   -2.8700    2.8230    1.1530 C   0  0  0  0  0  0  0  0  0  0  0  0
   -2.8440    3.0460   -0.1850 O   0  0  0  0  0  0  0  0  0  0  0  0
   -2.0960    4.1390   -0.5580 N   0  0  0  0  0  0  0  0  0  0  0  0
   -2.6950    5.4280   -0.4290 C   0  0  0  0  0  0  0  0  0  0  0  0
   -0.7620    3.9930   -1.0540 C   0  0  0  0  0  0  0  0  0  0  0  0
   -0.2960    5.0420   -1.6500 O   0  0  0  0  0  0  0  0  0  0  0  0
    0.1100    2.8020   -0.9610 C   0  0  0  0  0  0  0  0  0  0  0  0
    0.6870    2.5770   -2.2380 C   0  0  0  0  0  0  0  0  0  0  0  0
    1.4450    1.4680   -2.5030 C   0  0  0  0  0  0  0  0  0  0  0  0
    1.6270    0.5730   -1.4890 C   0  0  0  0  0  0  0  0  0  0  0  0
    1.0610    0.7790   -0.2110 C   0  0  0  0  0  0  0  0  0  0  0  0
    0.3000    1.9020    0.0740 C   0  0  0  0  0  0  0  0  0  0  0  0
  1  2  1  0
  2  3  2  0
  2 15  1  0
  3  4  1  0
  4  5  1  0
  4 13  2  0
  5  6  1  0
  6  7  2  0
  6 12  1  0
  7  8  1  0
  8  9  2  0
  9 10  1  0
 10 11  2  0
 10 12  1  0
 13 14  1  0
 13 35  1  0
 14 15  2  0
 14 16  1  0
 16 17  1  0
 17 18  1  0
 17 23  1  1
 18 19  1  1
 18 22  1  0
 19 20  1  0
 20 21  1  0
 21 22  1  0
 23 24  1  0
 24 25  1  0
 25 26  1  0
 26 27  1  0
 27 28  1  0
 27 29  1  0
 29 30  2  0
 29 31  1  0
 31 32  1  0
 31 36  2  0
 32 33  2  0
 33 34  1  0
 34 35  2  0
 35 36  1  0
M  END
