
     RDKit          3D

 36 40  0  0  0  0  0  0  0  0999 V2000
   -0.7620   -0.4720   -3.9420 C   0  0  0  0  0  0  0  0  0  0  0  0
   -0.8790   -0.4820   -2.5810 O   0  0  0  0  0  0  0  0  0  0  0  0
   -2.0030   -0.6190   -1.8210 C   0  0  0  0  0  0  0  0  0  0  0  0
   -3.1580   -0.7680   -2.5690 C   0  0  0  0  0  0  0  0  0  0  0  0
   -4.3410   -0.9100   -1.9510 C   0  0  0  0  0  0  0  0  0  0  0  0
   -5.5090   -1.0890   -2.7310 C   0  0  0  0  0  0  0  0  0  0  0  0
   -6.7530   -1.2670   -2.1350 C   0  0  0  0  0  0  0  0  0  0  0  0
   -6.8190   -1.2630   -0.7610 C   0  0  0  0  0  0  0  0  0  0  0  0
   -5.6720   -1.0900   -0.0450 C   0  0  0  0  0  0  0  0  0  0  0  0
   -4.3980   -0.9100   -0.6270 C   0  0  0  0  0  0  0  0  0  0  0  0
   -3.2860   -0.7650    0.2530 C   0  0  0  0  0  0  0  0  0  0  0  0
   -2.0320   -0.6140   -0.3900 C   0  0  0  0  0  0  0  0  0  0  0  0
   -0.9140   -0.4820    0.2890 O   0  0  0  0  0  0  0  0  0  0  0  0
    0.3540   -0.3550    0.4220 N   0  0  0  0  0  0  0  0  0  0  0  0
    1.3530    0.1660    0.9240 C   0  0  0  0  0  0  0  0  0  0  0  0
    2.6620   -0.4170    0.3650 C   0  0  0  0  0  0  0  0  0  0  0  0
    2.6580   -1.3750   -0.4450 O   0  0  0  0  0  0  0  0  0  0  0  0
    3.8550    0.1280    0.7530 N   0  0  0  0  0  0  0  0  0  0  0  0
    5.1920   -0.2770    0.3680 C   0  0  2  0  0  0  0  0  0  0  0  0
    6.1690    0.5530    0.9330 C   0  0  0  0  0  0  0  0  0  0  0  0
    7.0670    1.3130    1.4270 N   0  0  0  0  0  0  0  0  0  0  0  0
    5.2450   -0.1530   -1.1800 C   0  0  0  0  0  0  0  0  0  0  0  0
    6.1800   -1.2190   -1.6250 C   0  0  0  0  0  0  0  0  0  0  0  0
    6.6310   -1.9700   -0.3720 C   0  0  0  0  0  0  0  0  0  0  0  0
    5.4550   -1.7330    0.5600 C   0  0  0  0  0  0  0  0  0  0  0  0
    1.4750    1.1850    1.9490 C   0  0  0  0  0  0  0  0  0  0  0  0
    2.3780    0.9370    2.8660 O   0  0  0  0  0  0  0  0  0  0  0  0
    0.8010    2.4090    2.1680 N   0  0  0  0  0  0  0  0  0  0  0  0
   -0.6250    2.4900    2.4100 C   0  0  0  0  0  0  0  0  0  0  0  0
   -1.3380    1.4740    2.4360 N   0  0  0  0  0  0  0  0  0  0  0  0
   -2.6330    1.2420    2.7570 C   0  0  0  0  0  0  0  0  0  0  0  0
   -3.2960    2.3490    3.1300 N   0  0  0  0  0  0  0  0  0  0  0  0
   -2.6160    3.5680    3.1400 N   0  0  0  0  0  0  0  0  0  0  0  0
   -1.2860    3.7850    2.6290 C   0  0  0  0  0  0  0  0  0  0  0  0
   -3.3340   -0.0330    2.6950 C   0  0  0  0  0  0  0  0  0  0  0  0
   -3.5710   -0.7990    1.6440 C   0  0  0  0  0  0  0  0  0  0  0  0
  1  2  1  0
  2  3  1  0
  3  4  2  0
  3 12  1  0
  4  5  1  0
  5  6  2  0
  5 10  1  0
  6  7  1  0
  7  8  2  0
  8  9  1  0
  9 10  2  0
 10 11  1  0
 11 12  2  0
 11 36  1  0
 12 13  1  0
 13 14  1  0
 14 15  2  0
 15 16  1  0
 15 26  1  0
 16 17  2  0
 16 18  1  0
 18 19  1  0
 19 20  1  1
 19 22  1  0
 19 25  1  0
 20 21  3  0
 22 23  1  0
 23 24  1  0
 24 25  1  0
 26 27  2  0
 26 28  1  0
 28 29  1  0
 29 30  2  0
 29 34  1  0
 30 31  1  0
 31 32  2  0
 31 35  1  0
 32 33  1  0
 33 34  1  0
 35 36  2  0
M  END
