
     RDKit          3D

 37 39  0  0  0  0  0  0  0  0999 V2000
   -6.4230    6.7490    2.2350 C   0  0  0  0  0  0  0  0  0  0  0  0
   -5.3050    5.6830    2.3360 C   0  0  0  0  0  0  0  0  0  0  0  0
   -5.0410    5.1220    0.9670 C   0  0  0  0  0  0  0  0  0  0  0  0
   -3.9920    4.1040    1.0030 C   0  0  0  0  0  0  0  0  0  0  0  0
   -3.4500    3.8130    2.1650 C   0  0  0  0  0  0  0  0  0  0  0  0
   -2.3810    2.8230    2.4270 C   0  0  0  0  0  0  0  0  0  0  0  0
   -2.0770    1.7170    1.7090 C   0  0  0  0  0  0  0  0  0  0  0  0
   -0.9970    0.9550    2.1900 N   0  0  0  0  0  0  0  0  0  0  0  0
    0.0940    0.6170    1.3740 C   0  0  0  0  0  0  0  0  0  0  0  0
    0.0390    1.0460    0.1770 O   0  0  0  0  0  0  0  0  0  0  0  0
    1.2620   -0.1770    1.8070 C   0  0  0  0  0  0  0  0  0  0  0  0
    2.2090   -0.3120    0.6670 C   0  0  0  0  0  0  0  0  0  0  0  0
    3.4390   -1.1040    1.0040 C   0  0  0  0  0  0  0  0  0  0  0  0
    3.4800   -1.5420    2.1590 O   0  0  0  0  0  0  0  0  0  0  0  0
    4.4630   -1.3330    0.0930 N   0  0  0  0  0  0  0  0  0  0  0  0
    5.6410   -2.0620    0.3230 C   0  0  0  0  0  0  0  0  0  0  0  0
    5.9060   -2.7090    1.4540 C   0  0  0  0  0  0  0  0  0  0  0  0
    7.1560   -3.4540    1.6320 C   0  0  0  0  0  0  0  0  0  0  0  0
    8.0860   -3.5300    0.6990 C   0  0  0  0  0  0  0  0  0  0  0  0
    7.8040   -2.8380   -0.5100 N   0  0  0  0  0  0  0  0  0  0  0  0
    6.6350   -2.1210   -0.7210 N   0  0  0  0  0  0  0  0  0  0  0  0
    6.3700   -1.3940   -1.9380 C   0  0  1  0  0  0  0  0  0  0  0  0
    6.3500    0.1180   -1.6760 C   0  0  0  0  0  0  0  0  0  0  0  0
    7.4460   -1.6230   -2.9780 C   0  0  0  0  0  0  0  0  0  0  0  0
   -2.6820    1.2820    0.4830 C   0  0  0  0  0  0  0  0  0  0  0  0
   -2.9340    0.0140    0.2700 C   0  0  0  0  0  0  0  0  0  0  0  0
   -2.6490   -1.0250    1.2250 C   0  0  0  0  0  0  0  0  0  0  0  0
   -2.8630   -2.3200    0.9930 C   0  0  0  0  0  0  0  0  0  0  0  0
   -3.4120   -2.7540   -0.2640 C   0  0  0  0  0  0  0  0  0  0  0  0
   -3.6990   -1.8530   -1.1770 C   0  0  0  0  0  0  0  0  0  0  0  0
   -4.2490   -2.3870   -2.4090 N   0  0  0  0  0  0  0  0  0  0  0  0
   -3.2620   -3.1480   -3.1380 C   0  0  0  0  0  0  0  0  0  0  0  0
   -3.5190   -4.6220   -2.9880 C   0  0  0  0  0  0  0  0  0  0  0  0
   -3.4970   -0.4030   -1.0500 C   0  0  0  0  0  0  0  0  0  0  0  0
   -3.1380    2.2570   -0.5550 C   0  0  0  0  0  0  0  0  0  0  0  0
   -3.0150    1.9380   -1.7440 O   0  0  0  0  0  0  0  0  0  0  0  0
   -3.7200    3.5610   -0.3120 N   0  0  0  0  0  0  0  0  0  0  0  0
  1  2  1  0
  2  3  1  0
  3  4  1  0
  4  5  2  0
  4 37  1  0
  5  6  1  0
  6  7  2  0
  7  8  1  0
  7 25  1  0
  8  9  1  0
  9 10  2  0
  9 11  1  0
 11 12  1  0
 12 13  1  0
 13 14  2  0
 13 15  1  0
 15 16  1  0
 16 17  2  0
 16 21  1  0
 17 18  1  0
 18 19  2  0
 19 20  1  0
 20 21  1  0
 21 22  1  0
 22 23  1  1
 22 24  1  0
 25 26  2  3
 25 35  1  0
 26 27  1  0
 26 34  1  0
 27 28  2  0
 28 29  1  0
 29 30  2  0
 30 31  1  0
 30 34  1  0
 31 32  1  0
 32 33  1  0
 35 36  2  0
 35 37  1  0
M  CHG  1  31   1
M  END
