
     RDKit          3D

 36 39  0  0  0  0  0  0  0  0999 V2000
    7.4700   -0.5190    1.3830 C   0  0  0  0  0  0  0  0  0  0  0  0
    7.0480   -1.7020    0.7620 O   0  0  0  0  0  0  0  0  0  0  0  0
    5.7100   -1.8590    0.4390 C   0  0  0  0  0  0  0  0  0  0  0  0
    5.3270   -3.0330   -0.1700 C   0  0  0  0  0  0  0  0  0  0  0  0
    4.0140   -3.2260   -0.5050 C   0  0  0  0  0  0  0  0  0  0  0  0
    3.0940   -2.2290   -0.2210 C   0  0  0  0  0  0  0  0  0  0  0  0
    3.4540   -1.0530    0.3850 C   0  0  0  0  0  0  0  0  0  0  0  0
    4.7870   -0.8770    0.7150 C   0  0  0  0  0  0  0  0  0  0  0  0
    2.4560    0.0330    0.6970 C   0  0  0  0  0  0  0  0  0  0  0  0
    2.5300    0.9630   -0.3560 O   0  0  0  0  0  0  0  0  0  0  0  0
    1.4630    1.8280   -0.6690 C   0  0  0  0  0  0  0  0  0  0  0  0
    0.4180    1.0070   -0.8800 N   0  0  0  0  0  0  0  0  0  0  0  0
   -0.8270    1.3680   -1.2080 C   0  0  0  0  0  0  0  0  0  0  0  0
   -1.1190    2.7170   -1.3590 C   0  0  0  0  0  0  0  0  0  0  0  0
   -0.0480    3.5800   -1.1430 C   0  0  0  0  0  0  0  0  0  0  0  0
    1.2760    3.1440   -0.7910 C   0  0  0  0  0  0  0  0  0  0  0  0
    2.2300    4.3120   -0.6240 C   0  0  0  0  0  0  0  0  0  0  0  0
   -2.4660    3.2090   -1.7090 N   0  0  0  0  0  0  0  0  0  0  0  0
   -3.4100    3.5830   -0.6890 C   0  0  0  0  0  0  0  0  0  0  0  0
   -4.4700    4.2330   -1.0460 O   0  0  0  0  0  0  0  0  0  0  0  0
   -3.3170    3.3240    0.6880 N   0  0  0  0  0  0  0  0  0  0  0  0
   -3.2770    2.0640    1.3840 C   0  0  2  0  0  0  0  0  0  0  0  0
   -1.9230    1.9250    2.0380 C   0  0  0  0  0  0  0  0  0  0  0  0
   -3.6340    0.8830    0.5740 C   0  0  0  0  0  0  0  0  0  0  0  0
   -4.5000    0.9080   -0.4450 N   0  0  0  0  0  0  0  0  0  0  0  0
   -4.8060   -0.1840   -1.1700 C   0  0  0  0  0  0  0  0  0  0  0  0
   -5.7740   -0.1360   -2.3040 C   0  0  0  0  0  0  0  0  0  0  0  0
   -4.1830   -1.3130   -0.8030 N   0  0  0  0  0  0  0  0  0  0  0  0
   -3.3090   -1.3730    0.2140 C   0  0  0  0  0  0  0  0  0  0  0  0
   -3.0380   -0.2620    0.9030 N   0  0  0  0  0  0  0  0  0  0  0  0
   -2.6970   -2.6300    0.5190 N   0  0  0  0  0  0  0  0  0  0  0  0
   -3.3090   -3.9090    0.2270 C   0  0  0  0  0  0  0  0  0  0  0  0
   -1.3880   -2.6390    1.1590 C   0  0  0  0  0  0  0  0  0  0  0  0
   -0.3090   -3.1230    0.2420 C   0  0  0  0  0  0  0  0  0  0  0  0
    0.9470   -2.6560    0.5580 O   0  0  0  0  0  0  0  0  0  0  0  0
    1.6620   -2.4760   -0.6050 C   0  0  0  0  0  0  0  0  0  0  0  0
  1  2  1  0
  2  3  1  0
  3  4  2  0
  3  8  1  0
  4  5  1  0
  5  6  2  0
  6  7  1  0
  6 36  1  0
  7  8  2  0
  7  9  1  0
  9 10  1  0
 10 11  1  0
 11 12  2  0
 11 16  1  0
 12 13  1  0
 13 14  2  0
 14 15  1  0
 14 18  1  0
 15 16  2  0
 16 17  1  0
 18 19  1  0
 19 20  2  0
 19 21  1  0
 21 22  1  0
 22 23  1  6
 22 24  1  0
 24 25  2  0
 24 30  1  0
 25 26  1  0
 26 27  1  0
 26 28  2  0
 28 29  1  0
 29 30  2  0
 29 31  1  0
 31 32  1  0
 31 33  1  0
 33 34  1  0
 34 35  1  0
 35 36  1  0
M  END
