
     RDKit          3D

 36 41  0  0  0  0  0  0  0  0999 V2000
    8.4880   -1.1150    1.2700 C   0  0  0  0  0  0  0  0  0  0  0  0
    8.1240    0.0940    0.4430 C   0  0  0  0  0  0  0  0  0  0  0  0
    6.7470    0.6030    0.8060 C   0  0  1  0  0  0  0  0  0  0  0  0
    6.3760    1.7990   -0.0060 C   0  0  0  0  0  0  0  0  0  0  0  0
    6.1730    1.4710   -1.4460 C   0  0  0  0  0  0  0  0  0  0  0  0
    5.7080    0.0870   -1.7340 C   0  0  0  0  0  0  0  0  0  0  0  0
    5.0650   -0.6380   -0.6040 C   0  0  2  0  0  0  0  0  0  0  0  0
    3.6260   -0.3890   -0.5280 N   0  0  0  0  0  0  0  0  0  0  0  0
    3.0570   -1.5180    0.1550 C   0  0  0  0  0  0  0  0  0  0  0  0
    1.5770   -1.4700    0.2660 C   0  0  0  0  0  0  0  0  0  0  0  0
    1.0390   -2.4310    0.8530 O   0  0  0  0  0  0  0  0  0  0  0  0
    0.7930   -0.4240   -0.2450 N   0  0  0  0  0  0  0  0  0  0  0  0
   -0.6130   -0.3030   -0.1810 C   0  0  0  0  0  0  0  0  0  0  0  0
   -1.4730   -1.1750    0.4180 C   0  0  0  0  0  0  0  0  0  0  0  0
   -2.8680   -0.9990    0.4450 C   0  0  0  0  0  0  0  0  0  0  0  0
   -3.4450    0.0930   -0.1480 C   0  0  0  0  0  0  0  0  0  0  0  0
   -2.5860    0.9940   -0.7640 C   0  0  0  0  0  0  0  0  0  0  0  0
   -1.2130    0.8020   -0.7790 C   0  0  0  0  0  0  0  0  0  0  0  0
   -3.3180    2.0010   -1.2930 N   0  0  0  0  0  0  0  0  0  0  0  0
   -4.5960    1.7420   -1.0190 C   0  0  0  0  0  0  0  0  0  0  0  0
   -5.7210    2.4640   -1.3420 C   0  0  0  0  0  0  0  0  0  0  0  0
   -5.6170    3.5400   -1.9900 O   0  0  0  0  0  0  0  0  0  0  0  0
   -6.9750    2.0440   -0.9750 C   0  0  0  0  0  0  0  0  0  0  0  0
   -8.1080    2.7520   -1.2890 C   0  0  0  0  0  0  0  0  0  0  0  0
   -9.3070    2.2240   -0.8640 C   0  0  0  0  0  0  0  0  0  0  0  0
  -10.3590    2.8590   -1.1420 O   0  0  0  0  0  0  0  0  0  0  0  0
   -9.3450    1.0900   -0.1870 O   0  0  0  0  0  0  0  0  0  0  0  0
   -8.2830    0.3910    0.1290 C   0  0  0  0  0  0  0  0  0  0  0  0
   -8.3930   -0.7850    0.8370 C   0  0  0  0  0  0  0  0  0  0  0  0
   -7.2930   -1.5160    1.1670 C   0  0  0  0  0  0  0  0  0  0  0  0
   -7.3380   -2.7860    1.9260 C   0  0  0  0  0  0  0  0  0  0  0  0
   -6.0320   -1.0320    0.7620 C   0  0  0  0  0  0  0  0  0  0  0  0
   -5.8820    0.1260    0.0610 C   0  0  0  0  0  0  0  0  0  0  0  0
   -7.0350    0.8530   -0.2630 C   0  0  0  0  0  0  0  0  0  0  0  0
   -4.6800    0.5930   -0.3290 N   0  0  0  0  0  0  0  0  0  0  0  0
    5.6880   -0.4410    0.7360 C   0  0  0  0  0  0  0  0  0  0  0  0
  1  2  1  0
  3  2  1  6
  3  4  1  0
  3 36  1  0
  4  5  1  0
  5  6  1  0
  6  7  1  0
  7  8  1  1
  7 36  1  0
  8  9  1  0
  9 10  1  0
 10 11  2  0
 10 12  1  0
 12 13  1  0
 13 14  2  0
 13 18  1  0
 14 15  1  0
 15 16  2  0
 16 17  1  0
 16 35  1  0
 17 18  2  0
 17 19  1  0
 19 20  2  0
 20 21  1  0
 20 35  1  0
 21 22  2  0
 21 23  1  0
 23 24  2  0
 23 34  1  0
 24 25  1  0
 25 26  2  0
 25 27  1  0
 27 28  1  0
 28 29  1  0
 28 34  2  0
 29 30  2  0
 30 31  1  0
 30 32  1  0
 32 33  2  0
 33 34  1  0
 33 35  1  0
M  CHG  1   8   1
M  END
