
     RDKit          3D

 36 41  0  0  0  0  0  0  0  0999 V2000
   -1.1900    6.6800   -0.3140 C   0  0  0  0  0  0  0  0  0  0  0  0
   -1.1690    5.1690   -0.3740 C   0  0  0  0  0  0  0  0  0  0  0  0
   -0.6800    4.6890    0.9980 C   0  0  2  0  0  0  0  0  0  0  0  0
    0.6140    5.2450    1.1540 N   0  0  0  0  0  0  0  0  0  0  0  0
    1.7750    4.4550    1.2610 C   0  0  0  0  0  0  0  0  0  0  0  0
    2.8970    5.0390    1.3550 O   0  0  0  0  0  0  0  0  0  0  0  0
    1.6480    3.0550    1.2600 N   0  0  0  0  0  0  0  0  0  0  0  0
    0.3520    2.4520    1.1450 C   0  0  0  0  0  0  0  0  0  0  0  0
   -0.7050    3.1810    1.0320 C   0  0  0  0  0  0  0  0  0  0  0  0
   -1.8830    2.3260    0.9700 C   0  0  0  0  0  0  0  0  0  0  0  0
   -3.2930    2.8410    0.8760 C   0  0  0  0  0  0  0  0  0  0  0  0
   -1.5010    1.0320    1.0440 C   0  0  0  0  0  0  0  0  0  0  0  0
   -2.4870   -0.0320    1.0040 C   0  0  0  0  0  0  0  0  0  0  0  0
   -3.7470    0.3020    0.8570 O   0  0  0  0  0  0  0  0  0  0  0  0
   -2.2080   -1.3880    1.1100 N   0  0  0  0  0  0  0  0  0  0  0  0
   -0.9630   -2.0240    1.3000 C   0  0  0  0  0  0  0  0  0  0  0  0
   -1.2490   -3.3830    1.9860 C   0  0  0  0  0  0  0  0  0  0  0  0
   -2.0030   -4.2630    1.1490 N   0  0  0  0  0  0  0  0  0  0  0  0
   -2.8810   -3.5300    0.2660 C   0  0  1  0  0  0  0  0  0  0  0  0
   -4.0060   -4.4230   -0.1750 C   0  0  0  0  0  0  0  0  0  0  0  0
   -3.3650   -2.3290    1.0050 C   0  0  0  0  0  0  0  0  0  0  0  0
   -0.0530    1.0160    1.1170 C   0  0  1  0  0  0  0  0  0  0  0  0
    0.6470    0.3220    0.0100 C   0  0  0  0  0  0  0  0  0  0  0  0
    0.2190    0.3650   -1.2880 C   0  0  0  0  0  0  0  0  0  0  0  0
    0.9250   -0.2880   -2.2880 C   0  0  0  0  0  0  0  0  0  0  0  0
    2.0760   -1.0010   -2.0180 C   0  0  0  0  0  0  0  0  0  0  0  0
    2.4980   -1.0380   -0.7050 C   0  0  0  0  0  0  0  0  0  0  0  0
    1.7920   -0.3830    0.3090 C   0  0  0  0  0  0  0  0  0  0  0  0
    3.6540   -1.7530   -0.4240 O   0  0  0  0  0  0  0  0  0  0  0  0
    4.3680   -2.4080   -1.4050 C   0  0  0  0  0  0  0  0  0  0  0  0
    5.5030   -3.0910   -1.0300 C   0  0  0  0  0  0  0  0  0  0  0  0
    6.2220   -3.7490   -2.0080 C   0  0  0  0  0  0  0  0  0  0  0  0
    5.8150   -3.7230   -3.3240 C   0  0  0  0  0  0  0  0  0  0  0  0
    4.6730   -3.0260   -3.6520 C   0  0  0  0  0  0  0  0  0  0  0  0
    3.9260   -2.3570   -2.7140 C   0  0  0  0  0  0  0  0  0  0  0  0
    2.7730   -1.6510   -3.0310 O   0  0  0  0  0  0  0  0  0  0  0  0
  1  2  1  0
  3  2  1  6
  3  4  1  0
  3  9  1  0
  4  5  1  0
  5  6  2  0
  5  7  1  0
  7  8  1  0
  8  9  2  0
  8 22  1  0
  9 10  1  0
 10 11  1  0
 10 12  2  0
 12 13  1  0
 12 22  1  0
 13 14  2  0
 13 15  1  0
 15 16  1  0
 15 21  1  0
 16 17  1  0
 17 18  1  0
 18 19  1  0
 19 20  1  1
 19 21  1  0
 22 23  1  6
 23 24  2  0
 23 28  1  0
 24 25  1  0
 25 26  2  0
 26 27  1  0
 26 36  1  0
 27 28  2  0
 27 29  1  0
 29 30  1  0
 30 31  2  0
 30 35  1  0
 31 32  1  0
 32 33  2  0
 33 34  1  0
 34 35  2  0
 35 36  1  0
M  CHG  1  18   1
M  END
