
     RDKit          3D

 36 41  0  0  0  0  0  0  0  0999 V2000
   -6.8120    1.9820   -1.2050 C   0  0  0  0  0  0  0  0  0  0  0  0
   -6.2590    0.6370   -1.6090 C   0  0  0  0  0  0  0  0  0  0  0  0
   -4.9140    0.3640   -0.9490 C   0  0  2  0  0  0  0  0  0  0  0  0
   -5.1140    0.3880    0.5340 C   0  0  0  0  0  0  0  0  0  0  0  0
   -3.8700    1.3450   -1.4110 C   0  0  0  0  0  0  0  0  0  0  0  0
   -3.0490    0.6100   -2.3780 N   0  0  0  0  0  0  0  0  0  0  0  0
   -3.0340   -0.7440   -1.8320 C   0  0  1  0  0  0  0  0  0  0  0  0
   -2.0560   -0.8100   -0.7110 C   0  0  0  0  0  0  0  0  0  0  0  0
   -1.9560   -2.0650   -0.1060 O   0  0  0  0  0  0  0  0  0  0  0  0
   -1.0650   -2.2350    0.9570 C   0  0  0  0  0  0  0  0  0  0  0  0
   -0.9690   -3.4760    1.5520 C   0  0  0  0  0  0  0  0  0  0  0  0
   -0.0820   -3.6670    2.6190 C   0  0  0  0  0  0  0  0  0  0  0  0
    0.6890   -2.6170    3.0700 C   0  0  0  0  0  0  0  0  0  0  0  0
    0.6050   -1.3700    2.4860 C   0  0  0  0  0  0  0  0  0  0  0  0
   -0.2800   -1.2240    1.4380 C   0  0  0  0  0  0  0  0  0  0  0  0
    1.4100   -0.2120    2.9340 C   0  0  2  0  0  0  0  0  0  0  0  0
    2.1380    0.4390    1.8210 C   0  0  0  0  0  0  0  0  0  0  0  0
    1.8250    1.6960    1.3370 C   0  0  0  0  0  0  0  0  0  0  0  0
    2.5080    2.2620    0.3200 N   0  0  0  0  0  0  0  0  0  0  0  0
    3.5290    1.6420   -0.2800 C   0  0  0  0  0  0  0  0  0  0  0  0
    3.8820    0.3870    0.1640 C   0  0  0  0  0  0  0  0  0  0  0  0
    3.1900   -0.2080    1.2060 C   0  0  0  0  0  0  0  0  0  0  0  0
    3.5240   -1.3480    1.5970 O   0  0  0  0  0  0  0  0  0  0  0  0
    4.9630   -0.0930   -0.5830 C   0  0  0  0  0  0  0  0  0  0  0  0
    5.6890   -1.2670   -0.5500 C   0  0  0  0  0  0  0  0  0  0  0  0
    6.7270   -1.4490   -1.4420 C   0  0  0  0  0  0  0  0  0  0  0  0
    7.0380   -0.4630   -2.3610 C   0  0  0  0  0  0  0  0  0  0  0  0
    6.2900    0.6920   -2.3600 C   0  0  0  0  0  0  0  0  0  0  0  0
    5.2450    0.9120   -1.4850 C   0  0  0  0  0  0  0  0  0  0  0  0
    4.3780    1.9320   -1.2850 N   0  0  0  0  0  0  0  0  0  0  0  0
    4.3670    3.1540   -2.0390 C   0  0  0  0  0  0  0  0  0  0  0  0
    2.2860   -0.5420    4.0380 N   0  0  0  0  0  0  0  0  0  0  0  0
    2.3450   -1.8320    4.6110 C   0  0  0  0  0  0  0  0  0  0  0  0
    3.1290   -2.0420    5.5700 O   0  0  0  0  0  0  0  0  0  0  0  0
    1.5560   -2.8670    4.1360 O   0  0  0  0  0  0  0  0  0  0  0  0
   -4.4590   -0.9730   -1.4770 C   0  0  0  0  0  0  0  0  0  0  0  0
  1  2  1  0
  2  3  1  0
  3  4  1  1
  3  5  1  0
  3 36  1  0
  5  6  1  0
  6  7  1  0
  7  8  1  1
  7 36  1  0
  8  9  1  0
  9 10  1  0
 10 11  2  0
 10 15  1  0
 11 12  1  0
 12 13  2  0
 13 14  1  0
 13 35  1  0
 14 15  2  0
 14 16  1  0
 16 17  1  6
 16 32  1  0
 17 18  2  0
 17 22  1  0
 18 19  1  0
 19 20  1  0
 20 21  2  0
 20 30  1  0
 21 22  1  0
 21 24  1  0
 22 23  2  0
 24 25  2  0
 24 29  1  0
 25 26  1  0
 26 27  2  0
 27 28  1  0
 28 29  2  0
 29 30  1  0
 30 31  1  0
 32 33  1  0
 33 34  2  0
 33 35  1  0
M  CHG  1   6   1
M  END
