
     RDKit          3D

 36 40  0  0  0  0  0  0  0  0999 V2000
   -4.9150   -2.0970   -1.2860 C   0  0  0  0  0  0  0  0  0  0  0  0
   -3.6920   -1.3440   -1.1950 O   0  0  0  0  0  0  0  0  0  0  0  0
   -2.8880   -1.4080   -0.0840 C   0  0  0  0  0  0  0  0  0  0  0  0
   -3.2180   -2.1340    0.8750 O   0  0  0  0  0  0  0  0  0  0  0  0
   -1.6500   -0.6260   -0.0250 C   0  0  1  0  0  0  0  0  0  0  0  0
   -1.7750    0.6670   -0.6600 C   0  0  2  0  0  0  0  0  0  0  0  0
   -0.6300    0.9370   -1.5980 C   0  0  0  0  0  0  0  0  0  0  0  0
   -2.1800    1.8580    0.1670 C   0  0  2  0  0  0  0  0  0  0  0  0
   -1.1240    2.8360    0.4250 C   0  0  0  0  0  0  0  0  0  0  0  0
   -1.1260    4.1630   -0.2830 C   0  0  0  0  0  0  0  0  0  0  0  0
    0.3390    4.6530   -0.1210 C   0  0  0  0  0  0  0  0  0  0  0  0
    0.3940    5.9650   -0.1820 N   0  0  0  0  0  0  0  0  0  0  0  0
    1.3790    3.5850    0.0650 C   0  0  0  0  0  0  0  0  0  0  0  0
    1.7500    3.0610    1.2970 C   0  0  0  0  0  0  0  0  0  0  0  0
    2.6650    1.9850    1.4670 C   0  0  0  0  0  0  0  0  0  0  0  0
    3.2810    1.3460    0.4240 C   0  0  0  0  0  0  0  0  0  0  0  0
    2.9300    1.8580   -0.8100 C   0  0  0  0  0  0  0  0  0  0  0  0
    2.0150    2.9340   -0.9840 C   0  0  0  0  0  0  0  0  0  0  0  0
    4.1960    0.1840    0.5420 C   0  0  2  0  0  0  0  0  0  0  0  0
    3.7430   -1.0230   -0.2910 C   0  0  0  0  0  0  0  0  0  0  0  0
    2.9800   -1.8190    0.4100 C   0  0  0  0  0  0  0  0  0  0  0  0
    2.9740   -1.2550    1.8210 C   0  0  0  0  0  0  0  0  0  0  0  0
    4.2520   -0.5690    1.7820 N   0  0  0  0  0  0  0  0  0  0  0  0
    2.2890   -2.9490    0.0500 O   0  0  0  0  0  0  0  0  0  0  0  0
    1.3210   -3.3850   -0.8030 C   0  0  0  0  0  0  0  0  0  0  0  0
    1.6110   -3.7860   -2.1250 C   0  0  0  0  0  0  0  0  0  0  0  0
    0.6590   -4.2350   -3.0190 C   0  0  0  0  0  0  0  0  0  0  0  0
   -0.6380   -4.2970   -2.6020 C   0  0  0  0  0  0  0  0  0  0  0  0
   -0.9400   -3.9110   -1.3130 C   0  0  0  0  0  0  0  0  0  0  0  0
   -0.0320   -3.4540   -0.3770 C   0  0  0  0  0  0  0  0  0  0  0  0
   -0.5270   -3.1550    0.9110 N   0  0  0  0  0  0  0  0  0  0  0  0
   -0.4820   -1.9650    1.7240 C   0  0  0  0  0  0  0  0  0  0  0  0
    0.1660   -2.2640    2.8100 O   0  0  0  0  0  0  0  0  0  0  0  0
   -1.0610   -0.7080    1.3590 N   0  0  0  0  0  0  0  0  0  0  0  0
   -1.2210    0.5350    2.0210 C   0  0  0  0  0  0  0  0  0  0  0  0
   -2.5180    1.2010    1.5180 C   0  0  0  0  0  0  0  0  0  0  0  0
  1  2  1  0
  2  3  1  0
  3  4  2  0
  5  3  1  1
  5  6  1  0
  5 34  1  0
  6  7  1  1
  6  8  1  0
  8  9  1  1
  8 36  1  0
  9 10  1  0
 10 11  1  0
 11 12  2  0
 11 13  1  0
 13 14  2  0
 13 18  1  0
 14 15  1  0
 15 16  2  0
 16 17  1  0
 16 19  1  0
 17 18  2  0
 19 20  1  0
 19 23  1  1
 20 21  2  0
 21 22  1  0
 21 24  1  0
 22 23  1  0
 24 25  1  0
 25 26  2  0
 25 30  1  0
 26 27  1  0
 27 28  2  0
 28 29  1  0
 29 30  2  0
 30 31  1  0
 31 32  1  0
 32 33  2  0
 32 34  1  0
 34 35  1  0
 35 36  1  0
M  END
