
     RDKit          3D

 36 41  0  0  0  0  0  0  0  0999 V2000
   -6.4190    2.3020    1.9010 C   0  0  0  0  0  0  0  0  0  0  0  0
   -5.5870    1.2220    1.3060 C   0  0  0  0  0  0  0  0  0  0  0  0
   -4.6710    0.5620    2.0760 C   0  0  0  0  0  0  0  0  0  0  0  0
   -3.8830   -0.4510    1.5390 C   0  0  0  0  0  0  0  0  0  0  0  0
   -3.9830   -0.8390    0.2110 C   0  0  0  0  0  0  0  0  0  0  0  0
   -4.9140   -0.1600   -0.5490 C   0  0  0  0  0  0  0  0  0  0  0  0
   -5.7010    0.8500   -0.0160 C   0  0  0  0  0  0  0  0  0  0  0  0
   -6.6910    1.5590   -0.8610 C   0  0  0  0  0  0  0  0  0  0  0  0
   -3.1330   -1.9180   -0.3540 C   0  0  1  0  0  0  0  0  0  0  0  0
   -2.0910   -1.3840   -1.2360 C   0  0  0  0  0  0  0  0  0  0  0  0
   -0.9310   -0.8110   -0.7630 C   0  0  0  0  0  0  0  0  0  0  0  0
    0.0320   -0.3110   -1.5720 N   0  0  0  0  0  0  0  0  0  0  0  0
    1.2410    0.2860   -1.0570 C   0  0  1  0  0  0  0  0  0  0  0  0
    1.0270    1.6310   -0.4550 C   0  0  0  0  0  0  0  0  0  0  0  0
    2.1040    1.9310    0.5310 C   0  0  0  0  0  0  0  0  0  0  0  0
    3.4630    1.3760    0.1380 C   0  0  0  0  0  0  0  0  0  0  0  0
    3.4080   -0.1210   -0.0590 C   0  0  2  0  0  0  0  0  0  0  0  0
    4.2120   -0.7900    0.9910 C   0  0  0  0  0  0  0  0  0  0  0  0
    5.6320   -0.3840    0.8700 C   0  0  0  0  0  0  0  0  0  0  0  0
    6.6260   -0.2430    1.7540 C   0  0  0  0  0  0  0  0  0  0  0  0
    7.8770    0.1960    1.0960 C   0  0  0  0  0  0  0  0  0  0  0  0
    7.4640    0.2890   -0.3200 C   0  0  0  0  0  0  0  0  0  0  0  0
    6.1990   -0.0400   -0.4250 C   0  0  0  0  0  0  0  0  0  0  0  0
    5.2910   -0.1030   -1.5930 C   0  0  0  0  0  0  0  0  0  0  0  0
    5.7370    0.1820   -2.7270 O   0  0  0  0  0  0  0  0  0  0  0  0
    3.9280   -0.4940   -1.3560 N   0  0  0  0  0  0  0  0  0  0  0  0
    1.9460   -0.5990   -0.0560 C   0  0  0  0  0  0  0  0  0  0  0  0
   -0.1910   -0.3960   -2.8960 C   0  0  0  0  0  0  0  0  0  0  0  0
    0.7220    0.0770   -3.6550 O   0  0  0  0  0  0  0  0  0  0  0  0
   -1.2930   -0.9390   -3.4440 N   0  0  0  0  0  0  0  0  0  0  0  0
   -2.2460   -1.4350   -2.6000 C   0  0  0  0  0  0  0  0  0  0  0  0
   -3.2910   -1.9510   -3.0730 O   0  0  0  0  0  0  0  0  0  0  0  0
   -2.6160   -2.8470    0.7030 C   0  0  0  0  0  0  0  0  0  0  0  0
   -2.1480   -2.1240    1.9150 C   0  0  0  0  0  0  0  0  0  0  0  0
   -1.0780   -2.4170    2.4720 O   0  0  0  0  0  0  0  0  0  0  0  0
   -2.9680   -1.0790    2.4210 N   0  0  0  0  0  0  0  0  0  0  0  0
  1  2  1  0
  2  3  2  0
  2  7  1  0
  3  4  1  0
  4  5  2  0
  4 36  1  0
  5  6  1  0
  5  9  1  0
  6  7  2  0
  7  8  1  0
  9 10  1  1
  9 33  1  0
 10 11  2  0
 10 31  1  0
 11 12  1  0
 13 12  1  1
 12 28  1  0
 13 14  1  0
 13 27  1  0
 14 15  1  0
 15 16  1  0
 17 16  1  1
 17 18  1  0
 17 26  1  0
 17 27  1  0
 18 19  1  0
 19 20  2  0
 19 23  1  0
 20 21  1  0
 21 22  1  0
 22 23  2  0
 23 24  1  0
 24 25  2  0
 24 26  1  0
 28 29  2  0
 28 30  1  0
 30 31  1  0
 31 32  2  0
 33 34  1  0
 34 35  2  0
 34 36  1  0
M  END
