
     RDKit          3D

 36 41  0  0  0  0  0  0  0  0999 V2000
    6.8270   -3.2740    2.5000 C   0  0  0  0  0  0  0  0  0  0  0  0
    5.5520   -3.1080    1.9600 O   0  0  0  0  0  0  0  0  0  0  0  0
    5.2160   -2.1010    1.0630 C   0  0  0  0  0  0  0  0  0  0  0  0
    3.9190   -2.0020    0.5700 C   0  0  0  0  0  0  0  0  0  0  0  0
    3.5550   -1.0120   -0.3230 C   0  0  0  0  0  0  0  0  0  0  0  0
    2.1550   -0.9250   -0.8460 C   0  0  0  0  0  0  0  0  0  0  0  0
    1.2530   -0.3790    0.1390 N   0  0  1  0  0  0  0  0  0  0  0  0
    1.9330    0.5400    0.9930 C   0  0  0  0  0  0  0  0  0  0  0  0
    1.4650    1.9210    0.5770 C   0  0  0  0  0  0  0  0  0  0  0  0
   -0.0280    1.5700    0.3150 C   0  0  1  0  0  0  0  0  0  0  0  0
   -0.4410    2.6830   -0.5620 N   0  0  0  0  0  0  0  0  0  0  0  0
   -1.0760    3.8490   -0.0900 C   0  0  0  0  0  0  0  0  0  0  0  0
   -1.3190    3.9870    1.1510 O   0  0  0  0  0  0  0  0  0  0  0  0
   -1.4600    4.9070   -0.9460 N   0  0  0  0  0  0  0  0  0  0  0  0
   -2.0800    6.1420   -0.5080 C   0  0  1  0  0  0  0  0  0  0  0  0
   -1.2700    7.3580   -1.0230 C   0  0  0  0  0  0  0  0  0  0  0  0
   -2.6940    7.1160   -1.4090 C   0  0  0  0  0  0  0  0  0  0  0  0
    0.1050    0.3280   -0.4710 C   0  0  2  0  0  0  0  0  0  0  0  0
   -1.0730   -0.5610   -0.2820 C   0  0  0  0  0  0  0  0  0  0  0  0
   -1.7140   -0.6780    0.9000 C   0  0  0  0  0  0  0  0  0  0  0  0
   -2.7160   -1.6530    1.0130 C   0  0  0  0  0  0  0  0  0  0  0  0
   -3.0150   -2.4450   -0.0730 C   0  0  0  0  0  0  0  0  0  0  0  0
   -2.3670   -2.3270   -1.2840 C   0  0  0  0  0  0  0  0  0  0  0  0
   -2.4440   -2.9160   -2.4500 O   0  0  0  0  0  0  0  0  0  0  0  0
   -1.5900   -2.4220   -3.3170 C   0  0  0  0  0  0  0  0  0  0  0  0
   -1.3940   -2.8450   -4.7490 C   0  0  0  0  0  0  0  0  0  0  0  0
   -0.8950   -1.4290   -2.6590 C   0  0  0  0  0  0  0  0  0  0  0  0
   -1.3840   -1.3710   -1.3820 C   0  0  0  0  0  0  0  0  0  0  0  0
   -4.0030   -3.3800    0.0800 O   0  0  0  0  0  0  0  0  0  0  0  0
   -4.6390   -3.7120    1.2900 C   0  0  0  0  0  0  0  0  0  0  0  0
   -4.3040   -2.8430    2.4210 C   0  0  0  0  0  0  0  0  0  0  0  0
   -5.0050   -3.0810    3.7310 C   0  0  0  0  0  0  0  0  0  0  0  0
   -3.4060   -1.8870    2.2850 C   0  0  0  0  0  0  0  0  0  0  0  0
    4.5070   -0.1060   -0.7300 C   0  0  0  0  0  0  0  0  0  0  0  0
    5.7800   -0.2220   -0.2320 C   0  0  0  0  0  0  0  0  0  0  0  0
    6.1160   -1.1950    0.6390 N   0  0  0  0  0  0  0  0  0  0  0  0
  1  2  1  0
  2  3  1  0
  3  4  2  0
  3 36  1  0
  4  5  1  0
  5  6  1  0
  5 34  2  0
  7  6  1  6
  7  8  1  0
  7 18  1  0
  8  9  1  0
  9 10  1  0
 10 11  1  6
 10 18  1  0
 11 12  1  0
 12 13  2  0
 12 14  1  0
 15 14  1  6
 15 16  1  0
 15 17  1  0
 16 17  1  0
 18 19  1  1
 19 20  2  0
 19 28  1  0
 20 21  1  0
 21 22  2  0
 21 33  1  0
 22 23  1  0
 22 29  1  0
 23 24  1  0
 23 28  2  0
 24 25  1  0
 25 26  1  0
 25 27  2  0
 27 28  1  0
 29 30  1  0
 30 31  1  0
 31 32  1  0
 31 33  2  0
 34 35  1  0
 35 36  2  0
M  CHG  1   7   1
M  END
