
     RDKit          3D

 37 41  0  0  0  0  0  0  0  0999 V2000
   -5.4600    4.9100   -1.4240 C   0  0  0  0  0  0  0  0  0  0  0  0
   -5.3040    3.6810   -0.9430 C   0  0  0  0  0  0  0  0  0  0  0  0
   -4.8440    3.5090    0.4670 C   0  0  0  0  0  0  0  0  0  0  0  0
   -3.5900    2.7700    0.3950 N   0  0  0  0  0  0  0  0  0  0  0  0
   -2.3830    3.3000    0.2330 C   0  0  0  0  0  0  0  0  0  0  0  0
   -2.0330    4.5230    0.0980 O   0  0  0  0  0  0  0  0  0  0  0  0
   -1.4560    2.2690    0.2340 C   0  0  0  0  0  0  0  0  0  0  0  0
   -0.0890    2.2110    0.1200 C   0  0  0  0  0  0  0  0  0  0  0  0
    0.5260    1.0280    0.1730 N   0  0  0  0  0  0  0  0  0  0  0  0
   -0.1390   -0.1510    0.3360 C   0  0  0  0  0  0  0  0  0  0  0  0
    0.6100   -1.3660    0.4070 N   0  0  0  0  0  0  0  0  0  0  0  0
    2.0290   -1.2540    0.3440 C   0  0  0  0  0  0  0  0  0  0  0  0
    2.7210   -2.1480   -0.4110 C   0  0  0  0  0  0  0  0  0  0  0  0
    4.1220   -2.0400   -0.4510 C   0  0  0  0  0  0  0  0  0  0  0  0
    4.7940   -1.0610    0.2460 C   0  0  0  0  0  0  0  0  0  0  0  0
    6.2120   -0.9850    0.1650 N   0  0  0  0  0  0  0  0  0  0  0  0
    6.9650   -1.9350   -0.5860 C   0  0  0  0  0  0  0  0  0  0  0  0
    8.3080   -1.5070   -1.0720 C   0  0  0  0  0  0  0  0  0  0  0  0
    8.8660   -0.3920   -0.3540 N   0  0  2  0  0  0  0  0  0  0  0  0
   10.3250   -0.4550   -0.3790 C   0  0  0  0  0  0  0  0  0  0  0  0
    8.3610   -0.3200    1.0020 C   0  0  0  0  0  0  0  0  0  0  0  0
    6.9020    0.0870    0.8810 C   0  0  0  0  0  0  0  0  0  0  0  0
    4.0390   -0.1770    1.0010 C   0  0  0  0  0  0  0  0  0  0  0  0
    2.6440   -0.2470    1.0720 C   0  0  0  0  0  0  0  0  0  0  0  0
   -1.4690   -0.0670    0.4440 N   0  0  0  0  0  0  0  0  0  0  0  0
   -2.1650    1.1050    0.4010 C   0  0  0  0  0  0  0  0  0  0  0  0
   -3.4690    1.4190    0.5030 N   0  0  0  0  0  0  0  0  0  0  0  0
   -4.5640    0.5610    0.7080 C   0  0  0  0  0  0  0  0  0  0  0  0
   -5.0520    0.4430    2.0030 C   0  0  0  0  0  0  0  0  0  0  0  0
   -6.1560   -0.3230    2.3010 C   0  0  0  0  0  0  0  0  0  0  0  0
   -6.7830   -0.9860    1.2660 C   0  0  0  0  0  0  0  0  0  0  0  0
   -6.2930   -0.8690   -0.0290 C   0  0  0  0  0  0  0  0  0  0  0  0
   -6.9760   -1.5710   -1.1260 C   0  0  1  0  0  0  0  0  0  0  0  0
   -6.3140   -2.8740   -1.5100 C   0  0  0  0  0  0  0  0  0  0  0  0
   -8.4190   -1.8130   -0.7310 C   0  0  0  0  0  0  0  0  0  0  0  0
   -6.9030   -0.7480   -2.2680 O   0  0  0  0  0  0  0  0  0  0  0  0
   -5.1930   -0.0890   -0.2450 N   0  0  0  0  0  0  0  0  0  0  0  0
  1  2  2  0
  2  3  1  0
  3  4  1  0
  4  5  1  0
  4 27  1  0
  5  6  2  0
  5  7  1  0
  7  8  2  0
  7 26  1  0
  8  9  1  0
  9 10  2  0
 10 11  1  0
 10 25  1  0
 11 12  1  0
 12 13  2  0
 12 24  1  0
 13 14  1  0
 14 15  2  0
 15 16  1  0
 15 23  1  0
 16 17  1  0
 16 22  1  0
 17 18  1  0
 18 19  1  0
 19 20  1  1
 19 21  1  0
 21 22  1  0
 23 24  2  0
 25 26  2  0
 26 27  1  0
 27 28  1  0
 28 29  2  0
 28 37  1  0
 29 30  1  0
 30 31  2  0
 31 32  1  0
 32 33  1  0
 32 37  2  0
 33 34  1  6
 33 35  1  0
 33 36  1  0
M  CHG  1  19   1
M  END
