
     RDKit          3D

 34 37  0  0  0  0  0  0  0  0999 V2000
   -2.2950   -4.4390   -2.2520 C   0  0  0  0  0  0  0  0  0  0  0  0
   -2.6440   -3.5510   -1.2100 O   0  0  0  0  0  0  0  0  0  0  0  0
   -3.7780   -2.7360   -1.2730 C   0  0  0  0  0  0  0  0  0  0  0  0
   -4.5460   -2.8460   -2.4110 C   0  0  0  0  0  0  0  0  0  0  0  0
   -5.6800   -2.0760   -2.5470 C   0  0  0  0  0  0  0  0  0  0  0  0
   -6.0330   -1.2210   -1.5650 C   0  0  0  0  0  0  0  0  0  0  0  0
   -5.2500   -1.1050   -0.3950 C   0  0  0  0  0  0  0  0  0  0  0  0
   -5.7820   -0.2340    0.6310 C   0  0  0  0  0  0  0  0  0  0  0  0
   -6.8190    0.4620    0.3350 O   0  0  0  0  0  0  0  0  0  0  0  0
   -5.3210   -0.0290    1.9330 N   0  0  0  0  0  0  0  0  0  0  0  0
   -5.9410    0.8940    2.8810 C   0  0  2  0  0  0  0  0  0  0  0  0
   -5.0540    1.8920    3.5810 C   0  0  0  0  0  0  0  0  0  0  0  0
   -5.7780    0.7690    4.3220 C   0  0  0  0  0  0  0  0  0  0  0  0
   -4.1160   -1.8670   -0.2540 C   0  0  0  0  0  0  0  0  0  0  0  0
   -3.3290   -1.7800    0.8490 O   0  0  0  0  0  0  0  0  0  0  0  0
   -2.1960   -0.9400    0.9720 C   0  0  0  0  0  0  0  0  0  0  0  0
   -1.1150   -1.2420   -0.0020 C   0  0  0  0  0  0  0  0  0  0  0  0
    0.0560   -0.3000    0.1630 C   0  0  0  0  0  0  0  0  0  0  0  0
   -0.0590    0.6480    0.9710 O   0  0  0  0  0  0  0  0  0  0  0  0
    1.2400   -0.4800   -0.5640 N   0  0  0  0  0  0  0  0  0  0  0  0
    2.3970    0.3280   -0.5100 C   0  0  0  0  0  0  0  0  0  0  0  0
    2.4550    1.6070   -0.0170 C   0  0  0  0  0  0  0  0  0  0  0  0
    3.6320    2.3470    0.0290 C   0  0  0  0  0  0  0  0  0  0  0  0
    4.8070    1.7850   -0.4380 C   0  0  0  0  0  0  0  0  0  0  0  0
    4.7860    0.5180   -0.9340 C   0  0  0  0  0  0  0  0  0  0  0  0
    3.6110   -0.1930   -0.9700 C   0  0  0  0  0  0  0  0  0  0  0  0
    6.0080   -0.1560   -1.4410 C   0  0  0  0  0  0  0  0  0  0  0  0
    7.1710    0.6570   -1.3680 N   0  0  0  0  0  0  0  0  0  0  0  0
    7.2320    1.9950   -0.8540 C   0  0  0  0  0  0  0  0  0  0  0  0
    8.3650    2.6500   -0.8240 C   0  0  0  0  0  0  0  0  0  0  0  0
    9.8420    1.8550   -1.4320 Cl  0  0  0  0  0  0  0  0  0  0  0  0
    8.5370    4.0190   -0.3340 C   0  0  0  0  0  0  0  0  0  0  0  0
    9.6940    4.0210    1.0400 Cl  0  0  0  0  0  0  0  0  0  0  0  0
    6.0300    2.5500   -0.3890 N   0  0  0  0  0  0  0  0  0  0  0  0
  1  2  1  0
  2  3  1  0
  3  4  2  0
  3 14  1  0
  4  5  1  0
  5  6  2  0
  6  7  1  0
  7  8  1  0
  7 14  2  0
  8  9  2  0
  8 10  1  0
 11 10  1  6
 11 12  1  0
 11 13  1  0
 12 13  1  0
 14 15  1  0
 15 16  1  0
 16 17  1  0
 17 18  1  0
 18 19  2  0
 18 20  1  0
 20 21  1  0
 21 22  2  0
 21 26  1  0
 22 23  1  0
 23 24  2  0
 24 25  1  0
 24 34  1  0
 25 26  2  0
 25 27  1  0
 27 28  1  0
 28 29  1  0
 29 30  2  3
 29 34  1  0
 30 31  1  0
 30 32  1  0
 32 33  1  0
M  END
