
     RDKit          3D

 34 36  0  0  0  0  0  0  0  0999 V2000
   -8.6800    1.4980    1.1950 C   0  0  0  0  0  0  0  0  0  0  0  0
   -8.2220    0.2740    1.3420 C   0  0  0  0  0  0  0  0  0  0  0  0
   -7.2150   -0.2440    0.4490 C   0  0  0  0  0  0  0  0  0  0  0  0
   -6.7600   -1.4720    0.5980 C   0  0  0  0  0  0  0  0  0  0  0  0
   -7.2840   -2.3390    1.6940 C   0  0  0  0  0  0  0  0  0  0  0  0
   -6.7110    0.5790   -0.5900 N   0  0  0  0  0  0  0  0  0  0  0  0
   -5.3310    0.7820   -0.7140 N   0  0  0  0  0  0  0  0  0  0  0  0
   -4.4730    0.6520    0.4080 C   0  0  0  0  0  0  0  0  0  0  0  0
   -4.9350    0.3510    1.5560 O   0  0  0  0  0  0  0  0  0  0  0  0
   -3.0120    0.8520    0.3160 C   0  0  0  0  0  0  0  0  0  0  0  0
   -2.3810    1.2030   -0.8480 C   0  0  0  0  0  0  0  0  0  0  0  0
   -1.0430    1.2900   -0.5280 C   0  0  0  0  0  0  0  0  0  0  0  0
   -0.9200    0.9870    0.8220 C   0  0  0  0  0  0  0  0  0  0  0  0
    0.2780    0.9350    1.6590 C   0  0  0  0  0  0  0  0  0  0  0  0
    1.4360    0.4470    1.0310 O   0  0  0  0  0  0  0  0  0  0  0  0
    1.5300   -0.8310    0.4840 C   0  0  0  0  0  0  0  0  0  0  0  0
    0.4600   -1.6970    0.5300 C   0  0  0  0  0  0  0  0  0  0  0  0
    0.6020   -2.9460   -0.0240 C   0  0  0  0  0  0  0  0  0  0  0  0
    1.7890   -3.3210   -0.6120 C   0  0  0  0  0  0  0  0  0  0  0  0
    2.0120   -4.9020   -1.3320 Cl  0  0  0  0  0  0  0  0  0  0  0  0
    2.8750   -2.4090   -0.6450 C   0  0  0  0  0  0  0  0  0  0  0  0
    2.7590   -1.1630   -0.1020 C   0  0  0  0  0  0  0  0  0  0  0  0
    3.8010   -0.1940   -0.0950 N   0  0  0  0  0  0  0  0  0  0  0  0
    5.1110   -0.3180   -0.5530 C   0  0  0  0  0  0  0  0  0  0  0  0
    5.4130   -1.4630   -1.0440 O   0  0  0  0  0  0  0  0  0  0  0  0
    6.1950    0.6670   -0.5550 C   0  0  0  0  0  0  0  0  0  0  0  0
    7.3870    0.2790   -1.0590 C   0  0  0  0  0  0  0  0  0  0  0  0
    8.5500    1.1190   -1.1330 C   0  0  0  0  0  0  0  0  0  0  0  0
    9.6590    0.6240   -1.6380 C   0  0  0  0  0  0  0  0  0  0  0  0
    8.4630    2.5170   -0.6370 C   0  0  0  0  0  0  0  0  0  0  0  0
    7.1640    2.8240   -0.1280 N   0  0  0  0  0  0  0  0  0  0  0  0
    6.1470    2.0160   -0.0830 C   0  0  0  0  0  0  0  0  0  0  0  0
    4.6370    2.6460    0.5960 Cl  0  0  0  0  0  0  0  0  0  0  0  0
   -2.1350    0.7330    1.2750 O   0  0  0  0  0  0  0  0  0  0  0  0
  1  2  2  0
  2  3  1  0
  3  4  2  3
  3  6  1  0
  4  5  1  0
  6  7  1  0
  7  8  1  0
  8  9  2  0
  8 10  1  0
 10 11  2  0
 10 34  1  0
 11 12  1  0
 12 13  2  0
 13 14  1  0
 13 34  1  0
 14 15  1  0
 15 16  1  0
 16 17  2  0
 16 22  1  0
 17 18  1  0
 18 19  2  0
 19 20  1  0
 19 21  1  0
 21 22  2  0
 22 23  1  0
 23 24  1  0
 24 25  2  0
 24 26  1  0
 26 27  2  0
 26 32  1  0
 27 28  1  0
 28 29  2  0
 28 30  1  0
 30 31  1  0
 31 32  2  0
 32 33  1  0
M  END
