
     RDKit          3D

 34 37  0  0  0  0  0  0  0  0999 V2000
   10.2080    1.2910    1.5550 C   0  0  0  0  0  0  0  0  0  0  0  0
    9.0220    1.3820    0.9980 C   0  0  0  0  0  0  0  0  0  0  0  0
    8.4250    2.9360    0.5000 Cl  0  0  0  0  0  0  0  0  0  0  0  0
    8.1760    0.2110    0.7890 C   0  0  0  0  0  0  0  0  0  0  0  0
    8.7950   -1.3500    1.3130 Cl  0  0  0  0  0  0  0  0  0  0  0  0
    6.9810    0.2540    0.2330 C   0  0  0  0  0  0  0  0  0  0  0  0
    6.2300   -0.9340    0.0740 N   0  0  0  0  0  0  0  0  0  0  0  0
    4.9540   -0.9970   -0.5690 C   0  0  0  0  0  0  0  0  0  0  0  0
    3.9800   -0.1380    0.1390 C   0  0  0  0  0  0  0  0  0  0  0  0
    4.2600    0.5900    1.2320 N   0  0  0  0  0  0  0  0  0  0  0  0
    3.1250    1.2320    1.5750 C   0  0  0  0  0  0  0  0  0  0  0  0
    2.1170    0.9080    0.6920 C   0  0  0  0  0  0  0  0  0  0  0  0
    0.7860    1.2510    0.5460 C   0  0  0  0  0  0  0  0  0  0  0  0
   -0.0070    0.7520   -0.4770 C   0  0  0  0  0  0  0  0  0  0  0  0
   -1.3300    1.0850   -0.6460 C   0  0  0  0  0  0  0  0  0  0  0  0
   -1.8230    1.8800    0.1880 O   0  0  0  0  0  0  0  0  0  0  0  0
   -2.1050    0.6120   -1.6390 N   0  0  0  0  0  0  0  0  0  0  0  0
   -3.4870    0.9790   -1.8290 C   0  0  0  0  0  0  0  0  0  0  0  0
   -4.4650    0.1590   -1.1210 C   0  0  0  0  0  0  0  0  0  0  0  0
   -5.0010   -1.0230   -1.5680 C   0  0  0  0  0  0  0  0  0  0  0  0
   -5.9500   -1.7370   -0.8340 C   0  0  0  0  0  0  0  0  0  0  0  0
   -6.4010   -1.2990    0.3790 C   0  0  0  0  0  0  0  0  0  0  0  0
   -7.3480   -1.9700    1.1550 O   0  0  0  0  0  0  0  0  0  0  0  0
   -7.9120   -3.1840    0.7080 C   0  0  0  0  0  0  0  0  0  0  0  0
   -5.8590   -0.0910    0.8460 C   0  0  0  0  0  0  0  0  0  0  0  0
   -6.3250    0.3450    2.0800 O   0  0  0  0  0  0  0  0  0  0  0  0
   -5.8790    1.5380    2.6870 C   0  0  0  0  0  0  0  0  0  0  0  0
   -4.9240    0.6140    0.1240 C   0  0  0  0  0  0  0  0  0  0  0  0
   -1.5380   -0.2530   -2.5310 C   0  0  0  0  0  0  0  0  0  0  0  0
   -2.2320   -0.7140   -3.4700 O   0  0  0  0  0  0  0  0  0  0  0  0
   -0.2430   -0.5910   -2.3800 N   0  0  0  0  0  0  0  0  0  0  0  0
    0.5350   -0.1270   -1.4010 C   0  0  0  0  0  0  0  0  0  0  0  0
    1.8610   -0.4670   -1.2520 C   0  0  0  0  0  0  0  0  0  0  0  0
    2.6540    0.0280   -0.2360 C   0  0  0  0  0  0  0  0  0  0  0  0
  1  2  2  0
  2  3  1  0
  2  4  1  0
  4  5  1  0
  4  6  2  3
  6  7  1  0
  7  8  1  0
  8  9  1  0
  9 10  1  0
  9 34  2  0
 10 11  1  0
 11 12  2  0
 12 13  1  0
 12 34  1  0
 13 14  2  0
 14 15  1  0
 14 32  1  0
 15 16  2  0
 15 17  1  0
 17 18  1  0
 17 29  1  0
 18 19  1  0
 19 20  2  0
 19 28  1  0
 20 21  1  0
 21 22  2  0
 22 23  1  0
 22 25  1  0
 23 24  1  0
 25 26  1  0
 25 28  2  0
 26 27  1  0
 29 30  2  0
 29 31  1  0
 31 32  1  0
 32 33  2  0
 33 34  1  0
M  END
