
     RDKit          3D

 34 37  0  0  0  0  0  0  0  0999 V2000
    1.9520    2.2160   -1.9360 C   0  0  0  0  0  0  0  0  0  0  0  0
    1.1770    1.1100   -1.3130 C   0  0  0  0  0  0  0  0  0  0  0  0
    1.6230   -0.1200   -0.9180 C   0  0  0  0  0  0  0  0  0  0  0  0
    2.9320   -0.7290   -1.0290 C   0  0  0  0  0  0  0  0  0  0  0  0
    3.1390   -1.8410   -0.4240 O   0  0  0  0  0  0  0  0  0  0  0  0
    3.9880   -0.1930   -1.7570 N   0  0  0  0  0  0  0  0  0  0  0  0
    5.1760   -0.8370   -1.8140 O   0  0  0  0  0  0  0  0  0  0  0  0
    5.9780   -0.3410   -0.7840 C   0  0  0  0  0  0  0  0  0  0  0  0
    7.3300   -0.9880   -0.7860 C   0  0  0  0  0  0  0  0  0  0  0  0
    8.1020   -0.4830    0.2380 O   0  0  0  0  0  0  0  0  0  0  0  0
    7.5590   -0.8110    1.4660 C   0  0  1  0  0  0  0  0  0  0  0  0
    8.5910   -1.5790    2.2880 C   0  0  0  0  0  0  0  0  0  0  0  0
    7.1930    0.4260    2.2700 C   0  0  0  0  0  0  0  0  0  0  0  0
    0.5140   -0.7530   -0.3930 N   0  0  0  0  0  0  0  0  0  0  0  0
   -0.5570    0.0510   -0.4660 C   0  0  0  0  0  0  0  0  0  0  0  0
   -1.8880   -0.1530   -0.0790 C   0  0  0  0  0  0  0  0  0  0  0  0
   -2.8450    0.8000   -0.2560 C   0  0  0  0  0  0  0  0  0  0  0  0
   -4.2140    0.6900    0.0810 N   0  0  0  0  0  0  0  0  0  0  0  0
   -4.8180   -0.3370    0.8320 C   0  0  0  0  0  0  0  0  0  0  0  0
   -4.1070   -1.2570    1.3020 O   0  0  0  0  0  0  0  0  0  0  0  0
   -6.2760   -0.3600    1.0870 C   0  0  0  0  0  0  0  0  0  0  0  0
   -6.7970   -0.4260    2.3800 C   0  0  0  0  0  0  0  0  0  0  0  0
   -8.1260   -0.3350    2.2870 N   0  0  0  0  0  0  0  0  0  0  0  0
   -8.4770   -0.2140    0.9820 C   0  0  0  0  0  0  0  0  0  0  0  0
   -9.6930   -0.1040    0.3350 C   0  0  0  0  0  0  0  0  0  0  0  0
  -11.1530   -0.0840    1.2980 Cl  0  0  0  0  0  0  0  0  0  0  0  0
   -9.7770   -0.0110   -1.0570 C   0  0  0  0  0  0  0  0  0  0  0  0
   -8.6170   -0.0340   -1.7850 C   0  0  0  0  0  0  0  0  0  0  0  0
   -7.3720   -0.1440   -1.1550 C   0  0  0  0  0  0  0  0  0  0  0  0
   -5.9220   -0.2420   -2.1490 Cl  0  0  0  0  0  0  0  0  0  0  0  0
   -7.3110   -0.2300    0.2110 C   0  0  0  0  0  0  0  0  0  0  0  0
   -2.4250    1.9900   -0.8410 C   0  0  0  0  0  0  0  0  0  0  0  0
   -1.1100    2.2130   -1.2320 C   0  0  0  0  0  0  0  0  0  0  0  0
   -0.1780    1.2340   -1.0410 C   0  0  0  0  0  0  0  0  0  0  0  0
  1  2  1  0
  2  3  2  0
  2 34  1  0
  3  4  1  0
  3 14  1  0
  4  5  2  0
  4  6  1  0
  6  7  1  0
  7  8  1  0
  8  9  1  0
  9 10  1  0
 10 11  1  0
 11 12  1  1
 11 13  1  0
 14 15  1  0
 15 16  2  0
 15 34  1  0
 16 17  1  0
 17 18  1  0
 17 32  2  0
 18 19  1  0
 19 20  2  0
 19 21  1  0
 21 22  2  0
 21 31  1  0
 22 23  1  0
 23 24  1  0
 24 25  2  0
 24 31  1  0
 25 26  1  0
 25 27  1  0
 27 28  2  0
 28 29  1  0
 29 30  1  0
 29 31  2  0
 32 33  1  0
 33 34  2  0
M  END
