
     RDKit          3D

 35 37  0  0  0  0  0  0  0  0999 V2000
    0.0860    3.6290   -3.8550 C   0  0  0  0  0  0  0  0  0  0  0  0
    0.9860    3.4450   -2.8320 O   0  0  0  0  0  0  0  0  0  0  0  0
    0.4040    3.3770   -1.5900 C   0  0  1  0  0  0  0  0  0  0  0  0
   -0.5560    2.2820   -1.3470 C   0  0  0  0  0  0  0  0  0  0  0  0
   -0.1940    0.8800   -1.5990 C   0  0  1  0  0  0  0  0  0  0  0  0
    0.9340    0.2240   -0.9590 C   0  0  0  0  0  0  0  0  0  0  0  0
    2.2490    0.7520   -1.1530 N   0  0  0  0  0  0  0  0  0  0  0  0
    3.3390    0.0380   -0.5280 C   0  0  0  0  0  0  0  0  0  0  0  0
    3.0140   -1.0440    0.0920 O   0  0  0  0  0  0  0  0  0  0  0  0
    4.6870    0.4820   -0.5560 C   0  0  0  0  0  0  0  0  0  0  0  0
    5.8110    0.0600   -0.1760 C   0  0  0  0  0  0  0  0  0  0  0  0
    6.3300   -1.1290    0.4860 C   0  0  0  0  0  0  0  0  0  0  0  0
    7.5530   -1.3170    0.8460 C   0  0  0  0  0  0  0  0  0  0  0  0
    7.8750   -2.6000    1.5240 C   0  0  0  0  0  0  0  0  0  0  0  0
    6.6860   -3.6390    0.6320 S   0  0  2  0  0  0  0  0  0  0  0  0
    6.2570   -4.8010    1.4290 O   0  0  0  0  0  0  0  0  0  0  0  0
    7.1730   -3.9280   -0.7370 O   0  0  0  0  0  0  0  0  0  0  0  0
    5.4110   -2.3190    0.6240 C   0  0  0  0  0  0  0  0  0  0  0  0
   -1.4150    0.0740   -1.1010 C   0  0  0  0  0  0  0  0  0  0  0  0
   -2.2060   -0.4600   -1.8650 O   0  0  0  0  0  0  0  0  0  0  0  0
   -1.5650   -0.0160    0.2910 N   0  0  0  0  0  0  0  0  0  0  0  0
   -2.5970   -0.7210    0.9990 C   0  0  0  0  0  0  0  0  0  0  0  0
   -2.5050   -0.7330    2.3830 C   0  0  0  0  0  0  0  0  0  0  0  0
   -3.4490   -1.3380    3.1840 C   0  0  0  0  0  0  0  0  0  0  0  0
   -4.5070   -1.9450    2.5640 C   0  0  0  0  0  0  0  0  0  0  0  0
   -5.4600   -2.6990    3.3310 N   0  0  0  0  0  0  0  0  0  0  0  0
   -4.6550   -1.9660    1.1910 C   0  0  0  0  0  0  0  0  0  0  0  0
   -5.9180   -2.4320    0.6000 C   0  0  1  0  0  0  0  0  0  0  0  0
   -5.8710   -3.7240   -0.1470 C   0  0  0  0  0  0  0  0  0  0  0  0
   -7.1940   -2.0060    1.2020 C   0  0  0  0  0  0  0  0  0  0  0  0
   -3.6770   -1.3460    0.3920 C   0  0  0  0  0  0  0  0  0  0  0  0
    1.2450    3.7090   -0.4190 C   0  0  0  0  0  0  0  0  0  0  0  0
    0.3460    4.5550    0.4680 C   0  0  0  0  0  0  0  0  0  0  0  0
   -0.8560    4.6620   -0.2090 O   0  0  0  0  0  0  0  0  0  0  0  0
   -0.5590    4.6680   -1.5420 C   0  0  0  0  0  0  0  0  0  0  0  0
  1  2  1  0
  2  3  1  0
  3  4  1  1
  3 32  1  0
  3 35  1  0
  5  4  1  1
  5  6  1  0
  5 19  1  0
  6  7  1  0
  7  8  1  0
  8  9  2  0
  8 10  1  0
 10 11  2  3
 11 12  1  0
 12 13  2  0
 12 18  1  0
 13 14  1  0
 15 14  1  1
 15 16  2  0
 15 17  2  0
 15 18  1  0
 19 20  2  0
 19 21  1  0
 21 22  1  0
 22 23  2  0
 22 31  1  0
 23 24  1  0
 24 25  2  0
 25 26  1  0
 25 27  1  0
 27 28  1  0
 27 31  2  0
 28 29  1  1
 28 30  1  0
 32 33  1  0
 33 34  1  0
 34 35  1  0
M  END
