
     RDKit          3D

 34 36  0  0  0  0  0  0  0  0999 V2000
   -4.1800    2.0240    3.5400 C   0  0  0  0  0  0  0  0  0  0  0  0
   -3.3290    0.9190    2.9920 C   0  0  0  0  0  0  0  0  0  0  0  0
   -3.7000    0.6060    1.5390 C   0  0  0  0  0  0  0  0  0  0  0  0
   -2.8590   -0.4610    1.0240 N   0  0  0  0  0  0  0  0  0  0  0  0
   -3.2730   -1.8280    1.2410 C   0  0  0  0  0  0  0  0  0  0  0  0
   -3.8980   -2.4710    0.0540 C   0  0  0  0  0  0  0  0  0  0  0  0
   -3.3490   -3.5840   -0.5130 C   0  0  0  0  0  0  0  0  0  0  0  0
   -4.1590   -3.9970   -1.6470 C   0  0  0  0  0  0  0  0  0  0  0  0
   -5.2500   -3.0330   -1.7120 C   0  0  0  0  0  0  0  0  0  0  0  0
   -5.0660   -2.1630   -0.7110 C   0  0  0  0  0  0  0  0  0  0  0  0
   -6.2000   -0.8280   -0.4490 Cl  0  0  0  0  0  0  0  0  0  0  0  0
   -1.6160   -0.1650    0.3790 C   0  0  0  0  0  0  0  0  0  0  0  0
   -0.9110   -1.1210   -0.0180 O   0  0  0  0  0  0  0  0  0  0  0  0
   -1.1900    1.2030    0.1870 C   0  0  0  0  0  0  0  0  0  0  0  0
    0.0770    1.3160   -0.5230 N   0  0  0  0  0  0  0  0  0  0  0  0
    0.1660    1.4040   -1.8290 C   0  0  0  0  0  0  0  0  0  0  0  0
   -0.8990    1.3940   -2.5090 O   0  0  0  0  0  0  0  0  0  0  0  0
    1.3810    1.5020   -2.4280 N   0  0  0  0  0  0  0  0  0  0  0  0
    2.5480    1.5190   -1.7880 C   0  0  0  0  0  0  0  0  0  0  0  0
    3.8630    1.6170   -2.3420 C   0  0  0  0  0  0  0  0  0  0  0  0
    4.2880    1.7060   -3.5470 C   0  0  0  0  0  0  0  0  0  0  0  0
    3.6260    1.7430   -4.8030 C   0  0  0  0  0  0  0  0  0  0  0  0
    4.3770    1.8420   -5.8560 O   0  0  0  0  0  0  0  0  0  0  0  0
    2.4270    1.4230   -0.3740 C   0  0  0  0  0  0  0  0  0  0  0  0
    3.6170    1.4290    0.3930 N   0  0  0  0  0  0  0  0  0  0  0  0
    4.2940    0.2290    0.7330 C   0  0  0  0  0  0  0  0  0  0  0  0
    3.8510   -1.0170    0.3590 C   0  0  0  0  0  0  0  0  0  0  0  0
    4.5260   -2.1580    0.7070 C   0  0  0  0  0  0  0  0  0  0  0  0
    5.6980   -2.1050    1.4590 C   0  0  0  0  0  0  0  0  0  0  0  0
    6.1580   -0.8630    1.8430 C   0  0  0  0  0  0  0  0  0  0  0  0
    5.4620    0.2590    1.4810 C   0  0  0  0  0  0  0  0  0  0  0  0
    6.0640    1.8310    1.9790 Cl  0  0  0  0  0  0  0  0  0  0  0  0
    1.1890    1.3240    0.2150 C   0  0  0  0  0  0  0  0  0  0  0  0
    1.1650    1.2420    1.4820 O   0  0  0  0  0  0  0  0  0  0  0  0
  1  2  1  0
  2  3  1  0
  3  4  1  0
  4  5  1  0
  4 12  1  0
  5  6  1  0
  6  7  2  0
  6 10  1  0
  7  8  1  0
  8  9  1  0
  9 10  2  0
 10 11  1  0
 12 13  2  0
 12 14  1  0
 14 15  1  0
 15 16  1  0
 15 33  1  0
 16 17  2  0
 16 18  1  0
 18 19  1  0
 19 20  1  0
 19 24  2  0
 20 21  2  3
 21 22  1  0
 22 23  2  0
 24 25  1  0
 24 33  1  0
 25 26  1  0
 26 27  2  0
 26 31  1  0
 27 28  1  0
 28 29  2  0
 29 30  1  0
 30 31  2  0
 31 32  1  0
 33 34  2  0
M  END
