
     RDKit          3D

 35 37  0  0  0  0  0  0  0  0999 V2000
   -8.8520    0.1230    0.5160 C   0  0  0  0  0  0  0  0  0  0  0  0
   -7.7640   -0.5480   -0.2140 C   0  0  0  0  0  0  0  0  0  0  0  0
   -8.0620   -1.7760   -0.7880 C   0  0  0  0  0  0  0  0  0  0  0  0
   -7.0810   -2.4410   -1.4850 C   0  0  0  0  0  0  0  0  0  0  0  0
   -5.8650   -1.8840   -1.5910 N   0  0  0  0  0  0  0  0  0  0  0  0
   -5.5600   -0.6740   -1.0290 C   0  0  0  0  0  0  0  0  0  0  0  0
   -4.2270   -0.1460   -1.1900 C   0  0  0  0  0  0  0  0  0  0  0  0
   -3.9060    1.0380   -1.8210 C   0  0  0  0  0  0  0  0  0  0  0  0
   -2.6270    1.4840   -1.9570 C   0  0  0  0  0  0  0  0  0  0  0  0
   -1.5270    0.7390   -1.4470 C   0  0  0  0  0  0  0  0  0  0  0  0
   -0.2410    1.2900   -1.6540 N   0  0  0  0  0  0  0  0  0  0  0  0
    0.7740    1.7150   -0.7940 C   0  0  0  0  0  0  0  0  0  0  0  0
    1.6230    0.7090   -0.1090 C   0  0  2  0  0  0  0  0  0  0  0  0
    0.9030   -0.1070    0.7220 O   0  0  0  0  0  0  0  0  0  0  0  0
    2.7660    1.3770    0.6580 C   0  0  0  0  0  0  0  0  0  0  0  0
    3.7160    0.4320    1.1820 N   0  0  0  0  0  0  0  0  0  0  0  0
    3.5280   -0.1800    2.4820 C   0  0  0  0  0  0  0  0  0  0  0  0
    4.8470    0.1020    0.3870 C   0  0  0  0  0  0  0  0  0  0  0  0
    4.9570    0.6500   -0.7380 O   0  0  0  0  0  0  0  0  0  0  0  0
    5.8800   -0.8730    0.8770 C   0  0  2  0  0  0  0  0  0  0  0  0
    6.4800   -0.3880    2.1890 C   0  0  0  0  0  0  0  0  0  0  0  0
    6.9580   -1.0170   -0.1790 C   0  0  1  0  0  0  0  0  0  0  0  0
    8.0010   -1.9840    0.2610 C   0  0  0  0  0  0  0  0  0  0  0  0
    6.3740   -1.2520   -1.4160 O   0  0  0  0  0  0  0  0  0  0  0  0
    7.0730   -0.7740   -2.4860 C   0  0  0  0  0  0  0  0  0  0  0  0
    7.3100   -1.4130   -3.5550 O   0  0  0  0  0  0  0  0  0  0  0  0
    7.5600    0.6230   -2.2970 C   0  0  0  0  0  0  0  0  0  0  0  0
    7.6950    0.6490   -0.4810 S   0  0  0  0  0  0  0  0  0  0  0  0
   -1.8390   -0.4290   -0.8280 C   0  0  0  0  0  0  0  0  0  0  0  0
   -3.1640   -0.8660   -0.7000 C   0  0  0  0  0  0  0  0  0  0  0  0
   -3.3740   -2.0630   -0.0540 O   0  0  0  0  0  0  0  0  0  0  0  0
   -6.5120    0.0100   -0.3300 C   0  0  0  0  0  0  0  0  0  0  0  0
   -6.2210    1.2840    0.3150 C   0  0  0  0  0  0  0  0  0  0  0  0
   -6.0500    1.1190    1.8320 C   0  0  0  0  0  0  0  0  0  0  0  0
   -4.9990    0.2370    2.0690 O   0  0  0  0  0  0  0  0  0  0  0  0
  1  2  1  0
  2  3  2  0
  2 32  1  0
  3  4  1  0
  4  5  2  0
  5  6  1  0
  6  7  1  0
  6 32  2  0
  7  8  2  0
  7 30  1  0
  8  9  1  0
  9 10  2  0
 10 11  1  0
 10 29  1  0
 11 12  1  0
 12 13  1  0
 13 14  1  1
 13 15  1  0
 15 16  1  0
 16 17  1  0
 16 18  1  0
 18 19  2  0
 18 20  1  0
 20 21  1  1
 20 22  1  0
 22 23  1  1
 22 24  1  0
 22 28  1  0
 24 25  1  0
 25 26  2  0
 25 27  1  0
 27 28  1  0
 29 30  2  0
 30 31  1  0
 32 33  1  0
 33 34  1  0
 34 35  1  0
M  END
