
     RDKit          3D

 34 37  0  0  0  0  0  0  0  0999 V2000
   -1.6520   -2.0240   -2.2270 O   0  0  0  0  0  0  0  0  0  0  0  0
   -1.8890   -1.7080   -1.0000 C   0  0  0  0  0  0  0  0  0  0  0  0
   -1.9140   -2.7350   -0.0460 N   0  0  0  0  0  0  0  0  0  0  0  0
   -1.6560   -4.1240   -0.4260 C   0  0  1  0  0  0  0  0  0  0  0  0
   -0.4350   -4.5580    0.3690 C   0  0  0  0  0  0  0  0  0  0  0  0
   -0.7400   -6.0540    0.5130 C   0  0  0  0  0  0  0  0  0  0  0  0
   -2.0950   -6.1290    0.6970 O   0  0  0  0  0  0  0  0  0  0  0  0
   -2.7060   -5.0690    0.0420 C   0  0  0  0  0  0  0  0  0  0  0  0
   -2.1140   -0.2830   -0.7600 C   0  0  0  0  0  0  0  0  0  0  0  0
   -3.3420    0.2270   -1.2380 C   0  0  0  0  0  0  0  0  0  0  0  0
   -3.6490    1.5460   -1.0510 C   0  0  0  0  0  0  0  0  0  0  0  0
   -5.1880    2.1970   -1.6450 Cl  0  0  0  0  0  0  0  0  0  0  0  0
   -2.7780    2.3880   -0.4020 C   0  0  0  0  0  0  0  0  0  0  0  0
   -3.1630    3.8200   -0.2180 C   0  0  0  0  0  0  0  0  0  0  0  0
   -4.1810    3.9740    0.8870 C   0  0  0  0  0  0  0  0  0  0  0  0
   -4.5300    5.4270    1.0420 C   0  0  0  0  0  0  0  0  0  0  0  0
   -5.7300    5.6490    2.3370 Cl  0  0  0  0  0  0  0  0  0  0  0  0
   -1.5970    1.8820    0.0530 C   0  0  0  0  0  0  0  0  0  0  0  0
   -1.2490    0.5560   -0.1150 C   0  0  0  0  0  0  0  0  0  0  0  0
    0.0110    0.0910    0.4160 C   0  0  0  0  0  0  0  0  0  0  0  0
    0.1550   -0.7860    1.4560 C   0  0  0  0  0  0  0  0  0  0  0  0
    1.4490   -1.0750    1.9020 C   0  0  0  0  0  0  0  0  0  0  0  0
    1.6000   -1.8840    2.8590 O   0  0  0  0  0  0  0  0  0  0  0  0
    2.5360   -0.5080    1.3300 N   0  0  0  0  0  0  0  0  0  0  0  0
    2.4400    0.3580    0.3100 C   0  0  0  0  0  0  0  0  0  0  0  0
    3.5540    0.9220   -0.2620 C   0  0  0  0  0  0  0  0  0  0  0  0
    4.8730    0.6300    0.1650 N   0  0  0  0  0  0  0  0  0  0  0  0
    6.0270    1.2700   -0.4730 C   0  0  0  0  0  0  0  0  0  0  0  0
    7.2830    0.7100    0.1280 C   0  0  0  0  0  0  0  0  0  0  0  0
    7.3730    0.9250    1.4920 O   0  0  0  0  0  0  0  0  0  0  0  0
    3.3970    1.7910   -1.2990 N   0  0  0  0  0  0  0  0  0  0  0  0
    2.2060    2.1180   -1.7850 C   0  0  0  0  0  0  0  0  0  0  0  0
    1.0620    1.5450   -1.2050 C   0  0  0  0  0  0  0  0  0  0  0  0
    1.1550    0.6610   -0.1530 C   0  0  0  0  0  0  0  0  0  0  0  0
  1  2  2  0
  2  3  1  0
  2  9  1  0
  4  3  1  1
  4  5  1  0
  4  8  1  0
  5  6  1  0
  6  7  1  0
  7  8  1  0
  9 10  2  0
  9 19  1  0
 10 11  1  0
 11 12  1  0
 11 13  2  0
 13 14  1  0
 13 18  1  0
 14 15  1  0
 15 16  1  0
 16 17  1  0
 18 19  2  0
 19 20  1  0
 20 21  2  0
 20 34  1  0
 21 22  1  0
 22 23  2  0
 22 24  1  0
 24 25  1  0
 25 26  2  0
 25 34  1  0
 26 27  1  0
 26 31  1  0
 27 28  1  0
 28 29  1  0
 29 30  1  0
 31 32  2  0
 32 33  1  0
 33 34  2  0
M  END
