
     RDKit          3D

 35 37  0  0  0  0  0  0  0  0999 V2000
   -6.7930    3.7580    1.8840 C   0  0  0  0  0  0  0  0  0  0  0  0
   -5.9180    2.5320    1.8590 C   0  0  0  0  0  0  0  0  0  0  0  0
   -5.1530    2.5250    0.5550 C   0  0  2  0  0  0  0  0  0  0  0  0
   -6.0930    2.4880   -0.6390 C   0  0  0  0  0  0  0  0  0  0  0  0
   -4.2710    1.3900    0.4280 N   0  0  0  0  0  0  0  0  0  0  0  0
   -2.9050    1.6010    0.1610 C   0  0  0  0  0  0  0  0  0  0  0  0
   -2.5080    2.7930    0.0450 O   0  0  0  0  0  0  0  0  0  0  0  0
   -1.9270    0.4720    0.0160 C   0  0  2  0  0  0  0  0  0  0  0  0
   -0.6410    1.0640   -0.2500 N   0  0  0  0  0  0  0  0  0  0  0  0
    0.4700    0.7260    0.5470 C   0  0  0  0  0  0  0  0  0  0  0  0
    0.4350   -0.0840    1.5110 O   0  0  0  0  0  0  0  0  0  0  0  0
    1.7740    1.3900    0.2050 C   0  0  1  0  0  0  0  0  0  0  0  0
    1.6250    2.9050    0.3220 C   0  0  0  0  0  0  0  0  0  0  0  0
    2.7920    0.9100    1.0230 O   0  0  0  0  0  0  0  0  0  0  0  0
    3.9650    0.3110    0.6600 C   0  0  0  0  0  0  0  0  0  0  0  0
    4.3510    0.0830   -0.6310 C   0  0  0  0  0  0  0  0  0  0  0  0
    5.5370   -0.5230   -0.9470 C   0  0  0  0  0  0  0  0  0  0  0  0
    6.4100   -0.9350    0.0650 C   0  0  0  0  0  0  0  0  0  0  0  0
    7.5940   -1.5400   -0.3100 O   0  0  0  0  0  0  0  0  0  0  0  0
    8.5090   -1.9770    0.6590 C   0  0  0  0  0  0  0  0  0  0  0  0
    6.0320   -0.7110    1.3520 C   0  0  0  0  0  0  0  0  0  0  0  0
    4.8340   -0.0990    1.6860 C   0  0  0  0  0  0  0  0  0  0  0  0
    4.4460    0.1290    2.9750 O   0  0  0  0  0  0  0  0  0  0  0  0
    5.2170   -0.2310    4.0840 C   0  0  0  0  0  0  0  0  0  0  0  0
   -2.4240   -0.3520   -1.1610 C   0  0  1  0  0  0  0  0  0  0  0  0
   -2.4890    0.3930   -2.4370 C   0  0  0  0  0  0  0  0  0  0  0  0
   -2.0060   -0.4720   -3.5460 C   0  0  0  0  0  0  0  0  0  0  0  0
   -1.2640   -1.5780   -2.8370 C   0  0  0  0  0  0  0  0  0  0  0  0
   -0.5010   -2.5750   -3.1920 C   0  0  0  0  0  0  0  0  0  0  0  0
    0.0890   -3.5440   -1.8600 S   0  0  0  0  0  0  0  0  0  0  0  0
   -0.8070   -4.8960   -1.4660 C   0  0  0  0  0  0  0  0  0  0  0  0
    1.0660   -4.1300   -2.5890 O   0  0  0  0  0  0  0  0  0  0  0  0
   -0.8710   -2.5230   -0.8530 C   0  0  0  0  0  0  0  0  0  0  0  0
   -1.0860   -2.6720    0.5970 N   0  0  0  0  0  0  0  0  0  0  0  0
   -1.5000   -1.5270   -1.4240 C   0  0  0  0  0  0  0  0  0  0  0  0
  1  2  1  0
  2  3  1  0
  3  4  1  6
  3  5  1  0
  5  6  1  0
  6  7  2  0
  6  8  1  0
  8  9  1  6
  8 25  1  0
  9 10  1  0
 10 11  2  0
 10 12  1  0
 12 13  1  1
 12 14  1  0
 14 15  1  0
 15 16  2  0
 15 22  1  0
 16 17  1  0
 17 18  2  0
 18 19  1  0
 18 21  1  0
 19 20  1  0
 21 22  2  0
 22 23  1  0
 23 24  1  0
 25 26  1  6
 25 35  1  0
 26 27  1  0
 27 28  1  0
 28 29  2  0
 28 35  1  0
 29 30  1  0
 30 31  1  0
 30 32  2  0
 30 33  1  0
 33 34  1  0
 33 35  2  0
M  END
