
     RDKit          3D

 34 34  0  0  0  0  0  0  0  0999 V2000
   -4.1920    3.9900    0.2230 C   0  0  0  0  0  0  0  0  0  0  0  0
   -5.1640    3.3560   -0.7090 C   0  0  2  0  0  0  0  0  0  0  0  0
   -6.2320    2.6980   -0.0430 O   0  0  0  0  0  0  0  0  0  0  0  0
   -4.5270    2.3920   -1.6950 C   0  0  1  0  0  0  0  0  0  0  0  0
   -4.0480    1.2570   -1.0240 O   0  0  0  0  0  0  0  0  0  0  0  0
   -2.6600    1.1940   -1.0920 C   0  0  0  0  0  0  0  0  0  0  0  0
   -2.0200    0.0820   -0.3610 C   0  0  2  0  0  0  0  0  0  0  0  0
   -2.6630   -0.0170    1.0720 C   0  0  0  0  0  0  0  0  0  0  0  0
   -2.3410   -1.2730    1.5680 O   0  0  0  0  0  0  0  0  0  0  0  0
   -2.9360   -1.5760    2.7820 C   0  0  2  0  0  0  0  0  0  0  0  0
   -1.9300   -2.0710    3.7590 C   0  0  0  0  0  0  0  0  0  0  0  0
   -3.9680   -2.6570    2.5250 C   0  0  0  0  0  0  0  0  0  0  0  0
   -4.6710   -3.2280    3.5700 N   0  0  0  0  0  0  0  0  0  0  0  0
   -4.1590   -3.0180    1.3100 O   0  0  0  0  0  0  0  0  0  0  0  0
   -0.6970    0.0520   -0.3690 O   0  0  0  0  0  0  0  0  0  0  0  0
    0.0860   -1.0280   -0.4080 C   0  0  1  0  0  0  0  0  0  0  0  0
    0.4620   -1.2650   -1.9350 C   0  0  0  0  0  0  0  0  0  0  0  0
    1.4360   -2.4430   -1.8710 C   0  0  0  0  0  0  0  0  0  0  0  0
    2.5860   -2.1660   -1.2570 O   0  0  0  0  0  0  0  0  0  0  0  0
    2.5600   -1.5440   -0.0560 C   0  0  1  0  0  0  0  0  0  0  0  0
    3.7920   -0.7730    0.2030 C   0  0  0  0  0  0  0  0  0  0  0  0
    4.0540    0.1230    0.8710 O   0  0  0  0  0  0  0  0  0  0  0  0
    5.1160   -1.3930   -0.7290 N   0  0  0  0  0  0  0  0  0  0  0  0
    5.9880   -0.3430   -0.4740 C   0  0  0  0  0  0  0  0  0  0  0  0
    5.9490    0.7190    0.0680 O   0  0  0  0  0  0  0  0  0  0  0  0
    7.3210   -0.7260   -1.0840 N   0  0  0  0  0  0  0  0  0  0  0  0
    8.3610    0.1920   -1.0110 C   0  0  0  0  0  0  0  0  0  0  0  0
    8.8050    0.5660    0.3380 C   0  0  0  0  0  0  0  0  0  0  0  0
    9.8650    1.5150    0.4920 N   0  0  0  0  0  0  0  0  0  0  0  0
    8.3110    0.1040    1.4180 O   0  0  0  0  0  0  0  0  0  0  0  0
    1.4070   -0.6570    0.1910 C   0  0  0  0  0  0  0  0  0  0  0  0
   -5.4460    2.1030   -2.7910 C   0  0  0  0  0  0  0  0  0  0  0  0
   -5.6400    0.8520   -3.0400 O   0  0  0  0  0  0  0  0  0  0  0  0
   -6.1170    2.9890   -3.5660 O   0  0  0  0  0  0  0  0  0  0  0  0
  2  1  1  1
  2  3  1  0
  2  4  1  0
  4  5  1  1
  4 32  1  0
  5  6  1  0
  7  6  1  1
  7  8  1  0
  7 15  1  0
  8  9  1  0
  9 10  1  0
 10 11  1  1
 10 12  1  0
 12 13  1  0
 12 14  2  0
 16 15  1  6
 16 17  1  0
 16 31  1  0
 17 18  1  0
 18 19  1  0
 19 20  1  0
 20 21  1  6
 20 31  1  0
 21 22  2  0
 21 23  1  0
 23 24  1  0
 24 25  2  0
 24 26  1  0
 26 27  1  0
 27 28  1  0
 28 29  1  0
 28 30  2  0
 32 33  2  0
 32 34  1  0
M  END
