
     RDKit          3D

 34 35  0  0  0  0  0  0  0  0999 V2000
    5.3350    0.8110   -0.3850 O   0  0  0  0  0  0  0  0  0  0  0  0
    4.5850    0.0180    0.2400 C   0  0  0  0  0  0  0  0  0  0  0  0
    3.1050    0.1150    0.1740 C   0  0  0  0  0  0  0  0  0  0  0  0
    2.6690    1.2450   -0.7140 C   0  0  2  0  0  0  0  0  0  0  0  0
    3.1940    2.4320   -0.1800 O   0  0  0  0  0  0  0  0  0  0  0  0
    1.1450    1.3940   -0.6440 C   0  0  0  0  0  0  0  0  0  0  0  0
    0.5710    1.7980   -1.9700 C   0  0  2  0  0  0  0  0  0  0  0  0
    0.4830    0.7040   -2.7930 O   0  0  0  0  0  0  0  0  0  0  0  0
   -0.7150    0.4970   -3.4090 C   0  0  0  0  0  0  0  0  0  0  0  0
   -1.9040    0.2630   -2.5460 C   0  0  1  0  0  0  0  0  0  0  0  0
   -3.0000    0.1310   -3.4520 O   0  0  0  0  0  0  0  0  0  0  0  0
   -1.8260   -1.0130   -1.7330 C   0  0  0  0  0  0  0  0  0  0  0  0
   -3.0670   -1.1810   -1.0250 N   0  0  0  0  0  0  0  0  0  0  0  0
   -3.5900   -0.3010   -0.0660 C   0  0  0  0  0  0  0  0  0  0  0  0
   -2.9130    0.7430    0.2270 O   0  0  0  0  0  0  0  0  0  0  0  0
   -4.8320   -0.5150    0.5940 N   0  0  0  0  0  0  0  0  0  0  0  0
   -5.2810    0.4400    1.5580 C   0  0  0  0  0  0  0  0  0  0  0  0
   -6.5850    0.0510    2.1540 C   0  0  2  0  0  0  0  0  0  0  0  0
   -6.6180   -1.2390    2.8860 C   0  0  0  0  0  0  0  0  0  0  0  0
   -6.3020   -2.3660    2.1720 O   0  0  0  0  0  0  0  0  0  0  0  0
   -7.6160    0.1250    1.0730 C   0  0  0  0  0  0  0  0  0  0  0  0
   -8.2990   -0.8440    0.6970 O   0  0  0  0  0  0  0  0  0  0  0  0
   -7.8130    1.3520    0.4610 O   0  0  0  0  0  0  0  0  0  0  0  0
    1.5420    2.8340   -2.5930 C   0  0  0  0  0  0  0  0  0  0  0  0
    2.6590    2.0350   -3.0420 N   0  0  0  0  0  0  0  0  0  0  0  0
    3.1380    1.0630   -2.1180 C   0  0  0  0  0  0  0  0  0  0  0  0
    3.9030    0.1220   -2.4820 O   0  0  0  0  0  0  0  0  0  0  0  0
    5.2300   -0.9820    1.0170 N   0  0  0  0  0  0  0  0  0  0  0  0
    6.6590   -1.1210    1.1160 C   0  0  1  0  0  0  0  0  0  0  0  0
    7.0140   -1.0150    2.6040 C   0  0  0  0  0  0  0  0  0  0  0  0
    6.5970   -2.3950    3.0810 C   0  0  0  0  0  0  0  0  0  0  0  0
    6.8830   -3.2370    1.9910 O   0  0  0  0  0  0  0  0  0  0  0  0
    7.0930   -2.5160    0.8310 C   0  0  0  0  0  0  0  0  0  0  0  0
    7.5680   -2.9790   -0.2560 O   0  0  0  0  0  0  0  0  0  0  0  0
  1  2  2  0
  2  3  1  0
  2 28  1  0
  3  4  1  0
  4  5  1  1
  4  6  1  0
  4 26  1  0
  6  7  1  0
  7  8  1  6
  7 24  1  0
  8  9  1  0
  9 10  1  0
 10 11  1  6
 10 12  1  0
 12 13  1  0
 13 14  1  0
 14 15  2  0
 14 16  1  0
 16 17  1  0
 18 17  1  6
 18 19  1  0
 18 21  1  0
 19 20  1  0
 21 22  2  0
 21 23  1  0
 24 25  1  0
 25 26  1  0
 26 27  2  0
 29 28  1  1
 29 30  1  0
 29 33  1  0
 30 31  1  0
 31 32  1  0
 32 33  1  0
 33 34  2  0
M  END
