
     RDKit          3D

 35 37  0  0  0  0  0  0  0  0999 V2000
   -5.0520   -2.9200   -1.6710 C   0  0  0  0  0  0  0  0  0  0  0  0
   -5.0870   -1.5840   -0.9180 C   0  0  0  0  0  0  0  0  0  0  0  0
   -6.1480   -1.3380   -0.2310 C   0  0  0  0  0  0  0  0  0  0  0  0
   -6.6290   -0.2700    0.6070 C   0  0  0  0  0  0  0  0  0  0  0  0
   -7.2650   -0.5250    1.7270 N   0  0  0  0  0  0  0  0  0  0  0  0
   -6.5260    1.2030    0.3940 C   0  0  0  0  0  0  0  0  0  0  0  0
   -6.0470    1.8200    1.6510 C   0  0  0  0  0  0  0  0  0  0  0  0
   -5.3150    2.9980    1.5990 O   0  0  0  0  0  0  0  0  0  0  0  0
   -3.9440    2.9520    1.3480 C   0  0  0  0  0  0  0  0  0  0  0  0
   -3.0860    3.6370    1.9330 O   0  0  0  0  0  0  0  0  0  0  0  0
   -3.5690    1.9910    0.2940 C   0  0  0  0  0  0  0  0  0  0  0  0
   -2.1870    1.5320    0.2020 C   0  0  0  0  0  0  0  0  0  0  0  0
   -1.2070    2.4860    0.2700 C   0  0  0  0  0  0  0  0  0  0  0  0
    0.1380    2.2130    0.1990 C   0  0  0  0  0  0  0  0  0  0  0  0
    0.5190    0.8900    0.0490 C   0  0  0  0  0  0  0  0  0  0  0  0
    1.8960    0.6180   -0.0060 N   0  0  0  0  0  0  0  0  0  0  0  0
    2.5040   -0.5600   -0.4490 C   0  0  0  0  0  0  0  0  0  0  0  0
    1.7960   -1.5280   -0.8680 O   0  0  0  0  0  0  0  0  0  0  0  0
    3.9450   -0.7540   -0.4620 C   0  0  0  0  0  0  0  0  0  0  0  0
    4.8130    0.1470   -0.0630 C   0  0  0  0  0  0  0  0  0  0  0  0
    6.2480   -0.1010   -0.0980 C   0  0  0  0  0  0  0  0  0  0  0  0
    6.8290   -1.2510   -0.5310 C   0  0  0  0  0  0  0  0  0  0  0  0
    8.2160   -1.4180   -0.5360 C   0  0  0  0  0  0  0  0  0  0  0  0
    9.0460   -0.4160   -0.0980 C   0  0  0  0  0  0  0  0  0  0  0  0
   10.5080   -0.5920   -0.1030 C   0  0  0  0  0  0  0  0  0  0  0  0
   11.3380    0.4500    0.3510 N   0  0  0  0  0  0  0  0  0  0  0  0
   11.0210   -1.6510   -0.5030 O   0  0  0  0  0  0  0  0  0  0  0  0
    8.4800    0.7560    0.3450 C   0  0  0  0  0  0  0  0  0  0  0  0
    7.1120    0.9070    0.3440 C   0  0  0  0  0  0  0  0  0  0  0  0
   -0.4640   -0.0440   -0.0180 C   0  0  0  0  0  0  0  0  0  0  0  0
   -1.8380    0.2030    0.0510 C   0  0  0  0  0  0  0  0  0  0  0  0
   -2.8260   -0.9130   -0.0470 C   0  0  2  0  0  0  0  0  0  0  0  0
   -3.2820   -1.4390    1.2750 C   0  0  0  0  0  0  0  0  0  0  0  0
   -2.0200   -2.0320   -0.4580 O   0  0  0  0  0  0  0  0  0  0  0  0
   -3.8510   -0.7780   -1.1150 C   0  0  0  0  0  0  0  0  0  0  0  0
  1  2  1  0
  2  3  2  0
  2 35  1  0
  3  4  1  0
  4  5  2  0
  4  6  1  0
  6  7  1  0
  7  8  1  0
  8  9  1  0
  9 10  2  0
  9 11  1  0
 11 12  1  0
 12 13  2  0
 12 31  1  0
 13 14  1  0
 14 15  2  0
 15 16  1  0
 15 30  1  0
 16 17  1  0
 17 18  2  0
 17 19  1  0
 19 20  2  3
 20 21  1  0
 21 22  2  0
 21 29  1  0
 22 23  1  0
 23 24  2  0
 24 25  1  0
 24 28  1  0
 25 26  1  0
 25 27  2  0
 28 29  2  0
 30 31  2  0
 31 32  1  0
 32 33  1  1
 32 34  1  0
 32 35  1  0
M  END
