
     RDKit          3D

 34 34  0  0  0  0  0  0  0  0999 V2000
   -6.1770   -4.3550   -0.9410 C   0  0  0  0  0  0  0  0  0  0  0  0
   -5.9510   -3.0910   -0.3690 O   0  0  0  0  0  0  0  0  0  0  0  0
   -5.1370   -2.1940   -1.0160 C   0  0  0  0  0  0  0  0  0  0  0  0
   -4.6090   -2.5200   -2.1060 O   0  0  0  0  0  0  0  0  0  0  0  0
   -4.8470   -0.8380   -0.4780 C   0  0  1  0  0  0  0  0  0  0  0  0
   -3.9620   -0.1340   -1.3640 N   0  0  0  0  0  0  0  0  0  0  0  0
   -3.5200    1.1890   -1.1160 C   0  0  0  0  0  0  0  0  0  0  0  0
   -3.8760    1.8330   -0.0820 O   0  0  0  0  0  0  0  0  0  0  0  0
   -2.6400    1.8520   -2.0480 N   0  0  0  0  0  0  0  0  0  0  0  0
   -2.2170    3.1950   -1.7800 C   0  0  0  0  0  0  0  0  0  0  0  0
   -1.4570    3.4140   -0.5130 C   0  0  2  0  0  0  0  0  0  0  0  0
   -1.1780    4.8220   -0.4100 O   0  0  0  0  0  0  0  0  0  0  0  0
   -0.0870    2.7850   -0.4650 C   0  0  2  0  0  0  0  0  0  0  0  0
    0.7390    3.1920   -1.5180 O   0  0  0  0  0  0  0  0  0  0  0  0
   -0.1920    1.2890   -0.4840 C   0  0  0  0  0  0  0  0  0  0  0  0
    1.0280    0.6350   -0.3150 O   0  0  0  0  0  0  0  0  0  0  0  0
    1.6690    0.8930    0.8660 C   0  0  0  0  0  0  0  0  0  0  0  0
    2.9460    0.1130    0.9000 C   0  0  0  0  0  0  0  0  0  0  0  0
    3.6880    0.2020    1.9160 O   0  0  0  0  0  0  0  0  0  0  0  0
    3.3790   -0.7300   -0.1540 N   0  0  0  0  0  0  0  0  0  0  0  0
    4.5760   -1.4550   -0.1130 N   0  0  0  0  0  0  0  0  0  0  0  0
    5.8180   -0.8830    0.2090 C   0  0  0  0  0  0  0  0  0  0  0  0
    5.8860    0.3360    0.4780 O   0  0  0  0  0  0  0  0  0  0  0  0
    6.9460   -1.7050    0.2190 O   0  0  0  0  0  0  0  0  0  0  0  0
    8.2060   -1.1140    0.5510 C   0  0  1  0  0  0  0  0  0  0  0  0
    8.4740   -0.0350   -0.4610 C   0  0  0  0  0  0  0  0  0  0  0  0
    8.0700   -0.5660    1.9560 C   0  0  0  0  0  0  0  0  0  0  0  0
    9.2540   -2.2050    0.4770 C   0  0  0  0  0  0  0  0  0  0  0  0
   -6.1930   -0.1380   -0.3690 C   0  0  0  0  0  0  0  0  0  0  0  0
   -6.6820   -0.5350    0.9800 C   0  0  2  0  0  0  0  0  0  0  0  0
   -7.6100    0.4060    1.4420 O   0  0  0  0  0  0  0  0  0  0  0  0
   -5.4070   -0.4740    1.8080 C   0  0  0  0  0  0  0  0  0  0  0  0
   -4.3220   -1.0350    0.9110 C   0  0  2  0  0  0  0  0  0  0  0  0
   -3.0920   -0.4900    1.1650 O   0  0  0  0  0  0  0  0  0  0  0  0
  1  2  1  0
  2  3  1  0
  3  4  2  0
  3  5  1  0
  5  6  1  6
  5 29  1  0
  5 33  1  0
  6  7  1  0
  7  8  2  0
  7  9  1  0
  9 10  1  0
 10 11  1  0
 11 12  1  6
 11 13  1  0
 13 14  1  6
 13 15  1  0
 15 16  1  0
 16 17  1  0
 17 18  1  0
 18 19  2  0
 18 20  1  0
 20 21  1  0
 21 22  1  0
 22 23  2  0
 22 24  1  0
 24 25  1  0
 25 26  1  6
 25 27  1  0
 25 28  1  0
 29 30  1  0
 30 31  1  1
 30 32  1  0
 32 33  1  0
 33 34  1  6
M  END
