
     RDKit          3D

 34 34  0  0  0  0  0  0  0  0999 V2000
    5.9490    0.6210   -2.4450 C   0  0  0  0  0  0  0  0  0  0  0  0
    5.5190    0.4540   -1.0050 C   0  0  1  0  0  0  0  0  0  0  0  0
    4.3080   -0.4550   -1.0420 C   0  0  0  0  0  0  0  0  0  0  0  0
    3.9960   -1.0800    0.2630 C   0  0  2  0  0  0  0  0  0  0  0  0
    4.6300   -2.3210    0.3540 O   0  0  0  0  0  0  0  0  0  0  0  0
    2.5830   -1.2370    0.5760 C   0  0  0  0  0  0  0  0  0  0  0  0
    2.1470   -2.3750    0.8740 O   0  0  0  0  0  0  0  0  0  0  0  0
    1.6370   -0.1700    0.5690 N   0  0  0  0  0  0  0  0  0  0  0  0
    0.2550   -0.3380    0.8740 C   0  0  0  0  0  0  0  0  0  0  0  0
   -0.1090   -1.5030    1.1630 O   0  0  0  0  0  0  0  0  0  0  0  0
   -0.6500    0.8290    0.8360 C   0  0  0  0  0  0  0  0  0  0  0  0
   -2.0540    0.3920    1.0980 C   0  0  0  0  0  0  0  0  0  0  0  0
   -2.6190   -0.5750    0.1040 C   0  0  2  0  0  0  0  0  0  0  0  0
   -2.6340   -0.0420   -1.1920 O   0  0  0  0  0  0  0  0  0  0  0  0
   -4.0370   -0.8450    0.5010 C   0  0  0  0  0  0  0  0  0  0  0  0
   -4.3540   -1.3290    1.6090 O   0  0  0  0  0  0  0  0  0  0  0  0
   -5.0370   -0.5460   -0.4010 O   0  0  0  0  0  0  0  0  0  0  0  0
   -6.4130   -0.7800   -0.0820 C   0  0  2  0  0  0  0  0  0  0  0  0
   -6.7720    0.0170    1.1240 C   0  0  0  0  0  0  0  0  0  0  0  0
   -6.5960   -2.2320    0.0970 C   0  0  0  0  0  0  0  0  0  0  0  0
   -7.8460   -2.8220    0.4390 N   0  0  0  0  0  0  0  0  0  0  0  0
   -5.5900   -2.9850   -0.0610 O   0  0  0  0  0  0  0  0  0  0  0  0
   -7.1940   -0.3410   -1.2930 C   0  0  1  0  0  0  0  0  0  0  0  0
   -8.5390   -0.5190   -1.0770 O   0  0  0  0  0  0  0  0  0  0  0  0
   -6.8510    1.1240   -1.5960 C   0  0  0  0  0  0  0  0  0  0  0  0
   -7.2210    1.9420   -0.5380 O   0  0  0  0  0  0  0  0  0  0  0  0
   -6.8840    3.2080   -0.8890 N   0  0  0  0  0  0  0  0  0  0  0  0
    4.6360   -0.2310    1.3650 C   0  0  2  0  0  0  0  0  0  0  0  0
    4.0750    1.0290    1.4430 O   0  0  0  0  0  0  0  0  0  0  0  0
    6.1420   -0.1930    1.1880 C   0  0  0  0  0  0  0  0  0  0  0  0
    6.5160   -0.1600   -0.2040 N   0  0  0  0  0  0  0  0  0  0  0  0
    7.8650    0.2140   -0.4310 C   0  0  0  0  0  0  0  0  0  0  0  0
    8.2230    1.6220   -0.1010 C   0  0  0  0  0  0  0  0  0  0  0  0
    9.5980    1.7740   -0.4020 O   0  0  0  0  0  0  0  0  0  0  0  0
  2  1  1  6
  2  3  1  0
  2 31  1  0
  3  4  1  0
  4  5  1  6
  4  6  1  0
  4 28  1  0
  6  7  2  0
  6  8  1  0
  8  9  1  0
  9 10  2  0
  9 11  1  0
 11 12  1  0
 12 13  1  0
 13 14  1  6
 13 15  1  0
 15 16  2  0
 15 17  1  0
 17 18  1  0
 18 19  1  1
 18 20  1  0
 18 23  1  0
 20 21  1  0
 20 22  2  0
 23 24  1  1
 23 25  1  0
 25 26  1  0
 26 27  1  0
 28 29  1  6
 28 30  1  0
 30 31  1  0
 31 32  1  0
 32 33  1  0
 33 34  1  0
M  END
