
     RDKit          3D

 34 37  0  0  0  0  0  0  0  0999 V2000
   -5.6010   -1.9580    0.0600 C   0  0  0  0  0  0  0  0  0  0  0  0
   -4.5140   -0.8870    0.2810 C   0  0  1  0  0  0  0  0  0  0  0  0
   -4.6090    0.0310   -0.9250 C   0  0  0  0  0  0  0  0  0  0  0  0
   -5.9100    0.5880   -0.9460 O   0  0  0  0  0  0  0  0  0  0  0  0
   -4.9900   -0.1050    1.4940 C   0  0  0  0  0  0  0  0  0  0  0  0
   -3.8490    0.5590    2.2380 C   0  0  0  0  0  0  0  0  0  0  0  0
   -2.8390   -0.4460    2.7140 C   0  0  0  0  0  0  0  0  0  0  0  0
   -2.9890   -1.7640    1.9600 C   0  0  0  0  0  0  0  0  0  0  0  0
   -3.1720   -1.5200    0.4630 C   0  0  2  0  0  0  0  0  0  0  0  0
   -2.1110   -0.7700   -0.1030 N   0  0  0  0  0  0  0  0  0  0  0  0
   -0.9800   -1.4260   -0.6720 C   0  0  0  0  0  0  0  0  0  0  0  0
   -0.9870   -2.6900   -0.6190 O   0  0  0  0  0  0  0  0  0  0  0  0
    0.1370   -0.7100   -1.2740 C   0  0  0  0  0  0  0  0  0  0  0  0
    1.4490   -0.9030   -0.8750 C   0  0  0  0  0  0  0  0  0  0  0  0
    2.4950   -0.1470   -1.3630 C   0  0  0  0  0  0  0  0  0  0  0  0
    3.8490   -0.4110   -0.8800 C   0  0  0  0  0  0  0  0  0  0  0  0
    4.1070   -1.4400   -0.2210 O   0  0  0  0  0  0  0  0  0  0  0  0
    4.9320    0.4810   -1.1290 N   0  0  0  0  0  0  0  0  0  0  0  0
    6.2810    0.2410   -0.6560 C   0  0  0  0  0  0  0  0  0  0  0  0
    6.3320    0.1080    0.8170 C   0  0  0  0  0  0  0  0  0  0  0  0
    6.4130   -1.1160    1.4470 C   0  0  0  0  0  0  0  0  0  0  0  0
    6.4400   -0.8790    2.8100 C   0  0  0  0  0  0  0  0  0  0  0  0
    6.3730    0.4930    2.9450 C   0  0  0  0  0  0  0  0  0  0  0  0
    6.3750    1.1860    4.2700 C   0  0  0  0  0  0  0  0  0  0  0  0
    5.0600    1.1790    4.7200 O   0  0  0  0  0  0  0  0  0  0  0  0
    6.3120    1.0150    1.7400 O   0  0  0  0  0  0  0  0  0  0  0  0
    2.1840    0.8240   -2.2790 C   0  0  0  0  0  0  0  0  0  0  0  0
    0.9040    1.0710   -2.7230 C   0  0  0  0  0  0  0  0  0  0  0  0
    0.6580    2.0560   -3.6840 C   0  0  0  0  0  0  0  0  0  0  0  0
   -0.6110    2.2770   -4.1520 C   0  0  0  0  0  0  0  0  0  0  0  0
   -1.6340    1.5050   -3.6520 C   0  0  0  0  0  0  0  0  0  0  0  0
   -2.9590    1.7090   -4.1290 N   0  0  0  0  0  0  0  0  0  0  0  0
   -1.3720    0.5340   -2.6980 C   0  0  0  0  0  0  0  0  0  0  0  0
   -0.1130    0.2780   -2.1980 C   0  0  0  0  0  0  0  0  0  0  0  0
  2  1  1  6
  2  3  1  0
  2  5  1  0
  2  9  1  0
  3  4  1  0
  5  6  1  0
  6  7  1  0
  7  8  1  0
  8  9  1  0
  9 10  1  1
 10 11  1  0
 11 12  2  0
 11 13  1  0
 13 14  2  0
 13 34  1  0
 14 15  1  0
 15 16  1  0
 15 27  2  0
 16 17  2  0
 16 18  1  0
 18 19  1  0
 19 20  1  0
 20 21  2  0
 20 26  1  0
 21 22  1  0
 22 23  2  0
 23 24  1  0
 23 26  1  0
 24 25  1  0
 27 28  1  0
 28 29  2  0
 28 34  1  0
 29 30  1  0
 30 31  2  0
 31 32  1  0
 31 33  1  0
 33 34  2  0
M  END
