
     RDKit          3D

 38 43  0  0  0  0  0  0  0  0999 V2000
    7.9010   -0.1420    1.6650 C   0  0  0  0  0  0  0  0  0  0  0  0
    6.6720    0.4340    1.1860 N   0  0  2  0  0  0  0  0  0  0  0  0
    5.6450   -0.5730    1.1400 C   0  0  0  0  0  0  0  0  0  0  0  0
    4.3350    0.0820    0.8000 C   0  0  0  0  0  0  0  0  0  0  0  0
    4.3830    0.8730   -0.3910 N   0  0  2  0  0  0  0  0  0  0  0  0
    4.1900    0.0530   -1.6010 C   0  0  0  0  0  0  0  0  0  0  0  0
    3.3400    0.7960   -2.5980 C   0  0  0  0  0  0  0  0  0  0  0  0
    2.0750    1.1420   -2.1690 O   0  0  0  0  0  0  0  0  0  0  0  0
    1.0300    0.3410   -1.8240 C   0  0  0  0  0  0  0  0  0  0  0  0
   -0.1390    0.9830   -1.3890 C   0  0  0  0  0  0  0  0  0  0  0  0
   -1.2800    0.2880   -1.0090 C   0  0  0  0  0  0  0  0  0  0  0  0
   -2.3830    0.9610   -0.5960 O   0  0  0  0  0  0  0  0  0  0  0  0
   -2.6270    2.3120   -0.4650 C   0  0  2  0  0  0  0  0  0  0  0  0
   -2.9890    2.6840    0.9830 C   0  0  0  0  0  0  0  0  0  0  0  0
   -3.5500    4.0730    0.9620 C   0  0  0  0  0  0  0  0  0  0  0  0
   -3.1340    4.7190   -0.1960 O   0  0  0  0  0  0  0  0  0  0  0  0
   -3.9280    4.2210   -1.2550 C   0  0  0  0  0  0  0  0  0  0  0  0
   -3.8440    2.7110   -1.2790 C   0  0  0  0  0  0  0  0  0  0  0  0
   -1.2790   -1.0860   -1.0550 C   0  0  0  0  0  0  0  0  0  0  0  0
   -2.3780   -1.8130   -0.6910 C   0  0  0  0  0  0  0  0  0  0  0  0
   -3.5860   -1.2660   -0.2460 N   0  0  0  0  0  0  0  0  0  0  0  0
   -4.6510   -2.1800    0.1010 C   0  0  0  0  0  0  0  0  0  0  0  0
   -5.5760   -2.6040   -0.8280 C   0  0  0  0  0  0  0  0  0  0  0  0
   -5.4680   -2.0210   -2.4890 Cl  0  0  0  0  0  0  0  0  0  0  0  0
   -6.5930   -3.4840   -0.4750 C   0  0  0  0  0  0  0  0  0  0  0  0
   -6.6850   -3.9450    0.8210 C   0  0  0  0  0  0  0  0  0  0  0  0
   -5.7760   -3.5360    1.7610 C   0  0  0  0  0  0  0  0  0  0  0  0
   -4.7740   -2.6610    1.3860 C   0  0  0  0  0  0  0  0  0  0  0  0
   -4.0110   -2.4150    2.4980 O   0  0  0  0  0  0  0  0  0  0  0  0
   -4.6640   -2.9620    3.6290 C   0  0  0  0  0  0  0  0  0  0  0  0
   -5.6480   -3.8490    3.1240 O   0  0  0  0  0  0  0  0  0  0  0  0
   -2.2700   -3.1810   -0.7750 N   0  0  0  0  0  0  0  0  0  0  0  0
   -1.1900   -3.8330   -1.1790 C   0  0  0  0  0  0  0  0  0  0  0  0
   -0.1210   -3.1130   -1.5330 N   0  0  0  0  0  0  0  0  0  0  0  0
   -0.1450   -1.7700   -1.4800 C   0  0  0  0  0  0  0  0  0  0  0  0
    0.9800   -1.0270   -1.8530 C   0  0  0  0  0  0  0  0  0  0  0  0
    5.5550    1.7020   -0.5050 C   0  0  0  0  0  0  0  0  0  0  0  0
    6.8190    0.9890   -0.1300 C   0  0  0  0  0  0  0  0  0  0  0  0
  2  1  1  6
  2  3  1  0
  2 38  1  0
  3  4  1  0
  4  5  1  0
  5  6  1  6
  5 37  1  0
  6  7  1  0
  7  8  1  0
  8  9  1  0
  9 10  2  0
  9 36  1  0
 10 11  1  0
 11 12  1  0
 11 19  2  0
 13 12  1  1
 13 14  1  0
 13 18  1  0
 14 15  1  0
 15 16  1  0
 16 17  1  0
 17 18  1  0
 19 20  1  0
 19 35  1  0
 20 21  1  0
 20 32  2  0
 21 22  1  0
 22 23  2  0
 22 28  1  0
 23 24  1  0
 23 25  1  0
 25 26  2  0
 26 27  1  0
 27 28  2  0
 27 31  1  0
 28 29  1  0
 29 30  1  0
 30 31  1  0
 32 33  1  0
 33 34  2  0
 34 35  1  0
 35 36  2  0
 37 38  1  0
M  CHG  2   2   1   5   1
M  END
