
     RDKit          3D

 38 41  0  0  0  0  0  0  0  0999 V2000
   -5.0400    2.6350   -1.9520 C   0  0  0  0  0  0  0  0  0  0  0  0
   -4.5600    2.7820   -0.6430 O   0  0  0  0  0  0  0  0  0  0  0  0
   -3.1910    2.6200   -0.3280 C   0  0  0  0  0  0  0  0  0  0  0  0
   -2.4050    3.7530   -0.3950 C   0  0  0  0  0  0  0  0  0  0  0  0
   -2.9680    4.9810   -0.7590 O   0  0  0  0  0  0  0  0  0  0  0  0
   -1.0380    3.7190   -0.1080 C   0  0  0  0  0  0  0  0  0  0  0  0
   -0.2470    4.8530   -0.1740 O   0  0  0  0  0  0  0  0  0  0  0  0
   -0.4720    2.5150    0.2500 C   0  0  0  0  0  0  0  0  0  0  0  0
   -1.2320    1.3720    0.3240 C   0  0  0  0  0  0  0  0  0  0  0  0
   -2.6210    1.4100    0.0340 C   0  0  0  0  0  0  0  0  0  0  0  0
   -3.3940    0.3050    0.1030 O   0  0  0  0  0  0  0  0  0  0  0  0
   -3.7600   -0.6160    1.0740 C   0  0  0  0  0  0  0  0  0  0  0  0
   -4.1900   -1.8850    0.3670 C   0  0  1  0  0  0  0  0  0  0  0  0
   -4.2950   -1.6490   -1.0240 O   0  0  0  0  0  0  0  0  0  0  0  0
   -3.2820   -3.0530    0.5810 C   0  0  0  0  0  0  0  0  0  0  0  0
   -3.3470   -3.8760   -0.5840 O   0  0  0  0  0  0  0  0  0  0  0  0
   -2.3250   -3.9020   -1.5180 C   0  0  0  0  0  0  0  0  0  0  0  0
   -2.6250   -4.1870   -2.7020 O   0  0  0  0  0  0  0  0  0  0  0  0
   -0.9310   -3.6140   -1.1840 C   0  0  0  0  0  0  0  0  0  0  0  0
   -0.6120   -2.1140   -1.3620 C   0  0  0  0  0  0  0  0  0  0  0  0
    0.4120   -1.7430   -0.4080 N   0  0  0  0  0  0  0  0  0  0  0  0
    0.5880   -0.3240   -0.2050 C   0  0  1  0  0  0  0  0  0  0  0  0
    0.5850    0.3460   -1.5430 C   0  0  0  0  0  0  0  0  0  0  0  0
   -0.5960    0.2070   -2.2620 O   0  0  0  0  0  0  0  0  0  0  0  0
   -0.5560    0.1170    0.6790 C   0  0  1  0  0  0  0  0  0  0  0  0
   -0.1630    0.0490    2.1280 C   0  0  0  0  0  0  0  0  0  0  0  0
    0.8460   -0.9460    2.5280 C   0  0  0  0  0  0  0  0  0  0  0  0
    1.9270   -1.2690    1.5760 C   0  0  0  0  0  0  0  0  0  0  0  0
    1.8980   -0.1500    0.5350 C   0  0  1  0  0  0  0  0  0  0  0  0
    3.0800   -0.0990   -0.3420 C   0  0  2  0  0  0  0  0  0  0  0  0
    3.2850   -1.2470   -1.1040 O   0  0  0  0  0  0  0  0  0  0  0  0
    4.3380    0.2940    0.2510 C   0  0  0  0  0  0  0  0  0  0  0  0
    4.4480    0.8230    1.4980 C   0  0  0  0  0  0  0  0  0  0  0  0
    5.7070    1.1580    1.9870 C   0  0  0  0  0  0  0  0  0  0  0  0
    6.8310    0.9610    1.2270 C   0  0  0  0  0  0  0  0  0  0  0  0
    6.7430    0.4280   -0.0400 C   0  0  0  0  0  0  0  0  0  0  0  0
    7.8970    0.2330   -0.8030 O   0  0  0  0  0  0  0  0  0  0  0  0
    5.4890    0.1110   -0.4860 C   0  0  0  0  0  0  0  0  0  0  0  0
  1  2  1  0
  2  3  1  0
  3  4  2  0
  3 10  1  0
  4  5  1  0
  4  6  1  0
  6  7  1  0
  6  8  2  0
  8  9  1  0
  9 10  2  0
  9 25  1  0
 10 11  1  0
 11 12  1  0
 12 13  1  0
 13 14  1  6
 13 15  1  0
 15 16  1  0
 16 17  1  0
 17 18  2  0
 17 19  1  0
 19 20  1  0
 20 21  1  0
 21 22  1  0
 22 23  1  6
 22 25  1  0
 22 29  1  0
 23 24  1  0
 25 26  1  1
 26 27  1  0
 27 28  1  0
 29 28  1  1
 29 30  1  0
 30 31  1  1
 30 32  1  0
 32 33  2  0
 32 38  1  0
 33 34  1  0
 34 35  2  0
 35 36  1  0
 36 37  1  0
 36 38  2  0
M  CHG  1  21   1
M  END
