
     RDKit          3D

 38 42  0  0  0  0  0  0  0  0999 V2000
    1.9940   -0.1280    3.8160 C   0  0  0  0  0  0  0  0  0  0  0  0
    3.0380    0.1350    3.1140 C   0  0  0  0  0  0  0  0  0  0  0  0
    4.3410    0.5590    3.7540 C   0  0  0  0  0  0  0  0  0  0  0  0
    5.2480   -0.4830    3.3040 O   0  0  0  0  0  0  0  0  0  0  0  0
    5.3650   -0.7010    1.9330 C   0  0  0  0  0  0  0  0  0  0  0  0
    6.4280   -1.1000    1.4160 O   0  0  0  0  0  0  0  0  0  0  0  0
    4.2100   -0.4560    1.0870 C   0  0  0  0  0  0  0  0  0  0  0  0
    4.2550   -0.6110   -0.2650 C   0  0  0  0  0  0  0  0  0  0  0  0
    3.1520   -0.3420   -1.0240 C   0  0  0  0  0  0  0  0  0  0  0  0
    1.9240    0.1040   -0.4950 C   0  0  0  0  0  0  0  0  0  0  0  0
    1.8950    0.2580    0.9020 C   0  0  0  0  0  0  0  0  0  0  0  0
    2.9920   -0.0150    1.6580 C   0  0  0  0  0  0  0  0  0  0  0  0
    0.6830    0.7960    1.5850 C   0  0  0  0  0  0  0  0  0  0  0  0
   -0.3900   -0.0640    1.5290 O   0  0  0  0  0  0  0  0  0  0  0  0
   -1.4860   -0.2790    2.2880 C   0  0  0  0  0  0  0  0  0  0  0  0
   -1.6100   -1.1790    3.1590 O   0  0  0  0  0  0  0  0  0  0  0  0
   -2.7010    0.6010    2.1260 C   0  0  0  0  0  0  0  0  0  0  0  0
   -2.8030    1.0250    0.6940 C   0  0  2  0  0  0  0  0  0  0  0  0
   -3.2990    2.3160    0.5630 O   0  0  0  0  0  0  0  0  0  0  0  0
   -4.5510    2.3370    1.1650 C   0  0  0  0  0  0  0  0  0  0  0  0
   -5.4560    1.2500    0.6920 C   0  0  0  0  0  0  0  0  0  0  0  0
   -4.8870    0.6110   -0.5040 N   0  0  0  0  0  0  0  0  0  0  0  0
   -3.5360    0.1080   -0.2500 C   0  0  2  0  0  0  0  0  0  0  0  0
   -3.5230   -1.2500    0.2870 C   0  0  0  0  0  0  0  0  0  0  0  0
   -4.2080   -2.3140   -0.5210 C   0  0  0  0  0  0  0  0  0  0  0  0
   -4.0540   -3.5190    0.2130 O   0  0  0  0  0  0  0  0  0  0  0  0
   -2.7860    0.2850   -1.5820 C   0  0  1  0  0  0  0  0  0  0  0  0
   -3.5870   -0.1950   -2.7620 C   0  0  0  0  0  0  0  0  0  0  0  0
   -2.7160    1.6820   -1.6940 O   0  0  0  0  0  0  0  0  0  0  0  0
   -1.4200   -0.2790   -1.5760 C   0  0  0  0  0  0  0  0  0  0  0  0
   -0.2880    0.6890   -1.5990 C   0  0  0  0  0  0  0  0  0  0  0  0
   -0.6220    1.8860   -1.8990 O   0  0  0  0  0  0  0  0  0  0  0  0
    0.9320    0.3360   -1.3380 O   0  0  0  0  0  0  0  0  0  0  0  0
    3.5790   -0.6190   -2.3440 O   0  0  0  0  0  0  0  0  0  0  0  0
    4.9800   -0.5500   -2.4590 C   0  0  1  0  0  0  0  0  0  0  0  0
    5.5100   -1.4560   -3.5430 C   0  0  0  0  0  0  0  0  0  0  0  0
    5.4450    0.8720   -2.6880 C   0  0  0  0  0  0  0  0  0  0  0  0
    5.4060   -1.0510   -1.0970 C   0  0  0  0  0  0  0  0  0  0  0  0
  1  2  2  0
  2  3  1  0
  2 12  1  0
  3  4  1  0
  4  5  1  0
  5  6  2  0
  5  7  1  0
  7  8  2  0
  7 12  1  0
  8  9  1  0
  8 38  1  0
  9 10  2  0
  9 34  1  0
 10 11  1  0
 10 33  1  0
 11 12  2  0
 11 13  1  0
 13 14  1  0
 14 15  1  0
 15 16  2  0
 15 17  1  0
 18 17  1  1
 18 19  1  0
 18 23  1  0
 19 20  1  0
 20 21  1  0
 21 22  1  0
 22 23  1  0
 23 24  1  1
 23 27  1  0
 24 25  1  0
 25 26  1  0
 27 28  1  6
 27 29  1  0
 27 30  1  0
 30 31  1  0
 31 32  2  0
 31 33  1  0
 34 35  1  0
 35 36  1  6
 35 37  1  0
 35 38  1  0
M  CHG  1  22   1
M  END
