
     RDKit          3D

 38 41  0  0  0  0  0  0  0  0999 V2000
   -7.3080    2.9650   -2.0030 C   0  0  0  0  0  0  0  0  0  0  0  0
   -6.0180    2.2550   -1.6440 C   0  0  0  0  0  0  0  0  0  0  0  0
   -6.1580    1.7260   -0.2370 C   0  0  0  0  0  0  0  0  0  0  0  0
   -4.9260    1.0160    0.1900 C   0  0  0  0  0  0  0  0  0  0  0  0
   -3.8530    1.5280    0.8120 N   0  0  0  0  0  0  0  0  0  0  0  0
   -2.9430    0.5390    1.0250 C   0  0  0  0  0  0  0  0  0  0  0  0
   -3.4830   -0.5820    0.5210 C   0  0  0  0  0  0  0  0  0  0  0  0
   -4.6770   -0.2550    0.0270 O   0  0  0  0  0  0  0  0  0  0  0  0
   -2.8470   -1.9460    0.5210 C   0  0  2  0  0  0  0  0  0  0  0  0
   -2.3050   -2.2200    1.7350 O   0  0  0  0  0  0  0  0  0  0  0  0
   -1.9970   -2.1360   -0.6650 C   0  0  0  0  0  0  0  0  0  0  0  0
   -2.7140   -2.3170   -1.8630 C   0  0  0  0  0  0  0  0  0  0  0  0
   -2.1280   -2.4920   -3.0750 C   0  0  0  0  0  0  0  0  0  0  0  0
   -0.7730   -2.4910   -3.1300 C   0  0  0  0  0  0  0  0  0  0  0  0
   -0.0330   -2.3140   -1.9600 C   0  0  0  0  0  0  0  0  0  0  0  0
   -0.6110   -2.1330   -0.7030 C   0  0  0  0  0  0  0  0  0  0  0  0
    0.2130   -1.9700    0.3610 O   0  0  0  0  0  0  0  0  0  0  0  0
    0.4590   -2.6100    1.5540 C   0  0  0  0  0  0  0  0  0  0  0  0
    2.0080   -2.7280    1.6070 C   0  0  1  0  0  0  0  0  0  0  0  0
    2.4670   -2.9450    0.3330 O   0  0  0  0  0  0  0  0  0  0  0  0
    2.5320   -1.4180    2.1480 C   0  0  0  0  0  0  0  0  0  0  0  0
    2.3780   -0.2630    1.1910 C   0  0  2  0  0  0  0  0  0  0  0  0
    3.5830    0.4500    1.1940 O   0  0  0  0  0  0  0  0  0  0  0  0
    4.4560    0.6940    0.1930 C   0  0  0  0  0  0  0  0  0  0  0  0
    4.2540    0.2320   -1.0820 C   0  0  0  0  0  0  0  0  0  0  0  0
    5.2120    0.5380   -2.0430 C   0  0  0  0  0  0  0  0  0  0  0  0
    6.3410    1.2790   -1.7580 C   0  0  0  0  0  0  0  0  0  0  0  0
    7.3080    1.5940   -2.7080 O   0  0  0  0  0  0  0  0  0  0  0  0
    7.0790    1.1060   -4.0310 C   0  0  0  0  0  0  0  0  0  0  0  0
    6.5000    1.7220   -0.4620 C   0  0  0  0  0  0  0  0  0  0  0  0
    5.5880    1.4470    0.5170 C   0  0  0  0  0  0  0  0  0  0  0  0
    5.7640    1.9030    1.8240 O   0  0  0  0  0  0  0  0  0  0  0  0
    1.2860    0.7020    1.6040 C   0  0  0  0  0  0  0  0  0  0  0  0
    0.4940    1.0890    0.5580 O   0  0  0  0  0  0  0  0  0  0  0  0
   -0.7050    1.6330    0.9100 C   0  0  1  0  0  0  0  0  0  0  0  0
   -1.3420    2.0120   -0.3000 O   0  0  0  0  0  0  0  0  0  0  0  0
   -1.6280    0.7170    1.6940 C   0  0  1  0  0  0  0  0  0  0  0  0
   -1.8150    1.3700    2.9470 O   0  0  0  0  0  0  0  0  0  0  0  0
  1  2  1  0
  2  3  1  0
  3  4  1  0
  4  5  2  0
  4  8  1  0
  5  6  1  0
  6  7  2  0
  6 37  1  0
  7  8  1  0
  7  9  1  0
  9 10  1  1
  9 11  1  0
 11 12  2  0
 11 16  1  0
 12 13  1  0
 13 14  2  0
 14 15  1  0
 15 16  2  0
 16 17  1  0
 17 18  1  0
 18 19  1  0
 19 20  1  6
 19 21  1  0
 21 22  1  0
 22 23  1  1
 22 33  1  0
 23 24  1  0
 24 25  2  0
 24 31  1  0
 25 26  1  0
 26 27  2  0
 27 28  1  0
 27 30  1  0
 28 29  1  0
 30 31  2  0
 31 32  1  0
 33 34  1  0
 34 35  1  0
 35 36  1  6
 35 37  1  0
 37 38  1  1
M  CHG  1   5   1
M  END
