
     RDKit          3D

 37 41  0  0  0  0  0  0  0  0999 V2000
   -2.3980   -2.2810    0.1040 N   0  0  0  0  0  0  0  0  0  0  0  0
   -2.2250   -1.4460   -1.0670 C   0  0  2  0  0  0  0  0  0  0  0  0
   -0.8140   -0.9200   -1.0730 C   0  0  1  0  0  0  0  0  0  0  0  0
   -0.5420   -0.1260   -2.1660 O   0  0  0  0  0  0  0  0  0  0  0  0
   -0.3390   -0.2900    0.1610 C   0  0  0  0  0  0  0  0  0  0  0  0
    1.0270   -0.0810    0.1670 O   0  0  0  0  0  0  0  0  0  0  0  0
    1.7710    0.7490   -0.6190 C   0  0  0  0  0  0  0  0  0  0  0  0
    1.2050    1.4590   -1.4820 O   0  0  0  0  0  0  0  0  0  0  0  0
    3.2240    0.8640   -0.5130 C   0  0  0  0  0  0  0  0  0  0  0  0
    3.8820    1.7290   -1.3510 C   0  0  0  0  0  0  0  0  0  0  0  0
    5.2620    1.8940   -1.3120 C   0  0  0  0  0  0  0  0  0  0  0  0
    5.9960    1.1710   -0.4080 C   0  0  0  0  0  0  0  0  0  0  0  0
    7.3140    1.3200   -0.3610 O   0  0  0  0  0  0  0  0  0  0  0  0
    8.0460    0.6470    0.4880 C   0  0  0  0  0  0  0  0  0  0  0  0
    7.4530   -0.2360    1.3560 C   0  0  0  0  0  0  0  0  0  0  0  0
    6.0810   -0.4230    1.3420 C   0  0  0  0  0  0  0  0  0  0  0  0
    5.4910   -1.2200    2.1160 O   0  0  0  0  0  0  0  0  0  0  0  0
    5.3320    0.3030    0.4320 C   0  0  0  0  0  0  0  0  0  0  0  0
    3.9620    0.1360    0.3970 C   0  0  0  0  0  0  0  0  0  0  0  0
    8.2660   -1.0060    2.3240 C   0  0  0  0  0  0  0  0  0  0  0  0
    9.5890   -1.0290    1.8740 O   0  0  0  0  0  0  0  0  0  0  0  0
   10.0190    0.3080    1.8300 C   0  0  0  0  0  0  0  0  0  0  0  0
    9.5040    0.8540    0.4940 C   0  0  0  0  0  0  0  0  0  0  0  0
   -3.3200   -0.5210   -1.3660 C   0  0  1  0  0  0  0  0  0  0  0  0
   -3.7580    0.5370   -0.4960 C   0  0  1  0  0  0  0  0  0  0  0  0
   -4.8450    1.2020   -1.1270 O   0  0  0  0  0  0  0  0  0  0  0  0
   -4.0520    0.4340    0.9220 C   0  0  2  0  0  0  0  0  0  0  0  0
   -5.1140   -0.5040    1.3850 C   0  0  0  0  0  0  0  0  0  0  0  0
   -5.2300   -0.3200    2.9090 C   0  0  0  0  0  0  0  0  0  0  0  0
   -5.8400    0.8770    3.1790 O   0  0  0  0  0  0  0  0  0  0  0  0
   -5.8700    1.7310    2.1040 C   0  0  1  0  0  0  0  0  0  0  0  0
   -6.0880    3.0250    2.6360 O   0  0  0  0  0  0  0  0  0  0  0  0
   -4.5690    1.8310    1.3520 C   0  0  0  0  0  0  0  0  0  0  0  0
   -2.9780    0.0940   -2.7380 C   0  0  0  0  0  0  0  0  0  0  0  0
   -4.2660    0.3570   -3.4510 C   0  0  0  0  0  0  0  0  0  0  0  0
   -5.1900   -0.6730   -2.9240 C   0  0  0  0  0  0  0  0  0  0  0  0
   -4.4980   -1.4160   -1.8310 C   0  0  0  0  0  0  0  0  0  0  0  0
  2  1  1  1
  2  3  1  0
  2 24  1  0
  3  4  1  6
  3  5  1  0
  5  6  1  0
  6  7  1  0
  7  8  2  0
  7  9  1  0
  9 10  2  0
  9 19  1  0
 10 11  1  0
 11 12  2  0
 12 13  1  0
 12 18  1  0
 13 14  1  0
 14 15  2  0
 14 23  1  0
 15 16  1  0
 15 20  1  0
 16 17  2  0
 16 18  1  0
 18 19  2  0
 20 21  1  0
 21 22  1  0
 22 23  1  0
 24 25  1  0
 24 34  1  6
 24 37  1  0
 25 26  1  6
 25 27  1  0
 27 28  1  6
 27 33  1  0
 28 29  1  0
 29 30  1  0
 30 31  1  0
 31 32  1  1
 31 33  1  0
 34 35  1  0
 35 36  1  0
 36 37  1  0
M  CHG  1   1   1
M  END
