
     RDKit          3D

 26 27  0  0  0  0  0  0  0  0999 V2000
    7.5910    0.8310    1.0350 C   0  0  0  0  0  0  0  0  0  0  0  0
    6.3590    0.5970    0.6590 C   0  0  0  0  0  0  0  0  0  0  0  0
    5.2540    0.7120    1.6100 C   0  0  0  0  0  0  0  0  0  0  0  0
    3.8770    0.5320    1.0640 C   0  0  0  0  0  0  0  0  0  0  0  0
    3.7250    0.4580   -0.3390 N   0  0  0  0  0  0  0  0  0  0  0  0
    2.5290    0.0490   -0.9490 C   0  0  0  0  0  0  0  0  0  0  0  0
    2.4930    0.0040   -2.2590 O   0  0  0  0  0  0  0  0  0  0  0  0
    1.3210   -0.3350   -0.3400 N   0  0  0  0  0  0  0  0  0  0  0  0
    0.9910   -0.3960    1.0570 C   0  0  0  0  0  0  0  0  0  0  0  0
   -0.5340   -0.5140    1.1710 C   0  0  0  0  0  0  0  0  0  0  0  0
   -1.2480    0.5370    0.3560 C   0  0  2  0  0  0  0  0  0  0  0  0
   -2.6870    0.4310    0.6680 C   0  0  0  0  0  0  0  0  0  0  0  0
   -3.2830    1.4090    1.1530 O   0  0  0  0  0  0  0  0  0  0  0  0
   -3.3530   -0.7400    0.4220 O   0  0  0  0  0  0  0  0  0  0  0  0
   -4.7080   -0.9110    0.6890 C   0  0  0  0  0  0  0  0  0  0  0  0
   -5.5170    0.0550   -0.1080 C   0  0  1  0  0  0  0  0  0  0  0  0
   -5.2650   -0.2480   -1.5820 C   0  0  0  0  0  0  0  0  0  0  0  0
   -6.9510   -0.0910    0.1410 N   0  0  1  0  0  0  0  0  0  0  0  0
   -7.2120   -0.2400    1.5420 C   0  0  0  0  0  0  0  0  0  0  0  0
   -7.5930    1.1050   -0.3400 C   0  0  0  0  0  0  0  0  0  0  0  0
   -0.9640    0.2090   -1.0980 C   0  0  0  0  0  0  0  0  0  0  0  0
    0.1870   -0.7570   -1.2270 C   0  0  0  0  0  0  0  0  0  0  0  0
    4.8040    0.8070   -1.2790 C   0  0  0  0  0  0  0  0  0  0  0  0
    6.0480    0.2050   -0.7070 C   0  0  0  0  0  0  0  0  0  0  0  0
    6.7810   -0.6480   -1.3920 C   0  0  0  0  0  0  0  0  0  0  0  0
    7.9950   -1.3490   -0.9480 C   0  0  0  0  0  0  0  0  0  0  0  0
  1  2  2  0
  2  3  1  0
  2 24  1  0
  3  4  1  0
  4  5  1  0
  5  6  1  0
  5 23  1  0
  6  7  2  0
  6  8  1  0
  8  9  1  0
  8 22  1  0
  9 10  1  0
 10 11  1  0
 11 12  1  6
 11 21  1  0
 12 13  2  0
 12 14  1  0
 14 15  1  0
 15 16  1  0
 16 17  1  6
 16 18  1  0
 18 19  1  1
 18 20  1  0
 21 22  1  0
 23 24  1  0
 24 25  2  3
 25 26  1  0
M  CHG  1  18   1
M  END
