
     RDKit          3D

 25 26  0  0  0  0  0  0  0  0999 V2000
   -2.8820    4.4290   -2.9670 C   0  0  0  0  0  0  0  0  0  0  0  0
   -3.3230    3.3190   -2.0500 C   0  0  0  0  0  0  0  0  0  0  0  0
   -2.2180    2.2900   -1.8950 C   0  0  0  0  0  0  0  0  0  0  0  0
   -2.7010    1.2460   -1.0020 N   0  0  0  0  0  0  0  0  0  0  0  0
   -1.5520    0.7280   -0.2900 C   0  0  0  0  0  0  0  0  0  0  0  0
   -1.6570    0.1090    0.8700 C   0  0  0  0  0  0  0  0  0  0  0  0
   -2.9130   -0.1450    1.6030 C   0  0  0  0  0  0  0  0  0  0  0  0
   -3.1880   -1.4900    1.8180 O   0  0  0  0  0  0  0  0  0  0  0  0
   -0.2460   -0.2710    1.2470 C   0  0  1  0  0  0  0  0  0  0  0  0
   -0.2660   -1.6640    1.6420 C   0  0  0  0  0  0  0  0  0  0  0  0
   -0.7780   -2.0230    2.9130 C   0  0  0  0  0  0  0  0  0  0  0  0
   -0.6200   -3.3440    3.0400 N   0  0  0  0  0  0  0  0  0  0  0  0
   -0.0680   -3.8200    1.9830 O   0  0  0  0  0  0  0  0  0  0  0  0
    0.1650   -2.8310    1.1010 C   0  0  0  0  0  0  0  0  0  0  0  0
    0.7820   -3.0060   -0.2220 C   0  0  0  0  0  0  0  0  0  0  0  0
   -0.3510   -2.9120   -1.2570 C   0  0  0  0  0  0  0  0  0  0  0  0
    0.6300    0.2360    0.2350 C   0  0  0  0  0  0  0  0  0  0  0  0
    2.0710    0.2700    0.0770 C   0  0  0  0  0  0  0  0  0  0  0  0
    2.9810   -0.1950    0.8760 C   0  0  0  0  0  0  0  0  0  0  0  0
    2.5620   -0.9810    2.3720 Cl  0  0  0  0  0  0  0  0  0  0  0  0
    4.4170   -0.0790    0.5510 C   0  0  0  0  0  0  0  0  0  0  0  0
    5.3410   -0.5400    1.3420 C   0  0  0  0  0  0  0  0  0  0  0  0
    6.7910   -0.4510    1.0660 C   0  0  0  0  0  0  0  0  0  0  0  0
    6.9560    0.1980   -0.1590 F   0  0  0  0  0  0  0  0  0  0  0  0
   -0.1770    0.8150   -0.6790 C   0  0  0  0  0  0  0  0  0  0  0  0
  1  2  1  0
  2  3  1  0
  3  4  1  0
  4  5  1  0
  5  6  2  0
  5 25  1  0
  6  7  1  0
  6  9  1  0
  7  8  1  0
  9 10  1  6
  9 17  1  0
 10 11  1  0
 10 14  2  0
 11 12  2  0
 12 13  1  0
 13 14  1  0
 14 15  1  0
 15 16  1  0
 17 18  1  0
 17 25  2  0
 18 19  2  3
 19 20  1  0
 19 21  1  0
 21 22  2  3
 22 23  1  0
 23 24  1  0
M  CHG  1   4   1
M  END
