
     RDKit          3D

 25 26  0  0  0  0  0  0  0  0999 V2000
   -3.9850   -4.1450   -1.2850 C   0  0  0  0  0  0  0  0  0  0  0  0
   -2.4840   -3.8730   -1.2880 C   0  0  0  0  0  0  0  0  0  0  0  0
   -2.1830   -2.4440   -1.2290 C   0  0  0  0  0  0  0  0  0  0  0  0
   -2.7880   -1.4850   -2.6090 Cl  0  0  0  0  0  0  0  0  0  0  0  0
   -1.5270   -1.8660   -0.2660 C   0  0  0  0  0  0  0  0  0  0  0  0
   -1.0080   -2.5920    0.8890 C   0  0  0  0  0  0  0  0  0  0  0  0
    0.3620   -2.5190    1.0250 F   0  0  0  0  0  0  0  0  0  0  0  0
   -1.3110   -0.3550   -0.3860 C   0  0  1  0  0  0  0  0  0  0  0  0
   -1.9690    0.2470    0.8070 C   0  0  0  0  0  0  0  0  0  0  0  0
   -1.8740    1.7410    0.8850 C   0  0  1  0  0  0  0  0  0  0  0  0
   -2.4570    2.4390   -0.2050 N   0  0  0  0  0  0  0  0  0  0  0  0
   -2.6330    2.1610    2.1530 C   0  0  0  0  0  0  0  0  0  0  0  0
   -2.5970    3.6590    2.3240 C   0  0  0  0  0  0  0  0  0  0  0  0
    0.0820   -0.1600   -0.2720 O   0  0  0  0  0  0  0  0  0  0  0  0
    0.8950    0.3340   -1.2450 C   0  0  0  0  0  0  0  0  0  0  0  0
    0.3930    0.6530   -2.3470 O   0  0  0  0  0  0  0  0  0  0  0  0
    2.3250    0.4750   -0.9650 C   0  0  0  0  0  0  0  0  0  0  0  0
    3.3120    0.9500   -1.8050 C   0  0  0  0  0  0  0  0  0  0  0  0
    4.5010    0.8970   -1.1090 C   0  0  0  0  0  0  0  0  0  0  0  0
    5.7990    1.2340   -1.4290 C   0  0  0  0  0  0  0  0  0  0  0  0
    6.8040    1.0640   -0.5010 C   0  0  0  0  0  0  0  0  0  0  0  0
    6.5620    0.5610    0.7600 C   0  0  0  0  0  0  0  0  0  0  0  0
    5.2700    0.2230    1.0840 C   0  0  0  0  0  0  0  0  0  0  0  0
    4.2540    0.3930    0.1510 C   0  0  0  0  0  0  0  0  0  0  0  0
    2.9270    0.1530    0.1890 N   0  0  0  0  0  0  0  0  0  0  0  0
  1  2  1  0
  2  3  1  0
  3  4  1  0
  3  5  2  3
  5  6  1  0
  5  8  1  0
  6  7  1  0
  8  9  1  1
  8 14  1  0
  9 10  1  0
 10 11  1  6
 10 12  1  0
 12 13  1  0
 14 15  1  0
 15 16  2  0
 15 17  1  0
 17 18  2  0
 17 25  1  0
 18 19  1  0
 19 20  2  0
 19 24  1  0
 20 21  1  0
 21 22  2  0
 22 23  1  0
 23 24  2  0
 24 25  1  0
M  CHG  1  11   1
M  END
