
     RDKit          3D

 25 26  0  0  0  0  0  0  0  0999 V2000
    5.3080    0.2210   -2.2670 C   0  0  0  0  0  0  0  0  0  0  0  0
    4.0820   -0.4670   -2.4240 O   0  0  0  0  0  0  0  0  0  0  0  0
    2.9370   -0.1390   -1.7230 C   0  0  0  0  0  0  0  0  0  0  0  0
    2.0000    0.7630   -2.1550 C   0  0  0  0  0  0  0  0  0  0  0  0
    2.2360    1.5710   -3.6870 Cl  0  0  0  0  0  0  0  0  0  0  0  0
    0.8630    1.0500   -1.3960 C   0  0  0  0  0  0  0  0  0  0  0  0
    0.6430    0.4370   -0.1840 C   0  0  0  0  0  0  0  0  0  0  0  0
   -0.4890    0.6860    0.6380 N   0  0  0  0  0  0  0  0  0  0  0  0
   -1.4110    1.7210    0.2320 C   0  0  2  0  0  0  0  0  0  0  0  0
   -0.7690    3.0900    0.2970 C   0  0  0  0  0  0  0  0  0  0  0  0
   -1.1690    3.5100    1.6920 C   0  0  0  0  0  0  0  0  0  0  0  0
   -2.4900    2.8600    1.8650 C   0  0  0  0  0  0  0  0  0  0  0  0
   -2.6330    1.8220    1.0210 C   0  0  0  0  0  0  0  0  0  0  0  0
   -3.8550    1.0450    1.0130 C   0  0  0  0  0  0  0  0  0  0  0  0
   -4.9430    1.4860    1.9980 C   0  0  0  0  0  0  0  0  0  0  0  0
   -4.1970    0.0180    0.3020 C   0  0  0  0  0  0  0  0  0  0  0  0
   -3.4440   -0.6880   -0.7260 C   0  0  0  0  0  0  0  0  0  0  0  0
   -4.1140   -0.6500   -2.0260 N   0  0  0  0  0  0  0  0  0  0  0  0
    1.6110   -0.4800    0.2390 C   0  0  0  0  0  0  0  0  0  0  0  0
    2.7400   -0.7840   -0.4850 C   0  0  0  0  0  0  0  0  0  0  0  0
    3.7050   -1.6680   -0.1200 O   0  0  0  0  0  0  0  0  0  0  0  0
    3.8930   -2.5080    0.9380 C   0  0  0  0  0  0  0  0  0  0  0  0
    2.8280   -3.5750    0.9910 C   0  0  0  0  0  0  0  0  0  0  0  0
    2.9090   -4.3590   -0.3110 C   0  0  0  0  0  0  0  0  0  0  0  0
    1.9780   -5.3600   -0.3840 F   0  0  0  0  0  0  0  0  0  0  0  0
  1  2  1  0
  2  3  1  0
  3  4  2  0
  3 20  1  0
  4  5  1  0
  4  6  1  0
  6  7  2  0
  7  8  1  0
  7 19  1  0
  9  8  1  1
  9 10  1  0
  9 13  1  0
 10 11  1  0
 11 12  1  0
 12 13  2  0
 13 14  1  0
 14 15  1  0
 14 16  2  3
 16 17  1  0
 17 18  1  0
 19 20  2  0
 20 21  1  0
 21 22  1  0
 22 23  1  0
 23 24  1  0
 24 25  1  0
M  CHG  1  18   1
M  END
