
     RDKit          3D

 25 26  0  0  0  0  0  0  0  0999 V2000
    4.1760    2.1160    1.7650 C   0  0  0  0  0  0  0  0  0  0  0  0
    5.0470    1.1550    1.6540 C   0  0  0  0  0  0  0  0  0  0  0  0
    6.0990    1.2490    2.5880 F   0  0  0  0  0  0  0  0  0  0  0  0
    5.0720    0.0110    0.7990 C   0  0  0  0  0  0  0  0  0  0  0  0
    6.1060   -0.8230    0.8210 C   0  0  0  0  0  0  0  0  0  0  0  0
    7.2570   -0.6060    1.7140 C   0  0  0  0  0  0  0  0  0  0  0  0
    4.0010   -0.2690   -0.1780 C   0  0  0  0  0  0  0  0  0  0  0  0
    4.3620   -0.9770   -1.3280 C   0  0  0  0  0  0  0  0  0  0  0  0
    3.4150   -1.3590   -2.2290 C   0  0  0  0  0  0  0  0  0  0  0  0
    2.0970   -1.0450   -2.0060 C   0  0  0  0  0  0  0  0  0  0  0  0
    1.7590   -0.3490   -0.8730 C   0  0  0  0  0  0  0  0  0  0  0  0
    0.3720    0.0420   -0.5450 C   0  0  0  0  0  0  0  0  0  0  0  0
   -0.5030    0.1320   -1.6700 N   0  0  0  0  0  0  0  0  0  0  0  0
   -1.8880    0.4960   -1.3820 C   0  0  0  0  0  0  0  0  0  0  0  0
   -2.3540    2.0640   -1.9460 Cl  0  0  0  0  0  0  0  0  0  0  0  0
   -2.6270   -0.3530   -0.7260 C   0  0  0  0  0  0  0  0  0  0  0  0
   -4.0070   -0.1290   -0.3760 C   0  0  0  0  0  0  0  0  0  0  0  0
   -4.5910   -1.1180    0.3210 C   0  0  0  0  0  0  0  0  0  0  0  0
   -3.8680   -2.2850    0.6650 O   0  0  0  0  0  0  0  0  0  0  0  0
   -5.9980   -1.0920    0.7890 C   0  0  0  0  0  0  0  0  0  0  0  0
   -6.4380    0.3920    0.8680 C   0  0  0  0  0  0  0  0  0  0  0  0
   -6.2230    0.8890   -0.5380 C   0  0  0  0  0  0  0  0  0  0  0  0
   -4.7430    1.0720   -0.7680 C   0  0  1  0  0  0  0  0  0  0  0  0
   -4.3460    2.1550    0.0510 O   0  0  0  0  0  0  0  0  0  0  0  0
    2.7230    0.0210    0.0150 N   0  0  0  0  0  0  0  0  0  0  0  0
  1  2  2  0
  2  3  1  0
  2  4  1  0
  4  5  2  3
  4  7  1  0
  5  6  1  0
  7  8  2  0
  7 25  1  0
  8  9  1  0
  9 10  2  0
 10 11  1  0
 11 12  1  0
 11 25  2  0
 12 13  1  0
 13 14  1  0
 14 15  1  0
 14 16  2  3
 16 17  1  0
 17 18  2  0
 17 23  1  0
 18 19  1  0
 18 20  1  0
 20 21  1  0
 21 22  1  0
 22 23  1  0
 23 24  1  1
M  CHG  1  25   1
M  END
