
     RDKit          3D

 24 25  0  0  0  0  0  0  0  0999 V2000
   -7.9830    0.2030   -0.0280 C   0  0  0  0  0  0  0  0  0  0  0  0
   -6.4930   -0.0180    0.0400 C   0  0  0  0  0  0  0  0  0  0  0  0
   -5.7710    1.0000   -0.7920 C   0  0  0  0  0  0  0  0  0  0  0  0
   -4.2580    0.7710   -0.7190 C   0  0  1  0  0  0  0  0  0  0  0  0
   -3.8730   -0.5630   -1.2140 C   0  0  0  0  0  0  0  0  0  0  0  0
   -3.6980    1.7610   -1.5520 O   0  0  0  0  0  0  0  0  0  0  0  0
   -3.7760    1.0540    0.6710 C   0  0  0  0  0  0  0  0  0  0  0  0
   -2.3470    1.0350    0.7210 N   0  0  0  0  0  0  0  0  0  0  0  0
   -1.6200   -0.1620    0.6150 C   0  0  0  0  0  0  0  0  0  0  0  0
   -1.9720   -1.3100    1.0590 N   0  0  0  0  0  0  0  0  0  0  0  0
   -0.9360   -2.3150    0.7510 C   0  0  0  0  0  0  0  0  0  0  0  0
    0.2470   -1.4110    0.7060 C   0  0  0  0  0  0  0  0  0  0  0  0
    1.3960   -1.6470    1.2050 C   0  0  0  0  0  0  0  0  0  0  0  0
    2.5570   -0.7310    1.1500 C   0  0  0  0  0  0  0  0  0  0  0  0
    2.5970    0.6190    1.3800 C   0  0  0  0  0  0  0  0  0  0  0  0
    3.9240    0.9830    1.1980 C   0  0  0  0  0  0  0  0  0  0  0  0
    4.6430   -0.1490    0.8660 C   0  0  0  0  0  0  0  0  0  0  0  0
    6.1220   -0.2100    0.5820 C   0  0  0  0  0  0  0  0  0  0  0  0
    6.3110    0.0220   -0.8840 C   0  0  0  0  0  0  0  0  0  0  0  0
    7.7750   -0.0210   -1.2820 C   0  0  1  0  0  0  0  0  0  0  0  0
    8.6090    1.0040   -0.5910 C   0  0  0  0  0  0  0  0  0  0  0  0
    8.4340   -1.6400   -0.8930 Cl  0  0  0  0  0  0  0  0  0  0  0  0
    3.7900   -1.1320    0.8510 O   0  0  0  0  0  0  0  0  0  0  0  0
   -0.2650   -0.2700   -0.0440 C   0  0  0  0  0  0  0  0  0  0  0  0
  1  2  1  0
  2  3  1  0
  3  4  1  0
  4  5  1  6
  4  6  1  0
  4  7  1  0
  7  8  1  0
  8  9  1  0
  9 10  2  0
  9 24  1  0
 10 11  1  0
 11 12  1  0
 12 13  2  3
 12 24  1  0
 13 14  1  0
 14 15  2  0
 14 23  1  0
 15 16  1  0
 16 17  2  0
 17 18  1  0
 17 23  1  0
 18 19  1  0
 19 20  1  0
 20 21  1  1
 20 22  1  0
M  CHG  1  10   1
M  END
