
     RDKit          3D

 24 25  0  0  0  0  0  0  0  0999 V2000
   -2.7040    2.2890   -1.5310 C   0  0  0  0  0  0  0  0  0  0  0  0
   -3.7700    1.2360   -1.6500 C   0  0  0  0  0  0  0  0  0  0  0  0
   -4.2450    0.7370   -0.3330 C   0  0  0  0  0  0  0  0  0  0  0  0
   -3.1850    0.1030    0.5260 C   0  0  1  0  0  0  0  0  0  0  0  0
   -3.9200   -0.3180    1.8100 C   0  0  0  0  0  0  0  0  0  0  0  0
   -4.5380    0.8180    2.5230 C   0  0  0  0  0  0  0  0  0  0  0  0
   -2.5700   -1.1130   -0.0500 C   0  0  0  0  0  0  0  0  0  0  0  0
   -1.0280   -1.1280   -0.0280 C   0  0  1  0  0  0  0  0  0  0  0  0
   -0.6800   -2.5990    0.0420 C   0  0  0  0  0  0  0  0  0  0  0  0
   -0.5790   -0.5750   -1.1580 O   0  0  0  0  0  0  0  0  0  0  0  0
    0.6780   -0.3900   -1.5170 C   0  0  0  0  0  0  0  0  0  0  0  0
    1.5870   -1.5780   -1.7000 C   0  0  0  0  0  0  0  0  0  0  0  0
    2.9100   -1.1800   -2.1050 N   0  0  0  0  0  0  0  0  0  0  0  0
    3.8440   -0.5440   -1.2490 C   0  0  0  0  0  0  0  0  0  0  0  0
    3.6290   -0.3720    0.1030 C   0  0  0  0  0  0  0  0  0  0  0  0
    4.5580    0.2300    0.9310 C   0  0  0  0  0  0  0  0  0  0  0  0
    5.7530    0.6890    0.4330 C   0  0  0  0  0  0  0  0  0  0  0  0
    6.7280    1.3130    1.2630 N   0  0  0  0  0  0  0  0  0  0  0  0
    5.9640    0.5140   -0.9170 C   0  0  0  0  0  0  0  0  0  0  0  0
    5.0540   -0.0770   -1.7370 C   0  0  0  0  0  0  0  0  0  0  0  0
    5.3590   -0.2830   -3.4640 Cl  0  0  0  0  0  0  0  0  0  0  0  0
   -0.5030   -0.5010    1.2390 C   0  0  0  0  0  0  0  0  0  0  0  0
   -1.3270    0.6530    1.7500 C   0  0  0  0  0  0  0  0  0  0  0  0
   -2.2300    1.0620    0.7910 O   0  0  0  0  0  0  0  0  0  0  0  0
  1  2  1  0
  2  3  1  0
  4  3  1  6
  4  5  1  0
  4  7  1  0
  4 24  1  0
  5  6  1  0
  7  8  1  0
  8  9  1  6
  8 10  1  0
  8 22  1  0
 10 11  1  0
 11 12  1  0
 12 13  1  0
 13 14  1  0
 14 15  2  0
 14 20  1  0
 15 16  1  0
 16 17  2  0
 17 18  1  0
 17 19  1  0
 19 20  2  0
 20 21  1  0
 22 23  1  0
 23 24  1  0
M  CHG  1  18   1
M  END
