
     RDKit          3D

 25 26  0  0  0  0  0  0  0  0999 V2000
    5.5790   -3.0510   -0.2330 C   0  0  0  0  0  0  0  0  0  0  0  0
    5.7490   -1.5820    0.0410 C   0  0  0  0  0  0  0  0  0  0  0  0
    4.4460   -0.8380   -0.0090 C   0  0  0  0  0  0  0  0  0  0  0  0
    3.3600   -1.4980   -0.2700 C   0  0  0  0  0  0  0  0  0  0  0  0
    2.0160   -0.9130   -0.3560 C   0  0  0  0  0  0  0  0  0  0  0  0
    1.9830    0.5260   -0.0620 C   0  0  0  0  0  0  0  0  0  0  0  0
    0.8330    1.2220   -0.0570 C   0  0  0  0  0  0  0  0  0  0  0  0
    1.0470    2.5830    0.2550 O   0  0  0  0  0  0  0  0  0  0  0  0
   -0.4890    0.7710   -0.3180 C   0  0  0  0  0  0  0  0  0  0  0  0
   -0.7980   -0.4630   -0.6570 O   0  0  0  0  0  0  0  0  0  0  0  0
   -0.9530   -1.7020   -1.0290 C   0  0  0  0  0  0  0  0  0  0  0  0
   -1.5560    1.5870   -0.2740 C   0  0  0  0  0  0  0  0  0  0  0  0
   -1.2150    2.9950    0.0340 C   0  0  0  0  0  0  0  0  0  0  0  0
   -2.9210    1.2250   -0.1510 C   0  0  0  0  0  0  0  0  0  0  0  0
   -3.8340    2.2030   -0.3750 C   0  0  0  0  0  0  0  0  0  0  0  0
   -5.2810    2.0890   -0.3270 N   0  0  0  0  0  0  0  0  0  0  0  0
   -5.9080    0.8600   -0.7830 C   0  0  0  0  0  0  0  0  0  0  0  0
   -5.5080   -0.4050   -0.5190 C   0  0  0  0  0  0  0  0  0  0  0  0
   -4.3550   -0.7120    0.2960 N   0  0  0  0  0  0  0  0  0  0  0  0
   -3.2630   -0.0490    0.4770 C   0  0  0  0  0  0  0  0  0  0  0  0
   -2.4090   -0.4780    1.6100 C   0  0  2  0  0  0  0  0  0  0  0  0
   -1.4350    0.3370    2.0380 F   0  0  0  0  0  0  0  0  0  0  0  0
   -2.2760   -2.1900    1.9170 Cl  0  0  0  0  0  0  0  0  0  0  0  0
    3.2430    1.2090    0.2170 C   0  0  0  0  0  0  0  0  0  0  0  0
    4.4000    0.5860    0.2470 C   0  0  0  0  0  0  0  0  0  0  0  0
  1  2  1  0
  2  3  1  0
  3  4  2  0
  3 25  1  0
  4  5  1  0
  5  6  1  0
  6  7  2  3
  6 24  1  0
  7  8  1  0
  7  9  1  0
  9 10  1  0
  9 12  2  3
 10 11  1  0
 12 13  1  0
 12 14  1  0
 14 15  2  0
 14 20  1  0
 15 16  1  0
 16 17  1  0
 17 18  2  0
 18 19  1  0
 19 20  2  0
 20 21  1  0
 21 22  1  6
 21 23  1  0
 24 25  2  0
M  CHG  1  19   1
M  END
