
     RDKit          3D

 13 14  0  0  0  0  0  0  0  0999 V2000
    3.4620   -0.2820   -0.0860 N   0  0  0  0  0  0  0  0  0  0  0  0
    2.0770    0.0360    0.0600 C   0  0  0  0  0  0  0  0  0  0  0  0
    1.6540    1.1900    0.6870 C   0  0  0  0  0  0  0  0  0  0  0  0
    0.3150    1.4930    0.8260 C   0  0  0  0  0  0  0  0  0  0  0  0
   -0.6700    0.6300    0.3300 C   0  0  0  0  0  0  0  0  0  0  0  0
   -1.9770    0.8920    0.4470 N   0  0  0  0  0  0  0  0  0  0  0  0
   -2.9400    0.0780   -0.0220 C   0  0  0  0  0  0  0  0  0  0  0  0
   -4.1720    0.3600    0.1080 O   0  0  0  0  0  0  0  0  0  0  0  0
   -2.5710   -1.0650   -0.6440 N   0  0  0  0  0  0  0  0  0  0  0  0
   -1.2540   -1.3580   -0.7770 C   0  0  0  0  0  0  0  0  0  0  0  0
   -0.8880   -2.4120   -1.3510 O   0  0  0  0  0  0  0  0  0  0  0  0
   -0.2610   -0.5220   -0.2960 C   0  0  0  0  0  0  0  0  0  0  0  0
    1.0820   -0.8020   -0.4230 C   0  0  0  0  0  0  0  0  0  0  0  0
  1  2  1  0
  2  3  2  0
  2 13  1  0
  3  4  1  0
  4  5  2  0
  5  6  1  0
  5 12  1  0
  6  7  1  0
  7  8  2  0
  7  9  1  0
  9 10  1  0
 10 11  2  0
 10 12  1  0
 12 13  2  0
M  END
