
     RDKit          3D

 26 27  0  0  0  0  0  0  0  0999 V2000
   -4.4940   -0.1030    2.3520 C   0  0  0  0  0  0  0  0  0  0  0  0
   -3.6660   -0.1590    1.1200 C   0  0  0  0  0  0  0  0  0  0  0  0
   -3.1650   -1.3840    0.7160 C   0  0  0  0  0  0  0  0  0  0  0  0
   -2.3840   -1.4810   -0.4330 C   0  0  0  0  0  0  0  0  0  0  0  0
   -2.1100   -0.3670   -1.1660 C   0  0  0  0  0  0  0  0  0  0  0  0
   -1.1410   -0.5050   -2.6000 S   0  0  1  0  0  0  0  0  0  0  0  0
   -0.7280   -1.9440   -2.8370 O   0  0  0  0  0  0  0  0  0  0  0  0
   -1.9030   -0.0430   -3.8210 O   0  0  0  0  0  0  0  0  0  0  0  0
    0.2460    0.5020   -2.3990 N   0  0  0  0  0  0  0  0  0  0  0  0
    1.2090    0.3060   -1.3670 C   0  0  0  0  0  0  0  0  0  0  0  0
    1.2030   -0.8510   -0.6280 C   0  0  0  0  0  0  0  0  0  0  0  0
    2.1340   -1.0800    0.3880 C   0  0  0  0  0  0  0  0  0  0  0  0
    3.0600   -0.1080    0.6260 C   0  0  0  0  0  0  0  0  0  0  0  0
    4.0430   -0.3400    1.6930 C   0  0  0  0  0  0  0  0  0  0  0  0
    4.0300   -1.3970    2.3600 O   0  0  0  0  0  0  0  0  0  0  0  0
    5.0590    0.7160    1.9600 C   0  0  1  0  0  0  0  0  0  0  0  0
    4.4220    1.8950    2.3160 F   0  0  0  0  0  0  0  0  0  0  0  0
    5.8650    0.2860    2.9930 F   0  0  0  0  0  0  0  0  0  0  0  0
    5.8120    0.9310    0.8070 F   0  0  0  0  0  0  0  0  0  0  0  0
    3.0910    1.0730   -0.1050 C   0  0  0  0  0  0  0  0  0  0  0  0
    2.1660    1.2760   -1.0990 C   0  0  0  0  0  0  0  0  0  0  0  0
    2.2060    2.4310   -1.8050 F   0  0  0  0  0  0  0  0  0  0  0  0
   -2.5880    0.8550   -0.7980 C   0  0  0  0  0  0  0  0  0  0  0  0
   -2.3310    1.9970   -1.5140 F   0  0  0  0  0  0  0  0  0  0  0  0
   -3.3660    0.9370    0.3510 C   0  0  0  0  0  0  0  0  0  0  0  0
   -3.8420    2.1460    0.7210 F   0  0  0  0  0  0  0  0  0  0  0  0
  1  2  1  0
  2  3  2  0
  2 25  1  0
  3  4  1  0
  4  5  2  0
  5  6  1  0
  5 23  1  0
  6  7  2  0
  6  8  2  0
  6  9  1  1
  9 10  1  0
 10 11  2  0
 10 21  1  0
 11 12  1  0
 12 13  2  0
 13 14  1  0
 13 20  1  0
 14 15  2  0
 14 16  1  0
 16 17  1  1
 16 18  1  0
 16 19  1  0
 20 21  2  0
 21 22  1  0
 23 24  1  0
 23 25  2  0
 25 26  1  0
M  END
