
     RDKit          3D

 27 28  0  0  0  0  0  0  0  0999 V2000
    3.1560   -2.6270   -0.0020 C   0  0  0  0  0  0  0  0  0  0  0  0
    2.8120   -1.4710    0.8530 C   0  0  0  0  0  0  0  0  0  0  0  0
    2.8330   -1.5990    2.0860 O   0  0  0  0  0  0  0  0  0  0  0  0
    2.4400   -0.1360    0.2460 C   0  0  0  0  0  0  0  0  0  0  0  0
    1.1610    0.1420    0.0010 C   0  0  0  0  0  0  0  0  0  0  0  0
   -0.1150   -0.4590    0.1780 N   0  0  0  0  0  0  0  0  0  0  0  0
   -0.2670   -1.8770    0.0840 C   0  0  0  0  0  0  0  0  0  0  0  0
   -1.1590    0.3660    0.5950 C   0  0  0  0  0  0  0  0  0  0  0  0
   -0.7320    1.3140    1.4430 O   0  0  0  0  0  0  0  0  0  0  0  0
   -2.5470    0.4830    0.3740 C   0  0  0  0  0  0  0  0  0  0  0  0
   -3.3010   -0.1530   -0.4760 C   0  0  0  0  0  0  0  0  0  0  0  0
   -2.7940   -1.1470   -1.4070 C   0  0  0  0  0  0  0  0  0  0  0  0
   -4.7720    0.2110   -0.4380 C   0  0  0  0  0  0  0  0  0  0  0  0
   -5.2580    0.1680    0.9930 C   0  0  0  0  0  0  0  0  0  0  0  0
   -4.3230    0.7190    1.8650 O   0  0  0  0  0  0  0  0  0  0  0  0
   -3.3740    1.4740    1.2310 C   0  0  0  0  0  0  0  0  0  0  0  0
    1.3060    1.8260   -0.7410 S   0  0  0  0  0  0  0  0  0  0  0  0
    3.0100    1.9450   -0.6330 C   0  0  0  0  0  0  0  0  0  0  0  0
    3.7330    3.1380   -1.0900 C   0  0  2  0  0  0  0  0  0  0  0  0
    4.6380    2.7750   -2.0580 F   0  0  0  0  0  0  0  0  0  0  0  0
    4.3660    3.8070   -0.0960 F   0  0  0  0  0  0  0  0  0  0  0  0
    2.8540    4.0180   -1.7300 F   0  0  0  0  0  0  0  0  0  0  0  0
    3.3950    0.7790   -0.0740 C   0  0  0  0  0  0  0  0  0  0  0  0
    4.8750    0.5240    0.1800 C   0  0  1  0  0  0  0  0  0  0  0  0
    5.2590   -0.5660   -0.5530 F   0  0  0  0  0  0  0  0  0  0  0  0
    5.6240    1.6440   -0.0370 F   0  0  0  0  0  0  0  0  0  0  0  0
    5.0610    0.1740    1.5070 F   0  0  0  0  0  0  0  0  0  0  0  0
  1  2  1  0
  2  3  2  0
  2  4  1  0
  4  5  2  0
  4 23  1  0
  5  6  1  0
  5 17  1  0
  6  7  1  0
  6  8  1  0
  8  9  2  0
  8 10  1  0
 10 11  2  0
 10 16  1  0
 11 12  1  0
 11 13  1  0
 13 14  1  0
 14 15  1  0
 15 16  1  0
 17 18  1  0
 18 19  1  0
 18 23  2  0
 19 20  1  6
 19 21  1  0
 19 22  1  0
 23 24  1  0
 24 25  1  6
 24 26  1  0
 24 27  1  0
M  END
