
     RDKit          3D

 13 14  0  0  0  0  0  0  0  0999 V2000
   -3.1060   -1.1710    0.5580 N   0  0  0  0  0  0  0  0  0  0  0  0
   -1.8220   -0.5760    0.2760 C   0  0  0  0  0  0  0  0  0  0  0  0
   -0.7120   -1.1990    0.5840 C   0  0  0  0  0  0  0  0  0  0  0  0
    0.5660   -0.5810    0.2920 C   0  0  0  0  0  0  0  0  0  0  0  0
    1.7340   -1.2340    0.6150 N   0  0  0  0  0  0  0  0  0  0  0  0
    2.9190   -0.6660    0.3460 C   0  0  0  0  0  0  0  0  0  0  0  0
    3.9660   -1.3120    0.6650 O   0  0  0  0  0  0  0  0  0  0  0  0
    2.9600    0.5340   -0.2360 N   0  0  0  0  0  0  0  0  0  0  0  0
    1.8670    1.2300   -0.5800 C   0  0  0  0  0  0  0  0  0  0  0  0
    1.8710    2.3550   -1.1260 O   0  0  0  0  0  0  0  0  0  0  0  0
    0.6360    0.6440   -0.3030 C   0  0  0  0  0  0  0  0  0  0  0  0
   -0.5770    1.3860   -0.6700 C   0  0  0  0  0  0  0  0  0  0  0  0
   -1.8780    0.7530   -0.3690 C   0  0  0  0  0  0  0  0  0  0  0  0
  1  2  1  0
  2  3  2  0
  2 13  1  0
  3  4  1  0
  4  5  1  0
  4 11  2  0
  5  6  1  0
  6  7  2  0
  6  8  1  0
  8  9  1  0
  9 10  2  0
  9 11  1  0
 11 12  1  0
 12 13  1  0
M  END
