
     RDKit          3D

 13 14  0  0  0  0  0  0  0  0999 V2000
   -2.1130    2.1160    0.3360 N   0  0  0  0  0  0  0  0  0  0  0  0
   -1.4630    0.8540    0.2510 C   0  0  0  0  0  0  0  0  0  0  0  0
   -2.1500   -0.3030    0.3660 N   0  0  0  0  0  0  0  0  0  0  0  0
   -1.5670   -1.5040    0.2910 C   0  0  0  0  0  0  0  0  0  0  0  0
   -2.3740   -2.6360    0.4240 O   0  0  0  0  0  0  0  0  0  0  0  0
   -0.2100   -1.6420    0.0880 C   0  0  0  0  0  0  0  0  0  0  0  0
    0.5350   -0.4870   -0.0360 C   0  0  0  0  0  0  0  0  0  0  0  0
    1.8920   -0.6300   -0.2390 C   0  0  0  0  0  0  0  0  0  0  0  0
    2.5040   -1.8850   -0.3180 O   0  0  0  0  0  0  0  0  0  0  0  0
    2.6270    0.5310   -0.3610 C   0  0  0  0  0  0  0  0  0  0  0  0
    2.0160    1.7480   -0.2820 N   0  0  0  0  0  0  0  0  0  0  0  0
    0.6840    1.8590   -0.0820 C   0  0  0  0  0  0  0  0  0  0  0  0
   -0.0990    0.7340    0.0470 C   0  0  0  0  0  0  0  0  0  0  0  0
  1  2  1  0
  2  3  2  0
  2 13  1  0
  3  4  1  0
  4  5  1  0
  4  6  2  0
  6  7  1  0
  7  8  2  0
  7 13  1  0
  8  9  1  0
  8 10  1  0
 10 11  2  0
 11 12  1  0
 12 13  2  0
M  END
