
     RDKit          3D

 13 14  0  0  0  0  0  0  0  0999 V2000
   -3.1720    0.0980   -2.2450 O   0  0  0  0  0  0  0  0  0  0  0  0
   -2.5120    0.0370   -1.1570 C   0  0  0  0  0  0  0  0  0  0  0  0
   -1.1200    0.0610   -1.1940 C   0  0  0  0  0  0  0  0  0  0  0  0
   -0.4020   -0.0050   -0.0210 C   0  0  0  0  0  0  0  0  0  0  0  0
    1.0590    0.0160    0.0020 C   0  0  0  0  0  0  0  0  0  0  0  0
    1.9080    0.0990   -1.0850 C   0  0  0  0  0  0  0  0  0  0  0  0
    3.2150    0.0880   -0.6140 C   0  0  0  0  0  0  0  0  0  0  0  0
    3.1780   -0.0000    0.7400 N   0  0  0  0  0  0  0  0  0  0  0  0
    1.8900   -0.0430    1.0990 C   0  0  0  0  0  0  0  0  0  0  0  0
   -1.1110   -0.0890    1.1160 N   0  0  0  0  0  0  0  0  0  0  0  0
   -2.4640   -0.1100    1.1220 C   0  0  0  0  0  0  0  0  0  0  0  0
   -3.0430   -0.1920    2.2470 O   0  0  0  0  0  0  0  0  0  0  0  0
   -3.2020   -0.0480   -0.0020 N   0  0  0  0  0  0  0  0  0  0  0  0
  1  2  2  0
  2  3  1  0
  2 13  1  0
  3  4  2  0
  4  5  1  0
  4 10  1  0
  5  6  1  0
  5  9  2  0
  6  7  2  0
  7  8  1  0
  8  9  1  0
 10 11  1  0
 11 12  2  0
 11 13  1  0
M  END
