
     RDKit          3D

 13 14  0  0  0  0  0  0  0  0999 V2000
   -2.2280   -1.3590    0.7420 N   0  0  0  0  0  0  0  0  0  0  0  0
   -1.5800   -0.2100    0.2700 C   0  0  0  0  0  0  0  0  0  0  0  0
   -2.2510    0.9690   -0.0020 C   0  0  0  0  0  0  0  0  0  0  0  0
   -1.5430    2.0370   -0.4580 C   0  0  0  0  0  0  0  0  0  0  0  0
   -2.1560    3.1170   -0.7070 O   0  0  0  0  0  0  0  0  0  0  0  0
   -0.2140    1.9840   -0.6520 N   0  0  0  0  0  0  0  0  0  0  0  0
    0.4860    0.8420   -0.3970 C   0  0  0  0  0  0  0  0  0  0  0  0
    1.8190    0.7880   -0.5910 N   0  0  0  0  0  0  0  0  0  0  0  0
    2.5520   -0.3150   -0.3530 C   0  0  0  0  0  0  0  0  0  0  0  0
    3.9420   -0.3440   -0.5650 O   0  0  0  0  0  0  0  0  0  0  0  0
    1.8730   -1.4240    0.1110 C   0  0  0  0  0  0  0  0  0  0  0  0
    0.5100   -1.4190    0.3260 C   0  0  0  0  0  0  0  0  0  0  0  0
   -0.1980   -0.2660    0.0680 C   0  0  0  0  0  0  0  0  0  0  0  0
  1  2  1  0
  2  3  2  0
  2 13  1  0
  3  4  1  0
  4  5  2  0
  4  6  1  0
  6  7  1  0
  7  8  2  0
  7 13  1  0
  8  9  1  0
  9 10  1  0
  9 11  2  0
 11 12  1  0
 12 13  2  0
M  END
