
     RDKit          3D

 13 14  0  0  0  0  0  0  0  0999 V2000
    3.9740    0.7150    0.6210 O   0  0  0  0  0  0  0  0  0  0  0  0
    2.8350    0.4030    0.2070 C   0  0  0  0  0  0  0  0  0  0  0  0
    2.6750   -0.8770   -0.5210 C   0  0  0  0  0  0  0  0  0  0  0  0
    1.3860   -1.4360   -0.1630 N   0  0  0  0  0  0  0  0  0  0  0  0
    0.2310   -0.6310    0.0190 C   0  0  0  0  0  0  0  0  0  0  0  0
    0.3640    0.6560    0.2870 C   0  0  0  0  0  0  0  0  0  0  0  0
    1.6730    1.1950    0.3850 N   0  0  0  0  0  0  0  0  0  0  0  0
   -0.6700    1.6280    0.5020 C   0  0  0  0  0  0  0  0  0  0  0  0
   -0.2830    2.7610    0.8880 O   0  0  0  0  0  0  0  0  0  0  0  0
   -2.0820    1.4210    0.3160 N   0  0  0  0  0  0  0  0  0  0  0  0
   -2.8410    0.3400   -0.2070 C   0  0  0  0  0  0  0  0  0  0  0  0
   -2.2030   -0.9690   -0.2210 C   0  0  0  0  0  0  0  0  0  0  0  0
   -0.9810   -1.4330   -0.1360 C   0  0  0  0  0  0  0  0  0  0  0  0
  1  2  2  0
  2  3  1  0
  2  7  1  0
  3  4  1  0
  4  5  1  0
  5  6  2  0
  5 13  1  0
  6  7  1  0
  6  8  1  0
  8  9  2  0
  8 10  1  0
 10 11  1  0
 11 12  1  0
 12 13  2  0
M  END
