
     RDKit          3D

 19 20  0  0  0  0  0  0  0  0999 V2000
    5.2720   -1.3110    0.4050 C   0  0  0  0  0  0  0  0  0  0  0  0
    4.5590   -0.2490    1.2150 C   0  0  0  0  0  0  0  0  0  0  0  0
    3.1990    0.0330    0.7160 C   0  0  0  0  0  0  0  0  0  0  0  0
    1.9830   -0.5620    1.0700 C   0  0  0  0  0  0  0  0  0  0  0  0
    0.9700    0.0200    0.3490 C   0  0  0  0  0  0  0  0  0  0  0  0
   -0.4750   -0.2770    0.3820 C   0  0  0  0  0  0  0  0  0  0  0  0
   -0.8990   -1.1640    1.1470 O   0  0  0  0  0  0  0  0  0  0  0  0
   -1.3880    0.4270   -0.4370 N   0  0  0  0  0  0  0  0  0  0  0  0
   -2.7840    0.2360   -0.4950 C   0  0  0  0  0  0  0  0  0  0  0  0
   -3.5130   -0.6670    0.2320 C   0  0  0  0  0  0  0  0  0  0  0  0
   -4.9050   -0.7680    0.0900 C   0  0  0  0  0  0  0  0  0  0  0  0
   -5.7830   -1.9380    1.0440 Cl  0  0  0  0  0  0  0  0  0  0  0  0
   -5.6040    0.0300   -0.7820 C   0  0  0  0  0  0  0  0  0  0  0  0
   -7.3470   -0.1200   -0.9380 Cl  0  0  0  0  0  0  0  0  0  0  0  0
   -4.8790    0.9380   -1.5150 C   0  0  0  0  0  0  0  0  0  0  0  0
   -3.5120    1.0310   -1.3700 C   0  0  0  0  0  0  0  0  0  0  0  0
   -2.6550    2.2190   -2.3450 Cl  0  0  0  0  0  0  0  0  0  0  0  0
    1.5660    0.9700   -0.4470 C   0  0  0  0  0  0  0  0  0  0  0  0
    2.9130    0.9610   -0.2090 N   0  0  0  0  0  0  0  0  0  0  0  0
  1  2  1  0
  2  3  1  0
  3  4  2  0
  3 19  1  0
  4  5  1  0
  5  6  1  0
  5 18  2  0
  6  7  2  0
  6  8  1  0
  8  9  1  0
  9 10  2  0
  9 16  1  0
 10 11  1  0
 11 12  1  0
 11 13  2  0
 13 14  1  0
 13 15  1  0
 15 16  2  0
 16 17  1  0
 18 19  1  0
M  END
