
     RDKit          3D

 19 20  0  0  0  0  0  0  0  0999 V2000
    0.7790   -0.9240    2.9220 C   0  0  0  0  0  0  0  0  0  0  0  0
    1.5720   -0.6440    1.6850 C   0  0  0  0  0  0  0  0  0  0  0  0
    2.9380   -0.8210    1.6690 C   0  0  0  0  0  0  0  0  0  0  0  0
    3.6940   -0.5740    0.5410 C   0  0  0  0  0  0  0  0  0  0  0  0
    5.4350   -0.7790    0.6030 Cl  0  0  0  0  0  0  0  0  0  0  0  0
    3.0190   -0.1430   -0.5690 C   0  0  0  0  0  0  0  0  0  0  0  0
    3.6970    0.1120   -1.8150 C   0  0  0  0  0  0  0  0  0  0  0  0
    4.5020   -0.6990   -2.4440 C   0  0  0  0  0  0  0  0  0  0  0  0
    5.2710   -0.2440   -3.9750 Cl  0  0  0  0  0  0  0  0  0  0  0  0
    4.8350   -2.2980   -1.8440 Cl  0  0  0  0  0  0  0  0  0  0  0  0
    1.6190    0.0370   -0.5430 C   0  0  0  0  0  0  0  0  0  0  0  0
    0.8630   -0.2060    0.5730 C   0  0  0  0  0  0  0  0  0  0  0  0
   -0.5430   -0.0390    0.6650 N   0  0  0  0  0  0  0  0  0  0  0  0
   -1.4300    0.3630   -0.3330 C   0  0  0  0  0  0  0  0  0  0  0  0
   -1.0010    0.6180   -1.4720 O   0  0  0  0  0  0  0  0  0  0  0  0
   -2.8400    0.4810   -0.0410 N   0  0  0  0  0  0  0  0  0  0  0  0
   -3.7310    0.9020   -1.1070 C   0  0  2  0  0  0  0  0  0  0  0  0
   -4.8840    1.7700   -0.6570 C   0  0  0  0  0  0  0  0  0  0  0  0
   -5.1500    0.3200   -1.0360 C   0  0  0  0  0  0  0  0  0  0  0  0
  1  2  1  0
  2  3  2  0
  2 12  1  0
  3  4  1  0
  4  5  1  0
  4  6  2  0
  6  7  1  0
  6 11  1  0
  7  8  2  3
  8  9  1  0
  8 10  1  0
 11 12  2  0
 12 13  1  0
 13 14  1  0
 14 15  2  0
 14 16  1  0
 17 16  1  1
 17 18  1  0
 17 19  1  0
 18 19  1  0
M  END
