
     RDKit          3D

 19 20  0  0  0  0  0  0  0  0999 V2000
   -2.6860   -2.1090    0.8520 C   0  0  0  0  0  0  0  0  0  0  0  0
   -2.3520   -0.7580    1.4250 C   0  0  0  0  0  0  0  0  0  0  0  0
   -1.9680    0.2090    0.4260 N   0  0  0  0  0  0  0  0  0  0  0  0
   -0.6960    0.3430    0.0390 C   0  0  0  0  0  0  0  0  0  0  0  0
    0.3200   -0.5000    0.5970 N   0  0  0  0  0  0  0  0  0  0  0  0
    1.6870   -0.3620    0.2020 C   0  0  0  0  0  0  0  0  0  0  0  0
    2.2230   -1.0610   -0.8580 C   0  0  0  0  0  0  0  0  0  0  0  0
    1.1930   -2.1590   -1.7540 Cl  0  0  0  0  0  0  0  0  0  0  0  0
    3.5640   -0.8990   -1.2130 C   0  0  0  0  0  0  0  0  0  0  0  0
    4.3460   -0.0300   -0.4900 C   0  0  0  0  0  0  0  0  0  0  0  0
    3.7820    0.6510    0.5590 C   0  0  0  0  0  0  0  0  0  0  0  0
    4.7940    1.7460    1.4610 Cl  0  0  0  0  0  0  0  0  0  0  0  0
    2.4640    0.5090    0.9300 C   0  0  0  0  0  0  0  0  0  0  0  0
    1.8710    1.4360    2.2880 Cl  0  0  0  0  0  0  0  0  0  0  0  0
   -0.3500    1.2880   -0.9130 C   0  0  0  0  0  0  0  0  0  0  0  0
   -1.2790    2.1180   -1.4960 C   0  0  0  0  0  0  0  0  0  0  0  0
   -2.5880    1.9700   -1.0890 C   0  0  0  0  0  0  0  0  0  0  0  0
   -2.9090    1.0270   -0.1430 C   0  0  0  0  0  0  0  0  0  0  0  0
   -4.1070    0.9090    0.2120 O   0  0  0  0  0  0  0  0  0  0  0  0
  1  2  1  0
  2  3  1  0
  3  4  1  0
  3 18  1  0
  4  5  1  0
  4 15  2  0
  5  6  1  0
  6  7  2  0
  6 13  1  0
  7  8  1  0
  7  9  1  0
  9 10  2  0
 10 11  1  0
 11 12  1  0
 11 13  2  0
 13 14  1  0
 15 16  1  0
 16 17  2  0
 17 18  1  0
 18 19  2  0
M  END
