
     RDKit          3D

 19 20  0  0  0  0  0  0  0  0999 V2000
   -1.9350   -1.7440    1.3070 C   0  0  0  0  0  0  0  0  0  0  0  0
   -2.3710   -0.4880    0.6460 C   0  0  0  0  0  0  0  0  0  0  0  0
   -3.6950   -0.1720    0.6800 C   0  0  0  0  0  0  0  0  0  0  0  0
   -4.8810   -1.2000    1.4780 Cl  0  0  0  0  0  0  0  0  0  0  0  0
   -4.1680    0.9670    0.0920 C   0  0  0  0  0  0  0  0  0  0  0  0
   -3.3190    1.8220   -0.5490 C   0  0  0  0  0  0  0  0  0  0  0  0
   -1.9610    1.4870   -0.5780 C   0  0  0  0  0  0  0  0  0  0  0  0
   -1.1520    2.3960   -1.2440 O   0  0  0  0  0  0  0  0  0  0  0  0
   -1.4730    0.3580    0.0010 C   0  0  0  0  0  0  0  0  0  0  0  0
   -0.0930   -0.0610    0.0170 C   0  0  0  0  0  0  0  0  0  0  0  0
    0.8670    0.7520   -0.6180 N   0  0  0  0  0  0  0  0  0  0  0  0
    2.2460    0.2740   -0.5650 C   0  0  0  0  0  0  0  0  0  0  0  0
    2.5630   -0.9020    0.0730 C   0  0  0  0  0  0  0  0  0  0  0  0
    3.8600   -1.3430    0.1180 C   0  0  0  0  0  0  0  0  0  0  0  0
    4.2760   -2.8440    0.9300 Cl  0  0  0  0  0  0  0  0  0  0  0  0
    4.8780   -0.6170   -0.4760 C   0  0  0  0  0  0  0  0  0  0  0  0
    6.5450   -1.1600   -0.4320 Cl  0  0  0  0  0  0  0  0  0  0  0  0
    4.5030    0.5520   -1.1010 C   0  0  0  0  0  0  0  0  0  0  0  0
    3.2330    0.9700   -1.1360 N   0  0  0  0  0  0  0  0  0  0  0  0
  1  2  1  0
  2  3  2  0
  2  9  1  0
  3  4  1  0
  3  5  1  0
  5  6  2  0
  6  7  1  0
  7  8  1  0
  7  9  2  0
  9 10  1  0
 10 11  1  0
 11 12  1  0
 12 13  2  0
 12 19  1  0
 13 14  1  0
 14 15  1  0
 14 16  2  0
 16 17  1  0
 16 18  1  0
 18 19  2  0
M  END
