
     RDKit          3D

 19 20  0  0  0  0  0  0  0  0999 V2000
    0.0220    0.3370    0.9070 O   0  0  0  0  0  0  0  0  0  0  0  0
   -0.0020   -0.0520   -0.2670 C   0  0  0  0  0  0  0  0  0  0  0  0
    1.2470   -0.2300   -0.9270 N   0  0  0  0  0  0  0  0  0  0  0  0
    2.5320   -0.0130   -0.3850 C   0  0  0  0  0  0  0  0  0  0  0  0
    3.5860   -0.0590   -1.3160 C   0  0  0  0  0  0  0  0  0  0  0  0
    4.9010    0.1210   -0.9570 C   0  0  0  0  0  0  0  0  0  0  0  0
    5.1890    0.3550    0.3670 C   0  0  0  0  0  0  0  0  0  0  0  0
    6.8530    0.5950    0.8980 Cl  0  0  0  0  0  0  0  0  0  0  0  0
    4.1630    0.4010    1.2800 C   0  0  0  0  0  0  0  0  0  0  0  0
    2.8260    0.2200    0.9290 C   0  0  0  0  0  0  0  0  0  0  0  0
   -1.2360   -0.3070   -0.9160 N   0  0  0  0  0  0  0  0  0  0  0  0
   -2.4930   -0.1530   -0.3430 C   0  0  0  0  0  0  0  0  0  0  0  0
   -2.7670    0.4820    0.8320 C   0  0  0  0  0  0  0  0  0  0  0  0
   -4.0770    0.5680    1.3350 C   0  0  0  0  0  0  0  0  0  0  0  0
   -5.1320    0.0150    0.6610 C   0  0  0  0  0  0  0  0  0  0  0  0
   -6.7610    0.1240    1.2890 Cl  0  0  0  0  0  0  0  0  0  0  0  0
   -4.8820   -0.6270   -0.5210 C   0  0  0  0  0  0  0  0  0  0  0  0
   -6.1950   -1.3470   -1.4140 Cl  0  0  0  0  0  0  0  0  0  0  0  0
   -3.6020   -0.7070   -1.0040 C   0  0  0  0  0  0  0  0  0  0  0  0
  1  2  2  0
  2  3  1  0
  2 11  1  0
  3  4  1  0
  4  5  2  0
  4 10  1  0
  5  6  1  0
  6  7  2  0
  7  8  1  0
  7  9  1  0
  9 10  2  0
 11 12  1  0
 12 13  2  0
 12 19  1  0
 13 14  1  0
 14 15  2  0
 15 16  1  0
 15 17  1  0
 17 18  1  0
 17 19  2  0
M  END
