
     RDKit          3D

 19 20  0  0  0  0  0  0  0  0999 V2000
   -3.4550    1.3650   -0.3990 C   0  0  0  0  0  0  0  0  0  0  0  0
   -1.9790    1.3340   -0.4840 C   0  0  0  0  0  0  0  0  0  0  0  0
   -1.2180    2.4140   -0.7500 C   0  0  0  0  0  0  0  0  0  0  0  0
   -1.7480    4.0870   -1.0480 Cl  0  0  0  0  0  0  0  0  0  0  0  0
    0.0750    1.9970   -0.7520 C   0  0  0  0  0  0  0  0  0  0  0  0
    0.1010    0.6140   -0.4760 C   0  0  0  0  0  0  0  0  0  0  0  0
    1.3740   -0.0530   -0.2200 C   0  0  0  0  0  0  0  0  0  0  0  0
    1.7230   -1.3100   -0.5660 C   0  0  0  0  0  0  0  0  0  0  0  0
    0.7970   -2.3140   -1.6900 Cl  0  0  0  0  0  0  0  0  0  0  0  0
    2.9340   -1.8550   -0.1060 C   0  0  0  0  0  0  0  0  0  0  0  0
    3.7890   -1.1500    0.6890 C   0  0  0  0  0  0  0  0  0  0  0  0
    3.4740    0.1420    1.0650 C   0  0  0  0  0  0  0  0  0  0  0  0
    4.3390    0.9100    1.8890 N   0  0  0  0  0  0  0  0  0  0  0  0
    2.2850    0.6500    0.6050 C   0  0  0  0  0  0  0  0  0  0  0  0
    1.8790    2.2640    1.1530 Cl  0  0  0  0  0  0  0  0  0  0  0  0
   -1.1670    0.2250   -0.3170 N   0  0  0  0  0  0  0  0  0  0  0  0
   -1.7930   -1.0500   -0.0740 C   0  0  0  0  0  0  0  0  0  0  0  0
   -2.4870   -1.6830   -1.2150 C   0  0  0  0  0  0  0  0  0  0  0  0
   -2.9800   -2.9290   -0.7530 O   0  0  0  0  0  0  0  0  0  0  0  0
  1  2  1  0
  2  3  2  0
  2 16  1  0
  3  4  1  0
  3  5  1  0
  5  6  2  0
  6  7  1  0
  6 16  1  0
  7  8  2  0
  7 14  1  0
  8  9  1  0
  8 10  1  0
 10 11  2  0
 11 12  1  0
 12 13  1  0
 12 14  2  0
 14 15  1  0
 16 17  1  0
 17 18  1  0
 18 19  1  0
M  END
