
     RDKit          3D

 19 20  0  0  0  0  0  0  0  0999 V2000
   -0.8970    3.1160   -0.8230 C   0  0  0  0  0  0  0  0  0  0  0  0
   -0.6760    1.7310   -0.4020 C   0  0  0  0  0  0  0  0  0  0  0  0
   -1.6530    0.8040   -0.6020 C   0  0  0  0  0  0  0  0  0  0  0  0
   -2.8580    1.1790   -1.2080 N   0  0  0  0  0  0  0  0  0  0  0  0
   -1.4110   -0.4860   -0.1930 C   0  0  0  0  0  0  0  0  0  0  0  0
   -2.4060   -1.4190   -0.3930 C   0  0  0  0  0  0  0  0  0  0  0  0
   -2.2080   -2.7260    0.0100 C   0  0  0  0  0  0  0  0  0  0  0  0
   -1.0050   -3.0430    0.6010 C   0  0  0  0  0  0  0  0  0  0  0  0
   -0.7410   -4.6910    1.1150 Cl  0  0  0  0  0  0  0  0  0  0  0  0
    0.0020   -2.1170    0.8080 C   0  0  0  0  0  0  0  0  0  0  0  0
   -0.1820   -0.8030    0.4090 C   0  0  0  0  0  0  0  0  0  0  0  0
    0.7710    0.1240    0.5980 N   0  0  0  0  0  0  0  0  0  0  0  0
    2.0320   -0.2220    1.1920 C   0  0  0  0  0  0  0  0  0  0  0  0
    3.0900   -0.5840    0.2190 C   0  0  0  0  0  0  0  0  0  0  0  0
    2.8490   -1.9140   -0.8870 Cl  0  0  0  0  0  0  0  0  0  0  0  0
    4.2390    0.0780    0.1400 C   0  0  0  0  0  0  0  0  0  0  0  0
    4.5240    1.4450    1.2360 Cl  0  0  0  0  0  0  0  0  0  0  0  0
    0.5330    1.4080    0.1930 C   0  0  0  0  0  0  0  0  0  0  0  0
    1.4100    2.2950    0.3610 O   0  0  0  0  0  0  0  0  0  0  0  0
  1  2  1  0
  2  3  2  0
  2 18  1  0
  3  4  1  0
  3  5  1  0
  5  6  2  0
  5 11  1  0
  6  7  1  0
  7  8  2  0
  8  9  1  0
  8 10  1  0
 10 11  2  0
 11 12  1  0
 12 13  1  0
 12 18  1  0
 13 14  1  0
 14 15  1  0
 14 16  2  3
 16 17  1  0
 18 19  2  0
M  END
