
     RDKit          3D

  8  8  0  0  0  0  0  0  0  0999 V2000
    0.3340   -2.0310    0.8110 N   0  0  0  0  0  0  0  0  0  0  0  0
   -0.1650   -1.5060   -0.4370 C   0  0  0  0  0  0  0  0  0  0  0  0
   -0.3070   -0.0330   -0.2970 C   0  0  0  0  0  0  0  0  0  0  0  0
   -1.4550    0.6460   -0.4290 C   0  0  0  0  0  0  0  0  0  0  0  0
   -1.2270    2.0710   -0.2280 C   0  0  0  0  0  0  0  0  0  0  0  0
    0.0330    2.2070    0.0160 N   0  0  0  0  0  0  0  0  0  0  0  0
    0.7020    0.9620   -0.0030 C   0  0  0  0  0  0  0  0  0  0  0  0
    1.9520    0.7370    0.1970 N   0  0  0  0  0  0  0  0  0  0  0  0
  1  2  1  0
  2  3  1  0
  3  4  2  0
  3  7  1  0
  4  5  1  0
  5  6  2  0
  6  7  1  0
  7  8  2  0
M  CHG  1   8   1
M  END
