
     RDKit          3D

 19 20  0  0  0  0  0  0  0  0999 V2000
    4.8040   -0.5880   -0.6110 C   0  0  0  0  0  0  0  0  0  0  0  0
    4.0950    0.5590   -0.2140 O   0  0  0  0  0  0  0  0  0  0  0  0
    2.7220    0.5770   -0.0680 C   0  0  0  0  0  0  0  0  0  0  0  0
    2.0350   -0.5830   -0.3270 C   0  0  0  0  0  0  0  0  0  0  0  0
    0.6710   -0.5910   -0.1890 C   0  0  0  0  0  0  0  0  0  0  0  0
    0.0180   -1.7080   -0.4640 N   0  0  0  0  0  0  0  0  0  0  0  0
   -1.3160   -1.7580   -0.3650 C   0  0  0  0  0  0  0  0  0  0  0  0
   -1.9610   -2.9780   -0.6720 N   0  0  0  0  0  0  0  0  0  0  0  0
   -2.0440   -0.6400    0.0290 C   0  0  0  0  0  0  0  0  0  0  0  0
   -3.4950   -0.7200    0.1300 C   0  0  0  0  0  0  0  0  0  0  0  0
   -1.3930    0.5350    0.3230 C   0  0  0  0  0  0  0  0  0  0  0  0
   -2.1520    1.6760    0.7150 C   0  0  0  0  0  0  0  0  0  0  0  0
   -2.0900    2.3250    1.8370 C   0  0  0  0  0  0  0  0  0  0  0  0
   -3.1260    3.7090    2.0850 Cl  0  0  0  0  0  0  0  0  0  0  0  0
   -1.0620    1.8650    3.1760 Cl  0  0  0  0  0  0  0  0  0  0  0  0
   -0.0410    0.5430    0.2070 C   0  0  0  0  0  0  0  0  0  0  0  0
    0.6930    1.6780    0.4510 C   0  0  0  0  0  0  0  0  0  0  0  0
    2.0640    1.7130    0.3210 C   0  0  0  0  0  0  0  0  0  0  0  0
    2.9070    3.1920    0.6530 Cl  0  0  0  0  0  0  0  0  0  0  0  0
  1  2  1  0
  2  3  1  0
  3  4  2  0
  3 18  1  0
  4  5  1  0
  5  6  2  0
  5 16  1  0
  6  7  1  0
  7  8  1  0
  7  9  2  0
  9 10  1  0
  9 11  1  0
 11 12  1  0
 11 16  2  0
 12 13  2  3
 13 14  1  0
 13 15  1  0
 16 17  1  0
 17 18  2  0
 18 19  1  0
M  END
