
     RDKit          3D

 19 20  0  0  0  0  0  0  0  0999 V2000
    1.0490   -2.3500    2.1960 C   0  0  0  0  0  0  0  0  0  0  0  0
    1.7210   -1.6060    1.0790 C   0  0  0  0  0  0  0  0  0  0  0  0
    3.0500   -1.7870    0.8090 C   0  0  0  0  0  0  0  0  0  0  0  0
    3.6760   -1.1180   -0.2020 C   0  0  0  0  0  0  0  0  0  0  0  0
    5.3770   -1.3880   -0.5010 Cl  0  0  0  0  0  0  0  0  0  0  0  0
    2.9700   -0.2330   -0.9840 C   0  0  0  0  0  0  0  0  0  0  0  0
    3.5940    0.4790   -2.0740 C   0  0  0  0  0  0  0  0  0  0  0  0
    3.4310    1.7470   -2.3420 C   0  0  0  0  0  0  0  0  0  0  0  0
    2.4010    2.7610   -1.3700 Cl  0  0  0  0  0  0  0  0  0  0  0  0
    4.2700    2.4400   -3.7100 Cl  0  0  0  0  0  0  0  0  0  0  0  0
    1.6210   -0.0260   -0.7390 C   0  0  0  0  0  0  0  0  0  0  0  0
    0.9910   -0.7070    0.2880 C   0  0  0  0  0  0  0  0  0  0  0  0
   -0.3780   -0.5580    0.6090 N   0  0  0  0  0  0  0  0  0  0  0  0
   -1.2950    0.2810   -0.0350 C   0  0  0  0  0  0  0  0  0  0  0  0
   -0.9650    1.0090   -0.9990 O   0  0  0  0  0  0  0  0  0  0  0  0
   -2.6690    0.3130    0.4240 N   0  0  0  0  0  0  0  0  0  0  0  0
   -3.5770    1.1840   -0.2610 C   0  0  2  0  0  0  0  0  0  0  0  0
   -4.5580    1.8800    0.6830 C   0  0  0  0  0  0  0  0  0  0  0  0
   -5.0320    0.9010   -0.3070 C   0  0  0  0  0  0  0  0  0  0  0  0
  1  2  1  0
  2  3  2  0
  2 12  1  0
  3  4  1  0
  4  5  1  0
  4  6  2  0
  6  7  1  0
  6 11  1  0
  7  8  2  3
  8  9  1  0
  8 10  1  0
 11 12  2  0
 12 13  1  0
 13 14  1  0
 14 15  2  0
 14 16  1  0
 17 16  1  1
 17 18  1  0
 17 19  1  0
 18 19  1  0
M  END
