
     RDKit          3D

 19 20  0  0  0  0  0  0  0  0999 V2000
    4.7260   -0.2950    1.3230 C   0  0  0  0  0  0  0  0  0  0  0  0
    3.2310   -0.5470    1.2990 C   0  0  0  0  0  0  0  0  0  0  0  0
    2.8310   -1.3630    2.1220 O   0  0  0  0  0  0  0  0  0  0  0  0
    2.3900    0.1100    0.3990 N   0  0  0  0  0  0  0  0  0  0  0  0
    1.0000   -0.0890    0.3360 C   0  0  0  0  0  0  0  0  0  0  0  0
    0.2970   -0.9440    1.1430 C   0  0  0  0  0  0  0  0  0  0  0  0
   -1.0610   -1.1080    1.0490 C   0  0  0  0  0  0  0  0  0  0  0  0
   -1.8000   -0.4170    0.1300 C   0  0  0  0  0  0  0  0  0  0  0  0
   -3.1960   -0.6340    0.1070 N   0  0  0  0  0  0  0  0  0  0  0  0
   -3.8120   -1.6370    1.0010 C   0  0  2  0  0  0  0  0  0  0  0  0
   -3.2560   -3.2740    0.6230 Cl  0  0  0  0  0  0  0  0  0  0  0  0
   -5.5710   -1.4690    0.8640 Cl  0  0  0  0  0  0  0  0  0  0  0  0
   -1.1610    0.4430   -0.6950 C   0  0  0  0  0  0  0  0  0  0  0  0
   -1.9000    1.1460   -1.6290 C   0  0  0  0  0  0  0  0  0  0  0  0
   -1.2490    2.0170   -2.4660 C   0  0  0  0  0  0  0  0  0  0  0  0
   -2.2160    2.9000   -3.6460 Cl  0  0  0  0  0  0  0  0  0  0  0  0
    0.0890    2.1910   -2.3850 C   0  0  0  0  0  0  0  0  0  0  0  0
    0.8440    1.4980   -1.4600 C   0  0  0  0  0  0  0  0  0  0  0  0
    0.2430    0.6220   -0.6080 C   0  0  0  0  0  0  0  0  0  0  0  0
  1  2  1  0
  2  3  2  0
  2  4  1  0
  4  5  1  0
  5  6  2  0
  5 19  1  0
  6  7  1  0
  7  8  2  0
  8  9  1  0
  8 13  1  0
  9 10  1  0
 10 11  1  6
 10 12  1  0
 13 14  2  0
 13 19  1  0
 14 15  1  0
 15 16  1  0
 15 17  2  0
 17 18  1  0
 18 19  2  0
M  END
