
     RDKit          3D

 19 20  0  0  0  0  0  0  0  0999 V2000
   -3.6630   -1.2230   -0.3300 C   0  0  0  0  0  0  0  0  0  0  0  0
   -2.2020   -1.2290   -0.5630 C   0  0  0  0  0  0  0  0  0  0  0  0
   -1.6140   -1.8460   -1.6360 C   0  0  0  0  0  0  0  0  0  0  0  0
   -2.4180   -2.7240   -2.9410 Cl  0  0  0  0  0  0  0  0  0  0  0  0
   -0.2670   -1.6540   -1.5090 C   0  0  0  0  0  0  0  0  0  0  0  0
   -0.0640   -0.9000   -0.3200 C   0  0  0  0  0  0  0  0  0  0  0  0
    1.2530   -0.4400    0.0610 C   0  0  0  0  0  0  0  0  0  0  0  0
    1.7500   -0.4380    1.3260 C   0  0  0  0  0  0  0  0  0  0  0  0
    1.0160   -1.3500    2.6580 Cl  0  0  0  0  0  0  0  0  0  0  0  0
    2.9690    0.1660    1.6710 C   0  0  0  0  0  0  0  0  0  0  0  0
    3.6610    0.7690    0.6430 C   0  0  0  0  0  0  0  0  0  0  0  0
    3.1830    0.7780   -0.6510 C   0  0  0  0  0  0  0  0  0  0  0  0
    3.9400    1.4190   -1.6990 N   0  0  0  0  0  0  0  0  0  0  0  0
    1.9860    0.1830   -0.9660 C   0  0  0  0  0  0  0  0  0  0  0  0
    1.4320    0.2480   -2.6200 Cl  0  0  0  0  0  0  0  0  0  0  0  0
   -1.2510   -0.6570    0.2250 N   0  0  0  0  0  0  0  0  0  0  0  0
   -1.6340    0.1700    1.3490 C   0  0  0  0  0  0  0  0  0  0  0  0
   -1.9990    1.5820    0.7760 C   0  0  0  0  0  0  0  0  0  0  0  0
   -0.9120    2.1200    0.1330 O   0  0  0  0  0  0  0  0  0  0  0  0
  1  2  1  0
  2  3  2  0
  2 16  1  0
  3  4  1  0
  3  5  1  0
  5  6  2  0
  6  7  1  0
  6 16  1  0
  7  8  2  0
  7 14  1  0
  8  9  1  0
  8 10  1  0
 10 11  2  0
 11 12  1  0
 12 13  1  0
 12 14  2  0
 14 15  1  0
 16 17  1  0
 17 18  1  0
 18 19  1  0
M  END
