
     RDKit          3D

 19 20  0  0  0  0  0  0  0  0999 V2000
   -1.8340   -1.0370    1.8330 C   0  0  0  0  0  0  0  0  0  0  0  0
   -2.4110   -0.3030    0.6890 C   0  0  0  0  0  0  0  0  0  0  0  0
   -3.7720   -0.1640    0.5830 C   0  0  0  0  0  0  0  0  0  0  0  0
   -4.8440   -0.8510    1.7970 Cl  0  0  0  0  0  0  0  0  0  0  0  0
   -4.2870    0.5290   -0.5000 C   0  0  0  0  0  0  0  0  0  0  0  0
   -3.4290    1.0510   -1.4240 C   0  0  0  0  0  0  0  0  0  0  0  0
   -2.0280    0.9140   -1.3260 C   0  0  0  0  0  0  0  0  0  0  0  0
   -1.2130    1.4620   -2.2880 O   0  0  0  0  0  0  0  0  0  0  0  0
   -1.5200    0.2340   -0.2630 C   0  0  0  0  0  0  0  0  0  0  0  0
   -0.1200   -0.0070    0.0060 C   0  0  0  0  0  0  0  0  0  0  0  0
    0.8820    0.4700   -0.8610 N   0  0  0  0  0  0  0  0  0  0  0  0
    2.2420    0.1810   -0.4870 C   0  0  0  0  0  0  0  0  0  0  0  0
    2.5460   -0.5200    0.6560 C   0  0  0  0  0  0  0  0  0  0  0  0
    3.8780   -0.7870    0.9940 C   0  0  0  0  0  0  0  0  0  0  0  0
    4.2550   -1.6820    2.4520 Cl  0  0  0  0  0  0  0  0  0  0  0  0
    4.8980   -0.3450    0.1780 C   0  0  0  0  0  0  0  0  0  0  0  0
    6.5840   -0.6560    0.5630 Cl  0  0  0  0  0  0  0  0  0  0  0  0
    4.5530    0.3490   -0.9480 C   0  0  0  0  0  0  0  0  0  0  0  0
    3.2760    0.5860   -1.2420 N   0  0  0  0  0  0  0  0  0  0  0  0
  1  2  1  0
  2  3  2  0
  2  9  1  0
  3  4  1  0
  3  5  1  0
  5  6  2  0
  6  7  1  0
  7  8  1  0
  7  9  2  0
  9 10  1  0
 10 11  1  0
 11 12  1  0
 12 13  2  0
 12 19  1  0
 13 14  1  0
 14 15  1  0
 14 16  2  0
 16 17  1  0
 16 18  1  0
 18 19  2  0
M  END
