
     RDKit          3D

 31 35  0  0  0  0  0  0  0  0999 V2000
    8.3850    0.9140    0.7710 C   0  0  0  0  0  0  0  0  0  0  0  0
    6.9870    0.5810    0.4830 N   0  0  0  0  0  0  0  0  0  0  0  0
    6.5490   -0.7260    0.2830 C   0  0  0  0  0  0  0  0  0  0  0  0
    7.4770   -1.6230    0.3710 O   0  0  0  0  0  0  0  0  0  0  0  0
    5.1990   -1.1760   -0.0060 C   0  0  0  0  0  0  0  0  0  0  0  0
    4.8790   -2.4630   -0.2250 O   0  0  0  0  0  0  0  0  0  0  0  0
    3.6200   -2.6000   -0.4580 C   0  0  0  0  0  0  0  0  0  0  0  0
    2.8310   -3.8320   -0.7510 C   0  0  0  0  0  0  0  0  0  0  0  0
    3.0430   -1.3560   -0.3980 C   0  0  0  0  0  0  0  0  0  0  0  0
    1.6220   -1.0350   -0.5950 C   0  0  0  0  0  0  0  0  0  0  0  0
    1.2350   -0.7770   -1.7620 O   0  0  0  0  0  0  0  0  0  0  0  0
    0.7490   -1.0390    0.5950 C   0  0  0  0  0  0  0  0  0  0  0  0
   -0.9290   -0.5510    0.2650 S   0  0  0  0  0  0  0  0  0  0  0  0
   -1.0680    1.2240   -0.0090 C   0  0  1  0  0  0  0  0  0  0  0  0
   -0.3940    1.7370   -1.2340 C   0  0  0  0  0  0  0  0  0  0  0  0
   -0.7530    3.1380   -1.5640 C   0  0  0  0  0  0  0  0  0  0  0  0
   -1.6230    3.8360   -0.5360 C   0  0  0  0  0  0  0  0  0  0  0  0
   -2.8120    2.9400   -0.2580 C   0  0  0  0  0  0  0  0  0  0  0  0
   -4.1240    3.0500   -0.1930 N   0  0  0  0  0  0  0  0  0  0  0  0
   -4.6610    1.8480    0.0780 N   0  0  0  0  0  0  0  0  0  0  0  0
   -5.9280    1.4300    0.2430 C   0  0  0  0  0  0  0  0  0  0  0  0
   -6.2160    0.0880    0.5260 C   0  0  0  0  0  0  0  0  0  0  0  0
   -5.2020   -0.8360    0.6410 C   0  0  0  0  0  0  0  0  0  0  0  0
   -5.4790   -2.2660    0.9430 C   0  0  1  0  0  0  0  0  0  0  0  0
   -6.6060   -2.4960    2.0000 C   0  0  0  0  0  0  0  0  0  0  0  0
   -6.8280   -2.7880    0.5680 C   0  0  0  0  0  0  0  0  0  0  0  0
   -3.9450   -0.3710    0.4680 N   0  0  0  0  0  0  0  0  0  0  0  0
   -3.6920    0.9220    0.1970 C   0  0  0  0  0  0  0  0  0  0  0  0
   -2.5040    1.6280   -0.0200 C   0  0  0  0  0  0  0  0  0  0  0  0
    4.0500   -0.4610   -0.1110 C   0  0  0  0  0  0  0  0  0  0  0  0
    3.8550    0.9910    0.0480 C   0  0  0  0  0  0  0  0  0  0  0  0
  1  2  1  0
  2  3  1  0
  3  4  2  0
  3  5  1  0
  5  6  1  0
  5 30  2  0
  6  7  1  0
  7  8  1  0
  7  9  2  0
  9 10  1  0
  9 30  1  0
 10 11  2  0
 10 12  1  0
 12 13  1  0
 14 13  1  6
 14 15  1  0
 14 29  1  0
 15 16  1  0
 16 17  1  0
 17 18  1  0
 18 19  2  0
 18 29  1  0
 19 20  1  0
 20 21  1  0
 20 28  1  0
 21 22  2  0
 22 23  1  0
 24 23  1  6
 23 27  2  0
 24 25  1  0
 24 26  1  0
 25 26  1  0
 27 28  1  0
 28 29  2  0
 30 31  1  0
M  END
