
     RDKit          3D

 31 35  0  0  0  0  0  0  0  0999 V2000
    7.2760   -2.2680    0.6750 C   0  0  0  0  0  0  0  0  0  0  0  0
    6.0980   -1.5930    0.0670 C   0  0  0  0  0  0  0  0  0  0  0  0
    4.9830   -2.2260    0.0890 N   0  0  0  0  0  0  0  0  0  0  0  0
    3.8430   -1.6800   -0.4490 O   0  0  0  0  0  0  0  0  0  0  0  0
    2.6690   -1.6010    0.3130 C   0  0  0  0  0  0  0  0  0  0  0  0
    1.6050   -0.9710   -0.5160 C   0  0  0  0  0  0  0  0  0  0  0  0
    1.9010   -0.5900   -1.8000 C   0  0  0  0  0  0  0  0  0  0  0  0
    0.9020   -0.0120   -2.5430 C   0  0  0  0  0  0  0  0  0  0  0  0
   -0.3490    0.1740   -2.0080 C   0  0  0  0  0  0  0  0  0  0  0  0
   -0.6810   -0.2030   -0.7030 C   0  0  0  0  0  0  0  0  0  0  0  0
   -1.9870    0.0010   -0.2060 N   0  0  0  0  0  0  0  0  0  0  0  0
   -2.4170   -0.1530    1.1270 C   0  0  0  0  0  0  0  0  0  0  0  0
   -1.6180   -0.5000    2.0220 O   0  0  0  0  0  0  0  0  0  0  0  0
   -3.8310    0.1000    1.4710 C   0  0  0  0  0  0  0  0  0  0  0  0
   -4.3640   -0.0150    2.7230 N   0  0  0  0  0  0  0  0  0  0  0  0
   -5.6490    0.2830    2.6730 N   0  0  0  0  0  0  0  0  0  0  0  0
   -5.9940    0.5980    1.4080 C   0  0  0  0  0  0  0  0  0  0  0  0
   -7.2000    0.9750    0.8400 C   0  0  0  0  0  0  0  0  0  0  0  0
   -7.2560    1.2400   -0.5080 C   0  0  0  0  0  0  0  0  0  0  0  0
   -6.0770    1.1070   -1.2100 C   0  0  0  0  0  0  0  0  0  0  0  0
   -4.9440    0.7370   -0.5950 N   0  0  0  0  0  0  0  0  0  0  0  0
   -4.8520    0.4760    0.6900 N   0  0  0  0  0  0  0  0  0  0  0  0
   -8.3630    1.6050   -1.1300 C   0  0  0  0  0  0  0  0  0  0  0  0
   -9.5160    1.7240   -0.3840 O   0  0  0  0  0  0  0  0  0  0  0  0
   -9.6090    1.4870    0.9900 C   0  0  0  0  0  0  0  0  0  0  0  0
   -8.3030    1.0840    1.5760 C   0  0  0  0  0  0  0  0  0  0  0  0
    0.3200   -0.7750    0.0210 C   0  0  0  0  0  0  0  0  0  0  0  0
    6.1690   -0.2560   -0.5430 C   0  0  1  0  0  0  0  0  0  0  0  0
    6.6110    0.8490    0.4000 C   0  0  0  0  0  0  0  0  0  0  0  0
    7.9180    0.9130   -0.3610 C   0  0  0  0  0  0  0  0  0  0  0  0
    7.4540   -0.1250   -1.3440 C   0  0  0  0  0  0  0  0  0  0  0  0
  1  2  1  0
  2  3  2  3
 28  2  1  1
  3  4  1  0
  4  5  1  0
  5  6  1  0
  6  7  2  0
  6 27  1  0
  7  8  1  0
  8  9  2  0
  9 10  1  0
 10 11  1  0
 10 27  2  0
 11 12  1  0
 12 13  2  0
 12 14  1  0
 14 15  2  0
 14 22  1  0
 15 16  1  0
 16 17  2  0
 17 18  1  0
 17 22  1  0
 18 19  1  0
 18 26  2  0
 19 20  1  0
 19 23  2  0
 20 21  2  0
 21 22  1  0
 23 24  1  0
 24 25  1  0
 25 26  1  0
 28 29  1  0
 28 31  1  0
 29 30  1  0
 30 31  1  0
M  END
