
     RDKit          3D

 31 35  0  0  0  0  0  0  0  0999 V2000
    2.9210    2.2980    1.2470 O   0  0  0  0  0  0  0  0  0  0  0  0
    3.6510    1.5320    0.5680 C   0  0  0  0  0  0  0  0  0  0  0  0
    3.1970    0.2670    0.1030 N   0  0  0  0  0  0  0  0  0  0  0  0
    1.8680   -0.1650    0.4080 C   0  0  0  0  0  0  0  0  0  0  0  0
    1.6480   -1.5330   -0.2010 C   0  0  1  0  0  0  0  0  0  0  0  0
    2.6250   -2.5450    0.3430 C   0  0  0  0  0  0  0  0  0  0  0  0
    2.3780   -4.0760   -0.6330 S   0  0  0  0  0  0  0  0  0  0  0  0
    0.7530   -3.9200   -1.4700 C   0  0  0  0  0  0  0  0  0  0  0  0
   -0.1300   -3.1920   -0.5020 C   0  0  0  0  0  0  0  0  0  0  0  0
   -1.3940   -3.6540   -0.2000 C   0  0  0  0  0  0  0  0  0  0  0  0
   -2.1620   -2.9440    0.6970 C   0  0  0  0  0  0  0  0  0  0  0  0
   -3.3180   -3.3470    0.9870 O   0  0  0  0  0  0  0  0  0  0  0  0
   -1.7540   -1.8070    1.3100 N   0  0  0  0  0  0  0  0  0  0  0  0
   -2.5860   -1.1450    2.2570 C   0  0  0  0  0  0  0  0  0  0  0  0
   -3.5140   -0.1500    1.7280 C   0  0  0  0  0  0  0  0  0  0  0  0
   -4.2380    0.4320    2.6510 O   0  0  0  0  0  0  0  0  0  0  0  0
   -3.7440    0.2680    0.4120 N   0  0  0  0  0  0  0  0  0  0  0  0
   -3.1810   -0.0930   -0.8710 C   0  0  0  0  0  0  0  0  0  0  0  0
   -3.0510    1.2830   -1.5370 C   0  0  0  0  0  0  0  0  0  0  0  0
   -4.3350    1.9310   -1.1590 C   0  0  0  0  0  0  0  0  0  0  0  0
   -5.2370    2.8560   -1.4940 C   0  0  0  0  0  0  0  0  0  0  0  0
   -6.3170    2.8640   -0.4880 C   0  0  0  0  0  0  0  0  0  0  0  0
   -5.8980    1.8120    0.4630 C   0  0  0  0  0  0  0  0  0  0  0  0
   -4.7540    1.2760    0.0730 C   0  0  0  0  0  0  0  0  0  0  0  0
   -0.5200   -1.3800    0.9980 N   0  0  0  0  0  0  0  0  0  0  0  0
    0.2710   -2.0350    0.1290 C   0  0  0  0  0  0  0  0  0  0  0  0
    5.0290    1.9500    0.2370 C   0  0  0  0  0  0  0  0  0  0  0  0
    5.6100    3.0860    0.5860 C   0  0  0  0  0  0  0  0  0  0  0  0
    6.9930    3.1280    0.0600 C   0  0  0  0  0  0  0  0  0  0  0  0
    7.1400    1.8470   -0.6510 C   0  0  0  0  0  0  0  0  0  0  0  0
    6.0030    1.1930   -0.5350 C   0  0  0  0  0  0  0  0  0  0  0  0
  1  2  2  0
  2  3  1  0
  2 27  1  0
  3  4  1  0
  5  4  1  1
  5  6  1  0
  5 26  1  0
  6  7  1  0
  7  8  1  0
  8  9  1  0
  9 10  2  0
  9 26  1  0
 10 11  1  0
 11 12  2  0
 11 13  1  0
 13 14  1  0
 13 25  1  0
 14 15  1  0
 15 16  2  0
 15 17  1  0
 17 18  1  0
 17 24  1  0
 18 19  1  0
 19 20  1  0
 20 21  2  0
 20 24  1  0
 21 22  1  0
 22 23  1  0
 23 24  2  0
 25 26  2  0
 27 28  2  0
 27 31  1  0
 28 29  1  0
 29 30  1  0
 30 31  2  0
M  END
