
     RDKit          3D

 31 34  0  0  0  0  0  0  0  0999 V2000
   -2.4720   -1.5030   -2.8780 C   0  0  0  0  0  0  0  0  0  0  0  0
   -2.5110   -0.1260   -2.3440 C   0  0  0  0  0  0  0  0  0  0  0  0
   -1.7580    0.1240   -1.0590 C   0  0  0  0  0  0  0  0  0  0  0  0
   -0.6960    0.9680   -1.1360 C   0  0  0  0  0  0  0  0  0  0  0  0
   -0.1250    1.6950   -2.3220 C   0  0  0  0  0  0  0  0  0  0  0  0
   -0.3300    3.1190   -1.7220 C   0  0  0  0  0  0  0  0  0  0  0  0
    0.2290    2.8850   -0.3540 C   0  0  0  0  0  0  0  0  0  0  0  0
    0.8320    3.9630    0.4070 C   0  0  0  0  0  0  0  0  0  0  0  0
    0.9830    5.1420   -0.0070 N   0  0  0  0  0  0  0  0  0  0  0  0
    1.5980    6.1470    0.8310 C   0  0  0  0  0  0  0  0  0  0  0  0
    0.0110    1.5670   -0.0020 C   0  0  0  0  0  0  0  0  0  0  0  0
    0.3890    1.0460    1.2270 N   0  0  0  0  0  0  0  0  0  0  0  0
    1.4240    0.1780    1.6750 C   0  0  0  0  0  0  0  0  0  0  0  0
    1.3840   -0.2280    2.9100 O   0  0  0  0  0  0  0  0  0  0  0  0
    2.5650   -0.3280    0.9150 C   0  0  0  0  0  0  0  0  0  0  0  0
    3.9140    0.2040    1.2490 C   0  0  0  0  0  0  0  0  0  0  0  0
    4.1340    1.0490    2.1550 O   0  0  0  0  0  0  0  0  0  0  0  0
    5.0220   -0.2250    0.5540 O   0  0  0  0  0  0  0  0  0  0  0  0
    6.3240    0.2700    0.8580 C   0  0  0  0  0  0  0  0  0  0  0  0
    2.5430   -1.3050    0.0150 C   0  0  0  0  0  0  0  0  0  0  0  0
    1.5560   -2.1030   -0.4560 N   0  0  0  0  0  0  0  0  0  0  0  0
    0.4340   -2.5570   -0.4280 C   0  0  0  0  0  0  0  0  0  0  0  0
   -0.1580   -3.8470   -1.7020 S   0  0  0  0  0  0  0  0  0  0  0  0
   -1.3800   -4.5930   -0.5820 C   0  0  0  0  0  0  0  0  0  0  0  0
   -1.0660   -3.8920    0.7200 C   0  0  2  0  0  0  0  0  0  0  0  0
   -2.3200   -3.6830    1.5010 C   0  0  0  0  0  0  0  0  0  0  0  0
   -2.1870   -2.2660    2.0330 C   0  0  0  0  0  0  0  0  0  0  0  0
   -1.6890   -1.6100    0.7540 C   0  0  0  0  0  0  0  0  0  0  0  0
   -2.2280   -0.5300    0.1520 C   0  0  0  0  0  0  0  0  0  0  0  0
   -3.5620   -0.0170    0.7260 C   0  0  0  0  0  0  0  0  0  0  0  0
   -0.7220   -2.4910    0.3130 N   0  0  0  0  0  0  0  0  0  0  0  0
  1  2  1  0
  2  3  1  0
  3  4  2  0
  3 29  1  0
  4  5  1  0
  4 11  1  0
  5  6  1  0
  6  7  1  0
  7  8  1  0
  7 11  2  0
  8  9  2  3
  9 10  1  0
 11 12  1  0
 12 13  1  0
 13 14  2  0
 13 15  1  0
 15 16  1  0
 15 20  2  0
 16 17  2  0
 16 18  1  0
 18 19  1  0
 20 21  1  0
 21 22  2  0
 22 23  1  0
 22 31  1  0
 23 24  1  0
 25 24  1  6
 25 26  1  0
 25 31  1  0
 26 27  1  0
 27 28  1  0
 28 29  2  0
 28 31  1  0
 29 30  1  0
M  END
