
     RDKit          3D

 31 34  0  0  0  0  0  0  0  0999 V2000
    8.5350   -0.5280    0.9040 C   0  0  0  0  0  0  0  0  0  0  0  0
    7.4240    0.2090    0.3260 N   0  0  0  0  0  0  0  0  0  0  0  0
    6.1170   -0.3250    0.3620 C   0  0  0  0  0  0  0  0  0  0  0  0
    5.9910   -1.4610    0.9200 O   0  0  0  0  0  0  0  0  0  0  0  0
    4.9410    0.3320   -0.1870 C   0  0  0  0  0  0  0  0  0  0  0  0
    5.0520    1.5540   -0.7860 C   0  0  0  0  0  0  0  0  0  0  0  0
    3.9180    2.1600   -1.3020 C   0  0  0  0  0  0  0  0  0  0  0  0
    2.7110    1.5410   -1.2120 C   0  0  0  0  0  0  0  0  0  0  0  0
    2.6020    0.3060   -0.6060 C   0  0  0  0  0  0  0  0  0  0  0  0
    1.2980   -0.3500   -0.5140 C   0  0  0  0  0  0  0  0  0  0  0  0
    1.1530   -1.7030   -0.5270 C   0  0  0  0  0  0  0  0  0  0  0  0
   -0.0760   -2.3440   -0.4400 C   0  0  0  0  0  0  0  0  0  0  0  0
   -1.2250   -1.5930   -0.3330 C   0  0  0  0  0  0  0  0  0  0  0  0
   -1.0750   -0.1990   -0.3210 C   0  0  0  0  0  0  0  0  0  0  0  0
    0.1360    0.4250   -0.4070 C   0  0  0  0  0  0  0  0  0  0  0  0
   -2.2820    0.5880   -0.2550 N   0  0  0  0  0  0  0  0  0  0  0  0
   -2.2740    1.7820    0.4590 C   0  0  0  0  0  0  0  0  0  0  0  0
   -1.2250    2.1190    1.1360 O   0  0  0  0  0  0  0  0  0  0  0  0
   -3.3810    2.7470    0.5260 C   0  0  0  0  0  0  0  0  0  0  0  0
   -3.3650    3.9400    1.2520 C   0  0  0  0  0  0  0  0  0  0  0  0
   -4.5760    4.5750    1.0720 C   0  0  0  0  0  0  0  0  0  0  0  0
   -5.2910    3.7450    0.2390 C   0  0  0  0  0  0  0  0  0  0  0  0
   -4.5490    2.7250   -0.0300 O   0  0  0  0  0  0  0  0  0  0  0  0
   -3.4380    0.0740   -0.9200 C   0  0  0  0  0  0  0  0  0  0  0  0
   -3.7170   -1.3720   -0.5360 C   0  0  2  0  0  0  0  0  0  0  0  0
   -4.5680   -1.3080    0.7150 C   0  0  0  0  0  0  0  0  0  0  0  0
   -2.5240   -2.1280   -0.2250 N   0  0  0  0  0  0  0  0  0  0  0  0
   -2.7090   -3.4470    0.2360 C   0  0  0  0  0  0  0  0  0  0  0  0
   -4.0370   -4.1410    0.2120 C   0  0  0  0  0  0  0  0  0  0  0  0
   -1.7650   -4.1140    0.6910 O   0  0  0  0  0  0  0  0  0  0  0  0
    3.7070   -0.2990   -0.0950 C   0  0  0  0  0  0  0  0  0  0  0  0
  1  2  1  0
  2  3  1  0
  3  4  2  0
  3  5  1  0
  5  6  2  0
  5 31  1  0
  6  7  1  0
  7  8  2  0
  8  9  1  0
  9 10  1  0
  9 31  2  0
 10 11  2  0
 10 15  1  0
 11 12  1  0
 12 13  2  0
 13 14  1  0
 13 27  1  0
 14 15  2  0
 14 16  1  0
 16 17  1  0
 16 24  1  0
 17 18  2  0
 17 19  1  0
 19 20  2  0
 19 23  1  0
 20 21  1  0
 21 22  2  0
 22 23  1  0
 24 25  1  0
 25 26  1  1
 25 27  1  0
 27 28  1  0
 28 29  1  0
 28 30  2  0
M  END
