
     RDKit          3D

 35 37  0  0  0  0  0  0  0  0999 V2000
   -6.2250    0.1540   -3.1050 N   0  0  0  0  0  0  0  0  0  0  0  0
   -5.2210    0.5450   -2.1810 C   0  0  0  0  0  0  0  0  0  0  0  0
   -5.4700    1.6540   -1.5500 N   0  0  0  0  0  0  0  0  0  0  0  0
   -4.6780    2.2390   -0.6250 O   0  0  0  0  0  0  0  0  0  0  0  0
   -5.4350    3.4610    0.4230 P   0  0  0  0  0  0  0  0  0  0  0  0
   -6.9340    3.9960   -0.2450 O   0  0  0  0  0  0  0  0  0  0  0  0
   -5.6920    2.6450    1.9570 O   0  0  0  0  0  0  0  0  0  0  0  0
   -4.4540    2.1240    2.3540 C   0  0  0  0  0  0  0  0  0  0  0  0
   -4.5900    0.9000    3.0480 O   0  0  0  0  0  0  0  0  0  0  0  0
   -3.8480   -0.2240    2.8040 C   0  0  0  0  0  0  0  0  0  0  0  0
   -3.5290   -1.0220    3.7180 O   0  0  0  0  0  0  0  0  0  0  0  0
   -3.3650   -0.5820    1.4500 C   0  0  0  0  0  0  0  0  0  0  0  0
   -2.3250   -1.2830    1.0290 C   0  0  0  0  0  0  0  0  0  0  0  0
   -1.2810   -1.9520    1.8440 C   0  0  0  0  0  0  0  0  0  0  0  0
    0.0400   -1.4470    1.5580 N   0  0  0  0  0  0  0  0  0  0  0  0
    0.8050   -2.0920    0.5130 C   0  0  0  0  0  0  0  0  0  0  0  0
    2.1930   -2.3380    1.1110 C   0  0  2  0  0  0  0  0  0  0  0  0
    2.0930   -3.0430    2.3080 O   0  0  0  0  0  0  0  0  0  0  0  0
    2.8610   -1.0150    1.3820 C   0  0  1  0  0  0  0  0  0  0  0  0
    3.5600   -0.6100    0.1070 C   0  0  0  0  0  0  0  0  0  0  0  0
    3.2880    0.4700   -0.4580 O   0  0  0  0  0  0  0  0  0  0  0  0
    4.5390   -1.4530   -0.4690 N   0  0  0  0  0  0  0  0  0  0  0  0
    5.2940   -1.2210   -1.6570 C   0  0  0  0  0  0  0  0  0  0  0  0
    6.1930   -0.0410   -1.6700 C   0  0  0  0  0  0  0  0  0  0  0  0
    5.4940    1.1270   -1.4880 O   0  0  0  0  0  0  0  0  0  0  0  0
    6.6190    2.4410   -1.5180 P   0  0  0  0  0  0  0  0  0  0  0  0
    5.7920    3.8680   -0.9900 O   0  0  0  0  0  0  0  0  0  0  0  0
    7.9610    2.0420   -0.5130 O   0  0  0  0  0  0  0  0  0  0  0  0
    1.9500   -0.0100    1.7800 O   0  0  0  0  0  0  0  0  0  0  0  0
    0.6590   -0.3560    2.2240 C   0  0  0  0  0  0  0  0  0  0  0  0
    0.0480    0.2150    3.1330 O   0  0  0  0  0  0  0  0  0  0  0  0
   -2.4050   -1.2700   -0.3500 O   0  0  0  0  0  0  0  0  0  0  0  0
   -3.5150   -0.5460   -0.7690 C   0  0  0  0  0  0  0  0  0  0  0  0
   -4.0150   -0.2490   -1.9750 C   0  0  0  0  0  0  0  0  0  0  0  0
   -4.1230   -0.1100    0.3930 O   0  0  0  0  0  0  0  0  0  0  0  0
  1  2  1  0
  2  3  2  0
  2 34  1  0
  3  4  1  0
  4  5  1  0
  5  6  1  0
  5  7  1  0
  7  8  1  0
  8  9  1  0
  9 10  1  0
 10 11  2  0
 10 12  1  0
 12 13  2  0
 12 35  1  0
 13 14  1  0
 13 32  1  0
 14 15  1  0
 15 16  1  0
 15 30  1  0
 16 17  1  0
 17 18  1  1
 17 19  1  0
 19 20  1  6
 19 29  1  0
 20 21  2  0
 20 22  1  0
 22 23  1  0
 23 24  1  0
 24 25  1  0
 25 26  1  0
 26 27  1  0
 26 28  1  0
 29 30  1  0
 30 31  2  0
 32 33  1  0
 33 34  2  0
 33 35  1  0
M  END
