
     RDKit          3D

 34 36  0  0  0  0  0  0  0  0999 V2000
   -8.8590   -5.1900   -1.7950 O   0  0  0  0  0  0  0  0  0  0  0  0
   -8.3810   -4.3290   -2.9940 P   0  0  0  0  0  0  0  0  0  0  0  0
   -6.9930   -3.2480   -2.8600 O   0  0  0  0  0  0  0  0  0  0  0  0
   -6.3880   -2.9480   -1.6690 C   0  0  0  0  0  0  0  0  0  0  0  0
   -6.8360   -3.4630   -0.6160 O   0  0  0  0  0  0  0  0  0  0  0  0
   -5.2560   -2.0640   -1.5750 N   0  0  0  0  0  0  0  0  0  0  0  0
   -4.6370   -1.7580   -0.3480 C   0  0  0  0  0  0  0  0  0  0  0  0
   -5.0940   -2.2810    0.7090 O   0  0  0  0  0  0  0  0  0  0  0  0
   -3.5470   -0.9160   -0.2020 O   0  0  0  0  0  0  0  0  0  0  0  0
   -2.9750   -0.6580    1.0880 C   0  0  0  0  0  0  0  0  0  0  0  0
   -1.8100    0.2800    0.9960 C   0  0  1  0  0  0  0  0  0  0  0  0
   -0.8260   -0.2280    0.2100 O   0  0  0  0  0  0  0  0  0  0  0  0
    0.0960    0.6500   -0.3040 C   0  0  0  0  0  0  0  0  0  0  0  0
    1.2360    0.9690    0.6210 C   0  0  1  0  0  0  0  0  0  0  0  0
    2.4170    0.2510    0.2620 O   0  0  0  0  0  0  0  0  0  0  0  0
    3.0690   -0.6270    1.0810 C   0  0  0  0  0  0  0  0  0  0  0  0
    2.6110   -0.8290    2.2310 O   0  0  0  0  0  0  0  0  0  0  0  0
    4.2380   -1.2920    0.6300 N   0  0  0  0  0  0  0  0  0  0  0  0
    4.8680   -1.1540   -0.6600 C   0  0  0  0  0  0  0  0  0  0  0  0
    5.1650   -2.5950   -1.0190 C   0  0  0  0  0  0  0  0  0  0  0  0
    5.5600   -3.1840    0.3040 C   0  0  1  0  0  0  0  0  0  0  0  0
    6.9480   -3.2550    0.4450 O   0  0  0  0  0  0  0  0  0  0  0  0
    5.0370   -2.2460    1.3750 C   0  0  0  0  0  0  0  0  0  0  0  0
    1.6030    2.4130    0.7080 C   0  0  0  0  0  0  0  0  0  0  0  0
    1.5860    3.1120   -0.4660 O   0  0  0  0  0  0  0  0  0  0  0  0
    0.2580    4.1080   -0.7310 P   0  0  0  0  0  0  0  0  0  0  0  0
   -0.0360    4.5860   -2.3220 O   0  0  0  0  0  0  0  0  0  0  0  0
   -0.3040    5.0830    0.5050 O   0  0  0  0  0  0  0  0  0  0  0  0
   -1.6750    5.0750    0.7160 C   0  0  0  0  0  0  0  0  0  0  0  0
   -2.2770    3.7530    0.4000 C   0  0  0  0  0  0  0  0  0  0  0  0
   -1.6720    2.6760    0.9070 N   0  0  0  0  0  0  0  0  0  0  0  0
   -2.3330    1.6020    0.5300 C   0  0  0  0  0  0  0  0  0  0  0  0
   -3.3620    2.0250   -0.2220 N   0  0  0  0  0  0  0  0  0  0  0  0
   -3.2970    3.3230   -0.2780 O   0  0  0  0  0  0  0  0  0  0  0  0
  1  2  2  0
  2  3  1  0
  3  4  1  0
  4  5  2  0
  4  6  1  0
  6  7  1  0
  7  8  2  0
  7  9  1  0
  9 10  1  0
 11 10  1  6
 11 12  1  0
 11 32  1  0
 12 13  1  0
 13 14  1  0
 14 15  1  6
 14 24  1  0
 15 16  1  0
 16 17  2  0
 16 18  1  0
 18 19  1  0
 18 23  1  0
 19 20  1  0
 20 21  1  0
 21 22  1  6
 21 23  1  0
 24 25  1  0
 25 26  1  0
 26 27  1  0
 26 28  1  0
 28 29  1  0
 29 30  1  0
 30 31  2  0
 30 34  1  0
 31 32  1  0
 32 33  2  0
 33 34  1  0
M  END
