
     RDKit          3D

 43 44  0  0  0  0  0  0  0  0999 V2000
    3.5780   -3.8960    2.1600 C   0  0  0  0  0  0  0  0  0  0  0  0
    3.3220   -2.5970    1.7050 O   0  0  0  0  0  0  0  0  0  0  0  0
    3.4650   -2.6130    0.3340 C   0  0  0  0  0  0  0  0  0  0  0  0
    3.2000   -1.1970   -0.2490 C   0  0  2  0  0  0  0  0  0  0  0  0
    4.3190   -0.3970    0.5010 C   0  0  0  0  0  0  0  0  0  0  0  0
    4.3100    0.9180    0.1430 O   0  0  0  0  0  0  0  0  0  0  0  0
    5.2620    1.6490    0.7850 C   0  0  0  0  0  0  0  0  0  0  0  0
    6.6670    1.1830    0.5550 C   0  0  0  0  0  0  0  0  0  0  0  0
    7.1700    1.1980   -1.2210 P   0  0  0  0  0  0  0  0  0  0  0  0
    6.0750    2.0830   -2.2090 O   0  0  0  0  0  0  0  0  0  0  0  0
    8.8130    1.7410   -1.4180 O   0  0  0  0  0  0  0  0  0  0  0  0
    1.9260   -0.6820    0.2540 C   0  0  0  0  0  0  0  0  0  0  0  0
    1.0960    0.0670   -0.6520 N   0  0  0  0  0  0  0  0  0  0  0  0
    1.7630    1.0900   -1.2310 O   0  0  0  0  0  0  0  0  0  0  0  0
    1.5750    2.3410   -0.7850 C   0  0  0  0  0  0  0  0  0  0  0  0
   -0.2630   -0.2070   -0.9210 C   0  0  0  0  0  0  0  0  0  0  0  0
   -0.7540    0.5420   -1.8620 O   0  0  0  0  0  0  0  0  0  0  0  0
   -1.1880   -1.1500   -0.3540 C   0  0  0  0  0  0  0  0  0  0  0  0
   -2.4690   -0.6900    0.1390 C   0  0  0  0  0  0  0  0  0  0  0  0
   -3.1660    0.2790    0.5130 C   0  0  0  0  0  0  0  0  0  0  0  0
   -2.8740    1.6900    0.6450 C   0  0  0  0  0  0  0  0  0  0  0  0
   -3.8260    2.6100    0.9120 C   0  0  0  0  0  0  0  0  0  0  0  0
   -3.5920    4.0580    1.0600 C   0  0  0  0  0  0  0  0  0  0  0  0
   -2.2400    4.3760    1.2270 O   0  0  0  0  0  0  0  0  0  0  0  0
   -1.2300    3.4880    0.9790 C   0  0  0  0  0  0  0  0  0  0  0  0
   -1.5250    2.2170    0.7030 C   0  0  0  0  0  0  0  0  0  0  0  0
   -4.6180   -0.0430    1.0530 C   0  0  1  0  0  0  0  0  0  0  0  0
   -4.7120   -1.5740    1.0770 C   0  0  0  0  0  0  0  0  0  0  0  0
   -4.6880    0.3530    2.4710 C   0  0  0  0  0  0  0  0  0  0  0  0
   -5.9910    0.1390    3.0900 N   0  0  0  0  0  0  0  0  0  0  0  0
   -5.4700    0.4070    0.0820 N   0  0  0  0  0  0  0  0  0  0  0  0
   -6.8280    0.6100    0.1150 C   0  0  0  0  0  0  0  0  0  0  0  0
   -7.7660   -0.5720    0.1980 C   0  0  0  0  0  0  0  0  0  0  0  0
   -9.1110   -0.0970    0.2030 O   0  0  0  0  0  0  0  0  0  0  0  0
   -0.9660   -2.4890   -0.4840 C   0  0  0  0  0  0  0  0  0  0  0  0
    0.0740   -3.2270   -1.1240 C   0  0  0  0  0  0  0  0  0  0  0  0
    0.8030   -3.0810   -2.2030 C   0  0  0  0  0  0  0  0  0  0  0  0
    0.8640   -2.0650   -3.2330 C   0  0  0  0  0  0  0  0  0  0  0  0
    1.7200   -1.1100   -3.4970 C   0  0  0  0  0  0  0  0  0  0  0  0
    2.9340   -0.7290   -2.8500 N   0  0  0  0  0  0  0  0  0  0  0  0
    3.7490    0.2900   -3.5960 C   0  0  0  0  0  0  0  0  0  0  0  0
    3.5260   -1.1650   -1.6750 C   0  0  0  0  0  0  0  0  0  0  0  0
    4.7260   -1.7170   -1.8320 O   0  0  0  0  0  0  0  0  0  0  0  0
  1  2  1  0
  2  3  1  0
  4  3  1  1
  4  5  1  0
  4 12  1  0
  4 42  1  0
  5  6  1  0
  6  7  1  0
  7  8  1  0
  8  9  1  0
  9 10  1  0
  9 11  1  0
 12 13  1  0
 13 14  1  0
 13 16  1  0
 14 15  1  0
 16 17  2  0
 16 18  1  0
 18 19  1  0
 18 35  2  0
 19 20  2  3
 20 21  1  0
 20 27  1  0
 21 22  2  0
 21 26  1  0
 22 23  1  0
 23 24  1  0
 24 25  1  0
 25 26  2  0
 27 28  1  1
 27 29  1  0
 27 31  1  0
 29 30  1  0
 31 32  1  0
 32 33  1  0
 33 34  1  0
 35 36  1  0
 36 37  2  0
 37 38  1  0
 38 39  2  0
 39 40  1  0
 40 41  1  0
 40 42  1  0
 42 43  2  0
M  END
