
     RDKit          3D

 35 37  0  0  0  0  0  0  0  0999 V2000
   -1.8180    3.5010   -2.0030 O   0  0  0  0  0  0  0  0  0  0  0  0
   -1.7830    2.9340   -0.8570 C   0  0  0  0  0  0  0  0  0  0  0  0
   -0.4690    2.4760   -0.3950 C   0  0  0  0  0  0  0  0  0  0  0  0
    0.1660    1.5700   -1.2030 O   0  0  0  0  0  0  0  0  0  0  0  0
   -0.6390    0.7500   -1.9500 C   0  0  0  0  0  0  0  0  0  0  0  0
   -0.7660   -0.6180   -1.2710 C   0  0  1  0  0  0  0  0  0  0  0  0
   -2.0330   -0.6160   -0.6720 O   0  0  0  0  0  0  0  0  0  0  0  0
   -2.9170   -0.5650   -1.7830 C   0  0  0  0  0  0  0  0  0  0  0  0
   -2.3090   -1.1250   -2.8190 N   0  0  0  0  0  0  0  0  0  0  0  0
   -1.0750   -1.6570   -2.3470 C   0  0  0  0  0  0  0  0  0  0  0  0
   -0.3580   -2.6650   -2.5730 N   0  0  0  0  0  0  0  0  0  0  0  0
    0.8300   -2.9990   -1.8590 C   0  0  0  0  0  0  0  0  0  0  0  0
    1.5230   -4.0140   -2.1310 O   0  0  0  0  0  0  0  0  0  0  0  0
    1.2140   -2.1160   -0.7960 N   0  0  0  0  0  0  0  0  0  0  0  0
    2.3870   -2.3330   -0.0100 C   0  0  0  0  0  0  0  0  0  0  0  0
    3.5950   -1.6940   -0.5430 C   0  0  0  0  0  0  0  0  0  0  0  0
    3.6560   -1.0030   -1.5920 O   0  0  0  0  0  0  0  0  0  0  0  0
    4.7840   -1.8540    0.1560 O   0  0  0  0  0  0  0  0  0  0  0  0
    5.9830   -1.2850   -0.2700 C   0  0  0  0  0  0  0  0  0  0  0  0
    5.9510    0.2220   -0.3680 C   0  0  0  0  0  0  0  0  0  0  0  0
    5.5760    1.0060    1.2590 P   0  0  0  0  0  0  0  0  0  0  0  0
    4.9540   -0.1600    2.3970 O   0  0  0  0  0  0  0  0  0  0  0  0
    6.9840    1.7970    1.9280 O   0  0  0  0  0  0  0  0  0  0  0  0
    0.3980   -0.9740   -0.5080 C   0  0  0  0  0  0  0  0  0  0  0  0
    0.7420   -0.2650    0.4700 O   0  0  0  0  0  0  0  0  0  0  0  0
   -4.2350    0.0110   -1.7230 C   0  0  0  0  0  0  0  0  0  0  0  0
   -5.1140   -0.2950   -2.5950 O   0  0  0  0  0  0  0  0  0  0  0  0
   -4.6100    0.8990   -0.7460 O   0  0  0  0  0  0  0  0  0  0  0  0
   -4.2600    0.8480    0.6140 C   0  0  2  0  0  0  0  0  0  0  0  0
   -5.3740    0.8960    1.4490 O   0  0  0  0  0  0  0  0  0  0  0  0
   -5.5480   -0.5270    2.3990 P   0  0  0  0  0  0  0  0  0  0  0  0
   -6.4250   -0.2810    3.8520 O   0  0  0  0  0  0  0  0  0  0  0  0
   -6.0500   -1.8960    1.5030 O   0  0  0  0  0  0  0  0  0  0  0  0
   -3.2500    1.9250    0.9470 C   0  0  0  0  0  0  0  0  0  0  0  0
   -2.9990    2.8100   -0.1640 N   0  0  0  0  0  0  0  0  0  0  0  0
  1  2  2  0
  2  3  1  0
  2 35  1  0
  3  4  1  0
  4  5  1  0
  6  5  1  6
  6  7  1  0
  6 10  1  0
  6 24  1  0
  7  8  1  0
  8  9  2  0
  8 26  1  0
  9 10  1  0
 10 11  2  0
 11 12  1  0
 12 13  2  0
 12 14  1  0
 14 15  1  0
 14 24  1  0
 15 16  1  0
 16 17  2  0
 16 18  1  0
 18 19  1  0
 19 20  1  0
 20 21  1  0
 21 22  1  0
 21 23  1  0
 24 25  2  0
 26 27  2  0
 26 28  1  0
 28 29  1  0
 29 30  1  1
 29 34  1  0
 30 31  1  0
 31 32  1  0
 31 33  1  0
 34 35  1  0
M  END
