
     RDKit          3D

 34 36  0  0  0  0  0  0  0  0999 V2000
   -4.2320   -0.5690   -1.2420 N   0  0  0  0  0  0  0  0  0  0  0  0
   -2.8550   -0.1730   -0.8860 C   0  0  1  0  0  0  0  0  0  0  0  0
   -2.7270    1.2690   -1.1320 C   0  0  0  0  0  0  0  0  0  0  0  0
   -2.7440    2.1500   -0.0080 N   0  0  0  0  0  0  0  0  0  0  0  0
   -3.8860    2.4620    0.8380 C   0  0  0  0  0  0  0  0  0  0  0  0
   -5.0160    1.8980    0.8470 O   0  0  0  0  0  0  0  0  0  0  0  0
   -3.5470    3.5220    1.6780 O   0  0  0  0  0  0  0  0  0  0  0  0
   -2.4920    4.1880    0.9620 C   0  0  0  0  0  0  0  0  0  0  0  0
   -1.6920    2.9290    0.5480 C   0  0  2  0  0  0  0  0  0  0  0  0
   -0.5420    3.2720   -0.3070 C   0  0  0  0  0  0  0  0  0  0  0  0
    0.6620    3.2130    0.4830 O   0  0  0  0  0  0  0  0  0  0  0  0
    1.0960    2.0060    0.9980 C   0  0  0  0  0  0  0  0  0  0  0  0
    1.7900    2.0220    2.0430 O   0  0  0  0  0  0  0  0  0  0  0  0
    0.7940    0.6740    0.3930 C   0  0  1  0  0  0  0  0  0  0  0  0
    2.0040    0.4110   -0.5190 C   0  0  0  0  0  0  0  0  0  0  0  0
    3.1180    0.4990    0.3160 O   0  0  0  0  0  0  0  0  0  0  0  0
    4.5970    0.2370   -0.5080 P   0  0  0  0  0  0  0  0  0  0  0  0
    4.5260    0.6400   -2.1820 O   0  0  0  0  0  0  0  0  0  0  0  0
    5.3580   -1.8010   -0.2400 P   0  0  0  0  0  0  0  0  0  0  0  0
    6.9570   -1.7950    0.4620 O   0  0  0  0  0  0  0  0  0  0  0  0
    5.3620   -2.5960   -1.7850 O   0  0  0  0  0  0  0  0  0  0  0  0
    0.6570   -0.2240    1.4330 O   0  0  0  0  0  0  0  0  0  0  0  0
    0.9410   -1.5730    1.5080 C   0  0  0  0  0  0  0  0  0  0  0  0
    1.8490   -1.9280    2.3760 O   0  0  0  0  0  0  0  0  0  0  0  0
    0.3190   -2.6330    0.7080 C   0  0  0  0  0  0  0  0  0  0  0  0
    1.2250   -3.5850    0.2170 C   0  0  0  0  0  0  0  0  0  0  0  0
    0.8090   -4.6120   -0.5000 O   0  0  0  0  0  0  0  0  0  0  0  0
   -0.4560   -4.7880   -0.7840 C   0  0  0  0  0  0  0  0  0  0  0  0
   -0.8510   -5.7850   -1.4790 O   0  0  0  0  0  0  0  0  0  0  0  0
   -1.3290   -3.9120   -0.3390 N   0  0  0  0  0  0  0  0  0  0  0  0
   -1.0180   -2.7970    0.4210 C   0  0  0  0  0  0  0  0  0  0  0  0
   -2.1190   -2.0080    0.7980 N   0  0  0  0  0  0  0  0  0  0  0  0
   -2.4930   -0.6840    0.4530 C   0  0  0  0  0  0  0  0  0  0  0  0
   -2.5220    0.1530    1.3960 O   0  0  0  0  0  0  0  0  0  0  0  0
  2  1  1  1
  2  3  1  0
  2 33  1  0
  3  4  1  0
  4  5  1  0
  4  9  1  0
  5  6  2  0
  5  7  1  0
  7  8  1  0
  9  8  1  6
  9 10  1  0
 10 11  1  0
 11 12  1  0
 12 13  2  0
 12 14  1  0
 14 15  1  6
 14 22  1  0
 15 16  1  0
 16 17  1  0
 17 18  1  0
 17 19  1  0
 19 20  1  0
 19 21  1  0
 22 23  1  0
 23 24  2  0
 23 25  1  0
 25 26  2  0
 25 31  1  0
 26 27  1  0
 27 28  1  0
 28 29  2  0
 28 30  1  0
 30 31  2  0
 31 32  1  0
 32 33  1  0
 33 34  2  0
M  END
