
     RDKit          3D

 29 31  0  0  0  0  0  0  0  0999 V2000
    5.9080   -1.7790   -1.1530 C   0  0  0  0  0  0  0  0  0  0  0  0
    4.8570   -1.3850   -0.4830 C   0  0  0  0  0  0  0  0  0  0  0  0
    3.8290   -2.3170   -0.4130 C   0  0  0  0  0  0  0  0  0  0  0  0
    2.6870   -2.0220    0.2520 C   0  0  0  0  0  0  0  0  0  0  0  0
    2.5000   -0.7870    0.8840 C   0  0  0  0  0  0  0  0  0  0  0  0
    3.4760    0.1550    0.8500 C   0  0  0  0  0  0  0  0  0  0  0  0
    4.6830   -0.1690    0.1390 C   0  0  0  0  0  0  0  0  0  0  0  0
    5.6340    0.7290    0.0930 C   0  0  0  0  0  0  0  0  0  0  0  0
    6.9580    0.8030   -0.4890 C   0  0  0  0  0  0  0  0  0  0  0  0
    3.4670    1.3920    1.5340 N   0  0  0  0  0  0  0  0  0  0  0  0
    2.6440    2.4950    1.6070 C   0  0  0  0  0  0  0  0  0  0  0  0
    3.1390    3.4840    2.3440 O   0  0  0  0  0  0  0  0  0  0  0  0
    1.4070    2.8480    1.0990 N   0  0  0  0  0  0  0  0  0  0  0  0
    0.7120    2.3940   -0.0740 C   0  0  0  0  0  0  0  0  0  0  0  0
   -0.7310    2.1930    0.2900 C   0  0  0  0  0  0  0  0  0  0  0  0
   -1.5300    1.4950   -0.6720 N   0  0  0  0  0  0  0  0  0  0  0  0
   -2.5230    0.5180   -0.3510 C   0  0  0  0  0  0  0  0  0  0  0  0
   -3.7430    0.7060   -0.9900 C   0  0  0  0  0  0  0  0  0  0  0  0
   -4.8540   -0.0930   -0.7710 C   0  0  0  0  0  0  0  0  0  0  0  0
   -6.1440    0.1470   -1.4790 C   0  0  0  0  0  0  0  0  0  0  0  0
   -7.0810    0.8040   -0.4870 C   0  0  0  0  0  0  0  0  0  0  0  0
   -4.7350   -1.1260    0.1290 C   0  0  0  0  0  0  0  0  0  0  0  0
   -5.8780   -2.0400    0.4330 C   0  0  0  0  0  0  0  0  0  0  0  0
   -3.5280   -1.3090    0.7560 C   0  0  0  0  0  0  0  0  0  0  0  0
   -2.3890   -0.5070    0.5420 C   0  0  0  0  0  0  0  0  0  0  0  0
   -1.2520   -0.9020    1.2660 N   0  0  0  0  0  0  0  0  0  0  0  0
    0.0500   -1.3560    0.7670 C   0  0  1  0  0  0  0  0  0  0  0  0
    0.2190   -1.2790   -0.6890 C   0  0  0  0  0  0  0  0  0  0  0  0
    1.1610   -0.6760    1.5270 C   0  0  0  0  0  0  0  0  0  0  0  0
  1  2  2  0
  2  3  1  0
  2  7  1  0
  3  4  2  0
  4  5  1  0
  5  6  2  0
  5 29  1  0
  6  7  1  0
  6 10  1  0
  7  8  2  3
  8  9  1  0
 10 11  1  0
 11 12  2  0
 11 13  1  0
 13 14  1  0
 14 15  1  0
 15 16  1  0
 16 17  1  0
 17 18  2  0
 17 25  1  0
 18 19  1  0
 19 20  1  0
 19 22  2  0
 20 21  1  0
 22 23  1  0
 22 24  1  0
 24 25  2  0
 25 26  1  0
 26 27  1  0
 27 28  1  6
 27 29  1  0
M  END
