
     RDKit          3D

 28 30  0  0  0  0  0  0  0  0999 V2000
   -2.7560    1.6020    3.4110 C   0  0  0  0  0  0  0  0  0  0  0  0
   -1.3580    1.5050    3.9080 C   0  0  0  0  0  0  0  0  0  0  0  0
   -0.4040    1.3110    3.2070 N   0  0  0  0  0  0  0  0  0  0  0  0
    0.2980    1.0990    2.1140 C   0  0  0  0  0  0  0  0  0  0  0  0
    0.1180   -0.0200    1.4120 C   0  0  0  0  0  0  0  0  0  0  0  0
   -0.6450   -0.0110    0.3570 C   0  0  0  0  0  0  0  0  0  0  0  0
   -0.5130   -1.1200   -0.5860 C   0  0  0  0  0  0  0  0  0  0  0  0
   -1.6430   -1.3000   -1.4010 C   0  0  0  0  0  0  0  0  0  0  0  0
   -2.7720   -0.4420   -1.3320 N   0  0  0  0  0  0  0  0  0  0  0  0
   -3.9160   -0.7090   -2.2020 C   0  0  0  0  0  0  0  0  0  0  0  0
   -4.9700    0.3410   -1.9760 C   0  0  0  0  0  0  0  0  0  0  0  0
   -6.1850    0.1470   -2.8170 C   0  0  0  0  0  0  0  0  0  0  0  0
   -1.7160   -2.3340   -2.3220 C   0  0  0  0  0  0  0  0  0  0  0  0
   -0.6530   -3.1960   -2.4290 C   0  0  0  0  0  0  0  0  0  0  0  0
    0.4210   -3.0050   -1.6370 C   0  0  0  0  0  0  0  0  0  0  0  0
    0.5650   -1.9620   -0.6720 C   0  0  0  0  0  0  0  0  0  0  0  0
    1.7810   -1.9240    0.0650 N   0  0  0  0  0  0  0  0  0  0  0  0
    2.9190   -1.1070    0.1170 C   0  0  0  0  0  0  0  0  0  0  0  0
    3.2430    0.0790   -0.3640 C   0  0  0  0  0  0  0  0  0  0  0  0
    4.6560    0.5740   -0.0470 C   0  0  0  0  0  0  0  0  0  0  0  0
    4.9340    0.5150    1.4000 C   0  0  0  0  0  0  0  0  0  0  0  0
    4.3530   -0.7120    2.0770 C   0  0  0  0  0  0  0  0  0  0  0  0
    4.0720   -1.7050    0.9660 C   0  0  0  0  0  0  0  0  0  0  0  0
    2.4180    0.9730   -1.1700 C   0  0  0  0  0  0  0  0  0  0  0  0
    2.9160    1.2150   -2.3570 O   0  0  0  0  0  0  0  0  0  0  0  0
    1.1970    1.6410   -0.9520 N   0  0  0  0  0  0  0  0  0  0  0  0
    0.8260    2.4870    0.1810 C   0  0  0  0  0  0  0  0  0  0  0  0
    1.3460    1.9790    1.5010 C   0  0  0  0  0  0  0  0  0  0  0  0
  1  2  1  0
  2  3  2  3
  3  4  1  0
  4  5  2  0
  4 28  1  0
  5  6  2  0
  6  7  1  0
  7  8  2  0
  7 16  1  0
  8  9  1  0
  8 13  1  0
  9 10  1  0
 10 11  1  0
 11 12  1  0
 13 14  2  0
 14 15  1  0
 15 16  2  0
 16 17  1  0
 17 18  1  0
 18 19  2  0
 18 23  1  0
 19 20  1  0
 19 24  1  0
 20 21  1  0
 21 22  1  0
 22 23  1  0
 24 25  2  0
 24 26  1  0
 26 27  1  0
 27 28  1  0
M  END
