
     RDKit          3D

 31 35  0  0  0  0  0  0  0  0999 V2000
   -6.6460    3.5400   -0.4190 C   0  0  0  0  0  0  0  0  0  0  0  0
   -5.5370    2.5370   -0.6520 C   0  0  2  0  0  0  0  0  0  0  0  0
   -6.0440    1.1750   -0.9800 C   0  0  0  0  0  0  0  0  0  0  0  0
   -5.6340    0.1040   -0.0090 C   0  0  0  0  0  0  0  0  0  0  0  0
   -4.1320    0.0860    0.1240 C   0  0  0  0  0  0  0  0  0  0  0  0
   -3.2680   -0.8440    0.0500 N   0  0  0  0  0  0  0  0  0  0  0  0
   -2.0300   -0.7720    0.1730 C   0  0  0  0  0  0  0  0  0  0  0  0
   -0.8270   -1.6010    0.1480 C   0  0  0  0  0  0  0  0  0  0  0  0
   -0.3000   -1.6610   -1.2500 C   0  0  0  0  0  0  0  0  0  0  0  0
    0.9550   -2.5040   -1.3720 C   0  0  2  0  0  0  0  0  0  0  0  0
    0.6970   -3.9200   -0.9420 C   0  0  0  0  0  0  0  0  0  0  0  0
    1.1860   -4.1920    0.3910 N   0  0  0  0  0  0  0  0  0  0  0  0
    0.5040   -5.2750    1.1140 C   0  0  0  0  0  0  0  0  0  0  0  0
    2.2330   -3.5240    1.0340 C   0  0  0  0  0  0  0  0  0  0  0  0
    2.7280   -4.0220    2.0580 O   0  0  0  0  0  0  0  0  0  0  0  0
    2.7070   -2.2340    0.4490 C   0  0  0  0  0  0  0  0  0  0  0  0
    3.6550   -1.4600    0.8770 N   0  0  0  0  0  0  0  0  0  0  0  0
    4.0370   -0.4210    0.4010 C   0  0  0  0  0  0  0  0  0  0  0  0
    5.0000    0.6160    0.6100 N   0  0  0  0  0  0  0  0  0  0  0  0
    5.1390    1.7330   -0.2200 C   0  0  0  0  0  0  0  0  0  0  0  0
    4.3920    1.8660   -1.2170 O   0  0  0  0  0  0  0  0  0  0  0  0
    6.1670    2.7270    0.1040 C   0  0  0  0  0  0  0  0  0  0  0  0
    7.0560    2.7910    1.0930 C   0  0  0  0  0  0  0  0  0  0  0  0
    7.9040    3.8290    1.1680 C   0  0  0  0  0  0  0  0  0  0  0  0
    7.8260    4.8010    0.2100 C   0  0  0  0  0  0  0  0  0  0  0  0
    6.4620    4.1650   -0.8270 S   0  0  0  0  0  0  0  0  0  0  0  0
    2.9010   -0.2930   -1.0500 S   0  0  0  0  0  0  0  0  0  0  0  0
    2.0330   -1.8590   -0.6770 C   0  0  0  0  0  0  0  0  0  0  0  0
   -1.9030    1.0840    0.4880 S   0  0  0  0  0  0  0  0  0  0  0  0
   -3.6230    1.4030    0.3850 C   0  0  0  0  0  0  0  0  0  0  0  0
   -4.5570    2.4960    0.4800 C   0  0  0  0  0  0  0  0  0  0  0  0
  2  1  1  1
  2  3  1  0
  2 31  1  0
  3  4  1  0
  4  5  1  0
  5  6  1  0
  5 30  2  0
  6  7  2  0
  7  8  1  0
  7 29  1  0
  8  9  1  0
 10  9  1  1
 10 11  1  0
 10 28  1  0
 11 12  1  0
 12 13  1  0
 12 14  1  0
 14 15  2  0
 14 16  1  0
 16 17  1  0
 16 28  2  0
 17 18  2  0
 18 19  1  0
 18 27  1  0
 19 20  1  0
 20 21  2  0
 20 22  1  0
 22 23  2  0
 22 26  1  0
 23 24  1  0
 24 25  2  0
 25 26  1  0
 27 28  1  0
 29 30  1  0
 30 31  1  0
M  END
