
     RDKit          3D

 29 31  0  0  0  0  0  0  0  0999 V2000
    8.6880    0.9640   -0.3780 C   0  0  0  0  0  0  0  0  0  0  0  0
    7.3780    1.0730   -0.4600 C   0  0  0  0  0  0  0  0  0  0  0  0
    6.8390    2.0840   -1.2650 C   0  0  0  0  0  0  0  0  0  0  0  0
    5.4880    2.2370   -1.3800 C   0  0  0  0  0  0  0  0  0  0  0  0
    4.5980    1.4090   -0.7130 C   0  0  0  0  0  0  0  0  0  0  0  0
    3.2330    1.5830   -0.8440 C   0  0  0  0  0  0  0  0  0  0  0  0
    2.3270    0.7670   -0.1860 C   0  0  0  0  0  0  0  0  0  0  0  0
    0.9640    0.9270   -0.3130 C   0  0  0  0  0  0  0  0  0  0  0  0
    0.5490    1.8440   -1.0430 O   0  0  0  0  0  0  0  0  0  0  0  0
    0.0500    0.0940    0.3530 C   0  0  0  0  0  0  0  0  0  0  0  0
   -1.3890    0.3270    0.2040 C   0  0  0  0  0  0  0  0  0  0  0  0
   -2.2450   -0.5840   -0.2110 C   0  0  0  0  0  0  0  0  0  0  0  0
   -1.7370   -1.8700   -0.5380 N   0  0  0  0  0  0  0  0  0  0  0  0
   -3.6420   -0.3690   -0.3760 N   0  0  0  0  0  0  0  0  0  0  0  0
   -4.0960    0.7160   -1.1760 C   0  0  0  0  0  0  0  0  0  0  0  0
   -4.8540    1.8160   -0.5470 C   0  0  0  0  0  0  0  0  0  0  0  0
   -4.1610    2.5790    0.5450 C   0  0  0  0  0  0  0  0  0  0  0  0
   -4.5310   -1.3180    0.2540 C   0  0  1  0  0  0  0  0  0  0  0  0
   -4.2300   -1.3300    1.7390 C   0  0  0  0  0  0  0  0  0  0  0  0
   -5.9970   -0.9690    0.1100 C   0  0  0  0  0  0  0  0  0  0  0  0
   -4.3820   -2.7310   -0.2700 C   0  0  0  0  0  0  0  0  0  0  0  0
    0.6000   -0.8880    1.1380 C   0  0  0  0  0  0  0  0  0  0  0  0
   -0.2460   -1.7500    1.8840 N   0  0  0  0  0  0  0  0  0  0  0  0
    1.9530   -1.0410    1.2570 N   0  0  0  0  0  0  0  0  0  0  0  0
    2.8070   -0.2360    0.6120 C   0  0  0  0  0  0  0  0  0  0  0  0
    4.1900   -0.4040    0.7380 C   0  0  0  0  0  0  0  0  0  0  0  0
    5.1000    0.4060    0.0860 C   0  0  0  0  0  0  0  0  0  0  0  0
    6.4860    0.2470    0.2050 C   0  0  0  0  0  0  0  0  0  0  0  0
    6.9350   -0.7110    0.9630 C   0  0  0  0  0  0  0  0  0  0  0  0
  1  2  2  0
  2  3  1  0
  2 28  1  0
  3  4  2  0
  4  5  1  0
  5  6  2  0
  5 27  1  0
  6  7  1  0
  7  8  1  0
  7 25  2  0
  8  9  2  0
  8 10  1  0
 10 11  1  0
 10 22  2  0
 11 12  2  3
 12 13  1  0
 12 14  1  0
 14 15  1  0
 14 18  1  0
 15 16  1  0
 16 17  1  0
 18 19  1  1
 18 20  1  0
 18 21  1  0
 22 23  1  0
 22 24  1  0
 24 25  1  0
 25 26  1  0
 26 27  2  0
 27 28  1  0
 28 29  2  0
M  END
