
     RDKit          3D

 29 31  0  0  0  0  0  0  0  0999 V2000
    2.4410   -3.1950    0.3440 C   0  0  0  0  0  0  0  0  0  0  0  0
    1.8970   -1.8910    0.0410 N   0  0  0  0  0  0  0  0  0  0  0  0
    2.5940   -0.8570   -0.1950 C   0  0  0  0  0  0  0  0  0  0  0  0
    4.0350   -0.8880   -0.1810 N   0  0  0  0  0  0  0  0  0  0  0  0
    4.5340    0.4090   -0.4780 C   0  0  0  0  0  0  0  0  0  0  0  0
    5.9910    0.7600   -0.5510 C   0  0  1  0  0  0  0  0  0  0  0  0
    6.1140    2.2180   -0.9450 C   0  0  0  0  0  0  0  0  0  0  0  0
    6.6440    0.5170    0.8080 C   0  0  0  0  0  0  0  0  0  0  0  0
    6.6700   -0.0690   -1.6020 C   0  0  0  0  0  0  0  0  0  0  0  0
    3.5200    1.2120   -0.6670 C   0  0  0  0  0  0  0  0  0  0  0  0
    2.2390    0.5090   -0.5110 C   0  0  0  0  0  0  0  0  0  0  0  0
    1.0240    0.9900   -0.6290 C   0  0  0  0  0  0  0  0  0  0  0  0
    0.9320    2.4570   -0.9660 C   0  0  0  0  0  0  0  0  0  0  0  0
   -0.2320    0.2770   -0.4820 C   0  0  0  0  0  0  0  0  0  0  0  0
   -1.1210    0.7970    0.6330 C   0  0  0  0  0  0  0  0  0  0  0  0
   -2.3770   -0.0190    0.6970 C   0  0  0  0  0  0  0  0  0  0  0  0
   -3.5760    0.4310    0.2010 C   0  0  0  0  0  0  0  0  0  0  0  0
   -4.7030   -0.3600    0.2770 C   0  0  0  0  0  0  0  0  0  0  0  0
   -5.9910    0.0680   -0.2390 C   0  0  0  0  0  0  0  0  0  0  0  0
   -7.2000   -0.2690    0.5550 C   0  0  0  0  0  0  0  0  0  0  0  0
   -6.0560    0.7300   -1.3730 C   0  0  0  0  0  0  0  0  0  0  0  0
   -7.4060    1.1470   -1.8590 C   0  0  0  0  0  0  0  0  0  0  0  0
   -4.9250    1.0310   -2.0920 O   0  0  0  0  0  0  0  0  0  0  0  0
   -4.6490   -1.6180    0.8540 C   0  0  0  0  0  0  0  0  0  0  0  0
   -3.4320   -2.0420    1.3430 C   0  0  0  0  0  0  0  0  0  0  0  0
   -3.0390   -3.2120    1.9640 C   0  0  0  0  0  0  0  0  0  0  0  0
   -1.7270   -3.1130    2.2430 N   0  0  0  0  0  0  0  0  0  0  0  0
   -1.2580   -1.9380    1.8320 N   0  0  0  0  0  0  0  0  0  0  0  0
   -2.2850   -1.2650    1.2770 C   0  0  0  0  0  0  0  0  0  0  0  0
  1  2  1  0
  2  3  2  3
  3  4  1  0
  3 11  1  0
  4  5  1  0
  5  6  1  0
  5 10  2  0
  6  7  1  6
  6  8  1  0
  6  9  1  0
 10 11  1  0
 11 12  2  3
 12 13  1  0
 12 14  1  0
 14 15  1  0
 15 16  1  0
 16 17  2  0
 16 29  1  0
 17 18  1  0
 18 19  1  0
 18 24  2  0
 19 20  1  0
 19 21  2  3
 21 22  1  0
 21 23  1  0
 24 25  1  0
 25 26  1  0
 25 29  2  0
 26 27  2  0
 27 28  1  0
 28 29  1  0
M  END
