
     RDKit          3D

 29 31  0  0  0  0  0  0  0  0999 V2000
    4.6370    1.2360   -0.2370 C   0  0  0  0  0  0  0  0  0  0  0  0
    3.5420    1.0440    0.4730 C   0  0  0  0  0  0  0  0  0  0  0  0
    2.7880    2.1950    0.9460 C   0  0  0  0  0  0  0  0  0  0  0  0
    1.5060    2.3000    1.2220 C   0  0  0  0  0  0  0  0  0  0  0  0
    0.4090    1.3890    1.1680 C   0  0  0  0  0  0  0  0  0  0  0  0
   -0.5680    1.1700    0.2830 C   0  0  0  0  0  0  0  0  0  0  0  0
   -1.5460    0.1200    0.5640 N   0  0  0  0  0  0  0  0  0  0  0  0
   -2.3620    0.1670    1.7610 C   0  0  0  0  0  0  0  0  0  0  0  0
   -3.2760   -0.9690    1.8110 C   0  0  0  0  0  0  0  0  0  0  0  0
   -2.8890   -2.1360    2.4250 C   0  0  0  0  0  0  0  0  0  0  0  0
   -3.7200   -3.2400    2.4970 C   0  0  0  0  0  0  0  0  0  0  0  0
   -4.9600   -3.1740    1.9450 C   0  0  0  0  0  0  0  0  0  0  0  0
   -5.3690   -2.0150    1.3240 C   0  0  0  0  0  0  0  0  0  0  0  0
   -4.5330   -0.9170    1.2570 C   0  0  0  0  0  0  0  0  0  0  0  0
   -0.8370    1.8960   -0.9630 C   0  0  0  0  0  0  0  0  0  0  0  0
   -2.1560    2.4130   -1.0160 C   0  0  0  0  0  0  0  0  0  0  0  0
   -2.6180    3.2080   -2.0320 C   0  0  0  0  0  0  0  0  0  0  0  0
   -1.7410    3.5040   -3.0370 C   0  0  0  0  0  0  0  0  0  0  0  0
   -0.4650    3.0100   -3.0020 C   0  0  0  0  0  0  0  0  0  0  0  0
    0.0450    2.1860   -1.9760 C   0  0  0  0  0  0  0  0  0  0  0  0
    1.3830    1.7500   -2.1640 N   0  0  0  0  0  0  0  0  0  0  0  0
    1.9390    0.4840   -2.4310 C   0  0  0  0  0  0  0  0  0  0  0  0
    3.1620    0.5140   -2.9480 O   0  0  0  0  0  0  0  0  0  0  0  0
    1.4980   -0.8320   -2.2820 N   0  0  0  0  0  0  0  0  0  0  0  0
    1.3170   -1.6250   -1.0920 C   0  0  0  0  0  0  0  0  0  0  0  0
    2.5980   -2.2650   -0.5950 C   0  0  2  0  0  0  0  0  0  0  0  0
    2.2620   -3.0810    0.6310 C   0  0  0  0  0  0  0  0  0  0  0  0
    3.5860   -1.2710   -0.2350 N   0  0  0  0  0  0  0  0  0  0  0  0
    3.1520   -0.3630    0.7680 C   0  0  0  0  0  0  0  0  0  0  0  0
  1  2  2  0
  2  3  1  0
  2 29  1  0
  3  4  2  0
  4  5  1  0
  5  6  2  0
  6  7  1  0
  6 15  1  0
  7  8  1  0
  8  9  1  0
  9 10  2  0
  9 14  1  0
 10 11  1  0
 11 12  2  0
 12 13  1  0
 13 14  2  0
 15 16  2  0
 15 20  1  0
 16 17  1  0
 17 18  2  0
 18 19  1  0
 19 20  2  0
 20 21  1  0
 21 22  1  0
 22 23  2  0
 22 24  1  0
 24 25  1  0
 25 26  1  0
 26 27  1  1
 26 28  1  0
 28 29  1  0
M  END
