
     RDKit          3D

 31 35  0  0  0  0  0  0  0  0999 V2000
    4.3360    2.7710    0.1990 C   0  0  0  0  0  0  0  0  0  0  0  0
    3.6130    1.4790   -0.2330 C   0  0  0  0  0  0  0  0  0  0  0  0
    1.9560    1.4350   -0.5080 S   0  0  0  0  0  0  0  0  0  0  0  0
    1.5120   -0.0290   -0.9700 C   0  0  0  0  0  0  0  0  0  0  0  0
    0.3380   -0.4720   -1.2760 N   0  0  0  0  0  0  0  0  0  0  0  0
   -0.8480    0.3170   -1.2530 C   0  0  0  0  0  0  0  0  0  0  0  0
   -1.4800    0.4250    0.1090 C   0  0  0  0  0  0  0  0  0  0  0  0
   -1.8740   -0.8830    0.6710 C   0  0  0  0  0  0  0  0  0  0  0  0
   -1.2300   -1.5630    1.6290 N   0  0  0  0  0  0  0  0  0  0  0  0
   -1.8450   -2.7170    1.9130 C   0  0  0  0  0  0  0  0  0  0  0  0
   -2.9550   -2.7980    1.0930 C   0  0  0  0  0  0  0  0  0  0  0  0
   -2.9600   -1.6580    0.3320 C   0  0  0  0  0  0  0  0  0  0  0  0
   -3.9920   -1.3640   -0.6730 C   0  0  0  0  0  0  0  0  0  0  0  0
   -3.7840   -1.7630   -1.8370 O   0  0  0  0  0  0  0  0  0  0  0  0
   -5.1680   -0.6610   -0.3380 N   0  0  0  0  0  0  0  0  0  0  0  0
   -6.1510   -0.3950   -1.3530 C   0  0  0  0  0  0  0  0  0  0  0  0
   -6.7760    0.9620   -1.2620 C   0  0  0  0  0  0  0  0  0  0  0  0
   -7.0380    1.4330    0.1320 C   0  0  0  0  0  0  0  0  0  0  0  0
   -5.8840    1.2190    1.0620 C   0  0  0  0  0  0  0  0  0  0  0  0
   -5.3830   -0.2140    1.0100 C   0  0  0  0  0  0  0  0  0  0  0  0
    3.0040   -0.8660   -0.9570 S   0  0  0  0  0  0  0  0  0  0  0  0
    4.2380    0.2780   -0.4540 C   0  0  0  0  0  0  0  0  0  0  0  0
    5.6430   -0.1500   -0.3680 C   0  0  0  0  0  0  0  0  0  0  0  0
    5.9850   -1.4170   -0.8650 C   0  0  0  0  0  0  0  0  0  0  0  0
    7.3010   -1.8590   -0.7740 C   0  0  0  0  0  0  0  0  0  0  0  0
    8.2740   -1.1130   -0.2210 C   0  0  0  0  0  0  0  0  0  0  0  0
    7.9920    0.1300    0.2800 C   0  0  0  0  0  0  0  0  0  0  0  0
    6.6540    0.5800    0.1880 C   0  0  0  0  0  0  0  0  0  0  0  0
    9.1230    0.7770    0.8360 N   0  0  0  0  0  0  0  0  0  0  0  0
   10.2970    0.4340    0.2770 O   0  0  0  0  0  0  0  0  0  0  0  0
   10.0160   -1.2870    0.0560 S   0  0  0  0  0  0  0  0  0  0  0  0
  1  2  1  0
  2  3  1  0
  2 22  2  0
  3  4  1  0
  4  5  2  3
  4 21  1  0
  5  6  1  0
  6  7  1  0
  7  8  1  0
  8  9  1  0
  8 12  2  0
  9 10  1  0
 10 11  2  0
 11 12  1  0
 12 13  1  0
 13 14  2  0
 13 15  1  0
 15 16  1  0
 15 20  1  0
 16 17  1  0
 17 18  1  0
 18 19  1  0
 19 20  1  0
 21 22  1  0
 22 23  1  0
 23 24  2  0
 23 28  1  0
 24 25  1  0
 25 26  2  0
 26 27  1  0
 26 31  1  0
 27 28  2  0
 27 29  1  0
 29 30  1  0
 30 31  1  0
M  END
