
     RDKit          3D

 29 32  0  0  0  0  0  0  0  0999 V2000
   -3.3400    5.7990    0.4230 C   0  0  0  0  0  0  0  0  0  0  0  0
   -1.9870    5.6630    0.7580 O   0  0  0  0  0  0  0  0  0  0  0  0
   -1.2740    4.4910    0.5550 C   0  0  0  0  0  0  0  0  0  0  0  0
   -1.9400    3.4230   -0.0040 C   0  0  0  0  0  0  0  0  0  0  0  0
   -1.2540    2.2450   -0.2160 C   0  0  0  0  0  0  0  0  0  0  0  0
   -1.9400    1.2030   -0.7700 N   0  0  0  0  0  0  0  0  0  0  0  0
   -1.3360    0.0410   -0.9960 C   0  0  0  0  0  0  0  0  0  0  0  0
   -2.0580   -1.0170   -1.5680 N   0  0  0  0  0  0  0  0  0  0  0  0
   -1.7800   -1.4440   -2.9060 C   0  0  0  0  0  0  0  0  0  0  0  0
   -3.0900   -1.6370   -0.8030 C   0  0  1  0  0  0  0  0  0  0  0  0
   -4.4560   -1.4980   -1.4600 C   0  0  0  0  0  0  0  0  0  0  0  0
   -5.2680   -2.6520   -0.9210 C   0  0  0  0  0  0  0  0  0  0  0  0
   -4.3430   -3.4630   -0.0440 C   0  0  0  0  0  0  0  0  0  0  0  0
   -2.9750   -3.1350   -0.6630 C   0  0  0  0  0  0  0  0  0  0  0  0
   -0.0500   -0.1110   -0.6820 N   0  0  0  0  0  0  0  0  0  0  0  0
    0.6850    0.9010   -0.1250 C   0  0  0  0  0  0  0  0  0  0  0  0
    2.0570    0.6990    0.1840 N   0  0  0  0  0  0  0  0  0  0  0  0
    2.7350   -0.5730   -0.0680 C   0  0  1  0  0  0  0  0  0  0  0  0
    4.1830   -0.3900    0.3300 C   0  0  0  0  0  0  0  0  0  0  0  0
    4.6220   -1.5380    1.2070 C   0  0  0  0  0  0  0  0  0  0  0  0
    4.3570   -2.7650    0.4730 N   0  0  1  0  0  0  0  0  0  0  0  0
    5.1180   -3.8690    0.9680 C   0  0  0  0  0  0  0  0  0  0  0  0
    2.9230   -2.9810    0.5180 C   0  0  0  0  0  0  0  0  0  0  0  0
    2.1340   -1.7140    0.6970 C   0  0  0  0  0  0  0  0  0  0  0  0
    0.0590    2.1120    0.1130 C   0  0  0  0  0  0  0  0  0  0  0  0
    0.7200    3.1680    0.6670 C   0  0  0  0  0  0  0  0  0  0  0  0
    0.0400    4.3790    0.8920 C   0  0  0  0  0  0  0  0  0  0  0  0
    0.7200    5.4460    1.4550 O   0  0  0  0  0  0  0  0  0  0  0  0
    2.0780    5.3110    1.7970 C   0  0  0  0  0  0  0  0  0  0  0  0
  1  2  1  0
  2  3  1  0
  3  4  2  0
  3 27  1  0
  4  5  1  0
  5  6  2  0
  5 25  1  0
  6  7  1  0
  7  8  1  0
  7 15  2  0
  8  9  1  0
 10  8  1  6
 10 11  1  0
 10 14  1  0
 11 12  1  0
 12 13  1  0
 13 14  1  0
 15 16  1  0
 16 17  1  0
 16 25  2  0
 18 17  1  1
 18 19  1  0
 18 24  1  0
 19 20  1  0
 20 21  1  0
 21 22  1  1
 21 23  1  0
 23 24  1  0
 25 26  1  0
 26 27  2  0
 27 28  1  0
 28 29  1  0
M  CHG  1  21   1
M  END
