
     RDKit          3D

 29 31  0  0  0  0  0  0  0  0999 V2000
    3.2230    0.5520   -2.9950 C   0  0  0  0  0  0  0  0  0  0  0  0
    2.2090    0.7180   -1.8040 C   0  0  0  0  0  0  0  0  0  0  0  0
    1.6170   -0.5040   -1.6180 N   0  0  0  0  0  0  0  0  0  0  0  0
    0.5580   -0.8490   -0.7820 C   0  0  2  0  0  0  0  0  0  0  0  0
    0.5710   -0.6600    0.5920 N   0  0  0  0  0  0  0  0  0  0  0  0
    0.6800    0.3750    1.3340 C   0  0  0  0  0  0  0  0  0  0  0  0
    0.6480    0.1510    2.7860 N   0  0  0  0  0  0  0  0  0  0  0  0
    0.8550    1.7550    0.8470 C   0  0  0  0  0  0  0  0  0  0  0  0
    2.1310    2.3970    1.4260 C   0  0  2  0  0  0  0  0  0  0  0  0
    1.9540    2.5130    2.9540 C   0  0  0  0  0  0  0  0  0  0  0  0
    2.2400    3.8370    0.9580 C   0  0  0  0  0  0  0  0  0  0  0  0
    0.0600    2.4580    0.1180 C   0  0  0  0  0  0  0  0  0  0  0  0
   -1.2650    2.2820   -0.5090 C   0  0  0  0  0  0  0  0  0  0  0  0
   -2.2540    1.5540   -0.1460 C   0  0  0  0  0  0  0  0  0  0  0  0
   -2.7810    0.5980    0.8020 C   0  0  0  0  0  0  0  0  0  0  0  0
   -3.0730    1.1050    2.0990 C   0  0  0  0  0  0  0  0  0  0  0  0
   -3.5820    0.3890    3.1270 C   0  0  0  0  0  0  0  0  0  0  0  0
   -3.8590   -0.9500    2.9460 C   0  0  0  0  0  0  0  0  0  0  0  0
   -3.6060   -1.4800    1.7290 C   0  0  0  0  0  0  0  0  0  0  0  0
   -3.0670   -0.7550    0.6160 C   0  0  0  0  0  0  0  0  0  0  0  0
   -3.0110   -1.5270   -0.6160 C   0  0  0  0  0  0  0  0  0  0  0  0
   -4.3230   -1.7710   -0.9770 O   0  0  0  0  0  0  0  0  0  0  0  0
   -2.1710   -2.1020   -1.5470 N   0  0  0  0  0  0  0  0  0  0  0  0
   -0.9280   -2.8130   -1.4760 C   0  0  0  0  0  0  0  0  0  0  0  0
   -0.9290   -4.2100   -1.8250 C   0  0  0  0  0  0  0  0  0  0  0  0
    0.1990   -4.9810   -1.7620 C   0  0  0  0  0  0  0  0  0  0  0  0
    1.4050   -4.4430   -1.3550 C   0  0  0  0  0  0  0  0  0  0  0  0
    1.4200   -3.0970   -1.0190 C   0  0  0  0  0  0  0  0  0  0  0  0
    0.2670   -2.3340   -1.0910 C   0  0  0  0  0  0  0  0  0  0  0  0
  1  2  1  0
  2  3  1  0
  4  3  1  1
  4  5  1  0
  4 29  1  0
  5  6  2  0
  6  7  1  0
  6  8  1  0
  8  9  1  0
  8 12  2  0
  9 10  1  1
  9 11  1  0
 12 13  1  0
 13 14  2  0
 14 15  1  0
 15 16  2  0
 15 20  1  0
 16 17  1  0
 17 18  2  0
 18 19  1  0
 19 20  2  0
 20 21  1  0
 21 22  2  0
 21 23  1  0
 23 24  1  0
 24 25  2  0
 24 29  1  0
 25 26  1  0
 26 27  2  0
 27 28  1  0
 28 29  2  0
M  END
