
     RDKit          3D

 29 30  0  0  0  0  0  0  0  0999 V2000
   -6.4200    1.1280   -3.1190 C   0  0  0  0  0  0  0  0  0  0  0  0
   -5.4700    1.1990   -2.1830 C   0  0  0  0  0  0  0  0  0  0  0  0
   -4.4900    2.2990   -2.2710 C   0  0  0  0  0  0  0  0  0  0  0  0
   -5.4830    0.1550   -1.1610 C   0  0  0  0  0  0  0  0  0  0  0  0
   -4.6520    0.0160   -0.1290 C   0  0  0  0  0  0  0  0  0  0  0  0
   -3.5890    0.9620    0.0800 C   0  0  0  0  0  0  0  0  0  0  0  0
   -2.3380    1.3000   -0.0490 C   0  0  0  0  0  0  0  0  0  0  0  0
   -1.1050    0.8630   -0.5490 N   0  0  0  0  0  0  0  0  0  0  0  0
    0.2180    0.3750   -0.2170 C   0  0  0  0  0  0  0  0  0  0  0  0
    1.2220    1.4040   -0.4680 C   0  0  0  0  0  0  0  0  0  0  0  0
    2.5340    1.3100   -0.2580 C   0  0  0  0  0  0  0  0  0  0  0  0
    3.0060    0.1400    0.2390 C   0  0  0  0  0  0  0  0  0  0  0  0
    4.3940    0.0420    0.4820 N   0  0  0  0  0  0  0  0  0  0  0  0
    5.3110    1.1320    0.2360 C   0  0  0  0  0  0  0  0  0  0  0  0
    6.6910    0.7350    0.6000 C   0  0  0  0  0  0  0  0  0  0  0  0
    6.9760    0.3310    2.0080 C   0  0  0  0  0  0  0  0  0  0  0  0
    7.6890    0.7280   -0.2950 C   0  0  0  0  0  0  0  0  0  0  0  0
    7.4700    1.1190   -1.7080 C   0  0  0  0  0  0  0  0  0  0  0  0
    2.1280   -0.8380    0.4820 C   0  0  0  0  0  0  0  0  0  0  0  0
    0.7060   -0.8200    0.2860 C   0  0  0  0  0  0  0  0  0  0  0  0
    0.1070   -2.0870    0.5900 N   0  0  0  0  0  0  0  0  0  0  0  0
   -0.7010   -2.8760    1.3670 C   0  0  0  0  0  0  0  0  0  0  0  0
   -0.1870   -3.9940    1.9430 O   0  0  0  0  0  0  0  0  0  0  0  0
   -2.0390   -2.9090    1.8070 N   0  0  0  0  0  0  0  0  0  0  0  0
   -2.8280   -1.7700    1.2510 C   0  0  1  0  0  0  0  0  0  0  0  0
   -2.6280   -0.7810    2.2540 C   0  0  0  0  0  0  0  0  0  0  0  0
   -2.6120   -2.0140   -0.1470 C   0  0  0  0  0  0  0  0  0  0  0  0
   -4.3240   -2.0330    1.3430 C   0  0  0  0  0  0  0  0  0  0  0  0
   -5.0570   -1.1690    0.6810 C   0  0  0  0  0  0  0  0  0  0  0  0
  1  2  2  0
  2  3  1  0
  2  4  1  0
  4  5  2  3
  5  6  1  0
  5 29  1  0
  6  7  2  0
  7  8  1  0
  8  9  1  0
  9 10  2  0
  9 20  1  0
 10 11  1  0
 11 12  2  0
 12 13  1  0
 12 19  1  0
 13 14  1  0
 14 15  1  0
 15 16  1  0
 15 17  2  3
 17 18  1  0
 19 20  2  0
 20 21  1  0
 21 22  1  0
 22 23  2  0
 22 24  1  0
 24 25  1  0
 25 26  1  1
 25 27  1  0
 25 28  1  0
 28 29  2  0
M  END
