
     RDKit          3D

  9  8  0  0  0  0  0  0  0  0999 V2000
   -2.6880    0.9620    0.0400 O   0  0  0  0  0  0  0  0  0  0  0  0
   -1.8990   -0.0800    0.5230 C   0  0  0  0  0  0  0  0  0  0  0  0
   -0.5030    0.1400   -0.0080 C   0  0  1  0  0  0  0  0  0  0  0  0
   -0.5910    0.1230   -1.4010 O   0  0  0  0  0  0  0  0  0  0  0  0
    0.0900    1.2900    0.4800 O   0  0  0  0  0  0  0  0  0  0  0  0
    0.3500   -0.9270    0.3340 O   0  0  0  0  0  0  0  0  0  0  0  0
    1.8930   -0.4670   -0.3730 P   0  0  0  0  0  0  0  0  0  0  0  0
    3.0180   -1.7490   -0.3500 O   0  0  0  0  0  0  0  0  0  0  0  0
    2.4220    0.9430    0.4590 O   0  0  0  0  0  0  0  0  0  0  0  0
  1  2  1  0
  2  3  1  0
  3  4  1  6
  3  5  1  0
  3  6  1  0
  6  7  1  0
  7  8  1  0
  7  9  1  0
M  END
