
     RDKit          3D

 28 29  0  0  0  0  0  0  0  0999 V2000
   -1.1490   -3.3060   -0.0900 C   0  0  0  0  0  0  0  0  0  0  0  0
   -1.9120   -2.5690   -0.8730 C   0  0  0  0  0  0  0  0  0  0  0  0
   -1.6440   -2.5210   -2.2200 O   0  0  0  0  0  0  0  0  0  0  0  0
   -2.9840   -1.8500   -0.3240 N   0  0  0  0  0  0  0  0  0  0  0  0
   -4.3020   -2.2830   -0.2430 O   0  0  0  0  0  0  0  0  0  0  0  0
   -4.5970   -1.9730    1.0960 C   0  0  0  0  0  0  0  0  0  0  0  0
   -3.9690   -0.6940    1.3250 N   0  0  0  0  0  0  0  0  0  0  0  0
   -4.2170    0.2150    2.2770 F   0  0  0  0  0  0  0  0  0  0  0  0
   -2.9680   -0.5640    0.2700 C   0  0  0  0  0  0  0  0  0  0  0  0
   -2.3520    0.5390    0.0180 C   0  0  0  0  0  0  0  0  0  0  0  0
   -2.5960    1.6500    0.8630 O   0  0  0  0  0  0  0  0  0  0  0  0
   -1.4040    0.7190   -1.1100 C   0  0  1  0  0  0  0  0  0  0  0  0
   -2.1390    0.6030   -2.4170 C   0  0  0  0  0  0  0  0  0  0  0  0
   -0.7760    2.0240   -1.0300 O   0  0  0  0  0  0  0  0  0  0  0  0
    0.4260    1.5120   -1.5040 C   0  0  1  0  0  0  0  0  0  0  0  0
    0.5650    1.6310   -3.0120 C   0  0  0  0  0  0  0  0  0  0  0  0
    1.5730    2.1190   -0.8570 C   0  0  0  0  0  0  0  0  0  0  0  0
    2.6920    1.8020   -1.1600 O   0  0  0  0  0  0  0  0  0  0  0  0
    1.3940    3.1400    0.1900 C   0  0  0  0  0  0  0  0  0  0  0  0
    2.7210    3.6440    0.7170 C   0  0  0  0  0  0  0  0  0  0  0  0
   -0.0380    0.1780   -0.9850 C   0  0  1  0  0  0  0  0  0  0  0  0
    0.5650   -0.3180    0.6640 P   0  0  0  0  0  0  0  0  0  0  0  0
    2.3480   -0.0760    0.7560 N   0  0  0  0  0  0  0  0  0  0  0  0
    3.1280   -1.1000    0.8840 C   0  0  0  0  0  0  0  0  0  0  0  0
    4.5960   -0.9110    0.9600 C   0  0  0  0  0  0  0  0  0  0  0  0
    2.5830   -2.4850    0.9600 C   0  0  0  0  0  0  0  0  0  0  0  0
   -0.2120    0.4150    1.9840 O   0  0  0  0  0  0  0  0  0  0  0  0
    0.4950    0.1240    3.1500 C   0  0  0  0  0  0  0  0  0  0  0  0
  1  2  2  0
  2  3  1  0
  2  4  1  0
  4  5  1  0
  4  9  1  0
  5  6  1  0
  6  7  1  0
  7  8  1  0
  7  9  1  0
  9 10  2  3
 10 11  1  0
 10 12  1  0
 12 13  1  6
 12 14  1  0
 12 21  1  0
 14 15  1  0
 15 16  1  6
 15 17  1  0
 15 21  1  0
 17 18  2  0
 17 19  1  0
 19 20  1  0
 21 22  1  1
 22 23  1  0
 22 27  1  0
 23 24  2  3
 24 25  1  0
 24 26  1  0
 27 28  1  0
M  END
