
     RDKit          3D

 27 28  0  0  0  0  0  0  0  0999 V2000
    1.0680    3.3460   -0.8040 C   0  0  0  0  0  0  0  0  0  0  0  0
    0.4550    2.5370   -1.6210 C   0  0  0  0  0  0  0  0  0  0  0  0
   -0.0750    1.2340   -1.0930 C   0  0  0  0  0  0  0  0  0  0  0  0
   -0.6720    0.4370   -1.8700 C   0  0  0  0  0  0  0  0  0  0  0  0
   -1.3100   -0.8950   -1.7530 C   0  0  0  0  0  0  0  0  0  0  0  0
   -1.8850   -1.2120   -2.9280 C   0  0  0  0  0  0  0  0  0  0  0  0
   -2.5850   -2.4140   -3.2550 C   0  0  0  0  0  0  0  0  0  0  0  0
   -2.7070   -3.3860   -2.4950 O   0  0  0  0  0  0  0  0  0  0  0  0
   -3.2350   -2.5780   -4.5800 C   0  0  0  0  0  0  0  0  0  0  0  0
   -3.1730   -1.6510   -5.4320 O   0  0  0  0  0  0  0  0  0  0  0  0
   -1.6940   -1.4640   -0.5040 C   0  0  0  0  0  0  0  0  0  0  0  0
   -1.1280   -1.5180    0.6600 C   0  0  0  0  0  0  0  0  0  0  0  0
    0.0870   -1.1050    1.2290 N   0  0  0  0  0  0  0  0  0  0  0  0
    0.2460   -0.8400    2.6090 C   0  0  0  0  0  0  0  0  0  0  0  0
   -0.5370   -1.1080    3.5210 O   0  0  0  0  0  0  0  0  0  0  0  0
    1.8630   -0.0070    2.8070 P   0  0  0  0  0  0  0  0  0  0  0  0
    1.7290    1.7230    3.3560 C   0  0  0  0  0  0  0  0  0  0  0  0
    3.1320    2.1960    3.7500 C   0  0  0  0  0  0  0  0  0  0  0  0
    4.0040    2.1190    2.6840 O   0  0  0  0  0  0  0  0  0  0  0  0
    2.3170   -0.1580    0.9770 C   0  0  0  0  0  0  0  0  0  0  0  0
    1.3650   -1.2080    0.5920 C   0  0  2  0  0  0  0  0  0  0  0  0
    1.2920   -1.5570   -0.7070 O   0  0  0  0  0  0  0  0  0  0  0  0
   -2.0940   -2.3060    1.4950 N   0  0  0  0  0  0  0  0  0  0  0  0
   -2.9460   -2.8180    0.6440 C   0  0  0  0  0  0  0  0  0  0  0  0
   -3.1180   -1.9210   -0.2910 C   0  0  0  0  0  0  0  0  0  0  0  0
   -4.6480   -1.3490   -1.0000 P   0  0  0  0  0  0  0  0  0  0  0  0
   -5.8510   -0.7810   -0.1780 O   0  0  0  0  0  0  0  0  0  0  0  0
  1  2  2  0
  2  3  1  0
  3  4  2  3
  4  5  1  0
  5  6  2  3
  5 11  1  0
  6  7  1  0
  7  8  2  0
  7  9  1  0
  9 10  2  0
 11 12  2  0
 11 25  1  0
 12 13  1  0
 12 23  1  0
 13 14  1  0
 13 21  1  0
 14 15  2  0
 14 16  1  0
 16 17  1  0
 16 20  1  0
 17 18  1  0
 18 19  1  0
 20 21  1  0
 21 22  1  6
 23 24  2  0
 24 25  2  0
 25 26  1  0
 26 27  2  0
M  END
