
     RDKit          3D

 28 29  0  0  0  0  0  0  0  0999 V2000
   -1.7540    1.6360    1.8990 C   0  0  0  0  0  0  0  0  0  0  0  0
   -2.4300    0.6500    1.3300 C   0  0  0  0  0  0  0  0  0  0  0  0
   -2.1340    0.1690    0.1080 O   0  0  0  0  0  0  0  0  0  0  0  0
   -0.9500   -0.1730   -0.4820 C   0  0  0  0  0  0  0  0  0  0  0  0
   -0.2910    0.7560   -1.2360 C   0  0  0  0  0  0  0  0  0  0  0  0
   -1.0190    1.9520   -1.2430 F   0  0  0  0  0  0  0  0  0  0  0  0
    0.8510    0.4660   -1.8270 O   0  0  0  0  0  0  0  0  0  0  0  0
    2.0950    0.8560   -2.1570 C   0  0  0  0  0  0  0  0  0  0  0  0
    2.5820    0.8140   -3.5190 O   0  0  0  0  0  0  0  0  0  0  0  0
    2.9670    2.0180   -4.1450 C   0  0  0  0  0  0  0  0  0  0  0  0
    1.8590    2.9260   -4.2020 N   0  0  0  0  0  0  0  0  0  0  0  0
    3.0440    1.3220   -1.3120 C   0  0  0  0  0  0  0  0  0  0  0  0
    2.8540    1.4570    0.0560 N   0  0  0  0  0  0  0  0  0  0  0  0
    2.4210    1.8960    1.3690 C   0  0  0  0  0  0  0  0  0  0  0  0
    3.3160    0.7250    1.1870 C   0  0  1  0  0  0  0  0  0  0  0  0
    2.7900   -0.5600    1.3360 N   0  0  0  0  0  0  0  0  0  0  0  0
    2.3700   -1.3790    2.1410 C   0  0  0  0  0  0  0  0  0  0  0  0
    1.9170   -2.6930    1.5910 C   0  0  0  0  0  0  0  0  0  0  0  0
    1.9050   -3.6960    2.3080 O   0  0  0  0  0  0  0  0  0  0  0  0
    1.4770   -2.8060    0.1740 C   0  0  0  0  0  0  0  0  0  0  0  0
    0.9300   -1.6030   -0.1820 O   0  0  0  0  0  0  0  0  0  0  0  0
   -0.4340   -1.5500   -0.2720 C   0  0  1  0  0  0  0  0  0  0  0  0
   -1.0090   -2.0380    1.0670 C   0  0  0  0  0  0  0  0  0  0  0  0
   -0.9060   -2.4600   -1.2110 O   0  0  0  0  0  0  0  0  0  0  0  0
   -0.4400   -2.2700   -2.4880 C   0  0  0  0  0  0  0  0  0  0  0  0
   -3.8530   -0.1290    2.2200 P   0  0  0  0  0  0  0  0  0  0  0  0
   -5.3470   -0.2300    1.1350 C   0  0  0  0  0  0  0  0  0  0  0  0
   -4.2160    0.8670    3.7670 C   0  0  0  0  0  0  0  0  0  0  0  0
  1  2  2  0
  2  3  1  0
  2 26  1  0
  3  4  1  0
  4  5  2  0
  4 22  1  0
  5  6  1  0
  5  7  1  0
  7  8  1  0
  8  9  1  0
  8 12  2  0
  9 10  1  0
 10 11  1  0
 12 13  1  0
 13 14  1  0
 13 15  1  0
 15 14  1  1
 15 16  1  0
 16 17  2  0
 17 18  1  0
 18 19  2  0
 18 20  1  0
 20 21  1  0
 21 22  1  0
 22 23  1  1
 22 24  1  0
 24 25  1  0
 26 27  1  0
 26 28  1  0
M  END
