
     RDKit          3D

 28 29  0  0  0  0  0  0  0  0999 V2000
   -2.7290   -1.7810   -1.9630 C   0  0  0  0  0  0  0  0  0  0  0  0
   -2.6000   -2.3730   -0.6750 O   0  0  0  0  0  0  0  0  0  0  0  0
   -2.8270   -1.6400    0.4780 C   0  0  0  0  0  0  0  0  0  0  0  0
   -1.9330   -0.7480    1.0080 O   0  0  0  0  0  0  0  0  0  0  0  0
   -1.4960    0.3890    0.2580 C   0  0  0  0  0  0  0  0  0  0  0  0
   -2.5170    1.2490   -0.1950 C   0  0  0  0  0  0  0  0  0  0  0  0
   -2.3570    2.2820   -0.9020 N   0  0  0  0  0  0  0  0  0  0  0  0
   -3.3880    3.1390   -1.3520 C   0  0  0  0  0  0  0  0  0  0  0  0
   -3.3270    4.5310   -1.0860 N   0  0  0  0  0  0  0  0  0  0  0  0
   -4.3480    2.6480   -1.9840 O   0  0  0  0  0  0  0  0  0  0  0  0
   -0.2080    0.4930    0.0740 C   0  0  0  0  0  0  0  0  0  0  0  0
    0.5860   -0.5910    0.6580 C   0  0  0  0  0  0  0  0  0  0  0  0
    1.8490   -0.7830    0.7480 C   0  0  0  0  0  0  0  0  0  0  0  0
    2.5040   -1.9710    1.3780 C   0  0  0  0  0  0  0  0  0  0  0  0
    3.8030   -1.8660    1.3290 C   0  0  0  0  0  0  0  0  0  0  0  0
    5.2720   -2.0170    1.4130 C   0  0  0  0  0  0  0  0  0  0  0  0
    5.3010   -1.2720   -0.3290 P   0  0  0  0  0  0  0  0  0  0  0  0
    6.8520   -0.2590   -0.6010 C   0  0  0  0  0  0  0  0  0  0  0  0
    4.0980   -0.4690    0.8180 C   0  0  1  0  0  0  0  0  0  0  0  0
    2.9030    0.0020    0.3320 O   0  0  0  0  0  0  0  0  0  0  0  0
    0.4190    1.6280   -0.4410 N   0  0  0  0  0  0  0  0  0  0  0  0
    0.1440    3.0080    0.0200 C   0  0  0  0  0  0  0  0  0  0  0  0
    1.5050    1.5590   -1.3890 C   0  0  0  0  0  0  0  0  0  0  0  0
    2.1620    2.5590   -1.7030 O   0  0  0  0  0  0  0  0  0  0  0  0
    1.8370    0.3830   -1.9910 F   0  0  0  0  0  0  0  0  0  0  0  0
   -3.9830   -1.8240    1.0950 C   0  0  0  0  0  0  0  0  0  0  0  0
   -5.0210   -2.7750    0.5940 C   0  0  0  0  0  0  0  0  0  0  0  0
   -4.3040   -1.1290    2.2690 O   0  0  0  0  0  0  0  0  0  0  0  0
  1  2  1  0
  2  3  1  0
  3  4  1  0
  3 26  2  3
  4  5  1  0
  5  6  1  0
  5 11  2  3
  6  7  2  3
  7  8  1  0
  8  9  1  0
  8 10  2  0
 11 12  1  0
 11 21  1  0
 12 13  2  3
 13 14  1  0
 13 20  1  0
 14 15  2  0
 15 16  1  0
 15 19  1  0
 16 17  1  0
 17 18  1  0
 17 19  1  0
 19 20  1  6
 21 22  1  0
 21 23  1  0
 23 24  2  0
 23 25  1  0
 26 27  1  0
 26 28  1  0
M  END
