
     RDKit          3D

 28 29  0  0  0  0  0  0  0  0999 V2000
    6.1660   -1.6360    1.0870 C   0  0  0  0  0  0  0  0  0  0  0  0
    6.0670   -1.3150   -0.1880 C   0  0  0  0  0  0  0  0  0  0  0  0
    6.9000   -1.4750   -1.4190 C   0  0  0  0  0  0  0  0  0  0  0  0
    6.1600   -0.2740   -1.9680 C   0  0  0  0  0  0  0  0  0  0  0  0
    5.0820   -0.6400   -1.0220 C   0  0  0  0  0  0  0  0  0  0  0  0
    3.8180   -0.4600   -0.9380 N   0  0  0  0  0  0  0  0  0  0  0  0
    3.0920   -0.9510    0.1100 O   0  0  0  0  0  0  0  0  0  0  0  0
    2.4170    0.2160    1.2480 P   0  0  0  0  0  0  0  0  0  0  0  0
    3.5620    0.5580    2.5070 O   0  0  0  0  0  0  0  0  0  0  0  0
    1.8380    1.7280    0.3950 C   0  0  1  0  0  0  0  0  0  0  0  0
    1.5710    1.4830   -1.0240 O   0  0  0  0  0  0  0  0  0  0  0  0
    0.4160    0.6670   -1.0430 C   0  0  0  0  0  0  0  0  0  0  0  0
    0.1950   -0.1480   -2.0920 F   0  0  0  0  0  0  0  0  0  0  0  0
   -0.3170    0.8570    0.0670 C   0  0  0  0  0  0  0  0  0  0  0  0
   -1.5310    0.2270    0.4270 N   0  0  0  0  0  0  0  0  0  0  0  0
   -2.1510   -0.6200   -0.5530 C   0  0  0  0  0  0  0  0  0  0  0  0
   -3.0620    0.1240   -1.2920 O   0  0  0  0  0  0  0  0  0  0  0  0
   -3.8420   -0.3470   -2.3150 C   0  0  0  0  0  0  0  0  0  0  0  0
   -4.8500    0.5540   -2.9240 C   0  0  0  0  0  0  0  0  0  0  0  0
   -3.6750   -1.5570   -2.7170 N   0  0  0  0  0  0  0  0  0  0  0  0
   -2.0790    0.3740    1.7050 C   0  0  0  0  0  0  0  0  0  0  0  0
   -1.3210    0.9210    2.6260 O   0  0  0  0  0  0  0  0  0  0  0  0
   -3.3800    0.0050    2.1590 C   0  0  0  0  0  0  0  0  0  0  0  0
   -4.4360   -0.5130    1.6240 C   0  0  0  0  0  0  0  0  0  0  0  0
   -5.6760   -0.7620    2.4940 C   0  0  0  0  0  0  0  0  0  0  0  0
   -6.7510   -0.0570    2.0100 O   0  0  0  0  0  0  0  0  0  0  0  0
    0.3730    1.9780    0.7290 C   0  0  0  0  0  0  0  0  0  0  0  0
   -0.0870    2.9700    1.3910 C   0  0  0  0  0  0  0  0  0  0  0  0
  1  2  2  0
  2  3  1  0
  2  5  1  0
  3  4  1  0
  4  5  1  0
  5  6  2  3
  6  7  1  0
  7  8  1  0
  8  9  1  0
 10  8  1  1
 10 11  1  0
 10 27  1  0
 11 12  1  0
 12 13  1  0
 12 14  2  0
 14 15  1  0
 14 27  1  0
 15 16  1  0
 15 21  1  0
 16 17  1  0
 17 18  1  0
 18 19  1  0
 18 20  2  0
 21 22  2  0
 21 23  1  0
 23 24  2  3
 24 25  1  0
 25 26  1  0
 27 28  2  0
M  END
