
     RDKit          3D

 28 29  0  0  0  0  0  0  0  0999 V2000
    0.6030   -4.5270    0.8800 C   0  0  0  0  0  0  0  0  0  0  0  0
    0.5400   -3.0900    0.8570 N   0  0  0  0  0  0  0  0  0  0  0  0
    1.2610   -2.3280    0.1250 C   0  0  0  0  0  0  0  0  0  0  0  0
    2.2480   -2.9340   -0.7800 C   0  0  0  0  0  0  0  0  0  0  0  0
    2.9860   -2.2490   -1.5230 O   0  0  0  0  0  0  0  0  0  0  0  0
    1.1290   -0.8770    0.1700 C   0  0  0  0  0  0  0  0  0  0  0  0
    1.8010   -0.0250   -0.5210 N   0  0  0  0  0  0  0  0  0  0  0  0
    1.3690    1.2940   -0.1810 C   0  0  0  0  0  0  0  0  0  0  0  0
    1.7920    2.4470   -0.6630 C   0  0  0  0  0  0  0  0  0  0  0  0
    1.1950    3.7130   -0.1590 C   0  0  0  0  0  0  0  0  0  0  0  0
    2.8390    2.5700   -1.6950 C   0  0  2  0  0  0  0  0  0  0  0  0
    4.0140    3.3890   -1.1860 C   0  0  0  0  0  0  0  0  0  0  0  0
    2.2360    3.3180   -2.8570 C   0  0  0  0  0  0  0  0  0  0  0  0
    3.4010    1.2290   -2.1070 C   0  0  0  0  0  0  0  0  0  0  0  0
    0.3300    1.1080    0.8230 C   0  0  0  0  0  0  0  0  0  0  0  0
   -0.3480    2.1180    1.4200 F   0  0  0  0  0  0  0  0  0  0  0  0
    0.1840   -0.1800    1.0350 C   0  0  0  0  0  0  0  0  0  0  0  0
   -0.7130   -0.7680    1.9250 O   0  0  0  0  0  0  0  0  0  0  0  0
   -1.7220   -0.0030    2.5690 C   0  0  0  0  0  0  0  0  0  0  0  0
   -2.5400   -0.7920    3.4300 N   0  0  0  0  0  0  0  0  0  0  0  0
   -3.6810   -1.3070    3.1580 C   0  0  0  0  0  0  0  0  0  0  0  0
   -4.2370   -2.0390    4.2360 O   0  0  0  0  0  0  0  0  0  0  0  0
   -4.5790   -1.1710    1.5900 P   0  0  0  0  0  0  0  0  0  0  0  0
   -3.7200   -0.4000    0.3330 O   0  0  0  0  0  0  0  0  0  0  0  0
   -4.2180   -0.6850   -0.9340 C   0  0  0  0  0  0  0  0  0  0  0  0
   -5.1730   -1.7010   -0.8980 O   0  0  0  0  0  0  0  0  0  0  0  0
   -4.6910   -2.8500   -0.2990 C   0  0  0  0  0  0  0  0  0  0  0  0
   -4.9920   -2.7820    1.0600 O   0  0  0  0  0  0  0  0  0  0  0  0
  1  2  1  0
  2  3  2  3
  3  4  1  0
  3  6  1  0
  4  5  2  0
  6  7  2  0
  6 17  1  0
  7  8  1  0
  8  9  2  3
  8 15  1  0
  9 10  1  0
  9 11  1  0
 11 12  1  1
 11 13  1  0
 11 14  1  0
 15 16  1  0
 15 17  2  0
 17 18  1  0
 18 19  1  0
 19 20  1  0
 20 21  2  3
 21 22  1  0
 21 23  1  0
 23 24  1  0
 23 28  1  0
 24 25  1  0
 25 26  1  0
 26 27  1  0
 27 28  1  0
M  END
