
     RDKit          3D

 27 29  0  0  0  0  0  0  0  0999 V2000
   -4.6260   -2.8900   -1.6000 C   0  0  0  0  0  0  0  0  0  0  0  0
   -4.4150   -1.8410   -0.6620 O   0  0  0  0  0  0  0  0  0  0  0  0
   -3.3660   -0.9350   -0.7610 C   0  0  0  0  0  0  0  0  0  0  0  0
   -2.5860   -1.0590   -1.7160 O   0  0  0  0  0  0  0  0  0  0  0  0
   -3.1830    0.1260    0.2200 C   0  0  0  0  0  0  0  0  0  0  0  0
   -4.1050    0.2100    1.2740 C   0  0  0  0  0  0  0  0  0  0  0  0
   -5.1150   -0.7400    1.3280 O   0  0  0  0  0  0  0  0  0  0  0  0
   -4.0590    1.1760    2.2480 C   0  0  0  0  0  0  0  0  0  0  0  0
   -3.0320    2.1240    2.1750 C   0  0  0  0  0  0  0  0  0  0  0  0
   -2.9840    3.1000    3.1560 O   0  0  0  0  0  0  0  0  0  0  0  0
   -2.1280    2.0370    1.1380 C   0  0  0  0  0  0  0  0  0  0  0  0
   -0.8560    3.2690    1.1070 Cl  0  0  0  0  0  0  0  0  0  0  0  0
   -2.1830    1.0540    0.1560 C   0  0  0  0  0  0  0  0  0  0  0  0
   -1.1330    1.0360   -0.8630 C   0  0  0  0  0  0  0  0  0  0  0  0
    0.0100    0.0970   -0.5790 C   0  0  0  0  0  0  0  0  0  0  0  0
    0.9740    0.1970   -1.7280 C   0  0  0  0  0  0  0  0  0  0  0  0
    0.7960    1.0240   -2.7680 N   0  0  0  0  0  0  0  0  0  0  0  0
    1.8030    0.8950   -3.6450 C   0  0  0  0  0  0  0  0  0  0  0  0
    2.6250   -0.0620   -3.0950 C   0  0  0  0  0  0  0  0  0  0  0  0
    2.0970   -0.4730   -1.9250 N   0  0  0  0  0  0  0  0  0  0  0  0
    2.6590   -1.4680   -1.0440 C   0  0  0  0  0  0  0  0  0  0  0  0
    3.5770   -0.8060   -0.0940 C   0  0  0  0  0  0  0  0  0  0  0  0
    3.2100   -0.4610    1.1850 C   0  0  0  0  0  0  0  0  0  0  0  0
    4.1010    0.1700    2.0530 C   0  0  0  0  0  0  0  0  0  0  0  0
    5.3800    0.4640    1.6400 C   0  0  0  0  0  0  0  0  0  0  0  0
    5.7540    0.1220    0.3620 C   0  0  0  0  0  0  0  0  0  0  0  0
    4.8640   -0.5000   -0.4800 C   0  0  0  0  0  0  0  0  0  0  0  0
  1  2  1  0
  2  3  1  0
  3  4  2  0
  3  5  1  0
  5  6  2  0
  5 13  1  0
  6  7  1  0
  6  8  1  0
  8  9  2  0
  9 10  1  0
  9 11  1  0
 11 12  1  0
 11 13  2  0
 13 14  1  0
 14 15  1  0
 15 16  1  0
 16 17  2  0
 16 20  1  0
 17 18  1  0
 18 19  2  0
 19 20  1  0
 20 21  1  0
 21 22  1  0
 22 23  2  0
 22 27  1  0
 23 24  1  0
 24 25  2  0
 25 26  1  0
 26 27  2  0
M  END
