
     RDKit          3D

 18 20  0  0  0  0  0  0  0  0999 V2000
    3.3250    0.6930   -2.8610 C   0  0  0  0  0  0  0  0  0  0  0  0
    2.4730    0.4510   -1.8960 C   0  0  0  0  0  0  0  0  0  0  0  0
    2.4200    1.4270   -0.7660 C   0  0  0  0  0  0  0  0  0  0  0  0
    1.0890    1.4540   -0.1750 N   0  0  0  0  0  0  0  0  0  0  0  0
    0.2490    0.3400   -0.1820 N   0  0  0  0  0  0  0  0  0  0  0  0
    0.4640   -0.7180   -1.0010 C   0  0  0  0  0  0  0  0  0  0  0  0
   -0.3470   -1.7790   -1.0020 N   0  0  0  0  0  0  0  0  0  0  0  0
   -1.4140   -1.8670   -0.2020 C   0  0  0  0  0  0  0  0  0  0  0  0
   -2.1770   -2.8910   -0.2190 O   0  0  0  0  0  0  0  0  0  0  0  0
   -1.6710   -0.8150    0.6470 C   0  0  0  0  0  0  0  0  0  0  0  0
   -0.8290    0.2750    0.6400 C   0  0  0  0  0  0  0  0  0  0  0  0
   -1.1490    1.3290    1.5440 N   0  0  0  0  0  0  0  0  0  0  0  0
   -2.2980    1.2240    2.4020 C   0  0  0  0  0  0  0  0  0  0  0  0
   -2.8590    2.2700    2.7590 O   0  0  0  0  0  0  0  0  0  0  0  0
   -2.7210   -0.1500    2.7920 C   0  0  0  0  0  0  0  0  0  0  0  0
   -2.8650   -0.9530    1.5170 C   0  0  0  0  0  0  0  0  0  0  0  0
    1.6080   -0.7160   -1.9160 C   0  0  0  0  0  0  0  0  0  0  0  0
    1.8500   -1.7230   -2.7180 C   0  0  0  0  0  0  0  0  0  0  0  0
  1  2  2  0
  2  3  1  0
  2 17  1  0
  3  4  1  0
  4  5  1  0
  5  6  1  0
  5 11  1  0
  6  7  2  0
  6 17  1  0
  7  8  1  0
  8  9  2  0
  8 10  1  0
 10 11  2  0
 10 16  1  0
 11 12  1  0
 12 13  1  0
 13 14  2  0
 13 15  1  0
 15 16  1  0
 17 18  2  0
M  END
