
     RDKit          3D

 18 20  0  0  0  0  0  0  0  0999 V2000
   -5.2600   -0.6450   -0.6710 C   0  0  0  0  0  0  0  0  0  0  0  0
   -3.8170   -0.5410   -0.5380 N   0  0  0  0  0  0  0  0  0  0  0  0
   -2.8940   -1.1680   -1.2460 N   0  0  0  0  0  0  0  0  0  0  0  0
   -1.6630   -0.8130   -0.8280 C   0  0  0  0  0  0  0  0  0  0  0  0
   -1.8060    0.1040    0.2200 C   0  0  0  0  0  0  0  0  0  0  0  0
   -3.1800    0.2420    0.3650 C   0  0  0  0  0  0  0  0  0  0  0  0
   -3.7730    1.0870    1.3260 N   0  0  0  0  0  0  0  0  0  0  0  0
   -0.4850    0.5000    0.6860 C   0  0  0  0  0  0  0  0  0  0  0  0
   -0.2380    1.3070    1.6120 O   0  0  0  0  0  0  0  0  0  0  0  0
    0.4820   -0.1830   -0.0870 N   0  0  0  0  0  0  0  0  0  0  0  0
    1.9000   -0.0820    0.0430 C   0  0  0  0  0  0  0  0  0  0  0  0
    2.4560    1.0790   -0.1240 C   0  0  0  0  0  0  0  0  0  0  0  0
    3.8800    1.3230   -0.0210 C   0  0  0  0  0  0  0  0  0  0  0  0
    4.7020    0.1410    0.3070 C   0  0  0  0  0  0  0  0  0  0  0  0
    3.9970   -1.1190    0.4760 C   0  0  0  0  0  0  0  0  0  0  0  0
    2.7080   -1.2520    0.3610 C   0  0  0  0  0  0  0  0  0  0  0  0
   -0.2190   -0.9970   -1.0240 C   0  0  0  0  0  0  0  0  0  0  0  0
    0.3020   -1.7520   -1.8840 O   0  0  0  0  0  0  0  0  0  0  0  0
  1  2  1  0
  2  3  1  0
  2  6  1  0
  3  4  2  0
  4  5  1  0
  4 17  1  0
  5  6  2  0
  5  8  1  0
  6  7  1  0
  8  9  2  0
  8 10  1  0
 10 11  1  0
 10 17  1  0
 11 12  2  0
 11 16  1  0
 12 13  1  0
 13 14  1  0
 14 15  1  0
 15 16  2  0
 17 18  2  0
M  END
