
     RDKit          3D

 18 20  0  0  0  0  0  0  0  0999 V2000
   -4.2320   -0.5070    0.1680 C   0  0  0  0  0  0  0  0  0  0  0  0
   -2.7450   -0.3600    0.1440 C   0  0  0  0  0  0  0  0  0  0  0  0
   -1.9180   -1.4230    0.4260 C   0  0  0  0  0  0  0  0  0  0  0  0
   -0.5270   -1.2920    0.4050 C   0  0  0  0  0  0  0  0  0  0  0  0
    0.2990   -2.3730    0.6920 O   0  0  0  0  0  0  0  0  0  0  0  0
    0.0590   -0.0880    0.1000 C   0  0  0  0  0  0  0  0  0  0  0  0
    1.5050    0.0610    0.0750 N   0  0  0  0  0  0  0  0  0  0  0  0
    2.4350   -0.7860   -0.6080 C   0  0  0  0  0  0  0  0  0  0  0  0
    3.7670   -0.2240   -0.3360 C   0  0  0  0  0  0  0  0  0  0  0  0
    5.1060   -0.4080   -0.5910 N   0  0  0  0  0  0  0  0  0  0  0  0
    5.7430    0.5620    0.0350 N   0  0  0  0  0  0  0  0  0  0  0  0
    4.9060    1.3470    0.6680 N   0  0  0  0  0  0  0  0  0  0  0  0
    3.6400    0.8780    0.4550 C   0  0  0  0  0  0  0  0  0  0  0  0
    2.2370    1.0800    0.7280 C   0  0  0  0  0  0  0  0  0  0  0  0
    1.7100    1.9870    1.4170 O   0  0  0  0  0  0  0  0  0  0  0  0
   -0.7660    0.9780   -0.1830 C   0  0  0  0  0  0  0  0  0  0  0  0
   -2.1440    0.8390   -0.1600 C   0  0  0  0  0  0  0  0  0  0  0  0
   -3.0030    2.0110   -0.4670 C   0  0  0  0  0  0  0  0  0  0  0  0
  1  2  1  0
  2  3  2  0
  2 17  1  0
  3  4  1  0
  4  5  1  0
  4  6  2  0
  6  7  1  0
  6 16  1  0
  7  8  1  0
  7 14  1  0
  8  9  1  0
  9 10  1  0
  9 13  2  0
 10 11  1  0
 11 12  2  0
 12 13  1  0
 13 14  1  0
 14 15  2  0
 16 17  2  0
 17 18  1  0
M  END
