
     RDKit          3D

 18 20  0  0  0  0  0  0  0  0999 V2000
    0.4310   -1.9480   -0.0710 C   0  0  0  0  0  0  0  0  0  0  0  0
    0.8190   -0.5410   -0.0530 N   0  0  0  0  0  0  0  0  0  0  0  0
   -0.0280    0.4870   -0.1290 C   0  0  0  0  0  0  0  0  0  0  0  0
   -1.4920    0.3580   -0.2460 C   0  0  0  0  0  0  0  0  0  0  0  0
   -2.3040    0.3050    0.8620 C   0  0  0  0  0  0  0  0  0  0  0  0
   -1.7140    0.3760    2.1040 O   0  0  0  0  0  0  0  0  0  0  0  0
   -3.6570    0.1860    0.7530 N   0  0  0  0  0  0  0  0  0  0  0  0
   -4.2640    0.1150   -0.4550 C   0  0  0  0  0  0  0  0  0  0  0  0
   -3.4740    0.1650   -1.5960 C   0  0  0  0  0  0  0  0  0  0  0  0
   -2.0980    0.2870   -1.4820 C   0  0  0  0  0  0  0  0  0  0  0  0
   -1.4360    0.3270   -2.5500 O   0  0  0  0  0  0  0  0  0  0  0  0
    0.6930    1.6210   -0.0810 N   0  0  0  0  0  0  0  0  0  0  0  0
    1.9920    1.3090    0.0250 C   0  0  0  0  0  0  0  0  0  0  0  0
    3.1110    2.0890    0.1080 N   0  0  0  0  0  0  0  0  0  0  0  0
    4.2970    1.4790    0.2090 C   0  0  0  0  0  0  0  0  0  0  0  0
    4.4350    0.1100    0.2320 C   0  0  0  0  0  0  0  0  0  0  0  0
    3.3180   -0.6950    0.1490 C   0  0  0  0  0  0  0  0  0  0  0  0
    2.0720   -0.0680    0.0440 C   0  0  0  0  0  0  0  0  0  0  0  0
  1  2  1  0
  2  3  1  0
  2 18  1  0
  3  4  1  0
  3 12  2  0
  4  5  2  0
  4 10  1  0
  5  6  1  0
  5  7  1  0
  7  8  1  0
  8  9  2  0
  9 10  1  0
 10 11  2  0
 12 13  1  0
 13 14  2  0
 13 18  1  0
 14 15  1  0
 15 16  2  0
 16 17  1  0
 17 18  2  0
M  END
