
     RDKit          3D

 18 20  0  0  0  0  0  0  0  0999 V2000
    4.1170   -0.1250    0.4740 C   0  0  0  0  0  0  0  0  0  0  0  0
    3.4250   -0.7610   -0.6430 C   0  0  0  0  0  0  0  0  0  0  0  0
    2.1150   -0.7310   -0.8090 C   0  0  0  0  0  0  0  0  0  0  0  0
    1.5470   -1.3380   -1.8590 N   0  0  0  0  0  0  0  0  0  0  0  0
    0.2250   -1.3430   -2.0850 C   0  0  0  0  0  0  0  0  0  0  0  0
   -0.2910   -1.9260   -3.0880 O   0  0  0  0  0  0  0  0  0  0  0  0
   -0.6310   -0.7130   -1.2300 C   0  0  0  0  0  0  0  0  0  0  0  0
   -1.9930   -0.6790   -1.3990 C   0  0  0  0  0  0  0  0  0  0  0  0
   -2.7600   -0.0120   -0.4710 C   0  0  0  0  0  0  0  0  0  0  0  0
   -4.1450   -0.0050   -0.6860 O   0  0  0  0  0  0  0  0  0  0  0  0
   -5.0490    0.6380    0.1810 C   0  0  0  0  0  0  0  0  0  0  0  0
   -2.2060    0.6000    0.5850 N   0  0  0  0  0  0  0  0  0  0  0  0
   -0.8810    0.5860    0.7800 C   0  0  0  0  0  0  0  0  0  0  0  0
   -0.0730   -0.0720   -0.1270 C   0  0  0  0  0  0  0  0  0  0  0  0
    1.2800   -0.0800    0.0820 C   0  0  0  0  0  0  0  0  0  0  0  0
    1.7800    0.5060    1.0880 N   0  0  0  0  0  0  0  0  0  0  0  0
    1.0960    1.2270    2.1150 C   0  0  0  0  0  0  0  0  0  0  0  0
   -0.3230    1.2520    1.9230 N   0  0  0  0  0  0  0  0  0  0  0  0
  1  2  1  0
  2  3  2  3
  3  4  1  0
  3 15  1  0
  4  5  1  0
  5  6  2  0
  5  7  1  0
  7  8  2  0
  7 14  1  0
  8  9  1  0
  9 10  1  0
  9 12  2  0
 10 11  1  0
 12 13  1  0
 13 14  2  0
 13 18  1  0
 14 15  1  0
 15 16  2  0
 16 17  1  0
 17 18  1  0
M  END
