
     RDKit          3D

 18 20  0  0  0  0  0  0  0  0999 V2000
    5.5660   -1.2210   -1.5080 O   0  0  0  0  0  0  0  0  0  0  0  0
    4.4070   -0.9030   -1.1280 C   0  0  0  0  0  0  0  0  0  0  0  0
    3.3370   -1.6030   -1.6300 C   0  0  0  0  0  0  0  0  0  0  0  0
    2.0770   -1.2820   -1.2380 N   0  0  0  0  0  0  0  0  0  0  0  0
    1.8590   -0.3030   -0.3760 N   0  0  0  0  0  0  0  0  0  0  0  0
    0.5940   -0.0110   -0.0080 C   0  0  0  0  0  0  0  0  0  0  0  0
    0.2620    0.9850    0.8790 C   0  0  0  0  0  0  0  0  0  0  0  0
   -1.0420    1.3050    1.2710 N   0  0  0  0  0  0  0  0  0  0  0  0
   -2.2830    0.7340    0.9090 C   0  0  2  0  0  0  0  0  0  0  0  0
   -2.3330   -0.7240    1.3030 C   0  0  0  0  0  0  0  0  0  0  0  0
   -2.8610   -1.5090    0.1410 C   0  0  0  0  0  0  0  0  0  0  0  0
   -3.4640   -0.4880   -0.7590 C   0  0  0  0  0  0  0  0  0  0  0  0
   -2.6290    0.7340   -0.5510 C   0  0  0  0  0  0  0  0  0  0  0  0
    1.3290    1.7100    1.4030 C   0  0  0  0  0  0  0  0  0  0  0  0
    1.1450    2.6590    2.2360 O   0  0  0  0  0  0  0  0  0  0  0  0
    2.6070    1.3900    1.0100 C   0  0  0  0  0  0  0  0  0  0  0  0
    2.8980    0.3830    0.1170 C   0  0  0  0  0  0  0  0  0  0  0  0
    4.1800    0.0900   -0.2530 N   0  0  0  0  0  0  0  0  0  0  0  0
  1  2  2  0
  2  3  1  0
  2 18  1  0
  3  4  2  0
  4  5  1  0
  5  6  1  0
  5 17  1  0
  6  7  2  0
  7  8  1  0
  7 14  1  0
  9  8  1  6
  9 10  1  0
  9 13  1  0
 10 11  1  0
 11 12  1  0
 12 13  1  0
 14 15  2  0
 14 16  1  0
 16 17  2  0
 17 18  1  0
M  END
