
     RDKit          3D

 18 20  0  0  0  0  0  0  0  0999 V2000
   -0.3730    1.2490    0.8660 O   0  0  0  0  0  0  0  0  0  0  0  0
   -1.3500    0.6350    0.3640 C   0  0  0  0  0  0  0  0  0  0  0  0
   -2.7040    1.1890    0.6430 C   0  0  0  0  0  0  0  0  0  0  0  0
   -3.7920    0.3030    0.0800 C   0  0  0  0  0  0  0  0  0  0  0  0
   -3.3750   -0.0420   -1.3370 C   0  0  0  0  0  0  0  0  0  0  0  0
   -2.2870   -1.1110   -1.2040 C   0  0  0  0  0  0  0  0  0  0  0  0
   -1.1400   -0.5600   -0.4470 C   0  0  0  0  0  0  0  0  0  0  0  0
    0.0290   -1.1580   -0.5260 C   0  0  0  0  0  0  0  0  0  0  0  0
    1.1850   -0.7010    0.1640 N   0  0  0  0  0  0  0  0  0  0  0  0
    1.2710   -0.8810    1.4910 C   0  0  0  0  0  0  0  0  0  0  0  0
    2.3680   -0.4490    2.1530 N   0  0  0  0  0  0  0  0  0  0  0  0
    3.3680    0.1590    1.4850 C   0  0  0  0  0  0  0  0  0  0  0  0
    4.5590    0.6840    1.8690 N   0  0  0  0  0  0  0  0  0  0  0  0
    5.2010    1.1820    0.8010 C   0  0  0  0  0  0  0  0  0  0  0  0
    4.4140    0.9750   -0.2880 N   0  0  0  0  0  0  0  0  0  0  0  0
    3.3010    0.3540    0.1230 C   0  0  0  0  0  0  0  0  0  0  0  0
    2.1590   -0.1000   -0.5400 C   0  0  0  0  0  0  0  0  0  0  0  0
    2.0860    0.0730   -1.7880 O   0  0  0  0  0  0  0  0  0  0  0  0
  1  2  2  0
  2  3  1  0
  2  7  1  0
  3  4  1  0
  4  5  1  0
  5  6  1  0
  6  7  1  0
  7  8  2  3
  8  9  1  0
  9 10  1  0
  9 17  1  0
 10 11  2  0
 11 12  1  0
 12 13  1  0
 12 16  2  0
 13 14  2  0
 14 15  1  0
 15 16  1  0
 16 17  1  0
 17 18  2  0
M  END
