
     RDKit          3D

 18 19  0  0  0  0  0  0  0  0999 V2000
   -1.4200    2.6350   -1.0240 C   0  0  0  0  0  0  0  0  0  0  0  0
   -2.2910    1.5090   -0.6990 C   0  0  0  0  0  0  0  0  0  0  0  0
   -2.0820    0.2950   -0.3440 C   0  0  0  0  0  0  0  0  0  0  0  0
   -3.3240   -0.5200   -0.1030 C   0  0  0  0  0  0  0  0  0  0  0  0
   -3.3640   -1.6920    0.5090 C   0  0  0  0  0  0  0  0  0  0  0  0
   -2.2650   -2.4520    1.0770 C   0  0  0  0  0  0  0  0  0  0  0  0
   -1.0000   -2.1630    1.2000 C   0  0  0  0  0  0  0  0  0  0  0  0
   -0.2020   -0.9940    0.8280 C   0  0  0  0  0  0  0  0  0  0  0  0
   -0.7380   -0.1770   -0.2440 N   0  0  0  0  0  0  0  0  0  0  0  0
    0.1690    0.0790   -1.3110 C   0  0  0  0  0  0  0  0  0  0  0  0
    1.3720    0.8890   -1.1760 C   0  0  0  0  0  0  0  0  0  0  0  0
    2.3420    0.4380   -0.1930 N   0  0  0  0  0  0  0  0  0  0  0  0
    3.2980   -0.4580   -0.3920 N   0  0  0  0  0  0  0  0  0  0  0  0
    4.0100   -0.6300    0.7320 C   0  0  0  0  0  0  0  0  0  0  0  0
    4.9890   -1.3920    0.9300 O   0  0  0  0  0  0  0  0  0  0  0  0
    3.4840    0.1840    1.6650 N   0  0  0  0  0  0  0  0  0  0  0  0
    2.4670    0.8310    1.0890 C   0  0  0  0  0  0  0  0  0  0  0  0
    1.7580    1.6720    1.6850 O   0  0  0  0  0  0  0  0  0  0  0  0
  1  2  1  0
  2  3  2  3
  3  4  1  0
  3  9  1  0
  4  5  2  0
  5  6  1  0
  6  7  2  0
  7  8  1  0
  8  9  1  0
  9 10  1  0
 10 11  1  0
 11 12  1  0
 12 13  1  0
 12 17  1  0
 13 14  1  0
 14 15  2  0
 14 16  1  0
 16 17  1  0
 17 18  2  0
M  END
