
     RDKit          3D

 17 17  0  0  0  0  0  0  0  0999 V2000
    5.2060    1.3380   -0.9260 C   0  0  0  0  0  0  0  0  0  0  0  0
    3.9980    1.0540   -0.0980 C   0  0  0  0  0  0  0  0  0  0  0  0
    2.7480    0.8190   -0.9450 C   0  0  0  0  0  0  0  0  0  0  0  0
    1.7030    0.5670   -0.0700 O   0  0  0  0  0  0  0  0  0  0  0  0
    0.3820    0.2990   -0.4350 C   0  0  0  0  0  0  0  0  0  0  0  0
    0.0300    0.2680   -1.7450 C   0  0  0  0  0  0  0  0  0  0  0  0
   -1.2930    0.0000   -2.1200 C   0  0  0  0  0  0  0  0  0  0  0  0
   -1.6350   -0.0260   -3.5460 C   0  0  0  0  0  0  0  0  0  0  0  0
   -2.2260   -0.2290   -1.1400 C   0  0  0  0  0  0  0  0  0  0  0  0
   -3.5290   -0.4920   -1.5340 O   0  0  0  0  0  0  0  0  0  0  0  0
   -1.8600   -0.1970    0.2050 C   0  0  0  0  0  0  0  0  0  0  0  0
   -2.9470   -0.4600    1.1570 C   0  0  0  0  0  0  0  0  0  0  0  0
   -3.8500    0.7700    1.3330 C   0  0  0  0  0  0  0  0  0  0  0  0
   -0.5520    0.0700    0.5540 C   0  0  0  0  0  0  0  0  0  0  0  0
   -0.1660    0.1130    1.9600 C   0  0  0  0  0  0  0  0  0  0  0  0
    0.5560   -1.0850    2.4830 C   0  0  0  0  0  0  0  0  0  0  0  0
   -0.2260   -2.3680    2.3850 C   0  0  0  0  0  0  0  0  0  0  0  0
  1  2  1  0
  2  3  1  0
  3  4  1  0
  4  5  1  0
  5  6  2  0
  5 14  1  0
  6  7  1  0
  7  8  1  0
  7  9  2  0
  9 10  1  0
  9 11  1  0
 11 12  1  0
 11 14  2  0
 12 13  1  0
 14 15  1  0
 15 16  1  0
 16 17  1  0
M  END
