
     RDKit          3D

 17 17  0  0  0  0  0  0  0  0999 V2000
   -5.4170    0.6850    0.9860 C   0  0  0  0  0  0  0  0  0  0  0  0
   -4.0530    0.0180    1.1620 C   0  0  0  0  0  0  0  0  0  0  0  0
   -3.3290    0.1650   -0.1380 C   0  0  0  0  0  0  0  0  0  0  0  0
   -1.9500   -0.4450   -0.1420 C   0  0  2  0  0  0  0  0  0  0  0  0
   -2.1470   -1.9380    0.1610 C   0  0  0  0  0  0  0  0  0  0  0  0
   -1.0200    0.1020    0.8690 C   0  0  0  0  0  0  0  0  0  0  0  0
    0.0450    1.0100    0.3260 C   0  0  0  0  0  0  0  0  0  0  0  0
    0.8030    0.4750   -0.8260 C   0  0  1  0  0  0  0  0  0  0  0  0
    1.2470    1.6930   -1.6560 C   0  0  0  0  0  0  0  0  0  0  0  0
    2.0860   -0.2440   -0.4730 C   0  0  0  0  0  0  0  0  0  0  0  0
    3.0890    0.5930    0.2440 C   0  0  0  0  0  0  0  0  0  0  0  0
    4.2840   -0.2760    0.5070 C   0  0  0  0  0  0  0  0  0  0  0  0
    4.3260   -1.4710    0.1480 O   0  0  0  0  0  0  0  0  0  0  0  0
    5.3910    0.2370    1.1680 O   0  0  0  0  0  0  0  0  0  0  0  0
    6.5260   -0.5860    1.4180 C   0  0  0  0  0  0  0  0  0  0  0  0
    0.0180   -0.4560   -1.7080 C   0  0  0  0  0  0  0  0  0  0  0  0
   -1.4590   -0.3300   -1.5630 C   0  0  0  0  0  0  0  0  0  0  0  0
  1  2  1  0
  2  3  1  0
  3  4  1  0
  4  5  1  1
  4  6  1  0
  4 17  1  0
  6  7  1  0
  7  8  1  0
  8  9  1  6
  8 10  1  0
  8 16  1  0
 10 11  1  0
 11 12  1  0
 12 13  2  0
 12 14  1  0
 14 15  1  0
 16 17  1  0
M  END
