
     RDKit          3D

 17 17  0  0  0  0  0  0  0  0999 V2000
    6.3750   -0.3230   -1.2500 C   0  0  0  0  0  0  0  0  0  0  0  0
    5.6640   -0.5020    0.0660 C   0  0  0  0  0  0  0  0  0  0  0  0
    4.1760   -0.2880   -0.1190 C   0  0  0  0  0  0  0  0  0  0  0  0
    3.5250   -0.4830    1.2400 C   0  0  0  0  0  0  0  0  0  0  0  0
    2.0440   -0.2960    1.1860 C   0  0  0  0  0  0  0  0  0  0  0  0
    1.6540    1.0940    0.7140 C   0  0  2  0  0  0  0  0  0  0  0  0
    2.2020    2.0020    1.6230 O   0  0  0  0  0  0  0  0  0  0  0  0
    0.1460    1.2170    0.6460 C   0  0  0  0  0  0  0  0  0  0  0  0
   -0.3180    0.2870   -0.2730 O   0  0  0  0  0  0  0  0  0  0  0  0
   -1.6900    0.3030   -0.4230 C   0  0  1  0  0  0  0  0  0  0  0  0
   -2.0000    0.7630   -1.8230 C   0  0  0  0  0  0  0  0  0  0  0  0
   -3.3960    1.3780   -1.8620 C   0  0  0  0  0  0  0  0  0  0  0  0
   -4.4520    0.3790   -1.4250 C   0  0  0  0  0  0  0  0  0  0  0  0
   -4.4870    0.2060    0.0550 C   0  0  0  0  0  0  0  0  0  0  0  0
   -3.6490   -0.9060    0.5920 C   0  0  1  0  0  0  0  0  0  0  0  0
   -4.3310   -2.2470    0.5990 C   0  0  0  0  0  0  0  0  0  0  0  0
   -2.2850   -0.9910   -0.0450 C   0  0  0  0  0  0  0  0  0  0  0  0
  1  2  1  0
  2  3  1  0
  3  4  1  0
  4  5  1  0
  5  6  1  0
  6  7  1  1
  6  8  1  0
  8  9  1  0
 10  9  1  6
 10 11  1  0
 10 17  1  0
 11 12  1  0
 12 13  1  0
 13 14  1  0
 14 15  1  0
 15 16  1  6
 15 17  1  0
M  END
