
     RDKit          3D

 17 16  0  0  0  0  0  0  0  0999 V2000
   -3.4490    3.2060   -0.3860 C   0  0  0  0  0  0  0  0  0  0  0  0
   -2.7570    2.3200    0.6550 C   0  0  0  0  0  0  0  0  0  0  0  0
   -2.0850    1.2220    0.0080 C   0  0  0  0  0  0  0  0  0  0  0  0
   -2.3530   -0.1000    0.1190 C   0  0  0  0  0  0  0  0  0  0  0  0
   -3.4770   -0.4180    1.0120 C   0  0  0  0  0  0  0  0  0  0  0  0
   -1.5490   -1.0550   -0.5910 C   0  0  0  0  0  0  0  0  0  0  0  0
   -0.5050   -0.4730   -1.3620 O   0  0  0  0  0  0  0  0  0  0  0  0
    0.8590   -0.6020   -1.0870 C   0  0  0  0  0  0  0  0  0  0  0  0
    1.1850   -0.0830    0.2750 C   0  0  0  0  0  0  0  0  0  0  0  0
    2.4460   -0.1320    0.7210 O   0  0  0  0  0  0  0  0  0  0  0  0
    3.4790    0.5100    0.1730 C   0  0  2  0  0  0  0  0  0  0  0  0
    3.8750    0.1550   -1.2310 C   0  0  0  0  0  0  0  0  0  0  0  0
    4.6980    0.2700    1.1080 C   0  0  0  0  0  0  0  0  0  0  0  0
    3.3260    2.0340    0.1950 C   0  0  0  0  0  0  0  0  0  0  0  0
   -1.6500   -2.3300   -0.6130 C   0  0  0  0  0  0  0  0  0  0  0  0
   -2.6750   -3.0940    0.1450 C   0  0  0  0  0  0  0  0  0  0  0  0
   -0.7300   -3.1820   -1.4780 C   0  0  0  0  0  0  0  0  0  0  0  0
  1  2  1  0
  2  3  1  0
  3  4  2  3
  4  5  1  0
  4  6  1  0
  6  7  1  0
  6 15  2  3
  7  8  1  0
  8  9  1  0
  9 10  1  0
 10 11  1  0
 11 12  1  6
 11 13  1  0
 11 14  1  0
 15 16  1  0
 15 17  1  0
M  END
