
     RDKit          3D

 17 17  0  0  0  0  0  0  0  0999 V2000
    6.5930   -0.9970    0.1600 C   0  0  0  0  0  0  0  0  0  0  0  0
    5.3350   -0.2100    0.2510 C   0  0  0  0  0  0  0  0  0  0  0  0
    5.1990    0.8550    1.2690 C   0  0  0  0  0  0  0  0  0  0  0  0
    4.3640   -0.5050   -0.6040 C   0  0  0  0  0  0  0  0  0  0  0  0
    3.0570    0.2250   -0.5990 C   0  0  0  0  0  0  0  0  0  0  0  0
    1.9300   -0.7220   -0.3450 C   0  0  0  0  0  0  0  0  0  0  0  0
    0.6300    0.0510   -0.3470 C   0  0  0  0  0  0  0  0  0  0  0  0
   -0.5410   -0.8750   -0.0920 C   0  0  0  0  0  0  0  0  0  0  0  0
   -1.8260   -0.0810   -0.1000 C   0  0  0  0  0  0  0  0  0  0  0  0
   -1.8200    1.1320   -0.2920 O   0  0  0  0  0  0  0  0  0  0  0  0
   -2.9640   -0.7330    0.1080 O   0  0  0  0  0  0  0  0  0  0  0  0
   -4.2710   -0.3780    0.1730 C   0  0  0  0  0  0  0  0  0  0  0  0
   -5.1920   -1.3420    0.4120 C   0  0  0  0  0  0  0  0  0  0  0  0
   -6.5430   -0.7660    0.4450 C   0  0  0  0  0  0  0  0  0  0  0  0
   -6.3050    0.6630    0.1950 C   0  0  0  0  0  0  0  0  0  0  0  0
   -4.9950    0.8640    0.0410 C   0  0  0  0  0  0  0  0  0  0  0  0
   -4.4210    2.2280   -0.2300 C   0  0  0  0  0  0  0  0  0  0  0  0
  1  2  1  0
  2  3  1  0
  2  4  2  3
  4  5  1  0
  5  6  1  0
  6  7  1  0
  7  8  1  0
  8  9  1  0
  9 10  2  0
  9 11  1  0
 11 12  1  0
 12 13  2  0
 12 16  1  0
 13 14  1  0
 14 15  1  0
 15 16  2  0
 16 17  1  0
M  END
