
     RDKit          3D

 17 17  0  0  0  0  0  0  0  0999 V2000
    1.9360   -1.8570    1.1410 C   0  0  0  0  0  0  0  0  0  0  0  0
    1.9740   -0.6170    0.7060 C   0  0  0  0  0  0  0  0  0  0  0  0
    3.2970    0.0680    0.5730 C   0  0  0  0  0  0  0  0  0  0  0  0
    4.4310   -0.8250    0.9400 C   0  0  0  0  0  0  0  0  0  0  0  0
    5.6840   -0.2310    0.8570 O   0  0  0  0  0  0  0  0  0  0  0  0
    6.0010    0.2080   -0.3990 C   0  0  0  0  0  0  0  0  0  0  0  0
    0.7400    0.1600    0.3140 C   0  0  0  0  0  0  0  0  0  0  0  0
   -0.4430   -0.7170    0.4050 C   0  0  2  0  0  0  0  0  0  0  0  0
   -0.2750   -1.8000   -0.4900 O   0  0  0  0  0  0  0  0  0  0  0  0
   -1.7130   -0.0770    0.0240 C   0  0  0  0  0  0  0  0  0  0  0  0
   -2.7880   -0.9050   -0.2240 C   0  0  0  0  0  0  0  0  0  0  0  0
   -4.0180   -0.4210   -0.5850 C   0  0  0  0  0  0  0  0  0  0  0  0
   -5.1410   -1.3580   -0.8400 C   0  0  0  0  0  0  0  0  0  0  0  0
   -4.1780    0.9530   -0.7030 C   0  0  0  0  0  0  0  0  0  0  0  0
   -3.1330    1.8210   -0.4650 C   0  0  0  0  0  0  0  0  0  0  0  0
   -3.3110    3.3050   -0.5930 C   0  0  0  0  0  0  0  0  0  0  0  0
   -1.9090    1.2800   -0.1020 C   0  0  0  0  0  0  0  0  0  0  0  0
  1  2  2  0
  2  3  1  0
  2  7  1  0
  3  4  1  0
  4  5  1  0
  5  6  1  0
  7  8  1  0
  8  9  1  6
  8 10  1  0
 10 11  2  0
 10 17  1  0
 11 12  1  0
 12 13  1  0
 12 14  2  0
 14 15  1  0
 15 16  1  0
 15 17  2  0
M  END
