
     RDKit          3D

 17 17  0  0  0  0  0  0  0  0999 V2000
    2.8340   -1.4280    2.0140 C   0  0  0  0  0  0  0  0  0  0  0  0
    2.9810   -0.8830    0.8410 C   0  0  0  0  0  0  0  0  0  0  0  0
    4.2830   -0.1910    0.6260 C   0  0  0  0  0  0  0  0  0  0  0  0
    4.5720    0.3970   -0.5070 C   0  0  0  0  0  0  0  0  0  0  0  0
    5.8770    1.0680   -0.6650 C   0  0  0  0  0  0  0  0  0  0  0  0
    2.0600   -0.8330   -0.2790 C   0  0  0  0  0  0  0  0  0  0  0  0
    0.8430   -1.3900   -0.2120 O   0  0  0  0  0  0  0  0  0  0  0  0
   -0.1060   -0.9170    0.6190 C   0  0  0  0  0  0  0  0  0  0  0  0
   -0.4900    0.5320    0.3670 C   0  0  0  0  0  0  0  0  0  0  0  0
   -1.0250    0.7700   -0.9930 C   0  0  0  0  0  0  0  0  0  0  0  0
   -2.1400    0.0850   -1.3350 O   0  0  0  0  0  0  0  0  0  0  0  0
   -3.3910    0.1330   -0.8410 C   0  0  0  0  0  0  0  0  0  0  0  0
   -4.3130   -0.7580   -1.4150 C   0  0  0  0  0  0  0  0  0  0  0  0
   -5.5950   -0.7690   -0.9750 C   0  0  0  0  0  0  0  0  0  0  0  0
   -6.0090    0.0740    0.0220 C   0  0  0  0  0  0  0  0  0  0  0  0
   -5.1350    0.9530    0.6010 C   0  0  0  0  0  0  0  0  0  0  0  0
   -3.8100    0.9740    0.1540 C   0  0  0  0  0  0  0  0  0  0  0  0
  1  2  2  0
  2  3  1  0
  2  6  1  0
  3  4  2  3
  4  5  1  0
  6  7  1  0
  7  8  1  0
  8  9  1  0
  9 10  1  0
 10 11  1  0
 11 12  1  0
 12 13  2  0
 12 17  1  0
 13 14  1  0
 14 15  2  0
 15 16  1  0
 16 17  2  0
M  END
