
     RDKit          3D

 17 17  0  0  0  0  0  0  0  0999 V2000
   -5.1190   -1.9440   -0.0760 C   0  0  0  0  0  0  0  0  0  0  0  0
   -3.9750   -1.2160   -0.7630 C   0  0  0  0  0  0  0  0  0  0  0  0
   -3.0890   -0.5930    0.3060 C   0  0  0  0  0  0  0  0  0  0  0  0
   -1.9230    0.1450   -0.2740 C   0  0  0  0  0  0  0  0  0  0  0  0
   -1.1310    0.7170    0.8950 C   0  0  0  0  0  0  0  0  0  0  0  0
    0.0600    1.4610    0.4220 C   0  0  0  0  0  0  0  0  0  0  0  0
    0.0910    2.8540    0.3950 C   0  0  0  0  0  0  0  0  0  0  0  0
    1.2110    3.5180   -0.0510 C   0  0  0  0  0  0  0  0  0  0  0  0
    1.2480    4.9980   -0.0800 C   0  0  0  0  0  0  0  0  0  0  0  0
    2.3110    2.8090   -0.4760 C   0  0  0  0  0  0  0  0  0  0  0  0
    2.2650    1.4260   -0.4440 C   0  0  0  0  0  0  0  0  0  0  0  0
    1.1720    0.7260   -0.0070 C   0  0  0  0  0  0  0  0  0  0  0  0
    1.0750   -0.6550    0.0470 O   0  0  0  0  0  0  0  0  0  0  0  0
    2.2050   -1.4180   -0.3880 C   0  0  0  0  0  0  0  0  0  0  0  0
    1.9430   -2.8810   -0.2640 C   0  0  0  0  0  0  0  0  0  0  0  0
    3.0310   -3.6010   -0.6830 O   0  0  0  0  0  0  0  0  0  0  0  0
    4.1970   -3.3790    0.0020 C   0  0  0  0  0  0  0  0  0  0  0  0
  1  2  1  0
  2  3  1  0
  3  4  1  0
  4  5  1  0
  5  6  1  0
  6  7  2  0
  6 12  1  0
  7  8  1  0
  8  9  1  0
  8 10  2  0
 10 11  1  0
 11 12  2  0
 12 13  1  0
 13 14  1  0
 14 15  1  0
 15 16  1  0
 16 17  1  0
M  END
