
     RDKit          3D

 17 17  0  0  0  0  0  0  0  0999 V2000
    3.1300    2.2290    1.7220 C   0  0  0  0  0  0  0  0  0  0  0  0
    3.5230    1.4430    0.6930 C   0  0  0  0  0  0  0  0  0  0  0  0
    4.8110    0.7630    0.8660 C   0  0  0  0  0  0  0  0  0  0  0  0
    2.6200    1.3780   -0.4320 C   0  0  0  0  0  0  0  0  0  0  0  0
    2.7550    0.7130   -1.5230 C   0  0  0  0  0  0  0  0  0  0  0  0
    3.8940   -0.1480   -1.8590 C   0  0  0  0  0  0  0  0  0  0  0  0
    1.4010    2.1450   -0.3580 O   0  0  0  0  0  0  0  0  0  0  0  0
    0.2530    1.5080    0.1920 C   0  0  0  0  0  0  0  0  0  0  0  0
   -0.1400    0.2770   -0.5950 C   0  0  0  0  0  0  0  0  0  0  0  0
   -1.3630   -0.3270    0.0600 C   0  0  2  0  0  0  0  0  0  0  0  0
   -0.9570   -0.6310    1.3800 O   0  0  0  0  0  0  0  0  0  0  0  0
   -1.7070   -1.6650   -0.5580 C   0  0  0  0  0  0  0  0  0  0  0  0
   -2.3700   -2.4870    0.5200 C   0  0  0  0  0  0  0  0  0  0  0  0
   -3.5240   -1.7330    1.0890 C   0  0  0  0  0  0  0  0  0  0  0  0
   -4.3710   -1.0270    0.0900 C   0  0  0  0  0  0  0  0  0  0  0  0
   -3.7510    0.1260   -0.6070 C   0  0  0  0  0  0  0  0  0  0  0  0
   -2.4790    0.6480    0.0170 C   0  0  0  0  0  0  0  0  0  0  0  0
  1  2  2  0
  2  3  1  0
  2  4  1  0
  4  5  2  3
  4  7  1  0
  5  6  1  0
  7  8  1  0
  8  9  1  0
  9 10  1  0
 10 11  1  1
 10 12  1  0
 10 17  1  0
 12 13  1  0
 13 14  1  0
 14 15  1  0
 15 16  1  0
 16 17  1  0
M  END
