
     RDKit          3D

 17 17  0  0  0  0  0  0  0  0999 V2000
    3.2280   -0.2240   -1.1630 C   0  0  0  0  0  0  0  0  0  0  0  0
    3.3580   -0.3000    0.1450 C   0  0  0  0  0  0  0  0  0  0  0  0
    4.1980   -1.3550    0.7920 C   0  0  0  0  0  0  0  0  0  0  0  0
    2.6350    0.7050    0.9880 C   0  0  0  0  0  0  0  0  0  0  0  0
    1.7440    0.1070    1.8540 O   0  0  0  0  0  0  0  0  0  0  0  0
    0.7520   -0.6260    1.2160 C   0  0  0  0  0  0  0  0  0  0  0  0
   -0.1200    0.2180    0.3270 C   0  0  2  0  0  0  0  0  0  0  0  0
   -0.7230    1.1340    1.1230 O   0  0  0  0  0  0  0  0  0  0  0  0
   -0.5810    2.4380    0.9870 C   0  0  0  0  0  0  0  0  0  0  0  0
   -0.9800    3.0900   -0.2970 C   0  0  0  0  0  0  0  0  0  0  0  0
   -0.6880    4.5850   -0.1180 C   0  0  0  0  0  0  0  0  0  0  0  0
   -1.2180   -0.5740   -0.3380 C   0  0  2  0  0  0  0  0  0  0  0  0
   -2.0650   -1.1680    0.7410 C   0  0  0  0  0  0  0  0  0  0  0  0
   -3.2770   -1.8030    0.0440 C   0  0  0  0  0  0  0  0  0  0  0  0
   -2.6780   -3.0050   -0.6990 C   0  0  0  0  0  0  0  0  0  0  0  0
   -1.8270   -2.4640   -1.7930 C   0  0  0  0  0  0  0  0  0  0  0  0
   -0.7400   -1.5460   -1.3600 C   0  0  0  0  0  0  0  0  0  0  0  0
  1  2  2  0
  2  3  1  0
  2  4  1  0
  4  5  1  0
  5  6  1  0
  7  6  1  1
  7  8  1  0
  7 12  1  0
  8  9  1  0
  9 10  1  0
 10 11  1  0
 12 13  1  1
 12 17  1  0
 13 14  1  0
 14 15  1  0
 15 16  1  0
 16 17  1  0
M  END
