
     RDKit          3D

 35 36  0  0  0  0  0  0  0  0999 V2000
   -4.3870   -2.7220   -2.1160 C   0  0  0  0  0  0  0  0  0  0  0  0
   -3.4960   -2.0860   -1.1330 C   0  0  0  0  0  0  0  0  0  0  0  0
   -3.9860   -1.4130   -0.1230 C   0  0  0  0  0  0  0  0  0  0  0  0
   -3.0940   -0.7830    0.8550 C   0  0  0  0  0  0  0  0  0  0  0  0
   -1.7470   -1.3630    1.0900 C   0  0  1  0  0  0  0  0  0  0  0  0
   -1.6040   -2.8340    0.9300 C   0  0  0  0  0  0  0  0  0  0  0  0
   -0.6470   -0.5770    0.4250 C   0  0  0  0  0  0  0  0  0  0  0  0
   -0.0620   -1.1460   -0.5260 O   0  0  0  0  0  0  0  0  0  0  0  0
   -0.2400    0.7200    0.7900 N   0  0  0  0  0  0  0  0  0  0  0  0
    1.1390    1.1480    0.4960 C   0  0  0  0  0  0  0  0  0  0  0  0
    2.0750    0.8480    1.6550 C   0  0  0  0  0  0  0  0  0  0  0  0
    2.1650   -0.6100    1.9900 C   0  0  0  0  0  0  0  0  0  0  0  0
    2.6480   -1.3410    0.9240 O   0  0  0  0  0  0  0  0  0  0  0  0
    3.8170   -1.3740    0.2540 C   0  0  0  0  0  0  0  0  0  0  0  0
    4.9510   -0.6510    0.4840 C   0  0  0  0  0  0  0  0  0  0  0  0
    6.1220   -0.7350   -0.2520 C   0  0  0  0  0  0  0  0  0  0  0  0
    7.2620    0.0420    0.0720 N   0  0  0  0  0  0  0  0  0  0  0  0
    8.3810    0.2900   -0.7790 C   0  0  0  0  0  0  0  0  0  0  0  0
    8.0870    1.2080   -1.9380 C   0  0  0  0  0  0  0  0  0  0  0  0
    7.1180    0.7840   -2.8020 O   0  0  0  0  0  0  0  0  0  0  0  0
    6.1440   -1.6190   -1.2990 C   0  0  0  0  0  0  0  0  0  0  0  0
    5.0160   -2.3850   -1.5810 C   0  0  0  0  0  0  0  0  0  0  0  0
    3.8820   -2.2680   -0.8280 C   0  0  0  0  0  0  0  0  0  0  0  0
    2.7940   -3.0490   -1.1480 O   0  0  0  0  0  0  0  0  0  0  0  0
   -1.0460    1.7230    1.4500 C   0  0  0  0  0  0  0  0  0  0  0  0
   -1.5750    2.7870    0.5120 C   0  0  0  0  0  0  0  0  0  0  0  0
   -3.3390    3.1190    0.7250 S   0  0  0  0  0  0  0  0  0  0  0  0
   -4.1880    2.6100   -0.7820 C   0  0  0  0  0  0  0  0  0  0  0  0
   -5.5630    2.0570   -0.5680 C   0  0  2  0  0  0  0  0  0  0  0  0
   -6.4980    3.2450   -0.4500 C   0  0  0  0  0  0  0  0  0  0  0  0
   -5.6810    1.1710    0.6400 C   0  0  0  0  0  0  0  0  0  0  0  0
   -6.1240   -0.2060    0.3420 C   0  0  0  0  0  0  0  0  0  0  0  0
   -7.5090   -0.3910    0.4070 F   0  0  0  0  0  0  0  0  0  0  0  0
   -5.4330   -1.2540    0.0320 C   0  0  0  0  0  0  0  0  0  0  0  0
   -6.1510   -2.4250   -0.2250 F   0  0  0  0  0  0  0  0  0  0  0  0
  1  2  1  0
  2  3  2  3
  3  4  1  0
  3 34  1  0
  4  5  1  0
  5  6  1  6
  5  7  1  0
  7  8  2  0
  7  9  1  0
  9 10  1  0
  9 25  1  0
 10 11  1  0
 11 12  1  0
 12 13  1  0
 13 14  1  0
 14 15  2  0
 14 23  1  0
 15 16  1  0
 16 17  1  0
 16 21  2  0
 17 18  1  0
 18 19  1  0
 19 20  1  0
 21 22  1  0
 22 23  2  0
 23 24  1  0
 25 26  1  0
 26 27  1  0
 27 28  1  0
 28 29  1  0
 29 30  1  1
 29 31  1  0
 31 32  1  0
 32 33  1  0
 32 34  2  0
 34 35  1  0
M  END
