
     RDKit          3D

 35 37  0  0  0  0  0  0  0  0999 V2000
   10.4030   -2.1950    0.2910 C   0  0  0  0  0  0  0  0  0  0  0  0
    9.7280   -1.1850   -0.2720 C   0  0  0  0  0  0  0  0  0  0  0  0
    8.3000   -1.2820   -0.4070 C   0  0  0  0  0  0  0  0  0  0  0  0
    7.4420   -0.2210   -0.4950 C   0  0  0  0  0  0  0  0  0  0  0  0
    6.0770   -0.5200   -0.6170 C   0  0  0  0  0  0  0  0  0  0  0  0
    4.9140    0.0010   -0.5270 C   0  0  0  0  0  0  0  0  0  0  0  0
    3.7980   -0.8760   -0.8630 N   0  0  0  0  0  0  0  0  0  0  0  0
    2.4430   -0.5800   -0.5960 C   0  0  0  0  0  0  0  0  0  0  0  0
    1.4210   -1.6080   -1.0040 C   0  0  0  0  0  0  0  0  0  0  0  0
    2.0930    0.5380   -0.0140 C   0  0  0  0  0  0  0  0  0  0  0  0
    0.7740    0.9750    0.3190 C   0  0  0  0  0  0  0  0  0  0  0  0
    0.6490    2.1310    0.8980 O   0  0  0  0  0  0  0  0  0  0  0  0
   -0.4200    0.3160    0.1040 N   0  0  0  0  0  0  0  0  0  0  0  0
   -1.6930    0.9670    0.5430 C   0  0  0  0  0  0  0  0  0  0  0  0
   -2.8120    0.0310    0.1860 C   0  0  0  0  0  0  0  0  0  0  0  0
   -4.1480    0.5630    0.5780 C   0  0  0  0  0  0  0  0  0  0  0  0
   -5.1920   -0.4650    0.1660 C   0  0  0  0  0  0  0  0  0  0  0  0
   -4.8190   -1.5130   -0.3980 O   0  0  0  0  0  0  0  0  0  0  0  0
   -6.5480   -0.2380    0.4150 N   0  0  0  0  0  0  0  0  0  0  0  0
   -7.6150   -1.0810    0.0990 C   0  0  0  0  0  0  0  0  0  0  0  0
   -7.4610   -2.3060   -0.4760 C   0  0  0  0  0  0  0  0  0  0  0  0
   -8.5790   -3.1170   -0.7550 C   0  0  0  0  0  0  0  0  0  0  0  0
   -9.8550   -2.7090   -0.4630 C   0  0  0  0  0  0  0  0  0  0  0  0
   -9.9980   -1.4680    0.1180 C   0  0  0  0  0  0  0  0  0  0  0  0
   -8.9180   -0.6840    0.3880 C   0  0  0  0  0  0  0  0  0  0  0  0
   -9.1490    0.5790    0.9680 N   0  0  0  0  0  0  0  0  0  0  0  0
   -8.8280    1.7710    0.2370 C   0  0  0  0  0  0  0  0  0  0  0  0
   -9.7030    0.6730    2.2880 C   0  0  0  0  0  0  0  0  0  0  0  0
    3.1930    1.4460    0.3470 C   0  0  0  0  0  0  0  0  0  0  0  0
    4.4740    1.2140    0.1270 C   0  0  0  0  0  0  0  0  0  0  0  0
    5.4160    2.1360    0.8730 C   0  0  0  0  0  0  0  0  0  0  0  0
    8.1520    1.0200   -0.7660 C   0  0  0  0  0  0  0  0  0  0  0  0
    7.4590    2.2400   -1.2670 C   0  0  0  0  0  0  0  0  0  0  0  0
    9.4870    1.1210   -0.8820 C   0  0  0  0  0  0  0  0  0  0  0  0
   10.4020    0.0150   -0.7570 C   0  0  0  0  0  0  0  0  0  0  0  0
  1  2  2  0
  2  3  1  0
  2 35  1  0
  3  4  2  0
  4  5  1  0
  4 32  1  0
  5  6  2  3
  6  7  1  0
  6 30  1  0
  7  8  1  0
  8  9  1  0
  8 10  2  0
 10 11  1  0
 10 29  1  0
 11 12  2  0
 11 13  1  0
 13 14  1  0
 14 15  1  0
 15 16  1  0
 16 17  1  0
 17 18  2  0
 17 19  1  0
 19 20  1  0
 20 21  2  0
 20 25  1  0
 21 22  1  0
 22 23  2  0
 23 24  1  0
 24 25  2  0
 25 26  1  0
 26 27  1  0
 26 28  1  0
 29 30  2  0
 30 31  1  0
 32 33  1  0
 32 34  2  0
 34 35  1  0
M  END
