
     RDKit          3D

 35 38  0  0  0  0  0  0  0  0999 V2000
   -5.6040    4.4730   -0.5210 C   0  0  0  0  0  0  0  0  0  0  0  0
   -4.6100    3.4970    0.0150 C   0  0  0  0  0  0  0  0  0  0  0  0
   -3.8950    2.7280   -1.0720 C   0  0  0  0  0  0  0  0  0  0  0  0
   -2.9290    1.7850   -0.4610 C   0  0  0  0  0  0  0  0  0  0  0  0
   -3.2730    0.4400   -0.3980 C   0  0  0  0  0  0  0  0  0  0  0  0
   -2.4520   -0.5260    0.1550 C   0  0  0  0  0  0  0  0  0  0  0  0
   -1.2220   -0.1800    0.6780 C   0  0  0  0  0  0  0  0  0  0  0  0
   -0.9010    1.1580    0.6060 C   0  0  0  0  0  0  0  0  0  0  0  0
   -1.7090    2.1370    0.0580 C   0  0  0  0  0  0  0  0  0  0  0  0
   -1.2940    3.5590    0.0130 C   0  0  0  0  0  0  0  0  0  0  0  0
   -0.2840   -1.1160    1.3080 C   0  0  0  0  0  0  0  0  0  0  0  0
    0.9030   -1.5400    0.6620 N   0  0  0  0  0  0  0  0  0  0  0  0
    2.0380   -0.5680    0.7990 C   0  0  0  0  0  0  0  0  0  0  0  0
    2.2860    0.2460   -0.4030 C   0  0  0  0  0  0  0  0  0  0  0  0
    3.4000    1.2180   -0.2470 C   0  0  0  0  0  0  0  0  0  0  0  0
    3.1810    2.5710   -0.0790 C   0  0  0  0  0  0  0  0  0  0  0  0
    4.2430    3.4310    0.0560 C   0  0  0  0  0  0  0  0  0  0  0  0
    5.5460    2.9960    0.0320 C   0  0  0  0  0  0  0  0  0  0  0  0
    6.7100    3.9410    0.1790 C   0  0  0  0  0  0  0  0  0  0  0  0
    5.7490    1.6410   -0.1360 C   0  0  0  0  0  0  0  0  0  0  0  0
    4.6820    0.7410   -0.2760 C   0  0  0  0  0  0  0  0  0  0  0  0
    5.0810   -0.6770   -0.4420 C   0  0  0  0  0  0  0  0  0  0  0  0
    1.2160   -2.7460    0.0070 C   0  0  0  0  0  0  0  0  0  0  0  0
    2.5010   -3.0600    0.0190 O   0  0  0  0  0  0  0  0  0  0  0  0
    0.4480   -3.7590   -0.7070 C   0  0  0  0  0  0  0  0  0  0  0  0
    0.5730   -4.0690   -2.1040 C   0  0  0  0  0  0  0  0  0  0  0  0
   -0.2660   -5.0420   -2.4050 N   0  0  0  0  0  0  0  0  0  0  0  0
   -0.9120   -5.3810   -1.3250 N   0  0  0  0  0  0  0  0  0  0  0  0
   -0.4950   -4.6120   -0.2670 C   0  0  0  0  0  0  0  0  0  0  0  0
   -1.0620   -4.7980    1.1050 C   0  0  0  0  0  0  0  0  0  0  0  0
   -2.5460   -4.7110    1.0130 C   0  0  0  0  0  0  0  0  0  0  0  0
   -3.0830   -3.7010    1.9380 C   0  0  0  0  0  0  0  0  0  0  0  0
   -3.4360   -4.0670    3.1040 O   0  0  0  0  0  0  0  0  0  0  0  0
   -3.2090   -2.3600    1.5510 N   0  0  0  0  0  0  0  0  0  0  0  0
   -2.9800   -1.9430    0.1970 C   0  0  0  0  0  0  0  0  0  0  0  0
  1  2  1  0
  2  3  1  0
  3  4  1  0
  4  5  2  0
  4  9  1  0
  5  6  1  0
  6  7  2  0
  6 35  1  0
  7  8  1  0
  7 11  1  0
  8  9  2  0
  9 10  1  0
 11 12  1  0
 12 13  1  0
 12 23  1  0
 13 14  1  0
 14 15  1  0
 15 16  2  0
 15 21  1  0
 16 17  1  0
 17 18  2  0
 18 19  1  0
 18 20  1  0
 20 21  2  0
 21 22  1  0
 23 24  2  0
 23 25  1  0
 25 26  1  0
 25 29  2  0
 26 27  2  0
 27 28  1  0
 28 29  1  0
 29 30  1  0
 30 31  1  0
 31 32  1  0
 32 33  2  0
 32 34  1  0
 34 35  1  0
M  END
