
     RDKit          3D

 35 36  0  0  0  0  0  0  0  0999 V2000
   -3.9850    0.4400    1.5240 C   0  0  0  0  0  0  0  0  0  0  0  0
   -3.3470   -0.7140    1.4870 C   0  0  0  0  0  0  0  0  0  0  0  0
   -2.9880   -1.3700    2.7530 C   0  0  0  0  0  0  0  0  0  0  0  0
   -2.9850   -1.3290    0.1500 C   0  0  0  0  0  0  0  0  0  0  0  0
   -1.9370   -0.8160   -0.5050 C   0  0  0  0  0  0  0  0  0  0  0  0
   -1.0550    0.2800   -0.1420 C   0  0  0  0  0  0  0  0  0  0  0  0
   -1.3680    0.8540    0.9650 O   0  0  0  0  0  0  0  0  0  0  0  0
    0.0590    0.7990   -0.8020 N   0  0  0  0  0  0  0  0  0  0  0  0
    0.6420    1.9880   -0.1740 C   0  0  0  0  0  0  0  0  0  0  0  0
    0.1650    3.3070   -0.5900 C   0  0  1  0  0  0  0  0  0  0  0  0
   -1.2820    3.5990   -0.4190 C   0  0  0  0  0  0  0  0  0  0  0  0
   -1.5120    4.0810    0.9780 C   0  0  0  0  0  0  0  0  0  0  0  0
   -0.1180    4.3020    1.5590 C   0  0  0  0  0  0  0  0  0  0  0  0
    0.7720    4.4000    0.3540 C   0  0  0  0  0  0  0  0  0  0  0  0
    0.6410    0.1380   -1.9240 C   0  0  2  0  0  0  0  0  0  0  0  0
    1.9860   -0.4650   -1.4890 C   0  0  0  0  0  0  0  0  0  0  0  0
    2.8040   -0.9110   -2.3150 O   0  0  0  0  0  0  0  0  0  0  0  0
    2.3530   -0.5410   -0.1220 N   0  0  0  0  0  0  0  0  0  0  0  0
    3.6180   -1.1020    0.3080 C   0  0  0  0  0  0  0  0  0  0  0  0
    3.7590   -1.0650    1.7870 C   0  0  0  0  0  0  0  0  0  0  0  0
    2.9050   -0.6120    2.5620 O   0  0  0  0  0  0  0  0  0  0  0  0
    4.9440   -1.5820    2.2940 O   0  0  0  0  0  0  0  0  0  0  0  0
    5.2430   -1.6260    3.6700 C   0  0  0  0  0  0  0  0  0  0  0  0
    6.6150   -2.2560    3.8070 C   0  0  0  0  0  0  0  0  0  0  0  0
    0.7610    0.8090   -3.2290 C   0  0  2  0  0  0  0  0  0  0  0  0
    1.3450   -0.2630   -4.1940 C   0  0  0  0  0  0  0  0  0  0  0  0
    1.6730    1.9660   -3.3760 C   0  0  0  0  0  0  0  0  0  0  0  0
   -1.8720   -1.7830   -1.9770 S   0  0  0  0  0  0  0  0  0  0  0  0
   -3.2990   -2.8450   -1.6080 C   0  0  0  0  0  0  0  0  0  0  0  0
   -3.6550   -3.7640   -2.4520 C   0  0  0  0  0  0  0  0  0  0  0  0
   -4.7100   -4.7550   -2.4740 C   0  0  0  0  0  0  0  0  0  0  0  0
   -3.6960   -2.3550   -0.3800 C   0  0  0  0  0  0  0  0  0  0  0  0
   -4.7790   -2.8740    0.2760 C   0  0  0  0  0  0  0  0  0  0  0  0
   -5.1500   -2.3520    1.4810 F   0  0  0  0  0  0  0  0  0  0  0  0
   -5.5250   -3.8580   -0.1460 F   0  0  0  0  0  0  0  0  0  0  0  0
  1  2  2  0
  2  3  1  0
  2  4  1  0
  4  5  2  0
  4 32  1  0
  5  6  1  0
  5 28  1  0
  6  7  2  0
  6  8  1  0
  8  9  1  0
 15  8  1  1
 10  9  1  1
 10 11  1  0
 10 14  1  0
 11 12  1  0
 12 13  1  0
 13 14  1  0
 15 16  1  0
 15 25  1  0
 16 17  2  0
 16 18  1  0
 18 19  1  0
 19 20  1  0
 20 21  2  0
 20 22  1  0
 22 23  1  0
 23 24  1  0
 25 26  1  6
 25 27  1  0
 28 29  1  0
 29 30  2  3
 29 32  1  0
 30 31  1  0
 32 33  2  3
 33 34  1  0
 33 35  1  0
M  END
