
     RDKit          3D

 35 38  0  0  0  0  0  0  0  0999 V2000
   -0.1730   -4.1450   -1.7980 C   0  0  0  0  0  0  0  0  0  0  0  0
   -0.5970   -4.8270   -0.7590 C   0  0  0  0  0  0  0  0  0  0  0  0
   -1.8470   -4.5320   -0.1150 C   0  0  0  0  0  0  0  0  0  0  0  0
   -2.6910   -5.6110    0.1530 C   0  0  0  0  0  0  0  0  0  0  0  0
   -3.8960   -5.4330    0.7570 C   0  0  0  0  0  0  0  0  0  0  0  0
   -4.2510   -4.1880    1.0870 N   0  0  0  0  0  0  0  0  0  0  0  0
   -3.4380   -3.1150    0.8340 C   0  0  0  0  0  0  0  0  0  0  0  0
   -2.2100   -3.2250    0.2290 C   0  0  0  0  0  0  0  0  0  0  0  0
   -1.3090   -2.1540    0.0270 N   0  0  0  0  0  0  0  0  0  0  0  0
   -1.6000   -0.7720    0.1290 C   0  0  0  0  0  0  0  0  0  0  0  0
   -2.7550   -0.4440    0.4200 O   0  0  0  0  0  0  0  0  0  0  0  0
   -0.5760    0.2440   -0.1050 C   0  0  0  0  0  0  0  0  0  0  0  0
   -0.8750    1.5080    0.0130 C   0  0  0  0  0  0  0  0  0  0  0  0
   -2.1570    2.0770    0.3740 C   0  0  0  0  0  0  0  0  0  0  0  0
   -2.7480    1.8730    1.5900 C   0  0  0  0  0  0  0  0  0  0  0  0
   -3.9980    2.4260    1.8970 C   0  0  0  0  0  0  0  0  0  0  0  0
   -4.6730    3.1990    0.9780 C   0  0  0  0  0  0  0  0  0  0  0  0
   -6.0010    3.7800    1.3240 C   0  0  0  0  0  0  0  0  0  0  0  0
   -5.9090    5.1290    1.9550 C   0  0  0  0  0  0  0  0  0  0  0  0
   -4.0800    3.4070   -0.2450 C   0  0  0  0  0  0  0  0  0  0  0  0
   -2.8520    2.8540   -0.5280 C   0  0  0  0  0  0  0  0  0  0  0  0
    0.1680    2.5010   -0.2290 N   0  0  0  0  0  0  0  0  0  0  0  0
    1.4830    2.0990   -0.5860 C   0  0  0  0  0  0  0  0  0  0  0  0
    2.2560    2.8300   -1.2440 O   0  0  0  0  0  0  0  0  0  0  0  0
    1.8500    0.7160   -0.0990 C   0  0  2  0  0  0  0  0  0  0  0  0
    1.9170    0.8160    1.4200 C   0  0  0  0  0  0  0  0  0  0  0  0
    3.1660    0.3710   -0.5960 C   0  0  0  0  0  0  0  0  0  0  0  0
    4.1860    1.2900   -0.4580 C   0  0  0  0  0  0  0  0  0  0  0  0
    5.4670    1.0130   -0.9250 C   0  0  0  0  0  0  0  0  0  0  0  0
    5.7750   -0.1810   -1.5410 C   0  0  0  0  0  0  0  0  0  0  0  0
    7.1610   -0.4350   -2.0260 C   0  0  0  0  0  0  0  0  0  0  0  0
    7.9080   -1.0840   -0.8750 C   0  0  0  0  0  0  0  0  0  0  0  0
    4.7680   -1.1080   -1.6860 C   0  0  0  0  0  0  0  0  0  0  0  0
    3.4860   -0.8300   -1.2180 C   0  0  0  0  0  0  0  0  0  0  0  0
    0.7650   -0.1430   -0.4720 N   0  0  0  0  0  0  0  0  0  0  0  0
  1  2  2  0
  2  3  1  0
  3  4  2  0
  3  8  1  0
  4  5  1  0
  5  6  2  0
  6  7  1  0
  7  8  2  0
  8  9  1  0
  9 10  1  0
 10 11  2  0
 10 12  1  0
 12 13  2  0
 12 35  1  0
 13 14  1  0
 13 22  1  0
 14 15  2  0
 14 21  1  0
 15 16  1  0
 16 17  2  0
 17 18  1  0
 17 20  1  0
 18 19  1  0
 20 21  2  0
 22 23  1  0
 23 24  2  0
 23 25  1  0
 25 26  1  1
 25 27  1  0
 25 35  1  0
 27 28  2  0
 27 34  1  0
 28 29  1  0
 29 30  2  0
 30 31  1  0
 30 33  1  0
 31 32  1  0
 33 34  2  0
M  END
