
     RDKit          3D

 35 36  0  0  0  0  0  0  0  0999 V2000
   -1.5200   -4.9330    2.8860 C   0  0  0  0  0  0  0  0  0  0  0  0
   -2.2060   -4.1540    2.0740 C   0  0  0  0  0  0  0  0  0  0  0  0
   -1.5300   -3.3780    1.0770 C   0  0  0  0  0  0  0  0  0  0  0  0
   -2.0510   -2.5650    0.1860 C   0  0  0  0  0  0  0  0  0  0  0  0
   -1.1110   -1.8560   -0.7520 C   0  0  0  0  0  0  0  0  0  0  0  0
    0.1440   -0.9030    0.1380 S   0  0  0  0  0  0  0  0  0  0  0  0
    0.5590    0.5500   -0.8160 C   0  0  0  0  0  0  0  0  0  0  0  0
    1.4330    0.4260   -2.0000 C   0  0  0  0  0  0  0  0  0  0  0  0
    2.7440   -0.1020   -1.7500 N   0  0  0  0  0  0  0  0  0  0  0  0
    3.8490    0.7670   -1.4780 C   0  0  0  0  0  0  0  0  0  0  0  0
    4.1470    1.0380   -0.0480 C   0  0  0  0  0  0  0  0  0  0  0  0
    3.0780    1.6320    0.5960 O   0  0  0  0  0  0  0  0  0  0  0  0
    2.9530   -1.5010   -1.8230 C   0  0  0  0  0  0  0  0  0  0  0  0
    1.9960   -2.2880   -2.1160 O   0  0  0  0  0  0  0  0  0  0  0  0
    4.2280   -2.1640   -1.5840 C   0  0  0  0  0  0  0  0  0  0  0  0
    5.2390   -2.4140   -2.5180 C   0  0  0  0  0  0  0  0  0  0  0  0
    6.2410   -3.0460   -1.8340 C   0  0  0  0  0  0  0  0  0  0  0  0
    5.8710   -3.1690   -0.5980 O   0  0  0  0  0  0  0  0  0  0  0  0
    4.6740   -2.6590   -0.3860 C   0  0  0  0  0  0  0  0  0  0  0  0
    3.9150   -2.6120    0.8940 C   0  0  0  0  0  0  0  0  0  0  0  0
    0.0950    1.7480   -0.4820 C   0  0  0  0  0  0  0  0  0  0  0  0
    0.4810    2.9130   -1.3210 C   0  0  0  0  0  0  0  0  0  0  0  0
   -0.7880    1.9970    0.7000 C   0  0  0  0  0  0  0  0  0  0  0  0
   -1.8500    3.0250    0.4530 C   0  0  2  0  0  0  0  0  0  0  0  0
   -1.6520    4.1410    1.4330 C   0  0  0  0  0  0  0  0  0  0  0  0
   -2.6220    5.2680    1.3370 C   0  0  0  0  0  0  0  0  0  0  0  0
   -3.9440    4.9390    1.5410 O   0  0  0  0  0  0  0  0  0  0  0  0
   -3.2120    2.4060    0.6780 C   0  0  0  0  0  0  0  0  0  0  0  0
   -3.3140    1.0500    0.0160 C   0  0  0  0  0  0  0  0  0  0  0  0
   -3.7330   -0.0260    0.9610 C   0  0  0  0  0  0  0  0  0  0  0  0
   -4.1840   -1.1670    0.2200 N   0  0  0  0  0  0  0  0  0  0  0  0
   -3.5030   -2.4290    0.1260 C   0  0  0  0  0  0  0  0  0  0  0  0
   -4.2710   -3.5060   -0.0550 C   0  0  0  0  0  0  0  0  0  0  0  0
   -3.8170   -4.7720   -0.1980 F   0  0  0  0  0  0  0  0  0  0  0  0
   -5.6110   -3.3540   -0.1050 F   0  0  0  0  0  0  0  0  0  0  0  0
  1  2  2  0
  2  3  1  0
  3  4  2  3
  4  5  1  0
  4 32  1  0
  5  6  1  0
  6  7  1  0
  7  8  1  0
  7 21  2  0
  8  9  1  0
  9 10  1  0
  9 13  1  0
 10 11  1  0
 11 12  1  0
 13 14  2  0
 13 15  1  0
 15 16  1  0
 15 19  2  0
 16 17  2  0
 17 18  1  0
 18 19  1  0
 19 20  1  0
 21 22  1  0
 21 23  1  0
 23 24  1  0
 24 25  1  1
 24 28  1  0
 25 26  1  0
 26 27  1  0
 28 29  1  0
 29 30  1  0
 30 31  1  0
 31 32  1  0
 32 33  2  3
 33 34  1  0
 33 35  1  0
M  END
