
     RDKit          3D

 35 36  0  0  0  0  0  0  0  0999 V2000
   -3.9830   -1.9710   -0.1870 C   0  0  0  0  0  0  0  0  0  0  0  0
   -3.1410   -2.8400   -0.7120 C   0  0  0  0  0  0  0  0  0  0  0  0
   -2.2130   -3.5250    0.0710 N   0  0  0  0  0  0  0  0  0  0  0  0
   -1.1840   -3.1000    0.6010 C   0  0  0  0  0  0  0  0  0  0  0  0
   -0.9440   -1.7510    0.3930 N   0  0  0  0  0  0  0  0  0  0  0  0
    0.2460   -1.0760    0.2480 C   0  0  0  0  0  0  0  0  0  0  0  0
    1.2160   -1.8810    0.2630 O   0  0  0  0  0  0  0  0  0  0  0  0
    0.3950    0.3250    0.0920 C   0  0  0  0  0  0  0  0  0  0  0  0
    1.6800    0.7060   -0.0130 C   0  0  0  0  0  0  0  0  0  0  0  0
    3.0310   -0.4390    0.0400 S   0  0  0  0  0  0  0  0  0  0  0  0
    4.2470   -0.0720    1.3110 C   0  0  0  0  0  0  0  0  0  0  0  0
    5.4790   -0.9460    1.2040 C   0  0  0  0  0  0  0  0  0  0  0  0
    6.1600   -0.7240   -0.1080 C   0  0  1  0  0  0  0  0  0  0  0  0
    6.5480    0.6190   -0.2370 O   0  0  0  0  0  0  0  0  0  0  0  0
    7.4340   -1.5810   -0.2240 C   0  0  0  0  0  0  0  0  0  0  0  0
    7.6030   -1.5310   -1.7300 C   0  0  0  0  0  0  0  0  0  0  0  0
    6.3520   -1.5910   -2.2790 O   0  0  0  0  0  0  0  0  0  0  0  0
    5.4250   -1.1710   -1.3230 C   0  0  0  0  0  0  0  0  0  0  0  0
   -0.6250    1.3350    0.1090 C   0  0  0  0  0  0  0  0  0  0  0  0
   -0.2940    2.6410    0.5510 C   0  0  0  0  0  0  0  0  0  0  0  0
   -1.2180    3.6450    0.4940 C   0  0  0  0  0  0  0  0  0  0  0  0
   -2.4900    3.4890    0.0260 C   0  0  0  0  0  0  0  0  0  0  0  0
   -3.4610    4.5980   -0.0230 C   0  0  2  0  0  0  0  0  0  0  0  0
   -2.7920    5.9010    0.3720 C   0  0  0  0  0  0  0  0  0  0  0  0
   -4.6010    4.2670    0.9090 C   0  0  0  0  0  0  0  0  0  0  0  0
   -3.9980    4.7790   -1.4460 C   0  0  0  0  0  0  0  0  0  0  0  0
   -2.8320    2.2310   -0.4090 C   0  0  0  0  0  0  0  0  0  0  0  0
   -1.9070    1.1950   -0.3610 C   0  0  0  0  0  0  0  0  0  0  0  0
   -0.5120   -4.0990    1.3180 O   0  0  0  0  0  0  0  0  0  0  0  0
   -1.3220   -4.9890    2.1300 C   0  0  0  0  0  0  0  0  0  0  0  0
   -2.0580   -4.1500    3.1550 C   0  0  0  0  0  0  0  0  0  0  0  0
   -3.1410   -3.0990   -2.1740 C   0  0  2  0  0  0  0  0  0  0  0  0
   -4.0040   -2.1500   -2.9350 C   0  0  0  0  0  0  0  0  0  0  0  0
   -3.5690   -4.3980   -2.3940 F   0  0  0  0  0  0  0  0  0  0  0  0
   -1.8240   -3.0810   -2.6550 F   0  0  0  0  0  0  0  0  0  0  0  0
  1  2  2  0
  2  3  1  0
  2 32  1  0
  3  4  2  3
  4  5  1  0
  4 29  1  0
  5  6  1  0
  6  7  2  0
  6  8  1  0
  8  9  2  3
  8 19  1  0
  9 10  1  0
 10 11  1  0
 11 12  1  0
 12 13  1  0
 13 14  1  6
 13 15  1  0
 13 18  1  0
 15 16  1  0
 16 17  1  0
 17 18  1  0
 19 20  2  0
 19 28  1  0
 20 21  1  0
 21 22  2  0
 22 23  1  0
 22 27  1  0
 23 24  1  1
 23 25  1  0
 23 26  1  0
 27 28  2  0
 29 30  1  0
 30 31  1  0
 32 33  1  6
 32 34  1  0
 32 35  1  0
M  END
