
     RDKit          3D

 34 37  0  0  0  0  0  0  0  0999 V2000
    2.8260    1.6230    1.5100 O   0  0  0  0  0  0  0  0  0  0  0  0
    2.0960    0.7980    0.9070 C   0  0  0  0  0  0  0  0  0  0  0  0
    2.6240    0.1220   -0.1990 N   0  0  0  0  0  0  0  0  0  0  0  0
    3.9620    0.2810   -0.7300 C   0  0  0  0  0  0  0  0  0  0  0  0
    4.9430   -0.0970    0.3530 C   0  0  0  0  0  0  0  0  0  0  0  0
    6.3540    0.0440   -0.1310 C   0  0  0  0  0  0  0  0  0  0  0  0
    7.0660    1.1940   -0.0050 C   0  0  0  0  0  0  0  0  0  0  0  0
    8.3630    1.2640   -0.4710 C   0  0  0  0  0  0  0  0  0  0  0  0
    8.9680    0.1920   -1.0690 C   0  0  0  0  0  0  0  0  0  0  0  0
    8.2290   -0.9740   -1.1910 C   0  0  0  0  0  0  0  0  0  0  0  0
    6.9350   -1.0510   -0.7280 C   0  0  0  0  0  0  0  0  0  0  0  0
    0.7220    0.5850    1.3930 C   0  0  0  0  0  0  0  0  0  0  0  0
   -0.1110   -0.2800    0.7970 N   0  0  0  0  0  0  0  0  0  0  0  0
   -1.3780   -0.4840    1.2370 C   0  0  0  0  0  0  0  0  0  0  0  0
   -2.3050   -1.4260    0.6420 C   0  0  2  0  0  0  0  0  0  0  0  0
   -1.8170   -2.1700   -0.5760 C   0  0  0  0  0  0  0  0  0  0  0  0
   -3.1320   -2.7620   -1.1140 C   0  0  0  0  0  0  0  0  0  0  0  0
   -4.2500   -2.0920   -0.2990 C   0  0  0  0  0  0  0  0  0  0  0  0
   -3.5480   -0.9100    0.1530 N   0  0  0  0  0  0  0  0  0  0  0  0
   -4.0030    0.4060    0.0910 C   0  0  0  0  0  0  0  0  0  0  0  0
   -3.3590    1.4280    0.4860 O   0  0  0  0  0  0  0  0  0  0  0  0
   -5.3370    0.7530   -0.4620 C   0  0  0  0  0  0  0  0  0  0  0  0
   -5.4530    1.0250   -1.7990 C   0  0  0  0  0  0  0  0  0  0  0  0
   -4.0800    0.9770   -2.8780 Cl  0  0  0  0  0  0  0  0  0  0  0  0
   -6.6890    1.3460   -2.3060 C   0  0  0  0  0  0  0  0  0  0  0  0
   -7.7770    1.3890   -1.4750 C   0  0  0  0  0  0  0  0  0  0  0  0
   -7.6440    1.1130   -0.1320 C   0  0  0  0  0  0  0  0  0  0  0  0
   -6.4020    0.7890    0.3850 C   0  0  0  0  0  0  0  0  0  0  0  0
   -6.1890    0.4320    2.0780 Cl  0  0  0  0  0  0  0  0  0  0  0  0
   -1.7980    0.2110    2.3090 N   0  0  0  0  0  0  0  0  0  0  0  0
   -1.0150    1.0930    2.9520 C   0  0  0  0  0  0  0  0  0  0  0  0
   -1.4310    1.7400    3.9610 O   0  0  0  0  0  0  0  0  0  0  0  0
    0.2670    1.2850    2.4890 C   0  0  0  0  0  0  0  0  0  0  0  0
    1.0900    2.1830    3.1300 O   0  0  0  0  0  0  0  0  0  0  0  0
  1  2  2  0
  2  3  1  0
  2 12  1  0
  3  4  1  0
  4  5  1  0
  5  6  1  0
  6  7  2  0
  6 11  1  0
  7  8  1  0
  8  9  2  0
  9 10  1  0
 10 11  2  0
 12 13  1  0
 12 33  2  0
 13 14  2  0
 15 14  1  6
 14 30  1  0
 15 16  1  0
 15 19  1  0
 16 17  1  0
 17 18  1  0
 18 19  1  0
 19 20  1  0
 20 21  2  0
 20 22  1  0
 22 23  2  0
 22 28  1  0
 23 24  1  0
 23 25  1  0
 25 26  2  0
 26 27  1  0
 27 28  2  0
 28 29  1  0
 30 31  1  0
 31 32  2  0
 31 33  1  0
 33 34  1  0
M  END
