
     RDKit          3D

 35 36  0  0  0  0  0  0  0  0999 V2000
    0.4870   -5.4960   -0.2470 C   0  0  0  0  0  0  0  0  0  0  0  0
    0.8930   -4.1290   -0.2550 O   0  0  0  0  0  0  0  0  0  0  0  0
    0.2420   -3.2000    0.5370 C   0  0  0  0  0  0  0  0  0  0  0  0
   -0.7150   -3.6030    1.2610 O   0  0  0  0  0  0  0  0  0  0  0  0
    0.6290   -1.7810    0.5590 C   0  0  1  0  0  0  0  0  0  0  0  0
    1.7220   -1.6100   -0.3390 O   0  0  0  0  0  0  0  0  0  0  0  0
    2.9210   -1.0750    0.0990 C   0  0  0  0  0  0  0  0  0  0  0  0
    3.0120   -0.7470    1.3090 O   0  0  0  0  0  0  0  0  0  0  0  0
    4.0030   -0.9200   -0.8480 C   0  0  0  0  0  0  0  0  0  0  0  0
    5.1870   -0.4150   -0.5100 C   0  0  0  0  0  0  0  0  0  0  0  0
    5.4280   -0.0010    0.8280 N   0  0  0  0  0  0  0  0  0  0  0  0
    6.2400   -0.2940   -1.5500 C   0  0  2  0  0  0  0  0  0  0  0  0
    7.3890   -1.0210   -1.2290 O   0  0  0  0  0  0  0  0  0  0  0  0
    6.6250    1.1590   -1.6550 C   0  0  0  0  0  0  0  0  0  0  0  0
    7.1740    1.6750   -0.4230 N   0  0  0  0  0  0  0  0  0  0  0  0
   -0.4790   -0.8760    0.0550 C   0  0  2  0  0  0  0  0  0  0  0  0
    0.0750    0.4950   -0.0860 C   0  0  0  0  0  0  0  0  0  0  0  0
   -0.9180    1.4090   -0.6210 O   0  0  0  0  0  0  0  0  0  0  0  0
   -2.2700    0.8410   -0.3720 C   0  0  0  0  0  0  0  0  0  0  0  0
   -3.0860    1.0080   -1.3660 C   0  0  0  0  0  0  0  0  0  0  0  0
   -2.6480    1.7070   -2.5490 O   0  0  0  0  0  0  0  0  0  0  0  0
   -3.5750    2.6140   -3.1740 C   0  0  0  0  0  0  0  0  0  0  0  0
   -4.8110    1.8910   -3.5770 C   0  0  0  0  0  0  0  0  0  0  0  0
   -5.1040    0.8880   -2.6730 O   0  0  0  0  0  0  0  0  0  0  0  0
   -4.4460    0.5690   -1.4830 C   0  0  0  0  0  0  0  0  0  0  0  0
   -5.1180   -0.1020   -0.6050 C   0  0  0  0  0  0  0  0  0  0  0  0
   -6.4640   -0.4440   -0.9000 O   0  0  0  0  0  0  0  0  0  0  0  0
   -2.2370    0.2720    0.9460 C   0  0  1  0  0  0  0  0  0  0  0  0
   -3.2660    0.3840    1.9290 C   0  0  0  0  0  0  0  0  0  0  0  0
   -3.5270   -0.5820    2.7060 O   0  0  0  0  0  0  0  0  0  0  0  0
   -4.0280    1.5260    2.0950 O   0  0  0  0  0  0  0  0  0  0  0  0
   -5.0210    1.5970    3.0640 C   0  0  0  0  0  0  0  0  0  0  0  0
   -4.5620    1.4170    4.4790 C   0  0  0  0  0  0  0  0  0  0  0  0
   -5.7110    1.5230    5.2890 O   0  0  0  0  0  0  0  0  0  0  0  0
   -1.6040   -0.9840    0.8900 O   0  0  0  0  0  0  0  0  0  0  0  0
  1  2  1  0
  2  3  1  0
  3  4  2  0
  3  5  1  0
  5  6  1  6
  5 16  1  0
  6  7  1  0
  7  8  2  0
  7  9  1  0
  9 10  2  3
 10 11  1  0
 10 12  1  0
 12 13  1  1
 12 14  1  0
 14 15  1  0
 16 17  1  1
 16 35  1  0
 17 18  1  0
 18 19  1  0
 19 20  2  3
 19 28  1  0
 20 21  1  0
 20 25  1  0
 21 22  1  0
 22 23  1  0
 23 24  1  0
 24 25  1  0
 25 26  2  3
 26 27  1  0
 28 29  1  6
 28 35  1  0
 29 30  2  0
 29 31  1  0
 31 32  1  0
 32 33  1  0
 33 34  1  0
M  CHG  2  15   1  27  -1
M  END
