
     RDKit          3D

 34 36  0  0  0  0  0  0  0  0999 V2000
    6.2630    2.2400   -1.9740 C   0  0  0  0  0  0  0  0  0  0  0  0
    6.9300    1.0130   -2.5010 C   0  0  0  0  0  0  0  0  0  0  0  0
    7.5280    0.2260   -1.3380 C   0  0  0  0  0  0  0  0  0  0  0  0
    6.4940   -0.1880   -0.3610 C   0  0  0  0  0  0  0  0  0  0  0  0
    6.3920    0.4940    0.8290 C   0  0  0  0  0  0  0  0  0  0  0  0
    5.4450    0.1330    1.7510 C   0  0  0  0  0  0  0  0  0  0  0  0
    4.5620   -0.9270    1.5180 C   0  0  0  0  0  0  0  0  0  0  0  0
    3.5640   -1.2920    2.5400 C   0  0  0  0  0  0  0  0  0  0  0  0
    2.3160   -0.4780    2.3160 C   0  0  0  0  0  0  0  0  0  0  0  0
    1.7760   -0.7670    0.9660 C   0  0  0  0  0  0  0  0  0  0  0  0
    0.5660   -0.0430    0.6500 N   0  0  0  0  0  0  0  0  0  0  0  0
    0.5790    1.2650    0.0250 C   0  0  0  0  0  0  0  0  0  0  0  0
   -0.6720    1.1870   -0.8400 C   0  0  0  0  0  0  0  0  0  0  0  0
   -1.6420    0.4780    0.1060 C   0  0  1  0  0  0  0  0  0  0  0  0
   -2.6030   -0.2070   -0.7410 N   0  0  0  0  0  0  0  0  0  0  0  0
   -3.8270   -0.5190   -0.0400 C   0  0  2  0  0  0  0  0  0  0  0  0
   -3.8370   -1.8550    0.5730 C   0  0  0  0  0  0  0  0  0  0  0  0
   -3.3990   -2.9910   -0.0730 C   0  0  0  0  0  0  0  0  0  0  0  0
   -3.4410   -4.2010    0.5670 C   0  0  0  0  0  0  0  0  0  0  0  0
   -3.9180   -4.3010    1.8580 C   0  0  0  0  0  0  0  0  0  0  0  0
   -4.3390   -3.1750    2.4660 N   0  0  0  0  0  0  0  0  0  0  0  0
   -4.3100   -1.9720    1.8640 C   0  0  0  0  0  0  0  0  0  0  0  0
   -4.9550   -0.3400   -1.0420 C   0  0  1  0  0  0  0  0  0  0  0  0
   -6.2040   -0.6020   -0.5490 O   0  0  0  0  0  0  0  0  0  0  0  0
   -4.9090    1.0630   -1.5320 C   0  0  0  0  0  0  0  0  0  0  0  0
   -5.3460    2.1180   -0.9000 C   0  0  0  0  0  0  0  0  0  0  0  0
   -5.2150    3.4710   -1.5570 C   0  0  0  0  0  0  0  0  0  0  0  0
   -5.9650    2.1030    0.4210 C   0  0  0  0  0  0  0  0  0  0  0  0
   -5.2020    2.9330    1.4390 C   0  0  0  0  0  0  0  0  0  0  0  0
   -0.7910   -0.4320    0.8730 C   0  0  0  0  0  0  0  0  0  0  0  0
   -1.1210   -1.3960    1.6100 O   0  0  0  0  0  0  0  0  0  0  0  0
    4.7050   -1.5750    0.3130 C   0  0  0  0  0  0  0  0  0  0  0  0
    5.6420   -1.2380   -0.6300 C   0  0  0  0  0  0  0  0  0  0  0  0
    5.7930   -1.9010   -1.8680 N   0  0  0  0  0  0  0  0  0  0  0  0
  1  2  1  0
  2  3  1  0
  3  4  1  0
  4  5  2  0
  4 33  1  0
  5  6  1  0
  6  7  2  0
  7  8  1  0
  7 32  1  0
  8  9  1  0
  9 10  1  0
 10 11  1  0
 11 12  1  0
 11 30  1  0
 12 13  1  0
 13 14  1  0
 14 15  1  6
 14 30  1  0
 16 15  1  6
 16 17  1  0
 16 23  1  0
 17 18  2  0
 17 22  1  0
 18 19  1  0
 19 20  2  0
 20 21  1  0
 21 22  2  0
 23 24  1  1
 23 25  1  0
 25 26  2  3
 26 27  1  0
 26 28  1  0
 28 29  1  0
 30 31  2  0
 32 33  2  0
 33 34  1  0
M  CHG  2  15   1  21   1
M  END
