
     RDKit          3D

 34 36  0  0  0  0  0  0  0  0999 V2000
   -2.1030    1.4220   -2.0560 C   0  0  0  0  0  0  0  0  0  0  0  0
   -1.7120    1.7150   -0.6280 C   0  0  2  0  0  0  0  0  0  0  0  0
   -0.4660    1.1740   -0.2690 O   0  0  0  0  0  0  0  0  0  0  0  0
    0.5960    1.8920    0.2310 C   0  0  0  0  0  0  0  0  0  0  0  0
    0.4500    3.1340    0.3830 O   0  0  0  0  0  0  0  0  0  0  0  0
    1.9100    1.2440    0.5960 C   0  0  0  0  0  0  0  0  0  0  0  0
    1.7710   -0.0870    0.3160 O   0  0  0  0  0  0  0  0  0  0  0  0
    2.8380   -0.8620    0.5840 N   0  0  2  0  0  0  0  0  0  0  0  0
    2.7920   -1.1020    1.9330 O   0  0  0  0  0  0  0  0  0  0  0  0
    4.0290   -0.1910    0.2380 C   0  0  0  0  0  0  0  0  0  0  0  0
    5.2900   -0.9770    0.2030 C   0  0  1  0  0  0  0  0  0  0  0  0
    5.8990   -0.9430   -1.0480 O   0  0  0  0  0  0  0  0  0  0  0  0
    6.2450   -0.4350    1.2360 C   0  0  0  0  0  0  0  0  0  0  0  0
    6.6460    0.8440    1.1220 O   0  0  0  0  0  0  0  0  0  0  0  0
    7.3100    1.1660   -0.0210 C   0  0  0  0  0  0  0  0  0  0  0  0
    7.6880    2.5470    0.0060 O   0  0  0  0  0  0  0  0  0  0  0  0
    4.9950   -2.4030    0.6280 C   0  0  0  0  0  0  0  0  0  0  0  0
    3.8780   -2.9290   -0.2350 C   0  0  0  0  0  0  0  0  0  0  0  0
    2.6190   -2.1160   -0.0900 C   0  0  2  0  0  0  0  0  0  0  0  0
    1.9290   -1.8530   -1.4090 C   0  0  0  0  0  0  0  0  0  0  0  0
   -2.7800    1.1380    0.2670 C   0  0  0  0  0  0  0  0  0  0  0  0
   -2.4610    0.3160    1.1600 O   0  0  0  0  0  0  0  0  0  0  0  0
   -4.1330    1.5130    0.1120 N   0  0  0  0  0  0  0  0  0  0  0  0
   -5.1370    0.9770    0.9490 C   0  0  1  0  0  0  0  0  0  0  0  0
   -5.9490    2.0100    1.6870 C   0  0  0  0  0  0  0  0  0  0  0  0
   -7.1030    1.2110    2.0030 O   0  0  0  0  0  0  0  0  0  0  0  0
   -7.3110    0.3760    0.8640 C   0  0  0  0  0  0  0  0  0  0  0  0
   -6.1840    0.2140    0.2190 C   0  0  0  0  0  0  0  0  0  0  0  0
   -6.1280   -0.6140   -0.9980 C   0  0  0  0  0  0  0  0  0  0  0  0
   -4.9310   -0.7720   -1.6640 O   0  0  0  0  0  0  0  0  0  0  0  0
   -7.2230   -1.1930   -1.4350 C   0  0  0  0  0  0  0  0  0  0  0  0
   -7.2500   -1.9910   -2.5800 O   0  0  0  0  0  0  0  0  0  0  0  0
   -8.4130   -1.0160   -0.7450 O   0  0  0  0  0  0  0  0  0  0  0  0
   -8.5830   -0.2560    0.4080 C   0  0  0  0  0  0  0  0  0  0  0  0
  2  1  1  6
  2  3  1  0
  2 21  1  0
  3  4  1  0
  4  5  2  0
  4  6  1  0
  6  7  1  0
  7  8  1  0
  8  9  1  1
  8 10  1  0
  8 19  1  0
 10 11  1  0
 11 12  1  6
 11 13  1  0
 11 17  1  0
 13 14  1  0
 14 15  1  0
 15 16  1  0
 17 18  1  0
 18 19  1  0
 19 20  1  6
 21 22  2  0
 21 23  1  0
 24 23  1  6
 24 25  1  0
 24 28  1  0
 25 26  1  0
 26 27  1  0
 27 28  2  0
 27 34  1  0
 28 29  1  0
 29 30  1  0
 29 31  2  0
 31 32  1  0
 31 33  1  0
 33 34  1  0
M  CHG  2   8   1   9  -1
M  END
