
     RDKit          3D

 34 35  0  0  0  0  0  0  0  0999 V2000
   -5.4730    4.4570   -0.8140 C   0  0  0  0  0  0  0  0  0  0  0  0
   -5.3550    3.1910   -0.1930 O   0  0  0  0  0  0  0  0  0  0  0  0
   -5.9600    2.0510   -0.6740 C   0  0  0  0  0  0  0  0  0  0  0  0
   -6.6470    2.0980   -1.6990 O   0  0  0  0  0  0  0  0  0  0  0  0
   -5.7440    0.7520    0.1050 C   0  0  2  0  0  0  0  0  0  0  0  0
   -6.3390    1.0250    1.4500 C   0  0  0  0  0  0  0  0  0  0  0  0
   -4.2890    0.5320    0.0630 C   0  0  0  0  0  0  0  0  0  0  0  0
   -3.7140   -0.6910    0.7090 C   0  0  1  0  0  0  0  0  0  0  0  0
   -3.9890   -0.7200    2.1640 C   0  0  0  0  0  0  0  0  0  0  0  0
   -4.3170   -1.8020    0.0590 O   0  0  0  0  0  0  0  0  0  0  0  0
   -3.7320   -2.9450    0.5660 C   0  0  0  0  0  0  0  0  0  0  0  0
   -2.3160   -3.1160    0.0790 C   0  0  0  0  0  0  0  0  0  0  0  0
   -1.5060   -1.9380    0.6150 C   0  0  1  0  0  0  0  0  0  0  0  0
   -1.2940   -2.2100    1.9680 O   0  0  0  0  0  0  0  0  0  0  0  0
   -0.1740   -1.8790   -0.0350 C   0  0  0  0  0  0  0  0  0  0  0  0
    0.8770   -2.0160    0.6890 O   0  0  0  0  0  0  0  0  0  0  0  0
    0.0740   -1.6840   -1.4100 N   0  0  0  0  0  0  0  0  0  0  0  0
    1.4010   -1.6440   -1.9740 C   0  0  0  0  0  0  0  0  0  0  0  0
    2.2660   -0.5760   -1.4600 C   0  0  0  0  0  0  0  0  0  0  0  0
    1.8010    0.4980   -0.9960 O   0  0  0  0  0  0  0  0  0  0  0  0
    3.6700   -0.6770   -1.4490 O   0  0  0  0  0  0  0  0  0  0  0  0
    4.5040    0.3580   -0.9730 C   0  0  2  0  0  0  0  0  0  0  0  0
    5.5430    0.7840   -1.9440 C   0  0  0  0  0  0  0  0  0  0  0  0
    6.7770   -0.0950   -1.7520 C   0  0  0  0  0  0  0  0  0  0  0  0
    7.3930    0.1730   -0.5300 O   0  0  0  0  0  0  0  0  0  0  0  0
    6.4990    0.7270    0.3800 C   0  0  2  0  0  0  0  0  0  0  0  0
    7.0100    0.6890    1.7980 C   0  0  0  0  0  0  0  0  0  0  0  0
    8.2380    1.4160    1.9190 N   0  0  0  0  0  0  0  0  0  0  0  0
    8.3080    2.4020    2.6670 O   0  0  0  0  0  0  0  0  0  0  0  0
    9.3360    1.0200    1.2080 O   0  0  0  0  0  0  0  0  0  0  0  0
    5.1780   -0.0170    0.3350 C   0  0  1  0  0  0  0  0  0  0  0  0
    4.3590    0.3960    1.3760 O   0  0  0  0  0  0  0  0  0  0  0  0
   -2.2370   -0.6730    0.3760 C   0  0  2  0  0  0  0  0  0  0  0  0
   -1.6660    0.3790    1.1080 O   0  0  0  0  0  0  0  0  0  0  0  0
  1  2  1  0
  2  3  1  0
  3  4  2  0
  3  5  1  0
  5  6  1  1
  5  7  1  0
  7  8  1  0
  8  9  1  1
  8 10  1  0
  8 33  1  0
 10 11  1  0
 11 12  1  0
 12 13  1  0
 13 14  1  1
 13 15  1  0
 13 33  1  0
 15 16  2  0
 15 17  1  0
 17 18  1  0
 18 19  1  0
 19 20  2  0
 19 21  1  0
 22 21  1  6
 22 23  1  0
 22 31  1  0
 23 24  1  0
 24 25  1  0
 25 26  1  0
 26 27  1  1
 26 31  1  0
 27 28  1  0
 28 29  2  0
 28 30  1  0
 31 32  1  1
 33 34  1  1
M  CHG  2  28   1  30  -1
M  END
