
     RDKit          3D

 34 36  0  0  0  0  0  0  0  0999 V2000
    9.7050    3.0860   -1.2310 C   0  0  0  0  0  0  0  0  0  0  0  0
    8.6980    2.3140   -1.8910 O   0  0  0  0  0  0  0  0  0  0  0  0
    7.8520    1.4740   -1.1490 C   0  0  0  0  0  0  0  0  0  0  0  0
    8.0390    1.4560    0.0640 O   0  0  0  0  0  0  0  0  0  0  0  0
    6.8540    0.7000   -1.7440 N   0  0  0  0  0  0  0  0  0  0  0  0
    5.9010   -0.1760   -1.1770 C   0  0  0  0  0  0  0  0  0  0  0  0
    4.8580    0.4760   -0.3440 C   0  0  2  0  0  0  0  0  0  0  0  0
    5.2690    1.2380    0.8500 C   0  0  0  0  0  0  0  0  0  0  0  0
    4.1630    1.4850    1.7340 O   0  0  0  0  0  0  0  0  0  0  0  0
    3.0160    0.7290    1.7430 C   0  0  0  0  0  0  0  0  0  0  0  0
    1.9560    1.0320    2.5860 C   0  0  0  0  0  0  0  0  0  0  0  0
    0.8320    0.2610    2.5690 C   0  0  0  0  0  0  0  0  0  0  0  0
    0.7110   -0.8260    1.7300 C   0  0  0  0  0  0  0  0  0  0  0  0
   -0.4070   -1.6240    1.6870 O   0  0  0  0  0  0  0  0  0  0  0  0
   -0.4560   -2.7110    0.8070 C   0  0  0  0  0  0  0  0  0  0  0  0
   -1.8020   -3.3830    0.9940 C   0  0  1  0  0  0  0  0  0  0  0  0
   -1.9240   -3.8530    2.3180 O   0  0  0  0  0  0  0  0  0  0  0  0
   -2.9120   -2.3580    0.7940 C   0  0  2  0  0  0  0  0  0  0  0  0
   -2.7910   -1.3430    1.7550 O   0  0  0  0  0  0  0  0  0  0  0  0
   -4.1420   -2.9370    0.9860 O   0  0  0  0  0  0  0  0  0  0  0  0
   -2.7330   -1.7090   -0.5470 C   0  0  0  0  0  0  0  0  0  0  0  0
   -3.6360   -0.6930   -0.8150 O   0  0  0  0  0  0  0  0  0  0  0  0
   -4.9990   -0.7660   -0.9380 C   0  0  0  0  0  0  0  0  0  0  0  0
   -5.5740   -1.8610   -0.8110 O   0  0  0  0  0  0  0  0  0  0  0  0
   -5.7680    0.4460   -1.2190 C   0  0  1  0  0  0  0  0  0  0  0  0
   -7.2660    0.1590   -1.3310 C   0  0  0  0  0  0  0  0  0  0  0  0
   -7.7850    1.5340   -1.2760 N   0  0  0  0  0  0  0  0  0  0  0  0
   -7.0650    2.1420   -0.1620 C   0  0  1  0  0  0  0  0  0  0  0  0
   -7.8920    1.9860    0.9580 O   0  0  0  0  0  0  0  0  0  0  0  0
   -5.7740    1.4050   -0.0230 C   0  0  1  0  0  0  0  0  0  0  0  0
   -5.8540    0.5740    1.1110 O   0  0  0  0  0  0  0  0  0  0  0  0
    1.7680   -1.1110    0.9030 C   0  0  0  0  0  0  0  0  0  0  0  0
    2.9150   -0.3500    0.8990 C   0  0  0  0  0  0  0  0  0  0  0  0
    3.9880   -0.6290    0.0680 O   0  0  0  0  0  0  0  0  0  0  0  0
  1  2  1  0
  2  3  1  0
  3  4  2  0
  3  5  1  0
  5  6  1  0
  7  6  1  1
  7  8  1  0
  7 34  1  0
  8  9  1  0
  9 10  1  0
 10 11  2  0
 10 33  1  0
 11 12  1  0
 12 13  2  0
 13 14  1  0
 13 32  1  0
 14 15  1  0
 15 16  1  0
 16 17  1  1
 16 18  1  0
 18 19  1  1
 18 20  1  0
 18 21  1  0
 21 22  1  0
 22 23  1  0
 23 24  2  0
 25 23  1  1
 25 26  1  0
 25 30  1  0
 26 27  1  0
 27 28  1  0
 28 29  1  1
 28 30  1  0
 30 31  1  1
 32 33  2  0
 33 34  1  0
M  CHG  1  19  -1
M  END
