
     RDKit          3D

 34 35  0  0  0  0  0  0  0  0999 V2000
    5.0490    1.6420   -0.5790 C   0  0  0  0  0  0  0  0  0  0  0  0
    6.2570    0.7730   -0.5530 C   0  0  1  0  0  0  0  0  0  0  0  0
    6.0160   -0.6770   -0.4410 C   0  0  0  0  0  0  0  0  0  0  0  0
    5.3780   -1.1210    0.6720 O   0  0  0  0  0  0  0  0  0  0  0  0
    4.0960   -1.0270    1.1660 C   0  0  0  0  0  0  0  0  0  0  0  0
    3.2900   -0.4160    0.4690 O   0  0  0  0  0  0  0  0  0  0  0  0
    3.7200   -1.6160    2.4390 C   0  0  0  0  0  0  0  0  0  0  0  0
    4.7800   -2.2400    3.0670 C   0  0  0  0  0  0  0  0  0  0  0  0
    4.6130   -2.8520    4.2780 O   0  0  0  0  0  0  0  0  0  0  0  0
    2.5260   -1.6350    3.1780 C   0  0  0  0  0  0  0  0  0  0  0  0
    1.3230   -1.2200    2.9900 C   0  0  0  0  0  0  0  0  0  0  0  0
    0.2790   -1.3850    3.9710 O   0  0  0  0  0  0  0  0  0  0  0  0
   -0.6970   -0.3710    3.7220 C   0  0  0  0  0  0  0  0  0  0  0  0
   -0.7840   -0.3000    2.2460 C   0  0  1  0  0  0  0  0  0  0  0  0
   -1.1350    0.9480    1.6970 O   0  0  0  0  0  0  0  0  0  0  0  0
   -2.0270    0.9310    0.6170 C   0  0  0  0  0  0  0  0  0  0  0  0
   -2.4760   -0.1740    0.1710 O   0  0  0  0  0  0  0  0  0  0  0  0
   -2.4730    2.1040   -0.0330 N   0  0  0  0  0  0  0  0  0  0  0  0
   -3.3730    2.0130   -1.1440 C   0  0  0  0  0  0  0  0  0  0  0  0
   -4.6540    1.3550   -0.8540 C   0  0  0  0  0  0  0  0  0  0  0  0
   -4.9490    0.9660    0.2910 O   0  0  0  0  0  0  0  0  0  0  0  0
   -5.5550    1.1620   -1.8800 O   0  0  0  0  0  0  0  0  0  0  0  0
   -6.8030    0.5520   -1.7510 C   0  0  1  0  0  0  0  0  0  0  0  0
   -7.9730    1.3480   -2.2090 C   0  0  0  0  0  0  0  0  0  0  0  0
   -9.0630    0.5300   -2.4750 O   0  0  0  0  0  0  0  0  0  0  0  0
   -9.1040   -0.6240   -1.6980 C   0  0  0  0  0  0  0  0  0  0  0  0
   -8.0230   -1.6150   -2.1680 C   0  0  0  0  0  0  0  0  0  0  0  0
   -6.8540   -0.7640   -2.4800 C   0  0  0  0  0  0  0  0  0  0  0  0
   -5.9890   -1.0570   -3.2470 O   0  0  0  0  0  0  0  0  0  0  0  0
    0.6910   -0.5380    1.8590 C   0  0  2  0  0  0  0  0  0  0  0  0
    0.6710   -1.4420    0.7670 O   0  0  0  0  0  0  0  0  0  0  0  0
    7.0650    1.1150   -1.8150 C   0  0  2  0  0  0  0  0  0  0  0  0
    8.2720    0.3310   -1.9020 N   0  0  0  0  0  0  0  0  0  0  0  0
    7.3490    2.4590   -1.7640 O   0  0  0  0  0  0  0  0  0  0  0  0
  2  1  1  6
  2  3  1  0
  2 32  1  0
  3  4  1  0
  4  5  1  0
  5  6  2  0
  5  7  1  0
  7  8  2  3
  7 10  1  0
  8  9  1  0
 10 11  2  3
 11 12  1  0
 11 30  1  0
 12 13  1  0
 13 14  1  0
 14 15  1  1
 14 30  1  0
 15 16  1  0
 16 17  2  0
 16 18  1  0
 18 19  1  0
 19 20  1  0
 20 21  2  0
 20 22  1  0
 23 22  1  6
 23 24  1  0
 23 28  1  0
 24 25  1  0
 25 26  1  0
 26 27  1  0
 27 28  1  0
 28 29  2  0
 30 31  1  6
 32 33  1  1
 32 34  1  0
M  CHG  2  33   1  34  -1
M  END
