
     RDKit          3D

 29 31  0  0  0  0  0  0  0  0999 V2000
    7.1470    0.4380    1.6120 C   0  0  0  0  0  0  0  0  0  0  0  0
    6.1040   -0.5360    1.7000 O   0  0  0  0  0  0  0  0  0  0  0  0
    4.9070   -0.3770    1.0300 C   0  0  0  0  0  0  0  0  0  0  0  0
    4.7780    0.6650    0.3390 O   0  0  0  0  0  0  0  0  0  0  0  0
    3.8180   -1.4120    1.1330 C   0  0  2  0  0  0  0  0  0  0  0  0
    4.4280   -2.7180    0.6360 C   0  0  0  0  0  0  0  0  0  0  0  0
    2.6780   -1.0100    0.3410 N   0  0  0  0  0  0  0  0  0  0  0  0
    2.8480   -0.7930   -1.2880 P   0  0  0  0  0  0  0  0  0  0  0  0
    3.3060    0.7240   -1.8450 O   0  0  0  0  0  0  0  0  0  0  0  0
    4.3190   -1.2170   -1.4440 O   0  0  0  0  0  0  0  0  0  0  0  0
    1.3930   -0.3170   -1.6100 O   0  0  0  0  0  0  0  0  0  0  0  0
    0.9650    0.6970   -0.7510 C   0  0  0  0  0  0  0  0  0  0  0  0
   -0.4110    1.1550   -1.0580 C   0  0  1  0  0  0  0  0  0  0  0  0
   -1.3700    0.1170   -0.9540 O   0  0  0  0  0  0  0  0  0  0  0  0
   -2.5250    0.9110   -1.0750 C   0  0  1  0  0  0  0  0  0  0  0  0
   -3.7310    0.1710   -1.0580 N   0  0  0  0  0  0  0  0  0  0  0  0
   -4.2260   -0.5410   -2.0840 C   0  0  0  0  0  0  0  0  0  0  0  0
   -5.3980   -1.1240   -1.7220 N   0  0  0  0  0  0  0  0  0  0  0  0
   -5.6640   -0.7920   -0.4690 C   0  0  0  0  0  0  0  0  0  0  0  0
   -6.7170   -1.1150    0.3600 C   0  0  0  0  0  0  0  0  0  0  0  0
   -7.8070   -1.9390   -0.0160 N   0  0  0  0  0  0  0  0  0  0  0  0
   -6.6890   -0.6050    1.6030 N   0  0  0  0  0  0  0  0  0  0  0  0
   -5.6800    0.1860    2.0260 C   0  0  0  0  0  0  0  0  0  0  0  0
   -4.6650    0.4860    1.1960 N   0  0  0  0  0  0  0  0  0  0  0  0
   -4.6100    0.0250   -0.0510 C   0  0  0  0  0  0  0  0  0  0  0  0
   -2.3410    1.8140    0.1270 C   0  0  2  0  0  0  0  0  0  0  0  0
   -3.1930    2.8970    0.1230 O   0  0  0  0  0  0  0  0  0  0  0  0
   -0.8840    2.2220   -0.0920 C   0  0  2  0  0  0  0  0  0  0  0  0
   -0.9140    3.4730   -0.6940 O   0  0  0  0  0  0  0  0  0  0  0  0
  1  2  1  0
  2  3  1  0
  3  4  2  0
  3  5  1  0
  5  6  1  6
  5  7  1  0
  7  8  1  0
  8  9  1  0
  8 10  1  0
  8 11  1  0
 11 12  1  0
 13 12  1  1
 13 14  1  0
 13 28  1  0
 14 15  1  0
 15 16  1  1
 15 26  1  0
 16 17  1  0
 16 25  1  0
 17 18  2  0
 18 19  1  0
 19 20  2  0
 19 25  1  0
 20 21  1  0
 20 22  1  0
 22 23  2  0
 23 24  1  0
 24 25  2  0
 26 27  1  6
 26 28  1  0
 28 29  1  6
M  END
