
     RDKit          3D

 28 30  0  0  0  0  0  0  0  0999 V2000
    5.0780   -1.6000    2.1980 N   0  0  0  0  0  0  0  0  0  0  0  0
    5.2330   -1.2390    0.8050 C   0  0  1  0  0  0  0  0  0  0  0  0
    3.9860   -1.2950    0.0800 N   0  0  0  0  0  0  0  0  0  0  0  0
    3.7600   -2.1490   -1.0690 C   0  0  0  0  0  0  0  0  0  0  0  0
    2.3240   -1.9200   -1.4880 C   0  0  0  0  0  0  0  0  0  0  0  0
    2.0590   -0.5340   -0.9610 C   0  0  1  0  0  0  0  0  0  0  0  0
    2.7650    0.4290   -1.8430 C   0  0  0  0  0  0  0  0  0  0  0  0
    3.4470    0.0790   -2.8360 O   0  0  0  0  0  0  0  0  0  0  0  0
    2.6380    1.7850   -1.5120 O   0  0  0  0  0  0  0  0  0  0  0  0
    0.6570   -0.2350   -0.8250 N   0  0  0  0  0  0  0  0  0  0  0  0
   -0.1580   -0.6060    0.0990 N   0  0  0  0  0  0  0  0  0  0  0  0
   -1.4360   -0.1200   -0.1090 C   0  0  0  0  0  0  0  0  0  0  0  0
   -2.5480   -0.3800    0.7830 C   0  0  0  0  0  0  0  0  0  0  0  0
   -2.3090   -1.1260    1.8010 O   0  0  0  0  0  0  0  0  0  0  0  0
   -3.8590    0.0930    0.6580 N   0  0  0  0  0  0  0  0  0  0  0  0
   -4.3480    0.9420   -0.3730 C   0  0  0  0  0  0  0  0  0  0  0  0
   -5.7330    1.4600   -0.2780 C   0  0  0  0  0  0  0  0  0  0  0  0
   -6.6340    0.8280    0.7280 C   0  0  0  0  0  0  0  0  0  0  0  0
   -5.7960    0.7130    2.0150 C   0  0  0  0  0  0  0  0  0  0  0  0
   -4.7960   -0.3700    1.7060 C   0  0  0  0  0  0  0  0  0  0  0  0
   -1.3240    0.5760   -1.2360 N   0  0  0  0  0  0  0  0  0  0  0  0
   -0.0340    0.5110   -1.6860 C   0  0  0  0  0  0  0  0  0  0  0  0
    0.3990    1.0750   -2.7460 O   0  0  0  0  0  0  0  0  0  0  0  0
    2.7790   -0.5590    0.3320 C   0  0  0  0  0  0  0  0  0  0  0  0
    2.4870   -0.0790    1.4460 O   0  0  0  0  0  0  0  0  0  0  0  0
    5.9640    0.4780    0.7670 P   0  0  0  0  0  0  0  0  0  0  0  0
    6.2950    0.9440   -0.8740 O   0  0  0  0  0  0  0  0  0  0  0  0
    4.8170    1.5970    1.4850 O   0  0  0  0  0  0  0  0  0  0  0  0
  2  1  1  1
  2  3  1  0
  2 26  1  0
  3  4  1  0
  3 24  1  0
  4  5  1  0
  5  6  1  0
  6  7  1  0
  6 10  1  1
  6 24  1  0
  7  8  2  0
  7  9  1  0
 10 11  1  0
 10 22  1  0
 11 12  2  0
 12 13  1  0
 12 21  1  0
 13 14  2  0
 13 15  1  0
 15 16  1  0
 15 20  1  0
 16 17  1  0
 17 18  1  0
 18 19  1  0
 19 20  1  0
 21 22  1  0
 22 23  2  0
 24 25  2  0
 26 27  1  0
 26 28  1  0
M  END
