
     RDKit          3D

 29 30  0  0  0  0  0  0  0  0999 V2000
   -5.6490    2.7200   -0.6490 C   0  0  0  0  0  0  0  0  0  0  0  0
   -6.1370    1.2400   -0.6370 N   0  0  0  0  0  0  0  0  0  0  0  0
   -6.1990    1.1130    0.8940 C   0  0  0  0  0  0  0  0  0  0  0  0
   -4.7980    1.1000    1.3010 C   0  0  0  0  0  0  0  0  0  0  0  0
   -4.4850    1.4950    2.4590 O   0  0  0  0  0  0  0  0  0  0  0  0
   -3.7920    0.6320    0.3990 N   0  0  0  0  0  0  0  0  0  0  0  0
   -2.4300    0.8500    0.6860 C   0  0  0  0  0  0  0  0  0  0  0  0
   -2.1240    1.8020    1.4270 O   0  0  0  0  0  0  0  0  0  0  0  0
   -1.3780    0.0300    0.1960 N   0  0  0  0  0  0  0  0  0  0  0  0
   -0.0290    0.5080    0.2490 C   0  0  0  0  0  0  0  0  0  0  0  0
    1.0040   -0.3190   -0.4080 C   0  0  1  0  0  0  0  0  0  0  0  0
    0.9030   -0.0230   -1.9110 C   0  0  0  0  0  0  0  0  0  0  0  0
    2.2380    0.1690    0.1240 C   0  0  0  0  0  0  0  0  0  0  0  0
    2.4750    0.9110    1.0170 O   0  0  0  0  0  0  0  0  0  0  0  0
    3.6430   -0.4280   -0.6870 N   0  0  0  0  0  0  0  0  0  0  0  0
    4.6110    0.3140    0.0810 C   0  0  0  0  0  0  0  0  0  0  0  0
    4.5970    0.6730    1.2350 O   0  0  0  0  0  0  0  0  0  0  0  0
    5.7750    0.6460   -0.7590 N   0  0  0  0  0  0  0  0  0  0  0  0
    7.1010    1.5940   -0.1610 P   0  0  0  0  0  0  0  0  0  0  0  0
    8.2040    0.7790    0.8750 O   0  0  0  0  0  0  0  0  0  0  0  0
    6.5340    3.1120    0.5020 O   0  0  0  0  0  0  0  0  0  0  0  0
    0.8730   -1.8020   -0.2430 C   0  0  1  0  0  0  0  0  0  0  0  0
    1.6360   -2.3150    0.9940 C   0  0  0  0  0  0  0  0  0  0  0  0
    1.1090   -3.7840    0.9960 C   0  0  0  0  0  0  0  0  0  0  0  0
   -0.3120   -3.5310    0.6350 C   0  0  0  0  0  0  0  0  0  0  0  0
   -1.2140   -4.3500    0.7860 O   0  0  0  0  0  0  0  0  0  0  0  0
   -0.4500   -2.2210    0.1100 N   0  0  0  0  0  0  0  0  0  0  0  0
   -1.6110   -1.3620   -0.0940 C   0  0  0  0  0  0  0  0  0  0  0  0
   -2.6950   -1.8160   -0.4720 O   0  0  0  0  0  0  0  0  0  0  0  0
  1  2  1  0
  2  3  1  0
  3  4  1  0
  4  5  2  0
  4  6  1  0
  6  7  1  0
  7  8  2  0
  7  9  1  0
  9 10  1  0
  9 28  1  0
 10 11  1  0
 11 12  1  6
 11 13  1  0
 11 22  1  0
 13 14  2  0
 13 15  1  0
 15 16  1  0
 16 17  2  0
 16 18  1  0
 18 19  1  0
 19 20  1  0
 19 21  1  0
 22 23  1  1
 22 27  1  0
 23 24  1  0
 24 25  1  0
 25 26  2  0
 25 27  1  0
 27 28  1  0
 28 29  2  0
M  END
