
     RDKit          3D

 29 31  0  0  0  0  0  0  0  0999 V2000
   -1.1550   -1.3290   -3.2890 C   0  0  0  0  0  0  0  0  0  0  0  0
   -0.3920   -0.4190   -2.5390 N   0  0  0  0  0  0  0  0  0  0  0  0
    1.0070   -0.4940   -2.1730 C   0  0  0  0  0  0  0  0  0  0  0  0
    1.1960    0.1290   -1.0350 C   0  0  0  0  0  0  0  0  0  0  0  0
    2.3070    0.4150   -0.1740 N   0  0  0  0  0  0  0  0  0  0  0  0
    2.2400    1.3320    0.7260 C   0  0  0  0  0  0  0  0  0  0  0  0
    3.3790    1.6010    1.5520 N   0  0  0  0  0  0  0  0  0  0  0  0
    4.7080    1.5380    0.9890 C   0  0  0  0  0  0  0  0  0  0  0  0
    5.1350    0.1520    0.6190 C   0  0  0  0  0  0  0  0  0  0  0  0
    6.4250    0.2390    0.0860 O   0  0  0  0  0  0  0  0  0  0  0  0
    6.9980   -1.3450   -0.3560 P   0  0  0  0  0  0  0  0  0  0  0  0
    6.0690   -2.5580    0.4760 O   0  0  0  0  0  0  0  0  0  0  0  0
    8.6410   -1.4360    0.2590 O   0  0  0  0  0  0  0  0  0  0  0  0
    1.0110    1.9580    1.0080 N   0  0  0  0  0  0  0  0  0  0  0  0
   -0.1030    1.6470    0.4200 C   0  0  0  0  0  0  0  0  0  0  0  0
   -1.2430    2.3410    0.7690 O   0  0  0  0  0  0  0  0  0  0  0  0
   -0.1760    0.5910   -0.5650 C   0  0  2  0  0  0  0  0  0  0  0  0
   -0.8450   -0.6650    0.0050 C   0  0  0  0  0  0  0  0  0  0  0  0
   -2.0300   -0.4650    0.5690 O   0  0  0  0  0  0  0  0  0  0  0  0
   -3.2740   -0.0620    0.4120 C   0  0  0  0  0  0  0  0  0  0  0  0
   -3.6730    0.3310   -0.6940 O   0  0  0  0  0  0  0  0  0  0  0  0
   -4.2560   -0.0540    1.5440 C   0  0  2  0  0  0  0  0  0  0  0  0
   -5.0310   -1.3740    1.5590 C   0  0  0  0  0  0  0  0  0  0  0  0
   -5.7400   -1.5170    0.3710 O   0  0  0  0  0  0  0  0  0  0  0  0
   -6.7360   -0.6240    0.3310 N   0  0  0  0  0  0  0  0  0  0  0  0
   -6.5090    0.6730    0.8730 C   0  0  0  0  0  0  0  0  0  0  0  0
   -7.4620    1.5040    0.8760 O   0  0  0  0  0  0  0  0  0  0  0  0
   -5.2270    1.0020    1.3930 N   0  0  0  0  0  0  0  0  0  0  0  0
   -0.7540    0.8910   -1.9090 C   0  0  0  0  0  0  0  0  0  0  0  0
  1  2  1  0
  2  3  1  0
  2 29  1  0
  3  4  2  0
  4  5  1  0
  4 17  1  0
  5  6  2  0
  6  7  1  0
  6 14  1  0
  7  8  1  0
  8  9  1  0
  9 10  1  0
 10 11  1  0
 11 12  1  0
 11 13  1  0
 14 15  2  0
 15 16  1  0
 15 17  1  0
 17 18  1  1
 17 29  1  0
 18 19  1  0
 19 20  1  0
 20 21  2  0
 22 20  1  6
 22 23  1  0
 22 28  1  0
 23 24  1  0
 24 25  1  0
 25 26  1  0
 26 27  2  0
 26 28  1  0
M  END
