
     RDKit          3D

 29 31  0  0  0  0  0  0  0  0999 V2000
    2.4980    1.4360   -2.0080 O   0  0  0  0  0  0  0  0  0  0  0  0
    2.1700    0.8570   -0.9350 C   0  0  0  0  0  0  0  0  0  0  0  0
    0.9400    0.1640   -0.7900 N   0  0  0  0  0  0  0  0  0  0  0  0
    0.9130   -0.9300    0.1600 C   0  0  2  0  0  0  0  0  0  0  0  0
   -0.4610   -1.3170    0.5280 C   0  0  0  0  0  0  0  0  0  0  0  0
   -0.8780   -1.5600    1.7830 N   0  0  0  0  0  0  0  0  0  0  0  0
   -2.1180   -1.8700    1.7650 O   0  0  0  0  0  0  0  0  0  0  0  0
   -2.5730   -1.8490    0.5380 C   0  0  0  0  0  0  0  0  0  0  0  0
   -3.9720   -2.1620    0.1790 C   0  0  0  0  0  0  0  0  0  0  0  0
   -4.7860   -0.9550    0.1970 N   0  0  0  0  0  0  0  0  0  0  0  0
   -4.8670   -0.2190   -1.0500 C   0  0  0  0  0  0  0  0  0  0  0  0
   -6.1780    0.5720   -0.9960 C   0  0  0  0  0  0  0  0  0  0  0  0
   -5.9080    1.7740   -0.2570 N   0  0  0  0  0  0  0  0  0  0  0  0
   -6.3530    1.7500    1.0960 C   0  0  0  0  0  0  0  0  0  0  0  0
   -6.0850    0.5230    1.7930 N   0  0  0  0  0  0  0  0  0  0  0  0
   -5.3970   -0.6650    1.4610 C   0  0  0  0  0  0  0  0  0  0  0  0
   -5.2960   -1.5650    2.3340 O   0  0  0  0  0  0  0  0  0  0  0  0
   -1.5500   -1.5060   -0.2430 N   0  0  0  0  0  0  0  0  0  0  0  0
    1.7200   -0.6230    1.3730 C   0  0  0  0  0  0  0  0  0  0  0  0
    2.3620    0.5840    1.3690 O   0  0  0  0  0  0  0  0  0  0  0  0
    3.0770    0.8780    0.2440 C   0  0  1  0  0  0  0  0  0  0  0  0
    4.2770    0.0320    0.0590 C   0  0  0  0  0  0  0  0  0  0  0  0
    4.5650   -0.8610    0.8910 O   0  0  0  0  0  0  0  0  0  0  0  0
    5.1070    0.1990   -1.0260 O   0  0  0  0  0  0  0  0  0  0  0  0
    6.2700   -0.5500   -1.2910 C   0  0  0  0  0  0  0  0  0  0  0  0
    7.2770   -0.3810   -0.1840 C   0  0  0  0  0  0  0  0  0  0  0  0
    7.6790    1.4520   -0.1070 P   0  0  0  0  0  0  0  0  0  0  0  0
    6.4710    2.2260    0.8870 O   0  0  0  0  0  0  0  0  0  0  0  0
    7.5720    2.0620   -1.7170 O   0  0  0  0  0  0  0  0  0  0  0  0
  1  2  2  0
  2  3  1  0
  2 21  1  0
  3  4  1  0
  4  5  1  1
  4 19  1  0
  5  6  2  0
  5 18  1  0
  6  7  1  0
  7  8  1  0
  8  9  1  0
  8 18  2  0
  9 10  1  0
 10 11  1  0
 10 16  1  0
 11 12  1  0
 12 13  1  0
 13 14  1  0
 14 15  1  0
 15 16  1  0
 16 17  2  0
 19 20  1  0
 20 21  1  0
 21 22  1  6
 22 23  2  0
 22 24  1  0
 24 25  1  0
 25 26  1  0
 26 27  1  0
 27 28  1  0
 27 29  1  0
M  END
