
     RDKit          3D

 28 30  0  0  0  0  0  0  0  0999 V2000
    4.5510    1.0050   -2.8710 O   0  0  0  0  0  0  0  0  0  0  0  0
    4.5820    0.9230   -1.6340 C   0  0  0  0  0  0  0  0  0  0  0  0
    5.6450    1.4950   -0.7800 C   0  0  0  0  0  0  0  0  0  0  0  0
    5.3930    1.2190    0.6840 C   0  0  0  0  0  0  0  0  0  0  0  0
    5.3360   -0.1180    0.9940 O   0  0  0  0  0  0  0  0  0  0  0  0
    3.5450    0.2450   -1.0140 O   0  0  0  0  0  0  0  0  0  0  0  0
    2.4750   -0.3390   -1.7560 C   0  0  0  0  0  0  0  0  0  0  0  0
    1.5630   -0.9740   -0.7210 C   0  0  1  0  0  0  0  0  0  0  0  0
    2.3150   -1.9910    0.0300 C   0  0  0  0  0  0  0  0  0  0  0  0
    1.9760   -2.2120    1.3830 N   0  0  0  0  0  0  0  0  0  0  0  0
    1.0220   -1.3520    1.9720 C   0  0  0  0  0  0  0  0  0  0  0  0
    1.3630    0.0740    1.5510 C   0  0  0  0  0  0  0  0  0  0  0  0
    0.9520    0.1320    0.0720 C   0  0  1  0  0  0  0  0  0  0  0  0
    1.3890    1.4070   -0.3630 O   0  0  0  0  0  0  0  0  0  0  0  0
   -0.5250    0.1620   -0.0130 C   0  0  0  0  0  0  0  0  0  0  0  0
   -1.1180   -0.7340   -0.7350 N   0  0  0  0  0  0  0  0  0  0  0  0
   -2.5240   -0.9080   -0.9690 C   0  0  0  0  0  0  0  0  0  0  0  0
   -3.0880   -2.0000   -1.5040 N   0  0  0  0  0  0  0  0  0  0  0  0
   -4.4170   -1.8190   -1.5750 N   0  0  0  0  0  0  0  0  0  0  0  0
   -4.6990   -0.6000   -1.0800 C   0  0  0  0  0  0  0  0  0  0  0  0
   -6.0130   -0.0730   -0.9990 N   0  0  0  0  0  0  0  0  0  0  0  0
   -6.9640   -0.3810    0.4890 P   0  0  0  0  0  0  0  0  0  0  0  0
   -8.6560   -0.3890    0.0330 O   0  0  0  0  0  0  0  0  0  0  0  0
   -6.7760    0.9260    1.6390 O   0  0  0  0  0  0  0  0  0  0  0  0
   -3.5260   -0.0490   -0.7100 N   0  0  0  0  0  0  0  0  0  0  0  0
   -3.4390    1.2760   -0.1290 C   0  0  0  0  0  0  0  0  0  0  0  0
   -2.5570    1.2270    1.0890 C   0  0  0  0  0  0  0  0  0  0  0  0
   -1.1750    1.1590    0.6950 O   0  0  0  0  0  0  0  0  0  0  0  0
  1  2  2  0
  2  3  1  0
  2  6  1  0
  3  4  1  0
  4  5  1  0
  6  7  1  0
  8  7  1  6
  8  9  1  0
  8 13  1  0
  9 10  1  0
 10 11  1  0
 11 12  1  0
 12 13  1  0
 13 14  1  6
 13 15  1  0
 15 16  2  0
 15 28  1  0
 16 17  1  0
 17 18  2  0
 17 25  1  0
 18 19  1  0
 19 20  2  0
 20 21  1  0
 20 25  1  0
 21 22  1  0
 22 23  1  0
 22 24  1  0
 25 26  1  0
 26 27  1  0
 27 28  1  0
M  END
