
     RDKit          3D

 28 30  0  0  0  0  0  0  0  0999 V2000
    5.1160   -2.1770   -2.6730 C   0  0  0  0  0  0  0  0  0  0  0  0
    4.7960   -0.8780   -1.9650 C   0  0  1  0  0  0  0  0  0  0  0  0
    4.6920   -1.1280   -0.4750 C   0  0  0  0  0  0  0  0  0  0  0  0
    4.2150    0.0960    0.1110 N   0  0  0  0  0  0  0  0  0  0  0  0
    3.1910    0.0680    1.0730 C   0  0  0  0  0  0  0  0  0  0  0  0
    2.5330   -1.0010    1.5740 N   0  0  0  0  0  0  0  0  0  0  0  0
    1.6400   -0.6140    2.4590 N   0  0  0  0  0  0  0  0  0  0  0  0
    1.6970    0.7090    2.5520 C   0  0  0  0  0  0  0  0  0  0  0  0
    0.8760    1.5750    3.4170 C   0  0  0  0  0  0  0  0  0  0  0  0
   -0.0550    2.2720    2.6200 O   0  0  0  0  0  0  0  0  0  0  0  0
   -0.9680    1.5590    1.8750 C   0  0  0  0  0  0  0  0  0  0  0  0
   -0.9600    0.3130    1.9160 O   0  0  0  0  0  0  0  0  0  0  0  0
   -1.9590    2.2530    1.0270 C   0  0  0  0  0  0  0  0  0  0  0  0
   -2.7750    1.2580    0.3690 N   0  0  0  0  0  0  0  0  0  0  0  0
   -3.5650    0.3140    1.0450 C   0  0  0  0  0  0  0  0  0  0  0  0
   -3.5750    0.3190    2.3020 O   0  0  0  0  0  0  0  0  0  0  0  0
   -4.3970   -0.6990    0.3620 C   0  0  1  0  0  0  0  0  0  0  0  0
   -5.8740   -0.4540    0.5750 C   0  0  0  0  0  0  0  0  0  0  0  0
   -6.4380   -1.0640   -0.5410 O   0  0  0  0  0  0  0  0  0  0  0  0
   -5.4140   -1.3680   -1.4060 C   0  0  1  0  0  0  0  0  0  0  0  0
   -5.9320   -1.0050   -3.1490 P   0  0  0  0  0  0  0  0  0  0  0  0
   -7.0770   -2.2420   -3.6130 O   0  0  0  0  0  0  0  0  0  0  0  0
   -6.7860    0.5030   -3.1400 O   0  0  0  0  0  0  0  0  0  0  0  0
   -4.3060   -0.6090   -1.0260 O   0  0  0  0  0  0  0  0  0  0  0  0
    2.6440    1.1410    1.7080 N   0  0  0  0  0  0  0  0  0  0  0  0
    4.8110    1.3350   -0.3140 C   0  0  0  0  0  0  0  0  0  0  0  0
    6.0190    0.9380   -1.1620 C   0  0  0  0  0  0  0  0  0  0  0  0
    5.7130    0.1070   -2.2040 O   0  0  0  0  0  0  0  0  0  0  0  0
  2  1  1  6
  2  3  1  0
  2 28  1  0
  3  4  1  0
  4  5  1  0
  4 26  1  0
  5  6  2  0
  5 25  1  0
  6  7  1  0
  7  8  1  0
  8  9  1  0
  8 25  2  0
  9 10  1  0
 10 11  1  0
 11 12  2  0
 11 13  1  0
 13 14  1  0
 14 15  1  0
 15 16  2  0
 17 15  1  1
 17 18  1  0
 17 24  1  0
 18 19  1  0
 19 20  1  0
 20 21  1  6
 20 24  1  0
 21 22  1  0
 21 23  1  0
 26 27  1  0
 27 28  1  0
M  END
