
     RDKit          3D

 29 31  0  0  0  0  0  0  0  0999 V2000
   -7.5810    1.9420    0.1280 C   0  0  0  0  0  0  0  0  0  0  0  0
   -6.9600    0.6860    0.1080 O   0  0  0  0  0  0  0  0  0  0  0  0
   -5.6820    0.4190    0.6470 C   0  0  0  0  0  0  0  0  0  0  0  0
   -5.0540    1.3350    1.1810 O   0  0  0  0  0  0  0  0  0  0  0  0
   -5.2480   -0.9930    0.4830 C   0  0  1  0  0  0  0  0  0  0  0  0
   -5.3440   -1.3000   -0.9740 C   0  0  0  0  0  0  0  0  0  0  0  0
   -3.8870   -1.1110    1.0460 N   0  0  0  0  0  0  0  0  0  0  0  0
   -2.7010   -1.2470    0.0750 P   0  0  0  0  0  0  0  0  0  0  0  0
   -3.1340    0.1090   -0.7780 O   0  0  0  0  0  0  0  0  0  0  0  0
   -3.3310   -2.7350   -0.4290 O   0  0  0  0  0  0  0  0  0  0  0  0
   -1.3810   -1.2640    0.9410 O   0  0  0  0  0  0  0  0  0  0  0  0
   -0.6830   -0.0390    1.0700 C   0  0  0  0  0  0  0  0  0  0  0  0
    0.5830   -0.1910    0.3410 C   0  0  1  0  0  0  0  0  0  0  0  0
    1.5420    0.7570    0.5550 O   0  0  0  0  0  0  0  0  0  0  0  0
    2.6960    0.1320    0.1180 C   0  0  1  0  0  0  0  0  0  0  0  0
    3.9130    0.7210    0.5040 N   0  0  0  0  0  0  0  0  0  0  0  0
    4.4090    0.7370    1.7610 C   0  0  0  0  0  0  0  0  0  0  0  0
    5.6500    1.2350    1.6690 N   0  0  0  0  0  0  0  0  0  0  0  0
    5.9760    1.5340    0.3940 C   0  0  0  0  0  0  0  0  0  0  0  0
    7.1140    2.0480   -0.1850 C   0  0  0  0  0  0  0  0  0  0  0  0
    8.2560    2.2950    0.5990 N   0  0  0  0  0  0  0  0  0  0  0  0
    7.0790    2.2300   -1.5030 N   0  0  0  0  0  0  0  0  0  0  0  0
    5.9610    1.9170   -2.2480 C   0  0  0  0  0  0  0  0  0  0  0  0
    4.8590    1.4110   -1.6670 N   0  0  0  0  0  0  0  0  0  0  0  0
    4.8660    1.2110   -0.3340 C   0  0  0  0  0  0  0  0  0  0  0  0
    2.5380   -1.2110    0.9670 C   0  0  2  0  0  0  0  0  0  0  0  0
    3.5690   -2.0270    0.7770 O   0  0  0  0  0  0  0  0  0  0  0  0
    1.1630   -1.5690    0.4800 C   0  0  2  0  0  0  0  0  0  0  0  0
    1.2960   -2.2210   -0.7310 O   0  0  0  0  0  0  0  0  0  0  0  0
  1  2  1  0
  2  3  1  0
  3  4  2  0
  3  5  1  0
  5  6  1  6
  5  7  1  0
  7  8  1  0
  8  9  1  0
  8 10  1  0
  8 11  1  0
 11 12  1  0
 13 12  1  1
 13 14  1  0
 13 28  1  0
 14 15  1  0
 15 16  1  1
 15 26  1  0
 16 17  1  0
 16 25  1  0
 17 18  2  0
 18 19  1  0
 19 20  2  0
 19 25  1  0
 20 21  1  0
 20 22  1  0
 22 23  2  0
 23 24  1  0
 24 25  2  0
 26 27  1  6
 26 28  1  0
 28 29  1  6
M  END
