
     RDKit          3D

 29 31  0  0  0  0  0  0  0  0999 V2000
   -2.5040    2.8090   -0.3810 C   0  0  0  0  0  0  0  0  0  0  0  0
   -3.4800    1.8590   -0.2270 O   0  0  0  0  0  0  0  0  0  0  0  0
   -3.4690    0.9000   -1.2380 C   0  0  0  0  0  0  0  0  0  0  0  0
   -2.1610    0.1930   -1.2520 C   0  0  0  0  0  0  0  0  0  0  0  0
   -1.7530   -0.4880   -0.0790 N   0  0  0  0  0  0  0  0  0  0  0  0
   -2.4110   -0.6080    1.1920 C   0  0  0  0  0  0  0  0  0  0  0  0
   -3.7250   -0.5590    1.5860 C   0  0  0  0  0  0  0  0  0  0  0  0
   -3.9530   -0.7090    2.9140 N   0  0  0  0  0  0  0  0  0  0  0  0
   -2.9710   -0.8970    3.8210 C   0  0  0  0  0  0  0  0  0  0  0  0
   -1.6730   -0.9470    3.4400 N   0  0  0  0  0  0  0  0  0  0  0  0
   -1.4110   -0.8010    2.1260 C   0  0  0  0  0  0  0  0  0  0  0  0
   -0.1570   -0.8000    1.4320 N   0  0  0  0  0  0  0  0  0  0  0  0
    1.1730   -0.4850    1.7360 C   0  0  0  0  0  0  0  0  0  0  0  0
    1.5500   -0.6650    2.9180 O   0  0  0  0  0  0  0  0  0  0  0  0
    2.1490    0.0490    0.7240 C   0  0  2  0  0  0  0  0  0  0  0  0
    3.3530   -0.6480    0.8520 O   0  0  0  0  0  0  0  0  0  0  0  0
    2.3180    1.3790    1.0820 O   0  0  0  0  0  0  0  0  0  0  0  0
    3.2260    2.0940    0.3620 C   0  0  0  0  0  0  0  0  0  0  0  0
    4.9210    1.3030    0.4970 P   0  0  0  0  0  0  0  0  0  0  0  0
    6.1080    2.5640    0.3620 O   0  0  0  0  0  0  0  0  0  0  0  0
    5.1360    0.2490   -0.8660 O   0  0  0  0  0  0  0  0  0  0  0  0
    1.5830   -0.1480   -0.6290 C   0  0  0  0  0  0  0  0  0  0  0  0
    2.0660    0.4830   -1.5970 O   0  0  0  0  0  0  0  0  0  0  0  0
    0.4900   -1.0500   -0.8700 N   0  0  0  0  0  0  0  0  0  0  0  0
    0.4450   -1.7610   -2.1000 C   0  0  0  0  0  0  0  0  0  0  0  0
    1.4270   -1.5750   -3.1050 N   0  0  0  0  0  0  0  0  0  0  0  0
   -0.4620   -2.5940   -2.3720 O   0  0  0  0  0  0  0  0  0  0  0  0
   -0.5020   -1.2430    0.0990 C   0  0  2  0  0  0  0  0  0  0  0  0
   -0.9460   -2.7060    0.2360 C   0  0  0  0  0  0  0  0  0  0  0  0
  1  2  1  0
  2  3  1  0
  3  4  1  0
  4  5  1  0
  5  6  1  0
  5 28  1  0
  6  7  2  0
  6 11  1  0
  7  8  1  0
  8  9  2  0
  9 10  1  0
 10 11  2  0
 11 12  1  0
 12 13  1  0
 12 28  1  0
 13 14  2  0
 13 15  1  0
 15 16  1  6
 15 17  1  0
 15 22  1  0
 17 18  1  0
 18 19  1  0
 19 20  1  0
 19 21  1  0
 22 23  2  0
 22 24  1  0
 24 25  1  0
 24 28  1  0
 25 26  1  0
 25 27  2  0
 28 29  1  1
M  END
