
     RDKit          3D

 29 30  0  0  0  0  0  0  0  0999 V2000
    1.5100   -0.1340    2.2830 N   0  0  0  0  0  0  0  0  0  0  0  0
    2.0660   -1.1510    1.4770 C   0  0  1  0  0  0  0  0  0  0  0  0
    0.9390   -2.1270    1.1120 C   0  0  0  0  0  0  0  0  0  0  0  0
   -0.1160   -1.4950    0.3940 N   0  0  0  0  0  0  0  0  0  0  0  0
   -1.2320   -0.9110    1.0890 C   0  0  0  0  0  0  0  0  0  0  0  0
   -1.6830    0.4170    0.5360 C   0  0  2  0  0  0  0  0  0  0  0  0
   -3.1160    0.5500    0.5100 N   0  0  0  0  0  0  0  0  0  0  0  0
   -3.7270    1.5340    1.1850 C   0  0  0  0  0  0  0  0  0  0  0  0
   -3.0730    2.3850    1.8720 O   0  0  0  0  0  0  0  0  0  0  0  0
   -5.0620    1.6930    1.1870 N   0  0  0  0  0  0  0  0  0  0  0  0
   -5.8030    0.8300    0.4840 C   0  0  0  0  0  0  0  0  0  0  0  0
   -5.2100   -0.2010   -0.2270 C   0  0  0  0  0  0  0  0  0  0  0  0
   -5.9930   -1.1520   -0.9990 C   0  0  0  0  0  0  0  0  0  0  0  0
   -5.4610   -2.0750   -1.6350 O   0  0  0  0  0  0  0  0  0  0  0  0
   -7.3690   -1.0140   -1.0160 O   0  0  0  0  0  0  0  0  0  0  0  0
   -3.8250   -0.3380   -0.2090 C   0  0  0  0  0  0  0  0  0  0  0  0
   -3.3150   -1.2810   -0.8620 O   0  0  0  0  0  0  0  0  0  0  0  0
   -1.1650    0.7360   -0.8290 C   0  0  0  0  0  0  0  0  0  0  0  0
   -0.8510   -0.4010   -1.6380 N   0  0  0  0  0  0  0  0  0  0  0  0
   -0.0740   -1.4400   -1.0200 C   0  0  0  0  0  0  0  0  0  0  0  0
    0.5970   -2.2400   -1.7150 O   0  0  0  0  0  0  0  0  0  0  0  0
    2.8320   -0.7250    0.3170 C   0  0  0  0  0  0  0  0  0  0  0  0
    3.3410   -1.6080   -0.4210 O   0  0  0  0  0  0  0  0  0  0  0  0
    3.0160    0.6420    0.0030 N   0  0  0  0  0  0  0  0  0  0  0  0
    3.7640    1.1140   -1.1300 C   0  0  0  0  0  0  0  0  0  0  0  0
    5.2090    0.6570   -1.0870 C   0  0  0  0  0  0  0  0  0  0  0  0
    6.0620    1.2780    0.4330 P   0  0  0  0  0  0  0  0  0  0  0  0
    7.2160    0.0870    0.9440 O   0  0  0  0  0  0  0  0  0  0  0  0
    6.9350    2.7440    0.1100 O   0  0  0  0  0  0  0  0  0  0  0  0
  2  1  1  6
  2  3  1  0
  2 22  1  0
  3  4  1  0
  4  5  1  0
  4 20  1  0
  5  6  1  0
  6  7  1  6
  6 18  1  0
  7  8  1  0
  7 16  1  0
  8  9  2  0
  8 10  1  0
 10 11  1  0
 11 12  2  0
 12 13  1  0
 12 16  1  0
 13 14  2  0
 13 15  1  0
 16 17  2  0
 18 19  1  0
 19 20  1  0
 20 21  2  0
 22 23  2  0
 22 24  1  0
 24 25  1  0
 25 26  1  0
 26 27  1  0
 27 28  1  0
 27 29  1  0
M  END
