
     RDKit          3D

 28 29  0  0  0  0  0  0  0  0999 V2000
   -5.0050    1.9700    0.9420 C   0  0  0  0  0  0  0  0  0  0  0  0
   -4.4470    1.1000   -0.0460 N   0  0  0  0  0  0  0  0  0  0  0  0
   -4.7360   -0.2770    0.1580 C   0  0  2  0  0  0  0  0  0  0  0  0
   -5.9410   -0.5330    0.9090 N   0  0  0  0  0  0  0  0  0  0  0  0
   -3.5670   -1.0760    0.7300 C   0  0  0  0  0  0  0  0  0  0  0  0
   -2.5900   -1.0840   -0.3430 N   0  0  0  0  0  0  0  0  0  0  0  0
   -1.9450   -2.2490   -0.7880 C   0  0  0  0  0  0  0  0  0  0  0  0
   -2.5130   -3.5050   -0.8350 C   0  0  0  0  0  0  0  0  0  0  0  0
   -1.6040   -4.3730   -1.3150 N   0  0  0  0  0  0  0  0  0  0  0  0
   -0.5180   -3.6840   -1.5550 N   0  0  0  0  0  0  0  0  0  0  0  0
   -0.6660   -2.3820   -1.2540 C   0  0  0  0  0  0  0  0  0  0  0  0
    0.3150   -1.4090   -1.4040 O   0  0  0  0  0  0  0  0  0  0  0  0
    1.2470   -1.0970   -0.4320 C   0  0  0  0  0  0  0  0  0  0  0  0
    1.2120   -1.7230    0.6470 O   0  0  0  0  0  0  0  0  0  0  0  0
    2.2420   -0.0990   -0.6050 N   0  0  0  0  0  0  0  0  0  0  0  0
    3.2120    0.1930    0.4630 C   0  0  0  0  0  0  0  0  0  0  0  0
    4.1500    1.2830    0.0350 C   0  0  0  0  0  0  0  0  0  0  0  0
    5.1250    1.5670    1.1420 C   0  0  0  0  0  0  0  0  0  0  0  0
    5.9390    0.3650    1.4890 C   0  0  0  0  0  0  0  0  0  0  0  0
    6.8740   -0.1510   -0.0360 P   0  0  0  0  0  0  0  0  0  0  0  0
    7.1820    1.2970   -0.9660 O   0  0  0  0  0  0  0  0  0  0  0  0
    8.3490   -0.9430    0.4070 O   0  0  0  0  0  0  0  0  0  0  0  0
   -2.3400    0.2000   -0.9170 C   0  0  0  0  0  0  0  0  0  0  0  0
   -1.5780    0.3470   -1.9120 O   0  0  0  0  0  0  0  0  0  0  0  0
   -3.0490    1.3250   -0.2420 C   0  0  1  0  0  0  0  0  0  0  0  0
   -2.7660    2.6210   -0.9150 C   0  0  0  0  0  0  0  0  0  0  0  0
   -1.5900    2.9860   -1.1690 O   0  0  0  0  0  0  0  0  0  0  0  0
   -3.7900    3.4790   -1.2900 O   0  0  0  0  0  0  0  0  0  0  0  0
  1  2  1  0
  2  3  1  0
  2 25  1  0
  3  4  1  1
  3  5  1  0
  5  6  1  0
  6  7  1  0
  6 23  1  0
  7  8  2  0
  7 11  1  0
  8  9  1  0
  9 10  1  0
 10 11  2  0
 11 12  1  0
 12 13  1  0
 13 14  2  0
 13 15  1  0
 15 16  1  0
 16 17  1  0
 17 18  1  0
 18 19  1  0
 19 20  1  0
 20 21  1  0
 20 22  1  0
 23 24  2  0
 23 25  1  0
 25 26  1  6
 26 27  2  0
 26 28  1  0
M  END
