
     RDKit          3D

 29 31  0  0  0  0  0  0  0  0999 V2000
    6.0350   -2.1010    0.7200 N   0  0  0  0  0  0  0  0  0  0  0  0
    5.0360   -1.5380   -0.1950 C   0  0  0  0  0  0  0  0  0  0  0  0
    4.1860   -0.5900    0.5770 C   0  0  0  0  0  0  0  0  0  0  0  0
    3.1200    0.0670   -0.2660 C   0  0  2  0  0  0  0  0  0  0  0  0
    2.3940    0.9760    0.6810 C   0  0  0  0  0  0  0  0  0  0  0  0
    2.8160    1.5860    1.6160 O   0  0  0  0  0  0  0  0  0  0  0  0
    0.9830    0.8950    0.1090 C   0  0  1  0  0  0  0  0  0  0  0  0
    1.0920    1.6910   -1.1440 C   0  0  0  0  0  0  0  0  0  0  0  0
    1.5000    1.0800   -2.1580 O   0  0  0  0  0  0  0  0  0  0  0  0
    0.7370    3.0210   -1.0810 O   0  0  0  0  0  0  0  0  0  0  0  0
   -0.3110    3.5910   -0.3770 C   0  0  0  0  0  0  0  0  0  0  0  0
   -1.5450    3.8020   -1.1760 C   0  0  0  0  0  0  0  0  0  0  0  0
   -2.7310    3.2790   -0.9470 C   0  0  0  0  0  0  0  0  0  0  0  0
   -3.7260    3.6440   -1.8580 O   0  0  0  0  0  0  0  0  0  0  0  0
   -3.0970    2.4350    0.0640 O   0  0  0  0  0  0  0  0  0  0  0  0
   -2.6650    1.2220    0.5100 C   0  0  0  0  0  0  0  0  0  0  0  0
   -2.1990    0.2710   -0.5570 C   0  0  0  0  0  0  0  0  0  0  0  0
   -1.6360   -0.9460   -0.0150 N   0  0  0  0  0  0  0  0  0  0  0  0
   -2.4050   -2.0080    0.4030 C   0  0  0  0  0  0  0  0  0  0  0  0
   -3.8370   -2.0850    0.3830 N   0  0  0  0  0  0  0  0  0  0  0  0
   -4.6510   -3.5510    0.9710 P   0  0  0  0  0  0  0  0  0  0  0  0
   -3.8560   -5.0010    0.4730 O   0  0  0  0  0  0  0  0  0  0  0  0
   -4.9280   -3.5260    2.6790 O   0  0  0  0  0  0  0  0  0  0  0  0
   -1.5790   -2.9710    0.8400 N   0  0  0  0  0  0  0  0  0  0  0  0
   -0.3830   -2.5280    0.6970 N   0  0  0  0  0  0  0  0  0  0  0  0
   -0.3800   -1.2550    0.1620 C   0  0  0  0  0  0  0  0  0  0  0  0
    0.7970   -0.5110   -0.1040 N   0  0  0  0  0  0  0  0  0  0  0  0
    2.0930   -0.9280   -0.6190 C   0  0  0  0  0  0  0  0  0  0  0  0
    2.3440   -1.9720   -1.2720 O   0  0  0  0  0  0  0  0  0  0  0  0
  1  2  1  0
  2  3  1  0
  4  3  1  1
  4  5  1  0
  4 28  1  0
  5  6  2  0
  7  5  1  1
  7  8  1  0
  7 27  1  0
  8  9  2  0
  8 10  1  0
 10 11  1  0
 11 12  1  0
 12 13  2  0
 13 14  1  0
 13 15  1  0
 15 16  1  0
 16 17  1  0
 17 18  1  0
 18 19  1  0
 18 26  1  0
 19 20  1  0
 19 24  2  0
 20 21  1  0
 21 22  1  0
 21 23  1  0
 24 25  1  0
 25 26  2  0
 26 27  1  0
 27 28  1  0
 28 29  2  0
M  END
