
     RDKit          3D

 29 31  0  0  0  0  0  0  0  0999 V2000
   -2.4600    0.8660    2.6080 C   0  0  0  0  0  0  0  0  0  0  0  0
   -3.3350    0.3810    1.5470 N   0  0  0  0  0  0  0  0  0  0  0  0
   -4.2810    1.0860    0.8090 N   0  0  0  0  0  0  0  0  0  0  0  0
   -4.6070    0.4060   -0.2630 C   0  0  0  0  0  0  0  0  0  0  0  0
   -5.5060    0.6380   -1.3520 N   0  0  0  0  0  0  0  0  0  0  0  0
   -6.0520   -0.4530   -2.0850 C   0  0  0  0  0  0  0  0  0  0  0  0
   -6.8330   -0.3040   -3.0350 O   0  0  0  0  0  0  0  0  0  0  0  0
   -5.6300   -1.7600   -1.6440 N   0  0  0  0  0  0  0  0  0  0  0  0
   -4.9070   -1.9560   -0.4200 C   0  0  0  0  0  0  0  0  0  0  0  0
   -3.8540   -0.8370   -0.2500 C   0  0  1  0  0  0  0  0  0  0  0  0
   -2.8430   -1.0730   -1.2880 C   0  0  0  0  0  0  0  0  0  0  0  0
   -1.6910   -0.1760   -1.4370 C   0  0  1  0  0  0  0  0  0  0  0  0
   -1.9530    1.2560   -1.7560 C   0  0  0  0  0  0  0  0  0  0  0  0
   -1.0620    2.0180   -0.9870 O   0  0  0  0  0  0  0  0  0  0  0  0
   -0.1160    1.0230   -0.5960 C   0  0  1  0  0  0  0  0  0  0  0  0
    0.7450    0.8400   -1.8020 C   0  0  0  0  0  0  0  0  0  0  0  0
    0.6630    1.5460    0.5650 C   0  0  0  0  0  0  0  0  0  0  0  0
    1.5690    0.7200    1.1600 O   0  0  0  0  0  0  0  0  0  0  0  0
    2.7250    0.1350    0.8350 C   0  0  0  0  0  0  0  0  0  0  0  0
    3.2310    0.3190   -0.2770 O   0  0  0  0  0  0  0  0  0  0  0  0
    3.4630   -0.7380    1.7250 N   0  0  0  0  0  0  0  0  0  0  0  0
    4.7100   -1.3410    1.3150 C   0  0  0  0  0  0  0  0  0  0  0  0
    5.7820   -0.3670    0.9610 C   0  0  0  0  0  0  0  0  0  0  0  0
    6.9130   -1.1300    0.5900 O   0  0  0  0  0  0  0  0  0  0  0  0
    8.2340   -0.1050    0.1540 P   0  0  0  0  0  0  0  0  0  0  0  0
    7.7490    1.5400    0.1830 O   0  0  0  0  0  0  0  0  0  0  0  0
    9.6110   -0.3460    1.1570 O   0  0  0  0  0  0  0  0  0  0  0  0
   -0.9000   -0.0620   -0.2920 O   0  0  0  0  0  0  0  0  0  0  0  0
   -3.3330   -0.9470    1.1070 N   0  0  0  0  0  0  0  0  0  0  0  0
  1  2  1  0
  2  3  1  0
  2 29  1  0
  3  4  2  0
  4  5  1  0
  4 10  1  0
  5  6  1  0
  6  7  2  0
  6  8  1  0
  8  9  1  0
  9 10  1  0
 10 11  1  6
 10 29  1  0
 12 11  1  1
 12 13  1  0
 12 28  1  0
 13 14  1  0
 14 15  1  0
 15 16  1  6
 15 17  1  0
 15 28  1  0
 17 18  1  0
 18 19  1  0
 19 20  2  0
 19 21  1  0
 21 22  1  0
 22 23  1  0
 23 24  1  0
 24 25  1  0
 25 26  1  0
 25 27  1  0
M  END
