
     RDKit          3D

 29 30  0  0  0  0  0  0  0  0999 V2000
   -1.8380    5.1230   -0.1790 C   0  0  0  0  0  0  0  0  0  0  0  0
   -1.3690    3.8130   -0.2510 O   0  0  0  0  0  0  0  0  0  0  0  0
   -2.2680    3.0960   -1.0430 C   0  0  0  0  0  0  0  0  0  0  0  0
   -1.7630    1.6530   -1.1300 C   0  0  1  0  0  0  0  0  0  0  0  0
   -0.4770    1.6120   -1.7080 O   0  0  0  0  0  0  0  0  0  0  0  0
    0.5950    1.0030   -1.0800 C   0  0  0  0  0  0  0  0  0  0  0  0
    1.9040    1.1760   -1.4460 C   0  0  0  0  0  0  0  0  0  0  0  0
    2.8470    0.5160   -0.7380 N   0  0  0  0  0  0  0  0  0  0  0  0
    2.5580   -0.2900    0.2920 C   0  0  0  0  0  0  0  0  0  0  0  0
    3.6010   -0.9490    0.9870 N   0  0  0  0  0  0  0  0  0  0  0  0
    4.9600   -0.7650    0.6020 C   0  0  0  0  0  0  0  0  0  0  0  0
    5.2400   -0.0770   -0.4450 N   0  0  0  0  0  0  0  0  0  0  0  0
    5.9670   -1.3540    1.3960 N   0  0  0  0  0  0  0  0  0  0  0  0
    7.6690   -1.3630    0.8700 P   0  0  0  0  0  0  0  0  0  0  0  0
    7.9310   -2.3990   -0.4970 O   0  0  0  0  0  0  0  0  0  0  0  0
    8.2890    0.2220    0.6150 O   0  0  0  0  0  0  0  0  0  0  0  0
    1.2830   -0.4570    0.6470 N   0  0  0  0  0  0  0  0  0  0  0  0
    0.3260    0.1740   -0.0220 C   0  0  0  0  0  0  0  0  0  0  0  0
   -1.1130   -0.0060    0.3670 C   0  0  2  0  0  0  0  0  0  0  0  0
   -1.5910   -1.2340   -0.3140 C   0  0  0  0  0  0  0  0  0  0  0  0
   -2.8900   -1.6610    0.0780 N   0  0  0  0  0  0  0  0  0  0  0  0
   -4.0350   -1.3220   -0.7500 C   0  0  0  0  0  0  0  0  0  0  0  0
   -4.8400   -0.1660   -0.2990 C   0  0  0  0  0  0  0  0  0  0  0  0
   -5.9000   -0.0230   -1.2440 O   0  0  0  0  0  0  0  0  0  0  0  0
   -3.1290   -2.4950    1.1710 C   0  0  0  0  0  0  0  0  0  0  0  0
   -4.3700   -2.7740    1.3930 O   0  0  0  0  0  0  0  0  0  0  0  0
   -2.1320   -3.0640    2.0590 C   0  0  0  0  0  0  0  0  0  0  0  0
   -0.8350   -2.7770    1.7840 O   0  0  0  0  0  0  0  0  0  0  0  0
   -1.8330    1.1300    0.1390 O   0  0  0  0  0  0  0  0  0  0  0  0
  1  2  1  0
  2  3  1  0
  4  3  1  1
  4  5  1  0
  4 29  1  0
  5  6  1  0
  6  7  2  0
  6 18  1  0
  7  8  1  0
  8  9  2  0
  9 10  1  0
  9 17  1  0
 10 11  1  0
 11 12  2  0
 11 13  1  0
 13 14  1  0
 14 15  1  0
 14 16  1  0
 17 18  2  0
 18 19  1  0
 19 20  1  6
 19 29  1  0
 20 21  1  0
 21 22  1  0
 21 25  1  0
 22 23  1  0
 23 24  1  0
 25 26  2  0
 25 27  1  0
 27 28  1  0
M  END
