
     RDKit          3D

 29 30  0  0  0  0  0  0  0  0999 V2000
    1.5540   -2.8430    0.2880 C   0  0  0  0  0  0  0  0  0  0  0  0
    1.5410   -2.1860   -0.9900 N   0  0  0  0  0  0  0  0  0  0  0  0
    0.7090   -2.8240   -2.0100 C   0  0  0  0  0  0  0  0  0  0  0  0
   -0.6660   -2.3200   -1.9960 C   0  0  0  0  0  0  0  0  0  0  0  0
   -1.4960   -2.7790   -2.8200 O   0  0  0  0  0  0  0  0  0  0  0  0
   -1.1130   -1.3280   -1.0870 N   0  0  0  0  0  0  0  0  0  0  0  0
   -2.4320   -0.8210   -1.0470 C   0  0  0  0  0  0  0  0  0  0  0  0
   -3.2640   -1.2960   -1.8900 O   0  0  0  0  0  0  0  0  0  0  0  0
   -2.8520    0.1760   -0.1230 N   0  0  0  0  0  0  0  0  0  0  0  0
   -1.8710    0.6740    0.8030 C   0  0  0  0  0  0  0  0  0  0  0  0
   -2.3440    1.7420    1.7180 C   0  0  0  0  0  0  0  0  0  0  0  0
   -3.7430    1.9910    1.7510 N   0  0  0  0  0  0  0  0  0  0  0  0
   -4.5910    0.9260    1.3120 C   0  0  2  0  0  0  0  0  0  0  0  0
   -4.3710   -0.2710    2.1300 C   0  0  0  0  0  0  0  0  0  0  0  0
   -5.0780   -1.4800    1.9090 N   0  0  0  0  0  0  0  0  0  0  0  0
   -3.5300   -0.2370    3.0600 O   0  0  0  0  0  0  0  0  0  0  0  0
   -4.2250    0.6400   -0.1510 C   0  0  0  0  0  0  0  0  0  0  0  0
    2.2660   -1.0220   -1.2410 C   0  0  0  0  0  0  0  0  0  0  0  0
    2.1370   -0.5710   -2.4510 O   0  0  0  0  0  0  0  0  0  0  0  0
    3.1220   -0.2490   -0.3930 C   0  0  0  0  0  0  0  0  0  0  0  0
    3.4590   -0.4220    0.8540 C   0  0  0  0  0  0  0  0  0  0  0  0
    4.3930    0.6530    1.3370 C   0  0  2  0  0  0  0  0  0  0  0  0
    3.8120    1.4070    2.3510 O   0  0  0  0  0  0  0  0  0  0  0  0
    4.5230    1.4520    0.1620 N   0  0  0  0  0  0  0  0  0  0  0  0
    3.8350    0.9840   -0.8110 C   0  0  0  0  0  0  0  0  0  0  0  0
    3.8160    1.6080   -2.0570 O   0  0  0  0  0  0  0  0  0  0  0  0
    4.0780    3.3330   -2.2450 P   0  0  0  0  0  0  0  0  0  0  0  0
    5.5980    3.6620   -3.0330 O   0  0  0  0  0  0  0  0  0  0  0  0
    4.0330    4.1600   -0.7160 O   0  0  0  0  0  0  0  0  0  0  0  0
  1  2  1  0
  2  3  1  0
  2 18  1  0
  3  4  1  0
  4  5  2  0
  4  6  1  0
  6  7  1  0
  7  8  2  0
  7  9  1  0
  9 10  1  0
  9 17  1  0
 10 11  1  0
 11 12  1  0
 12 13  1  0
 13 14  1  1
 13 17  1  0
 14 15  1  0
 14 16  2  0
 18 19  2  0
 18 20  1  0
 20 21  2  0
 20 25  1  0
 21 22  1  0
 22 23  1  1
 22 24  1  0
 24 25  2  0
 25 26  1  0
 26 27  1  0
 27 28  1  0
 27 29  1  0
M  END
