
     RDKit          3D

 23 26  0  0  0  0  0  0  0  0999 V2000
    4.1750   -1.7780    0.1010 O   0  0  0  0  0  0  0  0  0  0  0  0
    3.7370   -0.6090    0.2160 C   0  0  0  0  0  0  0  0  0  0  0  0
    2.3310   -0.4430    0.1440 N   0  0  0  0  0  0  0  0  0  0  0  0
    1.4350   -1.5420   -0.0500 C   0  0  0  0  0  0  0  0  0  0  0  0
    1.9300   -2.8060   -0.1730 N   0  0  0  0  0  0  0  0  0  0  0  0
    1.0690   -3.8160   -0.3550 C   0  0  0  0  0  0  0  0  0  0  0  0
   -0.3010   -3.5900   -0.4170 C   0  0  0  0  0  0  0  0  0  0  0  0
   -0.7940   -2.3110   -0.2920 C   0  0  0  0  0  0  0  0  0  0  0  0
   -2.0360   -1.7460   -0.3050 N   0  0  0  0  0  0  0  0  0  0  0  0
   -1.9720   -0.4350   -0.1390 C   0  0  0  0  0  0  0  0  0  0  0  0
   -3.0140    0.5880   -0.0820 C   0  0  0  0  0  0  0  0  0  0  0  0
   -4.3450    0.3430   -0.2000 C   0  0  0  0  0  0  0  0  0  0  0  0
   -4.9510   -1.3050   -0.4430 Cl  0  0  0  0  0  0  0  0  0  0  0  0
   -5.3160    1.3480   -0.1400 C   0  0  0  0  0  0  0  0  0  0  0  0
   -4.9200    2.6520    0.0460 C   0  0  0  0  0  0  0  0  0  0  0  0
   -3.5730    2.9080    0.1670 C   0  0  0  0  0  0  0  0  0  0  0  0
   -2.6340    1.9260    0.1080 C   0  0  0  0  0  0  0  0  0  0  0  0
   -0.9570    2.3110    0.2660 Cl  0  0  0  0  0  0  0  0  0  0  0  0
   -0.6340   -0.1570   -0.0160 N   0  0  0  0  0  0  0  0  0  0  0  0
    0.0830   -1.2790   -0.1070 C   0  0  0  0  0  0  0  0  0  0  0  0
    4.6890    0.5050    0.4160 C   0  0  1  0  0  0  0  0  0  0  0  0
    4.3940    1.8570   -0.1320 C   0  0  0  0  0  0  0  0  0  0  0  0
    4.3670    1.6170    1.3430 C   0  0  0  0  0  0  0  0  0  0  0  0
  1  2  2  0
  2  3  1  0
 21  2  1  6
  3  4  1  0
  4  5  2  0
  4 20  1  0
  5  6  1  0
  6  7  2  0
  7  8  1  0
  8  9  1  0
  8 20  2  0
  9 10  1  0
 10 11  1  0
 10 19  2  0
 11 12  2  0
 11 17  1  0
 12 13  1  0
 12 14  1  0
 14 15  2  0
 15 16  1  0
 16 17  2  0
 17 18  1  0
 19 20  1  0
 21 22  1  0
 21 23  1  0
 22 23  1  0
M  END
