
     RDKit          3D

 23 26  0  0  0  0  0  0  0  0999 V2000
   -4.3890    2.5280    2.2370 C   0  0  0  0  0  0  0  0  0  0  0  0
   -4.3370    1.6690    1.2310 C   0  0  0  0  0  0  0  0  0  0  0  0
   -3.0680    1.0650    0.8530 C   0  0  0  0  0  0  0  0  0  0  0  0
   -1.8600    1.2900    1.4390 C   0  0  0  0  0  0  0  0  0  0  0  0
   -0.8760    0.5180    0.7850 C   0  0  0  0  0  0  0  0  0  0  0  0
    0.5000    0.5000    1.2080 C   0  0  0  0  0  0  0  0  0  0  0  0
    0.6710    1.1040    2.3830 O   0  0  0  0  0  0  0  0  0  0  0  0
    1.6530   -0.0170    0.6250 N   0  0  0  0  0  0  0  0  0  0  0  0
    2.8840    0.1100    1.4520 C   0  0  0  0  0  0  0  0  0  0  0  0
    3.8930   -0.9770    1.0310 C   0  0  0  0  0  0  0  0  0  0  0  0
    4.2080   -0.5970   -0.3830 C   0  0  0  0  0  0  0  0  0  0  0  0
    5.2960   -0.3770   -1.1200 N   0  0  0  0  0  0  0  0  0  0  0  0
    4.9550   -0.0310   -2.3560 N   0  0  0  0  0  0  0  0  0  0  0  0
    3.5970   -0.0160   -2.4640 C   0  0  0  0  0  0  0  0  0  0  0  0
    3.1440   -0.3770   -1.2060 C   0  0  0  0  0  0  0  0  0  0  0  0
    1.7590   -0.5730   -0.6650 C   0  0  0  0  0  0  0  0  0  0  0  0
   -1.5270   -0.1730   -0.2030 N   0  0  0  0  0  0  0  0  0  0  0  0
   -2.8390    0.1700   -0.1480 C   0  0  0  0  0  0  0  0  0  0  0  0
   -3.6040   -0.5380   -1.2200 C   0  0  2  0  0  0  0  0  0  0  0  0
   -3.5320    0.4250   -2.7020 Cl  0  0  0  0  0  0  0  0  0  0  0  0
   -5.2660   -0.8860   -0.7290 Cl  0  0  0  0  0  0  0  0  0  0  0  0
   -2.7680   -1.7720   -1.3770 C   0  0  0  0  0  0  0  0  0  0  0  0
   -1.3620   -1.1640   -1.2550 C   0  0  0  0  0  0  0  0  0  0  0  0
  1  2  2  0
  2  3  1  0
  3  4  1  0
  3 18  2  0
  4  5  2  0
  5  6  1  0
  5 17  1  0
  6  7  2  0
  6  8  1  0
  8  9  1  0
  8 16  1  0
  9 10  1  0
 10 11  1  0
 11 12  1  0
 11 15  2  0
 12 13  1  0
 13 14  2  0
 14 15  1  0
 15 16  1  0
 17 18  1  0
 17 23  1  0
 18 19  1  0
 19 20  1  6
 19 21  1  0
 19 22  1  0
 22 23  1  0
M  END
