
     RDKit          3D

 23 25  0  0  0  0  0  0  0  0999 V2000
    0.8800   -0.8150   -2.0950 O   0  0  0  0  0  0  0  0  0  0  0  0
    1.9450   -0.6820   -1.4500 C   0  0  0  0  0  0  0  0  0  0  0  0
    3.1760   -1.0100   -2.0990 N   0  0  0  0  0  0  0  0  0  0  0  0
    4.4400   -0.9030   -1.4820 C   0  0  0  0  0  0  0  0  0  0  0  0
    5.5800   -1.2320   -2.1570 N   0  0  0  0  0  0  0  0  0  0  0  0
    6.7890   -1.1370   -1.5850 C   0  0  0  0  0  0  0  0  0  0  0  0
    6.8870   -0.6950   -0.2820 C   0  0  0  0  0  0  0  0  0  0  0  0
    5.7370   -0.3630    0.4020 C   0  0  0  0  0  0  0  0  0  0  0  0
    4.4810   -0.4560   -0.1750 C   0  0  0  0  0  0  0  0  0  0  0  0
    3.2940   -0.1220    0.5050 N   0  0  0  0  0  0  0  0  0  0  0  0
    1.9760   -0.2170   -0.0920 C   0  0  0  0  0  0  0  0  0  0  0  0
    0.9290    0.1160    0.6180 C   0  0  0  0  0  0  0  0  0  0  0  0
   -0.4430    0.0820    0.1850 C   0  0  0  0  0  0  0  0  0  0  0  0
   -1.3890    0.4540    1.0310 C   0  0  0  0  0  0  0  0  0  0  0  0
   -0.9590    0.9680    2.6270 Cl  0  0  0  0  0  0  0  0  0  0  0  0
   -2.7700    0.4330    0.6350 C   0  0  0  0  0  0  0  0  0  0  0  0
   -3.7750    0.7830    1.4020 C   0  0  0  0  0  0  0  0  0  0  0  0
   -3.4190    1.3140    3.0310 Cl  0  0  0  0  0  0  0  0  0  0  0  0
   -5.1600    0.7500    0.9700 C   0  0  0  0  0  0  0  0  0  0  0  0
   -5.5930    0.3510   -0.2920 C   0  0  0  0  0  0  0  0  0  0  0  0
   -6.9560    0.4570   -0.3170 C   0  0  0  0  0  0  0  0  0  0  0  0
   -7.3450    0.9160    0.9180 C   0  0  0  0  0  0  0  0  0  0  0  0
   -6.2510    1.0810    1.6640 N   0  0  0  0  0  0  0  0  0  0  0  0
  1  2  2  0
  2  3  1  0
  2 11  1  0
  3  4  1  0
  4  5  2  0
  4  9  1  0
  5  6  1  0
  6  7  2  0
  7  8  1  0
  8  9  2  0
  9 10  1  0
 10 11  1  0
 11 12  2  3
 12 13  1  0
 13 14  2  3
 14 15  1  0
 14 16  1  0
 16 17  2  3
 17 18  1  0
 17 19  1  0
 19 20  2  0
 19 23  1  0
 20 21  1  0
 21 22  2  0
 22 23  1  0
M  END
