
     RDKit          3D

 23 25  0  0  0  0  0  0  0  0999 V2000
   -3.8300   -0.1260   -2.5530 C   0  0  0  0  0  0  0  0  0  0  0  0
   -3.8670    0.5330   -1.4050 C   0  0  0  0  0  0  0  0  0  0  0  0
   -5.3760    1.4530   -1.0770 Cl  0  0  0  0  0  0  0  0  0  0  0  0
   -2.8310    0.4230   -0.4270 C   0  0  0  0  0  0  0  0  0  0  0  0
   -2.6940    1.0870    0.7040 C   0  0  0  0  0  0  0  0  0  0  0  0
   -3.5950    2.1090    1.2090 C   0  0  0  0  0  0  0  0  0  0  0  0
   -4.2810    1.5300    2.7660 Cl  0  0  0  0  0  0  0  0  0  0  0  0
   -1.7350   -0.5530   -0.6470 C   0  0  0  0  0  0  0  0  0  0  0  0
   -0.5050   -0.2250   -0.1590 N   0  0  0  0  0  0  0  0  0  0  0  0
    0.5430   -1.0620   -0.1890 C   0  0  0  0  0  0  0  0  0  0  0  0
    1.8360   -0.6580    0.3490 C   0  0  0  0  0  0  0  0  0  0  0  0
    2.9540   -1.4590    0.3530 C   0  0  0  0  0  0  0  0  0  0  0  0
    4.1690   -1.0350    0.8760 C   0  0  0  0  0  0  0  0  0  0  0  0
    4.2740    0.2310    1.4130 C   0  0  0  0  0  0  0  0  0  0  0  0
    5.3030    0.9280    1.9910 C   0  0  0  0  0  0  0  0  0  0  0  0
    4.8480    2.1370    2.3430 N   0  0  0  0  0  0  0  0  0  0  0  0
    3.5700    2.2010    1.9970 N   0  0  0  0  0  0  0  0  0  0  0  0
    3.1530    1.0690    1.4230 C   0  0  0  0  0  0  0  0  0  0  0  0
    1.9680    0.6020    0.8920 C   0  0  0  0  0  0  0  0  0  0  0  0
    0.3190   -2.3010   -0.7500 C   0  0  0  0  0  0  0  0  0  0  0  0
   -0.9220   -2.6410   -1.2440 C   0  0  0  0  0  0  0  0  0  0  0  0
   -1.1790   -3.7480   -1.7620 O   0  0  0  0  0  0  0  0  0  0  0  0
   -1.9590   -1.7360   -1.1820 N   0  0  0  0  0  0  0  0  0  0  0  0
  1  2  2  0
  2  3  1  0
  2  4  1  0
  4  5  2  3
  4  8  1  0
  5  6  1  0
  6  7  1  0
  8  9  2  0
  8 23  1  0
  9 10  1  0
 10 11  1  0
 10 20  2  0
 11 12  2  0
 11 19  1  0
 12 13  1  0
 13 14  2  0
 14 15  1  0
 14 18  1  0
 15 16  2  0
 16 17  1  0
 17 18  1  0
 18 19  2  0
 20 21  1  0
 21 22  2  0
 21 23  1  0
M  END
