
     RDKit          3D

 23 25  0  0  0  0  0  0  0  0999 V2000
   -0.3010   -3.7750    0.3790 N   0  0  0  0  0  0  0  0  0  0  0  0
    0.8200   -3.0170   -0.0380 C   0  0  0  0  0  0  0  0  0  0  0  0
    1.7930   -3.3770   -0.8680 N   0  0  0  0  0  0  0  0  0  0  0  0
    2.5940   -2.3680   -0.9530 N   0  0  0  0  0  0  0  0  0  0  0  0
    2.1840   -1.2990   -0.1840 C   0  0  0  0  0  0  0  0  0  0  0  0
    2.9500   -0.0930   -0.1450 C   0  0  0  0  0  0  0  0  0  0  0  0
    2.6010    1.0530    0.4990 C   0  0  0  0  0  0  0  0  0  0  0  0
    3.4250    2.1900    0.5060 C   0  0  0  0  0  0  0  0  0  0  0  0
    4.6360    2.2080   -0.1410 C   0  0  0  0  0  0  0  0  0  0  0  0
    5.6320    3.6490   -0.1060 Cl  0  0  0  0  0  0  0  0  0  0  0  0
    5.0120    1.0610   -0.8010 C   0  0  0  0  0  0  0  0  0  0  0  0
    4.1970   -0.0430   -0.8000 C   0  0  0  0  0  0  0  0  0  0  0  0
    1.0650   -1.7350    0.3830 N   0  0  0  0  0  0  0  0  0  0  0  0
    0.2610   -1.0040    1.2880 C   0  0  0  0  0  0  0  0  0  0  0  0
   -0.7870   -0.2010    0.5850 C   0  0  0  0  0  0  0  0  0  0  0  0
   -2.0680   -0.3190    0.7500 C   0  0  0  0  0  0  0  0  0  0  0  0
   -3.0060    0.5010    0.0270 C   0  0  0  0  0  0  0  0  0  0  0  0
   -4.3240    0.3360    0.2380 C   0  0  0  0  0  0  0  0  0  0  0  0
   -4.8810   -0.8740    1.3890 Cl  0  0  0  0  0  0  0  0  0  0  0  0
   -5.3520    1.1250   -0.4530 C   0  0  0  0  0  0  0  0  0  0  0  0
   -4.8520    2.0740   -1.3590 O   0  0  0  0  0  0  0  0  0  0  0  0
   -3.5210    2.2570   -1.5880 C   0  0  0  0  0  0  0  0  0  0  0  0
   -2.6080    1.5140   -0.9350 C   0  0  0  0  0  0  0  0  0  0  0  0
  1  2  1  0
  2  3  2  0
  2 13  1  0
  3  4  1  0
  4  5  2  0
  5  6  1  0
  5 13  1  0
  6  7  2  0
  6 12  1  0
  7  8  1  0
  8  9  2  0
  9 10  1  0
  9 11  1  0
 11 12  2  0
 13 14  1  0
 14 15  1  0
 15 16  2  3
 16 17  1  0
 17 18  2  0
 17 23  1  0
 18 19  1  0
 18 20  1  0
 20 21  1  0
 21 22  1  0
 22 23  2  0
M  END
