
     RDKit          3D

 23 26  0  0  0  0  0  0  0  0999 V2000
    0.1350    2.3690    0.4790 O   0  0  0  0  0  0  0  0  0  0  0  0
   -0.2160    1.1620    0.4050 C   0  0  0  0  0  0  0  0  0  0  0  0
    0.8400    0.2060    0.4650 N   0  0  0  0  0  0  0  0  0  0  0  0
    2.2210    0.5190    0.6000 C   0  0  1  0  0  0  0  0  0  0  0  0
    2.8500   -0.0790    1.8330 C   0  0  0  0  0  0  0  0  0  0  0  0
    4.3280   -0.0590    1.8220 C   0  0  0  0  0  0  0  0  0  0  0  0
    4.9680    0.3270    0.5420 C   0  0  0  0  0  0  0  0  0  0  0  0
    4.2580   -0.1510   -0.6320 N   0  0  0  0  0  0  0  0  0  0  0  0
    4.6490   -0.6930   -1.7980 C   0  0  0  0  0  0  0  0  0  0  0  0
    3.5240   -0.9480   -2.5250 C   0  0  0  0  0  0  0  0  0  0  0  0
    2.4810   -0.5560   -1.7860 N   0  0  0  0  0  0  0  0  0  0  0  0
    2.9210   -0.0570   -0.6030 C   0  0  0  0  0  0  0  0  0  0  0  0
   -1.5890    0.7720    0.2690 N   0  0  0  0  0  0  0  0  0  0  0  0
   -2.5770    1.8110    0.2160 C   0  0  0  0  0  0  0  0  0  0  0  0
   -3.5010    1.5170   -0.9710 C   0  0  0  0  0  0  0  0  0  0  0  0
   -4.1100    0.1800   -0.6320 C   0  0  0  0  0  0  0  0  0  0  0  0
   -3.3970   -0.7720   -0.1070 C   0  0  0  0  0  0  0  0  0  0  0  0
   -1.9300   -0.6040    0.1940 C   0  0  0  0  0  0  0  0  0  0  0  0
   -4.2510   -1.9320    0.1080 C   0  0  0  0  0  0  0  0  0  0  0  0
   -3.7110   -3.4710    0.8050 Cl  0  0  0  0  0  0  0  0  0  0  0  0
   -5.4830   -1.6680   -0.2920 C   0  0  0  0  0  0  0  0  0  0  0  0
   -6.8400   -2.7790   -0.2190 Cl  0  0  0  0  0  0  0  0  0  0  0  0
   -5.4990   -0.2780   -0.8070 C   0  0  0  0  0  0  0  0  0  0  0  0
  1  2  2  0
  2  3  1  0
  2 13  1  0
  4  3  1  6
  4  5  1  0
  4 12  1  0
  5  6  1  0
  6  7  1  0
  7  8  1  0
  8  9  1  0
  8 12  1  0
  9 10  2  0
 10 11  1  0
 11 12  2  0
 13 14  1  0
 13 18  1  0
 14 15  1  0
 15 16  1  0
 16 17  2  0
 16 23  1  0
 17 18  1  0
 17 19  1  0
 19 20  1  0
 19 21  2  0
 21 22  1  0
 21 23  1  0
M  END
