
     RDKit          3D

 23 26  0  0  0  0  0  0  0  0999 V2000
    6.6580   -1.4830    1.4830 Cl  0  0  0  0  0  0  0  0  0  0  0  0
    5.8630   -0.0570    2.2030 C   0  0  0  0  0  0  0  0  0  0  0  0
    4.5100    0.0350    1.5550 C   0  0  0  0  0  0  0  0  0  0  0  0
    4.2540    0.9790    0.5720 C   0  0  0  0  0  0  0  0  0  0  0  0
    3.0230    1.0860   -0.0400 C   0  0  0  0  0  0  0  0  0  0  0  0
    2.7310    1.9840   -0.9960 N   0  0  0  0  0  0  0  0  0  0  0  0
    1.5700    2.1000   -1.5880 N   0  0  0  0  0  0  0  0  0  0  0  0
    0.5350    1.2620   -1.2410 C   0  0  0  0  0  0  0  0  0  0  0  0
   -0.6650    1.4410   -1.9350 N   0  0  0  0  0  0  0  0  0  0  0  0
   -1.8130    0.6710   -1.6840 C   0  0  0  0  0  0  0  0  0  0  0  0
   -2.7810    0.6390   -2.7040 C   0  0  0  0  0  0  0  0  0  0  0  0
   -3.9170   -0.0890   -2.4720 C   0  0  0  0  0  0  0  0  0  0  0  0
   -4.1410   -0.7770   -1.2990 C   0  0  0  0  0  0  0  0  0  0  0  0
   -3.1920   -0.7330   -0.3240 C   0  0  0  0  0  0  0  0  0  0  0  0
   -2.0290   -0.0100   -0.5160 C   0  0  0  0  0  0  0  0  0  0  0  0
   -3.7050   -1.5590    0.8100 C   0  0  0  0  0  0  0  0  0  0  0  0
   -5.2090   -1.4510    0.5650 C   0  0  0  0  0  0  0  0  0  0  0  0
   -5.2280   -1.5770   -0.8660 O   0  0  0  0  0  0  0  0  0  0  0  0
    0.8160    0.3700   -0.2940 N   0  0  0  0  0  0  0  0  0  0  0  0
    1.9980    0.2340    0.3250 C   0  0  0  0  0  0  0  0  0  0  0  0
    2.2420   -0.6990    1.2930 C   0  0  0  0  0  0  0  0  0  0  0  0
    3.4870   -0.8120    1.9160 C   0  0  0  0  0  0  0  0  0  0  0  0
    3.7560   -2.0220    3.1520 Cl  0  0  0  0  0  0  0  0  0  0  0  0
  1  2  1  0
  2  3  1  0
  3  4  2  0
  3 22  1  0
  4  5  1  0
  5  6  2  0
  5 20  1  0
  6  7  1  0
  7  8  2  0
  8  9  1  0
  8 19  1  0
  9 10  1  0
 10 11  2  0
 10 15  1  0
 11 12  1  0
 12 13  2  0
 13 14  1  0
 13 18  1  0
 14 15  2  0
 14 16  1  0
 16 17  1  0
 17 18  1  0
 19 20  2  0
 20 21  1  0
 21 22  2  0
 22 23  1  0
M  END
