
     RDKit          3D

 28 30  0  0  0  0  0  0  0  0999 V2000
    9.2070    0.4550   -0.8850 C   0  0  0  0  0  0  0  0  0  0  0  0
    8.0200   -0.3010   -0.4160 C   0  0  0  0  0  0  0  0  0  0  0  0
    6.7440    0.0150   -0.2650 C   0  0  0  0  0  0  0  0  0  0  0  0
    5.8540   -0.8910    0.1930 C   0  0  0  0  0  0  0  0  0  0  0  0
    4.4250   -0.6600    0.4000 N   0  0  0  0  0  0  0  0  0  0  0  0
    3.8780    0.6430    0.0990 C   0  0  0  0  0  0  0  0  0  0  0  0
    2.4200    0.6970    0.3680 C   0  0  0  0  0  0  0  0  0  0  0  0
    1.8640   -0.3430    0.8030 O   0  0  0  0  0  0  0  0  0  0  0  0
    1.6320    1.8470    0.1630 N   0  0  0  0  0  0  0  0  0  0  0  0
    0.2570    1.9350    0.4050 C   0  0  0  0  0  0  0  0  0  0  0  0
   -0.2650    2.7920    1.2640 C   0  0  0  0  0  0  0  0  0  0  0  0
   -1.6680    2.9430    1.5680 C   0  0  0  0  0  0  0  0  0  0  0  0
   -2.6000    2.2690    1.0480 N   0  0  0  0  0  0  0  0  0  0  0  0
   -2.4780    1.2560    0.0910 C   0  0  0  0  0  0  0  0  0  0  0  0
   -3.4820    0.5860   -0.4170 C   0  0  0  0  0  0  0  0  0  0  0  0
   -4.8470    0.8370   -0.0250 N   0  0  0  0  0  0  0  0  0  0  0  0
   -5.9810    0.2570   -0.6860 C   0  0  2  0  0  0  0  0  0  0  0  0
   -6.7590   -0.7000    0.1910 C   0  0  2  0  0  0  0  0  0  0  0  0
   -7.2710    0.0290    1.4110 C   0  0  0  0  0  0  0  0  0  0  0  0
   -5.9860   -1.9320    0.5280 C   0  0  0  0  0  0  0  0  0  0  0  0
   -5.6110   -0.4100   -1.9930 C   0  0  0  0  0  0  0  0  0  0  0  0
   -4.3960   -1.1290   -1.9090 O   0  0  0  0  0  0  0  0  0  0  0  0
   -3.2960   -0.4590   -1.4120 C   0  0  0  0  0  0  0  0  0  0  0  0
   -2.1040   -0.7140   -1.7880 O   0  0  0  0  0  0  0  0  0  0  0  0
   -0.8390    0.8430   -0.4850 S   0  0  0  0  0  0  0  0  0  0  0  0
    6.3540   -2.1440    0.4870 C   0  0  0  0  0  0  0  0  0  0  0  0
    5.6290   -3.3520    1.0070 C   0  0  0  0  0  0  0  0  0  0  0  0
    8.0580   -2.0270    0.1170 S   0  0  0  0  0  0  0  0  0  0  0  0
  1  2  1  0
  2  3  2  0
  2 28  1  0
  3  4  1  0
  4  5  1  0
  4 26  2  0
  5  6  1  0
  6  7  1  0
  7  8  2  0
  7  9  1  0
  9 10  1  0
 10 11  2  0
 10 25  1  0
 11 12  1  0
 12 13  2  0
 13 14  1  0
 14 15  2  3
 14 25  1  0
 15 16  1  0
 15 23  1  0
 16 17  1  0
 17 18  1  0
 17 21  1  6
 18 19  1  1
 18 20  1  0
 21 22  1  0
 22 23  1  0
 23 24  2  0
 26 27  1  0
 26 28  1  0
M  END
