
     RDKit          3D

 28 30  0  0  0  0  0  0  0  0999 V2000
    7.4220    2.4380    1.4820 C   0  0  0  0  0  0  0  0  0  0  0  0
    6.4730    1.5770    1.0390 C   0  0  0  0  0  0  0  0  0  0  0  0
    6.8970    0.3160    0.5340 C   0  0  0  0  0  0  0  0  0  0  0  0
    6.2080   -0.6510    0.0660 C   0  0  0  0  0  0  0  0  0  0  0  0
    7.0830   -1.8600   -0.3820 C   0  0  0  0  0  0  0  0  0  0  0  0
    4.8100   -0.8320   -0.1160 C   0  0  0  0  0  0  0  0  0  0  0  0
    4.4100   -1.9790   -0.6440 O   0  0  0  0  0  0  0  0  0  0  0  0
    3.7230    0.0030    0.1660 N   0  0  0  0  0  0  0  0  0  0  0  0
    2.3750   -0.4410   -0.1270 C   0  0  2  0  0  0  0  0  0  0  0  0
    1.5040    0.7600   -1.1900 S   0  0  0  0  0  0  0  0  0  0  0  0
   -0.2010    0.3760   -0.7030 C   0  0  0  0  0  0  0  0  0  0  0  0
   -0.3170   -0.1190    0.4740 C   0  0  0  0  0  0  0  0  0  0  0  0
   -1.4900   -0.5640    1.2480 C   0  0  0  0  0  0  0  0  0  0  0  0
   -1.2850   -1.1470    2.4640 N   0  0  0  0  0  0  0  0  0  0  0  0
   -2.2010   -1.5950    3.2940 C   0  0  0  0  0  0  0  0  0  0  0  0
   -3.5140   -1.4860    2.9420 C   0  0  0  0  0  0  0  0  0  0  0  0
   -3.8090   -0.8980    1.7080 C   0  0  0  0  0  0  0  0  0  0  0  0
   -2.8020   -0.4450    0.8780 C   0  0  0  0  0  0  0  0  0  0  0  0
   -3.1660    0.1770   -0.3900 C   0  0  0  0  0  0  0  0  0  0  0  0
   -4.5830    0.2480   -0.6720 N   0  0  0  0  0  0  0  0  0  0  0  0
   -5.0220    0.8530   -1.9080 C   0  0  0  0  0  0  0  0  0  0  0  0
   -4.1260    1.2850   -2.6670 O   0  0  0  0  0  0  0  0  0  0  0  0
   -6.4340    0.9450   -2.2340 C   0  0  0  0  0  0  0  0  0  0  0  0
   -7.5260    0.5210   -1.5110 C   0  0  0  0  0  0  0  0  0  0  0  0
   -8.6140    0.8320   -2.2340 N   0  0  0  0  0  0  0  0  0  0  0  0
   -8.2040    1.4280   -3.3650 C   0  0  0  0  0  0  0  0  0  0  0  0
   -6.8950    1.4800   -3.3330 O   0  0  0  0  0  0  0  0  0  0  0  0
    1.3030   -0.2370    1.3170 S   0  0  0  0  0  0  0  0  0  0  0  0
  1  2  2  0
  2  3  1  0
  3  4  2  3
  4  5  1  0
  4  6  1  0
  6  7  2  0
  6  8  1  0
  9  8  1  1
  9 10  1  0
  9 28  1  0
 10 11  1  0
 11 12  2  0
 12 13  1  0
 12 28  1  0
 13 14  2  0
 13 18  1  0
 14 15  1  0
 15 16  2  0
 16 17  1  0
 17 18  2  0
 18 19  1  0
 19 20  1  0
 20 21  1  0
 21 22  2  0
 21 23  1  0
 23 24  2  0
 23 27  1  0
 24 25  1  0
 25 26  2  0
 26 27  1  0
M  END
