
     RDKit          3D

 28 30  0  0  0  0  0  0  0  0999 V2000
    2.3640    3.4640   -1.4260 C   0  0  0  0  0  0  0  0  0  0  0  0
    1.9870    2.3510   -2.3340 C   0  0  0  0  0  0  0  0  0  0  0  0
    2.4030    1.1040   -2.1200 C   0  0  0  0  0  0  0  0  0  0  0  0
    3.2410    0.8730   -0.9660 C   0  0  0  0  0  0  0  0  0  0  0  0
    3.7460   -0.2800   -0.5980 C   0  0  0  0  0  0  0  0  0  0  0  0
    4.5880   -0.4870    0.5710 C   0  0  0  0  0  0  0  0  0  0  0  0
    5.0130   -1.6670    0.8140 O   0  0  0  0  0  0  0  0  0  0  0  0
    4.9250    0.5950    1.4170 N   0  0  0  0  0  0  0  0  0  0  0  0
    5.7800    0.2670    2.5650 C   0  0  0  0  0  0  0  0  0  0  0  0
    1.8760   -0.1020   -3.2580 S   0  0  2  0  0  0  0  0  0  0  0  0
    2.8620   -1.2180   -3.4300 O   0  0  0  0  0  0  0  0  0  0  0  0
    1.7430    0.5240   -4.6470 O   0  0  0  0  0  0  0  0  0  0  0  0
    0.3610   -0.7700   -2.7870 N   0  0  0  0  0  0  0  0  0  0  0  0
    0.1420   -1.4770   -1.5800 C   0  0  0  0  0  0  0  0  0  0  0  0
    0.9660   -2.4910   -1.1460 C   0  0  0  0  0  0  0  0  0  0  0  0
    0.7130   -3.1590    0.0210 C   0  0  0  0  0  0  0  0  0  0  0  0
   -0.3820   -2.8090    0.7680 C   0  0  0  0  0  0  0  0  0  0  0  0
   -0.9240   -3.2320    1.9280 N   0  0  0  0  0  0  0  0  0  0  0  0
   -1.9870   -2.5480    2.1950 N   0  0  0  0  0  0  0  0  0  0  0  0
   -2.2270   -1.6340    1.2450 N   0  0  0  0  0  0  0  0  0  0  0  0
   -3.3120   -0.7300    1.2430 C   0  0  1  0  0  0  0  0  0  0  0  0
   -3.0050    0.6310    1.8720 C   0  0  0  0  0  0  0  0  0  0  0  0
   -4.1970    1.5170    1.7110 C   0  0  0  0  0  0  0  0  0  0  0  0
   -5.5030    0.7940    1.5090 C   0  0  0  0  0  0  0  0  0  0  0  0
   -5.4760   -0.1390    0.3200 C   0  0  0  0  0  0  0  0  0  0  0  0
   -4.0040   -0.4530   -0.0340 C   0  0  0  0  0  0  0  0  0  0  0  0
   -1.2390   -1.7840    0.3530 C   0  0  0  0  0  0  0  0  0  0  0  0
   -0.9550   -1.1470   -0.8060 C   0  0  0  0  0  0  0  0  0  0  0  0
  1  2  1  0
  2  3  2  3
  3  4  1  0
  3 10  1  0
  4  5  2  3
  5  6  1  0
  6  7  2  0
  6  8  1  0
  8  9  1  0
 10 11  2  0
 10 12  2  0
 10 13  1  1
 13 14  1  0
 14 15  2  0
 14 28  1  0
 15 16  1  0
 16 17  2  0
 17 18  1  0
 17 27  1  0
 18 19  2  0
 19 20  1  0
 21 20  1  6
 20 27  1  0
 21 22  1  0
 21 26  1  0
 22 23  1  0
 23 24  1  0
 24 25  1  0
 25 26  1  0
 27 28  2  0
M  END
