
     RDKit          3D

 18 20  0  0  0  0  0  0  0  0999 V2000
   -1.6370    1.6240    1.7510 C   0  0  0  0  0  0  0  0  0  0  0  0
   -2.4700    1.1130    0.6670 C   0  0  0  0  0  0  0  0  0  0  0  0
   -3.8290    1.4050    0.4610 C   0  0  0  0  0  0  0  0  0  0  0  0
   -4.2430    0.7690   -0.6370 N   0  0  0  0  0  0  0  0  0  0  0  0
   -3.2450    0.0610   -1.1920 C   0  0  0  0  0  0  0  0  0  0  0  0
   -3.1440   -0.7230   -2.2820 N   0  0  0  0  0  0  0  0  0  0  0  0
   -1.9850   -1.3130   -2.6110 C   0  0  0  0  0  0  0  0  0  0  0  0
   -0.9340   -1.1060   -1.8310 N   0  0  0  0  0  0  0  0  0  0  0  0
   -0.9650   -0.3290   -0.7160 C   0  0  0  0  0  0  0  0  0  0  0  0
    0.1730   -0.1750    0.0910 N   0  0  0  0  0  0  0  0  0  0  0  0
    0.2490   -0.8380    1.3610 C   0  0  0  0  0  0  0  0  0  0  0  0
    1.3750   -1.8820    1.2890 C   0  0  0  0  0  0  0  0  0  0  0  0
    2.3810   -1.5010    0.2290 C   0  0  0  0  0  0  0  0  0  0  0  0
    2.5930   -0.0200    0.2820 C   0  0  1  0  0  0  0  0  0  0  0  0
    3.7180    0.4620   -0.5940 C   0  0  0  0  0  0  0  0  0  0  0  0
    3.4830    0.1460   -1.9310 O   0  0  0  0  0  0  0  0  0  0  0  0
    1.3070    0.6130   -0.3000 C   0  0  0  0  0  0  0  0  0  0  0  0
   -2.1340    0.2780   -0.3710 C   0  0  0  0  0  0  0  0  0  0  0  0
  1  2  1  0
  2  3  2  0
  2 18  1  0
  3  4  1  0
  4  5  1  0
  5  6  2  0
  5 18  1  0
  6  7  1  0
  7  8  2  0
  8  9  1  0
  9 10  1  0
  9 18  2  0
 10 11  1  0
 10 17  1  0
 11 12  1  0
 12 13  1  0
 13 14  1  0
 14 15  1  6
 14 17  1  0
 15 16  1  0
M  END
