
     RDKit          3D

 28 30  0  0  0  0  0  0  0  0999 V2000
    0.6910   -4.6010   -0.8760 C   0  0  0  0  0  0  0  0  0  0  0  0
    0.6980   -3.1420   -0.6310 C   0  0  0  0  0  0  0  0  0  0  0  0
   -0.5120   -2.4430   -0.5070 C   0  0  0  0  0  0  0  0  0  0  0  0
   -0.5650   -1.0980   -0.2810 C   0  0  0  0  0  0  0  0  0  0  0  0
   -1.7480   -0.3440   -0.1360 N   0  0  0  0  0  0  0  0  0  0  0  0
   -3.0450   -0.8410   -0.0460 C   0  0  0  0  0  0  0  0  0  0  0  0
   -3.2570   -2.0740   -0.0870 O   0  0  0  0  0  0  0  0  0  0  0  0
   -4.1920    0.0450    0.0970 N   0  0  0  0  0  0  0  0  0  0  0  0
   -5.4720   -0.5720    0.1800 C   0  0  0  0  0  0  0  0  0  0  0  0
   -6.5140    0.4630    0.3220 C   0  0  0  0  0  0  0  0  0  0  0  0
   -6.5170    1.8180    0.3370 C   0  0  0  0  0  0  0  0  0  0  0  0
   -7.6900    2.4600    0.4930 C   0  0  0  0  0  0  0  0  0  0  0  0
   -8.8230    1.7480    0.6300 C   0  0  0  0  0  0  0  0  0  0  0  0
  -10.2360    2.1610    0.8150 C   0  0  0  0  0  0  0  0  0  0  0  0
   -8.2630    0.0870    0.5410 S   0  0  0  0  0  0  0  0  0  0  0  0
    0.6860   -0.4620   -0.1810 C   0  0  0  0  0  0  0  0  0  0  0  0
    1.8590   -1.1220   -0.2980 C   0  0  0  0  0  0  0  0  0  0  0  0
    3.1210   -0.3760   -0.1790 C   0  0  0  0  0  0  0  0  0  0  0  0
    3.3840    0.9480    0.0400 C   0  0  0  0  0  0  0  0  0  0  0  0
    4.6330    1.2910    0.0920 N   0  0  0  0  0  0  0  0  0  0  0  0
    5.6190    0.6010   -0.0270 C   0  0  0  0  0  0  0  0  0  0  0  0
    7.0960    0.6570   -0.0250 C   0  0  2  0  0  0  0  0  0  0  0  0
    7.6850   -0.7300    0.1080 C   0  0  0  0  0  0  0  0  0  0  0  0
    7.5880    1.4300    1.0250 O   0  0  0  0  0  0  0  0  0  0  0  0
    8.3490    2.4930    0.5470 C   0  0  0  0  0  0  0  0  0  0  0  0
    9.4420    2.0600   -0.1960 O   0  0  0  0  0  0  0  0  0  0  0  0
    4.7640   -1.0720   -0.3030 S   0  0  0  0  0  0  0  0  0  0  0  0
    1.8410   -2.4420   -0.5200 N   0  0  0  0  0  0  0  0  0  0  0  0
  1  2  1  0
  2  3  2  0
  2 28  1  0
  3  4  1  0
  4  5  1  0
  4 16  2  0
  5  6  1  0
  6  7  2  0
  6  8  1  0
  8  9  1  0
  9 10  1  0
 10 11  2  0
 10 15  1  0
 11 12  1  0
 12 13  2  0
 13 14  1  0
 13 15  1  0
 16 17  1  0
 17 18  1  0
 17 28  2  0
 18 19  2  0
 18 27  1  0
 19 20  1  0
 20 21  2  0
 21 22  1  0
 21 27  1  0
 22 23  1  1
 22 24  1  0
 24 25  1  0
 25 26  1  0
M  END
