
     RDKit          3D

 28 30  0  0  0  0  0  0  0  0999 V2000
    7.2130    2.3280   -1.0800 C   0  0  0  0  0  0  0  0  0  0  0  0
    6.6340    2.3450    0.3260 C   0  0  0  0  0  0  0  0  0  0  0  0
    6.0550    0.9970    0.5720 C   0  0  0  0  0  0  0  0  0  0  0  0
    6.6680   -0.1170    1.0990 C   0  0  0  0  0  0  0  0  0  0  0  0
    5.6890   -1.0880    1.1090 C   0  0  0  0  0  0  0  0  0  0  0  0
    4.5260   -0.5180    0.5880 C   0  0  0  0  0  0  0  0  0  0  0  0
    3.2440   -1.2150    0.4240 C   0  0  0  0  0  0  0  0  0  0  0  0
    3.1310   -2.4410    0.7530 O   0  0  0  0  0  0  0  0  0  0  0  0
    2.1050   -0.5550   -0.1000 N   0  0  0  0  0  0  0  0  0  0  0  0
    0.8750   -1.1960   -0.2660 N   0  0  0  0  0  0  0  0  0  0  0  0
    0.2100   -1.9390    0.7460 C   0  0  0  0  0  0  0  0  0  0  0  0
    0.7970   -2.0150    1.8720 O   0  0  0  0  0  0  0  0  0  0  0  0
   -1.0950   -2.6050    0.5440 C   0  0  0  0  0  0  0  0  0  0  0  0
   -1.8660   -2.1920   -1.0400 S   0  0  0  0  0  0  0  0  0  0  0  0
   -2.3710   -0.4840   -0.9910 C   0  0  0  0  0  0  0  0  0  0  0  0
   -1.6950    0.5930   -1.3310 N   0  0  0  0  0  0  0  0  0  0  0  0
   -2.4550    1.6820   -1.1300 C   0  0  0  0  0  0  0  0  0  0  0  0
   -1.8870    3.3440   -1.4640 S   0  0  0  0  0  0  0  0  0  0  0  0
   -3.2150    4.4900   -1.0240 C   0  0  0  0  0  0  0  0  0  0  0  0
   -3.6800    1.2730   -0.6350 C   0  0  0  0  0  0  0  0  0  0  0  0
   -3.5990   -0.0820   -0.5590 N   0  0  0  0  0  0  0  0  0  0  0  0
   -4.6310   -0.9380   -0.1050 C   0  0  0  0  0  0  0  0  0  0  0  0
   -4.9220   -2.0950   -0.7760 C   0  0  0  0  0  0  0  0  0  0  0  0
   -5.9350   -2.9460   -0.3380 C   0  0  0  0  0  0  0  0  0  0  0  0
   -6.6520   -2.6200    0.7810 C   0  0  0  0  0  0  0  0  0  0  0  0
   -6.3430   -1.4530    1.4390 C   0  0  0  0  0  0  0  0  0  0  0  0
   -5.3430   -0.5990    1.0200 C   0  0  0  0  0  0  0  0  0  0  0  0
    4.7940    0.7050    0.2890 O   0  0  0  0  0  0  0  0  0  0  0  0
  1  2  1  0
  2  3  1  0
  3  4  2  0
  3 28  1  0
  4  5  1  0
  5  6  2  0
  6  7  1  0
  6 28  1  0
  7  8  2  0
  7  9  1  0
  9 10  1  0
 10 11  1  0
 11 12  2  0
 11 13  1  0
 13 14  1  0
 14 15  1  0
 15 16  2  0
 15 21  1  0
 16 17  1  0
 17 18  1  0
 17 20  2  0
 18 19  1  0
 20 21  1  0
 21 22  1  0
 22 23  2  0
 22 27  1  0
 23 24  1  0
 24 25  2  0
 25 26  1  0
 26 27  2  0
M  END
