
     RDKit          3D

 27 29  0  0  0  0  0  0  0  0999 V2000
   -5.7860   -3.4880    0.5590 C   0  0  0  0  0  0  0  0  0  0  0  0
   -5.6230   -2.0720    0.0710 C   0  0  0  0  0  0  0  0  0  0  0  0
   -4.2250   -1.6250    0.2900 C   0  0  0  0  0  0  0  0  0  0  0  0
   -3.3190   -2.4860    0.8660 C   0  0  0  0  0  0  0  0  0  0  0  0
   -2.0000   -2.0690    1.0730 C   0  0  0  0  0  0  0  0  0  0  0  0
   -1.1870   -2.8660    1.6000 O   0  0  0  0  0  0  0  0  0  0  0  0
   -1.6540   -0.8280    0.6990 N   0  0  0  0  0  0  0  0  0  0  0  0
   -0.2930   -0.3970    0.9140 C   0  0  0  0  0  0  0  0  0  0  0  0
    0.6650   -0.8180   -0.5580 S   0  0  0  0  0  0  0  0  0  0  0  0
    2.3770   -0.3060   -0.3860 C   0  0  0  0  0  0  0  0  0  0  0  0
    2.8440    0.3230    0.7470 C   0  0  0  0  0  0  0  0  0  0  0  0
    4.1680    0.7080    0.8490 C   0  0  0  0  0  0  0  0  0  0  0  0
    4.6440    1.3820    2.0800 C   0  0  0  0  0  0  0  0  0  0  0  0
    5.0770    0.4840   -0.1670 C   0  0  0  0  0  0  0  0  0  0  0  0
    6.4990    0.9100   -0.0260 C   0  0  0  0  0  0  0  0  0  0  0  0
    4.6120   -0.1470   -1.3030 C   0  0  0  0  0  0  0  0  0  0  0  0
    3.2730   -0.5350   -1.4060 C   0  0  0  0  0  0  0  0  0  0  0  0
    3.1420   -1.1430   -2.6820 N   0  0  0  0  0  0  0  0  0  0  0  0
    4.4190   -1.5340   -3.1060 N   0  0  0  0  0  0  0  0  0  0  0  0
    5.3130   -0.5320   -2.5570 C   0  0  0  0  0  0  0  0  0  0  0  0
   -2.5310    0.0130    0.1370 C   0  0  0  0  0  0  0  0  0  0  0  0
   -1.9780    1.6370   -0.3250 S   0  0  0  0  0  0  0  0  0  0  0  0
   -3.3180    2.6110   -1.0630 C   0  0  0  0  0  0  0  0  0  0  0  0
   -4.3300    2.8630   -0.0110 C   0  0  0  0  0  0  0  0  0  0  0  0
   -4.2340    4.0760    0.8300 C   0  0  0  0  0  0  0  0  0  0  0  0
   -5.2300    2.0700    0.1500 O   0  0  0  0  0  0  0  0  0  0  0  0
   -3.7960   -0.3970   -0.0570 N   0  0  0  0  0  0  0  0  0  0  0  0
  1  2  1  0
  2  3  1  0
  3  4  2  0
  3 27  1  0
  4  5  1  0
  5  6  2  0
  5  7  1  0
  7  8  1  0
  7 21  1  0
  8  9  1  0
  9 10  1  0
 10 11  2  0
 10 17  1  0
 11 12  1  0
 12 13  1  0
 12 14  2  0
 14 15  1  0
 14 16  1  0
 16 17  2  0
 16 20  1  0
 17 18  1  0
 18 19  1  0
 19 20  1  0
 21 22  1  0
 21 27  2  0
 22 23  1  0
 23 24  1  0
 24 25  1  0
 24 26  2  0
M  END
