
     RDKit          3D

 28 30  0  0  0  0  0  0  0  0999 V2000
   -2.5100   -0.0260   -1.3080 O   0  0  0  0  0  0  0  0  0  0  0  0
   -2.8430   -0.4510   -0.1830 C   0  0  0  0  0  0  0  0  0  0  0  0
   -1.8780   -1.0650    0.6430 N   0  0  0  0  0  0  0  0  0  0  0  0
   -0.5310   -1.2710    0.3390 C   0  0  0  0  0  0  0  0  0  0  0  0
    0.3180   -1.6980    1.3700 C   0  0  0  0  0  0  0  0  0  0  0  0
    1.6490   -1.9470    1.2040 C   0  0  0  0  0  0  0  0  0  0  0  0
    2.2350   -1.7820   -0.0310 C   0  0  0  0  0  0  0  0  0  0  0  0
    3.5930   -2.0280   -0.2300 O   0  0  0  0  0  0  0  0  0  0  0  0
    4.4630   -0.9590   -0.0350 C   0  0  0  0  0  0  0  0  0  0  0  0
    5.8030   -1.2330   -0.2510 C   0  0  0  0  0  0  0  0  0  0  0  0
    6.7080   -0.2160   -0.0740 C   0  0  0  0  0  0  0  0  0  0  0  0
    6.2400    1.0080    0.3060 C   0  0  0  0  0  0  0  0  0  0  0  0
    7.2330    2.1080    0.4940 C   0  0  0  0  0  0  0  0  0  0  0  0
    7.4660    3.0030   -1.0680 S   0  0  0  0  0  0  0  0  0  0  0  0
    8.3670    1.7960   -2.5390 S   0  0  0  0  0  0  0  0  0  0  0  0
    4.9420    1.2650    0.5130 N   0  0  0  0  0  0  0  0  0  0  0  0
    4.0440    0.2830    0.3440 C   0  0  0  0  0  0  0  0  0  0  0  0
    1.4400   -1.3650   -1.0690 C   0  0  0  0  0  0  0  0  0  0  0  0
    0.0720   -1.1140   -0.8760 C   0  0  0  0  0  0  0  0  0  0  0  0
   -4.2530   -0.3090    0.2840 C   0  0  0  0  0  0  0  0  0  0  0  0
   -4.5810   -0.7380    1.4040 O   0  0  0  0  0  0  0  0  0  0  0  0
   -5.2250    0.3090   -0.5330 N   0  0  0  0  0  0  0  0  0  0  0  0
   -6.5800    0.5170   -0.2500 C   0  0  0  0  0  0  0  0  0  0  0  0
   -7.2690    0.0570    0.8330 C   0  0  0  0  0  0  0  0  0  0  0  0
   -8.6280    0.3400    1.0140 C   0  0  0  0  0  0  0  0  0  0  0  0
   -9.2970    1.0930    0.0940 C   0  0  0  0  0  0  0  0  0  0  0  0
   -8.6290    1.5500   -0.9760 N   0  0  0  0  0  0  0  0  0  0  0  0
   -7.3260    1.2800   -1.1510 C   0  0  0  0  0  0  0  0  0  0  0  0
  1  2  2  0
  2  3  1  0
  2 20  1  0
  3  4  1  0
  4  5  2  0
  4 19  1  0
  5  6  1  0
  6  7  2  0
  7  8  1  0
  7 18  1  0
  8  9  1  0
  9 10  2  0
  9 17  1  0
 10 11  1  0
 11 12  2  0
 12 13  1  0
 12 16  1  0
 13 14  1  0
 14 15  1  0
 16 17  2  0
 18 19  2  0
 20 21  2  0
 20 22  1  0
 22 23  1  0
 23 24  2  0
 23 28  1  0
 24 25  1  0
 25 26  2  0
 26 27  1  0
 27 28  2  0
M  END
