
     RDKit          3D

 16 17  0  0  0  0  0  0  0  0999 V2000
   -2.6280    2.1770    0.4880 C   0  0  0  0  0  0  0  0  0  0  0  0
   -3.3900    1.0570   -0.1580 C   0  0  0  0  0  0  0  0  0  0  0  0
   -2.4640   -0.0780   -0.5410 C   0  0  0  0  0  0  0  0  0  0  0  0
   -1.8120   -0.5980    0.5630 O   0  0  0  0  0  0  0  0  0  0  0  0
   -0.9510   -1.6490    0.2230 C   0  0  2  0  0  0  0  0  0  0  0  0
   -1.2520   -2.9140    0.8880 C   0  0  0  0  0  0  0  0  0  0  0  0
   -0.2220   -3.4960    1.6590 N   0  0  0  0  0  0  0  0  0  0  0  0
    0.9330   -3.0370    1.8350 C   0  0  0  0  0  0  0  0  0  0  0  0
    1.2630   -1.8070    1.2030 N   0  0  0  0  0  0  0  0  0  0  0  0
    0.4160   -1.1730    0.4720 C   0  0  0  0  0  0  0  0  0  0  0  0
    0.9020    0.0500   -0.0930 N   0  0  0  0  0  0  0  0  0  0  0  0
    1.1930    0.1970   -1.4960 C   0  0  0  0  0  0  0  0  0  0  0  0
    2.6860    0.3990   -1.6430 C   0  0  0  0  0  0  0  0  0  0  0  0
    3.2740    0.8140   -0.3340 C   0  0  0  0  0  0  0  0  0  0  0  0
    2.3890    1.8610    0.3110 C   0  0  0  0  0  0  0  0  0  0  0  0
    1.1120    1.1860    0.7700 C   0  0  0  0  0  0  0  0  0  0  0  0
  1  2  1  0
  2  3  1  0
  3  4  1  0
  5  4  1  1
  5  6  1  0
  5 10  1  0
  6  7  1  0
  7  8  2  0
  8  9  1  0
  9 10  2  0
 10 11  1  0
 11 12  1  0
 11 16  1  0
 12 13  1  0
 13 14  1  0
 14 15  1  0
 15 16  1  0
M  END
