
     RDKit          3D

 16 17  0  0  0  0  0  0  0  0999 V2000
   -4.2310    0.8990    0.4920 C   0  0  0  0  0  0  0  0  0  0  0  0
   -2.9280    0.3430    0.3600 N   0  0  0  0  0  0  0  0  0  0  0  0
   -2.8510   -1.0510    0.1840 C   0  0  0  0  0  0  0  0  0  0  0  0
   -2.1250   -1.5320   -1.0400 C   0  0  0  0  0  0  0  0  0  0  0  0
   -1.0490   -0.6200   -1.4680 C   0  0  0  0  0  0  0  0  0  0  0  0
   -0.3660   -0.9260   -2.4680 O   0  0  0  0  0  0  0  0  0  0  0  0
   -0.8040    0.5650   -0.7620 N   0  0  0  0  0  0  0  0  0  0  0  0
    0.5040    1.1770   -0.7380 C   0  0  0  0  0  0  0  0  0  0  0  0
    1.2590    0.6540    0.3720 N   0  0  0  0  0  0  0  0  0  0  0  0
    0.7910    0.7580    1.7410 C   0  0  0  0  0  0  0  0  0  0  0  0
    2.5230    0.0130    0.1010 C   0  0  0  0  0  0  0  0  0  0  0  0
    3.5120   -0.1280    0.9550 C   0  0  0  0  0  0  0  0  0  0  0  0
    4.6350   -0.8350    0.3090 C   0  0  0  0  0  0  0  0  0  0  0  0
    4.1350   -1.0790   -1.0570 C   0  0  0  0  0  0  0  0  0  0  0  0
    2.9220   -0.5850   -1.1560 C   0  0  0  0  0  0  0  0  0  0  0  0
   -1.8990    1.1840   -0.0460 C   0  0  0  0  0  0  0  0  0  0  0  0
  1  2  1  0
  2  3  1  0
  2 16  1  0
  3  4  1  0
  4  5  1  0
  5  6  2  0
  5  7  1  0
  7  8  1  0
  7 16  1  0
  8  9  1  0
  9 10  1  0
  9 11  1  0
 11 12  2  0
 11 15  1  0
 12 13  1  0
 13 14  1  0
 14 15  2  0
M  END
