
     RDKit          3D

 16 17  0  0  0  0  0  0  0  0999 V2000
    3.9070   -1.8180    1.4160 C   0  0  0  0  0  0  0  0  0  0  0  0
    2.7050   -1.1030    0.9550 C   0  0  0  0  0  0  0  0  0  0  0  0
    2.8060   -0.0510    0.1870 C   0  0  0  0  0  0  0  0  0  0  0  0
    4.1550    0.4050   -0.2080 C   0  0  0  0  0  0  0  0  0  0  0  0
    1.5970    0.6290   -0.2490 C   0  0  0  0  0  0  0  0  0  0  0  0
    1.6810    1.7420   -1.0600 C   0  0  0  0  0  0  0  0  0  0  0  0
    0.5950    2.4070   -1.4900 N   0  0  0  0  0  0  0  0  0  0  0  0
   -0.6470    1.9670   -1.1110 C   0  0  0  0  0  0  0  0  0  0  0  0
   -0.7730    0.8640   -0.3050 C   0  0  0  0  0  0  0  0  0  0  0  0
   -2.0400    0.3900    0.1090 N   0  0  0  0  0  0  0  0  0  0  0  0
   -2.1620   -0.8950    0.8290 C   0  0  0  0  0  0  0  0  0  0  0  0
   -3.4460   -1.5090    0.2790 C   0  0  0  0  0  0  0  0  0  0  0  0
   -3.6980   -1.1200   -1.0350 O   0  0  0  0  0  0  0  0  0  0  0  0
   -4.0250    0.2310   -1.1510 C   0  0  0  0  0  0  0  0  0  0  0  0
   -3.2980    1.0590   -0.1000 C   0  0  0  0  0  0  0  0  0  0  0  0
    0.3680    0.2260    0.1030 N   0  0  0  0  0  0  0  0  0  0  0  0
  1  2  1  0
  2  3  2  3
  3  4  1  0
  3  5  1  0
  5  6  2  0
  5 16  1  0
  6  7  1  0
  7  8  2  0
  8  9  1  0
  9 10  1  0
  9 16  2  0
 10 11  1  0
 10 15  1  0
 11 12  1  0
 12 13  1  0
 13 14  1  0
 14 15  1  0
M  END
