
     RDKit          3D

 15 16  0  0  0  0  0  0  0  0999 V2000
   -2.9940    1.1210   -0.7420 C   0  0  0  0  0  0  0  0  0  0  0  0
   -1.6480    0.5180   -0.7500 C   0  0  0  0  0  0  0  0  0  0  0  0
   -0.9510   -0.0320   -1.7710 C   0  0  0  0  0  0  0  0  0  0  0  0
    0.2050   -0.4220   -1.3650 N   0  0  0  0  0  0  0  0  0  0  0  0
    1.2080   -1.0950   -2.0580 N   0  0  0  0  0  0  0  0  0  0  0  0
    2.1400   -0.4290   -2.7290 C   0  0  0  0  0  0  0  0  0  0  0  0
    3.0890   -1.1660   -3.3730 C   0  0  0  0  0  0  0  0  0  0  0  0
    3.9380   -1.8350   -3.9750 N   0  0  0  0  0  0  0  0  0  0  0  0
    0.3650   -0.1520   -0.0110 C   0  0  0  0  0  0  0  0  0  0  0  0
   -0.8350    0.4530    0.3920 C   0  0  0  0  0  0  0  0  0  0  0  0
   -0.9580    0.7780    1.7900 C   0  0  0  0  0  0  0  0  0  0  0  0
   -1.7900    1.6460    2.1490 O   0  0  0  0  0  0  0  0  0  0  0  0
   -0.1390    0.1280    2.8670 C   0  0  0  0  0  0  0  0  0  0  0  0
    0.8460   -0.8510    2.2820 C   0  0  0  0  0  0  0  0  0  0  0  0
    1.4170   -0.3510    0.9590 C   0  0  0  0  0  0  0  0  0  0  0  0
  1  2  1  0
  2  3  2  0
  2 10  1  0
  3  4  1  0
  4  5  1  0
  4  9  1  0
  5  6  2  3
  6  7  1  0
  7  8  3  0
  9 10  2  0
  9 15  1  0
 10 11  1  0
 11 12  2  0
 11 13  1  0
 13 14  1  0
 14 15  1  0
M  END
