
     RDKit          3D

 16 17  0  0  0  0  0  0  0  0999 V2000
   -3.1690    0.8050    1.0990 C   0  0  0  0  0  0  0  0  0  0  0  0
   -3.5780    1.0500   -0.2680 N   0  0  0  0  0  0  0  0  0  0  0  0
   -3.0040    0.4250   -1.2180 C   0  0  0  0  0  0  0  0  0  0  0  0
   -1.9750   -0.5000   -0.9440 N   0  0  0  0  0  0  0  0  0  0  0  0
   -2.2520   -1.9040   -1.1040 C   0  0  0  0  0  0  0  0  0  0  0  0
   -0.9940   -2.6780   -0.8030 C   0  0  0  0  0  0  0  0  0  0  0  0
   -0.4600   -2.1370    0.5040 C   0  0  0  0  0  0  0  0  0  0  0  0
    0.1280   -0.7410    0.1890 C   0  0  0  0  0  0  0  0  0  0  0  0
    1.4120   -0.4590    0.6880 C   0  0  0  0  0  0  0  0  0  0  0  0
    1.8750   -1.5170    1.3890 O   0  0  0  0  0  0  0  0  0  0  0  0
    2.2950    0.6240    0.6320 N   0  0  0  0  0  0  0  0  0  0  0  0
    3.6600    0.6830    1.3080 C   0  0  0  0  0  0  0  0  0  0  0  0
    4.0960    1.4110    0.0610 C   0  0  0  0  0  0  0  0  0  0  0  0
    2.6320    1.9220    0.1930 C   0  0  0  0  0  0  0  0  0  0  0  0
   -0.6910   -0.0310   -0.5180 C   0  0  0  0  0  0  0  0  0  0  0  0
   -0.3080    1.3300   -0.9070 C   0  0  0  0  0  0  0  0  0  0  0  0
  1  2  1  0
  2  3  2  3
  3  4  1  0
  4  5  1  0
  4 15  1  0
  5  6  1  0
  6  7  1  0
  7  8  1  0
  8  9  1  0
  8 15  2  0
  9 10  2  0
  9 11  1  0
 11 12  1  0
 11 14  1  0
 12 13  1  0
 13 14  1  0
 15 16  1  0
M  END
