
     RDKit          3D

 16 17  0  0  0  0  0  0  0  0999 V2000
    4.0410    1.0170   -1.2780 C   0  0  0  0  0  0  0  0  0  0  0  0
    4.0620    0.3240   -0.1280 C   0  0  0  0  0  0  0  0  0  0  0  0
    5.2360   -0.3520    0.4780 C   0  0  0  0  0  0  0  0  0  0  0  0
    4.6940   -0.9280    1.6770 N   0  0  0  0  0  0  0  0  0  0  0  0
    3.4530   -0.6870    1.8220 C   0  0  0  0  0  0  0  0  0  0  0  0
    2.9660    0.0890    0.7440 N   0  0  0  0  0  0  0  0  0  0  0  0
    1.6240    0.5830    0.5040 C   0  0  0  0  0  0  0  0  0  0  0  0
    0.6760   -0.5200    0.1950 C   0  0  0  0  0  0  0  0  0  0  0  0
    1.1540   -1.6810    0.1790 O   0  0  0  0  0  0  0  0  0  0  0  0
   -0.6880   -0.3120   -0.0700 N   0  0  0  0  0  0  0  0  0  0  0  0
   -1.3300    0.9720   -0.0740 C   0  0  0  0  0  0  0  0  0  0  0  0
   -2.6270    1.0430   -0.7970 C   0  0  0  0  0  0  0  0  0  0  0  0
   -3.5710   -0.0860   -0.5600 C   0  0  2  0  0  0  0  0  0  0  0  0
   -4.7880    0.3110    0.2540 C   0  0  0  0  0  0  0  0  0  0  0  0
   -2.9260   -1.2630    0.1530 C   0  0  0  0  0  0  0  0  0  0  0  0
   -1.5170   -1.4830   -0.3650 C   0  0  0  0  0  0  0  0  0  0  0  0
  1  2  2  0
  2  3  1  0
  2  6  1  0
  3  4  1  0
  4  5  2  0
  5  6  1  0
  6  7  1  0
  7  8  1  0
  8  9  2  0
  8 10  1  0
 10 11  1  0
 10 16  1  0
 11 12  1  0
 12 13  1  0
 13 14  1  1
 13 15  1  0
 15 16  1  0
M  END
