
     RDKit          3D

 16 18  0  0  0  0  0  0  0  0999 V2000
   -4.2690    1.4190   -1.1250 O   0  0  0  0  0  0  0  0  0  0  0  0
   -3.8210    0.5870   -0.2940 C   0  0  0  0  0  0  0  0  0  0  0  0
   -4.4930   -0.1400    0.7670 C   0  0  0  0  0  0  0  0  0  0  0  0
   -3.6330   -0.9190    1.4060 C   0  0  0  0  0  0  0  0  0  0  0  0
   -2.2990   -0.7750    0.8160 C   0  0  0  0  0  0  0  0  0  0  0  0
   -1.2330   -1.3820    1.1880 N   0  0  0  0  0  0  0  0  0  0  0  0
    0.1300   -1.3560    0.7270 C   0  0  0  0  0  0  0  0  0  0  0  0
    0.5260   -0.0880    0.1810 N   0  0  0  0  0  0  0  0  0  0  0  0
    1.9400    0.0610    0.1010 C   0  0  0  0  0  0  0  0  0  0  0  0
    2.7030   -0.7530   -0.6060 C   0  0  0  0  0  0  0  0  0  0  0  0
    4.0960   -0.3290   -0.4790 C   0  0  0  0  0  0  0  0  0  0  0  0
    4.0570    0.8470    0.3980 C   0  0  0  0  0  0  0  0  0  0  0  0
    2.7980    1.0590    0.7260 C   0  0  0  0  0  0  0  0  0  0  0  0
   -0.2110    1.0530   -0.2970 C   0  0  0  0  0  0  0  0  0  0  0  0
   -1.4130    0.6500   -1.1290 C   0  0  0  0  0  0  0  0  0  0  0  0
   -2.4430    0.1660   -0.2380 N   0  0  0  0  0  0  0  0  0  0  0  0
  1  2  2  0
  2  3  1  0
  2 16  1  0
  3  4  2  0
  4  5  1  0
  5  6  2  0
  5 16  1  0
  6  7  1  0
  7  8  1  0
  8  9  1  0
  8 14  1  0
  9 10  2  0
  9 13  1  0
 10 11  1  0
 11 12  1  0
 12 13  2  0
 14 15  1  0
 15 16  1  0
M  END
