
     RDKit          3D

 16 17  0  0  0  0  0  0  0  0999 V2000
    5.0060    1.0660   -0.8790 C   0  0  0  0  0  0  0  0  0  0  0  0
    4.0190    1.2540    0.2120 C   0  0  0  0  0  0  0  0  0  0  0  0
    4.4400    1.7610    1.2530 O   0  0  0  0  0  0  0  0  0  0  0  0
    2.5870    0.8720    0.1260 C   0  0  0  0  0  0  0  0  0  0  0  0
    2.4640   -0.5810    0.5030 C   0  0  0  0  0  0  0  0  0  0  0  0
    1.1030   -1.0630    0.4960 N   0  0  0  0  0  0  0  0  0  0  0  0
    0.3190   -0.4890    1.5620 C   0  0  0  0  0  0  0  0  0  0  0  0
   -1.1510   -0.7710    1.3720 C   0  0  0  0  0  0  0  0  0  0  0  0
   -1.5890   -0.3040    0.0940 N   0  0  0  0  0  0  0  0  0  0  0  0
   -2.9690   -0.1700   -0.2350 C   0  0  0  0  0  0  0  0  0  0  0  0
   -3.4870   -0.2430   -1.4060 N   0  0  0  0  0  0  0  0  0  0  0  0
   -4.9130   -0.0550   -1.3270 C   0  0  0  0  0  0  0  0  0  0  0  0
   -5.1700    0.1460    0.1000 C   0  0  0  0  0  0  0  0  0  0  0  0
   -4.0230    0.0790    0.7490 C   0  0  0  0  0  0  0  0  0  0  0  0
   -0.5670    0.0330   -0.8780 C   0  0  0  0  0  0  0  0  0  0  0  0
    0.4770   -1.0700   -0.7830 C   0  0  0  0  0  0  0  0  0  0  0  0
  1  2  1  0
  2  3  2  0
  2  4  1  0
  4  5  1  0
  5  6  1  0
  6  7  1  0
  6 16  1  0
  7  8  1  0
  8  9  1  0
  9 10  1  0
  9 15  1  0
 10 11  2  0
 10 14  1  0
 11 12  1  0
 12 13  1  0
 13 14  2  0
 15 16  1  0
M  END
