
     RDKit          3D

 20 21  0  0  0  0  0  0  0  0999 V2000
   -4.1710   -0.5630   -2.5930 O   0  0  0  0  0  0  0  0  0  0  0  0
   -4.1450   -1.4270   -1.5050 C   0  0  0  0  0  0  0  0  0  0  0  0
   -3.5120   -0.7370   -0.2940 C   0  0  1  0  0  0  0  0  0  0  0  0
   -2.2260   -0.3890   -0.6710 O   0  0  0  0  0  0  0  0  0  0  0  0
   -1.5750    0.4120    0.2460 C   0  0  2  0  0  0  0  0  0  0  0  0
   -0.5070   -0.2800    0.9140 N   0  0  0  0  0  0  0  0  0  0  0  0
    0.4590   -0.8640    0.0360 C   0  0  0  0  0  0  0  0  0  0  0  0
    1.8770   -0.4340    0.3510 C   0  0  1  0  0  0  0  0  0  0  0  0
    2.1820   -0.8300    1.6690 O   0  0  0  0  0  0  0  0  0  0  0  0
    2.8060   -1.2230   -0.5470 C   0  0  0  0  0  0  0  0  0  0  0  0
    4.2500   -0.8550   -0.3450 C   0  0  0  0  0  0  0  0  0  0  0  0
    4.3770    0.6430   -0.0370 C   0  0  2  0  0  0  0  0  0  0  0  0
    4.2640    0.7540    1.3490 O   0  0  0  0  0  0  0  0  0  0  0  0
    3.2080    1.2910   -0.7470 C   0  0  2  0  0  0  0  0  0  0  0  0
    3.4040    2.6470   -0.9670 O   0  0  0  0  0  0  0  0  0  0  0  0
    1.9920    1.0420    0.1540 C   0  0  0  0  0  0  0  0  0  0  0  0
   -2.5400    0.8970    1.3300 C   0  0  0  0  0  0  0  0  0  0  0  0
   -3.6090    1.4950    0.6240 O   0  0  0  0  0  0  0  0  0  0  0  0
   -4.3570    0.4540    0.0930 C   0  0  2  0  0  0  0  0  0  0  0  0
   -5.2730    0.0780    1.0990 O   0  0  0  0  0  0  0  0  0  0  0  0
  1  2  1  0
  3  2  1  6
  3  4  1  0
  3 19  1  0
  4  5  1  0
  5  6  1  1
  5 17  1  0
  6  7  1  0
  7  8  1  0
  8  9  1  1
  8 10  1  0
  8 16  1  0
 10 11  1  0
 11 12  1  0
 12 13  1  1
 12 14  1  0
 14 15  1  1
 14 16  1  0
 17 18  1  0
 18 19  1  0
 19 20  1  1
M  CHG  1   6   1
M  END
