
     RDKit          3D

 13 13  0  0  0  0  0  0  0  0999 V2000
    1.1230    2.2220   -0.1970 N   0  0  0  0  0  0  0  0  0  0  0  0
    0.1710    1.1840   -0.1620 C   0  0  0  0  0  0  0  0  0  0  0  0
   -1.0330    1.3010   -0.8310 C   0  0  0  0  0  0  0  0  0  0  0  0
   -1.9730    0.2770   -0.7980 C   0  0  0  0  0  0  0  0  0  0  0  0
   -1.7350   -0.8870   -0.0970 C   0  0  0  0  0  0  0  0  0  0  0  0
   -2.6960   -1.9340   -0.0630 N   0  0  0  0  0  0  0  0  0  0  0  0
   -2.4480   -2.9740    0.5820 O   0  0  0  0  0  0  0  0  0  0  0  0
   -3.8980   -1.8740   -0.7020 O   0  0  0  0  0  0  0  0  0  0  0  0
   -0.5400   -1.0160    0.5740 C   0  0  0  0  0  0  0  0  0  0  0  0
    0.3970    0.0170    0.5350 C   0  0  0  0  0  0  0  0  0  0  0  0
    1.6050   -0.1020    1.2060 O   0  0  0  0  0  0  0  0  0  0  0  0
    2.9240   -0.8080    0.2910 S   0  0  0  0  0  0  0  0  0  0  0  0
    4.4400   -0.2920    0.8860 O   0  0  0  0  0  0  0  0  0  0  0  0
  1  2  1  0
  2  3  2  0
  2 10  1  0
  3  4  1  0
  4  5  2  0
  5  6  1  0
  5  9  1  0
  6  7  2  0
  6  8  1  0
  9 10  2  0
 10 11  1  0
 11 12  1  0
 12 13  1  0
M  CHG  2   6   1   8  -1
M  END
