
     RDKit          3D

 13 13  0  0  0  0  0  0  0  0999 V2000
   -2.6680   -1.3150   -0.4700 N   0  0  0  0  0  0  0  0  0  0  0  0
   -1.3800   -0.7290   -0.3760 C   0  0  0  0  0  0  0  0  0  0  0  0
    0.1900   -1.5670   -0.8530 S   0  0  0  0  0  0  0  0  0  0  0  0
    1.2440   -0.2430   -0.4540 C   0  0  0  0  0  0  0  0  0  0  0  0
    2.7030   -0.2420   -0.5990 C   0  0  0  0  0  0  0  0  0  0  0  0
    3.3000   -0.7220    0.6080 N   0  0  0  0  0  0  0  0  0  0  0  0
    2.5940   -1.0700    1.5950 O   0  0  0  0  0  0  0  0  0  0  0  0
    4.6670   -0.8410    0.7850 O   0  0  0  0  0  0  0  0  0  0  0  0
    0.3960    0.7330    0.0040 C   0  0  0  0  0  0  0  0  0  0  0  0
   -0.9180    0.5040    0.0480 C   0  0  0  0  0  0  0  0  0  0  0  0
   -1.9320    1.4920    0.5260 C   0  0  0  0  0  0  0  0  0  0  0  0
   -1.5690    2.6110    0.9170 O   0  0  0  0  0  0  0  0  0  0  0  0
   -3.2660    1.1640    0.5350 O   0  0  0  0  0  0  0  0  0  0  0  0
  1  2  1  0
  2  3  1  0
  2 10  2  0
  3  4  1  0
  4  5  1  0
  4  9  2  0
  5  6  1  0
  6  7  2  0
  6  8  1  0
  9 10  1  0
 10 11  1  0
 11 12  2  0
 11 13  1  0
M  CHG  2   6   1   8  -1
M  END
