
     RDKit          3D

 13 13  0  0  0  0  0  0  0  0999 V2000
   -3.3010   -0.6410   -0.0530 C   0  0  0  0  0  0  0  0  0  0  0  0
   -2.3180   -0.0570   -0.8870 O   0  0  0  0  0  0  0  0  0  0  0  0
   -0.9770    0.0750   -0.4820 C   0  0  0  0  0  0  0  0  0  0  0  0
    0.3290   -1.1270   -0.9020 S   0  0  0  0  0  0  0  0  0  0  0  0
    1.6140   -0.1940   -0.0200 C   0  0  0  0  0  0  0  0  0  0  0  0
    3.0110   -0.6160    0.0600 C   0  0  0  0  0  0  0  0  0  0  0  0
    3.4120   -1.8070   -0.5760 N   0  0  0  0  0  0  0  0  0  0  0  0
    3.7870    0.1150    0.6990 O   0  0  0  0  0  0  0  0  0  0  0  0
    0.9520    0.8760    0.4750 C   0  0  0  0  0  0  0  0  0  0  0  0
   -0.3520    1.0340    0.2570 C   0  0  0  0  0  0  0  0  0  0  0  0
   -1.1060    2.1600    0.7640 N   0  0  0  0  0  0  0  0  0  0  0  0
   -0.7540    2.7330    1.7890 O   0  0  0  0  0  0  0  0  0  0  0  0
   -2.2240    2.5960    0.1060 O   0  0  0  0  0  0  0  0  0  0  0  0
  1  2  1  0
  2  3  1  0
  3  4  1  0
  3 10  2  0
  4  5  1  0
  5  6  1  0
  5  9  2  0
  6  7  1  0
  6  8  2  0
  9 10  1  0
 10 11  1  0
 11 12  2  0
 11 13  1  0
M  CHG  2  11   1  13  -1
M  END
