
     RDKit          3D

 13 13  0  0  0  0  0  0  0  0999 V2000
   -3.3650    0.6050   -0.4310 N   0  0  0  0  0  0  0  0  0  0  0  0
   -2.3690   -0.7800   -0.6330 S   0  0  2  0  0  0  0  0  0  0  0  0
   -2.5240   -1.3250   -2.0410 O   0  0  0  0  0  0  0  0  0  0  0  0
   -2.8110   -1.8100    0.3690 O   0  0  0  0  0  0  0  0  0  0  0  0
   -0.6870   -0.3990   -0.3860 C   0  0  0  0  0  0  0  0  0  0  0  0
    0.0510   -0.0010   -1.4820 C   0  0  0  0  0  0  0  0  0  0  0  0
    1.3940    0.3240   -1.3880 C   0  0  0  0  0  0  0  0  0  0  0  0
    2.0220    0.2500   -0.1660 C   0  0  0  0  0  0  0  0  0  0  0  0
    3.3960    0.5720   -0.0160 N   0  0  0  0  0  0  0  0  0  0  0  0
    3.9390    0.5000    1.0890 O   0  0  0  0  0  0  0  0  0  0  0  0
    4.1060    0.9640   -1.1210 O   0  0  0  0  0  0  0  0  0  0  0  0
    1.2810   -0.1470    0.9210 C   0  0  0  0  0  0  0  0  0  0  0  0
   -0.0520   -0.4680    0.8250 C   0  0  0  0  0  0  0  0  0  0  0  0
  2  1  1  6
  2  3  2  0
  2  4  2  0
  2  5  1  0
  5  6  2  0
  5 13  1  0
  6  7  1  0
  7  8  2  0
  8  9  1  0
  8 12  1  0
  9 10  2  0
  9 11  1  0
 12 13  2  0
M  CHG  2   9   1  11  -1
M  END
