
     RDKit          3D

 12 12  0  0  0  0  0  0  0  0999 V2000
    3.3660    0.1620   -0.0450 C   0  0  0  0  0  0  0  0  0  0  0  0
    2.0920   -0.4310   -0.0430 O   0  0  0  0  0  0  0  0  0  0  0  0
    0.9660    0.3920   -0.0060 C   0  0  0  0  0  0  0  0  0  0  0  0
    1.1910    1.6290    0.0240 O   0  0  0  0  0  0  0  0  0  0  0  0
   -0.3780   -0.1790   -0.0010 C   0  0  0  0  0  0  0  0  0  0  0  0
   -0.6150   -1.5580   -0.0480 C   0  0  0  0  0  0  0  0  0  0  0  0
   -1.9310   -1.8010   -0.0390 N   0  0  0  0  0  0  0  0  0  0  0  0
   -2.5480   -0.6190    0.0130 C   0  0  0  0  0  0  0  0  0  0  0  0
   -1.6060    0.4060    0.0380 C   0  0  0  0  0  0  0  0  0  0  0  0
   -1.8730    1.7850    0.0900 N   0  0  0  0  0  0  0  0  0  0  0  0
   -2.9650    2.2040   -0.4080 O   0  0  0  0  0  0  0  0  0  0  0  0
   -1.0640    2.7220    0.6280 O   0  0  0  0  0  0  0  0  0  0  0  0
  1  2  1  0
  2  3  1  0
  3  4  2  0
  3  5  1  0
  5  6  2  0
  5  9  1  0
  6  7  1  0
  7  8  1  0
  8  9  2  0
  9 10  1  0
 10 11  2  0
 10 12  1  0
M  CHG  2  10   1  12  -1
M  END
