
     RDKit          3D

 34 38  0  0  0  0  0  0  0  0999 V2000
    6.9270   -2.7000   -0.1240 O   0  0  0  0  0  0  0  0  0  0  0  0
    7.1360   -1.4750   -0.2870 C   0  0  0  0  0  0  0  0  0  0  0  0
    8.4820   -0.8570   -0.2540 C   0  0  0  0  0  0  0  0  0  0  0  0
    8.2440    0.6080   -0.5560 C   0  0  0  0  0  0  0  0  0  0  0  0
    6.8080    0.6730   -1.0510 C   0  0  0  0  0  0  0  0  0  0  0  0
    6.1330   -0.5000   -0.5270 N   0  0  0  0  0  0  0  0  0  0  0  0
    4.7340   -0.6170   -0.3080 C   0  0  0  0  0  0  0  0  0  0  0  0
    4.0880   -1.8210   -0.5200 C   0  0  0  0  0  0  0  0  0  0  0  0
    2.7090   -1.9160   -0.2990 C   0  0  0  0  0  0  0  0  0  0  0  0
    1.9530   -0.8480    0.1250 C   0  0  0  0  0  0  0  0  0  0  0  0
    0.5520   -0.9560    0.3430 N   0  0  0  0  0  0  0  0  0  0  0  0
   -0.2190   -0.1720    1.3020 C   0  0  0  0  0  0  0  0  0  0  0  0
   -1.6440   -0.2640    0.8680 C   0  0  1  0  0  0  0  0  0  0  0  0
   -2.1380    1.1180    0.5450 C   0  0  0  0  0  0  0  0  0  0  0  0
   -1.2980    2.0280    0.5870 O   0  0  0  0  0  0  0  0  0  0  0  0
   -3.4670    1.3190    0.2220 N   0  0  0  0  0  0  0  0  0  0  0  0
   -4.1070    2.5270   -0.1200 C   0  0  0  0  0  0  0  0  0  0  0  0
   -3.7050    3.7560   -0.2480 C   0  0  0  0  0  0  0  0  0  0  0  0
   -2.0870    4.3850   -0.0190 Cl  0  0  0  0  0  0  0  0  0  0  0  0
   -4.7980    4.6690   -0.6300 C   0  0  0  0  0  0  0  0  0  0  0  0
   -5.8610    3.9640   -0.7280 N   0  0  0  0  0  0  0  0  0  0  0  0
   -5.6020    2.5980   -0.4400 C   0  0  0  0  0  0  0  0  0  0  0  0
   -4.3110    0.1290    0.2390 C   0  0  0  0  0  0  0  0  0  0  0  0
   -4.6730   -0.3710   -0.9990 C   0  0  0  0  0  0  0  0  0  0  0  0
   -5.4850   -1.4920   -1.0680 C   0  0  0  0  0  0  0  0  0  0  0  0
   -5.9240   -2.1010    0.0870 C   0  0  0  0  0  0  0  0  0  0  0  0
   -6.9770   -3.5580    0.0300 S   0  0  0  0  0  0  0  0  0  0  0  0
   -5.5360   -1.5650    1.2990 C   0  0  0  0  0  0  0  0  0  0  0  0
   -4.7300   -0.4500    1.3930 C   0  0  0  0  0  0  0  0  0  0  0  0
   -1.7290   -1.2000   -0.3000 C   0  0  0  0  0  0  0  0  0  0  0  0
   -0.3590   -1.8290   -0.3100 C   0  0  0  0  0  0  0  0  0  0  0  0
   -0.0210   -2.9410   -0.7980 O   0  0  0  0  0  0  0  0  0  0  0  0
    2.6270    0.3480    0.3290 C   0  0  0  0  0  0  0  0  0  0  0  0
    3.9920    0.4420    0.1110 C   0  0  0  0  0  0  0  0  0  0  0  0
  1  2  2  0
  2  3  1  0
  2  6  1  0
  3  4  1  0
  4  5  1  0
  5  6  1  0
  6  7  1  0
  7  8  2  0
  7 34  1  0
  8  9  1  0
  9 10  2  0
 10 11  1  0
 10 33  1  0
 11 12  1  0
 11 31  1  0
 12 13  1  0
 13 14  1  6
 13 30  1  0
 14 15  2  0
 14 16  1  0
 16 17  1  0
 16 23  1  0
 17 18  2  0
 17 22  1  0
 18 19  1  0
 18 20  1  0
 20 21  2  0
 21 22  1  0
 23 24  2  0
 23 29  1  0
 24 25  1  0
 25 26  2  0
 26 27  1  0
 26 28  1  0
 28 29  2  0
 30 31  1  0
 31 32  2  0
 33 34  2  0
M  END
