
     RDKit          3D

 34 38  0  0  0  0  0  0  0  0999 V2000
    7.4970    1.3440    2.7590 C   0  0  0  0  0  0  0  0  0  0  0  0
    6.4940    0.8120    1.7930 C   0  0  0  0  0  0  0  0  0  0  0  0
    6.1830   -0.5310    1.7840 C   0  0  0  0  0  0  0  0  0  0  0  0
    5.2510   -1.0220    0.8870 C   0  0  0  0  0  0  0  0  0  0  0  0
    4.6010   -0.2160   -0.0240 C   0  0  0  0  0  0  0  0  0  0  0  0
    3.6420   -0.7940   -0.9300 N   0  0  0  0  0  0  0  0  0  0  0  0
    3.8990   -0.6570   -2.3360 C   0  0  0  0  0  0  0  0  0  0  0  0
    2.5370   -1.4770   -0.4330 C   0  0  0  0  0  0  0  0  0  0  0  0
    2.4540   -1.6320    0.8370 O   0  0  0  0  0  0  0  0  0  0  0  0
    1.4250   -2.0590   -1.2240 C   0  0  1  0  0  0  0  0  0  0  0  0
    0.8400   -3.1240   -0.4750 N   0  0  0  0  0  0  0  0  0  0  0  0
   -0.4190   -2.7480   -0.1540 C   0  0  0  0  0  0  0  0  0  0  0  0
   -1.9080   -3.2130    0.6640 S   0  0  0  0  0  0  0  0  0  0  0  0
   -2.8540   -1.6980    0.2340 C   0  0  0  0  0  0  0  0  0  0  0  0
   -4.1910   -1.5730    0.6210 N   0  0  0  0  0  0  0  0  0  0  0  0
   -5.0390   -0.5080    0.8700 C   0  0  0  0  0  0  0  0  0  0  0  0
   -4.5870    0.7130    1.3830 C   0  0  0  0  0  0  0  0  0  0  0  0
   -5.4630    1.7040    1.7440 C   0  0  0  0  0  0  0  0  0  0  0  0
   -4.8760    3.2350    2.3870 Cl  0  0  0  0  0  0  0  0  0  0  0  0
   -6.8250    1.5070    1.6050 C   0  0  0  0  0  0  0  0  0  0  0  0
   -7.2760    0.2970    1.0980 C   0  0  0  0  0  0  0  0  0  0  0  0
   -6.4130   -0.6920    0.7370 C   0  0  0  0  0  0  0  0  0  0  0  0
   -6.8980   -1.9720    0.1990 C   0  0  0  0  0  0  0  0  0  0  0  0
   -1.9380   -1.0110   -0.4850 C   0  0  0  0  0  0  0  0  0  0  0  0
   -0.7310   -1.5320   -0.6720 C   0  0  0  0  0  0  0  0  0  0  0  0
    0.2910   -1.0740   -1.3420 C   0  0  0  0  0  0  0  0  0  0  0  0
    0.1340    0.2120   -2.0410 C   0  0  0  0  0  0  0  0  0  0  0  0
    1.0730    0.6900   -2.6970 O   0  0  0  0  0  0  0  0  0  0  0  0
   -1.1050    0.8950   -1.9570 N   0  0  0  0  0  0  0  0  0  0  0  0
   -1.3050    2.1650   -2.6370 C   0  0  0  0  0  0  0  0  0  0  0  0
   -2.1520    0.2970   -1.1820 C   0  0  0  0  0  0  0  0  0  0  0  0
   -3.2290    0.8920   -1.1190 O   0  0  0  0  0  0  0  0  0  0  0  0
    4.9090    1.1270   -0.0190 C   0  0  0  0  0  0  0  0  0  0  0  0
    5.8460    1.6210    0.8840 C   0  0  0  0  0  0  0  0  0  0  0  0
  1  2  1  0
  2  3  2  0
  2 34  1  0
  3  4  1  0
  4  5  2  0
  5  6  1  0
  5 33  1  0
  6  7  1  0
  6  8  1  0
  8  9  2  0
 10  8  1  1
 10 11  1  0
 10 26  1  0
 11 12  2  0
 12 13  1  0
 12 25  1  0
 13 14  1  0
 14 15  1  0
 14 24  2  0
 15 16  1  0
 16 17  2  0
 16 22  1  0
 17 18  1  0
 18 19  1  0
 18 20  2  0
 20 21  1  0
 21 22  2  0
 22 23  1  0
 24 25  1  0
 24 31  1  0
 25 26  2  0
 26 27  1  0
 27 28  2  0
 27 29  1  0
 29 30  1  0
 29 31  1  0
 31 32  2  0
 33 34  2  0
M  END
