
     RDKit          3D

 34 37  0  0  0  0  0  0  0  0999 V2000
    6.2690    1.7290    1.6210 C   0  0  0  0  0  0  0  0  0  0  0  0
    5.2120    1.0400    1.8590 N   0  0  0  0  0  0  0  0  0  0  0  0
    4.9740   -0.1810    1.1610 C   0  0  0  0  0  0  0  0  0  0  0  0
    5.8310   -1.1420    1.3450 C   0  0  0  0  0  0  0  0  0  0  0  0
    5.6000   -2.4320    0.6210 C   0  0  0  0  0  0  0  0  0  0  0  0
    5.1420   -2.0820   -0.7580 C   0  0  0  0  0  0  0  0  0  0  0  0
    3.9400   -1.2120   -0.8430 C   0  0  0  0  0  0  0  0  0  0  0  0
    3.7640   -0.2340    0.2910 C   0  0  1  0  0  0  0  0  0  0  0  0
    2.6600   -0.7710    1.1560 C   0  0  0  0  0  0  0  0  0  0  0  0
    1.2640   -0.6090    0.5570 C   0  0  0  0  0  0  0  0  0  0  0  0
    1.3230    0.4430   -0.4030 N   0  0  0  0  0  0  0  0  0  0  0  0
    0.7930    0.5100   -1.6950 C   0  0  0  0  0  0  0  0  0  0  0  0
    1.7050    0.4940   -2.7480 N   0  0  0  0  0  0  0  0  0  0  0  0
    1.3330    0.5470   -4.0190 C   0  0  0  0  0  0  0  0  0  0  0  0
   -0.0130    0.6220   -4.3510 C   0  0  0  0  0  0  0  0  0  0  0  0
   -0.9070    0.6390   -3.3230 C   0  0  0  0  0  0  0  0  0  0  0  0
   -0.5270    0.5830   -1.9660 C   0  0  0  0  0  0  0  0  0  0  0  0
   -1.5540    0.6100   -0.9460 C   0  0  0  0  0  0  0  0  0  0  0  0
   -1.3820    0.5600    0.2700 O   0  0  0  0  0  0  0  0  0  0  0  0
   -2.9220    0.7030   -1.3180 O   0  0  0  0  0  0  0  0  0  0  0  0
   -3.9280    0.7090   -0.3250 C   0  0  0  0  0  0  0  0  0  0  0  0
   -4.8690   -0.2920   -0.4440 C   0  0  0  0  0  0  0  0  0  0  0  0
   -5.9060   -0.4300    0.4370 C   0  0  0  0  0  0  0  0  0  0  0  0
   -6.8630   -1.4490    0.3110 O   0  0  0  0  0  0  0  0  0  0  0  0
   -6.7650   -2.3680   -0.7600 C   0  0  0  0  0  0  0  0  0  0  0  0
   -5.9950    0.4860    1.4900 C   0  0  0  0  0  0  0  0  0  0  0  0
   -7.1230    0.3400    2.4280 C   0  0  0  0  0  0  0  0  0  0  0  0
   -5.0610    1.4790    1.6100 C   0  0  0  0  0  0  0  0  0  0  0  0
   -5.0680    2.4030    2.6830 N   0  0  0  0  0  0  0  0  0  0  0  0
   -4.2100    3.5100    2.6380 O   0  0  0  0  0  0  0  0  0  0  0  0
   -6.0020    2.1830    3.9610 S   0  0  0  0  0  0  0  0  0  0  0  0
   -4.0020    1.6000    0.6850 C   0  0  0  0  0  0  0  0  0  0  0  0
    2.1080    1.6190    0.0360 C   0  0  0  0  0  0  0  0  0  0  0  0
    3.5560    1.1680   -0.2100 C   0  0  0  0  0  0  0  0  0  0  0  0
  1  2  2  0
  2  3  1  0
  3  4  2  0
  3  8  1  0
  4  5  1  0
  5  6  1  0
  6  7  1  0
  8  7  1  6
  8  9  1  0
  8 34  1  0
  9 10  1  0
 10 11  1  0
 11 12  1  0
 11 33  1  0
 12 13  2  0
 12 17  1  0
 13 14  1  0
 14 15  2  0
 15 16  1  0
 16 17  2  0
 17 18  1  0
 18 19  2  0
 18 20  1  0
 20 21  1  0
 21 22  2  0
 21 32  1  0
 22 23  1  0
 23 24  1  0
 23 26  2  0
 24 25  1  0
 26 27  1  0
 26 28  1  0
 28 29  1  0
 28 32  2  0
 29 30  1  0
 29 31  2  0
 33 34  1  0
M  CHG  2  29   1  30  -1
M  END
