
     RDKit          3D

 34 38  0  0  0  0  0  0  0  0999 V2000
    4.2280    1.8670    4.5750 C   0  0  0  0  0  0  0  0  0  0  0  0
    3.2520    1.8090    3.4600 C   0  0  0  0  0  0  0  0  0  0  0  0
    2.7030    2.7540    2.7020 N   0  0  0  0  0  0  0  0  0  0  0  0
    1.8780    2.2100    1.8290 O   0  0  0  0  0  0  0  0  0  0  0  0
    1.8780    0.9150    2.0040 C   0  0  0  0  0  0  0  0  0  0  0  0
    1.0410   -0.0210    1.1720 C   0  0  0  0  0  0  0  0  0  0  0  0
    1.8220   -0.2210   -0.0440 N   0  0  0  0  0  0  0  0  0  0  0  0
    2.8110   -1.2770    0.0100 C   0  0  0  0  0  0  0  0  0  0  0  0
    2.5440   -2.4290    0.8900 C   0  0  0  0  0  0  0  0  0  0  0  0
    1.6930   -3.4220    0.4130 O   0  0  0  0  0  0  0  0  0  0  0  0
    0.8370   -2.8870   -0.5530 C   0  0  0  0  0  0  0  0  0  0  0  0
    0.2230   -3.8630   -1.4920 C   0  0  0  0  0  0  0  0  0  0  0  0
   -1.2480   -3.7060   -1.4550 C   0  0  0  0  0  0  0  0  0  0  0  0
   -2.1340   -5.2670   -1.3860 Cl  0  0  0  0  0  0  0  0  0  0  0  0
   -1.9480   -2.6080   -1.4730 C   0  0  0  0  0  0  0  0  0  0  0  0
   -1.4390   -1.1990   -1.5390 C   0  0  0  0  0  0  0  0  0  0  0  0
   -2.2230   -0.2790   -0.6920 C   0  0  0  0  0  0  0  0  0  0  0  0
   -3.1560   -0.7740    0.1800 C   0  0  0  0  0  0  0  0  0  0  0  0
   -3.9300    0.0340    0.9610 C   0  0  0  0  0  0  0  0  0  0  0  0
   -3.7880    1.4150    0.8920 C   0  0  0  0  0  0  0  0  0  0  0  0
   -2.8510    1.9130    0.0170 C   0  0  0  0  0  0  0  0  0  0  0  0
   -2.0730    1.1110   -0.7670 C   0  0  0  0  0  0  0  0  0  0  0  0
   -2.8670    3.4160    0.1140 C   0  0  0  0  0  0  0  0  0  0  0  0
   -3.4250    3.6350    1.5280 C   0  0  0  0  0  0  0  0  0  0  0  0
   -4.4550    2.5390    1.5790 C   0  0  0  0  0  0  0  0  0  0  0  0
   -0.5280   -1.0310   -2.2950 N   0  0  0  0  0  0  0  0  0  0  0  0
    0.4970   -0.4980   -3.0520 C   0  0  0  0  0  0  0  0  0  0  0  0
    0.5320   -0.7560   -4.5110 C   0  0  0  0  0  0  0  0  0  0  0  0
    1.9340    0.1380   -5.1110 S   0  0  0  0  0  0  0  0  0  0  0  0
    2.4370    0.7990   -3.5600 C   0  0  0  0  0  0  0  0  0  0  0  0
    1.4760    0.2920   -2.5950 C   0  0  0  0  0  0  0  0  0  0  0  0
    1.6100    0.6490   -1.1360 C   0  0  0  0  0  0  0  0  0  0  0  0
    1.5270    1.9090   -0.8420 O   0  0  0  0  0  0  0  0  0  0  0  0
    2.7210    0.6410    3.0100 N   0  0  0  0  0  0  0  0  0  0  0  0
  1  2  1  0
  2  3  2  0
  2 34  1  0
  3  4  1  0
  4  5  1  0
  5  6  1  0
  5 34  2  0
  6  7  1  0
  7  8  1  0
  7 32  1  0
  8  9  1  0
  9 10  1  0
 10 11  1  0
 11 12  1  0
 12 13  1  0
 13 14  1  0
 13 15  2  0
 15 16  1  0
 16 17  1  0
 16 26  2  0
 17 18  2  0
 17 22  1  0
 18 19  1  0
 19 20  2  0
 20 21  1  0
 20 25  1  0
 21 22  2  0
 21 23  1  0
 23 24  1  0
 24 25  1  0
 26 27  1  0
 27 28  2  0
 27 31  1  0
 28 29  1  0
 29 30  1  0
 30 31  2  0
 31 32  1  0
 32 33  2  0
M  END
