
     RDKit          3D

 34 37  0  0  0  0  0  0  0  0999 V2000
   -4.1640   -2.8450   -1.1570 C   0  0  0  0  0  0  0  0  0  0  0  0
   -4.5320   -1.4760   -0.7220 C   0  0  0  0  0  0  0  0  0  0  0  0
   -3.6440   -0.6660   -0.0230 C   0  0  0  0  0  0  0  0  0  0  0  0
   -4.0130    0.6030    0.3680 C   0  0  0  0  0  0  0  0  0  0  0  0
   -3.0970    1.3730    1.0750 C   0  0  0  0  0  0  0  0  0  0  0  0
   -1.7680    0.7910    1.3550 C   0  0  0  0  0  0  0  0  0  0  0  0
   -1.0000    1.7690    2.1060 N   0  0  0  0  0  0  0  0  0  0  0  0
    0.5840    1.1780    2.4780 S   0  0  1  0  0  0  0  0  0  0  0  0
    1.2570    2.2320    3.3090 O   0  0  0  0  0  0  0  0  0  0  0  0
    0.4590   -0.0520    3.3470 O   0  0  0  0  0  0  0  0  0  0  0  0
    1.5030    0.8450    1.0530 C   0  0  0  0  0  0  0  0  0  0  0  0
    2.2690    1.7920    0.4440 C   0  0  0  0  0  0  0  0  0  0  0  0
    2.9890    1.4890   -0.6870 C   0  0  0  0  0  0  0  0  0  0  0  0
    2.9530    0.2190   -1.2330 C   0  0  0  0  0  0  0  0  0  0  0  0
    3.6770   -0.0940   -2.3920 N   0  0  0  0  0  0  0  0  0  0  0  0
    4.8510   -0.5270   -2.5140 C   0  0  0  0  0  0  0  0  0  0  0  0
    5.8170   -0.8320   -1.4680 C   0  0  0  0  0  0  0  0  0  0  0  0
    5.7070   -0.7390   -0.1760 C   0  0  0  0  0  0  0  0  0  0  0  0
    6.9030   -1.1420    0.5140 N   0  0  0  0  0  0  0  0  0  0  0  0
    7.2060   -0.9680    1.9360 C   0  0  0  0  0  0  0  0  0  0  0  0
    7.7740   -1.7600   -0.4510 C   0  0  0  0  0  0  0  0  0  0  0  0
    7.2070   -1.3430   -1.7680 C   0  0  0  0  0  0  0  0  0  0  0  0
    2.1770   -0.7590   -0.6240 C   0  0  0  0  0  0  0  0  0  0  0  0
    1.4740   -0.4160    0.5020 C   0  0  0  0  0  0  0  0  0  0  0  0
   -3.4870    2.6310    1.4660 C   0  0  0  0  0  0  0  0  0  0  0  0
   -4.7130    3.1550    1.1980 C   0  0  0  0  0  0  0  0  0  0  0  0
   -5.6390    2.3870    0.4870 C   0  0  0  0  0  0  0  0  0  0  0  0
   -6.9120    2.9250    0.2130 N   0  0  0  0  0  0  0  0  0  0  0  0
   -7.4030    3.7690    1.0460 O   0  0  0  0  0  0  0  0  0  0  0  0
   -7.6660    2.6190   -0.8690 O   0  0  0  0  0  0  0  0  0  0  0  0
   -5.2860    1.1190    0.0780 C   0  0  0  0  0  0  0  0  0  0  0  0
   -6.1310    0.2870   -0.6110 C   0  0  0  0  0  0  0  0  0  0  0  0
   -5.7880   -1.0080   -1.0250 C   0  0  0  0  0  0  0  0  0  0  0  0
   -6.7820   -1.8240   -1.7670 C   0  0  0  0  0  0  0  0  0  0  0  0
  1  2  1  0
  2  3  2  0
  2 33  1  0
  3  4  1  0
  4  5  2  0
  4 31  1  0
  5  6  1  0
  5 25  1  0
  6  7  1  0
  8  7  1  6
  8  9  2  0
  8 10  2  0
  8 11  1  0
 11 12  2  0
 11 24  1  0
 12 13  1  0
 13 14  2  0
 14 15  1  0
 14 23  1  0
 15 16  2  3
 16 17  1  0
 17 18  2  0
 17 22  1  0
 18 19  1  0
 19 20  1  0
 19 21  1  0
 21 22  1  0
 23 24  2  0
 25 26  2  0
 26 27  1  0
 27 28  1  0
 27 31  2  0
 28 29  2  0
 28 30  1  0
 31 32  1  0
 32 33  2  0
 33 34  1  0
M  CHG  2  28   1  30  -1
M  END
