
     RDKit          3D

 34 37  0  0  0  0  0  0  0  0999 V2000
   -3.0210   -2.4620   -0.1970 O   0  0  0  0  0  0  0  0  0  0  0  0
   -2.2270   -1.5500    0.0870 C   0  0  0  0  0  0  0  0  0  0  0  0
   -2.7910   -0.2500    0.2410 N   0  0  0  0  0  0  0  0  0  0  0  0
   -4.2220   -0.0460    0.0670 C   0  0  0  0  0  0  0  0  0  0  0  0
   -4.6220    1.3750    0.2670 C   0  0  0  0  0  0  0  0  0  0  0  0
   -6.0920    1.4730    0.0680 C   0  0  0  0  0  0  0  0  0  0  0  0
   -7.0010    1.3190    1.0850 C   0  0  0  0  0  0  0  0  0  0  0  0
   -8.3730    1.4160    0.8740 C   0  0  0  0  0  0  0  0  0  0  0  0
   -8.8490    1.6770   -0.4050 C   0  0  0  0  0  0  0  0  0  0  0  0
   -7.9510    1.8340   -1.4360 C   0  0  0  0  0  0  0  0  0  0  0  0
   -6.5800    1.7320   -1.1940 C   0  0  0  0  0  0  0  0  0  0  0  0
   -0.8070   -1.7980    0.2520 C   0  0  0  0  0  0  0  0  0  0  0  0
   -0.0050   -0.7320    0.5650 N   0  0  0  0  0  0  0  0  0  0  0  0
    1.3180   -0.8380    0.7410 C   0  0  0  0  0  0  0  0  0  0  0  0
    2.1170    0.3870    1.0820 C   0  0  2  0  0  0  0  0  0  0  0  0
    1.4130    1.6200    0.5150 C   0  0  0  0  0  0  0  0  0  0  0  0
    1.5700    1.3490   -0.9920 C   0  0  0  0  0  0  0  0  0  0  0  0
    3.0110    0.7930   -1.0470 C   0  0  0  0  0  0  0  0  0  0  0  0
    3.3440    0.3900    0.2460 N   0  0  0  0  0  0  0  0  0  0  0  0
    4.5490   -0.0170    0.8360 C   0  0  0  0  0  0  0  0  0  0  0  0
    4.4310   -0.2700    2.1410 O   0  0  0  0  0  0  0  0  0  0  0  0
    5.8820   -0.2260    0.3780 C   0  0  0  0  0  0  0  0  0  0  0  0
    6.2860   -0.1110   -0.9270 C   0  0  0  0  0  0  0  0  0  0  0  0
    5.4600    0.1390   -1.9560 F   0  0  0  0  0  0  0  0  0  0  0  0
    7.6340   -0.2930   -1.2680 C   0  0  0  0  0  0  0  0  0  0  0  0
    8.5940   -0.5920   -0.3270 C   0  0  0  0  0  0  0  0  0  0  0  0
    8.2140   -0.7140    0.9870 C   0  0  0  0  0  0  0  0  0  0  0  0
    6.8970   -0.5340    1.3150 C   0  0  0  0  0  0  0  0  0  0  0  0
    6.5760   -0.6650    2.6220 F   0  0  0  0  0  0  0  0  0  0  0  0
    1.9300   -2.0280    0.6140 N   0  0  0  0  0  0  0  0  0  0  0  0
    1.2140   -3.1150    0.3100 C   0  0  0  0  0  0  0  0  0  0  0  0
    1.7290   -4.2550    0.1780 O   0  0  0  0  0  0  0  0  0  0  0  0
   -0.1780   -3.0040    0.1240 C   0  0  0  0  0  0  0  0  0  0  0  0
   -0.9000   -4.1280   -0.1880 O   0  0  0  0  0  0  0  0  0  0  0  0
  1  2  2  0
  2  3  1  0
  2 12  1  0
  3  4  1  0
  4  5  1  0
  5  6  1  0
  6  7  2  0
  6 11  1  0
  7  8  1  0
  8  9  2  0
  9 10  1  0
 10 11  2  0
 12 13  1  0
 12 33  2  0
 13 14  2  0
 15 14  1  6
 14 30  1  0
 15 16  1  0
 15 19  1  0
 16 17  1  0
 17 18  1  0
 18 19  1  0
 19 20  1  0
 20 21  2  0
 20 22  1  0
 22 23  2  0
 22 28  1  0
 23 24  1  0
 23 25  1  0
 25 26  2  0
 26 27  1  0
 27 28  2  0
 28 29  1  0
 30 31  1  0
 31 32  2  0
 31 33  1  0
 33 34  1  0
M  END
