
     RDKit          3D

 33 37  0  0  0  0  0  0  0  0999 V2000
   -5.1030    0.7240    4.1220 C   0  0  0  0  0  0  0  0  0  0  0  0
   -4.3880    0.7900    2.8640 N   0  0  0  0  0  0  0  0  0  0  0  0
   -4.9480    0.9370    1.6270 C   0  0  0  0  0  0  0  0  0  0  0  0
   -6.1840    1.0390    1.4120 O   0  0  0  0  0  0  0  0  0  0  0  0
   -4.0100    0.9600    0.6870 N   0  0  0  0  0  0  0  0  0  0  0  0
   -4.1700    1.0950   -0.7530 C   0  0  0  0  0  0  0  0  0  0  0  0
   -4.2930   -0.2520   -1.3520 C   0  0  0  0  0  0  0  0  0  0  0  0
   -3.2200   -0.8640   -1.6190 O   0  0  0  0  0  0  0  0  0  0  0  0
   -5.5160   -0.8960   -1.6450 N   0  0  0  0  0  0  0  0  0  0  0  0
   -5.7000   -2.2020   -2.2180 C   0  0  0  0  0  0  0  0  0  0  0  0
   -7.1090   -2.2910   -2.7040 C   0  0  0  0  0  0  0  0  0  0  0  0
   -7.6060   -0.8630   -2.6170 C   0  0  0  0  0  0  0  0  0  0  0  0
   -6.8300   -0.3460   -1.4240 C   0  0  0  0  0  0  0  0  0  0  0  0
   -2.8000    0.8260    1.2950 C   0  0  0  0  0  0  0  0  0  0  0  0
   -1.5140    0.7840    0.8150 C   0  0  0  0  0  0  0  0  0  0  0  0
   -0.4200    0.6370    1.6560 C   0  0  0  0  0  0  0  0  0  0  0  0
    0.8880    0.5830    1.1600 N   0  0  0  0  0  0  0  0  0  0  0  0
    2.1060    0.6400    1.8550 C   0  0  0  0  0  0  0  0  0  0  0  0
    2.0570    0.7610    3.1160 O   0  0  0  0  0  0  0  0  0  0  0  0
    3.3920    0.5640    1.1710 C   0  0  0  0  0  0  0  0  0  0  0  0
    3.7970    0.4380   -0.1110 C   0  0  0  0  0  0  0  0  0  0  0  0
    5.1030    0.4000   -0.4000 C   0  0  0  0  0  0  0  0  0  0  0  0
    6.0050    0.4910    0.6400 C   0  0  0  0  0  0  0  0  0  0  0  0
    4.9840    0.6370    2.0810 S   0  0  0  0  0  0  0  0  0  0  0  0
    7.4300    0.5050    0.9170 C   0  0  0  0  0  0  0  0  0  0  0  0
    8.2030    0.8490   -0.3110 C   0  0  0  0  0  0  0  0  0  0  0  0
    8.3860   -0.2720   -1.2700 C   0  0  0  0  0  0  0  0  0  0  0  0
    7.3170   -1.3110   -1.2570 C   0  0  0  0  0  0  0  0  0  0  0  0
    6.1640   -1.0070   -2.1620 C   0  0  0  0  0  0  0  0  0  0  0  0
    5.4410    0.2580   -1.8650 C   0  0  0  0  0  0  0  0  0  0  0  0
   -0.6900    0.5360    2.9880 C   0  0  0  0  0  0  0  0  0  0  0  0
   -2.0090    0.5790    3.4770 C   0  0  0  0  0  0  0  0  0  0  0  0
   -3.0650    0.7240    2.6340 C   0  0  0  0  0  0  0  0  0  0  0  0
  1  2  1  0
  2  3  1  0
  2 33  1  0
  3  4  2  0
  3  5  1  0
  5  6  1  0
  5 14  1  0
  6  7  1  0
  7  8  2  0
  7  9  1  0
  9 10  1  0
  9 13  1  0
 10 11  1  0
 11 12  1  0
 12 13  1  0
 14 15  2  0
 14 33  1  0
 15 16  1  0
 16 17  1  0
 16 31  2  0
 17 18  1  0
 18 19  2  0
 18 20  1  0
 20 21  2  0
 20 24  1  0
 21 22  1  0
 22 23  2  0
 22 30  1  0
 23 24  1  0
 23 25  1  0
 25 26  1  0
 26 27  1  0
 27 28  1  0
 28 29  1  0
 29 30  1  0
 31 32  1  0
 32 33  2  0
M  END
