
     RDKit          3D

 34 37  0  0  0  0  0  0  0  0999 V2000
   -5.8850    3.2380    0.2940 C   0  0  0  0  0  0  0  0  0  0  0  0
   -4.6280    3.0820   -0.0770 C   0  0  0  0  0  0  0  0  0  0  0  0
   -4.2320    2.2650   -1.2240 C   0  0  0  0  0  0  0  0  0  0  0  0
   -3.3230    1.1470   -0.8180 N   0  0  0  0  0  0  0  0  0  0  0  0
   -1.9600    1.4150   -0.8270 C   0  0  0  0  0  0  0  0  0  0  0  0
   -1.6940    2.6360   -1.2330 O   0  0  0  0  0  0  0  0  0  0  0  0
   -0.8090    0.6140   -0.4790 C   0  0  0  0  0  0  0  0  0  0  0  0
   -0.8910   -0.6720   -0.0060 C   0  0  0  0  0  0  0  0  0  0  0  0
    0.2890   -1.3680    0.2940 C   0  0  0  0  0  0  0  0  0  0  0  0
    1.5150   -0.7990    0.1280 C   0  0  0  0  0  0  0  0  0  0  0  0
    2.8240   -1.1880    0.3200 C   0  0  0  0  0  0  0  0  0  0  0  0
    3.2040   -2.4660    0.8080 N   0  0  0  0  0  0  0  0  0  0  0  0
    4.4230   -2.7580    0.9600 O   0  0  0  0  0  0  0  0  0  0  0  0
    2.2940   -3.4240    1.1300 O   0  0  0  0  0  0  0  0  0  0  0  0
    3.6170   -0.1580   -0.0320 N   0  0  0  0  0  0  0  0  0  0  0  0
    5.0370   -0.1350    0.0120 C   0  0  0  0  0  0  0  0  0  0  0  0
    5.8250   -0.9680   -0.7400 C   0  0  0  0  0  0  0  0  0  0  0  0
    7.2050   -0.9060   -0.6610 C   0  0  0  0  0  0  0  0  0  0  0  0
    7.8490   -0.0080    0.1720 C   0  0  0  0  0  0  0  0  0  0  0  0
    9.3310    0.0400    0.2390 C   0  0  0  0  0  0  0  0  0  0  0  0
    7.0580    0.8320    0.9300 C   0  0  0  0  0  0  0  0  0  0  0  0
    5.6850    0.7710    0.8530 C   0  0  0  0  0  0  0  0  0  0  0  0
    2.8840    0.8500   -0.4320 N   0  0  0  0  0  0  0  0  0  0  0  0
    1.5720    0.4880   -0.3460 C   0  0  0  0  0  0  0  0  0  0  0  0
    0.4510    1.2150   -0.6560 C   0  0  0  0  0  0  0  0  0  0  0  0
   -3.9090   -0.0750   -0.4610 C   0  0  0  0  0  0  0  0  0  0  0  0
   -4.1280   -1.1290   -1.3580 C   0  0  0  0  0  0  0  0  0  0  0  0
   -4.7430   -2.3060   -0.9950 C   0  0  0  0  0  0  0  0  0  0  0  0
   -5.0020   -3.6220   -2.1670 S   0  0  0  0  0  0  0  0  0  0  0  0
   -5.1580   -2.4420    0.3130 C   0  0  0  0  0  0  0  0  0  0  0  0
   -4.9690   -1.4380    1.2370 C   0  0  0  0  0  0  0  0  0  0  0  0
   -4.3440   -0.2570    0.8420 C   0  0  0  0  0  0  0  0  0  0  0  0
   -4.1330    0.7800    1.7400 O   0  0  0  0  0  0  0  0  0  0  0  0
   -4.5750    0.6000    3.0720 C   0  0  0  0  0  0  0  0  0  0  0  0
  1  2  2  0
  2  3  1  0
  3  4  1  0
  4  5  1  0
  4 26  1  0
  5  6  2  0
  5  7  1  0
  7  8  1  0
  7 25  2  0
  8  9  2  0
  9 10  1  0
 10 11  2  0
 10 24  1  0
 11 12  1  0
 11 15  1  0
 12 13  2  0
 12 14  1  0
 15 16  1  0
 15 23  1  0
 16 17  2  0
 16 22  1  0
 17 18  1  0
 18 19  2  0
 19 20  1  0
 19 21  1  0
 21 22  2  0
 23 24  2  0
 24 25  1  0
 26 27  2  0
 26 32  1  0
 27 28  1  0
 28 29  1  0
 28 30  2  0
 30 31  1  0
 31 32  2  0
 32 33  1  0
 33 34  1  0
M  CHG  2  12   1  14  -1
M  END
