
     RDKit          3D

 21 22  0  0  0  0  0  0  0  0999 V2000
    5.4280   -2.5800   -2.0330 C   0  0  0  0  0  0  0  0  0  0  0  0
    4.5580   -1.6760   -1.2150 C   0  0  0  0  0  0  0  0  0  0  0  0
    5.0180   -0.6370   -0.4510 C   0  0  0  0  0  0  0  0  0  0  0  0
    3.8780   -0.0710    0.1350 C   0  0  0  0  0  0  0  0  0  0  0  0
    2.7950   -0.7900   -0.3010 C   0  0  0  0  0  0  0  0  0  0  0  0
    1.3920   -0.5120    0.0850 C   0  0  0  0  0  0  0  0  0  0  0  0
    0.7990    0.6310   -0.0080 C   0  0  0  0  0  0  0  0  0  0  0  0
    1.5380    1.7920   -0.5460 C   0  0  0  0  0  0  0  0  0  0  0  0
    0.9590    2.9750   -0.6520 C   0  0  0  0  0  0  0  0  0  0  0  0
    1.6530    4.1080   -1.1670 C   0  0  0  0  0  0  0  0  0  0  0  0
    2.8630    3.9850   -1.5290 O   0  0  0  0  0  0  0  0  0  0  0  0
   -0.5740    0.8830    0.4110 C   0  0  0  0  0  0  0  0  0  0  0  0
   -1.2690   -0.2280    0.9670 N   0  0  0  0  0  0  0  0  0  0  0  0
   -2.6160   -0.0880    1.4680 C   0  0  0  0  0  0  0  0  0  0  0  0
   -2.9190    0.2070    2.7000 C   0  0  0  0  0  0  0  0  0  0  0  0
   -4.4150    0.2650    2.8440 C   0  0  0  0  0  0  0  0  0  0  0  0
   -4.8930   -0.0490    1.4750 C   0  0  0  0  0  0  0  0  0  0  0  0
   -3.8270   -0.2490    0.7000 C   0  0  0  0  0  0  0  0  0  0  0  0
   -3.9070   -0.5910   -0.7630 C   0  0  0  0  0  0  0  0  0  0  0  0
   -3.2510   -1.8830   -0.8870 N   0  0  0  0  0  0  0  0  0  0  0  0
    3.2540   -1.7170   -1.0880 O   0  0  0  0  0  0  0  0  0  0  0  0
  1  2  1  0
  2  3  2  0
  2 21  1  0
  3  4  1  0
  4  5  2  0
  5  6  1  0
  5 21  1  0
  6  7  2  3
  7  8  1  0
  7 12  1  0
  8  9  2  3
  9 10  1  0
 10 11  2  0
 12 13  1  0
 13 14  1  0
 14 15  2  0
 14 18  1  0
 15 16  1  0
 16 17  1  0
 17 18  2  0
 18 19  1  0
 19 20  1  0
M  CHG  1  20   1
M  END
