
     RDKit          3D

 21 22  0  0  0  0  0  0  0  0999 V2000
    5.7490    0.4100   -1.1770 C   0  0  0  0  0  0  0  0  0  0  0  0
    5.3240   -0.8070   -0.4080 C   0  0  0  0  0  0  0  0  0  0  0  0
    3.8910   -0.6290    0.0880 C   0  0  1  0  0  0  0  0  0  0  0  0
    3.8840    0.5840    0.9720 C   0  0  0  0  0  0  0  0  0  0  0  0
    3.0200   -0.5760   -1.0360 N   0  0  0  0  0  0  0  0  0  0  0  0
    2.1940    0.5810   -1.1220 C   0  0  0  0  0  0  0  0  0  0  0  0
    0.7640    0.3110   -0.7420 C   0  0  0  0  0  0  0  0  0  0  0  0
   -0.1860   -0.0120   -1.6770 C   0  0  0  0  0  0  0  0  0  0  0  0
   -1.5190   -0.2660   -1.3580 C   0  0  0  0  0  0  0  0  0  0  0  0
   -2.3370   -0.5570   -2.2380 O   0  0  0  0  0  0  0  0  0  0  0  0
   -1.9060   -0.1900   -0.0390 C   0  0  0  0  0  0  0  0  0  0  0  0
   -3.2050   -0.4310    0.3480 C   0  0  0  0  0  0  0  0  0  0  0  0
   -4.3150   -0.7260   -0.6090 C   0  0  0  0  0  0  0  0  0  0  0  0
   -4.9100    0.5130   -1.2190 C   0  0  0  0  0  0  0  0  0  0  0  0
   -5.9470    0.0560   -2.1410 N   0  0  0  0  0  0  0  0  0  0  0  0
   -3.5240   -0.3420    1.7120 C   0  0  0  0  0  0  0  0  0  0  0  0
   -2.5440   -0.0200    2.5990 C   0  0  0  0  0  0  0  0  0  0  0  0
   -2.9570    0.0560    4.0450 C   0  0  0  0  0  0  0  0  0  0  0  0
   -1.2470    0.2220    2.2130 C   0  0  0  0  0  0  0  0  0  0  0  0
   -0.8930    0.1420    0.8710 C   0  0  0  0  0  0  0  0  0  0  0  0
    0.3410    0.3680    0.4930 O   0  0  0  0  0  0  0  0  0  0  0  0
  1  2  1  0
  2  3  1  0
  3  4  1  6
  3  5  1  0
  5  6  1  0
  6  7  1  0
  7  8  2  0
  7 21  1  0
  8  9  1  0
  9 10  2  0
  9 11  1  0
 11 12  2  0
 11 20  1  0
 12 13  1  0
 12 16  1  0
 13 14  1  0
 14 15  1  0
 16 17  2  0
 17 18  1  0
 17 19  1  0
 19 20  2  0
 20 21  1  0
M  CHG  1   5   1
M  END
