
     RDKit          3D

 21 22  0  0  0  0  0  0  0  0999 V2000
   -1.7190   -2.6390    2.1690 C   0  0  0  0  0  0  0  0  0  0  0  0
   -1.2450   -1.7800    1.1580 O   0  0  0  0  0  0  0  0  0  0  0  0
   -1.9240   -0.6240    0.7940 C   0  0  0  0  0  0  0  0  0  0  0  0
   -3.1100   -0.3330    1.4700 C   0  0  0  0  0  0  0  0  0  0  0  0
   -3.8140    0.8030    1.1400 C   0  0  0  0  0  0  0  0  0  0  0  0
   -3.3350    1.6310    0.1480 C   0  0  0  0  0  0  0  0  0  0  0  0
   -4.0890    2.8590   -0.2150 C   0  0  0  0  0  0  0  0  0  0  0  0
   -2.1600    1.3190   -0.5040 C   0  0  0  0  0  0  0  0  0  0  0  0
   -1.4140    0.1790   -0.2010 C   0  0  0  0  0  0  0  0  0  0  0  0
   -0.1440   -0.1420   -0.9100 C   0  0  1  0  0  0  0  0  0  0  0  0
    0.1470    0.9410   -1.9390 C   0  0  0  0  0  0  0  0  0  0  0  0
    0.9510   -0.1960   -0.0040 N   0  0  0  0  0  0  0  0  0  0  0  0
    2.0840   -0.9720   -0.4540 C   0  0  0  0  0  0  0  0  0  0  0  0
    3.3550   -0.3330    0.0500 C   0  0  0  0  0  0  0  0  0  0  0  0
    4.2500   -0.8950    0.8380 C   0  0  0  0  0  0  0  0  0  0  0  0
    5.3390    0.0630    1.0940 C   0  0  0  0  0  0  0  0  0  0  0  0
    4.9430    1.2670    0.3370 C   0  0  0  0  0  0  0  0  0  0  0  0
    3.7990    1.0110   -0.2530 C   0  0  0  0  0  0  0  0  0  0  0  0
   -0.3580   -1.3920   -1.6860 C   0  0  0  0  0  0  0  0  0  0  0  0
   -1.4330   -1.3980   -2.6160 N   0  0  0  0  0  0  0  0  0  0  0  0
    0.3380   -2.4290   -1.5780 O   0  0  0  0  0  0  0  0  0  0  0  0
  1  2  1  0
  2  3  1  0
  3  4  2  0
  3  9  1  0
  4  5  1  0
  5  6  2  0
  6  7  1  0
  6  8  1  0
  8  9  2  0
  9 10  1  0
 10 11  1  6
 10 12  1  0
 10 19  1  0
 12 13  1  0
 13 14  1  0
 14 15  2  0
 14 18  1  0
 15 16  1  0
 16 17  1  0
 17 18  2  0
 19 20  1  0
 19 21  2  0
M  CHG  1  12   1
M  END
