
     RDKit          3D

 21 22  0  0  0  0  0  0  0  0999 V2000
    6.4660   -0.5950    0.9620 C   0  0  0  0  0  0  0  0  0  0  0  0
    5.6470    0.2090    0.0430 N   0  0  0  0  0  0  0  0  0  0  0  0
    4.4770    0.7030    0.6890 C   0  0  0  0  0  0  0  0  0  0  0  0
    3.2110    0.5060   -0.0420 C   0  0  0  0  0  0  0  0  0  0  0  0
    2.1720    1.3930    0.2420 C   0  0  0  0  0  0  0  0  0  0  0  0
    0.9500    1.2860   -0.3880 C   0  0  0  0  0  0  0  0  0  0  0  0
    0.6970    0.2980   -1.3270 C   0  0  0  0  0  0  0  0  0  0  0  0
   -0.6420    0.2220   -1.9900 C   0  0  2  0  0  0  0  0  0  0  0  0
   -1.0250    1.5130   -2.4330 O   0  0  0  0  0  0  0  0  0  0  0  0
   -1.6850   -0.2430   -1.0380 C   0  0  0  0  0  0  0  0  0  0  0  0
   -2.6530    0.6150   -0.5680 C   0  0  0  0  0  0  0  0  0  0  0  0
   -3.6440    0.2230    0.3280 C   0  0  0  0  0  0  0  0  0  0  0  0
   -4.6700    1.1770    0.8090 C   0  0  0  0  0  0  0  0  0  0  0  0
   -5.4800    0.5230    1.7280 O   0  0  0  0  0  0  0  0  0  0  0  0
   -6.4780    1.3570    2.2300 C   0  0  0  0  0  0  0  0  0  0  0  0
   -3.6800   -1.0730    0.7790 C   0  0  0  0  0  0  0  0  0  0  0  0
   -2.7220   -1.9530    0.3240 C   0  0  0  0  0  0  0  0  0  0  0  0
   -1.7370   -1.5390   -0.5750 C   0  0  0  0  0  0  0  0  0  0  0  0
   -0.7840   -2.4780   -1.0090 N   0  0  0  0  0  0  0  0  0  0  0  0
    1.7290   -0.5700   -1.5980 C   0  0  0  0  0  0  0  0  0  0  0  0
    2.9650   -0.4640   -0.9630 C   0  0  0  0  0  0  0  0  0  0  0  0
  1  2  1  0
  2  3  1  0
  3  4  1  0
  4  5  2  0
  4 21  1  0
  5  6  1  0
  6  7  2  0
  7  8  1  0
  7 20  1  0
  8  9  1  1
  8 10  1  0
 10 11  2  0
 10 18  1  0
 11 12  1  0
 12 13  1  0
 12 16  2  0
 13 14  1  0
 14 15  1  0
 16 17  1  0
 17 18  2  0
 18 19  1  0
 20 21  2  0
M  CHG  1   2   1
M  END
