
     RDKit          3D

 21 22  0  0  0  0  0  0  0  0999 V2000
   -1.2650    4.7140    0.6230 C   0  0  0  0  0  0  0  0  0  0  0  0
   -0.6180    3.3470    0.4660 C   0  0  0  0  0  0  0  0  0  0  0  0
   -0.6910    2.9440   -0.8530 N   0  0  0  0  0  0  0  0  0  0  0  0
   -0.2380    1.7140   -1.3300 C   0  0  0  0  0  0  0  0  0  0  0  0
   -1.1010    0.6170   -0.8190 C   0  0  0  0  0  0  0  0  0  0  0  0
   -0.6830   -0.4350   -0.1570 C   0  0  0  0  0  0  0  0  0  0  0  0
    0.7300   -0.6150    0.1430 C   0  0  0  0  0  0  0  0  0  0  0  0
    1.3240   -1.8190   -0.2160 C   0  0  0  0  0  0  0  0  0  0  0  0
    2.6600   -2.0820    0.0370 C   0  0  0  0  0  0  0  0  0  0  0  0
    3.4470   -1.1460    0.6580 C   0  0  0  0  0  0  0  0  0  0  0  0
    4.9130   -1.3780    0.9400 C   0  0  0  0  0  0  0  0  0  0  0  0
    5.6550   -0.8430   -0.2670 C   0  0  0  0  0  0  0  0  0  0  0  0
    2.8780    0.0440    1.0180 C   0  0  0  0  0  0  0  0  0  0  0  0
    1.5250    0.3000    0.7580 C   0  0  0  0  0  0  0  0  0  0  0  0
   -1.6390   -1.3680    0.2480 O   0  0  0  0  0  0  0  0  0  0  0  0
   -2.9200   -1.4020   -0.3090 C   0  0  1  0  0  0  0  0  0  0  0  0
   -3.8000   -2.4250    0.3440 C   0  0  0  0  0  0  0  0  0  0  0  0
   -3.1760   -3.7260    0.1340 N   0  0  0  0  0  0  0  0  0  0  0  0
   -3.4850    0.0080   -0.2570 C   0  0  0  0  0  0  0  0  0  0  0  0
   -2.5440    0.8060   -1.1200 C   0  0  0  0  0  0  0  0  0  0  0  0
   -2.9410    1.5650   -2.0180 O   0  0  0  0  0  0  0  0  0  0  0  0
  1  2  1  0
  2  3  1  0
  3  4  1  0
  4  5  1  0
  5  6  2  0
  5 20  1  0
  6  7  1  0
  6 15  1  0
  7  8  2  0
  7 14  1  0
  8  9  1  0
  9 10  2  0
 10 11  1  0
 10 13  1  0
 11 12  1  0
 13 14  2  0
 15 16  1  0
 16 17  1  1
 16 19  1  0
 17 18  1  0
 19 20  1  0
 20 21  2  0
M  CHG  1  18   1
M  END
