
     RDKit          3D

 21 22  0  0  0  0  0  0  0  0999 V2000
    6.4250    0.9600    1.4370 C   0  0  0  0  0  0  0  0  0  0  0  0
    5.7940   -0.3670    1.7000 C   0  0  0  0  0  0  0  0  0  0  0  0
    4.4090   -0.4130    1.5420 O   0  0  0  0  0  0  0  0  0  0  0  0
    3.7480   -0.1350    0.3540 C   0  0  0  0  0  0  0  0  0  0  0  0
    4.4150    0.2160   -0.8000 C   0  0  0  0  0  0  0  0  0  0  0  0
    3.7440    0.4940   -1.9900 C   0  0  0  0  0  0  0  0  0  0  0  0
    2.3750    0.4280   -2.0560 C   0  0  0  0  0  0  0  0  0  0  0  0
    1.4600    0.6300   -3.0210 N   0  0  0  0  0  0  0  0  0  0  0  0
    0.2370    0.4160   -2.5010 C   0  0  0  0  0  0  0  0  0  0  0  0
    0.3400    0.0650   -1.1710 C   0  0  0  0  0  0  0  0  0  0  0  0
   -0.7330   -0.2620   -0.1960 C   0  0  0  0  0  0  0  0  0  0  0  0
   -1.9870   -0.1560   -0.8780 N   0  0  0  0  0  0  0  0  0  0  0  0
   -3.1490   -0.3970   -0.0940 C   0  0  1  0  0  0  0  0  0  0  0  0
   -3.0680   -1.6790    0.7140 C   0  0  0  0  0  0  0  0  0  0  0  0
   -2.8950   -2.8880   -0.1780 C   0  0  0  0  0  0  0  0  0  0  0  0
   -3.6100    0.7580    0.7320 C   0  0  2  0  0  0  0  0  0  0  0  0
   -4.8410    0.3390    1.5100 C   0  0  0  0  0  0  0  0  0  0  0  0
   -4.0430    1.8750   -0.2030 C   0  0  0  0  0  0  0  0  0  0  0  0
   -2.6690    1.1970    1.6510 O   0  0  0  0  0  0  0  0  0  0  0  0
    1.7060    0.0770   -0.9020 C   0  0  0  0  0  0  0  0  0  0  0  0
    2.3590   -0.2000    0.2800 C   0  0  0  0  0  0  0  0  0  0  0  0
  1  2  1  0
  2  3  1  0
  3  4  1  0
  4  5  2  0
  4 21  1  0
  5  6  1  0
  6  7  2  0
  7  8  1  0
  7 20  1  0
  8  9  1  0
  9 10  2  0
 10 11  1  0
 10 20  1  0
 11 12  1  0
 12 13  1  0
 13 14  1  1
 13 16  1  0
 14 15  1  0
 16 17  1  1
 16 18  1  0
 16 19  1  0
 20 21  2  0
M  CHG  1  12   1
M  END
