
     RDKit          3D

 21 22  0  0  0  0  0  0  0  0999 V2000
    1.3920   -3.6670   -0.7980 C   0  0  0  0  0  0  0  0  0  0  0  0
    1.0690   -2.3240   -0.6620 O   0  0  0  0  0  0  0  0  0  0  0  0
    1.9130   -1.3090   -0.3050 C   0  0  0  0  0  0  0  0  0  0  0  0
    3.2360   -1.7170   -0.0670 C   0  0  0  0  0  0  0  0  0  0  0  0
    4.1530   -0.7800    0.2860 C   0  0  0  0  0  0  0  0  0  0  0  0
    3.8100    0.5440    0.4130 C   0  0  0  0  0  0  0  0  0  0  0  0
    4.7940    1.4840    0.7820 N   0  0  0  0  0  0  0  0  0  0  0  0
    2.4800    0.9090    0.1680 C   0  0  0  0  0  0  0  0  0  0  0  0
    1.5070   -0.0070   -0.1950 C   0  0  0  0  0  0  0  0  0  0  0  0
    0.0840    0.4250   -0.3510 C   0  0  0  0  0  0  0  0  0  0  0  0
   -0.1100    1.6710   -0.6080 C   0  0  0  0  0  0  0  0  0  0  0  0
   -1.2640    2.5250   -0.8340 C   0  0  0  0  0  0  0  0  0  0  0  0
   -1.0680    3.1610   -2.1960 C   0  0  0  0  0  0  0  0  0  0  0  0
   -2.0700    4.1080   -2.7600 C   0  0  0  0  0  0  0  0  0  0  0  0
   -0.0860    2.9180   -2.8710 O   0  0  0  0  0  0  0  0  0  0  0  0
   -0.9190   -0.6080   -0.1260 C   0  0  2  0  0  0  0  0  0  0  0  0
   -2.3680   -0.2370   -0.2050 C   0  0  0  0  0  0  0  0  0  0  0  0
   -3.1290   -1.5380    0.2360 C   0  0  0  0  0  0  0  0  0  0  0  0
   -3.0720   -1.4460    1.7630 C   0  0  0  0  0  0  0  0  0  0  0  0
   -1.7150   -0.8620    2.1550 C   0  0  0  0  0  0  0  0  0  0  0  0
   -0.7200   -1.2780    1.1630 N   0  0  0  0  0  0  0  0  0  0  0  0
  1  2  1  0
  2  3  1  0
  3  4  2  0
  3  9  1  0
  4  5  1  0
  5  6  2  0
  6  7  1  0
  6  8  1  0
  8  9  2  0
  9 10  1  0
 10 11  2  3
 16 10  1  1
 11 12  1  0
 12 13  1  0
 13 14  1  0
 13 15  2  0
 16 17  1  0
 16 21  1  0
 17 18  1  0
 18 19  1  0
 19 20  1  0
 20 21  1  0
M  CHG  1  21   1
M  END
