
     RDKit          3D

 20 20  0  0  0  0  0  0  0  0999 V2000
    3.1880   -2.0190    0.0940 C   0  0  0  0  0  0  0  0  0  0  0  0
    2.2800   -0.9530    0.6620 C   0  0  1  0  0  0  0  0  0  0  0  0
    2.0450   -1.2920    2.0180 O   0  0  0  0  0  0  0  0  0  0  0  0
    2.9950    0.3500    0.6490 C   0  0  0  0  0  0  0  0  0  0  0  0
    3.4070    0.9120   -0.3870 O   0  0  0  0  0  0  0  0  0  0  0  0
    3.2420    1.0250    1.8560 O   0  0  0  0  0  0  0  0  0  0  0  0
    3.8950    2.2130    1.8230 N   0  0  0  0  0  0  0  0  0  0  0  0
    0.9980   -0.9640   -0.0970 C   0  0  2  0  0  0  0  0  0  0  0  0
    1.2370   -0.8300   -1.5670 C   0  0  0  0  0  0  0  0  0  0  0  0
   -0.1050   -0.3710   -2.1620 C   0  0  0  0  0  0  0  0  0  0  0  0
   -1.1760   -1.0760   -1.3810 C   0  0  0  0  0  0  0  0  0  0  0  0
   -1.2880   -0.3510   -0.0430 C   0  0  2  0  0  0  0  0  0  0  0  0
   -1.8780   -1.2730    1.0120 C   0  0  0  0  0  0  0  0  0  0  0  0
   -3.2040   -1.7250    0.6280 N   0  0  0  0  0  0  0  0  0  0  0  0
   -2.2100    0.7930   -0.2670 C   0  0  0  0  0  0  0  0  0  0  0  0
   -3.3860    0.5940   -0.7400 O   0  0  0  0  0  0  0  0  0  0  0  0
   -1.9010    2.1490    0.0050 N   0  0  0  0  0  0  0  0  0  0  0  0
   -2.9020    3.1970   -0.2620 C   0  0  0  0  0  0  0  0  0  0  0  0
   -3.1830    3.1290   -1.6370 O   0  0  0  0  0  0  0  0  0  0  0  0
    0.0220    0.0100    0.3920 N   0  0  0  0  0  0  0  0  0  0  0  0
  2  1  1  6
  2  3  1  0
  2  4  1  0
  2  8  1  0
  4  5  2  0
  4  6  1  0
  6  7  1  0
  8  9  1  6
  8 20  1  0
  9 10  1  0
 10 11  1  0
 11 12  1  0
 12 13  1  1
 12 15  1  0
 12 20  1  0
 13 14  1  0
 15 16  2  0
 15 17  1  0
 17 18  1  0
 18 19  1  0
M  CHG  2  14   1  20   1
M  END
