
     RDKit          3D

 10 10  0  0  0  0  0  0  0  0999 V2000
    2.2140   -0.9160    0.0290 C   0  0  0  0  0  0  0  0  0  0  0  0
    0.8260   -0.3640   -0.0700 C   0  0  0  0  0  0  0  0  0  0  0  0
    0.6450    0.9220    0.0180 C   0  0  0  0  0  0  0  0  0  0  0  0
   -0.6440    1.5920   -0.0620 C   0  0  0  0  0  0  0  0  0  0  0  0
   -0.7590    2.8600    0.0320 O   0  0  0  0  0  0  0  0  0  0  0  0
   -1.8620    0.8810   -0.2480 N   0  0  0  0  0  0  0  0  0  0  0  0
   -1.8140   -0.8310    0.0800 S   0  0  1  0  0  0  0  0  0  0  0  0
   -2.1410   -1.1070    1.5010 O   0  0  0  0  0  0  0  0  0  0  0  0
   -2.7870   -1.5120   -0.8130 O   0  0  0  0  0  0  0  0  0  0  0  0
   -0.2050   -1.2970   -0.2550 O   0  0  0  0  0  0  0  0  0  0  0  0
  1  2  1  0
  2  3  2  0
  2 10  1  0
  3  4  1  0
  4  5  2  0
  4  6  1  0
  7  6  1  1
  7  8  2  0
  7  9  2  0
  7 10  1  0
M  END
