
     RDKit          3D

 20 20  0  0  0  0  0  0  0  0999 V2000
    7.4180    0.0640   -0.5990 N   0  0  0  0  0  0  0  0  0  0  0  0
    6.9850    0.3050    0.7600 C   0  0  0  0  0  0  0  0  0  0  0  0
    5.6460    0.8020    0.8560 N   0  0  0  0  0  0  0  0  0  0  0  0
    4.5080    0.1160    0.3890 C   0  0  0  0  0  0  0  0  0  0  0  0
    4.6970   -1.0140   -0.1500 O   0  0  0  0  0  0  0  0  0  0  0  0
    3.1870    0.6160    0.4900 N   0  0  0  0  0  0  0  0  0  0  0  0
    2.1040   -0.1790   -0.0260 C   0  0  0  0  0  0  0  0  0  0  0  0
    0.7880    0.4830    0.1560 C   0  0  0  0  0  0  0  0  0  0  0  0
    0.7250    1.6130    0.7100 O   0  0  0  0  0  0  0  0  0  0  0  0
   -0.4020   -0.0820   -0.2570 O   0  0  0  0  0  0  0  0  0  0  0  0
   -1.6490    0.6030   -0.0560 C   0  0  0  0  0  0  0  0  0  0  0  0
   -2.7120   -0.3160   -0.6310 C   0  0  1  0  0  0  0  0  0  0  0  0
   -2.4760   -0.5570   -2.0400 N   0  0  0  0  0  0  0  0  0  0  0  0
   -2.6540   -1.6110    0.1520 C   0  0  0  0  0  0  0  0  0  0  0  0
   -3.4820   -1.3370    1.3830 C   0  0  2  0  0  0  0  0  0  0  0  0
   -4.4490   -2.3550    1.4960 O   0  0  0  0  0  0  0  0  0  0  0  0
   -4.2360   -0.0560    1.1220 C   0  0  0  0  0  0  0  0  0  0  0  0
   -4.1060    0.1510   -0.3500 C   0  0  1  0  0  0  0  0  0  0  0  0
   -4.3420    1.5810   -0.7710 C   0  0  0  0  0  0  0  0  0  0  0  0
   -5.6740    1.8910   -0.4550 O   0  0  0  0  0  0  0  0  0  0  0  0
  1  2  1  0
  2  3  1  0
  3  4  1  0
  4  5  2  0
  4  6  1  0
  6  7  1  0
  7  8  1  0
  8  9  2  0
  8 10  1  0
 10 11  1  0
 11 12  1  0
 12 13  1  6
 12 14  1  0
 12 18  1  0
 14 15  1  0
 15 16  1  6
 15 17  1  0
 17 18  1  0
 18 19  1  1
 19 20  1  0
M  CHG  2   1   1  13   1
M  END
