
     RDKit          3D

 20 20  0  0  0  0  0  0  0  0999 V2000
   -7.0100    0.6920   -0.2550 N   0  0  0  0  0  0  0  0  0  0  0  0
   -5.6520    0.7990   -0.5280 O   0  0  0  0  0  0  0  0  0  0  0  0
   -4.6910    0.4440    0.4070 C   0  0  0  0  0  0  0  0  0  0  0  0
   -5.0810    0.0180    1.5230 O   0  0  0  0  0  0  0  0  0  0  0  0
   -3.2820    0.5840    0.0480 C   0  0  1  0  0  0  0  0  0  0  0  0
   -3.1270    1.0900   -1.2770 N   0  0  0  0  0  0  0  0  0  0  0  0
   -2.6060    1.4610    1.0930 C   0  0  0  0  0  0  0  0  0  0  0  0
   -1.4960    0.6120    1.6780 C   0  0  0  0  0  0  0  0  0  0  0  0
   -1.1530   -0.2630    0.4660 C   0  0  1  0  0  0  0  0  0  0  0  0
   -0.3010   -1.2970    0.8230 O   0  0  0  0  0  0  0  0  0  0  0  0
    0.8610   -1.1320    0.0350 C   0  0  0  0  0  0  0  0  0  0  0  0
    1.8110   -2.2510    0.4060 C   0  0  0  0  0  0  0  0  0  0  0  0
    3.0810   -2.1580   -0.3880 C   0  0  0  0  0  0  0  0  0  0  0  0
    3.7230   -0.9060   -0.1160 N   0  0  0  0  0  0  0  0  0  0  0  0
    4.9650   -0.6140   -0.7840 C   0  0  0  0  0  0  0  0  0  0  0  0
    5.4510   -1.4620   -1.5840 O   0  0  0  0  0  0  0  0  0  0  0  0
    5.6200    0.6050   -0.5400 N   0  0  0  0  0  0  0  0  0  0  0  0
    6.8830    0.9550   -1.1890 C   0  0  0  0  0  0  0  0  0  0  0  0
    7.2980    2.2080   -0.7640 O   0  0  0  0  0  0  0  0  0  0  0  0
   -2.5380   -0.7570    0.1030 C   0  0  0  0  0  0  0  0  0  0  0  0
  1  2  1  0
  2  3  1  0
  3  4  2  0
  3  5  1  0
  5  6  1  6
  5  7  1  0
  5 20  1  0
  7  8  1  0
  8  9  1  0
  9 10  1  1
  9 20  1  0
 10 11  1  0
 11 12  1  0
 12 13  1  0
 13 14  1  0
 14 15  1  0
 15 16  2  0
 15 17  1  0
 17 18  1  0
 18 19  1  0
M  CHG  2   1   1   6   1
M  END
