
     RDKit          3D

 20 20  0  0  0  0  0  0  0  0999 V2000
   -5.3150    2.2010    1.0630 C   0  0  0  0  0  0  0  0  0  0  0  0
   -4.6470    1.7120   -0.0890 O   0  0  0  0  0  0  0  0  0  0  0  0
   -3.7310    0.6710   -0.0250 C   0  0  0  0  0  0  0  0  0  0  0  0
   -3.5190    0.1760    1.1090 O   0  0  0  0  0  0  0  0  0  0  0  0
   -3.0730    0.2150   -1.2690 C   0  0  0  0  0  0  0  0  0  0  0  0
   -2.1160   -0.9060   -1.0570 C   0  0  1  0  0  0  0  0  0  0  0  0
   -1.0340   -0.6260   -0.1750 N   0  0  0  0  0  0  0  0  0  0  0  0
    0.1780   -0.3860   -0.9230 C   0  0  0  0  0  0  0  0  0  0  0  0
    1.2710    0.2180   -0.0900 C   0  0  1  0  0  0  0  0  0  0  0  0
    1.6040   -0.5460    1.1380 C   0  0  0  0  0  0  0  0  0  0  0  0
    2.8770   -1.2740    1.0090 N   0  0  0  0  0  0  0  0  0  0  0  0
    3.9510   -0.3900    0.6240 C   0  0  0  0  0  0  0  0  0  0  0  0
    3.4150    0.8540   -0.0680 C   0  0  1  0  0  0  0  0  0  0  0  0
    4.4380    1.5330   -0.8760 C   0  0  0  0  0  0  0  0  0  0  0  0
    5.5900    2.0840   -0.2600 N   0  0  0  0  0  0  0  0  0  0  0  0
    4.3230    1.6450   -2.1270 O   0  0  0  0  0  0  0  0  0  0  0  0
    2.3800    0.4000   -0.9160 O   0  0  0  0  0  0  0  0  0  0  0  0
   -2.8740   -2.1010   -0.6050 C   0  0  0  0  0  0  0  0  0  0  0  0
   -2.4600   -2.7790    0.5720 N   0  0  0  0  0  0  0  0  0  0  0  0
   -3.8740   -2.5250   -1.2390 O   0  0  0  0  0  0  0  0  0  0  0  0
  1  2  1  0
  2  3  1  0
  3  4  2  0
  3  5  1  0
  6  5  1  1
  6  7  1  0
  6 18  1  0
  7  8  1  0
  9  8  1  6
  9 10  1  0
  9 17  1  0
 10 11  1  0
 11 12  1  0
 12 13  1  0
 13 14  1  6
 13 17  1  0
 14 15  1  0
 14 16  2  0
 18 19  1  0
 18 20  2  0
M  CHG  2   7   1  11   1
M  END
