
     RDKit          3D

 14 14  0  0  0  0  0  0  0  0999 V2000
    0.0630   -0.2720   -1.6640 C   0  0  0  0  0  0  0  0  0  0  0  0
   -0.7230   -0.0850   -0.4110 C   0  0  1  0  0  0  0  0  0  0  0  0
    0.0010   -0.3610    0.8620 C   0  0  0  0  0  0  0  0  0  0  0  0
    0.9960    0.5420    1.2640 N   0  0  0  0  0  0  0  0  0  0  0  0
    2.1980    0.6300    0.5270 C   0  0  0  0  0  0  0  0  0  0  0  0
    2.9770   -0.6580    0.7200 C   0  0  0  0  0  0  0  0  0  0  0  0
    4.5420   -0.5410   -0.2210 S   0  0  0  0  0  0  0  0  0  0  0  0
    5.5440    0.6890    0.4770 O   0  0  0  0  0  0  0  0  0  0  0  0
   -1.3520    1.1520   -0.3070 O   0  0  0  0  0  0  0  0  0  0  0  0
   -2.3840    1.0130    0.5970 C   0  0  0  0  0  0  0  0  0  0  0  0
   -2.8560   -0.4220    0.5120 C   0  0  1  0  0  0  0  0  0  0  0  0
   -4.1920   -0.4380    0.1910 O   0  0  0  0  0  0  0  0  0  0  0  0
   -1.9630   -0.9880   -0.5440 C   0  0  1  0  0  0  0  0  0  0  0  0
   -2.5200   -0.7330   -1.7820 O   0  0  0  0  0  0  0  0  0  0  0  0
  2  1  1  6
  2  3  1  0
  2  9  1  0
  2 13  1  0
  3  4  1  0
  4  5  1  0
  5  6  1  0
  6  7  1  0
  7  8  1  0
  9 10  1  0
 10 11  1  0
 11 12  1  6
 11 13  1  0
 13 14  1  6
M  END
