
     RDKit          3D

 13 13  0  0  0  0  0  0  0  0999 V2000
   -2.7400    2.4520    0.2660 C   0  0  0  0  0  0  0  0  0  0  0  0
   -1.9170    1.5010    0.8510 O   0  0  0  0  0  0  0  0  0  0  0  0
   -1.4000    0.6100   -0.0860 C   0  0  1  0  0  0  0  0  0  0  0  0
    0.0690    0.6960   -0.1110 C   0  0  0  0  0  0  0  0  0  0  0  0
    0.8080   -0.2150   -0.7020 C   0  0  0  0  0  0  0  0  0  0  0  0
    2.1960   -0.1640   -0.7430 O   0  0  0  0  0  0  0  0  0  0  0  0
    3.0350   -0.7620    0.2110 C   0  0  0  0  0  0  0  0  0  0  0  0
    4.4690   -0.4700   -0.2040 C   0  0  0  0  0  0  0  0  0  0  0  0
    4.6470    0.9120   -0.2320 O   0  0  0  0  0  0  0  0  0  0  0  0
    0.0040   -1.5970   -1.4970 S   0  0  0  0  0  0  0  0  0  0  0  0
   -1.6430   -1.7820   -0.7810 C   0  0  0  0  0  0  0  0  0  0  0  0
   -1.8510   -0.7770    0.3260 C   0  0  2  0  0  0  0  0  0  0  0  0
   -3.2710   -0.6790    0.6440 N   0  0  0  0  0  0  0  0  0  0  0  0
  1  2  1  0
  3  2  1  1
  3  4  1  0
  3 12  1  0
  4  5  2  0
  5  6  1  0
  5 10  1  0
  6  7  1  0
  7  8  1  0
  8  9  1  0
 10 11  1  0
 11 12  1  0
 12 13  1  6
M  END
