
     RDKit          3D

 20 20  0  0  0  0  0  0  0  0999 V2000
   -5.7450    0.9620    0.7190 N   0  0  0  0  0  0  0  0  0  0  0  0
   -5.5350   -0.3620    1.2780 C   0  0  0  0  0  0  0  0  0  0  0  0
   -5.0500   -1.3480    0.2990 C   0  0  2  0  0  0  0  0  0  0  0  0
   -4.9800   -2.6450    0.8600 O   0  0  0  0  0  0  0  0  0  0  0  0
   -3.7680   -1.1340   -0.3620 C   0  0  0  0  0  0  0  0  0  0  0  0
   -3.2610   -2.1390   -1.0120 O   0  0  0  0  0  0  0  0  0  0  0  0
   -2.9670    0.0390   -0.4130 N   0  0  0  0  0  0  0  0  0  0  0  0
   -1.7770    0.0740   -1.1330 N   0  0  0  0  0  0  0  0  0  0  0  0
   -0.4950    0.0370   -0.5210 C   0  0  0  0  0  0  0  0  0  0  0  0
   -0.4020   -0.0260    0.7270 O   0  0  0  0  0  0  0  0  0  0  0  0
    0.7240    0.0740   -1.4040 C   0  0  0  0  0  0  0  0  0  0  0  0
    1.9050    0.0610   -0.7320 O   0  0  0  0  0  0  0  0  0  0  0  0
    2.3900    0.9110    0.1970 C   0  0  0  0  0  0  0  0  0  0  0  0
    1.6910    1.8750    0.5620 O   0  0  0  0  0  0  0  0  0  0  0  0
    3.7540    0.6890    0.7700 C   0  0  2  0  0  0  0  0  0  0  0  0
    4.6450    1.8290    0.4610 C   0  0  0  0  0  0  0  0  0  0  0  0
    5.7490    1.3320   -0.0590 C   0  0  0  0  0  0  0  0  0  0  0  0
    5.6420   -0.1460   -0.1220 C   0  0  1  0  0  0  0  0  0  0  0  0
    6.4920   -0.8010    0.8580 N   0  0  0  0  0  0  0  0  0  0  0  0
    4.3430   -0.3970    0.1570 O   0  0  0  0  0  0  0  0  0  0  0  0
  1  2  1  0
  2  3  1  0
  3  4  1  1
  3  5  1  0
  5  6  2  0
  5  7  1  0
  7  8  1  0
  8  9  1  0
  9 10  2  0
  9 11  1  0
 11 12  1  0
 12 13  1  0
 13 14  2  0
 15 13  1  6
 15 16  1  0
 15 20  1  0
 16 17  2  0
 17 18  1  0
 18 19  1  1
 18 20  1  0
M  CHG  2   1   1  19   1
M  END
