
     RDKit          3D

 29 32  0  0  0  0  0  0  0  0999 V2000
   -3.3880   -3.7410    0.5580 C   0  0  0  0  0  0  0  0  0  0  0  0
   -3.0290   -2.8060   -0.5110 O   0  0  0  0  0  0  0  0  0  0  0  0
   -3.4120   -1.4750   -0.1970 C   0  0  0  0  0  0  0  0  0  0  0  0
   -2.5220   -0.6710    0.4590 C   0  0  0  0  0  0  0  0  0  0  0  0
   -1.0950   -1.1090    0.5600 C   0  0  2  0  0  0  0  0  0  0  0  0
   -0.6840   -1.1310    2.0260 C   0  0  0  0  0  0  0  0  0  0  0  0
   -0.3120    0.0250   -0.1030 C   0  0  0  0  0  0  0  0  0  0  0  0
    1.1640   -0.2140   -0.1700 C   0  0  0  0  0  0  0  0  0  0  0  0
    1.5570   -1.3600    0.0840 O   0  0  0  0  0  0  0  0  0  0  0  0
    1.9620    0.9050   -0.5070 N   0  0  0  0  0  0  0  0  0  0  0  0
    3.3580    0.8520   -0.5780 C   0  0  0  0  0  0  0  0  0  0  0  0
    4.0760    1.9850   -0.9990 C   0  0  0  0  0  0  0  0  0  0  0  0
    5.4630    1.9800   -1.0330 C   0  0  0  0  0  0  0  0  0  0  0  0
    6.1340    0.8350   -0.6290 C   0  0  0  0  0  0  0  0  0  0  0  0
    5.4590   -0.2800   -0.2140 C   0  0  0  0  0  0  0  0  0  0  0  0
    4.0500   -0.2480   -0.1980 C   0  0  0  0  0  0  0  0  0  0  0  0
    6.4020   -1.3310    0.1610 C   0  0  0  0  0  0  0  0  0  0  0  0
    6.1830   -2.5510    0.1700 O   0  0  0  0  0  0  0  0  0  0  0  0
    7.6520   -0.5530    0.5230 C   0  0  0  0  0  0  0  0  0  0  0  0
    7.6010    0.5170   -0.5210 C   0  0  0  0  0  0  0  0  0  0  0  0
   -2.8370    0.6440    0.8160 C   0  0  0  0  0  0  0  0  0  0  0  0
   -4.1010    1.1830    0.4840 C   0  0  0  0  0  0  0  0  0  0  0  0
   -4.9700    0.3560   -0.1760 C   0  0  0  0  0  0  0  0  0  0  0  0
   -4.6340   -0.9610   -0.5120 C   0  0  0  0  0  0  0  0  0  0  0  0
   -5.5460   -1.7910   -1.1930 O   0  0  0  0  0  0  0  0  0  0  0  0
   -6.2060    0.8920   -0.4940 O   0  0  0  0  0  0  0  0  0  0  0  0
   -6.4150    2.3150   -0.5350 C   0  0  0  0  0  0  0  0  0  0  0  0
   -5.6860    3.0410    0.5480 C   0  0  0  0  0  0  0  0  0  0  0  0
   -4.4310    2.4820    0.8150 O   0  0  0  0  0  0  0  0  0  0  0  0
  1  2  1  0
  2  3  1  0
  3  4  2  0
  3 24  1  0
  4  5  1  0
  4 21  1  0
  5  6  1  1
  5  7  1  0
  7  8  1  0
  8  9  2  0
  8 10  1  0
 10 11  1  0
 11 12  2  0
 11 16  1  0
 12 13  1  0
 13 14  2  0
 14 15  1  0
 14 20  1  0
 15 16  2  0
 15 17  1  0
 17 18  2  0
 17 19  1  0
 19 20  1  0
 21 22  2  0
 22 23  1  0
 22 29  1  0
 23 24  2  0
 23 26  1  0
 24 25  1  0
 26 27  1  0
 27 28  1  0
 28 29  1  0
M  END
