
     RDKit          3D

 30 32  0  0  0  0  0  0  0  0999 V2000
    7.1830   -0.0600   -0.4820 C   0  0  0  0  0  0  0  0  0  0  0  0
    6.5620    0.3510    0.8410 C   0  0  2  0  0  0  0  0  0  0  0  0
    5.2940   -0.1040    1.0780 O   0  0  0  0  0  0  0  0  0  0  0  0
    4.2130   -0.1290    0.2670 C   0  0  0  0  0  0  0  0  0  0  0  0
    4.1910    0.3700   -1.0090 C   0  0  0  0  0  0  0  0  0  0  0  0
    3.0700    0.3210   -1.8010 C   0  0  0  0  0  0  0  0  0  0  0  0
    1.8800   -0.2680   -1.2850 C   0  0  0  0  0  0  0  0  0  0  0  0
    1.8600   -0.7740   -0.0200 C   0  0  0  0  0  0  0  0  0  0  0  0
    3.0270   -0.6990    0.7420 C   0  0  0  0  0  0  0  0  0  0  0  0
    2.9520   -1.2330    2.0340 O   0  0  0  0  0  0  0  0  0  0  0  0
    0.6850   -1.3520    0.5400 N   0  0  0  0  0  0  0  0  0  0  0  0
   -0.4650   -1.3710   -0.2900 C   0  0  0  0  0  0  0  0  0  0  0  0
   -1.4810   -2.0430    0.0540 O   0  0  0  0  0  0  0  0  0  0  0  0
   -0.5090   -0.6210   -1.5590 C   0  0  1  0  0  0  0  0  0  0  0  0
   -1.2750    0.6980   -1.3930 C   0  0  0  0  0  0  0  0  0  0  0  0
   -2.6940    0.3890   -0.9730 C   0  0  0  0  0  0  0  0  0  0  0  0
   -3.3870   -0.4090   -1.6460 O   0  0  0  0  0  0  0  0  0  0  0  0
   -3.2630    0.9730    0.1620 O   0  0  0  0  0  0  0  0  0  0  0  0
   -4.5580    0.6410    0.4770 C   0  0  0  0  0  0  0  0  0  0  0  0
   -4.8580   -0.5330    1.1110 C   0  0  0  0  0  0  0  0  0  0  0  0
   -6.1780   -0.8700    1.4330 C   0  0  0  0  0  0  0  0  0  0  0  0
   -6.5350   -2.0780    2.0860 N   0  0  0  0  0  0  0  0  0  0  0  0
   -7.1860    0.0060    1.0990 C   0  0  0  0  0  0  0  0  0  0  0  0
   -6.9030    1.2020    0.4560 C   0  0  0  0  0  0  0  0  0  0  0  0
   -7.9330    2.0720    0.1270 O   0  0  0  0  0  0  0  0  0  0  0  0
   -5.5760    1.5040    0.1500 C   0  0  0  0  0  0  0  0  0  0  0  0
    0.7560   -0.3180   -2.1360 N   0  0  0  0  0  0  0  0  0  0  0  0
    6.6310    1.8180    0.9510 C   0  0  0  0  0  0  0  0  0  0  0  0
    6.7680    2.5500   -0.0520 O   0  0  0  0  0  0  0  0  0  0  0  0
    6.5390    2.4090    2.1980 O   0  0  0  0  0  0  0  0  0  0  0  0
  2  1  1  6
  2  3  1  0
  2 28  1  0
  3  4  1  0
  4  5  2  0
  4  9  1  0
  5  6  1  0
  6  7  2  0
  7  8  1  0
  7 27  1  0
  8  9  2  0
  8 11  1  0
  9 10  1  0
 11 12  1  0
 12 13  2  0
 12 14  1  0
 14 15  1  1
 14 27  1  0
 15 16  1  0
 16 17  2  0
 16 18  1  0
 18 19  1  0
 19 20  2  0
 19 26  1  0
 20 21  1  0
 21 22  1  0
 21 23  2  0
 23 24  1  0
 24 25  1  0
 24 26  2  0
 28 29  2  0
 28 30  1  0
M  CHG  2  27   1  30  -1
M  END
