
     RDKit          3D

 30 32  0  0  0  0  0  0  0  0999 V2000
   -3.2050   -3.0700   -1.9580 C   0  0  0  0  0  0  0  0  0  0  0  0
   -2.6340   -2.4110   -0.8520 O   0  0  0  0  0  0  0  0  0  0  0  0
   -1.4690   -1.6600   -1.0920 C   0  0  0  0  0  0  0  0  0  0  0  0
   -0.4480   -2.2190   -1.6610 C   0  0  0  0  0  0  0  0  0  0  0  0
    0.8210   -1.5590   -1.9680 C   0  0  0  0  0  0  0  0  0  0  0  0
    0.9300   -0.1490   -1.5980 C   0  0  2  0  0  0  0  0  0  0  0  0
    2.0480    0.1220   -0.6870 N   0  0  0  0  0  0  0  0  0  0  0  0
    3.3040    0.1900   -1.3730 C   0  0  1  0  0  0  0  0  0  0  0  0
    4.1110    1.3290   -0.8100 C   0  0  0  0  0  0  0  0  0  0  0  0
    5.1930    0.9170    0.1320 C   0  0  1  0  0  0  0  0  0  0  0  0
    5.5260    2.0200    0.9300 O   0  0  0  0  0  0  0  0  0  0  0  0
    4.7130   -0.2540    1.0010 C   0  0  2  0  0  0  0  0  0  0  0  0
    5.6920   -0.5490    1.9510 O   0  0  0  0  0  0  0  0  0  0  0  0
    5.2580   -0.4160    3.2070 N   0  0  0  0  0  0  0  0  0  0  0  0
    5.7600    0.7590    3.6990 O   0  0  0  0  0  0  0  0  0  0  0  0
    4.5580   -1.3700    0.0780 N   0  0  0  0  0  0  0  0  0  0  0  0
    4.0990   -1.0830   -1.2380 C   0  0  0  0  0  0  0  0  0  0  0  0
    4.3330   -1.8300   -2.2240 O   0  0  0  0  0  0  0  0  0  0  0  0
   -0.2680    0.4100   -0.9590 C   0  0  0  0  0  0  0  0  0  0  0  0
   -0.2960    1.7650   -0.5490 O   0  0  0  0  0  0  0  0  0  0  0  0
   -1.3800   -0.2630   -0.7170 C   0  0  0  0  0  0  0  0  0  0  0  0
   -2.4630    0.3400   -0.1100 O   0  0  0  0  0  0  0  0  0  0  0  0
   -3.6640   -0.2980    0.2000 C   0  0  0  0  0  0  0  0  0  0  0  0
   -4.6190    0.6730    0.8590 C   0  0  0  0  0  0  0  0  0  0  0  0
   -5.7800    0.9170    0.2860 C   0  0  0  0  0  0  0  0  0  0  0  0
   -6.7310    1.8420    0.8800 C   0  0  0  0  0  0  0  0  0  0  0  0
   -6.4520    2.4640    2.0140 C   0  0  0  0  0  0  0  0  0  0  0  0
   -5.1890    2.2760    2.7500 C   0  0  0  0  0  0  0  0  0  0  0  0
   -4.2720    1.3270    2.0940 C   0  0  0  0  0  0  0  0  0  0  0  0
   -3.1470    1.0690    2.6150 O   0  0  0  0  0  0  0  0  0  0  0  0
  1  2  1  0
  2  3  1  0
  3  4  2  0
  3 21  1  0
  4  5  1  0
  5  6  1  0
  6  7  1  1
  6 19  1  0
  8  7  1  1
  8  9  1  0
  8 17  1  0
  9 10  1  0
 10 11  1  1
 10 12  1  0
 12 13  1  1
 12 16  1  0
 13 14  1  0
 14 15  1  0
 16 17  1  0
 17 18  2  0
 19 20  1  0
 19 21  2  0
 21 22  1  0
 22 23  1  0
 23 24  1  0
 24 25  2  0
 24 29  1  0
 25 26  1  0
 26 27  2  0
 27 28  1  0
 28 29  1  0
 29 30  2  0
M  CHG  2   7   1  15  -1
M  END
