
     RDKit          3D

 30 31  0  0  0  0  0  0  0  0999 V2000
   -5.3850    5.2720    0.7120 C   0  0  0  0  0  0  0  0  0  0  0  0
   -4.8910    3.9470    0.6880 O   0  0  0  0  0  0  0  0  0  0  0  0
   -3.5780    3.7430    0.3320 C   0  0  0  0  0  0  0  0  0  0  0  0
   -2.8630    4.7250    0.0410 O   0  0  0  0  0  0  0  0  0  0  0  0
   -2.9870    2.4180    0.2800 C   0  0  0  0  0  0  0  0  0  0  0  0
   -3.6940    1.3530    0.5750 C   0  0  0  0  0  0  0  0  0  0  0  0
   -5.0250    1.5660    0.9360 O   0  0  0  0  0  0  0  0  0  0  0  0
   -3.1190    0.0080    0.5300 C   0  0  0  0  0  0  0  0  0  0  0  0
   -1.8710   -0.2700    0.1980 C   0  0  0  0  0  0  0  0  0  0  0  0
   -1.3410   -1.6390    0.1710 C   0  0  0  0  0  0  0  0  0  0  0  0
   -2.2030   -2.6390    0.7990 N   0  0  2  0  0  0  0  0  0  0  0  0
   -1.8140   -3.9220    0.2320 C   0  0  0  0  0  0  0  0  0  0  0  0
   -3.5860   -2.4370    0.4990 C   0  0  0  0  0  0  0  0  0  0  0  0
   -4.0600   -1.0760    0.8810 C   0  0  0  0  0  0  0  0  0  0  0  0
   -0.9800    0.8220   -0.1560 C   0  0  0  0  0  0  0  0  0  0  0  0
    0.2480    0.7980   -0.5570 C   0  0  0  0  0  0  0  0  0  0  0  0
    1.2840   -0.1330   -0.8490 C   0  0  0  0  0  0  0  0  0  0  0  0
    1.2540   -1.3480   -0.7880 O   0  0  0  0  0  0  0  0  0  0  0  0
    2.5710    0.3740   -1.2820 O   0  0  0  0  0  0  0  0  0  0  0  0
    3.6000   -0.5460   -1.5720 C   0  0  1  0  0  0  0  0  0  0  0  0
    4.1030   -0.3260   -2.9840 C   0  0  0  0  0  0  0  0  0  0  0  0
    4.7190   -0.3440   -0.5970 C   0  0  0  0  0  0  0  0  0  0  0  0
    5.8940   -0.0130   -1.0560 C   0  0  0  0  0  0  0  0  0  0  0  0
    6.9750    0.1930   -0.2310 O   0  0  0  0  0  0  0  0  0  0  0  0
    4.4810   -0.5050    0.8450 C   0  0  1  0  0  0  0  0  0  0  0  0
    3.7920   -1.8130    1.0130 N   0  0  0  0  0  0  0  0  0  0  0  0
    5.6180   -0.5730    1.6840 N   0  0  0  0  0  0  0  0  0  0  0  0
    6.4240   -1.6180    1.4920 O   0  0  0  0  0  0  0  0  0  0  0  0
   -1.6060    2.1870   -0.0960 C   0  0  0  0  0  0  0  0  0  0  0  0
   -0.9420    3.2230   -0.3770 O   0  0  0  0  0  0  0  0  0  0  0  0
  1  2  1  0
  2  3  1  0
  3  4  2  0
  3  5  1  0
  5  6  2  0
  5 29  1  0
  6  7  1  0
  6  8  1  0
  8  9  2  0
  8 14  1  0
  9 10  1  0
  9 15  1  0
 10 11  1  0
 11 12  1  6
 11 13  1  0
 13 14  1  0
 15 16  2  3
 15 29  1  0
 16 17  1  0
 17 18  2  0
 17 19  1  0
 19 20  1  0
 20 21  1  6
 20 22  1  0
 22 23  2  3
 22 25  1  0
 23 24  1  0
 25 26  1  6
 25 27  1  0
 27 28  1  0
 29 30  2  0
M  CHG  2  11   1  28  -1
M  END
