
     RDKit          3D

 29 32  0  0  0  0  0  0  0  0999 V2000
   -1.4560   -2.8550   -0.8550 C   0  0  0  0  0  0  0  0  0  0  0  0
   -1.4710   -1.4740   -0.9790 O   0  0  0  0  0  0  0  0  0  0  0  0
   -1.0440   -0.5320   -0.1030 C   0  0  0  0  0  0  0  0  0  0  0  0
   -1.8530    0.2360    0.6220 C   0  0  0  0  0  0  0  0  0  0  0  0
   -3.2920    0.0230    0.4320 C   0  0  0  0  0  0  0  0  0  0  0  0
   -3.8180   -1.2150    0.4040 N   0  0  0  0  0  0  0  0  0  0  0  0
   -5.1300   -1.4020    0.2080 C   0  0  0  0  0  0  0  0  0  0  0  0
   -5.5850   -2.7270    0.1950 O   0  0  0  0  0  0  0  0  0  0  0  0
   -6.0110   -0.3580    0.0250 C   0  0  0  0  0  0  0  0  0  0  0  0
   -5.5240    0.9320    0.0450 C   0  0  0  0  0  0  0  0  0  0  0  0
   -4.1600    1.1000    0.2500 C   0  0  0  0  0  0  0  0  0  0  0  0
   -3.6250    2.3040    0.2770 C   0  0  0  0  0  0  0  0  0  0  0  0
   -4.4420    3.5180    0.0930 C   0  0  0  0  0  0  0  0  0  0  0  0
   -5.7780    3.2400   -0.0920 O   0  0  0  0  0  0  0  0  0  0  0  0
   -6.3050    1.9830   -0.1200 C   0  0  0  0  0  0  0  0  0  0  0  0
    0.4170   -0.3130    0.0890 C   0  0  0  0  0  0  0  0  0  0  0  0
    1.3680   -0.9480   -0.5350 C   0  0  0  0  0  0  0  0  0  0  0  0
    2.6610   -0.4620   -0.0810 C   0  0  0  0  0  0  0  0  0  0  0  0
    3.8140   -0.9390   -0.5010 C   0  0  0  0  0  0  0  0  0  0  0  0
    5.1280   -0.5100   -0.1080 C   0  0  0  0  0  0  0  0  0  0  0  0
    5.9940   -1.4300    0.4880 C   0  0  0  0  0  0  0  0  0  0  0  0
    7.2560   -1.0310    0.8290 C   0  0  0  0  0  0  0  0  0  0  0  0
    7.7480    0.2540    0.6180 C   0  0  0  0  0  0  0  0  0  0  0  0
    6.8810    1.1420    0.0310 C   0  0  0  0  0  0  0  0  0  0  0  0
    5.5800    0.7530   -0.3280 C   0  0  0  0  0  0  0  0  0  0  0  0
    4.7860    1.7250   -0.9250 O   0  0  0  0  0  0  0  0  0  0  0  0
    2.3570    0.5500    0.9020 C   0  0  0  0  0  0  0  0  0  0  0  0
    3.1750    1.2510    1.5700 O   0  0  0  0  0  0  0  0  0  0  0  0
    0.9640    0.6070    0.9700 O   0  0  0  0  0  0  0  0  0  0  0  0
  1  2  1  0
  2  3  1  0
  3  4  2  3
  3 16  1  0
  4  5  1  0
  5  6  2  0
  5 11  1  0
  6  7  1  0
  7  8  1  0
  7  9  2  0
  9 10  1  0
 10 11  1  0
 10 15  2  0
 11 12  2  0
 12 13  1  0
 13 14  1  0
 14 15  1  0
 16 17  2  0
 16 29  1  0
 17 18  1  0
 18 19  2  3
 18 27  1  0
 19 20  1  0
 20 21  2  0
 20 25  1  0
 21 22  1  0
 22 23  2  0
 23 24  1  0
 24 25  2  0
 25 26  1  0
 27 28  2  0
 27 29  1  0
M  END
