
     RDKit          3D

 31 32  0  0  0  0  0  0  0  0999 V2000
   -5.5130    2.4970    1.5280 C   0  0  0  0  0  0  0  0  0  0  0  0
   -4.9030    1.1160    1.8190 C   0  0  0  0  0  0  0  0  0  0  0  0
   -4.0160    0.8390    0.7870 O   0  0  0  0  0  0  0  0  0  0  0  0
   -3.1890   -0.2770    0.6870 C   0  0  0  0  0  0  0  0  0  0  0  0
   -3.2360   -1.1080    1.6030 O   0  0  0  0  0  0  0  0  0  0  0  0
   -2.3260   -0.3370   -0.5180 C   0  0  1  0  0  0  0  0  0  0  0  0
   -1.6600    1.0270   -0.6210 C   0  0  0  0  0  0  0  0  0  0  0  0
   -0.3050    0.7370   -0.0890 C   0  0  1  0  0  0  0  0  0  0  0  0
    0.7880    1.6180   -0.7350 C   0  0  0  0  0  0  0  0  0  0  0  0
   -0.2200    0.9700    1.3620 C   0  0  0  0  0  0  0  0  0  0  0  0
   -0.5780    2.4530    1.6140 C   0  0  0  0  0  0  0  0  0  0  0  0
   -0.1050   -0.7000   -0.5970 C   0  0  2  0  0  0  0  0  0  0  0  0
    1.1610   -1.2330   -0.0510 C   0  0  0  0  0  0  0  0  0  0  0  0
    2.0170   -1.7030   -0.8960 O   0  0  0  0  0  0  0  0  0  0  0  0
    1.5490   -1.2610    1.2980 N   0  0  0  0  0  0  0  0  0  0  0  0
    2.9500   -1.6270    1.5190 N   0  0  0  0  0  0  0  0  0  0  0  0
    3.2750   -2.6900    2.1820 O   0  0  0  0  0  0  0  0  0  0  0  0
    3.8310   -0.6990    0.9420 C   0  0  0  0  0  0  0  0  0  0  0  0
    5.0730   -0.4980    0.7630 C   0  0  0  0  0  0  0  0  0  0  0  0
    5.4010    0.7640    0.0150 C   0  0  0  0  0  0  0  0  0  0  0  0
    4.4320    1.5200   -0.3440 O   0  0  0  0  0  0  0  0  0  0  0  0
    6.6860    1.0800   -0.2650 O   0  0  0  0  0  0  0  0  0  0  0  0
    6.1630   -1.3220    1.1890 C   0  0  0  0  0  0  0  0  0  0  0  0
    7.3280   -0.9760    0.9400 O   0  0  0  0  0  0  0  0  0  0  0  0
    5.9860   -2.5020    1.8860 O   0  0  0  0  0  0  0  0  0  0  0  0
    0.1560   -0.4810   -2.1030 C   0  0  0  0  0  0  0  0  0  0  0  0
   -0.6120   -1.2460   -3.0560 C   0  0  2  0  0  0  0  0  0  0  0  0
   -1.2990   -0.4330   -3.9850 O   0  0  0  0  0  0  0  0  0  0  0  0
   -1.5920   -2.2560   -2.5780 C   0  0  0  0  0  0  0  0  0  0  0  0
   -1.5140   -2.5270   -1.1150 C   0  0  0  0  0  0  0  0  0  0  0  0
   -1.3140   -1.3470   -0.3750 N   0  0  2  0  0  0  0  0  0  0  0  0
  1  2  1  0
  2  3  1  0
  3  4  1  0
  4  5  2  0
  6  4  1  1
  6  7  1  0
  6 31  1  0
  7  8  1  0
  8  9  1  6
  8 10  1  0
  8 12  1  0
 10 11  1  0
 12 13  1  1
 12 26  1  0
 12 31  1  0
 13 14  2  0
 13 15  1  0
 15 16  1  0
 16 17  1  0
 16 18  1  0
 18 19  2  3
 19 20  1  0
 19 23  1  0
 20 21  2  0
 20 22  1  0
 23 24  2  0
 23 25  1  0
 26 27  1  0
 27 28  1  1
 27 29  1  0
 29 30  1  0
 31 30  1  6
M  CHG  2  17  -1  31   1
M  END
