
     RDKit          3D

 29 33  0  0  0  0  0  0  0  0999 V2000
   -2.3960    2.7990   -1.9630 O   0  0  0  0  0  0  0  0  0  0  0  0
   -2.1130    2.7500   -0.7420 C   0  0  0  0  0  0  0  0  0  0  0  0
   -1.9800    3.9380   -0.0400 O   0  0  0  0  0  0  0  0  0  0  0  0
   -1.9340    1.4250   -0.1070 C   0  0  1  0  0  0  0  0  0  0  0  0
   -2.9510    1.2450    1.0430 C   0  0  1  0  0  0  0  0  0  0  0  0
   -4.2880    0.7800    0.5070 C   0  0  0  0  0  0  0  0  0  0  0  0
   -4.2360   -0.6590   -0.0140 C   0  0  0  0  0  0  0  0  0  0  0  0
   -2.7400   -0.8790   -0.3660 C   0  0  2  0  0  0  0  0  0  0  0  0
   -2.0960   -1.0580    1.0070 C   0  0  0  0  0  0  0  0  0  0  0  0
   -2.3460    0.1220    1.8930 C   0  0  0  0  0  0  0  0  0  0  0  0
   -2.3160    0.3430   -1.0920 C   0  0  2  0  0  0  0  0  0  0  0  0
   -1.3810    0.0780   -2.1230 N   0  0  0  0  0  0  0  0  0  0  0  0
   -0.0130   -0.2050   -1.9890 C   0  0  0  0  0  0  0  0  0  0  0  0
    0.6090   -0.2310   -0.7810 N   0  0  0  0  0  0  0  0  0  0  0  0
    1.9140   -0.4850   -0.6270 C   0  0  0  0  0  0  0  0  0  0  0  0
    2.5620   -0.5100    0.6810 C   0  0  0  0  0  0  0  0  0  0  0  0
    1.9620   -0.2880    1.8960 C   0  0  0  0  0  0  0  0  0  0  0  0
    2.9080   -0.4000    2.8690 N   0  0  0  0  0  0  0  0  0  0  0  0
    4.1030   -0.6870    2.3300 C   0  0  0  0  0  0  0  0  0  0  0  0
    5.3310   -0.8910    2.8760 N   0  0  0  0  0  0  0  0  0  0  0  0
    6.3810   -1.1670    2.1060 C   0  0  0  0  0  0  0  0  0  0  0  0
    6.2070   -1.2440    0.7410 C   0  0  0  0  0  0  0  0  0  0  0  0
    7.2380   -1.5220   -0.1000 F   0  0  0  0  0  0  0  0  0  0  0  0
    4.9760   -1.0420    0.1610 C   0  0  0  0  0  0  0  0  0  0  0  0
    3.8860   -0.7550    0.9620 C   0  0  0  0  0  0  0  0  0  0  0  0
    2.6220   -0.7250   -1.7580 N   0  0  0  0  0  0  0  0  0  0  0  0
    2.0700   -0.7140   -2.9790 C   0  0  0  0  0  0  0  0  0  0  0  0
    0.7320   -0.4530   -3.1430 C   0  0  0  0  0  0  0  0  0  0  0  0
    0.1280   -0.4310   -4.3510 F   0  0  0  0  0  0  0  0  0  0  0  0
  1  2  2  0
  2  3  1  0
  4  2  1  6
  4  5  1  0
  4 11  1  0
  5  6  1  6
  5 10  1  0
  6  7  1  0
  8  7  1  1
  8  9  1  0
  8 11  1  0
  9 10  1  0
 11 12  1  6
 12 13  1  0
 13 14  2  0
 13 28  1  0
 14 15  1  0
 15 16  1  0
 15 26  2  0
 16 17  2  0
 16 25  1  0
 17 18  1  0
 18 19  1  0
 19 20  2  0
 19 25  1  0
 20 21  1  0
 21 22  2  0
 22 23  1  0
 22 24  1  0
 24 25  2  0
 26 27  1  0
 27 28  2  0
 28 29  1  0
M  END
