
     RDKit          3D

 30 32  0  0  0  0  0  0  0  0999 V2000
    0.0940    1.1280    3.6760 C   0  0  0  0  0  0  0  0  0  0  0  0
    0.2010    0.9450    2.3840 C   0  0  0  0  0  0  0  0  0  0  0  0
    1.1620    0.0810    1.8980 O   0  0  0  0  0  0  0  0  0  0  0  0
    2.5210    0.5060    1.7150 C   0  0  0  0  0  0  0  0  0  0  0  0
    3.2540   -0.6790    1.1830 C   0  0  0  0  0  0  0  0  0  0  0  0
    3.8490   -0.6720    0.0470 N   0  0  0  0  0  0  0  0  0  0  0  0
    4.5510   -1.7820   -0.4820 C   0  0  0  0  0  0  0  0  0  0  0  0
    4.6380   -2.9080    0.2720 O   0  0  0  0  0  0  0  0  0  0  0  0
    4.4400   -2.7670    1.6140 C   0  0  1  0  0  0  0  0  0  0  0  0
    5.6760   -2.1660    2.2480 C   0  0  0  0  0  0  0  0  0  0  0  0
    3.3210   -1.8870    1.9310 N   0  0  0  0  0  0  0  0  0  0  0  0
   -0.6760    1.6370    1.4180 C   0  0  0  0  0  0  0  0  0  0  0  0
   -0.5250    1.4170    0.1310 C   0  0  0  0  0  0  0  0  0  0  0  0
   -1.3530    2.0730   -0.8750 C   0  0  1  0  0  0  0  0  0  0  0  0
   -0.3800    3.0080   -1.6000 C   0  0  0  0  0  0  0  0  0  0  0  0
    0.5890    2.4840   -2.1510 O   0  0  0  0  0  0  0  0  0  0  0  0
   -0.6170    4.3400   -1.6080 O   0  0  0  0  0  0  0  0  0  0  0  0
   -1.8360    1.1710   -1.9880 C   0  0  2  0  0  0  0  0  0  0  0  0
   -2.2530    2.0610   -3.0250 O   0  0  0  0  0  0  0  0  0  0  0  0
   -2.9150    0.2610   -1.6880 C   0  0  0  0  0  0  0  0  0  0  0  0
   -3.3520   -0.0530   -0.4410 C   0  0  0  0  0  0  0  0  0  0  0  0
   -4.4110   -0.9560   -0.2940 C   0  0  0  0  0  0  0  0  0  0  0  0
   -5.0300   -1.5420   -1.3640 C   0  0  0  0  0  0  0  0  0  0  0  0
   -4.5910   -1.2260   -2.6210 C   0  0  0  0  0  0  0  0  0  0  0  0
   -5.1980   -1.8070   -3.7880 N   0  0  0  0  0  0  0  0  0  0  0  0
   -3.5540   -0.3430   -2.7750 C   0  0  0  0  0  0  0  0  0  0  0  0
   -2.3250    2.8950   -0.3580 O   0  0  0  0  0  0  0  0  0  0  0  0
   -2.4850    3.1410    0.9770 C   0  0  0  0  0  0  0  0  0  0  0  0
   -3.3930    3.9500    1.4040 O   0  0  0  0  0  0  0  0  0  0  0  0
   -1.6520    2.5030    1.8840 O   0  0  0  0  0  0  0  0  0  0  0  0
  1  2  2  0
  2  3  1  0
  2 12  1  0
  3  4  1  0
  4  5  1  0
  5  6  2  0
  5 11  1  0
  6  7  1  0
  7  8  1  0
  8  9  1  0
  9 10  1  1
  9 11  1  0
 12 13  2  0
 12 30  1  0
 13 14  1  0
 14 15  1  6
 14 18  1  0
 14 27  1  0
 15 16  2  0
 15 17  1  0
 18 19  1  6
 18 20  1  0
 20 21  2  0
 20 26  1  0
 21 22  1  0
 22 23  2  0
 23 24  1  0
 24 25  1  0
 24 26  2  0
 27 28  1  0
 28 29  2  0
 28 30  1  0
M  CHG  2   6   1  17  -1
M  END
