
     RDKit          3D

 38 41  0  0  0  0  0  0  0  0999 V2000
    3.3930    1.4680   -3.1950 O   0  0  0  0  0  0  0  0  0  0  0  0
    2.4840    1.0790   -2.3980 C   0  0  0  0  0  0  0  0  0  0  0  0
    2.6400   -0.1940   -1.8050 N   0  0  0  0  0  0  0  0  0  0  0  0
    3.8200   -1.0110   -2.1300 C   0  0  0  0  0  0  0  0  0  0  0  0
    5.1100   -0.3670   -1.7660 C   0  0  0  0  0  0  0  0  0  0  0  0
    5.2680   -0.0410   -0.3100 C   0  0  2  0  0  0  0  0  0  0  0  0
    6.6060    0.6200   -0.0340 C   0  0  0  0  0  0  0  0  0  0  0  0
    7.0190    0.1450    1.3570 C   0  0  0  0  0  0  0  0  0  0  0  0
    6.3040   -1.1640    1.5650 C   0  0  2  0  0  0  0  0  0  0  0  0
    7.2220   -2.3230    1.7320 C   0  0  0  0  0  0  0  0  0  0  0  0
    8.1440   -2.5930    0.5850 C   0  0  0  0  0  0  0  0  0  0  0  0
    8.9130   -3.7240    0.9510 O   0  0  0  0  0  0  0  0  0  0  0  0
    5.2720   -1.3030    0.4980 C   0  0  2  0  0  0  0  0  0  0  0  0
    5.4130   -2.4610   -0.2560 O   0  0  0  0  0  0  0  0  0  0  0  0
    1.3370    1.9090   -2.1090 C   0  0  0  0  0  0  0  0  0  0  0  0
    1.4850    3.2610   -2.3940 C   0  0  0  0  0  0  0  0  0  0  0  0
    0.4880    4.1100   -2.1390 N   0  0  0  0  0  0  0  0  0  0  0  0
   -0.6780    3.6420   -1.5960 C   0  0  0  0  0  0  0  0  0  0  0  0
   -1.5690    4.5280   -1.3990 O   0  0  0  0  0  0  0  0  0  0  0  0
   -0.8890    2.3560   -1.2960 N   0  0  0  0  0  0  0  0  0  0  0  0
   -2.1050    1.9170   -0.6550 C   0  0  0  0  0  0  0  0  0  0  0  0
   -2.5240    0.6700   -0.7100 C   0  0  0  0  0  0  0  0  0  0  0  0
   -3.7780    0.2970   -0.0350 C   0  0  0  0  0  0  0  0  0  0  0  0
   -4.0120   -0.7100    0.8190 C   0  0  0  0  0  0  0  0  0  0  0  0
   -5.2490   -0.9290    1.2800 C   0  0  0  0  0  0  0  0  0  0  0  0
   -6.2490   -0.0910    0.8440 C   0  0  0  0  0  0  0  0  0  0  0  0
   -7.7070   -0.0370    1.1180 C   0  0  0  0  0  0  0  0  0  0  0  0
   -8.4340   -0.8040    0.0510 C   0  0  1  0  0  0  0  0  0  0  0  0
   -8.0110   -2.2310    0.0440 C   0  0  0  0  0  0  0  0  0  0  0  0
   -9.3270   -2.9880    0.1480 C   0  0  0  0  0  0  0  0  0  0  0  0
  -10.2870   -2.0890   -0.2580 O   0  0  0  0  0  0  0  0  0  0  0  0
   -9.9350   -0.8470    0.2750 C   0  0  0  0  0  0  0  0  0  0  0  0
   -5.3760    1.0360   -0.2520 S   0  0  0  0  0  0  0  0  0  0  0  0
   -2.8550    2.8990    0.1930 C   0  0  0  0  0  0  0  0  0  0  0  0
   -2.0020    3.3860    1.3540 C   0  0  0  0  0  0  0  0  0  0  0  0
   -1.6690    2.2790    2.1650 O   0  0  0  0  0  0  0  0  0  0  0  0
    0.1410    1.5130   -1.5650 C   0  0  0  0  0  0  0  0  0  0  0  0
   -0.0060    0.3020   -1.3020 O   0  0  0  0  0  0  0  0  0  0  0  0
  1  2  2  0
  2  3  1  0
  2 15  1  0
  3  4  1  0
  4  5  1  0
  6  5  1  6
  6  7  1  0
  6 13  1  0
  7  8  1  0
  8  9  1  0
  9 10  1  6
  9 13  1  0
 10 11  1  0
 11 12  1  0
 13 14  1  6
 15 16  2  0
 15 37  1  0
 16 17  1  0
 17 18  1  0
 18 19  2  0
 18 20  1  0
 20 21  1  0
 20 37  1  0
 21 22  2  3
 21 34  1  0
 22 23  1  0
 23 24  2  0
 23 33  1  0
 24 25  1  0
 25 26  2  0
 26 27  1  0
 26 33  1  0
 28 27  1  1
 28 29  1  0
 28 32  1  0
 29 30  1  0
 30 31  1  0
 31 32  1  0
 34 35  1  0
 35 36  1  0
 37 38  2  0
M  END
