
     RDKit          3D

 44 48  0  0  0  0  0  0  0  0999 V2000
    7.7640    2.4340    2.3050 C   0  0  0  0  0  0  0  0  0  0  0  0
    6.7080    2.9950    1.5550 O   0  0  0  0  0  0  0  0  0  0  0  0
    5.5470    2.2400    1.3960 C   0  0  0  0  0  0  0  0  0  0  0  0
    4.4700    2.7170    0.6770 C   0  0  0  0  0  0  0  0  0  0  0  0
    3.3590    1.9240    0.5580 C   0  0  0  0  0  0  0  0  0  0  0  0
    3.2550    0.6450    1.1310 C   0  0  0  0  0  0  0  0  0  0  0  0
    4.3190    0.1640    1.8460 C   0  0  0  0  0  0  0  0  0  0  0  0
    5.4460    0.9890    1.9570 C   0  0  0  0  0  0  0  0  0  0  0  0
    4.3710   -1.1660    2.5150 C   0  0  0  0  0  0  0  0  0  0  0  0
    5.7050   -1.4490    2.7910 O   0  0  0  0  0  0  0  0  0  0  0  0
    6.2990   -2.3880    2.0250 C   0  0  0  0  0  0  0  0  0  0  0  0
    5.5260   -2.9820    0.8710 C   0  0  0  0  0  0  0  0  0  0  0  0
    5.0530   -2.4900   -0.2240 C   0  0  0  0  0  0  0  0  0  0  0  0
    4.2780   -3.0730   -1.3860 C   0  0  0  0  0  0  0  0  0  0  0  0
    3.7840   -1.9240   -2.3040 C   0  0  0  0  0  0  0  0  0  0  0  0
    2.3110   -1.6670   -2.0610 C   0  0  0  0  0  0  0  0  0  0  0  0
    2.0460   -0.2040   -1.7840 C   0  0  0  0  0  0  0  0  0  0  0  0
    1.1870    0.0660   -0.7310 N   0  0  0  0  0  0  0  0  0  0  0  0
   -0.1450    0.4340   -0.9260 C   0  0  0  0  0  0  0  0  0  0  0  0
   -1.1200   -0.6490   -1.2830 C   0  0  1  0  0  0  0  0  0  0  0  0
   -1.1930   -1.6360   -0.2990 O   0  0  0  0  0  0  0  0  0  0  0  0
   -2.4840   -0.0530   -1.4380 C   0  0  2  0  0  0  0  0  0  0  0  0
   -2.6410    0.9210   -2.5570 C   0  0  0  0  0  0  0  0  0  0  0  0
   -2.3690    0.3510   -3.8880 C   0  0  0  0  0  0  0  0  0  0  0  0
   -1.1300    0.3730   -4.4630 C   0  0  0  0  0  0  0  0  0  0  0  0
   -0.9210   -0.1790   -5.7300 C   0  0  0  0  0  0  0  0  0  0  0  0
   -1.9540   -0.7590   -6.4350 C   0  0  0  0  0  0  0  0  0  0  0  0
   -3.2010   -0.7810   -5.8560 C   0  0  0  0  0  0  0  0  0  0  0  0
   -3.4070   -0.2360   -4.6050 C   0  0  0  0  0  0  0  0  0  0  0  0
   -2.9910    0.5660   -0.2190 N   0  0  0  0  0  0  0  0  0  0  0  0
   -4.1700    0.1380    0.4170 C   0  0  0  0  0  0  0  0  0  0  0  0
   -4.8170   -0.8080   -0.0740 O   0  0  0  0  0  0  0  0  0  0  0  0
   -4.7110    0.6740    1.5710 O   0  0  0  0  0  0  0  0  0  0  0  0
   -5.8540    0.2830    2.2050 C   0  0  1  0  0  0  0  0  0  0  0  0
   -5.7940   -0.2130    3.6020 C   0  0  0  0  0  0  0  0  0  0  0  0
   -7.0590   -0.0360    4.1540 O   0  0  0  0  0  0  0  0  0  0  0  0
   -7.9110    0.4780    3.1890 C   0  0  1  0  0  0  0  0  0  0  0  0
   -8.7210    1.4200    3.8060 O   0  0  0  0  0  0  0  0  0  0  0  0
   -8.1070    2.6520    3.7780 C   0  0  0  0  0  0  0  0  0  0  0  0
   -6.6510    2.3720    3.3570 C   0  0  0  0  0  0  0  0  0  0  0  0
   -6.9400    1.3070    2.3220 C   0  0  1  0  0  0  0  0  0  0  0  0
    1.7390   -0.2020    0.8490 S   0  0  1  0  0  0  0  0  0  0  0  0
    1.7920   -1.6300    1.2720 O   0  0  0  0  0  0  0  0  0  0  0  0
    0.7390    0.4670    1.7930 O   0  0  0  0  0  0  0  0  0  0  0  0
  1  2  1  0
  2  3  1  0
  3  4  2  0
  3  8  1  0
  4  5  1  0
  5  6  2  0
  6  7  1  0
  6 42  1  0
  7  8  2  0
  7  9  1  0
  9 10  1  0
 10 11  1  0
 11 12  1  0
 12 13  2  0
 13 14  1  0
 14 15  1  0
 15 16  1  0
 16 17  1  0
 17 18  1  0
 18 19  1  0
 42 18  1  6
 19 20  1  0
 20 21  1  1
 20 22  1  0
 22 23  1  6
 22 30  1  0
 23 24  1  0
 24 25  2  0
 24 29  1  0
 25 26  1  0
 26 27  2  0
 27 28  1  0
 28 29  2  0
 30 31  1  0
 31 32  2  0
 31 33  1  0
 34 33  1  1
 34 35  1  0
 34 41  1  0
 35 36  1  0
 37 36  1  1
 37 38  1  0
 37 41  1  0
 38 39  1  0
 39 40  1  0
 41 40  1  1
 42 43  2  0
 42 44  2  0
M  END
