
     RDKit          3D

 38 41  0  0  0  0  0  0  0  0999 V2000
    1.9070    7.5270    0.2990 N   0  0  0  0  0  0  0  0  0  0  0  0
    1.9630    6.1730    0.6840 C   0  0  0  0  0  0  0  0  0  0  0  0
    3.0270    5.7220    1.1860 O   0  0  0  0  0  0  0  0  0  0  0  0
    0.8230    5.2380    0.5280 C   0  0  0  0  0  0  0  0  0  0  0  0
    1.1440    3.9620    0.9860 O   0  0  0  0  0  0  0  0  0  0  0  0
    0.2720    2.8860    0.9610 C   0  0  0  0  0  0  0  0  0  0  0  0
   -0.9910    3.1310    0.4400 C   0  0  0  0  0  0  0  0  0  0  0  0
   -1.9020    2.0690    0.3960 C   0  0  0  0  0  0  0  0  0  0  0  0
   -1.5850    0.8110    0.8480 C   0  0  0  0  0  0  0  0  0  0  0  0
   -2.5300   -0.1920    0.7770 O   0  0  0  0  0  0  0  0  0  0  0  0
   -3.7920    0.0900    0.2450 C   0  0  0  0  0  0  0  0  0  0  0  0
   -4.7130   -1.1090    0.2420 C   0  0  2  0  0  0  0  0  0  0  0  0
   -4.1940   -2.2510   -0.5490 C   0  0  0  0  0  0  0  0  0  0  0  0
   -5.2090   -2.6780   -1.5740 C   0  0  0  0  0  0  0  0  0  0  0  0
   -6.5830   -2.9040   -1.0110 C   0  0  0  0  0  0  0  0  0  0  0  0
   -7.0410   -1.7450   -0.1510 C   0  0  2  0  0  0  0  0  0  0  0  0
   -6.9950   -2.1820    1.2300 N   0  0  0  0  0  0  0  0  0  0  0  0
   -8.4050   -1.2910   -0.5010 C   0  0  0  0  0  0  0  0  0  0  0  0
   -9.2780   -1.3250    0.3490 O   0  0  0  0  0  0  0  0  0  0  0  0
   -6.0270   -0.6410   -0.3320 C   0  0  0  0  0  0  0  0  0  0  0  0
   -0.3080    0.6240    1.3590 C   0  0  0  0  0  0  0  0  0  0  0  0
    0.6130    1.6360    1.4190 C   0  0  0  0  0  0  0  0  0  0  0  0
    1.9110    1.4200    1.9890 C   0  0  0  0  0  0  0  0  0  0  0  0
    2.7930    0.5080    1.6700 C   0  0  0  0  0  0  0  0  0  0  0  0
    4.0920    0.4850    2.4290 C   0  0  0  0  0  0  0  0  0  0  0  0
    4.2500   -1.0020    2.8010 C   0  0  0  0  0  0  0  0  0  0  0  0
    4.6700   -1.6490    1.4660 C   0  0  0  0  0  0  0  0  0  0  0  0
    3.6010   -1.5790    0.4900 N   0  0  0  0  0  0  0  0  0  0  0  0
    3.4980   -2.5600   -0.5410 C   0  0  0  0  0  0  0  0  0  0  0  0
    4.2550   -2.3490   -1.8050 C   0  0  2  0  0  0  0  0  0  0  0  0
    5.7070   -2.2760   -1.5320 C   0  0  0  0  0  0  0  0  0  0  0  0
    6.2430   -0.9290   -1.8170 C   0  0  0  0  0  0  0  0  0  0  0  0
    5.2670   -0.4520   -3.2330 S   0  0  1  0  0  0  0  0  0  0  0  0
    5.0240    1.0300   -3.2440 O   0  0  0  0  0  0  0  0  0  0  0  0
    5.8270   -0.9530   -4.5090 O   0  0  0  0  0  0  0  0  0  0  0  0
    3.7830   -1.3460   -2.7520 C   0  0  0  0  0  0  0  0  0  0  0  0
    2.6870   -0.4930    0.6220 C   0  0  0  0  0  0  0  0  0  0  0  0
    1.7370   -0.3650   -0.1840 O   0  0  0  0  0  0  0  0  0  0  0  0
  1  2  1  0
  2  3  2  0
  2  4  1  0
  4  5  1  0
  5  6  1  0
  6  7  2  0
  6 22  1  0
  7  8  1  0
  8  9  2  0
  9 10  1  0
  9 21  1  0
 10 11  1  0
 12 11  1  6
 12 13  1  0
 12 20  1  0
 13 14  1  0
 14 15  1  0
 15 16  1  0
 16 17  1  1
 16 18  1  0
 16 20  1  0
 18 19  2  0
 21 22  2  0
 22 23  1  0
 23 24  2  3
 24 25  1  0
 24 37  1  0
 25 26  1  0
 26 27  1  0
 27 28  1  0
 28 29  1  0
 28 37  1  0
 30 29  1  1
 30 31  1  0
 30 36  1  0
 31 32  1  0
 33 32  1  1
 33 34  2  0
 33 35  2  0
 33 36  1  0
 37 38  2  0
M  END
