
     RDKit          3D

 38 40  0  0  0  0  0  0  0  0999 V2000
    1.0380    0.0460   -4.2130 C   0  0  0  0  0  0  0  0  0  0  0  0
    0.6130    1.4040   -3.0730 S   0  0  0  0  0  0  0  0  0  0  0  0
   -0.9650    0.9890   -2.3080 C   0  0  0  0  0  0  0  0  0  0  0  0
   -1.0560    0.6950   -1.0390 C   0  0  0  0  0  0  0  0  0  0  0  0
    0.1300    0.7110   -0.2650 N   0  0  0  0  0  0  0  0  0  0  0  0
    0.7010   -0.4230    0.3740 C   0  0  0  0  0  0  0  0  0  0  0  0
    0.1160   -1.5260    0.2380 O   0  0  0  0  0  0  0  0  0  0  0  0
    1.9410   -0.3480    1.1810 C   0  0  1  0  0  0  0  0  0  0  0  0
    2.2280   -1.7150    1.7430 C   0  0  0  0  0  0  0  0  0  0  0  0
    3.5030   -1.7270    2.5630 C   0  0  0  0  0  0  0  0  0  0  0  0
    4.6440   -1.1570    1.7570 C   0  0  0  0  0  0  0  0  0  0  0  0
    4.2900    0.2290    1.3290 C   0  0  1  0  0  0  0  0  0  0  0  0
    5.4400    0.9820    0.7860 C   0  0  0  0  0  0  0  0  0  0  0  0
    5.4310    1.3950   -0.4080 O   0  0  0  0  0  0  0  0  0  0  0  0
    6.5620    1.2420    1.6170 N   0  0  0  0  0  0  0  0  0  0  0  0
    7.7200    1.9650    1.1700 C   0  0  0  0  0  0  0  0  0  0  0  0
    8.3930    1.2720   -0.0010 C   0  0  2  0  0  0  0  0  0  0  0  0
    9.0480   -0.0200    0.4390 C   0  0  0  0  0  0  0  0  0  0  0  0
   10.1900   -0.1600   -0.5340 C   0  0  0  0  0  0  0  0  0  0  0  0
   10.2720    1.2160   -1.1650 C   0  0  0  0  0  0  0  0  0  0  0  0
    9.5010    2.0490   -0.3610 O   0  0  0  0  0  0  0  0  0  0  0  0
    3.1290    0.1760    0.3760 C   0  0  0  0  0  0  0  0  0  0  0  0
   -2.3050    0.3590   -0.4100 C   0  0  0  0  0  0  0  0  0  0  0  0
   -3.4770    0.2520   -1.1260 C   0  0  0  0  0  0  0  0  0  0  0  0
   -4.7070   -0.0560   -0.5470 C   0  0  0  0  0  0  0  0  0  0  0  0
   -5.9140   -0.1560   -1.3550 C   0  0  0  0  0  0  0  0  0  0  0  0
   -5.8430    0.0480   -2.5950 O   0  0  0  0  0  0  0  0  0  0  0  0
   -7.1480   -0.4650   -0.8370 O   0  0  0  0  0  0  0  0  0  0  0  0
   -8.3490   -0.5740   -1.5750 C   0  0  1  0  0  0  0  0  0  0  0  0
   -8.8920   -1.9670   -1.6310 C   0  0  0  0  0  0  0  0  0  0  0  0
   -9.3480    0.4810   -1.2290 C   0  0  0  0  0  0  0  0  0  0  0  0
   -9.7970    0.5190    0.1880 C   0  0  2  0  0  0  0  0  0  0  0  0
  -10.4620   -0.7230    0.6950 C   0  0  0  0  0  0  0  0  0  0  0  0
  -10.7670    1.5470    0.2750 O   0  0  0  0  0  0  0  0  0  0  0  0
   -4.7190   -0.2580    0.8130 C   0  0  0  0  0  0  0  0  0  0  0  0
   -3.5270   -0.1450    1.5190 C   0  0  0  0  0  0  0  0  0  0  0  0
   -3.5120   -0.3270    2.7730 O   0  0  0  0  0  0  0  0  0  0  0  0
   -2.3690    0.1520    0.9270 N   0  0  0  0  0  0  0  0  0  0  0  0
  1  2  1  0
  2  3  1  0
  3  4  2  3
  4  5  1  0
  4 23  1  0
  5  6  1  0
  6  7  2  0
  8  6  1  6
  8  9  1  0
  8 22  1  0
  9 10  1  0
 10 11  1  0
 11 12  1  0
 12 13  1  6
 12 22  1  0
 13 14  2  0
 13 15  1  0
 15 16  1  0
 17 16  1  1
 17 18  1  0
 17 21  1  0
 18 19  1  0
 19 20  1  0
 20 21  1  0
 23 24  2  0
 23 38  1  0
 24 25  1  0
 25 26  1  0
 25 35  2  0
 26 27  2  0
 26 28  1  0
 28 29  1  0
 29 30  1  1
 29 31  1  0
 31 32  1  0
 32 33  1  6
 32 34  1  0
 35 36  1  0
 36 37  2  0
 36 38  1  0
M  END
