
     RDKit          3D

 38 41  0  0  0  0  0  0  0  0999 V2000
   -4.7780   -2.7050    1.7100 C   0  0  0  0  0  0  0  0  0  0  0  0
   -5.5980   -2.5270    0.4740 C   0  0  2  0  0  0  0  0  0  0  0  0
   -6.2100   -3.7690    0.1420 O   0  0  0  0  0  0  0  0  0  0  0  0
   -4.8000   -2.0240   -0.6850 C   0  0  0  0  0  0  0  0  0  0  0  0
   -4.2200   -0.8170   -0.5120 O   0  0  0  0  0  0  0  0  0  0  0  0
   -3.2360   -0.2680    0.2050 C   0  0  0  0  0  0  0  0  0  0  0  0
   -2.5690   -1.0270    0.9700 O   0  0  0  0  0  0  0  0  0  0  0  0
   -2.9630    1.1660    0.0920 C   0  0  1  0  0  0  0  0  0  0  0  0
   -4.2160    1.9360   -0.3400 C   0  0  0  0  0  0  0  0  0  0  0  0
   -2.7510    1.7250    1.5560 C   0  0  0  0  0  0  0  0  0  0  0  0
   -2.2640    3.0930    1.1850 C   0  0  0  0  0  0  0  0  0  0  0  0
   -2.3300    4.0840    1.9510 O   0  0  0  0  0  0  0  0  0  0  0  0
   -1.7380    3.0690   -0.1290 N   0  0  0  0  0  0  0  0  0  0  0  0
   -1.7230    1.6390   -0.5160 C   0  0  2  0  0  0  0  0  0  0  0  0
   -1.4670    1.4800   -1.9600 C   0  0  0  0  0  0  0  0  0  0  0  0
   -1.3890    0.0600   -2.4040 C   0  0  1  0  0  0  0  0  0  0  0  0
   -1.1290    0.0450   -3.9410 C   0  0  0  0  0  0  0  0  0  0  0  0
   -0.3020   -0.6590   -1.7610 N   0  0  0  0  0  0  0  0  0  0  0  0
   -0.3590   -1.9800   -1.2770 C   0  0  0  0  0  0  0  0  0  0  0  0
   -1.4200   -2.6320   -1.3940 O   0  0  0  0  0  0  0  0  0  0  0  0
    0.7840   -2.6620   -0.6230 C   0  0  0  0  0  0  0  0  0  0  0  0
    1.9490   -1.7070   -0.5660 N   0  0  0  0  0  0  0  0  0  0  0  0
    2.8000   -1.7000   -1.6090 C   0  0  0  0  0  0  0  0  0  0  0  0
    2.8530   -2.3350   -2.6770 O   0  0  0  0  0  0  0  0  0  0  0  0
    4.0250   -0.4120   -1.0970 S   0  0  0  0  0  0  0  0  0  0  0  0
    3.2410   -0.0720    0.4120 C   0  0  0  0  0  0  0  0  0  0  0  0
    3.5880    0.8360    1.4080 C   0  0  0  0  0  0  0  0  0  0  0  0
    4.7000    1.5930    1.2220 O   0  0  0  0  0  0  0  0  0  0  0  0
    5.9950    1.2020    1.0680 C   0  0  0  0  0  0  0  0  0  0  0  0
    6.9580    2.1620    0.8370 C   0  0  0  0  0  0  0  0  0  0  0  0
    8.2900    1.8360    0.6710 C   0  0  0  0  0  0  0  0  0  0  0  0
    8.7030    0.5350    0.7320 C   0  0  0  0  0  0  0  0  0  0  0  0
    7.7520   -0.4480    0.9640 C   0  0  0  0  0  0  0  0  0  0  0  0
    6.4180   -0.1100    1.1290 C   0  0  0  0  0  0  0  0  0  0  0  0
    2.8210    0.9550    2.5380 C   0  0  0  0  0  0  0  0  0  0  0  0
    1.7150    0.1240    2.5990 C   0  0  0  0  0  0  0  0  0  0  0  0
    1.3820   -0.7660    1.6140 C   0  0  0  0  0  0  0  0  0  0  0  0
    2.1710   -0.8960    0.4390 C   0  0  0  0  0  0  0  0  0  0  0  0
  2  1  1  1
  2  3  1  0
  2  4  1  0
  4  5  1  0
  5  6  1  0
  6  7  2  0
  6  8  1  0
  8  9  1  6
  8 10  1  0
  8 14  1  0
 10 11  1  0
 11 12  2  0
 11 13  1  0
 13 14  1  0
 14 15  1  6
 15 16  1  0
 16 17  1  6
 16 18  1  0
 18 19  1  0
 19 20  2  0
 19 21  1  0
 21 22  1  0
 22 23  1  0
 22 38  1  0
 23 24  2  0
 23 25  1  0
 25 26  1  0
 26 27  2  0
 26 38  1  0
 27 28  1  0
 27 35  1  0
 28 29  1  0
 29 30  2  0
 29 34  1  0
 30 31  1  0
 31 32  2  0
 32 33  1  0
 33 34  2  0
 35 36  2  0
 36 37  1  0
 37 38  2  0
M  END
