
     RDKit          3D

 37 40  0  0  0  0  0  0  0  0999 V2000
   -6.2790   -1.5780    2.4880 C   0  0  0  0  0  0  0  0  0  0  0  0
   -5.0110   -2.2590    2.1170 C   0  0  0  0  0  0  0  0  0  0  0  0
   -4.7700   -2.5280    0.6880 C   0  0  2  0  0  0  0  0  0  0  0  0
   -3.5040   -3.2080    0.6250 O   0  0  0  0  0  0  0  0  0  0  0  0
   -4.6240   -1.3880   -0.2480 C   0  0  1  0  0  0  0  0  0  0  0  0
   -5.7420   -0.4330   -0.3830 C   0  0  0  0  0  0  0  0  0  0  0  0
   -5.3080    0.6140   -1.4400 C   0  0  0  0  0  0  0  0  0  0  0  0
   -6.3700    1.6280   -1.6470 C   0  0  0  0  0  0  0  0  0  0  0  0
   -6.0200    2.5570   -2.5920 O   0  0  0  0  0  0  0  0  0  0  0  0
   -4.9130    3.2820   -2.2780 C   0  0  0  0  0  0  0  0  0  0  0  0
   -3.3230   -0.7180   -0.0520 N   0  0  0  0  0  0  0  0  0  0  0  0
   -3.1920    0.2980    0.8130 C   0  0  0  0  0  0  0  0  0  0  0  0
   -4.1260    0.7450    1.4910 O   0  0  0  0  0  0  0  0  0  0  0  0
   -1.9820    0.8600    0.9500 N   0  0  0  0  0  0  0  0  0  0  0  0
   -0.9020    0.4560    0.2660 C   0  0  0  0  0  0  0  0  0  0  0  0
   -0.9910   -0.5770   -0.6260 C   0  0  0  0  0  0  0  0  0  0  0  0
   -2.2630   -1.1450   -0.7510 C   0  0  0  0  0  0  0  0  0  0  0  0
   -2.3570   -2.1110   -1.5820 O   0  0  0  0  0  0  0  0  0  0  0  0
    0.1380   -1.1090   -1.4410 C   0  0  0  0  0  0  0  0  0  0  0  0
    1.3870   -0.4560   -0.9780 N   0  0  0  0  0  0  0  0  0  0  0  0
    2.3650   -0.0950   -1.8800 C   0  0  0  0  0  0  0  0  0  0  0  0
    1.9950   -0.2330   -3.1310 O   0  0  0  0  0  0  0  0  0  0  0  0
    3.6810    0.4160   -1.5930 C   0  0  0  0  0  0  0  0  0  0  0  0
    4.3570    1.6020   -2.8060 S   0  0  0  0  0  0  0  0  0  0  0  0
    5.9180    1.8240   -1.9830 C   0  0  0  0  0  0  0  0  0  0  0  0
    5.8280    1.0340   -0.9210 C   0  0  0  0  0  0  0  0  0  0  0  0
    4.6740    0.2900   -0.7130 C   0  0  0  0  0  0  0  0  0  0  0  0
    4.9010   -0.7290    0.4010 C   0  0  2  0  0  0  0  0  0  0  0  0
    4.1240   -1.9480    0.4520 C   0  0  0  0  0  0  0  0  0  0  0  0
    4.6270   -2.6640    1.6150 O   0  0  0  0  0  0  0  0  0  0  0  0
    5.1670   -0.0470    1.6860 C   0  0  0  0  0  0  0  0  0  0  0  0
    6.1310    1.1140    1.4880 C   0  0  0  0  0  0  0  0  0  0  0  0
    6.8610    0.9370    0.1980 C   0  0  2  0  0  0  0  0  0  0  0  0
    7.9000    2.0520    0.0130 C   0  0  0  0  0  0  0  0  0  0  0  0
    8.8000    1.9140    1.0450 O   0  0  0  0  0  0  0  0  0  0  0  0
    1.4300   -0.0270    0.4210 C   0  0  0  0  0  0  0  0  0  0  0  0
    0.3940    1.1280    0.4780 C   0  0  0  0  0  0  0  0  0  0  0  0
  1  2  1  0
  2  3  1  0
  3  4  1  1
  3  5  1  0
  5  6  1  1
  5 11  1  0
  6  7  1  0
  7  8  1  0
  8  9  1  0
  9 10  1  0
 11 12  1  0
 11 17  1  0
 12 13  2  0
 12 14  1  0
 14 15  1  0
 15 16  2  0
 15 37  1  0
 16 17  1  0
 16 19  1  0
 17 18  2  0
 19 20  1  0
 20 21  1  0
 20 36  1  0
 21 22  2  0
 21 23  1  0
 23 24  1  0
 23 27  2  0
 24 25  1  0
 25 26  2  0
 26 27  1  0
 26 33  1  0
 27 28  1  0
 28 29  1  1
 28 31  1  0
 29 30  1  0
 31 32  1  0
 32 33  1  0
 33 34  1  6
 34 35  1  0
 36 37  1  0
M  END
