
     RDKit          3D

 38 41  0  0  0  0  0  0  0  0999 V2000
   10.8850    0.3650    0.1020 C   0  0  0  0  0  0  0  0  0  0  0  0
    9.6030    0.1090    0.2860 C   0  0  0  0  0  0  0  0  0  0  0  0
    9.0110   -0.0980    1.4750 N   0  0  0  0  0  0  0  0  0  0  0  0
    7.6820   -0.3290    1.2530 C   0  0  0  0  0  0  0  0  0  0  0  0
    7.4190   -0.2700   -0.0780 C   0  0  0  0  0  0  0  0  0  0  0  0
    8.6470    0.0100   -0.7030 C   0  0  0  0  0  0  0  0  0  0  0  0
    8.8240    0.1500   -2.0060 C   0  0  0  0  0  0  0  0  0  0  0  0
    6.0980   -0.4690   -0.6820 C   0  0  0  0  0  0  0  0  0  0  0  0
    5.1400   -1.0460    0.2950 C   0  0  2  0  0  0  0  0  0  0  0  0
    3.7910   -0.9210   -0.0890 O   0  0  0  0  0  0  0  0  0  0  0  0
    2.9680   -1.9890   -0.2630 C   0  0  0  0  0  0  0  0  0  0  0  0
    3.4200   -3.1410   -0.0760 O   0  0  0  0  0  0  0  0  0  0  0  0
    1.5220   -1.8280   -0.6770 C   0  0  0  0  0  0  0  0  0  0  0  0
    0.7280   -2.9480   -0.8350 C   0  0  0  0  0  0  0  0  0  0  0  0
   -0.8540   -2.1760   -1.3210 S   0  0  0  0  0  0  0  0  0  0  0  0
   -0.3160   -0.5460   -1.2640 C   0  0  0  0  0  0  0  0  0  0  0  0
   -1.1130    0.6250   -1.5510 N   0  0  0  0  0  0  0  0  0  0  0  0
   -2.4880    0.4520   -1.9170 C   0  0  0  0  0  0  0  0  0  0  0  0
   -2.9330   -0.7070   -1.9680 O   0  0  0  0  0  0  0  0  0  0  0  0
   -3.3230    1.5420   -2.2110 N   0  0  0  0  0  0  0  0  0  0  0  0
   -4.7070    1.5090   -2.5700 C   0  0  0  0  0  0  0  0  0  0  0  0
   -5.5470    0.9800   -1.4470 C   0  0  1  0  0  0  0  0  0  0  0  0
   -5.1850   -0.3100   -1.1350 O   0  0  0  0  0  0  0  0  0  0  0  0
   -6.2090   -1.2310   -1.2090 C   0  0  0  0  0  0  0  0  0  0  0  0
   -5.7130   -2.6200   -0.8460 C   0  0  1  0  0  0  0  0  0  0  0  0
   -5.1700   -2.6680    0.5520 C   0  0  0  0  0  0  0  0  0  0  0  0
   -6.8100   -3.4930   -0.9440 O   0  0  0  0  0  0  0  0  0  0  0  0
   -5.2700    1.8430   -0.2390 C   0  0  0  0  0  0  0  0  0  0  0  0
   -4.4280    2.8250   -0.1870 O   0  0  0  0  0  0  0  0  0  0  0  0
   -4.3870    3.4020    0.9810 C   0  0  0  0  0  0  0  0  0  0  0  0
   -3.5220    4.5500    1.3440 C   0  0  0  0  0  0  0  0  0  0  0  0
   -5.2860    2.7490    1.7980 C   0  0  0  0  0  0  0  0  0  0  0  0
   -5.8460    1.7590    1.0190 C   0  0  0  0  0  0  0  0  0  0  0  0
   -6.8000    0.8590    1.4300 O   0  0  0  0  0  0  0  0  0  0  0  0
   -7.3430    0.8250    2.7150 C   0  0  0  0  0  0  0  0  0  0  0  0
    0.9690   -0.6270   -0.9000 C   0  0  0  0  0  0  0  0  0  0  0  0
    5.2590   -0.4480    1.6780 C   0  0  0  0  0  0  0  0  0  0  0  0
    6.6430   -0.6020    2.2440 C   0  0  0  0  0  0  0  0  0  0  0  0
  1  2  2  0
  2  3  1  0
  2  6  1  0
  3  4  1  0
  4  5  2  0
  4 38  1  0
  5  6  1  0
  5  8  1  0
  6  7  2  0
  8  9  1  0
  9 10  1  6
  9 37  1  0
 10 11  1  0
 11 12  2  0
 11 13  1  0
 13 14  2  0
 13 36  1  0
 14 15  1  0
 15 16  1  0
 16 17  1  0
 16 36  2  0
 17 18  1  0
 18 19  2  0
 18 20  1  0
 20 21  1  0
 22 21  1  6
 22 23  1  0
 22 28  1  0
 23 24  1  0
 24 25  1  0
 25 26  1  1
 25 27  1  0
 28 29  1  0
 28 33  2  0
 29 30  1  0
 30 31  1  0
 30 32  2  0
 32 33  1  0
 33 34  1  0
 34 35  1  0
 37 38  1  0
M  END
