
     RDKit          3D

 38 41  0  0  0  0  0  0  0  0999 V2000
   12.5500    2.4330    0.5390 C   0  0  0  0  0  0  0  0  0  0  0  0
   12.6770    1.4090   -0.5700 C   0  0  0  0  0  0  0  0  0  0  0  0
   11.9470    0.2030   -0.2230 N   0  0  0  0  0  0  0  0  0  0  0  0
   10.5440    0.2800    0.0140 C   0  0  0  0  0  0  0  0  0  0  0  0
    9.9450    1.3630   -0.0750 O   0  0  0  0  0  0  0  0  0  0  0  0
    9.8490   -0.9030    0.3510 N   0  0  0  0  0  0  0  0  0  0  0  0
    8.4250   -0.9290    0.6080 C   0  0  0  0  0  0  0  0  0  0  0  0
    7.6270   -0.4750   -0.5730 C   0  0  0  0  0  0  0  0  0  0  0  0
    6.2650   -0.4760   -0.4010 O   0  0  0  0  0  0  0  0  0  0  0  0
    5.8010    0.3380    0.6160 C   0  0  0  0  0  0  0  0  0  0  0  0
    4.2730    0.1780    0.6110 C   0  0  0  0  0  0  0  0  0  0  0  0
    3.9380   -1.2940    0.8650 C   0  0  0  0  0  0  0  0  0  0  0  0
    2.5450   -1.5000    0.8700 O   0  0  0  0  0  0  0  0  0  0  0  0
    1.7210   -1.2330   -0.2090 C   0  0  0  0  0  0  0  0  0  0  0  0
    2.2040   -0.7820   -1.2660 O   0  0  0  0  0  0  0  0  0  0  0  0
    0.2890   -1.4800   -0.1080 C   0  0  0  0  0  0  0  0  0  0  0  0
   -0.3760   -1.9720    0.9900 C   0  0  0  0  0  0  0  0  0  0  0  0
   -1.7030   -2.0470    0.6530 C   0  0  0  0  0  0  0  0  0  0  0  0
   -1.8150   -1.5980   -0.6420 C   0  0  0  0  0  0  0  0  0  0  0  0
   -3.0460   -1.4760   -1.4860 C   0  0  1  0  0  0  0  0  0  0  0  0
   -3.7900   -2.6130   -1.2490 O   0  0  0  0  0  0  0  0  0  0  0  0
   -3.7750   -0.1820   -1.2770 C   0  0  2  0  0  0  0  0  0  0  0  0
   -4.2620    0.0650    0.1060 C   0  0  0  0  0  0  0  0  0  0  0  0
   -5.6640   -0.4410    0.3860 C   0  0  0  0  0  0  0  0  0  0  0  0
   -6.5460   -0.2160   -0.7260 N   0  0  0  0  0  0  0  0  0  0  0  0
   -7.8420    0.3960   -0.5740 C   0  0  0  0  0  0  0  0  0  0  0  0
   -8.4690    0.9790   -1.6630 C   0  0  0  0  0  0  0  0  0  0  0  0
   -9.7360    1.5430   -1.4490 C   0  0  0  0  0  0  0  0  0  0  0  0
  -10.3110    1.5070   -0.2050 C   0  0  0  0  0  0  0  0  0  0  0  0
   -9.7120    0.9360    0.8830 C   0  0  0  0  0  0  0  0  0  0  0  0
   -8.4470    0.3790    0.6520 C   0  0  0  0  0  0  0  0  0  0  0  0
  -10.4580    0.9670    2.1280 C   0  0  0  0  0  0  0  0  0  0  0  0
  -11.3750    2.1670    2.1730 C   0  0  0  0  0  0  0  0  0  0  0  0
  -11.8730    2.1510    0.3880 S   0  0  0  0  0  0  0  0  0  0  0  0
   -6.0610   -0.6580   -2.0190 C   0  0  0  0  0  0  0  0  0  0  0  0
   -4.8030    0.1070   -2.3250 C   0  0  2  0  0  0  0  0  0  0  0  0
   -4.3160   -0.1920   -3.5960 O   0  0  0  0  0  0  0  0  0  0  0  0
   -0.6030   -1.2740   -1.0470 O   0  0  0  0  0  0  0  0  0  0  0  0
  1  2  1  0
  2  3  1  0
  3  4  1  0
  4  5  2  0
  4  6  1  0
  6  7  1  0
  7  8  1  0
  8  9  1  0
  9 10  1  0
 10 11  1  0
 11 12  1  0
 12 13  1  0
 13 14  1  0
 14 15  2  0
 14 16  1  0
 16 17  2  0
 16 38  1  0
 17 18  1  0
 18 19  2  0
 19 20  1  0
 19 38  1  0
 20 21  1  1
 20 22  1  0
 22 23  1  1
 22 36  1  0
 23 24  1  0
 24 25  1  0
 25 26  1  0
 25 35  1  0
 26 27  2  0
 26 31  1  0
 27 28  1  0
 28 29  2  0
 29 30  1  0
 29 34  1  0
 30 31  2  0
 30 32  1  0
 32 33  1  0
 33 34  1  0
 35 36  1  0
 36 37  1  6
M  END
