
     RDKit          3D

 27 29  0  0  0  0  0  0  0  0999 V2000
   -6.3820    1.8040    1.4950 C   0  0  0  0  0  0  0  0  0  0  0  0
   -6.1860    0.4300    1.6400 O   0  0  0  0  0  0  0  0  0  0  0  0
   -6.3710   -0.2540    0.4720 C   0  0  0  0  0  0  0  0  0  0  0  0
   -5.4320    0.0380   -0.6400 C   0  0  0  0  0  0  0  0  0  0  0  0
   -3.9920   -0.2910   -0.3850 C   0  0  2  0  0  0  0  0  0  0  0  0
   -3.9990   -1.8300   -0.0960 C   0  0  0  0  0  0  0  0  0  0  0  0
   -3.4430    0.3470    0.8280 C   0  0  0  0  0  0  0  0  0  0  0  0
   -3.2300   -0.0580   -1.6600 C   0  0  0  0  0  0  0  0  0  0  0  0
   -1.7920   -0.3230   -1.6020 C   0  0  0  0  0  0  0  0  0  0  0  0
   -1.3090   -1.5970   -1.9590 C   0  0  0  0  0  0  0  0  0  0  0  0
    0.0210   -1.9250   -1.8780 C   0  0  0  0  0  0  0  0  0  0  0  0
    0.9210   -0.9920   -1.4370 C   0  0  0  0  0  0  0  0  0  0  0  0
    2.3840   -1.2540   -1.3130 C   0  0  0  0  0  0  0  0  0  0  0  0
    2.7460   -1.8110    0.0220 C   0  0  0  0  0  0  0  0  0  0  0  0
    4.1710   -2.0940    0.2680 C   0  0  0  0  0  0  0  0  0  0  0  0
    5.0930   -1.0080    0.3020 N   0  0  0  0  0  0  0  0  0  0  0  0
    6.5510   -1.2260    0.2700 C   0  0  0  0  0  0  0  0  0  0  0  0
    7.1730   -0.0110    0.8310 C   0  0  0  0  0  0  0  0  0  0  0  0
    6.1150    1.0370    0.7280 C   0  0  0  0  0  0  0  0  0  0  0  0
    6.1560    2.4050    0.8960 C   0  0  0  0  0  0  0  0  0  0  0  0
    5.0230    3.1450    0.7660 C   0  0  0  0  0  0  0  0  0  0  0  0
    3.8300    2.5050    0.4620 C   0  0  0  0  0  0  0  0  0  0  0  0
    3.8500    1.1810    0.3100 N   0  0  0  0  0  0  0  0  0  0  0  0
    4.9370    0.3910    0.4260 C   0  0  0  0  0  0  0  0  0  0  0  0
    0.4600    0.2510   -1.0890 C   0  0  0  0  0  0  0  0  0  0  0  0
   -0.8960    0.6050   -1.1660 C   0  0  0  0  0  0  0  0  0  0  0  0
   -1.3030    1.9630   -0.8220 C   0  0  0  0  0  0  0  0  0  0  0  0
  1  2  1  0
  2  3  1  0
  3  4  1  0
  4  5  1  0
  5  6  1  1
  5  7  1  0
  5  8  1  0
  8  9  1  0
  9 10  2  0
  9 26  1  0
 10 11  1  0
 11 12  2  0
 12 13  1  0
 12 25  1  0
 13 14  1  0
 14 15  1  0
 15 16  1  0
 16 17  1  0
 16 24  1  0
 17 18  1  0
 18 19  1  0
 19 20  2  0
 19 24  1  0
 20 21  1  0
 21 22  2  0
 22 23  1  0
 23 24  2  0
 25 26  2  0
 26 27  1  0
M  END
