
     RDKit          3D

 27 28  0  0  0  0  0  0  0  0999 V2000
    5.6620   -2.9720   -0.7170 C   0  0  0  0  0  0  0  0  0  0  0  0
    5.1150   -1.6470   -0.3860 C   0  0  0  0  0  0  0  0  0  0  0  0
    5.9390   -0.5480   -0.4630 C   0  0  0  0  0  0  0  0  0  0  0  0
    5.5230    0.7390   -0.1730 C   0  0  0  0  0  0  0  0  0  0  0  0
    4.2100    0.9210    0.2130 C   0  0  0  0  0  0  0  0  0  0  0  0
    3.7670    2.3020    0.5220 C   0  0  0  0  0  0  0  0  0  0  0  0
    3.3710   -0.1710    0.2950 C   0  0  0  0  0  0  0  0  0  0  0  0
    1.9830    0.0060    0.7070 C   0  0  0  0  0  0  0  0  0  0  0  0
    1.7370   -0.0790    1.9380 O   0  0  0  0  0  0  0  0  0  0  0  0
    0.9060    0.2790   -0.3140 C   0  0  0  0  0  0  0  0  0  0  0  0
   -0.3830    0.3940    0.4570 C   0  0  0  0  0  0  0  0  0  0  0  0
   -1.4800    0.6500   -0.3700 N   0  0  0  0  0  0  0  0  0  0  0  0
   -2.7590    0.7220    0.2300 C   0  0  0  0  0  0  0  0  0  0  0  0
   -3.3490   -0.5410    0.7520 C   0  0  0  0  0  0  0  0  0  0  0  0
   -3.5940   -1.6040   -0.2930 C   0  0  1  0  0  0  0  0  0  0  0  0
   -2.3390   -2.0200   -0.9700 C   0  0  0  0  0  0  0  0  0  0  0  0
   -4.4200   -2.6650    0.1630 N   0  0  0  0  0  0  0  0  0  0  0  0
   -5.7500   -2.3220    0.5370 C   0  0  0  0  0  0  0  0  0  0  0  0
   -3.8160   -3.7280    0.8730 C   0  0  0  0  0  0  0  0  0  0  0  0
   -1.3020    1.6110   -1.3660 C   0  0  0  0  0  0  0  0  0  0  0  0
   -1.1490    3.0230   -0.9710 C   0  0  0  0  0  0  0  0  0  0  0  0
   -2.0130    3.9510   -1.3670 C   0  0  0  0  0  0  0  0  0  0  0  0
   -1.6140    5.2600   -0.8270 C   0  0  0  0  0  0  0  0  0  0  0  0
   -0.3880    4.9700   -0.0610 C   0  0  0  0  0  0  0  0  0  0  0  0
   -0.1400    3.6780   -0.1570 C   0  0  0  0  0  0  0  0  0  0  0  0
    3.8000   -1.4450    0.0040 C   0  0  0  0  0  0  0  0  0  0  0  0
    2.9290   -2.6300    0.0830 C   0  0  0  0  0  0  0  0  0  0  0  0
  1  2  1  0
  2  3  2  0
  2 26  1  0
  3  4  1  0
  4  5  2  0
  5  6  1  0
  5  7  1  0
  7  8  1  0
  7 26  2  0
  8  9  2  0
  8 10  1  0
 10 11  1  0
 11 12  1  0
 12 13  1  0
 12 20  1  0
 13 14  1  0
 14 15  1  0
 15 16  1  1
 15 17  1  0
 17 18  1  0
 17 19  1  0
 20 21  1  0
 21 22  2  0
 21 25  1  0
 22 23  1  0
 23 24  1  0
 24 25  2  0
 26 27  1  0
M  END
