
     RDKit          3D

 27 29  0  0  0  0  0  0  0  0999 V2000
   -3.7170   -4.4660   -0.8150 C   0  0  0  0  0  0  0  0  0  0  0  0
   -2.9310   -3.2300   -1.1600 C   0  0  1  0  0  0  0  0  0  0  0  0
   -3.9040   -2.1230   -1.5390 C   0  0  0  0  0  0  0  0  0  0  0  0
   -3.2250   -0.8160   -1.5710 C   0  0  0  0  0  0  0  0  0  0  0  0
   -1.9960   -0.5530   -1.0810 C   0  0  0  0  0  0  0  0  0  0  0  0
   -1.5040    0.7850   -1.2040 C   0  0  0  0  0  0  0  0  0  0  0  0
   -0.3330    1.2310   -0.8910 C   0  0  0  0  0  0  0  0  0  0  0  0
    0.8070    0.5650   -0.3510 C   0  0  0  0  0  0  0  0  0  0  0  0
    1.9410    1.2750   -0.0910 C   0  0  0  0  0  0  0  0  0  0  0  0
    3.0980    0.5850    0.4610 C   0  0  0  0  0  0  0  0  0  0  0  0
    4.2430    0.7380   -0.4890 C   0  0  0  0  0  0  0  0  0  0  0  0
    5.5020    0.0700   -0.0320 C   0  0  1  0  0  0  0  0  0  0  0  0
    6.0230    0.5810    1.2750 C   0  0  0  0  0  0  0  0  0  0  0  0
    7.0450   -0.4970    1.6510 C   0  0  0  0  0  0  0  0  0  0  0  0
    6.7330   -1.7060    0.8330 C   0  0  0  0  0  0  0  0  0  0  0  0
    5.3360   -1.4050    0.2680 C   0  0  0  0  0  0  0  0  0  0  0  0
   -2.4420    1.8870   -1.6880 C   0  0  0  0  0  0  0  0  0  0  0  0
   -3.5350    2.1960   -0.7520 C   0  0  0  0  0  0  0  0  0  0  0  0
   -4.8640    2.1020   -1.0320 C   0  0  0  0  0  0  0  0  0  0  0  0
   -5.7760    2.4840   -0.1330 N   0  0  0  0  0  0  0  0  0  0  0  0
   -5.3840    2.9700    1.0650 C   0  0  0  0  0  0  0  0  0  0  0  0
   -4.1050    3.0830    1.3850 N   0  0  0  0  0  0  0  0  0  0  0  0
   -3.6350    3.6000    2.6620 C   0  0  0  0  0  0  0  0  0  0  0  0
   -3.1620    2.7050    0.5000 C   0  0  0  0  0  0  0  0  0  0  0  0
   -1.9450    2.8060    0.7920 O   0  0  0  0  0  0  0  0  0  0  0  0
   -1.2530   -1.6190   -0.3870 C   0  0  0  0  0  0  0  0  0  0  0  0
   -2.2000   -2.7460    0.0580 C   0  0  0  0  0  0  0  0  0  0  0  0
  2  1  1  1
  2  3  1  0
  2 27  1  0
  3  4  1  0
  4  5  2  0
  5  6  1  0
  5 26  1  0
  6  7  2  3
  6 17  1  0
  7  8  1  0
  8  9  2  3
  9 10  1  0
 10 11  1  0
 12 11  1  1
 12 13  1  0
 12 16  1  0
 13 14  1  0
 14 15  1  0
 15 16  1  0
 17 18  1  0
 18 19  2  0
 18 24  1  0
 19 20  1  0
 20 21  2  0
 21 22  1  0
 22 23  1  0
 22 24  1  0
 24 25  2  0
 26 27  1  0
M  END
