
     RDKit          3D

 27 29  0  0  0  0  0  0  0  0999 V2000
    7.6150    2.1820    1.0760 C   0  0  0  0  0  0  0  0  0  0  0  0
    6.4090    1.5210    0.3910 C   0  0  0  0  0  0  0  0  0  0  0  0
    6.3630    0.1190    0.8750 C   0  0  0  0  0  0  0  0  0  0  0  0
    5.3500   -0.7260    0.4210 N   0  0  0  0  0  0  0  0  0  0  0  0
    5.4440   -1.0440   -0.9650 C   0  0  0  0  0  0  0  0  0  0  0  0
    4.3880   -0.2190   -1.6340 C   0  0  0  0  0  0  0  0  0  0  0  0
    3.4710    0.2710   -0.5960 C   0  0  1  0  0  0  0  0  0  0  0  0
    1.9970    0.0530   -0.7940 C   0  0  0  0  0  0  0  0  0  0  0  0
    1.4980   -1.2370   -0.9080 N   0  0  0  0  0  0  0  0  0  0  0  0
    1.7610   -2.0330   -2.0420 C   0  0  0  0  0  0  0  0  0  0  0  0
    0.6430   -1.7750    0.0670 C   0  0  0  0  0  0  0  0  0  0  0  0
   -0.6260   -1.1240    0.3470 C   0  0  0  0  0  0  0  0  0  0  0  0
   -1.3390   -1.6010    1.4430 C   0  0  0  0  0  0  0  0  0  0  0  0
   -2.5340   -1.0970    1.8250 C   0  0  0  0  0  0  0  0  0  0  0  0
   -3.1180   -0.0400    1.1080 C   0  0  0  0  0  0  0  0  0  0  0  0
   -4.3250    0.3780    1.5950 O   0  0  0  0  0  0  0  0  0  0  0  0
   -5.5510    0.3980    1.0420 C   0  0  0  0  0  0  0  0  0  0  0  0
   -6.0870    1.5110    0.4660 C   0  0  0  0  0  0  0  0  0  0  0  0
   -7.3450    1.5430   -0.1050 C   0  0  0  0  0  0  0  0  0  0  0  0
   -8.1040    0.4030   -0.0970 C   0  0  0  0  0  0  0  0  0  0  0  0
   -9.4770    0.3790   -0.7010 C   0  0  0  0  0  0  0  0  0  0  0  0
   -7.6040   -0.7410    0.4720 C   0  0  0  0  0  0  0  0  0  0  0  0
   -6.3440   -0.7600    1.0400 C   0  0  0  0  0  0  0  0  0  0  0  0
   -2.4390    0.4480    0.0270 C   0  0  0  0  0  0  0  0  0  0  0  0
   -3.0380    1.5800   -0.7510 C   0  0  0  0  0  0  0  0  0  0  0  0
   -1.2020   -0.0960   -0.3430 C   0  0  0  0  0  0  0  0  0  0  0  0
    4.0030   -0.3950    0.6640 C   0  0  0  0  0  0  0  0  0  0  0  0
  1  2  1  0
  2  3  1  0
  3  4  1  0
  4  5  1  0
  4 27  1  0
  5  6  1  0
  6  7  1  0
  7  8  1  6
  7 27  1  0
  8  9  1  0
  9 10  1  0
  9 11  1  0
 11 12  1  0
 12 13  2  0
 12 26  1  0
 13 14  1  0
 14 15  2  0
 15 16  1  0
 15 24  1  0
 16 17  1  0
 17 18  2  0
 17 23  1  0
 18 19  1  0
 19 20  2  0
 20 21  1  0
 20 22  1  0
 22 23  2  0
 24 25  1  0
 24 26  2  0
M  END
