
     RDKit          3D

 26 28  0  0  0  0  0  0  0  0999 V2000
    2.3000    3.0470   -0.4370 C   0  0  0  0  0  0  0  0  0  0  0  0
    3.5490    2.5250   -0.0050 O   0  0  0  0  0  0  0  0  0  0  0  0
    3.7230    1.2110    0.3730 C   0  0  0  0  0  0  0  0  0  0  0  0
    2.6750    0.2840    0.3590 C   0  0  0  0  0  0  0  0  0  0  0  0
    2.8240   -1.0220    0.7290 C   0  0  0  0  0  0  0  0  0  0  0  0
    1.7770   -1.9640    0.7200 N   0  0  0  0  0  0  0  0  0  0  0  0
    0.4380   -1.7470    0.3470 C   0  0  0  0  0  0  0  0  0  0  0  0
   -0.1410   -0.6080   -0.0790 N   0  0  0  0  0  0  0  0  0  0  0  0
   -1.4170   -0.7710   -0.3410 N   0  0  0  0  0  0  0  0  0  0  0  0
   -2.3760    0.2150   -0.8190 C   0  0  1  0  0  0  0  0  0  0  0  0
   -3.5220    0.3100    0.1610 C   0  0  0  0  0  0  0  0  0  0  0  0
   -3.4350    1.5130    0.8790 O   0  0  0  0  0  0  0  0  0  0  0  0
   -3.8490    2.5160    0.0000 C   0  0  0  0  0  0  0  0  0  0  0  0
   -2.8650    2.5960   -1.1350 C   0  0  0  0  0  0  0  0  0  0  0  0
   -1.7390    1.5800   -0.9600 C   0  0  2  0  0  0  0  0  0  0  0  0
   -0.9150    1.5690   -2.1560 C   0  0  0  0  0  0  0  0  0  0  0  0
   -0.2530    1.5670   -3.1090 N   0  0  0  0  0  0  0  0  0  0  0  0
   -1.7400   -2.0410   -0.0950 C   0  0  0  0  0  0  0  0  0  0  0  0
   -0.5740   -2.6760    0.3430 C   0  0  0  0  0  0  0  0  0  0  0  0
   -0.5070   -4.0890    0.7180 C   0  0  0  0  0  0  0  0  0  0  0  0
   -1.7060   -4.8760    0.6330 N   0  0  0  0  0  0  0  0  0  0  0  0
    0.5680   -4.6010    1.1030 O   0  0  0  0  0  0  0  0  0  0  0  0
    4.1130   -1.3880    1.1310 C   0  0  0  0  0  0  0  0  0  0  0  0
    5.1560   -0.4890    1.1500 C   0  0  0  0  0  0  0  0  0  0  0  0
    4.9800    0.8220    0.7730 C   0  0  0  0  0  0  0  0  0  0  0  0
    6.3000    1.9810    0.7920 Cl  0  0  0  0  0  0  0  0  0  0  0  0
  1  2  1  0
  2  3  1  0
  3  4  2  0
  3 25  1  0
  4  5  1  0
  5  6  1  0
  5 23  2  0
  6  7  1  0
  7  8  2  0
  7 19  1  0
  8  9  1  0
 10  9  1  1
  9 18  1  0
 10 11  1  0
 10 15  1  0
 11 12  1  0
 12 13  1  0
 13 14  1  0
 14 15  1  0
 15 16  1  6
 16 17  3  0
 18 19  2  0
 19 20  1  0
 20 21  1  0
 20 22  2  0
 23 24  1  0
 24 25  2  0
 25 26  1  0
M  END
