
     RDKit          3D

 27 29  0  0  0  0  0  0  0  0999 V2000
   -5.3150   -3.1340    1.0400 C   0  0  0  0  0  0  0  0  0  0  0  0
   -4.2190   -2.1200    0.6820 C   0  0  0  0  0  0  0  0  0  0  0  0
   -3.1640   -2.8140   -0.0010 N   0  0  0  0  0  0  0  0  0  0  0  0
   -2.0380   -1.9940   -0.3720 C   0  0  0  0  0  0  0  0  0  0  0  0
   -2.4500   -1.0040   -1.4490 C   0  0  0  0  0  0  0  0  0  0  0  0
   -1.2860   -0.1530   -1.8760 C   0  0  0  0  0  0  0  0  0  0  0  0
   -0.6930    0.6550   -0.8760 N   0  0  0  0  0  0  0  0  0  0  0  0
    0.5540    0.2670   -0.2520 C   0  0  0  0  0  0  0  0  0  0  0  0
    0.8580    0.7130    1.0430 C   0  0  0  0  0  0  0  0  0  0  0  0
    2.0470    0.3690    1.6420 C   0  0  0  0  0  0  0  0  0  0  0  0
    2.9570   -0.4220    0.9740 C   0  0  0  0  0  0  0  0  0  0  0  0
    2.6470   -0.8510   -0.2920 C   0  0  0  0  0  0  0  0  0  0  0  0
    3.5140   -1.6600   -1.0490 O   0  0  0  0  0  0  0  0  0  0  0  0
    4.7500   -2.0520   -0.5950 C   0  0  0  0  0  0  0  0  0  0  0  0
    5.8750   -1.2560   -0.8560 C   0  0  0  0  0  0  0  0  0  0  0  0
    7.1070   -1.6610   -0.3960 C   0  0  0  0  0  0  0  0  0  0  0  0
    7.2220   -2.8340    0.3100 C   0  0  0  0  0  0  0  0  0  0  0  0
    6.0980   -3.6230    0.5680 C   0  0  0  0  0  0  0  0  0  0  0  0
    4.8610   -3.2280    0.1120 C   0  0  0  0  0  0  0  0  0  0  0  0
    1.4460   -0.5180   -0.9270 C   0  0  0  0  0  0  0  0  0  0  0  0
   -1.2970    1.8760   -0.3870 C   0  0  1  0  0  0  0  0  0  0  0  0
   -0.1810    2.9520   -0.4440 C   0  0  0  0  0  0  0  0  0  0  0  0
   -0.4720    3.9380    0.6220 C   0  0  0  0  0  0  0  0  0  0  0  0
   -1.4700    4.9740    0.2420 C   0  0  0  0  0  0  0  0  0  0  0  0
   -2.6680    4.7070   -0.2660 C   0  0  0  0  0  0  0  0  0  0  0  0
   -3.2620    3.4140   -0.5570 C   0  0  0  0  0  0  0  0  0  0  0  0
   -2.3790    2.4380   -1.2540 C   0  0  0  0  0  0  0  0  0  0  0  0
  1  2  1  0
  2  3  1  0
  3  4  1  0
  4  5  1  0
  5  6  1  0
  6  7  1  0
  7  8  1  0
 21  7  1  6
  8  9  2  0
  8 20  1  0
  9 10  1  0
 10 11  2  0
 11 12  1  0
 12 13  1  0
 12 20  2  0
 13 14  1  0
 14 15  2  0
 14 19  1  0
 15 16  1  0
 16 17  2  0
 17 18  1  0
 18 19  2  0
 21 22  1  0
 21 27  1  0
 22 23  1  0
 23 24  1  0
 24 25  2  0
 25 26  1  0
 26 27  1  0
M  END
