
     RDKit          3D

 27 29  0  0  0  0  0  0  0  0999 V2000
    6.2850    2.7040    2.2010 C   0  0  0  0  0  0  0  0  0  0  0  0
    6.0360    1.5020    1.8260 N   0  0  0  0  0  0  0  0  0  0  0  0
    6.4560    1.0750    0.5370 C   0  0  0  0  0  0  0  0  0  0  0  0
    7.5200    0.3180    0.4380 C   0  0  0  0  0  0  0  0  0  0  0  0
    5.6800    1.5000   -0.6530 C   0  0  0  0  0  0  0  0  0  0  0  0
    4.2450    1.0090   -0.5810 C   0  0  0  0  0  0  0  0  0  0  0  0
    4.2090   -0.4030   -0.5220 N   0  0  0  0  0  0  0  0  0  0  0  0
    4.6040   -1.1280   -1.6700 C   0  0  0  0  0  0  0  0  0  0  0  0
    4.5040   -2.5760   -1.1630 C   0  0  0  0  0  0  0  0  0  0  0  0
    3.1400   -2.4880   -0.4750 C   0  0  0  0  0  0  0  0  0  0  0  0
    3.0720   -1.0350    0.0190 C   0  0  2  0  0  0  0  0  0  0  0  0
    1.7700   -0.4360   -0.2710 C   0  0  0  0  0  0  0  0  0  0  0  0
    1.6590    0.5910   -0.9700 O   0  0  0  0  0  0  0  0  0  0  0  0
    0.5620   -1.0470    0.2680 C   0  0  0  0  0  0  0  0  0  0  0  0
   -0.6290   -0.5160    0.0180 C   0  0  0  0  0  0  0  0  0  0  0  0
   -1.8830   -1.0410    0.5020 C   0  0  0  0  0  0  0  0  0  0  0  0
   -1.9760   -2.1750    1.2810 C   0  0  0  0  0  0  0  0  0  0  0  0
   -3.2020   -2.6380    1.7240 C   0  0  0  0  0  0  0  0  0  0  0  0
   -4.3320   -1.9540    1.3780 C   0  0  0  0  0  0  0  0  0  0  0  0
   -4.3050   -0.8100    0.5980 C   0  0  0  0  0  0  0  0  0  0  0  0
   -5.5440   -0.0900    0.2420 C   0  0  1  0  0  0  0  0  0  0  0  0
   -5.4560    1.3060    0.8450 C   0  0  0  0  0  0  0  0  0  0  0  0
   -6.7430    2.0310    0.5390 C   0  0  0  0  0  0  0  0  0  0  0  0
   -6.8580    2.2480   -0.9520 C   0  0  0  0  0  0  0  0  0  0  0  0
   -5.8090    1.4570   -1.7050 C   0  0  0  0  0  0  0  0  0  0  0  0
   -5.7730    0.0130   -1.2360 C   0  0  0  0  0  0  0  0  0  0  0  0
   -3.0680   -0.3820    0.1780 C   0  0  0  0  0  0  0  0  0  0  0  0
  1  2  2  0
  2  3  1  0
  3  4  2  0
  3  5  1  0
  5  6  1  0
  6  7  1  0
  7  8  1  0
  7 11  1  0
  8  9  1  0
  9 10  1  0
 10 11  1  0
 11 12  1  6
 12 13  2  0
 12 14  1  0
 14 15  2  3
 15 16  1  0
 16 17  2  0
 16 27  1  0
 17 18  1  0
 18 19  2  0
 19 20  1  0
 21 20  1  6
 20 27  2  0
 21 22  1  0
 21 26  1  0
 22 23  1  0
 23 24  1  0
 24 25  1  0
 25 26  1  0
M  END
