
     RDKit          3D

 27 28  0  0  0  0  0  0  0  0999 V2000
   -2.3110    0.0790   -3.8650 C   0  0  0  0  0  0  0  0  0  0  0  0
   -1.7020   -0.7820   -3.1220 C   0  0  0  0  0  0  0  0  0  0  0  0
   -1.4750   -1.0870   -1.7570 C   0  0  0  0  0  0  0  0  0  0  0  0
   -1.8190   -0.4660   -0.5780 N   0  0  0  0  0  0  0  0  0  0  0  0
   -1.7680   -1.3790    0.5490 C   0  0  0  0  0  0  0  0  0  0  0  0
   -2.8700   -2.4200    0.4620 C   0  0  0  0  0  0  0  0  0  0  0  0
   -3.8030   -2.5340    1.3920 C   0  0  0  0  0  0  0  0  0  0  0  0
   -3.7930   -1.6330    2.5600 C   0  0  0  0  0  0  0  0  0  0  0  0
   -4.8480   -3.5610    1.2620 C   0  0  0  0  0  0  0  0  0  0  0  0
   -1.3590    0.8670   -0.2880 C   0  0  1  0  0  0  0  0  0  0  0  0
   -2.1550    1.8080   -1.1590 C   0  0  0  0  0  0  0  0  0  0  0  0
   -1.4750    1.2520    1.1440 C   0  0  0  0  0  0  0  0  0  0  0  0
   -0.9910    2.5950    1.5540 C   0  0  0  0  0  0  0  0  0  0  0  0
   -1.5930    3.6800    0.9700 O   0  0  0  0  0  0  0  0  0  0  0  0
   -1.0630    4.8840    1.4180 C   0  0  0  0  0  0  0  0  0  0  0  0
    0.1230    1.0360   -0.6350 C   0  0  0  0  0  0  0  0  0  0  0  0
    0.9690    0.1860    0.1190 N   0  0  0  0  0  0  0  0  0  0  0  0
    2.3670    0.0750   -0.1710 C   0  0  0  0  0  0  0  0  0  0  0  0
    2.9050    0.7650   -1.2300 C   0  0  0  0  0  0  0  0  0  0  0  0
    4.2590    0.6930   -1.5610 C   0  0  0  0  0  0  0  0  0  0  0  0
    5.1130   -0.0980   -0.8060 C   0  0  0  0  0  0  0  0  0  0  0  0
    6.4690   -0.1840   -1.1180 C   0  0  0  0  0  0  0  0  0  0  0  0
    7.3010   -0.9710   -0.3600 C   0  0  0  0  0  0  0  0  0  0  0  0
    6.7830   -1.6730    0.7100 C   0  0  0  0  0  0  0  0  0  0  0  0
    5.4400   -1.5700    0.9950 C   0  0  0  0  0  0  0  0  0  0  0  0
    4.5790   -0.7910    0.2560 C   0  0  0  0  0  0  0  0  0  0  0  0
    3.2380   -0.7080    0.5690 C   0  0  0  0  0  0  0  0  0  0  0  0
  1  2  2  0
  2  3  1  0
  3  4  1  0
  4  5  1  0
  4 10  1  0
  5  6  1  0
  6  7  2  3
  7  8  1  0
  7  9  1  0
 10 11  1  6
 10 12  1  0
 10 16  1  0
 12 13  1  0
 13 14  1  0
 14 15  1  0
 16 17  1  0
 17 18  1  0
 18 19  2  0
 18 27  1  0
 19 20  1  0
 20 21  2  0
 21 22  1  0
 21 26  1  0
 22 23  2  0
 23 24  1  0
 24 25  2  0
 25 26  1  0
 26 27  2  0
M  END
