
     RDKit          3D

 21 24  0  0  0  0  0  0  0  0999 V2000
    4.1850    0.8970   -0.6190 C   0  0  0  0  0  0  0  0  0  0  0  0
    2.7130    1.1220   -0.2500 C   0  0  2  0  0  0  0  0  0  0  0  0
    2.6310    1.7330    1.0060 O   0  0  0  0  0  0  0  0  0  0  0  0
    1.3750    2.3180    1.0730 C   0  0  0  0  0  0  0  0  0  0  0  0
    0.2700    1.4470    0.5800 C   0  0  1  0  0  0  0  0  0  0  0  0
   -0.3570    1.8980   -0.7010 C   0  0  0  0  0  0  0  0  0  0  0  0
   -1.8090    1.5860   -0.6570 C   0  0  0  0  0  0  0  0  0  0  0  0
   -2.7190    2.3120   -1.2760 C   0  0  0  0  0  0  0  0  0  0  0  0
   -4.0360    1.6880   -0.9970 C   0  0  0  0  0  0  0  0  0  0  0  0
   -3.7050    0.5270   -0.1420 C   0  0  0  0  0  0  0  0  0  0  0  0
   -2.4120    0.4670    0.0570 C   0  0  0  0  0  0  0  0  0  0  0  0
   -1.6990   -0.5820    0.8790 C   0  0  0  0  0  0  0  0  0  0  0  0
   -0.3910   -0.9640    0.2300 C   0  0  1  0  0  0  0  0  0  0  0  0
   -0.0400   -2.3470    0.8030 C   0  0  0  0  0  0  0  0  0  0  0  0
   -1.1320   -3.2260    0.1910 C   0  0  0  0  0  0  0  0  0  0  0  0
   -1.5280   -2.5390   -1.0700 C   0  0  0  0  0  0  0  0  0  0  0  0
   -0.6380   -1.2860   -1.1850 C   0  0  0  0  0  0  0  0  0  0  0  0
    0.6850   -0.0280    0.5730 C   0  0  2  0  0  0  0  0  0  0  0  0
    1.0060   -0.2800    1.9380 O   0  0  0  0  0  0  0  0  0  0  0  0
    1.9770   -0.2000   -0.1610 C   0  0  2  0  0  0  0  0  0  0  0  0
    2.9180   -1.1540    0.5890 C   0  0  0  0  0  0  0  0  0  0  0  0
  2  1  1  1
  2  3  1  0
  2 20  1  0
  3  4  1  0
  5  4  1  6
  5  6  1  0
  5 18  1  0
  6  7  1  0
  7  8  2  0
  7 11  1  0
  8  9  1  0
  9 10  1  0
 10 11  2  0
 11 12  1  0
 13 12  1  1
 13 14  1  0
 13 17  1  0
 13 18  1  0
 14 15  1  0
 15 16  1  0
 16 17  1  0
 18 19  1  1
 18 20  1  0
 20 21  1  1
M  END
