
     RDKit          3D

 26 27  0  0  0  0  0  0  0  0999 V2000
    4.3030   -0.9770    1.4370 C   0  0  0  0  0  0  0  0  0  0  0  0
    4.1930   -0.1730    0.1430 C   0  0  1  0  0  0  0  0  0  0  0  0
    5.5400    0.1820   -0.3230 C   0  0  0  0  0  0  0  0  0  0  0  0
    5.9380    1.5370   -0.4900 N   0  0  0  0  0  0  0  0  0  0  0  0
    6.3840   -0.7100   -0.5900 O   0  0  0  0  0  0  0  0  0  0  0  0
    3.4620   -1.0840   -0.8530 C   0  0  0  0  0  0  0  0  0  0  0  0
    2.0910   -1.3090   -0.2490 C   0  0  0  0  0  0  0  0  0  0  0  0
    1.3070   -0.0230   -0.5410 C   0  0  1  0  0  0  0  0  0  0  0  0
    0.2320    0.1470    0.3760 N   0  0  0  0  0  0  0  0  0  0  0  0
   -1.1210    0.1480   -0.0570 C   0  0  0  0  0  0  0  0  0  0  0  0
   -1.4100   -0.0040   -1.2890 O   0  0  0  0  0  0  0  0  0  0  0  0
   -2.2000    0.3150    0.8440 N   0  0  0  0  0  0  0  0  0  0  0  0
   -3.6040    0.2920    0.3630 C   0  0  0  0  0  0  0  0  0  0  0  0
   -4.1850    1.4240    0.5160 C   0  0  0  0  0  0  0  0  0  0  0  0
   -5.4260    2.0530    0.2910 C   0  0  0  0  0  0  0  0  0  0  0  0
   -5.5160    3.4740    0.6920 N   0  0  0  0  0  0  0  0  0  0  0  0
   -6.4890    1.6590   -0.1830 O   0  0  0  0  0  0  0  0  0  0  0  0
   -4.0820   -0.9760   -0.2110 C   0  0  0  0  0  0  0  0  0  0  0  0
   -3.2290   -2.0190   -0.2090 C   0  0  0  0  0  0  0  0  0  0  0  0
   -4.0630   -3.3820   -0.9500 S   0  0  0  0  0  0  0  0  0  0  0  0
   -4.3020   -4.4200    0.1520 O   0  0  0  0  0  0  0  0  0  0  0  0
   -5.5660   -2.5370   -1.2770 C   0  0  0  0  0  0  0  0  0  0  0  0
   -6.6170   -2.9730   -1.8270 O   0  0  0  0  0  0  0  0  0  0  0  0
   -5.3180   -1.2300   -0.7700 N   0  0  0  0  0  0  0  0  0  0  0  0
    2.2860    1.1140   -0.5550 C   0  0  0  0  0  0  0  0  0  0  0  0
    3.3600    0.9590    0.4000 N   0  0  0  0  0  0  0  0  0  0  0  0
  2  1  1  1
  2  3  1  0
  2  6  1  0
  2 26  1  0
  3  4  1  0
  3  5  2  0
  6  7  1  0
  7  8  1  0
  8  9  1  1
  8 25  1  0
  9 10  1  0
 10 11  2  0
 10 12  1  0
 12 13  1  0
 13 14  2  3
 13 18  1  0
 14 15  1  0
 15 16  1  0
 15 17  2  0
 18 19  2  0
 18 24  1  0
 20 19  1  1
 20 21  2  0
 20 22  1  0
 22 23  2  0
 22 24  1  0
 25 26  1  0
M  CHG  1  26   1
M  END
