
     RDKit          3D

 26 27  0  0  0  0  0  0  0  0999 V2000
   -4.4400    1.4310    0.0660 C   0  0  0  0  0  0  0  0  0  0  0  0
   -3.2270    0.5860    0.4910 C   0  0  2  0  0  0  0  0  0  0  0  0
   -3.6240   -0.7770    0.8690 C   0  0  0  0  0  0  0  0  0  0  0  0
   -2.6660    1.3260    1.5720 O   0  0  0  0  0  0  0  0  0  0  0  0
   -2.0960    2.4390    0.9540 C   0  0  0  0  0  0  0  0  0  0  0  0
   -1.7690    2.0900   -0.3260 O   0  0  0  0  0  0  0  0  0  0  0  0
   -2.1800    0.7830   -0.5400 C   0  0  2  0  0  0  0  0  0  0  0  0
   -2.7270    0.7420   -1.9510 C   0  0  0  0  0  0  0  0  0  0  0  0
   -3.2170   -0.5260   -2.3770 N   0  0  0  0  0  0  0  0  0  0  0  0
   -0.9920   -0.0930   -0.3770 C   0  0  0  0  0  0  0  0  0  0  0  0
    0.3230    0.2550   -0.2560 N   0  0  0  0  0  0  0  0  0  0  0  0
    1.1010   -0.8320   -0.1120 C   0  0  0  0  0  0  0  0  0  0  0  0
    2.5750   -0.8970    0.0620 C   0  0  2  0  0  0  0  0  0  0  0  0
    3.0790   -2.1800    0.0130 O   0  0  0  0  0  0  0  0  0  0  0  0
    3.1230   -0.1300    1.2080 C   0  0  0  0  0  0  0  0  0  0  0  0
    2.8810    1.6440    1.1700 S   0  0  0  0  0  0  0  0  0  0  0  0
    3.7960    2.4150   -0.2010 C   0  0  0  0  0  0  0  0  0  0  0  0
    5.2530    2.1780    0.0130 C   0  0  0  0  0  0  0  0  0  0  0  0
    6.0920    3.2370    0.3800 N   0  0  0  0  0  0  0  0  0  0  0  0
    5.6380    0.9820   -0.1640 O   0  0  0  0  0  0  0  0  0  0  0  0
    0.2530   -1.8920   -0.1480 N   0  0  0  0  0  0  0  0  0  0  0  0
    0.5840   -3.2890   -0.0820 C   0  0  0  0  0  0  0  0  0  0  0  0
    0.7210   -3.7940    1.2840 C   0  0  0  0  0  0  0  0  0  0  0  0
    0.5630   -3.0350    2.4650 N   0  0  0  0  0  0  0  0  0  0  0  0
    1.0080   -5.0300    1.4270 O   0  0  0  0  0  0  0  0  0  0  0  0
   -0.9650   -1.4420   -0.3030 N   0  0  0  0  0  0  0  0  0  0  0  0
  2  1  1  6
  2  3  1  0
  2  4  1  0
  2  7  1  0
  4  5  1  0
  5  6  1  0
  6  7  1  0
  7  8  1  6
  7 10  1  0
  8  9  1  0
 10 11  1  0
 10 26  2  0
 11 12  2  0
 12 13  1  0
 12 21  1  0
 13 14  1  1
 13 15  1  0
 15 16  1  0
 16 17  1  0
 17 18  1  0
 18 19  1  0
 18 20  2  0
 21 22  1  0
 21 26  1  0
 22 23  1  0
 23 24  1  0
 23 25  2  0
M  CHG  1   9   1
M  END
