
     RDKit          3D

 26 27  0  0  0  0  0  0  0  0999 V2000
    8.9090   -0.2660   -0.7300 C   0  0  0  0  0  0  0  0  0  0  0  0
    7.6500    0.0390   -1.4910 C   0  0  1  0  0  0  0  0  0  0  0  0
    7.3430   -1.0450   -2.2920 O   0  0  0  0  0  0  0  0  0  0  0  0
    6.5140    0.3710   -0.6000 C   0  0  0  0  0  0  0  0  0  0  0  0
    6.6350    0.6390    0.7380 C   0  0  0  0  0  0  0  0  0  0  0  0
    5.5120    0.9440    1.4850 C   0  0  0  0  0  0  0  0  0  0  0  0
    4.2640    0.9870    0.9110 C   0  0  0  0  0  0  0  0  0  0  0  0
    3.0900    1.3060    1.6530 N   0  0  0  0  0  0  0  0  0  0  0  0
    1.8480    1.2880    1.0080 N   0  0  0  0  0  0  0  0  0  0  0  0
    0.8710    0.3250    1.3010 C   0  0  0  0  0  0  0  0  0  0  0  0
    1.1460   -0.5500    2.1890 O   0  0  0  0  0  0  0  0  0  0  0  0
   -0.4050    0.3490    0.6000 C   0  0  0  0  0  0  0  0  0  0  0  0
   -0.6320    1.2140   -0.2710 O   0  0  0  0  0  0  0  0  0  0  0  0
   -1.4550   -0.5890    0.8540 N   0  0  0  0  0  0  0  0  0  0  0  0
   -2.7210   -0.5910    0.1800 C   0  0  1  0  0  0  0  0  0  0  0  0
   -3.4020   -1.8170   -0.2430 C   0  0  0  0  0  0  0  0  0  0  0  0
   -3.8740   -1.1850    0.9860 C   0  0  2  0  0  0  0  0  0  0  0  0
   -5.3560   -0.3230    1.2360 S   0  0  0  0  0  0  0  0  0  0  0  0
   -5.6000    0.2400    2.6080 O   0  0  0  0  0  0  0  0  0  0  0  0
   -6.3810    0.1820   -0.0560 C   0  0  2  0  0  0  0  0  0  0  0  0
   -6.9290   -0.9300   -0.9270 C   0  0  0  0  0  0  0  0  0  0  0  0
   -7.6970   -1.8230   -0.0460 N   0  0  0  0  0  0  0  0  0  0  0  0
   -5.8320    1.3120   -0.9100 C   0  0  0  0  0  0  0  0  0  0  0  0
   -6.7470    1.6300   -1.9230 O   0  0  0  0  0  0  0  0  0  0  0  0
    4.1890    0.7150   -0.4230 N   0  0  0  0  0  0  0  0  0  0  0  0
    5.2860    0.4210   -1.1280 N   0  0  0  0  0  0  0  0  0  0  0  0
  2  1  1  1
  2  3  1  0
  2  4  1  0
  4  5  2  0
  4 26  1  0
  5  6  1  0
  6  7  2  0
  7  8  1  0
  7 25  1  0
  8  9  1  0
  9 10  1  0
 10 11  2  0
 10 12  1  0
 12 13  2  0
 12 14  1  0
 15 14  1  1
 15 16  1  0
 15 17  1  0
 17 16  1  6
 17 18  1  0
 18 19  2  0
 18 20  1  6
 20 21  1  6
 20 23  1  0
 21 22  1  0
 23 24  1  0
 25 26  2  0
M  CHG  1  25   1
M  END
