
     RDKit          3D

 26 28  0  0  0  0  0  0  0  0999 V2000
   -0.6540   -0.1770    1.8810 C   0  0  0  0  0  0  0  0  0  0  0  0
   -0.3180    0.0380    0.3850 C   0  0  2  0  0  0  0  0  0  0  0  0
   -1.5880    0.0280   -0.4140 C   0  0  0  0  0  0  0  0  0  0  0  0
   -2.7200    0.8890   -0.1810 C   0  0  1  0  0  0  0  0  0  0  0  0
   -2.5620    2.3520   -0.2560 C   0  0  0  0  0  0  0  0  0  0  0  0
   -1.7370    2.9740    0.6340 O   0  0  0  0  0  0  0  0  0  0  0  0
   -3.7670    0.5380   -1.2960 C   0  0  0  0  0  0  0  0  0  0  0  0
   -4.1400   -0.8120   -1.2040 O   0  0  0  0  0  0  0  0  0  0  0  0
   -4.7340   -1.3520   -0.0780 C   0  0  0  0  0  0  0  0  0  0  0  0
   -5.4700   -0.6090    0.6620 N   0  0  0  0  0  0  0  0  0  0  0  0
   -4.5120   -2.7100    0.2260 N   0  0  0  0  0  0  0  0  0  0  0  0
    0.3250   -1.2330    0.0070 N   0  0  0  0  0  0  0  0  0  0  0  0
    1.4360   -1.1490   -0.7810 N   0  0  0  0  0  0  0  0  0  0  0  0
    2.5380   -0.2970   -0.3140 C   0  0  0  0  0  0  0  0  0  0  0  0
    2.0370    0.8510    0.2300 C   0  0  0  0  0  0  0  0  0  0  0  0
    3.4620    1.7220    0.7680 S   0  0  0  0  0  0  0  0  0  0  0  0
    4.6510    0.5000    0.2290 C   0  0  0  0  0  0  0  0  0  0  0  0
    6.0420    0.4540    0.2930 C   0  0  0  0  0  0  0  0  0  0  0  0
    6.6780    1.3980    0.8140 O   0  0  0  0  0  0  0  0  0  0  0  0
    6.7060   -0.6180   -0.2110 N   0  0  0  0  0  0  0  0  0  0  0  0
    5.9310   -1.5680   -0.7440 C   0  0  0  0  0  0  0  0  0  0  0  0
    6.5270   -2.5750   -1.2200 O   0  0  0  0  0  0  0  0  0  0  0  0
    4.6190   -1.5380   -0.8110 N   0  0  0  0  0  0  0  0  0  0  0  0
    3.8730   -0.4790   -0.3180 C   0  0  0  0  0  0  0  0  0  0  0  0
    0.5790    1.1760    0.2410 C   0  0  1  0  0  0  0  0  0  0  0  0
    0.4030    1.8380   -1.0120 O   0  0  0  0  0  0  0  0  0  0  0  0
  2  1  1  1
  2  3  1  0
  2 12  1  0
  2 25  1  0
  4  3  1  6
  4  5  1  0
  4  7  1  0
  5  6  1  0
  7  8  1  0
  8  9  1  0
  9 10  2  0
  9 11  1  0
 12 13  1  0
 13 14  1  0
 14 15  2  0
 14 24  1  0
 15 16  1  0
 15 25  1  0
 16 17  1  0
 17 18  1  0
 17 24  2  0
 18 19  2  0
 18 20  1  0
 20 21  1  0
 21 22  2  0
 21 23  1  0
 23 24  1  0
 25 26  1  6
M  CHG  1  12   1
M  END
