
     RDKit          3D

 26 28  0  0  0  0  0  0  0  0999 V2000
   -4.2100    0.6960    1.4570 C   0  0  0  0  0  0  0  0  0  0  0  0
   -4.5020   -0.2360    0.3460 C   0  0  1  0  0  0  0  0  0  0  0  0
   -4.8010   -1.5940    0.9270 C   0  0  0  0  0  0  0  0  0  0  0  0
   -3.7560   -2.3110    1.5360 N   0  0  0  0  0  0  0  0  0  0  0  0
   -5.9400   -2.1180    0.8910 O   0  0  0  0  0  0  0  0  0  0  0  0
   -5.8040    0.2230   -0.2350 N   0  0  0  0  0  0  0  0  0  0  0  0
   -5.7200    1.4620   -0.9230 C   0  0  0  0  0  0  0  0  0  0  0  0
   -6.7060    2.1920   -1.0410 O   0  0  0  0  0  0  0  0  0  0  0  0
   -4.3480    1.7650   -1.4640 C   0  0  0  0  0  0  0  0  0  0  0  0
   -3.7850    0.5750   -1.8170 O   0  0  0  0  0  0  0  0  0  0  0  0
   -3.5680   -0.3290   -0.7770 C   0  0  1  0  0  0  0  0  0  0  0  0
   -2.1560   -0.2730   -0.3800 C   0  0  0  0  0  0  0  0  0  0  0  0
   -1.4410   -0.2640    0.7670 C   0  0  0  0  0  0  0  0  0  0  0  0
   -0.0860   -0.1950    0.6790 C   0  0  0  0  0  0  0  0  0  0  0  0
    0.5050   -0.1390   -0.4970 C   0  0  0  0  0  0  0  0  0  0  0  0
    1.8600   -0.0610   -0.9350 N   0  0  0  0  0  0  0  0  0  0  0  0
    2.8920   -0.0310   -0.0030 C   0  0  0  0  0  0  0  0  0  0  0  0
    2.7380   -0.0680    1.2440 O   0  0  0  0  0  0  0  0  0  0  0  0
    4.2830    0.0480   -0.4080 N   0  0  0  0  0  0  0  0  0  0  0  0
    5.3590    0.0790    0.5620 C   0  0  1  0  0  0  0  0  0  0  0  0
    6.3990   -0.9980    0.2940 C   0  0  0  0  0  0  0  0  0  0  0  0
    7.0650   -0.4630   -0.8930 N   0  0  0  0  0  0  0  0  0  0  0  0
    7.0920    0.9580   -0.6550 C   0  0  0  0  0  0  0  0  0  0  0  0
    7.8990    1.7100   -1.2640 O   0  0  0  0  0  0  0  0  0  0  0  0
    6.1130    1.2870    0.3140 N   0  0  0  0  0  0  0  0  0  0  0  0
   -0.8610   -0.1810   -1.6120 S   0  0  0  0  0  0  0  0  0  0  0  0
  2  1  1  1
  2  3  1  0
  2  6  1  0
  2 11  1  0
  3  4  1  0
  3  5  2  0
  6  7  1  0
  7  8  2  0
  7  9  1  0
  9 10  1  0
 10 11  1  0
 11 12  1  1
 12 13  2  0
 12 26  1  0
 13 14  1  0
 14 15  2  0
 15 16  1  0
 15 26  1  0
 16 17  1  0
 17 18  2  0
 17 19  1  0
 20 19  1  6
 20 21  1  0
 20 25  1  0
 21 22  1  0
 22 23  1  0
 23 24  2  0
 23 25  1  0
M  CHG  1  22   1
M  END
