
     RDKit          3D

 26 27  0  0  0  0  0  0  0  0999 V2000
   -8.0340   -0.0800    0.0420 C   0  0  0  0  0  0  0  0  0  0  0  0
   -7.4050   -0.0570   -1.1700 O   0  0  0  0  0  0  0  0  0  0  0  0
   -6.2670    0.6580   -1.2650 C   0  0  0  0  0  0  0  0  0  0  0  0
   -5.1740    0.0900   -0.3880 C   0  0  0  0  0  0  0  0  0  0  0  0
   -5.3370   -0.9420    0.2550 O   0  0  0  0  0  0  0  0  0  0  0  0
   -3.9600    0.7730   -0.3240 N   0  0  0  0  0  0  0  0  0  0  0  0
   -2.7720    0.5130    0.3810 C   0  0  0  0  0  0  0  0  0  0  0  0
   -2.3140   -0.3780    1.2000 C   0  0  0  0  0  0  0  0  0  0  0  0
   -3.0950   -1.5240    1.6470 N   0  0  0  0  0  0  0  0  0  0  0  0
   -0.9330   -0.2040    1.7110 C   0  0  0  0  0  0  0  0  0  0  0  0
   -0.0950    0.4400    0.6370 C   0  0  2  0  0  0  0  0  0  0  0  0
    0.0800   -0.3930   -0.5130 N   0  0  0  0  0  0  0  0  0  0  0  0
    1.1140   -0.1150   -1.4220 C   0  0  0  0  0  0  0  0  0  0  0  0
    0.9940   -0.3510   -2.6580 O   0  0  0  0  0  0  0  0  0  0  0  0
    2.3860    0.4680   -0.9520 C   0  0  2  0  0  0  0  0  0  0  0  0
    2.9880    1.3620   -2.0130 C   0  0  0  0  0  0  0  0  0  0  0  0
    3.3340   -0.6940   -0.7400 C   0  0  0  0  0  0  0  0  0  0  0  0
    4.6570   -0.2810   -0.2700 C   0  0  0  0  0  0  0  0  0  0  0  0
    4.9160    0.9280   -0.0860 O   0  0  0  0  0  0  0  0  0  0  0  0
    5.6350   -1.2670   -0.0270 N   0  0  0  0  0  0  0  0  0  0  0  0
    6.9410   -0.8160    0.4400 C   0  0  0  0  0  0  0  0  0  0  0  0
    7.5360    0.0760   -0.5360 N   0  0  0  0  0  0  0  0  0  0  0  0
    2.2110    1.2620    0.2490 N   0  0  0  0  0  0  0  0  0  0  0  0
    1.1190    1.0670    1.1380 C   0  0  0  0  0  0  0  0  0  0  0  0
    1.2410    1.4430    2.3220 O   0  0  0  0  0  0  0  0  0  0  0  0
   -1.3540    1.7000    0.1610 S   0  0  0  0  0  0  0  0  0  0  0  0
  1  2  1  0
  2  3  1  0
  3  4  1  0
  4  5  2  0
  4  6  1  0
  6  7  1  0
  7  8  2  0
  7 26  1  0
  8  9  1  0
  8 10  1  0
 11 10  1  1
 11 12  1  0
 11 24  1  0
 11 26  1  0
 12 13  1  0
 13 14  2  0
 13 15  1  0
 15 16  1  6
 15 17  1  0
 15 23  1  0
 17 18  1  0
 18 19  2  0
 18 20  1  0
 20 21  1  0
 21 22  1  0
 23 24  1  0
 24 25  2  0
M  CHG  1   9   1
M  END
