
     RDKit          3D

 32 36  0  0  0  0  0  0  0  0999 V2000
   -1.4260   -2.0510   -0.9910 C   0  0  0  0  0  0  0  0  0  0  0  0
   -1.6830   -0.5510   -0.7670 C   0  0  2  0  0  0  0  0  0  0  0  0
   -2.3120   -0.0650   -1.9430 N   0  0  0  0  0  0  0  0  0  0  0  0
   -3.1870    1.0690   -1.7850 C   0  0  2  0  0  0  0  0  0  0  0  0
   -2.5290    2.3390   -2.2730 C   0  0  0  0  0  0  0  0  0  0  0  0
   -3.7340    1.2730   -0.4490 C   0  0  0  0  0  0  0  0  0  0  0  0
   -3.5920    2.3290    0.4060 C   0  0  0  0  0  0  0  0  0  0  0  0
   -4.2880    2.0330    1.5180 N   0  0  0  0  0  0  0  0  0  0  0  0
   -4.8520    0.8530    1.3940 N   0  0  0  0  0  0  0  0  0  0  0  0
   -4.5370    0.3470    0.1960 C   0  0  0  0  0  0  0  0  0  0  0  0
   -5.0960   -1.0020   -0.1300 C   0  0  0  0  0  0  0  0  0  0  0  0
   -6.5980   -0.9690    0.1350 C   0  0  0  0  0  0  0  0  0  0  0  0
   -6.9380   -0.3690    1.4640 C   0  0  0  0  0  0  0  0  0  0  0  0
   -5.7050    0.0250    2.2510 C   0  0  0  0  0  0  0  0  0  0  0  0
   -0.3100    0.0440   -0.5900 C   0  0  0  0  0  0  0  0  0  0  0  0
   -0.0420    1.3380   -0.7570 N   0  0  0  0  0  0  0  0  0  0  0  0
    1.2420    1.5020   -0.5230 N   0  0  0  0  0  0  0  0  0  0  0  0
    1.7660    0.3040   -0.2120 C   0  0  0  0  0  0  0  0  0  0  0  0
    3.1740    0.1140    0.1080 C   0  0  0  0  0  0  0  0  0  0  0  0
    4.0820    1.1480    0.1260 C   0  0  0  0  0  0  0  0  0  0  0  0
    5.4150    0.9630    0.4300 C   0  0  0  0  0  0  0  0  0  0  0  0
    5.8960   -0.2780    0.7300 C   0  0  0  0  0  0  0  0  0  0  0  0
    7.1250   -0.7850    1.0680 C   0  0  0  0  0  0  0  0  0  0  0  0
    8.4150   -0.0280    1.1920 C   0  0  0  0  0  0  0  0  0  0  0  0
    9.0330    0.2300   -0.1540 C   0  0  2  0  0  0  0  0  0  0  0  0
   10.2140    0.9320    0.0380 F   0  0  0  0  0  0  0  0  0  0  0  0
    8.1510    0.9190   -0.9470 F   0  0  0  0  0  0  0  0  0  0  0  0
    6.9760   -2.1030    1.2560 N   0  0  0  0  0  0  0  0  0  0  0  0
    5.7190   -2.4090    1.0460 N   0  0  0  0  0  0  0  0  0  0  0  0
    5.0100   -1.3300    0.7200 C   0  0  0  0  0  0  0  0  0  0  0  0
    3.6590   -1.1360    0.4110 C   0  0  0  0  0  0  0  0  0  0  0  0
    0.7970   -0.5590   -0.2620 O   0  0  0  0  0  0  0  0  0  0  0  0
  2  1  1  6
  2  3  1  0
  2 15  1  0
  3  4  1  0
  4  5  1  1
  4  6  1  0
  6  7  1  0
  6 10  2  0
  7  8  2  0
  8  9  1  0
  9 10  1  0
  9 14  1  0
 10 11  1  0
 11 12  1  0
 12 13  1  0
 13 14  1  0
 15 16  2  0
 15 32  1  0
 16 17  1  0
 17 18  2  0
 18 19  1  0
 18 32  1  0
 19 20  2  0
 19 31  1  0
 20 21  1  0
 21 22  2  0
 22 23  1  0
 22 30  1  0
 23 24  1  0
 23 28  2  0
 24 25  1  0
 25 26  1  1
 25 27  1  0
 28 29  1  0
 29 30  1  0
 30 31  2  0
M  CHG  1   3   1
M  END
