
     RDKit          3D

 32 35  0  0  0  0  0  0  0  0999 V2000
   -6.5770   -1.2420    2.4790 C   0  0  0  0  0  0  0  0  0  0  0  0
   -6.2560   -0.4650    1.4860 C   0  0  0  0  0  0  0  0  0  0  0  0
   -4.9280    0.0410    1.1950 C   0  0  0  0  0  0  0  0  0  0  0  0
   -3.9320    0.1560    2.1370 C   0  0  0  0  0  0  0  0  0  0  0  0
   -4.2020   -0.2260    3.4530 O   0  0  0  0  0  0  0  0  0  0  0  0
   -2.7060    0.6320    1.8080 N   0  0  0  0  0  0  0  0  0  0  0  0
   -2.3860    1.0160    0.5660 C   0  0  0  0  0  0  0  0  0  0  0  0
   -1.1140    1.5200    0.1930 N   0  0  0  0  0  0  0  0  0  0  0  0
   -0.9460    1.8800   -1.1870 C   0  0  0  0  0  0  0  0  0  0  0  0
    0.1050    1.1240   -1.9220 C   0  0  0  0  0  0  0  0  0  0  0  0
    0.4340   -0.2200   -1.3670 C   0  0  0  0  0  0  0  0  0  0  0  0
    0.9460   -0.2200    0.0300 C   0  0  1  0  0  0  0  0  0  0  0  0
    2.0320   -1.1740    0.2680 N   0  0  0  0  0  0  0  0  0  0  0  0
    1.9450   -2.3810    0.8350 C   0  0  0  0  0  0  0  0  0  0  0  0
    3.1620   -2.9890    0.9020 C   0  0  0  0  0  0  0  0  0  0  0  0
    4.0140   -2.1000    0.3450 N   0  0  0  0  0  0  0  0  0  0  0  0
    3.3560   -0.9790   -0.0520 C   0  0  0  0  0  0  0  0  0  0  0  0
    3.8360    0.1590   -0.7770 C   0  0  0  0  0  0  0  0  0  0  0  0
    4.9580    0.7090   -0.9000 C   0  0  0  0  0  0  0  0  0  0  0  0
    6.2810    0.4910   -0.3800 C   0  0  0  0  0  0  0  0  0  0  0  0
    6.7470   -0.2490    0.6920 C   0  0  0  0  0  0  0  0  0  0  0  0
    8.0770   -0.1610    0.6910 N   0  0  0  0  0  0  0  0  0  0  0  0
    8.4980    0.5820   -0.3010 N   0  0  0  0  0  0  0  0  0  0  0  0
    7.4390    1.0090   -0.9910 C   0  0  0  0  0  0  0  0  0  0  0  0
    1.2180    1.1370    0.6130 C   0  0  0  0  0  0  0  0  0  0  0  0
   -0.0990    1.6290    1.2360 C   0  0  0  0  0  0  0  0  0  0  0  0
   -3.3470    0.9090   -0.3570 N   0  0  0  0  0  0  0  0  0  0  0  0
   -4.5840    0.4450   -0.1040 C   0  0  0  0  0  0  0  0  0  0  0  0
   -5.5610    0.3320   -1.1930 C   0  0  0  0  0  0  0  0  0  0  0  0
   -5.6880   -1.0700   -1.7490 C   0  0  2  0  0  0  0  0  0  0  0  0
   -6.6210   -1.1130   -2.7600 F   0  0  0  0  0  0  0  0  0  0  0  0
   -6.0110   -1.9630   -0.7680 F   0  0  0  0  0  0  0  0  0  0  0  0
  1  2  2  0
  2  3  1  0
  3  4  2  0
  3 28  1  0
  4  5  1  0
  4  6  1  0
  6  7  2  0
  7  8  1  0
  7 27  1  0
  8  9  1  0
  8 26  1  0
  9 10  1  0
 10 11  1  0
 11 12  1  0
 12 13  1  6
 12 25  1  0
 13 14  1  0
 13 17  1  0
 14 15  2  0
 15 16  1  0
 16 17  2  0
 17 18  1  0
 18 19  2  3
 19 20  1  0
 20 21  1  0
 20 24  2  0
 21 22  2  0
 22 23  1  0
 23 24  1  0
 25 26  1  0
 27 28  2  0
 28 29  1  0
 29 30  1  0
 30 31  1  6
 30 32  1  0
M  CHG  1  16   1
M  END
