
     RDKit          3D

 31 34  0  0  0  0  0  0  0  0999 V2000
   -6.0120    3.2630    0.8180 C   0  0  0  0  0  0  0  0  0  0  0  0
   -6.0970    2.1730    1.8160 C   0  0  0  0  0  0  0  0  0  0  0  0
   -7.1350    2.1300    2.6930 C   0  0  0  0  0  0  0  0  0  0  0  0
   -7.1940    1.0880    3.6010 C   0  0  0  0  0  0  0  0  0  0  0  0
   -6.2890    0.1300    3.6570 N   0  0  0  0  0  0  0  0  0  0  0  0
   -5.2340    0.1540    2.7820 C   0  0  0  0  0  0  0  0  0  0  0  0
   -5.1320    1.1610    1.8690 C   0  0  0  0  0  0  0  0  0  0  0  0
   -4.0590    1.2670    0.9760 N   0  0  0  0  0  0  0  0  0  0  0  0
   -3.0570    0.2900    0.7700 C   0  0  0  0  0  0  0  0  0  0  0  0
   -3.0420   -0.7930    1.3650 O   0  0  0  0  0  0  0  0  0  0  0  0
   -1.9690    0.5420   -0.1850 C   0  0  0  0  0  0  0  0  0  0  0  0
   -1.7730    1.6990   -0.8310 N   0  0  0  0  0  0  0  0  0  0  0  0
   -0.6840    1.5790   -1.6220 C   0  0  0  0  0  0  0  0  0  0  0  0
   -0.2060    0.3570   -1.4710 N   0  0  0  0  0  0  0  0  0  0  0  0
    0.9520   -0.2750   -2.1110 C   0  0  0  0  0  0  0  0  0  0  0  0
    1.6630    0.4670   -2.9760 C   0  0  0  0  0  0  0  0  0  0  0  0
    2.8100    0.1910   -3.7630 C   0  0  0  0  0  0  0  0  0  0  0  0
    4.1080    0.1240   -3.5650 C   0  0  0  0  0  0  0  0  0  0  0  0
    5.1190   -0.2970   -5.0400 Cl  0  0  0  0  0  0  0  0  0  0  0  0
    4.7570    0.3370   -2.4010 O   0  0  0  0  0  0  0  0  0  0  0  0
    5.1170   -0.2010   -1.2290 C   0  0  0  0  0  0  0  0  0  0  0  0
    4.4940    0.3280    0.0170 C   0  0  0  0  0  0  0  0  0  0  0  0
    4.4360   -0.3670    1.1380 C   0  0  0  0  0  0  0  0  0  0  0  0
    4.9880   -1.7460    1.2620 C   0  0  0  0  0  0  0  0  0  0  0  0
    4.1020   -2.7260    0.5260 C   0  0  1  0  0  0  0  0  0  0  0  0
    2.8260   -3.1780    1.1260 C   0  0  0  0  0  0  0  0  0  0  0  0
    2.7660   -2.0410    0.1930 C   0  0  2  0  0  0  0  0  0  0  0  0
    2.4010   -2.2380   -1.2120 N   0  0  0  0  0  0  0  0  0  0  0  0
    1.2450   -1.6640   -1.7920 C   0  0  0  0  0  0  0  0  0  0  0  0
    0.3080   -2.5150   -2.0790 O   0  0  0  0  0  0  0  0  0  0  0  0
   -0.9830   -0.2590   -0.6060 N   0  0  0  0  0  0  0  0  0  0  0  0
  1  2  1  0
  2  3  2  0
  2  7  1  0
  3  4  1  0
  4  5  2  0
  5  6  1  0
  6  7  2  0
  7  8  1  0
  8  9  1  0
  9 10  2  0
  9 11  1  0
 11 12  1  0
 11 31  2  0
 12 13  2  0
 13 14  1  0
 14 15  1  0
 14 31  1  0
 15 16  2  0
 15 29  1  0
 16 17  1  0
 17 18  2  0
 18 19  1  0
 18 20  1  0
 20 21  1  0
 21 22  1  0
 22 23  2  0
 23 24  1  0
 25 24  1  1
 25 26  1  0
 25 27  1  0
 27 26  1  1
 27 28  1  0
 28 29  1  0
 29 30  2  0
M  END
