
     RDKit          3D

 32 36  0  0  0  0  0  0  0  0999 V2000
   -1.2860    1.6310   -2.3240 C   0  0  0  0  0  0  0  0  0  0  0  0
   -0.9430    1.1320   -0.9240 C   0  0  2  0  0  0  0  0  0  0  0  0
   -1.8500    0.0430   -0.4750 C   0  0  0  0  0  0  0  0  0  0  0  0
   -2.9770    0.4400    0.3080 N   0  0  0  0  0  0  0  0  0  0  0  0
   -4.1920   -0.2910    0.2200 C   0  0  0  0  0  0  0  0  0  0  0  0
   -5.2090   -0.1440   -0.6370 N   0  0  0  0  0  0  0  0  0  0  0  0
   -6.1690   -1.0360   -0.3730 C   0  0  0  0  0  0  0  0  0  0  0  0
   -7.3860   -1.2890   -0.9530 C   0  0  0  0  0  0  0  0  0  0  0  0
   -8.1960   -2.3070   -0.4520 C   0  0  0  0  0  0  0  0  0  0  0  0
   -7.7550   -3.0480    0.6260 C   0  0  0  0  0  0  0  0  0  0  0  0
   -6.5400   -2.8100    1.2190 C   0  0  0  0  0  0  0  0  0  0  0  0
   -5.7530   -1.8020    0.7130 C   0  0  0  0  0  0  0  0  0  0  0  0
   -4.5370   -1.3040    1.0370 N   0  0  0  0  0  0  0  0  0  0  0  0
   -2.8650    1.5780    1.1860 C   0  0  0  0  0  0  0  0  0  0  0  0
   -2.1670    2.6670    0.4500 C   0  0  0  0  0  0  0  0  0  0  0  0
   -0.8610    2.2760   -0.0450 N   0  0  0  0  0  0  0  0  0  0  0  0
    0.0520    1.9650    1.0300 C   0  0  0  0  0  0  0  0  0  0  0  0
    1.3840    1.6750    0.4310 C   0  0  0  0  0  0  0  0  0  0  0  0
    1.8810    2.1230   -0.7310 N   0  0  0  0  0  0  0  0  0  0  0  0
    3.0610    1.6460   -0.8850 O   0  0  0  0  0  0  0  0  0  0  0  0
    3.4120    0.8840    0.1180 C   0  0  0  0  0  0  0  0  0  0  0  0
    4.7030    0.2100    0.2070 C   0  0  0  0  0  0  0  0  0  0  0  0
    5.6520    0.3150   -0.7870 C   0  0  0  0  0  0  0  0  0  0  0  0
    6.8800   -0.3160   -0.7090 C   0  0  0  0  0  0  0  0  0  0  0  0
    7.2160   -1.0880    0.3790 C   0  0  0  0  0  0  0  0  0  0  0  0
    8.4830   -1.7560    0.4740 N   0  0  0  0  0  0  0  0  0  0  0  0
    9.4290   -1.6610   -0.6090 C   0  0  2  0  0  0  0  0  0  0  0  0
   10.5470   -2.4060   -0.2760 F   0  0  0  0  0  0  0  0  0  0  0  0
    9.7920   -0.3490   -0.8830 F   0  0  0  0  0  0  0  0  0  0  0  0
    6.2690   -1.1970    1.3780 C   0  0  0  0  0  0  0  0  0  0  0  0
    5.0450   -0.5660    1.2970 C   0  0  0  0  0  0  0  0  0  0  0  0
    2.3650    0.8940    0.9540 N   0  0  0  0  0  0  0  0  0  0  0  0
  2  1  1  6
  2  3  1  0
  2 16  1  0
  3  4  1  0
  4  5  1  0
  4 14  1  0
  5  6  1  0
  5 13  2  0
  6  7  1  0
  7  8  2  0
  7 12  1  0
  8  9  1  0
  9 10  2  0
 10 11  1  0
 11 12  2  0
 12 13  1  0
 14 15  1  0
 15 16  1  0
 16 17  1  0
 17 18  1  0
 18 19  2  0
 18 32  1  0
 19 20  1  0
 20 21  1  0
 21 22  1  0
 21 32  2  0
 22 23  2  0
 22 31  1  0
 23 24  1  0
 24 25  2  0
 25 26  1  0
 25 30  1  0
 26 27  1  0
 27 28  1  1
 27 29  1  0
 30 31  2  0
M  CHG  1  13   1
M  END
