
     RDKit          3D

 32 36  0  0  0  0  0  0  0  0999 V2000
    4.2860   -0.5760   -1.1420 O   0  0  0  0  0  0  0  0  0  0  0  0
    4.3930    0.0020   -0.0110 C   0  0  0  0  0  0  0  0  0  0  0  0
    3.2660    0.7610    0.3930 N   0  0  0  0  0  0  0  0  0  0  0  0
    2.0980    0.8650   -0.4160 C   0  0  0  0  0  0  0  0  0  0  0  0
    1.4300   -0.4550   -0.7050 C   0  0  0  0  0  0  0  0  0  0  0  0
    1.0090   -1.1260    0.5100 N   0  0  0  0  0  0  0  0  0  0  0  0
    1.7590   -1.9650    1.1840 N   0  0  0  0  0  0  0  0  0  0  0  0
    1.1050   -2.4230    2.2580 C   0  0  0  0  0  0  0  0  0  0  0  0
   -0.1400   -1.8320    2.2590 C   0  0  0  0  0  0  0  0  0  0  0  0
   -0.1610   -1.0330    1.1580 C   0  0  0  0  0  0  0  0  0  0  0  0
   -1.2580   -0.2020    0.7250 N   0  0  0  0  0  0  0  0  0  0  0  0
   -2.3810   -0.7000    0.3790 C   0  0  0  0  0  0  0  0  0  0  0  0
   -2.6110   -2.0590    0.3990 C   0  0  0  0  0  0  0  0  0  0  0  0
   -3.8370   -2.6170    0.0230 C   0  0  0  0  0  0  0  0  0  0  0  0
   -4.8450   -1.7690   -0.3800 C   0  0  0  0  0  0  0  0  0  0  0  0
   -6.1020   -2.2140   -0.7750 C   0  0  0  0  0  0  0  0  0  0  0  0
   -6.9940   -1.2310   -1.1490 C   0  0  0  0  0  0  0  0  0  0  0  0
   -6.6840    0.1170   -1.1410 C   0  0  0  0  0  0  0  0  0  0  0  0
   -5.4490    0.5320   -0.7510 N   0  0  0  0  0  0  0  0  0  0  0  0
   -4.8130    1.6980   -0.6190 C   0  0  0  0  0  0  0  0  0  0  0  0
   -5.4310    3.0130   -0.9240 C   0  0  0  0  0  0  0  0  0  0  0  0
   -6.1120    3.5910    0.3010 C   0  0  1  0  0  0  0  0  0  0  0  0
   -5.1360    3.7430    1.2810 F   0  0  0  0  0  0  0  0  0  0  0  0
   -6.6020    4.8440    0.0030 F   0  0  0  0  0  0  0  0  0  0  0  0
   -3.5410    1.4850   -0.1720 N   0  0  0  0  0  0  0  0  0  0  0  0
   -3.3920    0.1510   -0.0250 C   0  0  0  0  0  0  0  0  0  0  0  0
   -4.5930   -0.4120   -0.3930 C   0  0  0  0  0  0  0  0  0  0  0  0
    5.6210   -0.1420    0.7760 C   0  0  2  0  0  0  0  0  0  0  0  0
    6.3700    1.1520    0.9530 C   0  0  0  0  0  0  0  0  0  0  0  0
    7.6750    1.0220    0.2190 C   0  0  0  0  0  0  0  0  0  0  0  0
    7.3690   -0.1120   -0.7510 C   0  0  0  0  0  0  0  0  0  0  0  0
    6.5550   -0.9830    0.0590 N   0  0  0  0  0  0  0  0  0  0  0  0
  1  2  2  0
  2  3  1  0
 28  2  1  6
  3  4  1  0
  4  5  1  0
  5  6  1  0
  6  7  1  0
  6 10  1  0
  7  8  2  0
  8  9  1  0
  9 10  2  0
 10 11  1  0
 11 12  2  3
 12 13  1  0
 12 26  1  0
 13 14  2  0
 14 15  1  0
 15 16  2  0
 15 27  1  0
 16 17  1  0
 17 18  2  0
 18 19  1  0
 19 20  1  0
 19 27  1  0
 20 21  1  0
 20 25  2  0
 21 22  1  0
 22 23  1  1
 22 24  1  0
 25 26  1  0
 26 27  2  0
 28 29  1  0
 28 32  1  0
 29 30  1  0
 30 31  1  0
 31 32  1  0
M  CHG  1  32   1
M  END
