
     RDKit          3D

 32 36  0  0  0  0  0  0  0  0999 V2000
   -7.4870    0.6920   -0.6850 C   0  0  0  0  0  0  0  0  0  0  0  0
   -6.0750    0.9250   -0.6320 N   0  0  0  0  0  0  0  0  0  0  0  0
   -5.2950    0.1720    0.0890 C   0  0  0  0  0  0  0  0  0  0  0  0
   -5.8960   -0.9290    0.8520 C   0  0  0  0  0  0  0  0  0  0  0  0
   -4.9110   -1.6890    1.6210 C   0  0  0  0  0  0  0  0  0  0  0  0
   -3.6290   -1.4010    1.6140 C   0  0  0  0  0  0  0  0  0  0  0  0
   -3.0640   -0.3090    0.8490 C   0  0  0  0  0  0  0  0  0  0  0  0
   -1.8370    0.1880    0.6660 N   0  0  0  0  0  0  0  0  0  0  0  0
   -1.9290    1.2470   -0.1850 C   0  0  0  0  0  0  0  0  0  0  0  0
   -0.8780    2.0770   -0.6610 N   0  0  0  0  0  0  0  0  0  0  0  0
    0.4830    1.8400   -0.2410 C   0  0  0  0  0  0  0  0  0  0  0  0
    0.8850    0.4780   -0.7020 C   0  0  0  0  0  0  0  0  0  0  0  0
    0.1490   -0.2540   -1.5920 C   0  0  0  0  0  0  0  0  0  0  0  0
    0.6020   -1.5220   -1.9620 C   0  0  0  0  0  0  0  0  0  0  0  0
   -0.2220   -2.2960   -2.9360 C   0  0  0  0  0  0  0  0  0  0  0  0
   -1.1480   -3.0650   -2.2550 F   0  0  0  0  0  0  0  0  0  0  0  0
    1.7180   -2.0190   -1.4690 N   0  0  0  0  0  0  0  0  0  0  0  0
    2.4660   -1.3020   -0.5780 C   0  0  0  0  0  0  0  0  0  0  0  0
    3.6650   -1.8660   -0.0830 N   0  0  0  0  0  0  0  0  0  0  0  0
    4.5700   -1.3310    0.8710 C   0  0  2  0  0  0  0  0  0  0  0  0
    4.0350   -1.2000    2.2740 C   0  0  0  0  0  0  0  0  0  0  0  0
    4.8930   -0.2110    2.8290 O   0  0  0  0  0  0  0  0  0  0  0  0
    5.2120    0.6780    1.7810 C   0  0  0  0  0  0  0  0  0  0  0  0
    5.6480    1.9930    1.8300 C   0  0  0  0  0  0  0  0  0  0  0  0
    5.9090    2.7040    0.6820 C   0  0  0  0  0  0  0  0  0  0  0  0
    5.7160    2.0470   -0.5130 C   0  0  0  0  0  0  0  0  0  0  0  0
    5.9610    2.7090   -1.6730 F   0  0  0  0  0  0  0  0  0  0  0  0
    5.2850    0.7450   -0.5920 C   0  0  0  0  0  0  0  0  0  0  0  0
    5.0310    0.0580    0.5730 C   0  0  0  0  0  0  0  0  0  0  0  0
    2.0520   -0.0550   -0.1940 C   0  0  0  0  0  0  0  0  0  0  0  0
   -3.2150    1.3850   -0.5130 N   0  0  0  0  0  0  0  0  0  0  0  0
   -3.9030    0.4330    0.1200 N   0  0  0  0  0  0  0  0  0  0  0  0
  1  2  1  0
  2  3  2  3
  3  4  1  0
  3 32  1  0
  4  5  1  0
  5  6  2  0
  6  7  1  0
  7  8  2  0
  7 32  1  0
  8  9  1  0
  9 10  1  0
  9 31  2  0
 10 11  1  0
 11 12  1  0
 12 13  2  0
 12 30  1  0
 13 14  1  0
 14 15  1  0
 14 17  2  0
 15 16  1  0
 17 18  1  0
 18 19  1  0
 18 30  2  0
 20 19  1  6
 20 21  1  0
 20 29  1  0
 21 22  1  0
 22 23  1  0
 23 24  2  0
 23 29  1  0
 24 25  1  0
 25 26  2  0
 26 27  1  0
 26 28  1  0
 28 29  2  0
 31 32  1  0
M  CHG  1   2   1
M  END
