
     RDKit          3D

 25 28  0  0  0  0  0  0  0  0999 V2000
   -6.6280   -1.4940   -0.8210 C   0  0  0  0  0  0  0  0  0  0  0  0
   -5.1930   -1.3530   -1.0090 N   0  0  0  0  0  0  0  0  0  0  0  0
   -4.3180   -0.6150   -0.2810 C   0  0  0  0  0  0  0  0  0  0  0  0
   -3.0560   -0.7700   -0.8070 C   0  0  0  0  0  0  0  0  0  0  0  0
   -1.8540   -0.1640   -0.3340 N   0  0  0  0  0  0  0  0  0  0  0  0
   -1.7370    1.0120    0.2840 C   0  0  0  0  0  0  0  0  0  0  0  0
   -0.3940    1.2500    0.5870 C   0  0  0  0  0  0  0  0  0  0  0  0
    0.0920    2.4270    1.2670 C   0  0  0  0  0  0  0  0  0  0  0  0
    1.3520    2.8840    1.5500 C   0  0  0  0  0  0  0  0  0  0  0  0
    1.2920    4.1020    2.2160 C   0  0  0  0  0  0  0  0  0  0  0  0
   -0.0320    4.3860    2.3360 C   0  0  0  0  0  0  0  0  0  0  0  0
   -0.7330    3.4000    1.7780 N   0  0  0  0  0  0  0  0  0  0  0  0
    0.2730    0.1760    0.1280 C   0  0  0  0  0  0  0  0  0  0  0  0
    1.6750   -0.1710    0.1670 C   0  0  0  0  0  0  0  0  0  0  0  0
    2.0650   -1.3110   -0.4060 C   0  0  0  0  0  0  0  0  0  0  0  0
    3.4860   -1.6760   -0.3720 C   0  0  0  0  0  0  0  0  0  0  0  0
    4.0670   -2.7370   -0.8690 C   0  0  0  0  0  0  0  0  0  0  0  0
    5.4730   -2.8490   -0.6970 C   0  0  0  0  0  0  0  0  0  0  0  0
    6.0600   -1.8740   -0.0540 C   0  0  0  0  0  0  0  0  0  0  0  0
    4.7910   -0.7590    0.3590 S   0  0  1  0  0  0  0  0  0  0  0  0
    4.9620    0.5730   -0.2930 O   0  0  0  0  0  0  0  0  0  0  0  0
    4.6520   -0.6630    1.8410 O   0  0  0  0  0  0  0  0  0  0  0  0
   -0.6490   -0.6530   -0.4220 N   0  0  0  0  0  0  0  0  0  0  0  0
   -3.1930   -1.6240   -1.8750 C   0  0  0  0  0  0  0  0  0  0  0  0
   -4.4990   -1.9590   -1.9720 N   0  0  0  0  0  0  0  0  0  0  0  0
  1  2  1  0
  2  3  1  0
  2 25  1  0
  3  4  2  0
  4  5  1  0
  4 24  1  0
  5  6  1  0
  5 23  1  0
  6  7  2  0
  7  8  1  0
  7 13  1  0
  8  9  2  0
  8 12  1  0
  9 10  1  0
 10 11  2  0
 11 12  1  0
 13 14  1  0
 13 23  2  0
 14 15  2  3
 15 16  1  0
 16 17  2  0
 16 20  1  0
 17 18  1  0
 18 19  2  0
 20 19  1  1
 20 21  2  0
 20 22  2  0
 24 25  2  0
M  END
