
     RDKit          3D

 26 29  0  0  0  0  0  0  0  0999 V2000
    6.5370    2.0330   -0.5050 C   0  0  0  0  0  0  0  0  0  0  0  0
    5.9500    1.2130    0.9570 S   0  0  2  0  0  0  0  0  0  0  0  0
    6.0280    2.1050    2.1440 O   0  0  0  0  0  0  0  0  0  0  0  0
    6.8220    0.0140    1.1940 O   0  0  0  0  0  0  0  0  0  0  0  0
    4.3130    0.6770    0.6280 C   0  0  0  0  0  0  0  0  0  0  0  0
    4.0530   -0.5620    0.0880 C   0  0  0  0  0  0  0  0  0  0  0  0
    2.7650   -1.0090   -0.1820 C   0  0  0  0  0  0  0  0  0  0  0  0
    1.7050   -0.1870    0.0990 C   0  0  0  0  0  0  0  0  0  0  0  0
    0.3370   -0.6090   -0.1650 C   0  0  0  0  0  0  0  0  0  0  0  0
   -0.6210   -0.3850    0.8010 C   0  0  0  0  0  0  0  0  0  0  0  0
   -1.8920   -0.7650    0.5820 N   0  0  0  0  0  0  0  0  0  0  0  0
   -2.2830   -1.3690   -0.5650 C   0  0  0  0  0  0  0  0  0  0  0  0
   -3.6320   -1.7660   -0.7830 N   0  0  0  0  0  0  0  0  0  0  0  0
   -4.6840   -1.5750    0.1540 C   0  0  0  0  0  0  0  0  0  0  0  0
   -4.9150   -0.1460    0.5000 C   0  0  0  0  0  0  0  0  0  0  0  0
   -5.9060    0.2270    1.4030 C   0  0  0  0  0  0  0  0  0  0  0  0
   -5.8730    1.5980    1.5120 C   0  0  0  0  0  0  0  0  0  0  0  0
   -4.8630    2.0100    0.6720 C   0  0  0  0  0  0  0  0  0  0  0  0
   -4.3340    0.9340    0.1020 O   0  0  0  0  0  0  0  0  0  0  0  0
   -1.3290   -1.5760   -1.4900 N   0  0  0  0  0  0  0  0  0  0  0  0
   -1.4440   -2.1570   -2.7220 C   0  0  0  0  0  0  0  0  0  0  0  0
   -0.2250   -2.1410   -3.2830 N   0  0  0  0  0  0  0  0  0  0  0  0
    0.6430   -1.5700   -2.4440 N   0  0  0  0  0  0  0  0  0  0  0  0
   -0.0410   -1.2230   -1.3390 C   0  0  0  0  0  0  0  0  0  0  0  0
    1.9440    1.0490    0.6370 C   0  0  0  0  0  0  0  0  0  0  0  0
    3.2240    1.4880    0.9030 C   0  0  0  0  0  0  0  0  0  0  0  0
  2  1  1  6
  2  3  2  0
  2  4  2  0
  2  5  1  0
  5  6  2  0
  5 26  1  0
  6  7  1  0
  7  8  2  0
  8  9  1  0
  8 25  1  0
  9 10  2  0
  9 24  1  0
 10 11  1  0
 11 12  2  0
 12 13  1  0
 12 20  1  0
 13 14  1  0
 14 15  1  0
 15 16  2  0
 15 19  1  0
 16 17  1  0
 17 18  2  0
 18 19  1  0
 20 21  1  0
 20 24  1  0
 21 22  2  0
 22 23  1  0
 23 24  2  0
 25 26  2  0
M  END
