
     RDKit          3D

 26 29  0  0  0  0  0  0  0  0999 V2000
    2.1340   -0.0170    1.8110 O   0  0  0  0  0  0  0  0  0  0  0  0
    2.3300    0.0270    0.5700 C   0  0  0  0  0  0  0  0  0  0  0  0
    3.6740    0.1970   -0.0300 C   0  0  0  0  0  0  0  0  0  0  0  0
    4.7250    0.3040    1.0210 C   0  0  0  0  0  0  0  0  0  0  0  0
    5.5320    1.3350    1.1980 C   0  0  0  0  0  0  0  0  0  0  0  0
    6.4380    1.0900    2.3280 C   0  0  0  0  0  0  0  0  0  0  0  0
    6.0450   -0.2510    2.7990 C   0  0  0  0  0  0  0  0  0  0  0  0
    5.0630   -0.6760    2.0330 C   0  0  0  0  0  0  0  0  0  0  0  0
    1.1710   -0.0980   -0.2790 N   0  0  0  0  0  0  0  0  0  0  0  0
   -0.1080   -0.2590    0.3140 C   0  0  0  0  0  0  0  0  0  0  0  0
   -0.3610   -0.3040    1.6330 N   0  0  0  0  0  0  0  0  0  0  0  0
   -1.6340   -0.4590    1.8300 N   0  0  0  0  0  0  0  0  0  0  0  0
   -2.2900   -0.5250    0.6190 C   0  0  0  0  0  0  0  0  0  0  0  0
   -3.7240   -0.7470    0.4970 C   0  0  0  0  0  0  0  0  0  0  0  0
   -4.5930   -0.7470    1.5920 C   0  0  0  0  0  0  0  0  0  0  0  0
   -5.8590   -0.9950    1.1040 C   0  0  0  0  0  0  0  0  0  0  0  0
   -5.7390   -1.1350   -0.2160 N   0  0  0  0  0  0  0  0  0  0  0  0
   -4.4920   -0.9830   -0.5080 O   0  0  0  0  0  0  0  0  0  0  0  0
   -1.3310   -0.3960   -0.3040 N   0  0  0  0  0  0  0  0  0  0  0  0
   -1.4620   -0.2780   -1.6910 C   0  0  0  0  0  0  0  0  0  0  0  0
   -0.4140   -0.3670   -2.4290 O   0  0  0  0  0  0  0  0  0  0  0  0
   -2.6660   -0.0520   -2.4150 C   0  0  0  0  0  0  0  0  0  0  0  0
   -3.5320    0.9800   -2.4670 C   0  0  0  0  0  0  0  0  0  0  0  0
   -4.6010    0.9380   -3.2680 C   0  0  0  0  0  0  0  0  0  0  0  0
   -4.8090   -0.1720   -4.0390 C   0  0  0  0  0  0  0  0  0  0  0  0
   -3.3830   -1.2420   -3.6010 S   0  0  0  0  0  0  0  0  0  0  0  0
  1  2  2  0
  2  3  1  0
  2  9  1  0
  3  4  1  0
  4  5  2  0
  4  8  1  0
  5  6  1  0
  6  7  1  0
  7  8  2  0
  9 10  1  0
 10 11  2  0
 10 19  1  0
 11 12  1  0
 12 13  2  0
 13 14  1  0
 13 19  1  0
 14 15  2  0
 14 18  1  0
 15 16  1  0
 16 17  2  0
 17 18  1  0
 19 20  1  0
 20 21  2  0
 20 22  1  0
 22 23  2  0
 22 26  1  0
 23 24  1  0
 24 25  2  0
 25 26  1  0
M  END
