
     RDKit          3D

 26 29  0  0  0  0  0  0  0  0999 V2000
   -3.6580   -4.3170    0.1410 C   0  0  0  0  0  0  0  0  0  0  0  0
   -3.6000   -2.8240   -0.1840 C   0  0  0  0  0  0  0  0  0  0  0  0
   -4.6370   -2.2930   -0.9140 C   0  0  0  0  0  0  0  0  0  0  0  0
   -4.1250   -0.5490   -1.0390 S   0  0  0  0  0  0  0  0  0  0  0  0
   -2.5950   -0.7720   -0.0980 C   0  0  0  0  0  0  0  0  0  0  0  0
   -1.6770    0.2760    0.1780 N   0  0  0  0  0  0  0  0  0  0  0  0
   -0.3100    0.0540   -0.0380 C   0  0  0  0  0  0  0  0  0  0  0  0
    0.0770   -1.0440   -0.5150 O   0  0  0  0  0  0  0  0  0  0  0  0
    0.7020    1.1220    0.3000 C   0  0  0  0  0  0  0  0  0  0  0  0
    1.9230    0.7310    0.0880 O   0  0  0  0  0  0  0  0  0  0  0  0
    3.1250    0.3420   -0.1430 C   0  0  0  0  0  0  0  0  0  0  0  0
    4.1040    0.2800    0.8550 C   0  0  0  0  0  0  0  0  0  0  0  0
    5.3620   -0.1450    0.5410 C   0  0  0  0  0  0  0  0  0  0  0  0
    5.6770   -0.5120   -0.7450 C   0  0  0  0  0  0  0  0  0  0  0  0
    6.8470   -0.9740   -1.3480 C   0  0  0  0  0  0  0  0  0  0  0  0
    6.5710   -1.1770   -2.6480 N   0  0  0  0  0  0  0  0  0  0  0  0
    5.3080   -0.8700   -2.8870 N   0  0  0  0  0  0  0  0  0  0  0  0
    4.7240   -0.4550   -1.7320 C   0  0  0  0  0  0  0  0  0  0  0  0
    3.5130   -0.0370   -1.3910 N   0  0  0  0  0  0  0  0  0  0  0  0
   -2.2660    1.4950    0.6420 C   0  0  0  0  0  0  0  0  0  0  0  0
   -2.2330    2.6110   -0.0270 C   0  0  0  0  0  0  0  0  0  0  0  0
   -2.8460    3.8420    0.4820 C   0  0  0  0  0  0  0  0  0  0  0  0
   -3.4740    3.7090    1.7180 O   0  0  0  0  0  0  0  0  0  0  0  0
   -3.4990    2.5120    2.4220 C   0  0  0  0  0  0  0  0  0  0  0  0
   -2.9300    1.4250    1.9380 C   0  0  0  0  0  0  0  0  0  0  0  0
   -2.6770   -2.0310    0.1580 N   0  0  0  0  0  0  0  0  0  0  0  0
  1  2  1  0
  2  3  2  0
  2 26  1  0
  3  4  1  0
  4  5  1  0
  5  6  1  0
  5 26  2  0
  6  7  1  0
  6 20  1  0
  7  8  2  0
  7  9  1  0
  9 10  1  0
 10 11  1  0
 11 12  2  0
 11 19  1  0
 12 13  1  0
 13 14  2  0
 14 15  1  0
 14 18  1  0
 15 16  2  0
 16 17  1  0
 17 18  1  0
 18 19  2  0
 20 21  2  0
 20 25  1  0
 21 22  1  0
 22 23  1  0
 23 24  1  0
 24 25  2  0
M  END
