
     RDKit          3D

 26 29  0  0  0  0  0  0  0  0999 V2000
    7.4700   -0.8180   -0.9990 C   0  0  0  0  0  0  0  0  0  0  0  0
    6.1780   -0.9840   -0.8660 C   0  0  0  0  0  0  0  0  0  0  0  0
    5.2820   -0.7840   -2.0280 C   0  0  0  0  0  0  0  0  0  0  0  0
    3.8750   -1.0070   -1.6670 C   0  0  0  0  0  0  0  0  0  0  0  0
    3.5340   -1.3360   -0.4790 N   0  0  0  0  0  0  0  0  0  0  0  0
    4.3920   -1.5280    0.6170 C   0  0  0  0  0  0  0  0  0  0  0  0
    3.8810   -1.9910    2.2570 S   0  0  0  0  0  0  0  0  0  0  0  0
    2.0900   -2.1960    2.3650 C   0  0  0  0  0  0  0  0  0  0  0  0
    1.3940   -0.9110    2.1680 C   0  0  0  0  0  0  0  0  0  0  0  0
    0.9060   -0.3590    1.0520 N   0  0  0  0  0  0  0  0  0  0  0  0
    0.3550    0.8210    1.3510 C   0  0  0  0  0  0  0  0  0  0  0  0
   -0.3130    1.7800    0.4530 C   0  0  0  0  0  0  0  0  0  0  0  0
   -1.7890    1.5430    0.4160 C   0  0  0  0  0  0  0  0  0  0  0  0
   -2.4480    0.9320   -0.6230 C   0  0  0  0  0  0  0  0  0  0  0  0
   -3.8350    0.7520   -0.5730 C   0  0  0  0  0  0  0  0  0  0  0  0
   -4.6970    0.2100   -1.4120 O   0  0  0  0  0  0  0  0  0  0  0  0
   -5.9180    0.2600   -0.9450 C   0  0  0  0  0  0  0  0  0  0  0  0
   -7.1190   -0.2470   -1.6130 C   0  0  0  0  0  0  0  0  0  0  0  0
   -5.9030    0.8790    0.3040 C   0  0  0  0  0  0  0  0  0  0  0  0
   -4.5710    1.1770    0.5080 C   0  0  0  0  0  0  0  0  0  0  0  0
   -3.9030    1.7730    1.5130 N   0  0  0  0  0  0  0  0  0  0  0  0
   -2.5680    1.9620    1.4970 C   0  0  0  0  0  0  0  0  0  0  0  0
   -1.9710    2.5180    2.4430 O   0  0  0  0  0  0  0  0  0  0  0  0
    0.5160    0.9780    2.6690 N   0  0  0  0  0  0  0  0  0  0  0  0
    1.1330   -0.0570    3.1400 O   0  0  0  0  0  0  0  0  0  0  0  0
    5.6570   -1.3520    0.3990 N   0  0  0  0  0  0  0  0  0  0  0  0
  1  2  2  0
  2  3  1  0
  2 26  1  0
  3  4  1  0
  4  5  2  0
  5  6  1  0
  6  7  1  0
  6 26  2  0
  7  8  1  0
  8  9  1  0
  9 10  2  0
  9 25  1  0
 10 11  1  0
 11 12  1  0
 11 24  2  0
 12 13  1  0
 13 14  2  0
 13 22  1  0
 14 15  1  0
 15 16  1  0
 15 20  2  0
 16 17  1  0
 17 18  1  0
 17 19  2  0
 19 20  1  0
 20 21  1  0
 21 22  1  0
 22 23  2  0
 24 25  1  0
M  END
