
     RDKit          3D

 26 29  0  0  0  0  0  0  0  0999 V2000
    7.7800    0.5460    0.4860 C   0  0  0  0  0  0  0  0  0  0  0  0
    6.7860   -0.5900    0.5980 C   0  0  0  0  0  0  0  0  0  0  0  0
    6.5560   -1.6720    0.7930 N   0  0  0  0  0  0  0  0  0  0  0  0
    5.4130   -2.3360    0.7890 C   0  0  0  0  0  0  0  0  0  0  0  0
    4.2960   -1.6210    0.5020 C   0  0  0  0  0  0  0  0  0  0  0  0
    2.8610   -1.9180    0.3860 C   0  0  0  0  0  0  0  0  0  0  0  0
    2.1250   -0.7490    0.0470 O   0  0  0  0  0  0  0  0  0  0  0  0
    0.7750   -0.7270   -0.1270 C   0  0  0  0  0  0  0  0  0  0  0  0
    0.1140   -1.7820    0.0110 O   0  0  0  0  0  0  0  0  0  0  0  0
    0.0660    0.4890   -0.4730 C   0  0  0  0  0  0  0  0  0  0  0  0
    0.7660    1.6250   -0.6220 C   0  0  0  0  0  0  0  0  0  0  0  0
    0.3350    2.9520   -0.9560 N   0  0  0  0  0  0  0  0  0  0  0  0
   -0.8520    3.4550   -0.9420 C   0  0  0  0  0  0  0  0  0  0  0  0
   -2.1250    2.8130   -0.5780 C   0  0  0  0  0  0  0  0  0  0  0  0
   -3.3270    3.3960   -0.3310 C   0  0  0  0  0  0  0  0  0  0  0  0
   -4.1780    2.4230   -0.0180 N   0  0  0  0  0  0  0  0  0  0  0  0
   -3.5640    1.2160   -0.0520 N   0  0  0  0  0  0  0  0  0  0  0  0
   -4.2490   -0.0070    0.2070 C   0  0  0  0  0  0  0  0  0  0  0  0
   -3.6930   -1.1370    0.5240 C   0  0  0  0  0  0  0  0  0  0  0  0
   -4.4680   -2.3820    0.7770 C   0  0  0  0  0  0  0  0  0  0  0  0
   -5.7700   -2.3440    0.6770 C   0  0  0  0  0  0  0  0  0  0  0  0
   -6.3730   -1.1590    0.3450 O   0  0  0  0  0  0  0  0  0  0  0  0
   -5.7460    0.0350    0.0690 C   0  0  0  0  0  0  0  0  0  0  0  0
   -2.3160    1.4470   -0.3970 C   0  0  0  0  0  0  0  0  0  0  0  0
   -1.3390    0.4300   -0.6420 N   0  0  0  0  0  0  0  0  0  0  0  0
    5.0340    0.0510    0.2480 S   0  0  0  0  0  0  0  0  0  0  0  0
  1  2  1  0
  2  3  2  0
  2 26  1  0
  3  4  1  0
  4  5  2  0
  5  6  1  0
  5 26  1  0
  6  7  1  0
  7  8  1  0
  8  9  2  0
  8 10  1  0
 10 11  2  0
 10 25  1  0
 11 12  1  0
 12 13  2  0
 13 14  1  0
 14 15  1  0
 14 24  2  0
 15 16  2  0
 16 17  1  0
 17 18  1  0
 17 24  1  0
 18 19  2  0
 18 23  1  0
 19 20  1  0
 20 21  2  0
 21 22  1  0
 22 23  1  0
 24 25  1  0
M  END
