
     RDKit          3D

 26 29  0  0  0  0  0  0  0  0999 V2000
    7.8970   -2.0390   -2.1060 C   0  0  0  0  0  0  0  0  0  0  0  0
    6.5460   -1.7820   -1.5060 C   0  0  0  0  0  0  0  0  0  0  0  0
    5.5150   -2.6370   -1.4200 N   0  0  0  0  0  0  0  0  0  0  0  0
    4.5150   -2.0530   -0.8360 O   0  0  0  0  0  0  0  0  0  0  0  0
    4.8530   -0.8180   -0.5280 C   0  0  0  0  0  0  0  0  0  0  0  0
    3.9960    0.1770    0.1470 C   0  0  0  0  0  0  0  0  0  0  0  0
    4.2460    1.4490    0.5020 C   0  0  0  0  0  0  0  0  0  0  0  0
    3.2570    2.0840    1.0990 N   0  0  0  0  0  0  0  0  0  0  0  0
    2.2010    1.7140    1.3660 C   0  0  0  0  0  0  0  0  0  0  0  0
    0.8910    2.1190    2.0140 C   0  0  0  0  0  0  0  0  0  0  0  0
   -0.1250    1.0300    1.9660 C   0  0  0  0  0  0  0  0  0  0  0  0
   -0.4210    0.6860    0.5490 C   0  0  0  0  0  0  0  0  0  0  0  0
    0.1470    1.3970   -0.3570 O   0  0  0  0  0  0  0  0  0  0  0  0
   -1.2450   -0.3200    0.1480 N   0  0  0  0  0  0  0  0  0  0  0  0
   -2.4040   -0.5790   -0.1450 C   0  0  0  0  0  0  0  0  0  0  0  0
   -2.7150   -1.9430   -0.5290 N   0  0  0  0  0  0  0  0  0  0  0  0
   -4.0420   -2.4850   -0.4630 C   0  0  0  0  0  0  0  0  0  0  0  0
   -5.0940   -1.5220   -0.9060 C   0  0  0  0  0  0  0  0  0  0  0  0
   -4.8460   -0.1280   -0.5260 C   0  0  0  0  0  0  0  0  0  0  0  0
   -5.8860    0.7230   -0.5310 C   0  0  0  0  0  0  0  0  0  0  0  0
   -5.7070    2.0380   -0.1830 O   0  0  0  0  0  0  0  0  0  0  0  0
   -4.4890    2.5910    0.1890 C   0  0  0  0  0  0  0  0  0  0  0  0
   -3.3710    1.6280    0.1850 C   0  0  0  0  0  0  0  0  0  0  0  0
   -3.5180    0.3570   -0.1460 C   0  0  0  0  0  0  0  0  0  0  0  0
    2.3110   -0.0830    0.6900 S   0  0  0  0  0  0  0  0  0  0  0  0
    6.1130   -0.6420   -0.9400 N   0  0  0  0  0  0  0  0  0  0  0  0
  1  2  1  0
  2  3  2  0
  2 26  1  0
  3  4  1  0
  4  5  1  0
  5  6  1  0
  5 26  2  0
  6  7  2  0
  6 25  1  0
  7  8  1  0
  8  9  2  0
  9 10  1  0
  9 25  1  0
 10 11  1  0
 11 12  1  0
 12 13  2  0
 12 14  1  0
 14 15  2  3
 15 16  1  0
 15 24  1  0
 16 17  1  0
 17 18  1  0
 18 19  1  0
 19 20  2  0
 19 24  1  0
 20 21  1  0
 21 22  1  0
 22 23  1  0
 23 24  2  0
M  END
