
     RDKit          3D

 26 29  0  0  0  0  0  0  0  0999 V2000
    5.5450    2.2100   -2.1570 O   0  0  0  0  0  0  0  0  0  0  0  0
    4.0770    2.3740   -2.1100 S   0  0  2  0  0  0  0  0  0  0  0  0
    3.6920    3.8460   -2.1600 O   0  0  0  0  0  0  0  0  0  0  0  0
    3.3000    1.6300   -0.7900 N   0  0  0  0  0  0  0  0  0  0  0  0
    3.7330    0.4550   -0.1160 C   0  0  0  0  0  0  0  0  0  0  0  0
    5.0940    0.2370    0.0510 C   0  0  0  0  0  0  0  0  0  0  0  0
    5.5590   -0.8950    0.7280 C   0  0  0  0  0  0  0  0  0  0  0  0
    4.6490   -1.7980    1.2300 C   0  0  0  0  0  0  0  0  0  0  0  0
    3.3260   -1.5590    1.0510 C   0  0  0  0  0  0  0  0  0  0  0  0
    2.8030   -0.4460    0.3830 C   0  0  0  0  0  0  0  0  0  0  0  0
    1.3660   -0.2820    0.2350 C   0  0  0  0  0  0  0  0  0  0  0  0
    0.6210    0.6530   -0.3610 N   0  0  0  0  0  0  0  0  0  0  0  0
   -0.6420    0.3720   -0.2320 O   0  0  0  0  0  0  0  0  0  0  0  0
   -0.7850   -0.7420    0.4430 C   0  0  0  0  0  0  0  0  0  0  0  0
   -2.0560   -1.3970    0.8000 C   0  0  0  0  0  0  0  0  0  0  0  0
   -2.1540   -2.5740    1.5160 C   0  0  0  0  0  0  0  0  0  0  0  0
   -3.4870   -2.8900    1.6640 C   0  0  0  0  0  0  0  0  0  0  0  0
   -4.1710   -1.8780    1.0230 C   0  0  0  0  0  0  0  0  0  0  0  0
   -3.2850   -0.9930    0.5120 N   0  0  0  0  0  0  0  0  0  0  0  0
   -3.6740    0.1680   -0.2090 C   0  0  0  0  0  0  0  0  0  0  0  0
   -4.6480    0.1140   -1.1860 C   0  0  0  0  0  0  0  0  0  0  0  0
   -5.0580    1.2130   -1.9110 C   0  0  0  0  0  0  0  0  0  0  0  0
   -4.4590    2.4210   -1.6400 C   0  0  0  0  0  0  0  0  0  0  0  0
   -3.4870    2.4680   -0.6640 C   0  0  0  0  0  0  0  0  0  0  0  0
   -3.1180    1.3700    0.0200 N   0  0  0  0  0  0  0  0  0  0  0  0
    0.4600   -1.1530    0.7360 N   0  0  0  0  0  0  0  0  0  0  0  0
  1  2  2  0
  2  3  2  0
  2  4  1  1
  4  5  1  0
  5  6  2  0
  5 10  1  0
  6  7  1  0
  7  8  2  0
  8  9  1  0
  9 10  2  0
 10 11  1  0
 11 12  2  0
 11 26  1  0
 12 13  1  0
 13 14  1  0
 14 15  1  0
 14 26  2  0
 15 16  2  0
 15 19  1  0
 16 17  1  0
 17 18  2  0
 18 19  1  0
 19 20  1  0
 20 21  2  0
 20 25  1  0
 21 22  1  0
 22 23  2  0
 23 24  1  0
 24 25  2  0
M  END
