
     RDKit          3D

 25 28  0  0  0  0  0  0  0  0999 V2000
   -4.9670    2.6840    1.1760 O   0  0  0  0  0  0  0  0  0  0  0  0
   -4.5120    1.4980    1.3000 C   0  0  0  0  0  0  0  0  0  0  0  0
   -3.0850    1.1050    1.1680 C   0  0  0  0  0  0  0  0  0  0  0  0
   -3.1390   -0.4060    1.1720 C   0  0  2  0  0  0  0  0  0  0  0  0
   -2.3730   -0.9890    0.0420 C   0  0  0  0  0  0  0  0  0  0  0  0
   -2.9310   -1.7150   -0.8210 O   0  0  0  0  0  0  0  0  0  0  0  0
   -0.9720   -0.7590   -0.1240 N   0  0  0  0  0  0  0  0  0  0  0  0
   -0.2690   -1.3390   -1.2460 C   0  0  0  0  0  0  0  0  0  0  0  0
   -0.9330   -2.0670   -2.1570 N   0  0  0  0  0  0  0  0  0  0  0  0
   -0.3260   -2.6010   -3.2240 C   0  0  0  0  0  0  0  0  0  0  0  0
   -1.0340   -3.3460   -4.1440 F   0  0  0  0  0  0  0  0  0  0  0  0
    1.0270   -2.4050   -3.4060 C   0  0  0  0  0  0  0  0  0  0  0  0
    1.7190   -1.6580   -2.4760 C   0  0  0  0  0  0  0  0  0  0  0  0
    1.0770   -1.1060   -1.3680 C   0  0  0  0  0  0  0  0  0  0  0  0
    1.8870   -0.3540   -0.4210 C   0  0  0  0  0  0  0  0  0  0  0  0
    1.9080   -0.6000    0.9210 C   0  0  0  0  0  0  0  0  0  0  0  0
    2.7020    0.1800    1.7510 C   0  0  0  0  0  0  0  0  0  0  0  0
    3.4910    1.2130    1.2970 C   0  0  0  0  0  0  0  0  0  0  0  0
    4.3300    2.0980    1.8610 N   0  0  0  0  0  0  0  0  0  0  0  0
    4.8170    2.8800    0.8650 C   0  0  0  0  0  0  0  0  0  0  0  0
    4.2940    2.4910   -0.3030 N   0  0  0  0  0  0  0  0  0  0  0  0
    3.4680    1.4570   -0.0580 C   0  0  0  0  0  0  0  0  0  0  0  0
    2.6860    0.6930   -0.8880 C   0  0  0  0  0  0  0  0  0  0  0  0
   -4.5950   -0.7740    0.9920 C   0  0  0  0  0  0  0  0  0  0  0  0
   -5.2840    0.3340    1.5880 N   0  0  0  0  0  0  0  0  0  0  0  0
  1  2  2  0
  2  3  1  0
  2 25  1  0
  3  4  1  0
  4  5  1  6
  4 24  1  0
  5  6  2  0
  5  7  1  0
  7  8  1  0
  8  9  2  0
  8 14  1  0
  9 10  1  0
 10 11  1  0
 10 12  2  0
 12 13  1  0
 13 14  2  0
 14 15  1  0
 15 16  2  0
 15 23  1  0
 16 17  1  0
 17 18  2  0
 18 19  1  0
 18 22  1  0
 19 20  2  0
 20 21  1  0
 21 22  1  0
 22 23  2  0
 24 25  1  0
M  CHG  1  19   1
M  END
