
     RDKit          3D

 24 26  0  0  0  0  0  0  0  0999 V2000
    1.5000    0.6800   -1.8890 C   0  0  0  0  0  0  0  0  0  0  0  0
    1.8640   -0.0830   -0.7540 N   0  0  0  0  0  0  0  0  0  0  0  0
    0.7130   -0.5540    0.0940 C   0  0  0  0  0  0  0  0  0  0  0  0
    0.2720   -1.8850   -0.4200 C   0  0  0  0  0  0  0  0  0  0  0  0
   -0.8760   -2.4430    0.3360 C   0  0  0  0  0  0  0  0  0  0  0  0
   -2.0590   -1.6220    0.3160 N   0  0  0  0  0  0  0  0  0  0  0  0
   -2.2550   -0.5760    1.2430 C   0  0  0  0  0  0  0  0  0  0  0  0
   -1.4740   -0.4740    2.3800 C   0  0  0  0  0  0  0  0  0  0  0  0
   -1.7360    0.5240    3.2910 C   0  0  0  0  0  0  0  0  0  0  0  0
   -1.0220    0.6070    4.3180 O   0  0  0  0  0  0  0  0  0  0  0  0
   -2.7020    1.3800    3.1160 O   0  0  0  0  0  0  0  0  0  0  0  0
   -3.4550    1.3160    2.0620 C   0  0  0  0  0  0  0  0  0  0  0  0
   -4.4760    2.2520    1.9120 C   0  0  0  0  0  0  0  0  0  0  0  0
   -5.2880    2.2060    0.8010 C   0  0  0  0  0  0  0  0  0  0  0  0
   -5.1030    1.2440   -0.1660 C   0  0  0  0  0  0  0  0  0  0  0  0
   -4.0720    0.2940   -0.0220 C   0  0  0  0  0  0  0  0  0  0  0  0
   -3.2830    0.3540    1.0790 C   0  0  0  0  0  0  0  0  0  0  0  0
    3.1310   -0.4430   -0.3410 C   0  0  0  0  0  0  0  0  0  0  0  0
    3.2700   -1.1550    0.7410 O   0  0  0  0  0  0  0  0  0  0  0  0
    4.3710   -0.1090   -0.9960 C   0  0  0  0  0  0  0  0  0  0  0  0
    4.7330    0.5840   -2.1050 C   0  0  0  0  0  0  0  0  0  0  0  0
    6.0110    0.7190   -2.4560 C   0  0  0  0  0  0  0  0  0  0  0  0
    6.9480    0.1350   -1.6580 C   0  0  0  0  0  0  0  0  0  0  0  0
    5.9810   -0.6350   -0.3630 S   0  0  0  0  0  0  0  0  0  0  0  0
  1  2  1  0
  2  3  1  0
  2 18  1  0
  3  4  1  0
  4  5  1  0
  5  6  1  0
  6  7  1  0
  7  8  2  0
  7 17  1  0
  8  9  1  0
  9 10  2  0
  9 11  1  0
 11 12  1  0
 12 13  2  0
 12 17  1  0
 13 14  1  0
 14 15  2  0
 15 16  1  0
 16 17  2  0
 18 19  2  0
 18 20  1  0
 20 21  2  0
 20 24  1  0
 21 22  1  0
 22 23  2  0
 23 24  1  0
M  END
