
     RDKit          3D

 25 28  0  0  0  0  0  0  0  0999 V2000
   -3.2750    1.6120    2.4900 N   0  0  0  0  0  0  0  0  0  0  0  0
   -4.2210    0.8510    1.8410 N   0  0  0  0  0  0  0  0  0  0  0  0
   -3.6710   -0.0160    0.8630 C   0  0  0  0  0  0  0  0  0  0  0  0
   -4.4080   -0.9350    0.1680 C   0  0  0  0  0  0  0  0  0  0  0  0
   -3.7840   -1.7310   -0.7620 C   0  0  0  0  0  0  0  0  0  0  0  0
   -2.4200   -1.6410   -1.0320 C   0  0  0  0  0  0  0  0  0  0  0  0
   -1.8520   -2.4340   -1.9450 N   0  0  0  0  0  0  0  0  0  0  0  0
   -0.5400   -2.3540   -2.2110 C   0  0  0  0  0  0  0  0  0  0  0  0
   -0.0350   -3.1190   -3.0810 O   0  0  0  0  0  0  0  0  0  0  0  0
    0.2220   -1.4360   -1.5240 C   0  0  0  0  0  0  0  0  0  0  0  0
    1.5620   -1.3790   -1.8190 C   0  0  0  0  0  0  0  0  0  0  0  0
    2.3780   -0.4790   -1.1640 C   0  0  0  0  0  0  0  0  0  0  0  0
    3.7220   -0.4320   -1.4700 C   0  0  0  0  0  0  0  0  0  0  0  0
    4.4860    0.4890   -0.7810 C   0  0  0  0  0  0  0  0  0  0  0  0
    3.9550    1.3300    0.1690 C   0  0  0  0  0  0  0  0  0  0  0  0
    4.8150    2.3210    0.9000 C   0  0  0  0  0  0  0  0  0  0  0  0
    5.3580    1.7510    2.0980 N   0  0  0  0  0  0  0  0  0  0  0  0
    5.3800    2.3580    3.1360 O   0  0  0  0  0  0  0  0  0  0  0  0
    2.6360    1.2320    0.4190 N   0  0  0  0  0  0  0  0  0  0  0  0
    1.8250    0.3640   -0.2070 C   0  0  0  0  0  0  0  0  0  0  0  0
    0.4810    0.3130    0.0950 C   0  0  0  0  0  0  0  0  0  0  0  0
   -0.3250   -0.5850   -0.5610 C   0  0  0  0  0  0  0  0  0  0  0  0
   -1.6730   -0.6990   -0.3180 C   0  0  0  0  0  0  0  0  0  0  0  0
   -2.2870    0.0980    0.6110 C   0  0  0  0  0  0  0  0  0  0  0  0
   -1.5970    1.0110    1.3110 F   0  0  0  0  0  0  0  0  0  0  0  0
  1  2  1  0
  2  3  1  0
  3  4  2  0
  3 24  1  0
  4  5  1  0
  5  6  2  0
  6  7  1  0
  6 23  1  0
  7  8  1  0
  8  9  2  0
  8 10  1  0
 10 11  2  0
 10 22  1  0
 11 12  1  0
 12 13  2  0
 12 20  1  0
 13 14  1  0
 14 15  2  0
 15 16  1  0
 15 19  1  0
 16 17  1  0
 17 18  2  0
 19 20  2  0
 20 21  1  0
 21 22  2  0
 22 23  1  0
 23 24  2  0
 24 25  1  0
M  CHG  1   2   1
M  END
