
     RDKit          3D

 25 28  0  0  0  0  0  0  0  0999 V2000
    2.1380    1.8460    2.0470 C   0  0  0  0  0  0  0  0  0  0  0  0
    2.2760    1.6900    0.6260 N   0  0  0  0  0  0  0  0  0  0  0  0
    3.5040    2.0430   -0.0410 C   0  0  0  0  0  0  0  0  0  0  0  0
    4.4000    0.8440   -0.0730 C   0  0  0  0  0  0  0  0  0  0  0  0
    4.4870   -0.1150   -1.0030 N   0  0  0  0  0  0  0  0  0  0  0  0
    5.4220   -1.0260   -0.6620 C   0  0  0  0  0  0  0  0  0  0  0  0
    6.0720   -2.1590   -0.9750 N   0  0  0  0  0  0  0  0  0  0  0  0
    6.9430   -2.4710   -0.0650 O   0  0  0  0  0  0  0  0  0  0  0  0
    6.8940   -1.5560    0.8720 C   0  0  0  0  0  0  0  0  0  0  0  0
    5.9450   -0.6110    0.5470 C   0  0  0  0  0  0  0  0  0  0  0  0
    5.3090    0.5200    0.8800 N   0  0  0  0  0  0  0  0  0  0  0  0
    1.1630    1.1700   -0.1320 C   0  0  0  0  0  0  0  0  0  0  0  0
    1.2670    1.0270   -1.3760 O   0  0  0  0  0  0  0  0  0  0  0  0
   -0.0380    0.8220    0.5030 N   0  0  0  0  0  0  0  0  0  0  0  0
   -1.2120    0.2990   -0.1050 C   0  0  0  0  0  0  0  0  0  0  0  0
   -1.3330   -0.0580   -1.4200 C   0  0  0  0  0  0  0  0  0  0  0  0
   -2.5430   -0.5580   -1.9260 C   0  0  0  0  0  0  0  0  0  0  0  0
   -2.6560   -0.9090   -3.2290 F   0  0  0  0  0  0  0  0  0  0  0  0
   -3.6630   -0.7170   -1.1410 C   0  0  0  0  0  0  0  0  0  0  0  0
   -3.5480   -0.3600    0.1830 C   0  0  0  0  0  0  0  0  0  0  0  0
   -2.3610    0.1300    0.6760 C   0  0  0  0  0  0  0  0  0  0  0  0
   -4.7000   -0.4890    1.1330 C   0  0  0  0  0  0  0  0  0  0  0  0
   -5.8330   -1.2480    0.5160 C   0  0  0  0  0  0  0  0  0  0  0  0
   -6.0690   -0.6990   -0.8980 C   0  0  0  0  0  0  0  0  0  0  0  0
   -4.9300   -1.2550   -1.7280 C   0  0  0  0  0  0  0  0  0  0  0  0
  1  2  1  0
  2  3  1  0
  2 12  1  0
  3  4  1  0
  4  5  1  0
  4 11  2  0
  5  6  1  0
  6  7  2  0
  6 10  1  0
  7  8  1  0
  8  9  1  0
  9 10  2  0
 10 11  1  0
 12 13  2  0
 12 14  1  0
 14 15  1  0
 15 16  2  0
 15 21  1  0
 16 17  1  0
 17 18  1  0
 17 19  2  0
 19 20  1  0
 19 25  1  0
 20 21  2  0
 20 22  1  0
 22 23  1  0
 23 24  1  0
 24 25  1  0
M  CHG  1  11   1
M  END
