
     RDKit          3D

 25 28  0  0  0  0  0  0  0  0999 V2000
    7.9540   -0.0080   -0.7020 C   0  0  0  0  0  0  0  0  0  0  0  0
    6.4580    0.0390   -0.5870 C   0  0  0  0  0  0  0  0  0  0  0  0
    5.8140    0.8230    0.2040 O   0  0  0  0  0  0  0  0  0  0  0  0
    4.4900    0.6440    0.0910 C   0  0  0  0  0  0  0  0  0  0  0  0
    3.5700    1.4210    0.8890 C   0  0  0  0  0  0  0  0  0  0  0  0
    2.3130    1.4410    0.9660 C   0  0  0  0  0  0  0  0  0  0  0  0
    1.1850    0.7830    0.3790 C   0  0  0  0  0  0  0  0  0  0  0  0
    1.2570   -0.1110   -0.4930 O   0  0  0  0  0  0  0  0  0  0  0  0
   -0.1740    1.0970    0.7490 N   0  0  0  0  0  0  0  0  0  0  0  0
   -1.3320    0.5010    0.2150 C   0  0  0  0  0  0  0  0  0  0  0  0
   -1.4420   -0.2330   -0.9190 C   0  0  0  0  0  0  0  0  0  0  0  0
   -2.6840   -0.7780   -1.2890 C   0  0  0  0  0  0  0  0  0  0  0  0
   -3.8060   -0.6000   -0.5460 C   0  0  0  0  0  0  0  0  0  0  0  0
   -3.7170    0.1380    0.6030 C   0  0  0  0  0  0  0  0  0  0  0  0
   -2.5030    0.6740    0.9690 C   0  0  0  0  0  0  0  0  0  0  0  0
   -5.0520    0.1540    1.1750 C   0  0  0  0  0  0  0  0  0  0  0  0
   -5.7670    0.6130    2.2040 N   0  0  0  0  0  0  0  0  0  0  0  0
   -7.0230    0.2060    2.0610 N   0  0  0  0  0  0  0  0  0  0  0  0
   -7.1320   -0.5260    0.9310 C   0  0  0  0  0  0  0  0  0  0  0  0
   -5.8870   -0.5430    0.3950 N   0  0  0  0  0  0  0  0  0  0  0  0
   -5.1760   -1.0610   -0.7260 C   0  0  0  0  0  0  0  0  0  0  0  0
   -5.6650   -1.7780   -1.6780 N   0  0  0  0  0  0  0  0  0  0  0  0
    4.2980   -0.3250   -0.8400 C   0  0  0  0  0  0  0  0  0  0  0  0
    5.5720   -0.7210   -1.2840 C   0  0  0  0  0  0  0  0  0  0  0  0
    5.8130   -1.6690   -2.2160 F   0  0  0  0  0  0  0  0  0  0  0  0
  1  2  1  0
  2  3  1  0
  2 24  2  0
  3  4  1  0
  4  5  1  0
  4 23  2  0
  5  6  2  3
  6  7  1  0
  7  8  2  0
  7  9  1  0
  9 10  1  0
 10 11  2  0
 10 15  1  0
 11 12  1  0
 12 13  2  0
 13 14  1  0
 13 21  1  0
 14 15  2  0
 14 16  1  0
 16 17  2  0
 16 20  1  0
 17 18  1  0
 18 19  2  0
 19 20  1  0
 20 21  1  0
 21 22  2  0
 23 24  1  0
 24 25  1  0
M  CHG  1  22   1
M  END
