
     RDKit          3D

 19 20  0  0  0  0  0  0  0  0999 V2000
   -1.3640    2.0340   -0.2220 C   0  0  0  0  0  0  0  0  0  0  0  0
   -2.1720    0.7880   -0.2770 C   0  0  0  0  0  0  0  0  0  0  0  0
   -3.5060    0.7520   -0.3410 C   0  0  0  0  0  0  0  0  0  0  0  0
   -4.3190    1.9420   -0.3680 N   0  0  0  0  0  0  0  0  0  0  0  0
   -3.9420   -0.5540   -0.3770 O   0  0  0  0  0  0  0  0  0  0  0  0
   -2.8740   -1.4260   -0.6090 C   0  0  2  0  0  0  0  0  0  0  0  0
   -2.9200   -2.8470    0.4720 S   0  0  0  0  0  0  0  0  0  0  0  0
   -2.4450   -2.0880    2.0730 C   0  0  0  0  0  0  0  0  0  0  0  0
   -1.1700   -0.9430    1.4240 S   0  0  0  0  0  0  0  0  0  0  0  0
   -1.6540   -0.6020   -0.2720 C   0  0  2  0  0  0  0  0  0  0  0  0
   -0.3800   -0.7550   -1.4900 S   0  0  0  0  0  0  0  0  0  0  0  0
    1.1270   -1.5450   -1.0700 C   0  0  0  0  0  0  0  0  0  0  0  0
    1.9390   -0.7620   -0.1100 C   0  0  0  0  0  0  0  0  0  0  0  0
    1.4680   -0.3120    0.9440 O   0  0  0  0  0  0  0  0  0  0  0  0
    3.3190   -0.5060   -0.3820 N   0  0  0  0  0  0  0  0  0  0  0  0
    4.1980    0.1840    0.5070 C   0  0  0  0  0  0  0  0  0  0  0  0
    3.7950    0.6120    1.5890 O   0  0  0  0  0  0  0  0  0  0  0  0
    5.6000    0.3590    0.0650 C   0  0  0  0  0  0  0  0  0  0  0  0
    6.3070    1.0400    1.0240 O   0  0  0  0  0  0  0  0  0  0  0  0
  1  2  1  0
  2  3  2  0
  2 10  1  0
  3  4  1  0
  3  5  1  0
  6  5  1  1
  6  7  1  0
  6 10  1  0
  7  8  1  0
  8  9  1  0
  9 10  1  0
 10 11  1  6
 11 12  1  0
 12 13  1  0
 13 14  2  0
 13 15  1  0
 15 16  1  0
 16 17  2  0
 16 18  1  0
 18 19  1  0
M  CHG  1   4   1
M  END
