
     RDKit          3D

 25 28  0  0  0  0  0  0  0  0999 V2000
    6.2090   -2.0230    0.3030 C   0  0  0  0  0  0  0  0  0  0  0  0
    6.3510   -1.0800   -0.8210 C   0  0  0  0  0  0  0  0  0  0  0  0
    5.5430   -0.0500   -0.9380 C   0  0  0  0  0  0  0  0  0  0  0  0
    4.4840    0.2040    0.0250 C   0  0  0  0  0  0  0  0  0  0  0  0
    4.1860   -0.5220    1.1070 N   0  0  0  0  0  0  0  0  0  0  0  0
    3.1770   -0.0010    1.7400 N   0  0  0  0  0  0  0  0  0  0  0  0
    2.7980    1.1090    1.0470 C   0  0  0  0  0  0  0  0  0  0  0  0
    1.6720    1.9440    1.4970 C   0  0  0  0  0  0  0  0  0  0  0  0
    0.4090    1.4430    1.2850 O   0  0  0  0  0  0  0  0  0  0  0  0
   -0.2610    1.1050    0.1550 C   0  0  0  0  0  0  0  0  0  0  0  0
    0.2530    1.2200   -1.1090 C   0  0  0  0  0  0  0  0  0  0  0  0
   -0.5050    0.8490   -2.2320 C   0  0  0  0  0  0  0  0  0  0  0  0
    0.0110    0.9660   -3.4740 F   0  0  0  0  0  0  0  0  0  0  0  0
   -1.7790    0.3610   -2.1000 C   0  0  0  0  0  0  0  0  0  0  0  0
   -2.3000    0.2440   -0.8200 C   0  0  0  0  0  0  0  0  0  0  0  0
   -3.5930   -0.2470   -0.6210 C   0  0  0  0  0  0  0  0  0  0  0  0
   -4.1210   -0.3680    0.6380 C   0  0  0  0  0  0  0  0  0  0  0  0
   -3.3690   -0.0040    1.6720 N   0  0  0  0  0  0  0  0  0  0  0  0
   -2.1080    0.4770    1.5210 C   0  0  0  0  0  0  0  0  0  0  0  0
   -1.3330    0.8560    2.6550 N   0  0  0  0  0  0  0  0  0  0  0  0
   -1.5640    0.6050    0.2750 C   0  0  0  0  0  0  0  0  0  0  0  0
   -5.4500   -0.8870    0.6120 N   0  0  0  0  0  0  0  0  0  0  0  0
   -5.8730   -0.7020   -0.7670 C   0  0  0  0  0  0  0  0  0  0  0  0
   -4.6020   -0.7070   -1.5880 C   0  0  0  0  0  0  0  0  0  0  0  0
    3.6090    1.1940    0.0250 O   0  0  0  0  0  0  0  0  0  0  0  0
  1  2  1  0
  2  3  2  3
  3  4  1  0
  4  5  2  0
  4 25  1  0
  5  6  1  0
  6  7  2  0
  7  8  1  0
  7 25  1  0
  8  9  1  0
  9 10  1  0
 10 11  2  0
 10 21  1  0
 11 12  1  0
 12 13  1  0
 12 14  2  0
 14 15  1  0
 15 16  2  0
 15 21  1  0
 16 17  1  0
 16 24  1  0
 17 18  2  0
 17 22  1  0
 18 19  1  0
 19 20  1  0
 19 21  2  0
 22 23  1  0
 23 24  1  0
M  CHG  1  22   1
M  END
