
     RDKit          3D

 25 28  0  0  0  0  0  0  0  0999 V2000
   -5.9820    3.5260    1.1480 O   0  0  0  0  0  0  0  0  0  0  0  0
   -4.7870    3.9680    1.2550 C   0  0  0  0  0  0  0  0  0  0  0  0
   -3.6920    3.1120    0.8390 N   0  0  0  0  0  0  0  0  0  0  0  0
   -3.9240    1.8270    0.3620 C   0  0  0  0  0  0  0  0  0  0  0  0
   -5.1880    1.5580    0.2050 O   0  0  0  0  0  0  0  0  0  0  0  0
   -2.9980    0.8090    0.0450 N   0  0  0  0  0  0  0  0  0  0  0  0
   -3.4690   -0.3830   -0.3560 N   0  0  0  0  0  0  0  0  0  0  0  0
   -2.4770   -1.2740   -0.4960 C   0  0  0  0  0  0  0  0  0  0  0  0
   -2.5740   -2.6930   -0.6800 C   0  0  1  0  0  0  0  0  0  0  0  0
   -3.0100   -3.4790   -1.8530 C   0  0  0  0  0  0  0  0  0  0  0  0
   -1.7670   -3.8010   -0.9790 C   0  0  0  0  0  0  0  0  0  0  0  0
   -1.3190   -0.5690   -0.1660 C   0  0  0  0  0  0  0  0  0  0  0  0
   -0.0540   -0.9760   -0.2250 N   0  0  0  0  0  0  0  0  0  0  0  0
    1.0140   -0.1310    0.0360 C   0  0  0  0  0  0  0  0  0  0  0  0
    2.2980   -0.6100   -0.0820 N   0  0  0  0  0  0  0  0  0  0  0  0
    3.5590   -0.0500    0.0650 C   0  0  0  0  0  0  0  0  0  0  0  0
    3.9380    1.0140    0.8510 C   0  0  0  0  0  0  0  0  0  0  0  0
    5.2580    1.4890    0.8610 C   0  0  0  0  0  0  0  0  0  0  0  0
    6.2350    0.9310    0.0960 C   0  0  0  0  0  0  0  0  0  0  0  0
    5.8760   -0.1380   -0.6990 C   0  0  0  0  0  0  0  0  0  0  0  0
    6.8540   -0.7160   -1.4640 F   0  0  0  0  0  0  0  0  0  0  0  0
    4.5980   -0.6110   -0.7170 C   0  0  0  0  0  0  0  0  0  0  0  0
    0.6470    1.1370    0.3570 C   0  0  0  0  0  0  0  0  0  0  0  0
   -0.6940    1.5780    0.4250 C   0  0  0  0  0  0  0  0  0  0  0  0
   -1.6970    0.7030    0.1570 C   0  0  0  0  0  0  0  0  0  0  0  0
  1  2  2  0
  2  3  1  0
  3  4  1  0
  4  5  2  0
  4  6  1  0
  6  7  1  0
  6 25  1  0
  7  8  2  0
  9  8  1  6
  8 12  1  0
  9 10  1  0
  9 11  1  0
 10 11  1  0
 12 13  2  0
 12 25  1  0
 13 14  1  0
 14 15  1  0
 14 23  2  0
 15 16  1  0
 16 17  2  0
 16 22  1  0
 17 18  1  0
 18 19  2  0
 19 20  1  0
 20 21  1  0
 20 22  2  0
 23 24  1  0
 24 25  2  0
M  CHG  1  13   1
M  END
