
     RDKit          3D

 13 13  0  0  0  0  0  0  0  0999 V2000
    4.4150    0.5080    0.0660 C   0  0  0  0  0  0  0  0  0  0  0  0
    3.1980    0.9460    0.8410 C   0  0  0  0  0  0  0  0  0  0  0  0
    1.9540    0.4240    0.2360 C   0  0  0  0  0  0  0  0  0  0  0  0
    2.0600   -0.2890   -0.8040 O   0  0  0  0  0  0  0  0  0  0  0  0
    0.7040    0.6760    0.7480 O   0  0  0  0  0  0  0  0  0  0  0  0
   -0.4560    0.1480    0.1250 C   0  0  1  0  0  0  0  0  0  0  0  0
   -1.1170   -0.8240    1.0630 C   0  0  0  0  0  0  0  0  0  0  0  0
   -1.6890   -1.9750    0.2510 C   0  0  0  0  0  0  0  0  0  0  0  0
   -2.9540   -1.5000   -0.3810 C   0  0  0  0  0  0  0  0  0  0  0  0
   -3.4120   -0.2860   -0.5960 C   0  0  0  0  0  0  0  0  0  0  0  0
   -2.7710    0.9780   -0.2580 C   0  0  0  0  0  0  0  0  0  0  0  0
   -3.5610    1.9080    0.0960 O   0  0  0  0  0  0  0  0  0  0  0  0
   -1.3260    1.2960   -0.2800 C   0  0  0  0  0  0  0  0  0  0  0  0
  1  2  1  0
  2  3  1  0
  3  4  2  0
  3  5  1  0
  6  5  1  1
  6  7  1  0
  6 13  1  0
  7  8  1  0
  8  9  1  0
  9 10  2  0
 10 11  1  0
 11 12  2  0
 11 13  1  0
M  END
