
     RDKit          3D

 12 12  0  0  0  0  0  0  0  0999 V2000
    4.2180   -0.6560    0.1980 C   0  0  0  0  0  0  0  0  0  0  0  0
    2.7460   -0.6520   -0.0090 C   0  0  0  0  0  0  0  0  0  0  0  0
    2.2650   -1.5030   -0.7790 O   0  0  0  0  0  0  0  0  0  0  0  0
    1.9070    0.2380    0.6050 O   0  0  0  0  0  0  0  0  0  0  0  0
    0.5010    0.2250    0.3940 C   0  0  0  0  0  0  0  0  0  0  0  0
   -0.2830   -0.4930    1.1590 C   0  0  0  0  0  0  0  0  0  0  0  0
   -1.7240   -0.5560    1.0040 C   0  0  0  0  0  0  0  0  0  0  0  0
   -2.4560   -1.2520    1.7500 O   0  0  0  0  0  0  0  0  0  0  0  0
   -2.3000    0.2330   -0.0680 C   0  0  0  0  0  0  0  0  0  0  0  0
   -3.7570    0.2720   -0.3510 C   0  0  0  0  0  0  0  0  0  0  0  0
   -1.4910    0.9420   -0.8170 C   0  0  0  0  0  0  0  0  0  0  0  0
   -0.0380    1.0350   -0.6980 C   0  0  0  0  0  0  0  0  0  0  0  0
  1  2  1  0
  2  3  2  0
  2  4  1  0
  4  5  1  0
  5  6  2  0
  5 12  1  0
  6  7  1  0
  7  8  2  0
  7  9  1  0
  9 10  1  0
  9 11  2  0
 11 12  1  0
M  END
