
     RDKit          3D

 13 13  0  0  0  0  0  0  0  0999 V2000
    2.9630    0.8770   -1.4130 C   0  0  0  0  0  0  0  0  0  0  0  0
    2.7370    0.2130   -0.0770 C   0  0  0  0  0  0  0  0  0  0  0  0
    1.5860   -0.1030    0.4590 C   0  0  0  0  0  0  0  0  0  0  0  0
    0.2890    0.1250   -0.1290 C   0  0  0  0  0  0  0  0  0  0  0  0
    0.1870    0.6820   -1.2770 O   0  0  0  0  0  0  0  0  0  0  0  0
   -0.9110   -0.2210    0.4660 O   0  0  0  0  0  0  0  0  0  0  0  0
   -2.1380    0.0260   -0.1540 C   0  0  2  0  0  0  0  0  0  0  0  0
   -2.3880    1.4830   -0.4370 C   0  0  0  0  0  0  0  0  0  0  0  0
   -3.2960   -0.4630    0.7040 C   0  0  0  0  0  0  0  0  0  0  0  0
   -2.1800   -0.7700   -1.4430 C   0  0  0  0  0  0  0  0  0  0  0  0
    1.8220   -0.7340    1.7690 C   0  0  0  0  0  0  0  0  0  0  0  0
    3.3250   -0.8590    1.8880 C   0  0  0  0  0  0  0  0  0  0  0  0
    3.7930   -0.1530    0.7690 O   0  0  0  0  0  0  0  0  0  0  0  0
  1  2  1  0
  2  3  2  0
  2 13  1  0
  3  4  1  0
  3 11  1  0
  4  5  2  0
  4  6  1  0
  6  7  1  0
  7  8  1  6
  7  9  1  0
  7 10  1  0
 11 12  1  0
 12 13  1  0
M  END
