
     RDKit          3D

 13 14  0  0  0  0  0  0  0  0999 V2000
    3.8330    1.1050   -0.1270 C   0  0  0  0  0  0  0  0  0  0  0  0
    3.4900    0.2960   -1.2030 O   0  0  0  0  0  0  0  0  0  0  0  0
    2.8150   -0.8340   -0.7570 C   0  0  0  0  0  0  0  0  0  0  0  0
    1.5600   -0.5050   -0.0300 C   0  0  0  0  0  0  0  0  0  0  0  0
    1.3820   -0.2850    1.3100 C   0  0  0  0  0  0  0  0  0  0  0  0
    0.0400   -0.0170    1.4850 C   0  0  0  0  0  0  0  0  0  0  0  0
   -0.5540   -0.0830    0.2440 C   0  0  0  0  0  0  0  0  0  0  0  0
   -1.9630    0.1270   -0.0790 C   0  0  0  0  0  0  0  0  0  0  0  0
   -2.5490    0.0690   -1.2620 C   0  0  0  0  0  0  0  0  0  0  0  0
   -4.0070    0.3520   -1.1240 C   0  0  0  0  0  0  0  0  0  0  0  0
   -4.2300    0.3050    0.2500 O   0  0  0  0  0  0  0  0  0  0  0  0
   -3.0260    0.4550    0.8880 C   0  0  0  0  0  0  0  0  0  0  0  0
    0.4110   -0.3760   -0.5980 O   0  0  0  0  0  0  0  0  0  0  0  0
  1  2  1  0
  2  3  1  0
  3  4  1  0
  4  5  2  0
  4 13  1  0
  5  6  1  0
  6  7  2  0
  7  8  1  0
  7 13  1  0
  8  9  2  0
  8 12  1  0
  9 10  1  0
 10 11  1  0
 11 12  1  0
M  END
