
     RDKit          3D

 13 14  0  0  0  0  0  0  0  0999 V2000
   -0.5030    0.9450    1.9740 O   0  0  0  0  0  0  0  0  0  0  0  0
   -0.8520    0.0800    1.1180 C   0  0  0  0  0  0  0  0  0  0  0  0
    0.1640   -0.4070    0.2850 O   0  0  0  0  0  0  0  0  0  0  0  0
    1.4770    0.0600    0.4180 C   0  0  2  0  0  0  0  0  0  0  0  0
    1.9420    0.7070   -0.8820 C   0  0  0  0  0  0  0  0  0  0  0  0
    3.4390    0.8050   -0.6300 C   0  0  0  0  0  0  0  0  0  0  0  0
    3.7510   -0.5640   -0.0690 C   0  0  0  0  0  0  0  0  0  0  0  0
    2.4700   -1.0940    0.5250 C   0  0  0  0  0  0  0  0  0  0  0  0
   -2.2560   -0.3930    1.0040 C   0  0  1  0  0  0  0  0  0  0  0  0
   -3.2240    0.7080    0.6940 C   0  0  0  0  0  0  0  0  0  0  0  0
   -3.9030    0.1640   -0.5710 C   0  0  0  0  0  0  0  0  0  0  0  0
   -2.7200   -0.6270   -1.1460 C   0  0  0  0  0  0  0  0  0  0  0  0
   -2.3120   -1.3210   -0.0060 O   0  0  0  0  0  0  0  0  0  0  0  0
  1  2  2  0
  2  3  1  0
  9  2  1  6
  4  3  1  6
  4  5  1  0
  4  8  1  0
  5  6  1  0
  6  7  1  0
  7  8  1  0
  9 10  1  0
  9 13  1  0
 10 11  1  0
 11 12  1  0
 12 13  1  0
M  END
