
     RDKit          3D

 13 14  0  0  0  0  0  0  0  0999 V2000
    0.2600    1.5090   -0.2310 O   0  0  0  0  0  0  0  0  0  0  0  0
   -0.3130    0.5390    0.3050 C   0  0  0  0  0  0  0  0  0  0  0  0
    0.4690   -0.3310    1.0570 O   0  0  0  0  0  0  0  0  0  0  0  0
    1.8690   -0.1080    1.1990 C   0  0  0  0  0  0  0  0  0  0  0  0
    2.5840   -0.1120   -0.1080 C   0  0  1  0  0  0  0  0  0  0  0  0
    4.0790    0.1230    0.0060 C   0  0  0  0  0  0  0  0  0  0  0  0
    3.5740   -1.2400   -0.3250 C   0  0  0  0  0  0  0  0  0  0  0  0
   -1.7490    0.3280    0.1480 C   0  0  0  0  0  0  0  0  0  0  0  0
   -2.4490    1.1750   -0.5720 C   0  0  0  0  0  0  0  0  0  0  0  0
   -3.9030    0.9890   -0.7500 C   0  0  0  0  0  0  0  0  0  0  0  0
   -4.4650   -0.1040   -0.1290 O   0  0  0  0  0  0  0  0  0  0  0  0
   -3.7210   -0.9790    0.6180 C   0  0  0  0  0  0  0  0  0  0  0  0
   -2.4130   -0.7980    0.7700 C   0  0  0  0  0  0  0  0  0  0  0  0
  1  2  2  0
  2  3  1  0
  2  8  1  0
  3  4  1  0
  5  4  1  1
  5  6  1  0
  5  7  1  0
  6  7  1  0
  8  9  2  0
  8 13  1  0
  9 10  1  0
 10 11  1  0
 11 12  1  0
 12 13  2  0
M  END
