
     RDKit          3D

 19 21  0  0  0  0  0  0  0  0999 V2000
   -4.2270    0.6390   -1.4690 C   0  0  0  0  0  0  0  0  0  0  0  0
   -3.3820    0.3770   -0.2590 C   0  0  0  0  0  0  0  0  0  0  0  0
   -3.8570    0.6580    1.0060 C   0  0  0  0  0  0  0  0  0  0  0  0
   -3.0320    0.3940    2.0780 C   0  0  0  0  0  0  0  0  0  0  0  0
   -1.7770   -0.1320    1.8980 C   0  0  0  0  0  0  0  0  0  0  0  0
   -1.3370   -0.4000    0.6160 C   0  0  0  0  0  0  0  0  0  0  0  0
   -0.0070   -0.9590    0.4080 C   0  0  0  0  0  0  0  0  0  0  0  0
    0.2290   -2.3130    0.3760 C   0  0  0  0  0  0  0  0  0  0  0  0
    1.5060   -2.8370    0.1770 C   0  0  0  0  0  0  0  0  0  0  0  0
    2.5220   -1.9680    0.0130 N   0  0  0  0  0  0  0  0  0  0  0  0
    2.2910   -0.6470    0.0440 C   0  0  0  0  0  0  0  0  0  0  0  0
    3.1190    0.4410   -0.0910 C   0  0  0  0  0  0  0  0  0  0  0  0
    4.5550    0.4170   -0.3180 C   0  0  0  0  0  0  0  0  0  0  0  0
    5.3230    1.6020   -0.4440 N   0  0  0  0  0  0  0  0  0  0  0  0
    5.1490   -0.7040   -0.4070 O   0  0  0  0  0  0  0  0  0  0  0  0
    2.3670    1.6110    0.0230 C   0  0  0  0  0  0  0  0  0  0  0  0
    1.1060    1.1860    0.2230 N   0  0  0  0  0  0  0  0  0  0  0  0
    1.0430   -0.1390    0.2390 N   0  0  0  0  0  0  0  0  0  0  0  0
   -2.1470   -0.1440   -0.4810 C   0  0  0  0  0  0  0  0  0  0  0  0
  1  2  1  0
  2  3  2  0
  2 19  1  0
  3  4  1  0
  4  5  2  0
  5  6  1  0
  6  7  1  0
  6 19  2  0
  7  8  2  0
  7 18  1  0
  8  9  1  0
  9 10  2  0
 10 11  1  0
 11 12  2  0
 11 18  1  0
 12 13  1  0
 12 16  1  0
 13 14  1  0
 13 15  2  0
 16 17  2  0
 17 18  1  0
M  END
