
     RDKit          3D

 13 13  0  0  0  0  0  0  0  0999 V2000
    0.5740    2.9190    0.3640 C   0  0  0  0  0  0  0  0  0  0  0  0
   -0.7110    2.2080    0.4840 C   0  0  0  0  0  0  0  0  0  0  0  0
   -0.8490    0.9240    0.2220 C   0  0  0  0  0  0  0  0  0  0  0  0
   -2.1610    0.3420    0.3770 C   0  0  0  0  0  0  0  0  0  0  0  0
   -3.1270    1.1210    0.7660 O   0  0  0  0  0  0  0  0  0  0  0  0
   -2.5560   -0.9470    0.1710 O   0  0  0  0  0  0  0  0  0  0  0  0
   -3.8740   -1.4100    0.3540 C   0  0  0  0  0  0  0  0  0  0  0  0
    0.2940    0.1490   -0.2050 C   0  0  0  0  0  0  0  0  0  0  0  0
    0.2710   -1.1550   -0.4990 C   0  0  0  0  0  0  0  0  0  0  0  0
    1.5370   -1.8360   -0.9320 C   0  0  0  0  0  0  0  0  0  0  0  0
    2.7040   -1.4220   -0.1090 C   0  0  0  0  0  0  0  0  0  0  0  0
    2.7030    0.0430    0.1610 C   0  0  0  0  0  0  0  0  0  0  0  0
    1.5750    0.7080   -0.3560 O   0  0  0  0  0  0  0  0  0  0  0  0
  1  2  1  0
  2  3  2  3
  3  4  1  0
  3  8  1  0
  4  5  2  0
  4  6  1  0
  6  7  1  0
  8  9  2  0
  8 13  1  0
  9 10  1  0
 10 11  1  0
 11 12  1  0
 12 13  1  0
M  END
