
     RDKit          3D

 18 19  0  0  0  0  0  0  0  0999 V2000
   -3.9610    1.3250   -0.6730 C   0  0  0  0  0  0  0  0  0  0  0  0
   -2.6440    1.5040    0.0890 C   0  0  0  0  0  0  0  0  0  0  0  0
   -1.9790    0.1420    0.1040 C   0  0  0  0  0  0  0  0  0  0  0  0
   -0.6740    0.1620    0.8240 C   0  0  2  0  0  0  0  0  0  0  0  0
    0.3050    1.0780    0.2380 C   0  0  0  0  0  0  0  0  0  0  0  0
    0.2360    2.3200    0.1310 O   0  0  0  0  0  0  0  0  0  0  0  0
    1.4060    0.2930   -0.2160 N   0  0  0  0  0  0  0  0  0  0  0  0
    2.5860    0.8230   -0.8660 C   0  0  0  0  0  0  0  0  0  0  0  0
    3.6230    1.1570    0.1840 C   0  0  0  0  0  0  0  0  0  0  0  0
    3.1820    2.0920    1.0910 O   0  0  0  0  0  0  0  0  0  0  0  0
    1.1170   -1.0580    0.0890 C   0  0  0  0  0  0  0  0  0  0  0  0
    1.8230   -2.1730   -0.1240 N   0  0  0  0  0  0  0  0  0  0  0  0
    1.4210   -3.3760    0.2230 N   0  0  0  0  0  0  0  0  0  0  0  0
    0.2330   -3.4870    0.8270 C   0  0  0  0  0  0  0  0  0  0  0  0
   -0.1380   -4.6490    1.1550 O   0  0  0  0  0  0  0  0  0  0  0  0
   -0.5350   -2.3660    1.0710 C   0  0  0  0  0  0  0  0  0  0  0  0
   -1.6410   -2.5470    1.6430 O   0  0  0  0  0  0  0  0  0  0  0  0
   -0.0830   -1.1580    0.6970 N   0  0  0  0  0  0  0  0  0  0  0  0
  1  2  1  0
  2  3  1  0
  4  3  1  6
  4  5  1  0
  4 18  1  0
  5  6  2  0
  5  7  1  0
  7  8  1  0
  7 11  1  0
  8  9  1  0
  9 10  1  0
 11 12  2  0
 11 18  1  0
 12 13  1  0
 13 14  1  0
 14 15  2  0
 14 16  1  0
 16 17  2  0
 16 18  1  0
M  END
