
     RDKit          3D

 18 19  0  0  0  0  0  0  0  0999 V2000
   -2.4910   -2.0780    0.8750 C   0  0  0  0  0  0  0  0  0  0  0  0
   -2.4470   -1.1120   -0.2070 N   0  0  0  0  0  0  0  0  0  0  0  0
   -3.7280   -0.4300   -0.2200 C   0  0  0  0  0  0  0  0  0  0  0  0
   -3.4360    0.9530    0.3530 C   0  0  2  0  0  0  0  0  0  0  0  0
   -4.3850    1.8810    0.0230 O   0  0  0  0  0  0  0  0  0  0  0  0
   -2.0890    1.2150   -0.3000 C   0  0  0  0  0  0  0  0  0  0  0  0
   -1.4320   -0.1280   -0.0110 C   0  0  2  0  0  0  0  0  0  0  0  0
   -0.2200   -0.3440   -0.8200 C   0  0  0  0  0  0  0  0  0  0  0  0
   -0.0990   -1.3130   -1.6110 O   0  0  0  0  0  0  0  0  0  0  0  0
    0.8420    0.5920   -0.6840 N   0  0  0  0  0  0  0  0  0  0  0  0
    2.0340    0.5060   -1.3840 N   0  0  0  0  0  0  0  0  0  0  0  0
    3.1680    0.3130   -0.8170 C   0  0  0  0  0  0  0  0  0  0  0  0
    4.4230    0.2220   -1.5390 C   0  0  0  0  0  0  0  0  0  0  0  0
    5.5380    0.0290   -0.9520 N   0  0  0  0  0  0  0  0  0  0  0  0
    5.6760   -0.1160    0.4680 C   0  0  0  0  0  0  0  0  0  0  0  0
    4.4750   -0.0310    1.1890 O   0  0  0  0  0  0  0  0  0  0  0  0
    3.2260    0.1760    0.6280 C   0  0  0  0  0  0  0  0  0  0  0  0
    2.2230    0.2340    1.3680 O   0  0  0  0  0  0  0  0  0  0  0  0
  1  2  1  0
  2  3  1  0
  2  7  1  0
  3  4  1  0
  4  5  1  6
  4  6  1  0
  6  7  1  0
  7  8  1  6
  8  9  2  0
  8 10  1  0
 10 11  1  0
 11 12  2  3
 12 13  1  0
 12 17  1  0
 13 14  2  0
 14 15  1  0
 15 16  1  0
 16 17  1  0
 17 18  2  0
M  END
