
     RDKit          3D

 18 19  0  0  0  0  0  0  0  0999 V2000
    4.5420   -1.4560    0.5030 C   0  0  0  0  0  0  0  0  0  0  0  0
    3.3200   -0.8050    0.2960 O   0  0  0  0  0  0  0  0  0  0  0  0
    3.6050    0.4000   -0.3220 C   0  0  0  0  0  0  0  0  0  0  0  0
    2.3350    1.1220   -0.5600 C   0  0  0  0  0  0  0  0  0  0  0  0
    2.3450    2.2510   -1.1140 O   0  0  0  0  0  0  0  0  0  0  0  0
    1.1050    0.5330   -0.1580 N   0  0  0  0  0  0  0  0  0  0  0  0
   -0.1410    1.2360   -0.3890 C   0  0  2  0  0  0  0  0  0  0  0  0
   -0.7600    1.6190    0.9180 C   0  0  0  0  0  0  0  0  0  0  0  0
   -1.1870    0.3640    1.6400 C   0  0  0  0  0  0  0  0  0  0  0  0
   -2.2680   -0.2520    0.8360 C   0  0  0  0  0  0  0  0  0  0  0  0
   -3.3100   -0.8300    1.4340 N   0  0  0  0  0  0  0  0  0  0  0  0
   -4.2840   -1.3850    0.7320 N   0  0  0  0  0  0  0  0  0  0  0  0
   -4.2110   -1.3580   -0.6090 C   0  0  0  0  0  0  0  0  0  0  0  0
   -5.1120   -1.8720   -1.3210 O   0  0  0  0  0  0  0  0  0  0  0  0
   -3.1400   -0.7640   -1.2250 C   0  0  0  0  0  0  0  0  0  0  0  0
   -3.0720   -0.7400   -2.5000 O   0  0  0  0  0  0  0  0  0  0  0  0
   -2.1540   -0.2030   -0.4900 N   0  0  0  0  0  0  0  0  0  0  0  0
   -1.0700    0.3970   -1.2000 C   0  0  0  0  0  0  0  0  0  0  0  0
  1  2  1  0
  2  3  1  0
  3  4  1  0
  4  5  2  0
  4  6  1  0
  7  6  1  1
  7  8  1  0
  7 18  1  0
  8  9  1  0
  9 10  1  0
 10 11  2  0
 10 17  1  0
 11 12  1  0
 12 13  1  0
 13 14  2  0
 13 15  1  0
 15 16  2  0
 15 17  1  0
 17 18  1  0
M  END
