
     RDKit          3D

 18 19  0  0  0  0  0  0  0  0999 V2000
   -1.2050    2.0300   -1.0930 C   0  0  0  0  0  0  0  0  0  0  0  0
   -1.1600    0.8520   -0.2520 N   0  0  0  0  0  0  0  0  0  0  0  0
    0.0920    0.2390    0.0030 C   0  0  0  0  0  0  0  0  0  0  0  0
    0.2110   -0.7890    0.7250 O   0  0  0  0  0  0  0  0  0  0  0  0
    1.3340    0.7940   -0.5780 C   0  0  0  0  0  0  0  0  0  0  0  0
    2.5030    0.0290   -0.2000 N   0  0  0  0  0  0  0  0  0  0  0  0
    3.1010   -1.1210   -0.8930 C   0  0  0  0  0  0  0  0  0  0  0  0
    4.5610   -1.0230   -0.5530 C   0  0  0  0  0  0  0  0  0  0  0  0
    5.5250   -1.3920   -1.2410 O   0  0  0  0  0  0  0  0  0  0  0  0
    4.5960   -0.4170    0.7260 N   0  0  0  0  0  0  0  0  0  0  0  0
    3.3390    0.2240    0.9390 C   0  0  0  0  0  0  0  0  0  0  0  0
    3.0500    0.8520    1.9770 O   0  0  0  0  0  0  0  0  0  0  0  0
   -2.3990    0.3630    0.2820 C   0  0  2  0  0  0  0  0  0  0  0  0
   -2.3980    0.2570    1.7930 C   0  0  0  0  0  0  0  0  0  0  0  0
   -3.6000   -0.6740    2.0040 C   0  0  0  0  0  0  0  0  0  0  0  0
   -3.4810   -1.5980    0.8750 N   0  0  0  0  0  0  0  0  0  0  0  0
   -2.5950   -1.0610   -0.1010 C   0  0  0  0  0  0  0  0  0  0  0  0
   -2.1090   -1.7020   -1.0690 O   0  0  0  0  0  0  0  0  0  0  0  0
  1  2  1  0
  2  3  1  0
 13  2  1  6
  3  4  2  0
  3  5  1  0
  5  6  1  0
  6  7  1  0
  6 11  1  0
  7  8  1  0
  8  9  2  0
  8 10  1  0
 10 11  1  0
 11 12  2  0
 13 14  1  0
 13 17  1  0
 14 15  1  0
 15 16  1  0
 16 17  1  0
 17 18  2  0
M  END
