
     RDKit          3D

 18 19  0  0  0  0  0  0  0  0999 V2000
   -3.1070    3.0090   -1.5860 C   0  0  0  0  0  0  0  0  0  0  0  0
   -3.1340    1.6160   -1.6560 O   0  0  0  0  0  0  0  0  0  0  0  0
   -2.3070    0.8990   -0.7630 C   0  0  0  0  0  0  0  0  0  0  0  0
   -1.2630    1.5280   -0.3870 N   0  0  0  0  0  0  0  0  0  0  0  0
   -0.2720    1.0880    0.4780 N   0  0  0  0  0  0  0  0  0  0  0  0
    0.9870    0.5810   -0.0350 C   0  0  0  0  0  0  0  0  0  0  0  0
    1.0850    0.5800   -1.2830 O   0  0  0  0  0  0  0  0  0  0  0  0
    1.9950    0.1340    0.8540 N   0  0  0  0  0  0  0  0  0  0  0  0
    3.2260   -0.3630    0.3590 C   0  0  0  0  0  0  0  0  0  0  0  0
    3.6160   -0.4860   -0.8890 C   0  0  0  0  0  0  0  0  0  0  0  0
    4.9920   -1.0590   -0.8530 C   0  0  0  0  0  0  0  0  0  0  0  0
    5.2710   -1.2190    0.5290 N   0  0  0  0  0  0  0  0  0  0  0  0
    4.2950   -0.8350    1.2460 C   0  0  0  0  0  0  0  0  0  0  0  0
   -2.6800   -0.4490   -0.3470 C   0  0  0  0  0  0  0  0  0  0  0  0
   -2.0400   -1.2610    0.4700 C   0  0  0  0  0  0  0  0  0  0  0  0
   -2.7330   -2.4700    0.6070 O   0  0  0  0  0  0  0  0  0  0  0  0
   -4.0470   -2.2260    0.1490 C   0  0  0  0  0  0  0  0  0  0  0  0
   -3.8080   -1.1340   -0.7520 O   0  0  0  0  0  0  0  0  0  0  0  0
  1  2  1  0
  2  3  1  0
  3  4  2  3
  3 14  1  0
  4  5  1  0
  5  6  1  0
  6  7  2  0
  6  8  1  0
  8  9  1  0
  9 10  2  0
  9 13  1  0
 10 11  1  0
 11 12  1  0
 12 13  2  0
 14 15  2  0
 14 18  1  0
 15 16  1  0
 16 17  1  0
 17 18  1  0
M  END
