
     RDKit          3D

 18 19  0  0  0  0  0  0  0  0999 V2000
    0.8730    1.3750   -2.1850 C   0  0  0  0  0  0  0  0  0  0  0  0
    1.5430    0.7280   -1.0530 C   0  0  0  0  0  0  0  0  0  0  0  0
    0.8980    0.2470   -0.0190 C   0  0  0  0  0  0  0  0  0  0  0  0
   -0.4650    0.3090    0.1120 N   0  0  0  0  0  0  0  0  0  0  0  0
   -1.2460    1.3970   -0.4300 C   0  0  0  0  0  0  0  0  0  0  0  0
   -0.8450    2.5710   -0.4500 O   0  0  0  0  0  0  0  0  0  0  0  0
   -2.6170    1.0930   -0.9860 C   0  0  0  0  0  0  0  0  0  0  0  0
   -3.3250    0.6200    0.2210 N   0  0  0  0  0  0  0  0  0  0  0  0
   -2.5560   -0.1160    1.1630 C   0  0  0  0  0  0  0  0  0  0  0  0
   -2.9180   -0.2150    2.3650 O   0  0  0  0  0  0  0  0  0  0  0  0
   -1.3210   -0.7490    0.6460 C   0  0  2  0  0  0  0  0  0  0  0  0
   -0.7480   -1.8240    1.4520 C   0  0  0  0  0  0  0  0  0  0  0  0
    1.6350   -0.2870    1.1710 C   0  0  0  0  0  0  0  0  0  0  0  0
    1.1720   -0.0310    2.3140 O   0  0  0  0  0  0  0  0  0  0  0  0
    2.8250   -1.0650    1.1540 N   0  0  0  0  0  0  0  0  0  0  0  0
    3.8890   -0.9470    0.1770 C   0  0  0  0  0  0  0  0  0  0  0  0
    3.8960   -0.1670   -0.8460 N   0  0  0  0  0  0  0  0  0  0  0  0
    2.9650    0.7230   -1.2840 O   0  0  0  0  0  0  0  0  0  0  0  0
  1  2  1  0
  2  3  2  0
  2 18  1  0
  3  4  1  0
  3 13  1  0
  4  5  1  0
  4 11  1  0
  5  6  2  0
  5  7  1  0
  7  8  1  0
  8  9  1  0
  9 10  2  0
  9 11  1  0
 11 12  1  1
 13 14  2  0
 13 15  1  0
 15 16  1  0
 16 17  2  0
 17 18  1  0
M  END
