
     RDKit          3D

 18 19  0  0  0  0  0  0  0  0999 V2000
   -4.1040   -1.6790   -0.5200 C   0  0  0  0  0  0  0  0  0  0  0  0
   -2.5630   -1.4580   -0.5010 C   0  0  0  0  0  0  0  0  0  0  0  0
   -2.3140   -0.1070    0.0660 C   0  0  0  0  0  0  0  0  0  0  0  0
   -3.3230    0.5770    0.4510 N   0  0  0  0  0  0  0  0  0  0  0  0
   -3.3450    1.8820    1.0210 C   0  0  0  0  0  0  0  0  0  0  0  0
   -2.0750    2.4380    1.1880 O   0  0  0  0  0  0  0  0  0  0  0  0
   -0.9200    1.7760    0.8000 C   0  0  0  0  0  0  0  0  0  0  0  0
    0.1760    2.3440    0.9670 O   0  0  0  0  0  0  0  0  0  0  0  0
   -0.9700    0.4250    0.1980 C   0  0  0  0  0  0  0  0  0  0  0  0
    0.1400   -0.1890   -0.1800 C   0  0  0  0  0  0  0  0  0  0  0  0
    0.3690   -1.4430   -0.7810 N   0  0  0  0  0  0  0  0  0  0  0  0
    1.7820   -1.6080   -0.9670 N   0  0  0  0  0  0  0  0  0  0  0  0
    2.4160   -0.5970   -0.5460 C   0  0  0  0  0  0  0  0  0  0  0  0
    3.8760   -0.3750   -0.5560 C   0  0  0  0  0  0  0  0  0  0  0  0
    4.6000   -1.2780   -1.0310 O   0  0  0  0  0  0  0  0  0  0  0  0
    4.4530    0.7640   -0.0710 O   0  0  0  0  0  0  0  0  0  0  0  0
    5.8660    0.8870   -0.1230 C   0  0  0  0  0  0  0  0  0  0  0  0
    1.4490    0.3550   -0.0290 N   0  0  0  0  0  0  0  0  0  0  0  0
  1  2  1  0
  2  3  1  0
  3  4  2  0
  3  9  1  0
  4  5  1  0
  5  6  1  0
  6  7  1  0
  7  8  2  0
  7  9  1  0
  9 10  2  3
 10 11  1  0
 10 18  1  0
 11 12  1  0
 12 13  2  0
 13 14  1  0
 13 18  1  0
 14 15  2  0
 14 16  1  0
 16 17  1  0
M  END
