
     RDKit          3D

 19 21  0  0  0  0  0  0  0  0999 V2000
   -4.2240    0.9870   -0.9320 C   0  0  0  0  0  0  0  0  0  0  0  0
   -3.0730    0.3120   -0.2510 C   0  0  0  0  0  0  0  0  0  0  0  0
   -1.8380    0.1990   -0.8480 C   0  0  0  0  0  0  0  0  0  0  0  0
   -0.7710   -0.4330   -0.2050 C   0  0  0  0  0  0  0  0  0  0  0  0
    0.5170   -0.5550   -0.8730 C   0  0  0  0  0  0  0  0  0  0  0  0
    0.5170   -1.1540   -2.1170 C   0  0  0  0  0  0  0  0  0  0  0  0
    1.6640   -1.3560   -2.8340 C   0  0  0  0  0  0  0  0  0  0  0  0
    2.8220   -0.9390   -2.2690 N   0  0  0  0  0  0  0  0  0  0  0  0
    2.8630   -0.3550   -1.0670 C   0  0  0  0  0  0  0  0  0  0  0  0
    4.1040    0.0410   -0.5850 C   0  0  0  0  0  0  0  0  0  0  0  0
    4.1450    0.6520    0.6500 C   0  0  0  0  0  0  0  0  0  0  0  0
    5.3820    1.0640    1.1670 O   0  0  0  0  0  0  0  0  0  0  0  0
    2.9770    0.8470    1.3570 C   0  0  0  0  0  0  0  0  0  0  0  0
    1.7300    0.4570    0.8880 C   0  0  0  0  0  0  0  0  0  0  0  0
    1.7080   -0.1520   -0.3460 C   0  0  0  0  0  0  0  0  0  0  0  0
   -1.0200   -0.9330    1.0510 C   0  0  0  0  0  0  0  0  0  0  0  0
   -2.2640   -0.8200    1.6580 C   0  0  0  0  0  0  0  0  0  0  0  0
   -3.3100   -0.1940    1.0110 C   0  0  0  0  0  0  0  0  0  0  0  0
   -4.5580   -0.0820    1.6220 O   0  0  0  0  0  0  0  0  0  0  0  0
  1  2  1  0
  2  3  2  0
  2 18  1  0
  3  4  1  0
  4  5  1  0
  4 16  2  0
  5  6  2  0
  5 15  1  0
  6  7  1  0
  7  8  2  0
  8  9  1  0
  9 10  2  0
  9 15  1  0
 10 11  1  0
 11 12  1  0
 11 13  2  0
 13 14  1  0
 14 15  2  0
 16 17  1  0
 17 18  2  0
 18 19  1  0
M  END
