
     RDKit          3D

 18 19  0  0  0  0  0  0  0  0999 V2000
    0.4730   -3.2180    0.7170 C   0  0  0  0  0  0  0  0  0  0  0  0
   -0.4000   -2.0890    0.4410 N   0  0  0  0  0  0  0  0  0  0  0  0
   -1.8270   -2.2980    0.3190 C   0  0  0  0  0  0  0  0  0  0  0  0
   -2.3630   -1.1760   -0.0310 C   0  0  0  0  0  0  0  0  0  0  0  0
   -1.3730   -0.1320   -0.1680 N   0  0  0  0  0  0  0  0  0  0  0  0
   -1.7370    1.2050   -0.4990 C   0  0  0  0  0  0  0  0  0  0  0  0
   -2.1580    1.3960   -1.9220 C   0  0  0  0  0  0  0  0  0  0  0  0
   -2.4780    2.7660   -2.0660 O   0  0  0  0  0  0  0  0  0  0  0  0
   -0.1030   -0.7440    0.1410 C   0  0  0  0  0  0  0  0  0  0  0  0
    1.0420   -0.0710    0.3050 C   0  0  0  0  0  0  0  0  0  0  0  0
    1.1500    1.3070   -0.1230 N   0  0  0  0  0  0  0  0  0  0  0  0
    2.2240    2.1660    0.1890 C   0  0  0  0  0  0  0  0  0  0  0  0
    2.2450    3.3470   -0.2130 O   0  0  0  0  0  0  0  0  0  0  0  0
    3.3180    1.6750    0.9860 C   0  0  0  0  0  0  0  0  0  0  0  0
    4.3070    2.4130    1.2920 O   0  0  0  0  0  0  0  0  0  0  0  0
    3.2940    0.3480    1.4380 N   0  0  0  0  0  0  0  0  0  0  0  0
    2.1610   -0.5170    1.0990 C   0  0  0  0  0  0  0  0  0  0  0  0
    2.2790   -1.6610    1.5770 O   0  0  0  0  0  0  0  0  0  0  0  0
  1  2  1  0
  2  3  1  0
  2  9  1  0
  3  4  2  0
  4  5  1  0
  5  6  1  0
  5  9  1  0
  6  7  1  0
  7  8  1  0
  9 10  2  3
 10 11  1  0
 10 17  1  0
 11 12  1  0
 12 13  2  0
 12 14  1  0
 14 15  2  0
 14 16  1  0
 16 17  1  0
 17 18  2  0
M  END
