
     RDKit          3D

 26 28  0  0  0  0  0  0  0  0999 V2000
   -4.3550    0.3650   -1.1460 C   0  0  0  0  0  0  0  0  0  0  0  0
   -4.4290   -0.2530    0.2530 C   0  0  1  0  0  0  0  0  0  0  0  0
   -4.1580    0.7300    1.2990 C   0  0  0  0  0  0  0  0  0  0  0  0
   -2.9130    1.4050    1.4120 N   0  0  0  0  0  0  0  0  0  0  0  0
   -5.0510    0.9990    2.1410 O   0  0  0  0  0  0  0  0  0  0  0  0
   -5.7730   -0.7770    0.3840 N   0  0  0  0  0  0  0  0  0  0  0  0
   -5.9870   -2.1100   -0.0530 C   0  0  0  0  0  0  0  0  0  0  0  0
   -7.0560   -2.7450    0.2080 O   0  0  0  0  0  0  0  0  0  0  0  0
   -4.9620   -2.8150   -0.8370 C   0  0  0  0  0  0  0  0  0  0  0  0
   -3.7260   -2.2180   -0.8140 O   0  0  0  0  0  0  0  0  0  0  0  0
   -3.5040   -1.4630    0.3360 C   0  0  1  0  0  0  0  0  0  0  0  0
   -2.0840   -1.0930    0.3670 C   0  0  0  0  0  0  0  0  0  0  0  0
   -1.1520   -1.1020    1.3420 C   0  0  0  0  0  0  0  0  0  0  0  0
    0.0960   -0.7010    1.0810 C   0  0  0  0  0  0  0  0  0  0  0  0
    0.3720   -0.2880   -0.2100 C   0  0  0  0  0  0  0  0  0  0  0  0
    1.5750    0.1970   -0.8350 N   0  0  0  0  0  0  0  0  0  0  0  0
    2.8140    0.3540   -0.1810 C   0  0  0  0  0  0  0  0  0  0  0  0
    2.8740    0.0480    1.0410 O   0  0  0  0  0  0  0  0  0  0  0  0
    3.9720    0.8390   -0.8510 N   0  0  0  0  0  0  0  0  0  0  0  0
    5.2070    0.9780   -0.1340 C   0  0  1  0  0  0  0  0  0  0  0  0
    6.3640    0.3030   -0.8050 C   0  0  0  0  0  0  0  0  0  0  0  0
    7.5020    1.1570   -0.6700 N   0  0  0  0  0  0  0  0  0  0  0  0
    7.0020    2.4000   -0.1770 C   0  0  0  0  0  0  0  0  0  0  0  0
    7.7570    3.3240    0.2200 O   0  0  0  0  0  0  0  0  0  0  0  0
    5.5820    2.3960   -0.2160 N   0  0  0  0  0  0  0  0  0  0  0  0
   -1.1680   -0.4860   -1.0090 S   0  0  0  0  0  0  0  0  0  0  0  0
  2  1  1  6
  2  3  1  0
  2  6  1  0
  2 11  1  0
  3  4  1  0
  3  5  2  0
  6  7  1  0
  7  8  2  0
  7  9  1  0
  9 10  1  0
 10 11  1  0
 11 12  1  6
 12 13  2  0
 12 26  1  0
 13 14  1  0
 14 15  2  0
 15 16  1  0
 15 26  1  0
 16 17  1  0
 17 18  2  0
 17 19  1  0
 20 19  1  6
 20 21  1  0
 20 25  1  0
 21 22  1  0
 22 23  1  0
 23 24  2  0
 23 25  1  0
M  CHG  1  22   1
M  END
