
     RDKit          3D

 26 27  0  0  0  0  0  0  0  0999 V2000
   -4.8680    1.4140    0.9400 N   0  0  0  0  0  0  0  0  0  0  0  0
   -3.9250    1.1000   -0.0500 C   0  0  0  0  0  0  0  0  0  0  0  0
   -3.4910    1.9540   -0.8410 O   0  0  0  0  0  0  0  0  0  0  0  0
   -3.4100   -0.3490   -0.1470 C   0  0  2  0  0  0  0  0  0  0  0  0
   -2.1080   -0.3190   -0.6470 N   0  0  0  0  0  0  0  0  0  0  0  0
   -1.0150    0.2450    0.2330 C   0  0  0  0  0  0  0  0  0  0  0  0
   -1.3610    0.6480    1.2890 O   0  0  0  0  0  0  0  0  0  0  0  0
    0.1930    0.1440   -0.4680 N   0  0  0  0  0  0  0  0  0  0  0  0
    1.1790    0.9900    0.7020 C   0  0  0  0  0  0  0  0  0  0  0  0
    0.5430    1.4100    1.5910 O   0  0  0  0  0  0  0  0  0  0  0  0
    2.5000    0.9930    0.3410 N   0  0  0  0  0  0  0  0  0  0  0  0
    3.4080    1.7600    1.2310 C   0  0  0  0  0  0  0  0  0  0  0  0
    4.1060    0.6980    2.0580 C   0  0  0  0  0  0  0  0  0  0  0  0
    4.1550   -0.5160    1.4160 O   0  0  0  0  0  0  0  0  0  0  0  0
    4.9770   -0.5870    0.3250 C   0  0  2  0  0  0  0  0  0  0  0  0
    6.4310   -0.2330    0.6380 C   0  0  0  0  0  0  0  0  0  0  0  0
    7.2380   -0.3480   -0.5340 N   0  0  0  0  0  0  0  0  0  0  0  0
    4.4870    0.1920   -0.8730 C   0  0  0  0  0  0  0  0  0  0  0  0
    2.9590    0.2640   -0.7990 C   0  0  0  0  0  0  0  0  0  0  0  0
   -4.3210   -1.0820   -1.0970 C   0  0  2  0  0  0  0  0  0  0  0  0
   -4.2560   -0.3980   -2.4110 N   0  0  0  0  0  0  0  0  0  0  0  0
   -5.7060   -1.0300   -0.6240 C   0  0  0  0  0  0  0  0  0  0  0  0
   -6.7260   -0.4470   -1.1930 C   0  0  0  0  0  0  0  0  0  0  0  0
   -7.9140   -0.5220   -0.5760 O   0  0  0  0  0  0  0  0  0  0  0  0
   -7.9410   -0.8120    0.7960 C   0  0  0  0  0  0  0  0  0  0  0  0
   -6.3390   -1.7300    0.8840 S   0  0  0  0  0  0  0  0  0  0  0  0
  1  2  1  0
  2  3  2  0
  2  4  1  0
  4  5  1  6
  4 20  1  0
  5  6  1  0
  6  7  2  0
  6  8  1  0
  8  9  1  0
  9 10  2  0
  9 11  1  0
 11 12  1  0
 11 19  1  0
 12 13  1  0
 13 14  1  0
 14 15  1  0
 15 16  1  1
 15 18  1  0
 16 17  1  0
 18 19  1  0
 20 21  1  6
 20 22  1  0
 22 23  2  0
 22 26  1  0
 23 24  1  0
 24 25  1  0
 25 26  1  0
M  CHG  1  17   1
M  END
