
     RDKit          3D

 26 27  0  0  0  0  0  0  0  0999 V2000
   -7.0330   -0.0190   -1.3460 C   0  0  0  0  0  0  0  0  0  0  0  0
   -6.9630    0.7500   -0.2190 O   0  0  0  0  0  0  0  0  0  0  0  0
   -6.1550    1.8470   -0.3100 C   0  0  0  0  0  0  0  0  0  0  0  0
   -4.7310    1.4940   -0.4460 C   0  0  0  0  0  0  0  0  0  0  0  0
   -3.9490    2.4700   -0.7800 O   0  0  0  0  0  0  0  0  0  0  0  0
   -4.1970    0.2070   -0.2370 N   0  0  0  0  0  0  0  0  0  0  0  0
   -2.7910    0.0160   -0.4150 C   0  0  0  0  0  0  0  0  0  0  0  0
   -2.1100   -1.0990   -0.2680 C   0  0  0  0  0  0  0  0  0  0  0  0
   -2.7580   -2.3600    0.1250 N   0  0  0  0  0  0  0  0  0  0  0  0
   -0.6760   -1.0110   -0.5410 C   0  0  0  0  0  0  0  0  0  0  0  0
   -0.1520    0.3560   -0.1680 C   0  0  2  0  0  0  0  0  0  0  0  0
    1.0030    0.7380   -0.9110 N   0  0  0  0  0  0  0  0  0  0  0  0
    2.1300    1.2760   -0.2350 C   0  0  0  0  0  0  0  0  0  0  0  0
    2.8580    2.1510   -0.8190 O   0  0  0  0  0  0  0  0  0  0  0  0
    2.4110    0.7890    1.1370 C   0  0  2  0  0  0  0  0  0  0  0  0
    3.4570    1.6620    1.7650 C   0  0  0  0  0  0  0  0  0  0  0  0
    2.8850   -0.6550    1.0590 C   0  0  0  0  0  0  0  0  0  0  0  0
    4.1170   -0.7210    0.2390 C   0  0  0  0  0  0  0  0  0  0  0  0
    4.6510    0.3000   -0.2880 O   0  0  0  0  0  0  0  0  0  0  0  0
    4.7780   -1.9670   -0.0010 N   0  0  0  0  0  0  0  0  0  0  0  0
    5.9860   -2.0140   -0.8070 C   0  0  0  0  0  0  0  0  0  0  0  0
    7.0490   -1.1970   -0.2230 N   0  0  0  0  0  0  0  0  0  0  0  0
    1.1770    0.8790    1.8920 N   0  0  0  0  0  0  0  0  0  0  0  0
   -0.0680    0.5740    1.2760 C   0  0  0  0  0  0  0  0  0  0  0  0
   -1.1060    0.4890    1.9660 O   0  0  0  0  0  0  0  0  0  0  0  0
   -1.5990    1.2910   -0.8600 S   0  0  0  0  0  0  0  0  0  0  0  0
  1  2  1  0
  2  3  1  0
  3  4  1  0
  4  5  2  0
  4  6  1  0
  6  7  1  0
  7  8  2  0
  7 26  1  0
  8  9  1  0
  8 10  1  0
 11 10  1  1
 11 12  1  0
 11 24  1  0
 11 26  1  0
 12 13  1  0
 13 14  2  0
 13 15  1  0
 15 16  1  1
 15 17  1  0
 15 23  1  0
 17 18  1  0
 18 19  2  0
 18 20  1  0
 20 21  1  0
 21 22  1  0
 23 24  1  0
 24 25  2  0
M  CHG  1   9   1
M  END
