
     RDKit          3D

 26 28  0  0  0  0  0  0  0  0999 V2000
   -7.9550    1.0860   -0.2380 N   0  0  0  0  0  0  0  0  0  0  0  0
   -6.5840    1.1750   -0.5960 C   0  0  0  0  0  0  0  0  0  0  0  0
   -6.1210    1.9570   -1.5870 N   0  0  0  0  0  0  0  0  0  0  0  0
   -4.8000    1.9980   -1.8790 C   0  0  0  0  0  0  0  0  0  0  0  0
   -3.8820    1.2720   -1.2090 N   0  0  0  0  0  0  0  0  0  0  0  0
   -4.3000    0.4810   -0.2140 C   0  0  0  0  0  0  0  0  0  0  0  0
   -5.6570    0.4240    0.1030 C   0  0  0  0  0  0  0  0  0  0  0  0
   -5.7460   -0.4390    1.1190 N   0  0  0  0  0  0  0  0  0  0  0  0
   -4.5360   -0.8910    1.4190 C   0  0  0  0  0  0  0  0  0  0  0  0
   -3.6060   -0.3310    0.5980 N   0  0  0  0  0  0  0  0  0  0  0  0
   -2.2150   -0.6220    0.6800 C   0  0  2  0  0  0  0  0  0  0  0  0
   -1.3990    0.3690    0.1440 O   0  0  0  0  0  0  0  0  0  0  0  0
   -0.1160   -0.2040    0.2270 C   0  0  2  0  0  0  0  0  0  0  0  0
    0.7530    0.5250   -0.7510 C   0  0  0  0  0  0  0  0  0  0  0  0
    2.4450   -0.0650   -0.7930 S   0  0  0  0  0  0  0  0  0  0  0  0
    3.3420    0.2470    0.7390 C   0  0  0  0  0  0  0  0  0  0  0  0
    4.7610   -0.2560    0.6720 C   0  0  0  0  0  0  0  0  0  0  0  0
    5.5930    0.3520   -0.4040 C   0  0  2  0  0  0  0  0  0  0  0  0
    6.9190   -0.2600   -0.3050 N   0  0  0  0  0  0  0  0  0  0  0  0
    5.7920    1.8120   -0.2830 C   0  0  0  0  0  0  0  0  0  0  0  0
    4.8050    2.5820   -0.3640 O   0  0  0  0  0  0  0  0  0  0  0  0
    7.0380    2.3840   -0.0810 O   0  0  0  0  0  0  0  0  0  0  0  0
   -0.2940   -1.6510   -0.1750 C   0  0  1  0  0  0  0  0  0  0  0  0
    0.2280   -2.5230    0.7790 O   0  0  0  0  0  0  0  0  0  0  0  0
   -1.8050   -1.8210   -0.1500 C   0  0  1  0  0  0  0  0  0  0  0  0
   -2.1730   -2.9850    0.5230 O   0  0  0  0  0  0  0  0  0  0  0  0
  1  2  1  0
  2  3  2  0
  2  7  1  0
  3  4  1  0
  4  5  2  0
  5  6  1  0
  6  7  2  0
  6 10  1  0
  7  8  1  0
  8  9  2  0
  9 10  1  0
 11 10  1  6
 11 12  1  0
 11 25  1  0
 12 13  1  0
 13 14  1  6
 13 23  1  0
 14 15  1  0
 15 16  1  0
 16 17  1  0
 17 18  1  0
 18 19  1  1
 18 20  1  0
 20 21  2  0
 20 22  1  0
 23 24  1  1
 23 25  1  0
 25 26  1  1
M  CHG  1  19   1
M  END
