
     RDKit          3D

 26 28  0  0  0  0  0  0  0  0999 V2000
   -0.3650   -0.0550    1.4300 C   0  0  0  0  0  0  0  0  0  0  0  0
    0.2580   -0.0800    0.0800 C   0  0  2  0  0  0  0  0  0  0  0  0
    1.7550   -0.0580    0.0860 C   0  0  0  0  0  0  0  0  0  0  0  0
    2.4960   -1.0850    0.8090 C   0  0  1  0  0  0  0  0  0  0  0  0
    2.2600   -2.5040    0.3590 C   0  0  0  0  0  0  0  0  0  0  0  0
    2.5590   -2.7140   -0.9800 O   0  0  0  0  0  0  0  0  0  0  0  0
    4.0060   -0.8580    0.7750 C   0  0  0  0  0  0  0  0  0  0  0  0
    4.5540    0.2040    1.3340 O   0  0  0  0  0  0  0  0  0  0  0  0
    4.4680    1.5300    1.2670 C   0  0  0  0  0  0  0  0  0  0  0  0
    3.5890    2.0550    2.0990 N   0  0  0  0  0  0  0  0  0  0  0  0
    5.1810    2.4510    0.4390 N   0  0  0  0  0  0  0  0  0  0  0  0
   -0.0800    1.2550   -0.5230 N   0  0  0  0  0  0  0  0  0  0  0  0
   -1.4120    1.4560   -0.6690 N   0  0  0  0  0  0  0  0  0  0  0  0
   -2.3910    0.3770   -0.7390 C   0  0  0  0  0  0  0  0  0  0  0  0
   -1.8000   -0.8410   -0.8630 C   0  0  0  0  0  0  0  0  0  0  0  0
   -3.1250   -1.9770   -0.9260 S   0  0  0  0  0  0  0  0  0  0  0  0
   -4.4200   -0.7540   -0.7820 C   0  0  0  0  0  0  0  0  0  0  0  0
   -5.8090   -0.8690   -0.7530 C   0  0  0  0  0  0  0  0  0  0  0  0
   -6.2920   -2.0210   -0.8410 O   0  0  0  0  0  0  0  0  0  0  0  0
   -6.5610    0.2340   -0.6350 N   0  0  0  0  0  0  0  0  0  0  0  0
   -5.8750    1.3950   -0.5530 C   0  0  0  0  0  0  0  0  0  0  0  0
   -6.6030    2.4380   -0.4410 O   0  0  0  0  0  0  0  0  0  0  0  0
   -4.5630    1.5150   -0.5790 N   0  0  0  0  0  0  0  0  0  0  0  0
   -3.7360    0.4110   -0.6990 C   0  0  0  0  0  0  0  0  0  0  0  0
   -0.2880   -1.0330   -0.9200 C   0  0  1  0  0  0  0  0  0  0  0  0
    0.1670   -0.5710   -2.1800 O   0  0  0  0  0  0  0  0  0  0  0  0
  2  1  1  1
  2  3  1  0
  2 12  1  0
  2 25  1  0
  4  3  1  6
  4  5  1  0
  4  7  1  0
  5  6  1  0
  7  8  1  0
  8  9  1  0
  9 10  2  0
  9 11  1  0
 12 13  1  0
 13 14  1  0
 14 15  2  0
 14 24  1  0
 15 16  1  0
 15 25  1  0
 16 17  1  0
 17 18  1  0
 17 24  2  0
 18 19  2  0
 18 20  1  0
 20 21  1  0
 21 22  2  0
 21 23  1  0
 23 24  1  0
 25 26  1  6
M  CHG  1  12   1
M  END
