
     RDKit          3D

 26 27  0  0  0  0  0  0  0  0999 V2000
    6.6120   -2.2170    1.0220 C   0  0  0  0  0  0  0  0  0  0  0  0
    5.8870   -1.1960    1.8600 C   0  0  1  0  0  0  0  0  0  0  0  0
    6.8290   -0.5980    2.7030 O   0  0  0  0  0  0  0  0  0  0  0  0
    5.2970   -0.1230    0.9880 C   0  0  0  0  0  0  0  0  0  0  0  0
    5.1250   -0.3110   -0.3690 C   0  0  0  0  0  0  0  0  0  0  0  0
    4.5780    0.6900   -1.1450 C   0  0  0  0  0  0  0  0  0  0  0  0
    4.2060    1.8730   -0.5540 C   0  0  0  0  0  0  0  0  0  0  0  0
    3.6300    2.9210   -1.3110 N   0  0  0  0  0  0  0  0  0  0  0  0
    2.2560    3.0860   -1.3250 N   0  0  0  0  0  0  0  0  0  0  0  0
    1.4040    1.9590   -1.3730 C   0  0  0  0  0  0  0  0  0  0  0  0
    1.8480    0.7840   -1.4070 O   0  0  0  0  0  0  0  0  0  0  0  0
   -0.0410    2.1370   -1.3850 C   0  0  0  0  0  0  0  0  0  0  0  0
   -0.5000    3.3160   -1.3450 O   0  0  0  0  0  0  0  0  0  0  0  0
   -0.8990    1.0140   -1.4400 N   0  0  0  0  0  0  0  0  0  0  0  0
   -2.3250    1.2170   -1.4470 C   0  0  1  0  0  0  0  0  0  0  0  0
   -3.0550    0.3830   -2.4560 C   0  0  0  0  0  0  0  0  0  0  0  0
   -3.1620    0.1080   -0.9760 C   0  0  2  0  0  0  0  0  0  0  0  0
   -4.6890    0.4160   -0.1250 S   0  0  0  0  0  0  0  0  0  0  0  0
   -4.5780    1.3690    1.0290 O   0  0  0  0  0  0  0  0  0  0  0  0
   -5.4810   -1.1260    0.3200 C   0  0  2  0  0  0  0  0  0  0  0  0
   -6.7730   -0.7990    1.0410 C   0  0  0  0  0  0  0  0  0  0  0  0
   -7.4780   -2.0040    1.4350 N   0  0  0  0  0  0  0  0  0  0  0  0
   -4.5430   -1.9150    1.1880 C   0  0  0  0  0  0  0  0  0  0  0  0
   -5.0860   -3.1370    1.5810 O   0  0  0  0  0  0  0  0  0  0  0  0
    4.3830    2.0410    0.7850 N   0  0  0  0  0  0  0  0  0  0  0  0
    4.9100    1.0550    1.4820 N   0  0  0  0  0  0  0  0  0  0  0  0
  2  1  1  6
  2  3  1  0
  2  4  1  0
  4  5  2  0
  4 26  1  0
  5  6  1  0
  6  7  2  0
  7  8  1  0
  7 25  1  0
  8  9  1  0
  9 10  1  0
 10 11  2  0
 10 12  1  0
 12 13  2  0
 12 14  1  0
 15 14  1  6
 15 16  1  0
 15 17  1  0
 17 16  1  6
 17 18  1  0
 18 19  2  0
 18 20  1  1
 20 21  1  1
 20 23  1  0
 21 22  1  0
 23 24  1  0
 25 26  2  0
M  CHG  1  25   1
M  END
