
     RDKit          3D

 26 27  0  0  0  0  0  0  0  0999 V2000
   -2.9790   -3.3110   -0.3250 C   0  0  0  0  0  0  0  0  0  0  0  0
   -2.5820   -2.1590    0.5410 C   0  0  2  0  0  0  0  0  0  0  0  0
   -1.1820   -2.3450    1.0880 C   0  0  0  0  0  0  0  0  0  0  0  0
   -3.4210   -2.1610    1.6550 O   0  0  0  0  0  0  0  0  0  0  0  0
   -3.4360   -0.8270    2.0560 C   0  0  0  0  0  0  0  0  0  0  0  0
   -3.6860   -0.2150    0.8520 O   0  0  0  0  0  0  0  0  0  0  0  0
   -2.7930   -0.8250   -0.0940 C   0  0  2  0  0  0  0  0  0  0  0  0
   -3.5860   -0.8190   -1.3630 C   0  0  0  0  0  0  0  0  0  0  0  0
   -3.9590    0.5660   -1.6320 N   0  0  0  0  0  0  0  0  0  0  0  0
   -1.5780   -0.0080   -0.1870 C   0  0  0  0  0  0  0  0  0  0  0  0
   -0.2990   -0.3170   -0.3510 N   0  0  0  0  0  0  0  0  0  0  0  0
    0.4350    0.8050   -0.2630 C   0  0  0  0  0  0  0  0  0  0  0  0
    1.9210    0.9090   -0.3490 C   0  0  2  0  0  0  0  0  0  0  0  0
    2.5020    0.4070   -1.4810 O   0  0  0  0  0  0  0  0  0  0  0  0
    2.6050    0.2410    0.8740 C   0  0  0  0  0  0  0  0  0  0  0  0
    4.3570    0.4860    0.6410 S   0  0  0  0  0  0  0  0  0  0  0  0
    5.2070   -0.5750   -0.4960 C   0  0  0  0  0  0  0  0  0  0  0  0
    5.7890   -1.8070    0.1640 C   0  0  0  0  0  0  0  0  0  0  0  0
    7.0690   -2.2360   -0.3200 N   0  0  0  0  0  0  0  0  0  0  0  0
    5.2010   -2.3920    1.0610 O   0  0  0  0  0  0  0  0  0  0  0  0
   -0.3720    1.8490   -0.0410 N   0  0  0  0  0  0  0  0  0  0  0  0
   -0.1120    3.2460    0.1640 C   0  0  0  0  0  0  0  0  0  0  0  0
   -0.1440    4.1190   -1.0180 C   0  0  0  0  0  0  0  0  0  0  0  0
   -0.0320    5.5340   -0.7430 N   0  0  0  0  0  0  0  0  0  0  0  0
   -0.2620    3.7680   -2.2000 O   0  0  0  0  0  0  0  0  0  0  0  0
   -1.5970    1.3210   -0.0010 N   0  0  0  0  0  0  0  0  0  0  0  0
  2  1  1  6
  2  3  1  0
  2  4  1  0
  2  7  1  0
  4  5  1  0
  5  6  1  0
  6  7  1  0
  7  8  1  6
  7 10  1  0
  8  9  1  0
 10 11  1  0
 10 26  2  0
 11 12  2  0
 12 13  1  0
 12 21  1  0
 13 14  1  6
 13 15  1  0
 15 16  1  0
 16 17  1  0
 17 18  1  0
 18 19  1  0
 18 20  2  0
 21 22  1  0
 21 26  1  0
 22 23  1  0
 23 24  1  0
 23 25  2  0
M  CHG  1   9   1
M  END
