
     RDKit          3D

 26 27  0  0  0  0  0  0  0  0999 V2000
    7.5080   -2.5820   -1.3030 N   0  0  0  0  0  0  0  0  0  0  0  0
    6.1680   -2.1530   -1.3190 C   0  0  0  0  0  0  0  0  0  0  0  0
    5.3370   -2.7280   -0.5720 O   0  0  0  0  0  0  0  0  0  0  0  0
    5.7520   -1.0290   -2.2140 C   0  0  0  0  0  0  0  0  0  0  0  0
    4.3310   -0.7720   -2.0510 N   0  0  0  0  0  0  0  0  0  0  0  0
    3.8570   -0.4160   -0.8210 C   0  0  0  0  0  0  0  0  0  0  0  0
    4.6830   -0.3060    0.1980 O   0  0  0  0  0  0  0  0  0  0  0  0
    2.6330   -0.1280   -0.3800 N   0  0  0  0  0  0  0  0  0  0  0  0
    1.3580    0.1410   -0.0520 C   0  0  0  0  0  0  0  0  0  0  0  0
    1.3300    0.4260    1.2220 O   0  0  0  0  0  0  0  0  0  0  0  0
    0.2000    0.1680   -0.7540 N   0  0  0  0  0  0  0  0  0  0  0  0
   -1.0540    0.5050   -0.1130 C   0  0  0  0  0  0  0  0  0  0  0  0
   -1.5610    1.6300   -0.5090 C   0  0  0  0  0  0  0  0  0  0  0  0
   -2.7340    2.3510   -0.1770 C   0  0  0  0  0  0  0  0  0  0  0  0
   -3.0090    3.5310   -0.7690 C   0  0  0  0  0  0  0  0  0  0  0  0
   -4.2620    4.2110   -0.3530 C   0  0  0  0  0  0  0  0  0  0  0  0
   -5.4760    3.3400   -0.5600 C   0  0  0  0  0  0  0  0  0  0  0  0
   -5.5570    2.2950    0.4500 N   0  0  0  0  0  0  0  0  0  0  0  0
   -3.9480    1.8360    0.9820 S   0  0  0  0  0  0  0  0  0  0  0  0
   -3.7380    2.4110    2.3670 O   0  0  0  0  0  0  0  0  0  0  0  0
   -1.5460   -0.4470    0.8230 C   0  0  0  0  0  0  0  0  0  0  0  0
   -2.6180   -0.3390    1.4970 O   0  0  0  0  0  0  0  0  0  0  0  0
   -0.8480   -1.6740    1.1050 N   0  0  0  0  0  0  0  0  0  0  0  0
   -1.3070   -2.6480    2.0380 C   0  0  2  0  0  0  0  0  0  0  0  0
   -0.2110   -3.1050    3.0190 C   0  0  0  0  0  0  0  0  0  0  0  0
   -0.8800   -4.0350    2.0630 C   0  0  0  0  0  0  0  0  0  0  0  0
  1  2  1  0
  2  3  2  0
  2  4  1  0
  4  5  1  0
  5  6  1  0
  6  7  2  0
  6  8  1  0
  8  9  1  0
  9 10  2  0
  9 11  1  0
 11 12  1  0
 12 13  2  3
 12 21  1  0
 13 14  1  0
 14 15  2  0
 14 19  1  0
 15 16  1  0
 16 17  1  0
 17 18  1  0
 19 18  1  6
 19 20  2  0
 21 22  2  0
 21 23  1  0
 24 23  1  6
 24 25  1  0
 24 26  1  0
 25 26  1  0
M  CHG  1  18   1
M  END
