
     RDKit          3D

 39 44  0  0  0  0  0  0  0  0999 V2000
    6.1290   -1.2170   -2.7520 C   0  0  0  0  0  0  0  0  0  0  0  0
    6.1680   -0.6020   -1.4100 C   0  0  0  0  0  0  0  0  0  0  0  0
    6.6050    0.6740   -1.2090 C   0  0  0  0  0  0  0  0  0  0  0  0
    6.6300    1.2250    0.0600 C   0  0  0  0  0  0  0  0  0  0  0  0
    7.0290    2.4050    0.2860 O   0  0  0  0  0  0  0  0  0  0  0  0
    6.2000    0.4480    1.1330 C   0  0  0  0  0  0  0  0  0  0  0  0
    5.7710   -0.8310    0.8610 C   0  0  0  0  0  0  0  0  0  0  0  0
    5.2960   -1.7210    1.9500 C   0  0  0  0  0  0  0  0  0  0  0  0
    3.9210   -1.9580    1.7570 O   0  0  0  0  0  0  0  0  0  0  0  0
    3.0510   -0.8890    1.7500 C   0  0  0  0  0  0  0  0  0  0  0  0
    1.6880   -1.1110    1.5620 C   0  0  0  0  0  0  0  0  0  0  0  0
    0.7860   -0.0710    1.5480 C   0  0  0  0  0  0  0  0  0  0  0  0
   -0.6560   -0.3540    1.3480 C   0  0  0  0  0  0  0  0  0  0  0  0
   -1.0210   -0.5650    0.0010 N   0  0  0  0  0  0  0  0  0  0  0  0
   -0.8040    0.4620   -0.9300 C   0  0  0  0  0  0  0  0  0  0  0  0
   -1.5810    1.6680   -0.5100 C   0  0  0  0  0  0  0  0  0  0  0  0
   -2.7300    1.7630    0.1960 C   0  0  0  0  0  0  0  0  0  0  0  0
   -3.2300    2.9990    0.4500 C   0  0  0  0  0  0  0  0  0  0  0  0
   -2.5490    4.0690   -0.0170 C   0  0  0  0  0  0  0  0  0  0  0  0
   -1.1830    3.3390   -0.8300 S   0  0  0  0  0  0  0  0  0  0  0  0
   -3.2160    5.3670    0.3420 C   0  0  0  0  0  0  0  0  0  0  0  0
   -3.9240    4.9100    1.6160 C   0  0  0  0  0  0  0  0  0  0  0  0
   -4.4510    3.5760    1.1710 C   0  0  0  0  0  0  0  0  0  0  0  0
   -1.8790   -1.6320   -0.3080 C   0  0  0  0  0  0  0  0  0  0  0  0
   -2.2040   -1.8030   -1.7720 C   0  0  1  0  0  0  0  0  0  0  0  0
   -0.9950   -2.0350   -2.5100 N   0  0  0  0  0  0  0  0  0  0  0  0
   -1.0740   -3.1570   -3.0630 N   0  0  0  0  0  0  0  0  0  0  0  0
   -2.2880   -3.7790   -2.7750 N   0  0  0  0  0  0  0  0  0  0  0  0
   -3.0010   -3.0240   -2.0120 C   0  0  0  0  0  0  0  0  0  0  0  0
   -4.3340   -3.3510   -1.5030 C   0  0  0  0  0  0  0  0  0  0  0  0
   -5.0780   -2.5500   -0.7010 N   0  0  0  0  0  0  0  0  0  0  0  0
   -6.2390   -3.1530   -0.4260 N   0  0  0  0  0  0  0  0  0  0  0  0
   -6.2360   -4.3340   -1.0490 C   0  0  0  0  0  0  0  0  0  0  0  0
   -7.1380   -5.1820   -1.0350 O   0  0  0  0  0  0  0  0  0  0  0  0
   -5.0710   -4.4390   -1.7000 N   0  0  0  0  0  0  0  0  0  0  0  0
    1.2770    1.2040    1.7290 C   0  0  0  0  0  0  0  0  0  0  0  0
    2.6430    1.4320    1.9180 C   0  0  0  0  0  0  0  0  0  0  0  0
    3.4760    0.3650    1.9210 N   0  0  0  0  0  0  0  0  0  0  0  0
    5.7740   -1.2860   -0.3580 O   0  0  0  0  0  0  0  0  0  0  0  0
  1  2  1  0
  2  3  2  0
  2 39  1  0
  3  4  1  0
  4  5  2  0
  4  6  1  0
  6  7  2  0
  7  8  1  0
  7 39  1  0
  8  9  1  0
  9 10  1  0
 10 11  2  0
 10 38  1  0
 11 12  1  0
 12 13  1  0
 12 36  2  0
 13 14  1  0
 14 15  1  0
 14 24  1  0
 15 16  1  0
 16 17  2  0
 16 20  1  0
 17 18  1  0
 18 19  2  0
 18 23  1  0
 19 20  1  0
 19 21  1  0
 21 22  1  0
 22 23  1  0
 25 24  1  1
 25 26  1  0
 25 29  1  0
 26 27  2  0
 27 28  1  0
 28 29  2  0
 29 30  1  0
 30 31  2  0
 30 35  1  0
 31 32  1  0
 32 33  1  0
 33 34  2  0
 33 35  1  0
 36 37  1  0
 37 38  2  0
M  END
