
     RDKit          3D

 44 47  0  0  0  0  0  0  0  0999 V2000
    5.4670   -2.6190    2.2830 C   0  0  0  0  0  0  0  0  0  0  0  0
    4.4150   -1.6600    1.8100 C   0  0  0  0  0  0  0  0  0  0  0  0
    5.0060   -0.7050    0.8270 C   0  0  0  0  0  0  0  0  0  0  0  0
    4.5410   -0.6180   -0.4080 C   0  0  0  0  0  0  0  0  0  0  0  0
    5.1700    0.3500   -1.3370 C   0  0  0  0  0  0  0  0  0  0  0  0
    6.2350    1.0540   -0.6700 N   0  0  0  0  0  0  0  0  0  0  0  0
    6.8210    2.0680   -1.5460 C   0  0  0  0  0  0  0  0  0  0  0  0
    7.2670    3.2420   -0.6950 C   0  0  0  0  0  0  0  0  0  0  0  0
    6.1330    3.7380   -0.0380 O   0  0  0  0  0  0  0  0  0  0  0  0
    3.5340   -1.4020   -0.8130 N   0  0  0  0  0  0  0  0  0  0  0  0
    2.4090   -1.7750   -0.9770 C   0  0  0  0  0  0  0  0  0  0  0  0
    1.1200   -1.0620   -0.5080 C   0  0  0  0  0  0  0  0  0  0  0  0
    1.3260    0.0540    0.1280 C   0  0  0  0  0  0  0  0  0  0  0  0
    0.5470    1.1040    0.7740 C   0  0  0  0  0  0  0  0  0  0  0  0
    1.0640    1.6020    2.0030 C   0  0  0  0  0  0  0  0  0  0  0  0
    0.4980    2.5780    2.7640 C   0  0  0  0  0  0  0  0  0  0  0  0
   -0.6740    3.1430    2.3190 C   0  0  0  0  0  0  0  0  0  0  0  0
   -1.1900    2.6750    1.1310 C   0  0  0  0  0  0  0  0  0  0  0  0
   -0.6090    1.6790    0.3630 C   0  0  0  0  0  0  0  0  0  0  0  0
   -1.3740    1.3570   -0.8790 C   0  0  0  0  0  0  0  0  0  0  0  0
   -2.7150    0.7830   -0.7580 C   0  0  2  0  0  0  0  0  0  0  0  0
   -3.7820    1.5270   -1.6170 C   0  0  1  0  0  0  0  0  0  0  0  0
   -4.0090    2.9170   -1.2610 C   0  0  0  0  0  0  0  0  0  0  0  0
   -5.0910    3.5180   -2.1600 C   0  0  0  0  0  0  0  0  0  0  0  0
   -5.3060    4.9880   -1.7750 C   0  0  0  0  0  0  0  0  0  0  0  0
   -3.4440    1.2690   -3.0670 C   0  0  0  0  0  0  0  0  0  0  0  0
   -4.7040    0.6340   -3.6360 C   0  0  0  0  0  0  0  0  0  0  0  0
   -5.7180    0.9420   -2.7340 O   0  0  0  0  0  0  0  0  0  0  0  0
   -5.0540    0.7200   -1.4950 C   0  0  0  0  0  0  0  0  0  0  0  0
   -3.2770    0.4780    0.5740 C   0  0  0  0  0  0  0  0  0  0  0  0
   -2.4490    0.0240    1.6380 N   0  0  0  0  0  0  0  0  0  0  0  0
   -1.6340   -1.1180    1.7790 C   0  0  0  0  0  0  0  0  0  0  0  0
   -0.6880   -1.1960    2.6110 O   0  0  0  0  0  0  0  0  0  0  0  0
   -1.7940   -2.3620    0.9700 C   0  0  2  0  0  0  0  0  0  0  0  0
   -1.2330   -3.5790    1.5990 C   0  0  0  0  0  0  0  0  0  0  0  0
    0.0150   -3.7020    2.1450 C   0  0  0  0  0  0  0  0  0  0  0  0
    0.4830   -4.8910    2.7050 C   0  0  0  0  0  0  0  0  0  0  0  0
   -0.3090   -6.0140    2.7300 C   0  0  0  0  0  0  0  0  0  0  0  0
   -1.5610   -5.8970    2.1830 C   0  0  0  0  0  0  0  0  0  0  0  0
   -2.0370   -4.7150    1.6230 C   0  0  0  0  0  0  0  0  0  0  0  0
   -3.4150   -4.7340    1.0800 C   0  0  0  0  0  0  0  0  0  0  0  0
   -1.2950   -2.1580   -0.3680 N   0  0  0  0  0  0  0  0  0  0  0  0
   -0.0880   -1.7630   -0.8990 C   0  0  0  0  0  0  0  0  0  0  0  0
   -0.0020   -2.1510   -2.1860 O   0  0  0  0  0  0  0  0  0  0  0  0
  1  2  1  0
  2  3  1  0
  3  4  2  3
  4  5  1  0
  4 10  1  0
  5  6  1  0
  6  7  1  0
  7  8  1  0
  8  9  1  0
 10 11  2  3
 11 12  1  0
 12 13  2  0
 12 43  1  0
 13 14  1  0
 14 15  2  0
 14 19  1  0
 15 16  1  0
 16 17  2  0
 17 18  1  0
 18 19  2  0
 19 20  1  0
 21 20  1  1
 21 22  1  0
 21 30  1  0
 22 23  1  6
 22 26  1  0
 22 29  1  0
 23 24  1  0
 24 25  1  0
 26 27  1  0
 27 28  1  0
 28 29  1  0
 30 31  1  0
 31 32  1  0
 32 33  2  0
 32 34  1  0
 34 35  1  1
 34 42  1  0
 35 36  2  0
 35 40  1  0
 36 37  1  0
 37 38  2  0
 38 39  1  0
 39 40  2  0
 40 41  1  0
 42 43  1  0
 43 44  2  0
M  CHG  1   6   1
M  END
