
     RDKit          3D

 39 43  0  0  0  0  0  0  0  0999 V2000
    6.8800    1.8270    2.5920 C   0  0  0  0  0  0  0  0  0  0  0  0
    6.7540    0.6010    2.0060 C   0  0  0  0  0  0  0  0  0  0  0  0
    7.9490   -0.1330    1.6540 C   0  0  0  0  0  0  0  0  0  0  0  0
    8.0990   -1.2800    1.0910 C   0  0  0  0  0  0  0  0  0  0  0  0
    6.9500   -2.1120    0.6700 C   0  0  0  0  0  0  0  0  0  0  0  0
    9.4040   -1.7730    0.8610 O   0  0  0  0  0  0  0  0  0  0  0  0
    5.3840    0.1950    1.7940 C   0  0  0  0  0  0  0  0  0  0  0  0
    4.6210   -0.8120    2.2130 N   0  0  0  0  0  0  0  0  0  0  0  0
    3.4210   -0.7190    1.6900 O   0  0  0  0  0  0  0  0  0  0  0  0
    3.3740    0.3220    0.9370 C   0  0  0  0  0  0  0  0  0  0  0  0
    2.1970    0.8220    0.1320 C   0  0  0  0  0  0  0  0  0  0  0  0
    2.3850    2.0060   -0.5780 C   0  0  0  0  0  0  0  0  0  0  0  0
    0.7210    2.1990   -1.4140 S   0  0  0  0  0  0  0  0  0  0  0  0
    0.0080    0.6550   -0.6870 C   0  0  0  0  0  0  0  0  0  0  0  0
   -1.3220    0.2120   -0.9710 N   0  0  0  0  0  0  0  0  0  0  0  0
   -2.3950    1.0240   -0.4680 C   0  0  0  0  0  0  0  0  0  0  0  0
   -3.5380    0.6430   -0.7380 O   0  0  0  0  0  0  0  0  0  0  0  0
   -2.1200    2.2020    0.2990 C   0  0  0  0  0  0  0  0  0  0  0  0
   -2.8080    3.1240    0.8680 C   0  0  0  0  0  0  0  0  0  0  0  0
   -4.2080    3.4230    1.0060 C   0  0  0  0  0  0  0  0  0  0  0  0
   -4.5320    4.5130    1.7220 C   0  0  0  0  0  0  0  0  0  0  0  0
   -5.9250    4.9410    1.9510 C   0  0  0  0  0  0  0  0  0  0  0  0
   -6.7640    3.6680    1.8590 C   0  0  0  0  0  0  0  0  0  0  0  0
   -6.5900    3.1870    0.5910 O   0  0  0  0  0  0  0  0  0  0  0  0
   -5.3210    2.6650    0.4060 C   0  0  0  0  0  0  0  0  0  0  0  0
   -1.6370   -0.9540   -1.6910 C   0  0  0  0  0  0  0  0  0  0  0  0
   -1.7020   -0.8940   -3.0390 N   0  0  0  0  0  0  0  0  0  0  0  0
   -1.9930   -1.9470   -3.8000 C   0  0  0  0  0  0  0  0  0  0  0  0
   -2.0520   -1.8410   -5.2720 C   0  0  0  0  0  0  0  0  0  0  0  0
   -2.2350   -3.1300   -3.2240 N   0  0  0  0  0  0  0  0  0  0  0  0
   -2.1860   -3.2520   -1.9000 C   0  0  0  0  0  0  0  0  0  0  0  0
   -2.4380   -4.5090   -1.2050 C   0  0  0  0  0  0  0  0  0  0  0  0
   -2.4070   -4.7310    0.1540 C   0  0  0  0  0  0  0  0  0  0  0  0
   -2.6910   -6.0210    0.3840 N   0  0  0  0  0  0  0  0  0  0  0  0
   -2.9030   -6.6400   -0.7610 N   0  0  0  0  0  0  0  0  0  0  0  0
   -2.7530   -5.7260   -1.7650 C   0  0  0  0  0  0  0  0  0  0  0  0
   -1.8860   -2.1560   -1.1490 N   0  0  0  0  0  0  0  0  0  0  0  0
    1.0180    0.2040    0.0440 C   0  0  0  0  0  0  0  0  0  0  0  0
    4.5620    0.9170    0.9710 N   0  0  0  0  0  0  0  0  0  0  0  0
  1  2  2  0
  2  3  1  0
  2  7  1  0
  3  4  2  3
  4  5  1  0
  4  6  1  0
  7  8  2  0
  7 39  1  0
  8  9  1  0
  9 10  1  0
 10 11  1  0
 10 39  2  0
 11 12  2  0
 11 38  1  0
 12 13  1  0
 13 14  1  0
 14 15  1  0
 14 38  2  0
 15 16  1  0
 15 26  1  0
 16 17  2  0
 16 18  1  0
 18 19  2  3
 19 20  1  0
 20 21  2  0
 20 25  1  0
 21 22  1  0
 22 23  1  0
 23 24  1  0
 24 25  1  0
 26 27  2  0
 26 37  1  0
 27 28  1  0
 28 29  1  0
 28 30  2  0
 30 31  1  0
 31 32  1  0
 31 37  2  0
 32 33  1  0
 32 36  2  0
 33 34  2  0
 34 35  1  0
 35 36  1  0
M  END
