
     RDKit          3D

 39 44  0  0  0  0  0  0  0  0999 V2000
   -9.6550    0.9740   -0.5460 C   0  0  0  0  0  0  0  0  0  0  0  0
   -9.2510   -0.4990   -0.4180 C   0  0  0  0  0  0  0  0  0  0  0  0
   -7.8270   -0.5230   -0.3230 N   0  0  0  0  0  0  0  0  0  0  0  0
   -7.1400   -0.1300   -1.5240 C   0  0  0  0  0  0  0  0  0  0  0  0
   -6.1770   -1.1840   -2.0140 C   0  0  0  0  0  0  0  0  0  0  0  0
   -5.3520   -1.7050   -1.0530 O   0  0  0  0  0  0  0  0  0  0  0  0
   -5.7670   -1.5410    0.2490 C   0  0  2  0  0  0  0  0  0  0  0  0
   -5.1530   -2.6690    1.0630 C   0  0  0  0  0  0  0  0  0  0  0  0
   -3.7100   -2.5930    0.9690 N   0  0  0  0  0  0  0  0  0  0  0  0
   -2.9940   -1.4610    1.4530 C   0  0  0  0  0  0  0  0  0  0  0  0
   -1.6240   -1.4170    1.3340 C   0  0  0  0  0  0  0  0  0  0  0  0
   -0.9280   -0.3010    1.8160 C   0  0  0  0  0  0  0  0  0  0  0  0
   -1.6080    0.7290    2.3970 C   0  0  0  0  0  0  0  0  0  0  0  0
   -1.0020    1.8540    2.8890 O   0  0  0  0  0  0  0  0  0  0  0  0
    0.3910    2.0150    2.8000 C   0  0  0  0  0  0  0  0  0  0  0  0
    0.7740    2.0370    1.3670 C   0  0  0  0  0  0  0  0  0  0  0  0
    2.0440    2.0720    0.9280 N   0  0  0  0  0  0  0  0  0  0  0  0
    2.0620    2.0840   -0.4160 C   0  0  0  0  0  0  0  0  0  0  0  0
    3.1820    2.1230   -1.3400 C   0  0  0  0  0  0  0  0  0  0  0  0
    2.9540    2.1270   -2.5850 O   0  0  0  0  0  0  0  0  0  0  0  0
    4.4920    2.1540   -0.8320 N   0  0  0  0  0  0  0  0  0  0  0  0
    4.7290    2.1470    0.5820 C   0  0  0  0  0  0  0  0  0  0  0  0
    6.1990    2.2450    0.9240 C   0  0  0  0  0  0  0  0  0  0  0  0
    6.9490    1.2870    0.0790 C   0  0  0  0  0  0  0  0  0  0  0  0
    7.9130    0.3660    0.2720 N   0  0  0  0  0  0  0  0  0  0  0  0
    8.2220   -0.2210   -0.8760 C   0  0  0  0  0  0  0  0  0  0  0  0
    9.2310   -1.2920   -1.1220 C   0  0  0  0  0  0  0  0  0  0  0  0
   10.0450   -1.9060   -0.2880 C   0  0  0  0  0  0  0  0  0  0  0  0
   10.8900   -2.8610   -0.7280 C   0  0  0  0  0  0  0  0  0  0  0  0
   10.8450   -3.1480   -2.0840 C   0  0  0  0  0  0  0  0  0  0  0  0
    9.5780   -2.0190   -2.6680 S   0  0  0  0  0  0  0  0  0  0  0  0
    7.4490    0.3270   -1.8150 N   0  0  0  0  0  0  0  0  0  0  0  0
    6.6450    1.2680   -1.2640 C   0  0  0  0  0  0  0  0  0  0  0  0
    5.6020    2.1990   -1.7530 C   0  0  0  0  0  0  0  0  0  0  0  0
    0.7740    2.0560   -0.7860 N   0  0  0  0  0  0  0  0  0  0  0  0
    0.0360    2.0280    0.2810 O   0  0  0  0  0  0  0  0  0  0  0  0
   -2.9890    0.6460    2.4990 C   0  0  0  0  0  0  0  0  0  0  0  0
   -3.6320   -0.4360    2.0280 N   0  0  0  0  0  0  0  0  0  0  0  0
   -7.2760   -1.7250    0.2640 C   0  0  0  0  0  0  0  0  0  0  0  0
  1  2  1  0
  2  3  1  0
  3  4  1  0
  3 39  1  0
  4  5  1  0
  5  6  1  0
  6  7  1  0
  7  8  1  1
  7 39  1  0
  8  9  1  0
  9 10  1  0
 10 11  2  0
 10 38  1  0
 11 12  1  0
 12 13  2  0
 13 14  1  0
 13 37  1  0
 14 15  1  0
 15 16  1  0
 16 17  2  0
 16 36  1  0
 17 18  1  0
 18 19  1  0
 18 35  2  0
 19 20  2  0
 19 21  1  0
 21 22  1  0
 21 34  1  0
 22 23  1  0
 23 24  1  0
 24 25  1  0
 24 33  2  0
 25 26  1  0
 26 27  1  0
 26 32  2  0
 27 28  2  0
 27 31  1  0
 28 29  1  0
 29 30  2  0
 30 31  1  0
 32 33  1  0
 33 34  1  0
 35 36  1  0
 37 38  2  0
M  END
