
     RDKit          3D

 44 48  0  0  0  0  0  0  0  0999 V2000
    5.8950   -3.9150    1.4270 C   0  0  0  0  0  0  0  0  0  0  0  0
    6.1190   -2.6220    1.3510 C   0  0  0  0  0  0  0  0  0  0  0  0
    7.2520   -2.0940    2.0240 N   0  0  0  0  0  0  0  0  0  0  0  0
    5.2360   -1.6780    0.6460 C   0  0  0  0  0  0  0  0  0  0  0  0
    3.9000   -1.6080    0.9010 C   0  0  0  0  0  0  0  0  0  0  0  0
    3.3080   -2.4060    1.8890 O   0  0  0  0  0  0  0  0  0  0  0  0
    3.0440   -0.7440    0.2050 C   0  0  0  0  0  0  0  0  0  0  0  0
    1.6180   -0.7350    0.5280 C   0  0  0  0  0  0  0  0  0  0  0  0
    1.1590   -1.5120    1.4360 O   0  0  0  0  0  0  0  0  0  0  0  0
    0.6970    0.1090   -0.1280 N   0  0  0  0  0  0  0  0  0  0  0  0
   -0.7300    0.1010    0.2030 C   0  0  1  0  0  0  0  0  0  0  0  0
   -1.3030   -1.2280   -0.0750 C   0  0  0  0  0  0  0  0  0  0  0  0
   -0.5030   -2.0800   -0.6710 O   0  0  0  0  0  0  0  0  0  0  0  0
   -2.5660   -1.7450    0.1920 N   0  0  0  0  0  0  0  0  0  0  0  0
   -2.9380   -3.0420   -0.3890 C   0  0  0  0  0  0  0  0  0  0  0  0
   -3.6210   -2.9490   -1.7010 C   0  0  1  0  0  0  0  0  0  0  0  0
   -2.8560   -2.4350   -2.8570 C   0  0  0  0  0  0  0  0  0  0  0  0
   -2.1330   -3.5850   -3.4080 N   0  0  0  0  0  0  0  0  0  0  0  0
   -2.6650   -4.7160   -2.6810 C   0  0  0  0  0  0  0  0  0  0  0  0
   -3.8800   -4.2840   -2.1070 O   0  0  0  0  0  0  0  0  0  0  0  0
   -3.5730   -1.0950    0.9750 C   0  0  0  0  0  0  0  0  0  0  0  0
   -4.5310   -0.2670    0.4460 C   0  0  0  0  0  0  0  0  0  0  0  0
   -5.4740    0.2850    1.2730 C   0  0  0  0  0  0  0  0  0  0  0  0
   -5.4600    0.0120    2.6200 C   0  0  0  0  0  0  0  0  0  0  0  0
   -4.5090   -0.8140    3.1680 C   0  0  0  0  0  0  0  0  0  0  0  0
   -4.5080   -1.1020    4.6500 C   0  0  0  0  0  0  0  0  0  0  0  0
   -3.5640   -1.3670    2.3400 C   0  0  0  0  0  0  0  0  0  0  0  0
   -1.0250    0.5960    1.5770 C   0  0  0  0  0  0  0  0  0  0  0  0
   -0.2960    1.8900    1.8830 C   0  0  0  0  0  0  0  0  0  0  0  0
    0.1120    2.6440    0.6800 C   0  0  0  0  0  0  0  0  0  0  0  0
   -0.6380    2.4100   -0.5750 C   0  0  2  0  0  0  0  0  0  0  0  0
   -1.5910    3.5460   -0.9100 C   0  0  1  0  0  0  0  0  0  0  0  0
   -2.2980    3.1810   -2.1910 C   0  0  0  0  0  0  0  0  0  0  0  0
   -2.5940    3.8320    0.1530 C   0  0  0  0  0  0  0  0  0  0  0  0
   -3.4970    4.9880   -0.2760 C   0  0  0  0  0  0  0  0  0  0  0  0
   -4.4880    5.2290    0.8400 C   0  0  0  0  0  0  0  0  0  0  0  0
   -1.3600    1.1210   -0.7360 C   0  0  0  0  0  0  0  0  0  0  0  0
    3.6290    0.0370   -0.7560 C   0  0  0  0  0  0  0  0  0  0  0  0
    4.9900   -0.0090   -1.0400 C   0  0  0  0  0  0  0  0  0  0  0  0
    5.8040   -0.8730   -0.3360 C   0  0  0  0  0  0  0  0  0  0  0  0
    7.2260   -0.8900   -0.7040 C   0  0  0  0  0  0  0  0  0  0  0  0
    7.6670    0.5280   -1.0150 C   0  0  0  0  0  0  0  0  0  0  0  0
    6.9220    1.0700   -2.2180 C   0  0  0  0  0  0  0  0  0  0  0  0
    5.4500    0.9020   -2.1120 C   0  0  0  0  0  0  0  0  0  0  0  0
  1  2  2  0
  2  3  1  0
  2  4  1  0
  4  5  2  0
  4 40  1  0
  5  6  1  0
  5  7  1  0
  7  8  1  0
  7 38  2  0
  8  9  2  0
  8 10  1  0
 11 10  1  6
 11 12  1  0
 11 28  1  0
 11 37  1  0
 12 13  2  0
 12 14  1  0
 14 15  1  0
 14 21  1  0
 16 15  1  1
 16 17  1  0
 16 20  1  0
 17 18  1  0
 18 19  1  0
 19 20  1  0
 21 22  2  0
 21 27  1  0
 22 23  1  0
 23 24  2  0
 24 25  1  0
 25 26  1  0
 25 27  2  0
 28 29  1  0
 29 30  1  0
 31 30  1  1
 31 32  1  0
 31 37  1  0
 32 33  1  6
 32 34  1  0
 34 35  1  0
 35 36  1  0
 38 39  1  0
 39 40  2  0
 39 44  1  0
 40 41  1  0
 41 42  1  0
 42 43  1  0
 43 44  1  0
M  CHG  1  18   1
M  END
