
     RDKit          3D

 44 48  0  0  0  0  0  0  0  0999 V2000
    7.3480    3.0860    2.0030 C   0  0  0  0  0  0  0  0  0  0  0  0
    6.8860    1.6980    2.3630 C   0  0  0  0  0  0  0  0  0  0  0  0
    6.3390    1.0510    1.1410 C   0  0  0  0  0  0  0  0  0  0  0  0
    5.0370    1.3550    0.7760 C   0  0  0  0  0  0  0  0  0  0  0  0
    4.2070    2.2790    1.5830 C   0  0  0  0  0  0  0  0  0  0  0  0
    4.5210    0.7840   -0.3480 C   0  0  0  0  0  0  0  0  0  0  0  0
    3.1600    0.9900   -0.8810 C   0  0  0  0  0  0  0  0  0  0  0  0
    2.2000    0.1250   -0.0440 C   0  0  0  0  0  0  0  0  0  0  0  0
    0.8630    0.2260   -0.4890 N   0  0  0  0  0  0  0  0  0  0  0  0
    0.1840   -0.8110   -1.1140 C   0  0  2  0  0  0  0  0  0  0  0  0
    0.1900   -0.5200   -2.6410 C   0  0  0  0  0  0  0  0  0  0  0  0
   -1.2700   -0.7720   -0.6950 C   0  0  0  0  0  0  0  0  0  0  0  0
   -2.0710   -1.1820   -1.6280 O   0  0  0  0  0  0  0  0  0  0  0  0
   -1.8080   -0.3640    0.5210 N   0  0  0  0  0  0  0  0  0  0  0  0
   -1.1790   -0.2940    1.8190 C   0  0  0  0  0  0  0  0  0  0  0  0
   -1.9750   -1.2120    2.7520 C   0  0  0  0  0  0  0  0  0  0  0  0
   -3.2940   -0.7200    2.8300 O   0  0  0  0  0  0  0  0  0  0  0  0
   -3.9540   -0.2200    1.7410 C   0  0  0  0  0  0  0  0  0  0  0  0
   -5.2810    0.1050    1.7310 C   0  0  0  0  0  0  0  0  0  0  0  0
   -5.9020    0.6130    0.5860 C   0  0  0  0  0  0  0  0  0  0  0  0
   -5.1820    0.7980   -0.5610 C   0  0  0  0  0  0  0  0  0  0  0  0
   -3.8330    0.4700   -0.5600 C   0  0  0  0  0  0  0  0  0  0  0  0
   -3.2250   -0.0340    0.5730 C   0  0  0  0  0  0  0  0  0  0  0  0
   -6.0500    1.3510   -1.6400 C   0  0  2  0  0  0  0  0  0  0  0  0
   -5.4160    2.3250   -2.4020 O   0  0  0  0  0  0  0  0  0  0  0  0
   -7.0780    2.0840   -0.7660 C   0  0  1  0  0  0  0  0  0  0  0  0
   -8.2740    2.4740   -1.4920 C   0  0  0  0  0  0  0  0  0  0  0  0
   -8.1860    3.3520   -2.5960 N   0  0  0  0  0  0  0  0  0  0  0  0
   -9.3980    2.0430   -1.1570 O   0  0  0  0  0  0  0  0  0  0  0  0
   -7.2960    1.0280    0.2900 C   0  0  1  0  0  0  0  0  0  0  0  0
   -8.0040   -0.1870   -0.2610 C   0  0  0  0  0  0  0  0  0  0  0  0
   -7.9900    1.5800    1.5130 C   0  0  0  0  0  0  0  0  0  0  0  0
    0.6790   -2.2320   -1.0260 C   0  0  1  0  0  0  0  0  0  0  0  0
   -0.3220   -3.1340   -1.8260 C   0  0  0  0  0  0  0  0  0  0  0  0
    1.9800   -2.4860   -1.7300 C   0  0  0  0  0  0  0  0  0  0  0  0
    0.6930   -2.8450    0.3250 C   0  0  0  0  0  0  0  0  0  0  0  0
    1.1990   -4.2820    0.2940 C   0  0  0  0  0  0  0  0  0  0  0  0
    5.3170   -0.0680   -1.0680 N   0  0  0  0  0  0  0  0  0  0  0  0
    6.5740   -0.3590   -0.7110 C   0  0  0  0  0  0  0  0  0  0  0  0
    7.3610   -1.2120   -1.4520 C   0  0  0  0  0  0  0  0  0  0  0  0
    8.6480   -1.5290   -1.1310 C   0  0  0  0  0  0  0  0  0  0  0  0
    9.2170   -0.9820   -0.0100 C   0  0  0  0  0  0  0  0  0  0  0  0
    8.4480   -0.1120    0.7670 C   0  0  0  0  0  0  0  0  0  0  0  0
    7.1490    0.1990    0.4290 C   0  0  0  0  0  0  0  0  0  0  0  0
  1  2  1  0
  2  3  1  0
  3  4  2  0
  3 44  1  0
  4  5  1  0
  4  6  1  0
  6  7  1  0
  6 38  2  0
  7  8  1  0
  8  9  1  0
  9 10  1  0
 10 11  1  6
 10 12  1  0
 10 33  1  0
 12 13  2  0
 12 14  1  0
 14 15  1  0
 14 23  1  0
 15 16  1  0
 16 17  1  0
 17 18  1  0
 18 19  2  0
 18 23  1  0
 19 20  1  0
 20 21  2  0
 20 30  1  0
 21 22  1  0
 21 24  1  0
 22 23  2  0
 24 25  1  6
 24 26  1  0
 26 27  1  6
 26 30  1  0
 27 28  1  0
 27 29  2  0
 30 31  1  6
 30 32  1  0
 33 34  1  6
 33 35  1  0
 33 36  1  0
 36 37  1  0
 38 39  1  0
 39 40  2  0
 39 44  1  0
 40 41  1  0
 41 42  2  0
 42 43  1  0
 43 44  2  0
M  CHG  1   9   1
M  END
