
     RDKit          3D

 39 44  0  0  0  0  0  0  0  0999 V2000
   -1.3190    3.8310    1.3070 C   0  0  0  0  0  0  0  0  0  0  0  0
   -0.6270    2.5290    1.7830 C   0  0  0  0  0  0  0  0  0  0  0  0
   -1.5000    1.5860    1.9030 O   0  0  0  0  0  0  0  0  0  0  0  0
   -2.4070    0.7260    2.1560 C   0  0  0  0  0  0  0  0  0  0  0  0
   -3.2150    0.5950    3.3100 C   0  0  0  0  0  0  0  0  0  0  0  0
   -4.1230   -0.4370    3.3680 C   0  0  0  0  0  0  0  0  0  0  0  0
   -4.3120   -1.3520    2.4220 C   0  0  0  0  0  0  0  0  0  0  0  0
   -3.5070   -1.2010    1.3010 C   0  0  0  0  0  0  0  0  0  0  0  0
   -2.5890   -0.2590    1.0440 C   0  0  0  0  0  0  0  0  0  0  0  0
   -1.9460    0.0240   -0.2820 C   0  0  1  0  0  0  0  0  0  0  0  0
   -1.4170   -1.1980   -0.6980 N   0  0  0  0  0  0  0  0  0  0  0  0
   -0.1070   -1.7170   -0.2650 C   0  0  0  0  0  0  0  0  0  0  0  0
    0.5190   -2.7170   -0.2250 N   0  0  0  0  0  0  0  0  0  0  0  0
    1.7020   -2.9210   -0.2800 N   0  0  0  0  0  0  0  0  0  0  0  0
    2.6430   -4.1290   -0.2460 C   0  0  0  0  0  0  0  0  0  0  0  0
    3.7920   -3.6820   -0.3720 N   0  0  0  0  0  0  0  0  0  0  0  0
    3.8930   -2.3840   -0.4790 C   0  0  0  0  0  0  0  0  0  0  0  0
    4.9900   -1.4860   -0.9250 C   0  0  0  0  0  0  0  0  0  0  0  0
    6.0100   -2.4680   -1.3400 O   0  0  0  0  0  0  0  0  0  0  0  0
    5.4670   -0.3470   -1.1250 N   0  0  0  0  0  0  0  0  0  0  0  0
    6.8910   -0.2240   -1.5700 C   0  0  0  0  0  0  0  0  0  0  0  0
    7.2000    0.4430   -2.6360 C   0  0  0  0  0  0  0  0  0  0  0  0
    8.3640    0.6340   -3.2650 C   0  0  0  0  0  0  0  0  0  0  0  0
    8.5280    1.4930   -4.3790 C   0  0  0  0  0  0  0  0  0  0  0  0
    8.6920    2.2920   -5.4260 N   0  0  0  0  0  0  0  0  0  0  0  0
    9.4610   -0.0240   -2.5920 C   0  0  0  0  0  0  0  0  0  0  0  0
    9.1830   -0.7350   -1.4550 C   0  0  0  0  0  0  0  0  0  0  0  0
    7.8670   -0.8430   -0.9230 N   0  0  0  0  0  0  0  0  0  0  0  0
    2.5520   -1.9250   -0.3970 C   0  0  0  0  0  0  0  0  0  0  0  0
    1.3820   -0.4980   -0.4280 S   0  0  0  0  0  0  0  0  0  0  0  0
   -2.9580    0.5490   -1.1780 N   0  0  0  0  0  0  0  0  0  0  0  0
   -4.2730   -0.0200   -1.5750 C   0  0  0  0  0  0  0  0  0  0  0  0
   -5.1590    1.1710   -1.0700 C   0  0  0  0  0  0  0  0  0  0  0  0
   -4.4800    2.2690   -1.7640 C   0  0  0  0  0  0  0  0  0  0  0  0
   -2.9300    1.8490   -1.7800 C   0  0  0  0  0  0  0  0  0  0  0  0
   -2.1720    2.6240   -2.2410 O   0  0  0  0  0  0  0  0  0  0  0  0
   -5.2700   -2.3100    2.6750 O   0  0  0  0  0  0  0  0  0  0  0  0
   -6.1160   -1.7770    3.7210 C   0  0  0  0  0  0  0  0  0  0  0  0
   -5.2180   -0.7380    4.3680 C   0  0  0  0  0  0  0  0  0  0  0  0
  1  2  1  0
  2  3  1  0
  3  4  1  0
  4  5  2  0
  4  9  1  0
  5  6  1  0
  6  7  2  0
  6 39  1  0
  7  8  1  0
  7 37  1  0
  8  9  2  0
  9 10  1  0
 10 11  1  6
 10 31  1  0
 11 12  1  0
 12 13  2  0
 12 30  1  0
 13 14  1  0
 14 15  1  0
 14 29  1  0
 15 16  2  0
 16 17  1  0
 17 18  1  0
 17 29  2  0
 18 19  2  0
 18 20  1  0
 20 21  1  0
 21 22  2  0
 21 28  1  0
 22 23  1  0
 23 24  1  0
 23 26  2  0
 24 25  3  0
 26 27  1  0
 27 28  2  0
 29 30  1  0
 31 32  1  0
 31 35  1  0
 32 33  1  0
 33 34  1  0
 34 35  1  0
 35 36  2  0
 37 38  1  0
 38 39  1  0
M  END
