
     RDKit          3D

 10 10  0  0  0  0  0  0  0  0999 V2000
    3.0940    0.2240    0.0310 C   0  0  0  0  0  0  0  0  0  0  0  0
    1.9810    1.0930   -0.0880 O   0  0  0  0  0  0  0  0  0  0  0  0
    0.7200    0.5130   -0.0400 C   0  0  0  0  0  0  0  0  0  0  0  0
    0.5270   -0.8530    0.1160 C   0  0  0  0  0  0  0  0  0  0  0  0
   -0.7340   -1.4100    0.1610 C   0  0  0  0  0  0  0  0  0  0  0  0
   -1.8660   -0.6300    0.0520 C   0  0  0  0  0  0  0  0  0  0  0  0
   -3.1480   -1.1910    0.0980 O   0  0  0  0  0  0  0  0  0  0  0  0
   -1.6880    0.7280   -0.1030 C   0  0  0  0  0  0  0  0  0  0  0  0
   -2.8050    1.5440   -0.2160 O   0  0  0  0  0  0  0  0  0  0  0  0
   -0.4220    1.2800   -0.1480 C   0  0  0  0  0  0  0  0  0  0  0  0
  1  2  1  0
  2  3  1  0
  3  4  2  0
  3 10  1  0
  4  5  1  0
  5  6  2  0
  6  7  1  0
  6  8  1  0
  8  9  1  0
  8 10  2  0
M  END
