
     RDKit          3D

 10 10  0  0  0  0  0  0  0  0999 V2000
    3.6700    1.6390   -0.0200 O   0  0  0  0  0  0  0  0  0  0  0  0
    2.8250    0.7150   -0.1350 C   0  0  0  0  0  0  0  0  0  0  0  0
    3.1100   -0.6650   -0.4950 C   0  0  0  0  0  0  0  0  0  0  0  0
    1.9480   -1.2930   -0.5000 C   0  0  0  0  0  0  0  0  0  0  0  0
    0.8900   -0.3650   -0.1520 C   0  0  0  0  0  0  0  0  0  0  0  0
   -0.4760   -0.6920   -0.0620 O   0  0  0  0  0  0  0  0  0  0  0  0
   -1.4430    0.2800    0.2530 C   0  0  0  0  0  0  0  0  0  0  0  0
   -2.7970   -0.3990    0.2690 C   0  0  0  0  0  0  0  0  0  0  0  0
   -3.8000    0.4910    0.5700 O   0  0  0  0  0  0  0  0  0  0  0  0
    1.3910    0.8380    0.0700 C   0  0  0  0  0  0  0  0  0  0  0  0
  1  2  2  0
  2  3  1  0
  2 10  1  0
  3  4  2  0
  4  5  1  0
  5  6  1  0
  5 10  2  0
  6  7  1  0
  7  8  1  0
  8  9  1  0
M  END
