
     RDKit          3D

 10 10  0  0  0  0  0  0  0  0999 V2000
    3.3900    0.3800    0.3050 C   0  0  0  0  0  0  0  0  0  0  0  0
    1.9660   -0.0360    0.1630 C   0  0  0  0  0  0  0  0  0  0  0  0
    1.4700   -1.2760   -0.1690 C   0  0  0  0  0  0  0  0  0  0  0  0
    0.0960   -1.1300   -0.1660 C   0  0  0  0  0  0  0  0  0  0  0  0
   -0.1770    0.1610    0.1590 C   0  0  0  0  0  0  0  0  0  0  0  0
   -1.5140    0.8390    0.3000 C   0  0  1  0  0  0  0  0  0  0  0  0
   -1.4290    2.0730   -0.3590 O   0  0  0  0  0  0  0  0  0  0  0  0
   -2.6080    0.0100   -0.3610 C   0  0  0  0  0  0  0  0  0  0  0  0
   -2.7570   -1.2200    0.2310 O   0  0  0  0  0  0  0  0  0  0  0  0
    0.9660    0.7600    0.3420 O   0  0  0  0  0  0  0  0  0  0  0  0
  1  2  1  0
  2  3  2  0
  2 10  1  0
  3  4  1  0
  4  5  2  0
  5  6  1  0
  5 10  1  0
  6  7  1  6
  6  8  1  0
  8  9  1  0
M  END
