
     RDKit          3D

 10 10  0  0  0  0  0  0  0  0999 V2000
   -1.8400   -2.0820    0.3000 O   0  0  0  0  0  0  0  0  0  0  0  0
   -1.0270   -1.3790   -0.6050 C   0  0  0  0  0  0  0  0  0  0  0  0
   -0.3800   -0.2250    0.1780 C   0  0  2  0  0  0  0  0  0  0  0  0
   -1.5730    0.6030    0.6860 C   0  0  0  0  0  0  0  0  0  0  0  0
   -1.0990    1.6920    1.4210 O   0  0  0  0  0  0  0  0  0  0  0  0
    0.3200    0.6350   -0.8030 C   0  0  0  0  0  0  0  0  0  0  0  0
    1.6010    1.1750   -0.2160 C   0  0  0  0  0  0  0  0  0  0  0  0
    2.3580   -0.0820    0.2380 C   0  0  0  0  0  0  0  0  0  0  0  0
    1.7320   -0.5430    1.3430 O   0  0  0  0  0  0  0  0  0  0  0  0
    0.4060   -0.7830    1.2840 C   0  0  0  0  0  0  0  0  0  0  0  0
  1  2  1  0
  3  2  1  6
  3  4  1  0
  3  6  1  0
  3 10  1  0
  4  5  1  0
  6  7  1  0
  7  8  1  0
  8  9  1  0
  9 10  1  0
M  END
