
     RDKit          3D

 10 10  0  0  0  0  0  0  0  0999 V2000
    2.5580   -1.5380    0.5110 O   0  0  0  0  0  0  0  0  0  0  0  0
    2.0130   -0.4570    0.1860 C   0  0  0  0  0  0  0  0  0  0  0  0
    2.8200    0.6180   -0.1210 O   0  0  0  0  0  0  0  0  0  0  0  0
    0.5340   -0.3290    0.1290 C   0  0  0  0  0  0  0  0  0  0  0  0
   -0.2740   -1.3950    0.4330 C   0  0  0  0  0  0  0  0  0  0  0  0
   -1.6450   -1.3160    0.3920 C   0  0  0  0  0  0  0  0  0  0  0  0
   -2.2160   -0.1120    0.0300 C   0  0  0  0  0  0  0  0  0  0  0  0
   -1.3990    0.9670   -0.2780 C   0  0  0  0  0  0  0  0  0  0  0  0
   -0.0310    0.8700   -0.2320 C   0  0  0  0  0  0  0  0  0  0  0  0
    0.7600    1.9680   -0.5450 O   0  0  0  0  0  0  0  0  0  0  0  0
  1  2  2  0
  2  3  1  0
  2  4  1  0
  4  5  2  0
  4  9  1  0
  5  6  1  0
  6  7  2  0
  7  8  1  0
  8  9  2  0
  9 10  1  0
M  END
