
     RDKit          3D

  9  9  0  0  0  0  0  0  0  0999 V2000
    2.4780   -1.7250   -0.7340 O   0  0  0  0  0  0  0  0  0  0  0  0
    2.8440   -0.5550   -0.0300 C   0  0  0  0  0  0  0  0  0  0  0  0
    1.7500   -0.2030    0.7530 O   0  0  0  0  0  0  0  0  0  0  0  0
    0.6140    0.0500    0.0120 C   0  0  2  0  0  0  0  0  0  0  0  0
    0.0170    1.4060    0.2610 C   0  0  0  0  0  0  0  0  0  0  0  0
   -1.4080    1.3700    0.6950 C   0  0  0  0  0  0  0  0  0  0  0  0
   -2.2830    0.4620   -0.1050 C   0  0  0  0  0  0  0  0  0  0  0  0
   -1.5930   -0.8070   -0.5480 C   0  0  0  0  0  0  0  0  0  0  0  0
   -0.4160   -1.0190    0.4010 C   0  0  0  0  0  0  0  0  0  0  0  0
  1  2  1  0
  2  3  1  0
  4  3  1  1
  4  5  1  0
  4  9  1  0
  5  6  1  0
  6  7  1  0
  7  8  1  0
  8  9  1  0
M  END
