
     RDKit          3D

  9  8  0  0  0  0  0  0  0  0999 V2000
   -1.7480   -0.4320    1.0470 C   0  0  0  0  0  0  0  0  0  0  0  0
   -0.7550    0.3860    0.2660 C   0  0  1  0  0  0  0  0  0  0  0  0
   -1.3820    0.7010   -1.0690 C   0  0  0  0  0  0  0  0  0  0  0  0
   -0.5860    1.5940    0.9360 O   0  0  0  0  0  0  0  0  0  0  0  0
    0.5810   -0.2950    0.1240 C   0  0  1  0  0  0  0  0  0  0  0  0
    1.2190   -0.5730    1.4670 C   0  0  0  0  0  0  0  0  0  0  0  0
    0.4870   -1.6020   -0.6100 C   0  0  0  0  0  0  0  0  0  0  0  0
    1.5240    0.6200   -0.6280 C   0  0  0  0  0  0  0  0  0  0  0  0
    1.0930    0.9480   -1.8890 O   0  0  0  0  0  0  0  0  0  0  0  0
  2  1  1  1
  2  3  1  0
  2  4  1  0
  2  5  1  0
  5  6  1  1
  5  7  1  0
  5  8  1  0
  8  9  1  0
M  END
