
     RDKit          3D

 31 35  0  0  0  0  0  0  0  0999 V2000
    5.6110   -2.1310   -1.0950 C   0  0  0  0  0  0  0  0  0  0  0  0
    5.3700   -0.6870   -1.2320 C   0  0  0  0  0  0  0  0  0  0  0  0
    6.3520    0.1630   -1.6790 C   0  0  0  0  0  0  0  0  0  0  0  0
    6.1190    1.5060   -1.8030 C   0  0  0  0  0  0  0  0  0  0  0  0
    4.8970    2.0560   -1.4880 C   0  0  0  0  0  0  0  0  0  0  0  0
    4.7290    3.4110   -1.6350 C   0  0  0  0  0  0  0  0  0  0  0  0
    3.5120    3.9310   -1.3160 C   0  0  0  0  0  0  0  0  0  0  0  0
    2.4770    3.1190   -0.8580 C   0  0  0  0  0  0  0  0  0  0  0  0
    2.6170    1.7620   -0.7020 C   0  0  0  0  0  0  0  0  0  0  0  0
    1.5950    0.9010   -0.2450 N   0  0  0  0  0  0  0  0  0  0  0  0
    0.2900    1.2650    0.1370 C   0  0  0  0  0  0  0  0  0  0  0  0
   -0.0810    2.4420    0.0910 O   0  0  0  0  0  0  0  0  0  0  0  0
   -0.7430    0.2600    0.6240 C   0  0  2  0  0  0  0  0  0  0  0  0
   -1.4150    0.9260    1.7670 C   0  0  0  0  0  0  0  0  0  0  0  0
   -2.4880    0.0980    2.3650 C   0  0  0  0  0  0  0  0  0  0  0  0
   -3.5460   -0.1620    1.3610 C   0  0  0  0  0  0  0  0  0  0  0  0
   -3.7130   -1.2010    0.4800 C   0  0  0  0  0  0  0  0  0  0  0  0
   -4.8700   -0.9560   -0.2360 C   0  0  0  0  0  0  0  0  0  0  0  0
   -5.3640    0.2300    0.2420 C   0  0  0  0  0  0  0  0  0  0  0  0
   -6.6190    0.8660   -0.2660 C   0  0  2  0  0  0  0  0  0  0  0  0
   -7.7580    0.0050   -0.6930 C   0  0  0  0  0  0  0  0  0  0  0  0
   -6.9350    0.7810   -1.7120 C   0  0  0  0  0  0  0  0  0  0  0  0
   -4.5680    0.6590    1.1670 O   0  0  0  0  0  0  0  0  0  0  0  0
   -0.1050   -0.9990    0.9120 N   0  0  0  0  0  0  0  0  0  0  0  0
    0.7700   -1.3340    2.0150 C   0  0  0  0  0  0  0  0  0  0  0  0
    0.3330   -2.7720    2.3260 C   0  0  0  0  0  0  0  0  0  0  0  0
    0.2890   -3.3490    0.9290 C   0  0  0  0  0  0  0  0  0  0  0  0
   -0.2440   -2.1960    0.1600 C   0  0  0  0  0  0  0  0  0  0  0  0
   -0.7360   -2.3240   -0.9910 O   0  0  0  0  0  0  0  0  0  0  0  0
    3.8730    1.2240   -1.0310 C   0  0  0  0  0  0  0  0  0  0  0  0
    4.1320   -0.1050   -0.9170 C   0  0  0  0  0  0  0  0  0  0  0  0
  1  2  1  0
  2  3  2  0
  2 31  1  0
  3  4  1  0
  4  5  2  0
  5  6  1  0
  5 30  1  0
  6  7  2  0
  7  8  1  0
  8  9  2  0
  9 10  1  0
  9 30  1  0
 10 11  1  0
 11 12  2  0
 11 13  1  0
 13 14  1  1
 13 24  1  0
 14 15  1  0
 15 16  1  0
 16 17  2  0
 16 23  1  0
 17 18  1  0
 18 19  2  0
 20 19  1  6
 19 23  1  0
 20 21  1  0
 20 22  1  0
 21 22  1  0
 24 25  1  0
 24 28  1  0
 25 26  1  0
 26 27  1  0
 27 28  1  0
 28 29  2  0
 30 31  2  0
M  END
