
     RDKit          3D

 31 34  0  0  0  0  0  0  0  0999 V2000
   -8.5580    1.0130    2.4020 C   0  0  0  0  0  0  0  0  0  0  0  0
   -7.6150    1.5670    1.4120 C   0  0  0  0  0  0  0  0  0  0  0  0
   -7.2260    0.9220    0.3170 C   0  0  0  0  0  0  0  0  0  0  0  0
   -6.3660    1.4490   -0.5700 N   0  0  0  0  0  0  0  0  0  0  0  0
   -5.2340    1.4900   -1.0150 C   0  0  0  0  0  0  0  0  0  0  0  0
   -4.0090    0.7920   -0.6750 C   0  0  0  0  0  0  0  0  0  0  0  0
   -2.8520    1.0610   -1.3770 C   0  0  0  0  0  0  0  0  0  0  0  0
   -1.6330    0.4370   -1.1140 C   0  0  0  0  0  0  0  0  0  0  0  0
   -0.4950    0.7680   -1.8940 N   0  0  0  0  0  0  0  0  0  0  0  0
    0.8300    0.3950   -1.6660 C   0  0  0  0  0  0  0  0  0  0  0  0
    1.1270   -0.3060   -0.6850 O   0  0  0  0  0  0  0  0  0  0  0  0
    1.9640    0.7900   -2.5480 C   0  0  0  0  0  0  0  0  0  0  0  0
    3.2490    0.2700   -2.0870 C   0  0  0  0  0  0  0  0  0  0  0  0
    4.0600    0.9680   -1.2190 C   0  0  0  0  0  0  0  0  0  0  0  0
    5.2770    0.4810   -0.7790 C   0  0  0  0  0  0  0  0  0  0  0  0
    5.7060   -0.7360   -1.2120 C   0  0  0  0  0  0  0  0  0  0  0  0
    6.9380   -1.2630   -0.7850 O   0  0  0  0  0  0  0  0  0  0  0  0
    7.7060   -0.5090    0.0880 C   0  0  0  0  0  0  0  0  0  0  0  0
    8.8710    0.0610   -0.2080 C   0  0  0  0  0  0  0  0  0  0  0  0
    9.3660    0.7690    0.9870 C   0  0  0  0  0  0  0  0  0  0  0  0
    8.3230    0.5220    2.0000 C   0  0  0  0  0  0  0  0  0  0  0  0
    7.3640   -0.2170    1.4790 C   0  0  0  0  0  0  0  0  0  0  0  0
    4.9070   -1.4660   -2.0910 C   0  0  0  0  0  0  0  0  0  0  0  0
    3.6800   -0.9620   -2.5270 C   0  0  0  0  0  0  0  0  0  0  0  0
   -1.6540   -0.4790   -0.0950 C   0  0  0  0  0  0  0  0  0  0  0  0
   -2.8060   -0.7650    0.6240 C   0  0  0  0  0  0  0  0  0  0  0  0
   -4.0010   -0.1370    0.3490 C   0  0  0  0  0  0  0  0  0  0  0  0
   -5.1240   -0.4640    1.1040 O   0  0  0  0  0  0  0  0  0  0  0  0
   -5.3200   -1.7780    1.6190 C   0  0  0  0  0  0  0  0  0  0  0  0
   -4.0650   -2.6170    1.5070 C   0  0  0  0  0  0  0  0  0  0  0  0
   -2.8100   -1.7620    1.7270 C   0  0  0  0  0  0  0  0  0  0  0  0
  1  2  1  0
  2  3  2  3
  3  4  1  0
  4  5  2  3
  5  6  1  0
  6  7  2  0
  6 27  1  0
  7  8  1  0
  8  9  1  0
  8 25  2  0
  9 10  1  0
 10 11  2  0
 10 12  1  0
 12 13  1  0
 13 14  2  0
 13 24  1  0
 14 15  1  0
 15 16  2  0
 16 17  1  0
 16 23  1  0
 17 18  1  0
 18 19  2  0
 18 22  1  0
 19 20  1  0
 20 21  1  0
 21 22  2  0
 23 24  2  0
 25 26  1  0
 26 27  2  0
 26 31  1  0
 27 28  1  0
 28 29  1  0
 29 30  1  0
 30 31  1  0
M  END
