
     RDKit          3D

 31 34  0  0  0  0  0  0  0  0999 V2000
   -8.4440   -0.8460   -1.3980 C   0  0  0  0  0  0  0  0  0  0  0  0
   -8.8140   -0.0320   -0.4460 C   0  0  0  0  0  0  0  0  0  0  0  0
   -8.0250    0.9990    0.2220 C   0  0  0  0  0  0  0  0  0  0  0  0
   -6.5700    0.8960    0.1760 C   0  0  0  0  0  0  0  0  0  0  0  0
   -5.8870   -0.1990    0.0210 C   0  0  0  0  0  0  0  0  0  0  0  0
   -4.4090   -0.2490   -0.0250 C   0  0  0  0  0  0  0  0  0  0  0  0
   -3.7600   -1.4650   -0.1950 C   0  0  0  0  0  0  0  0  0  0  0  0
   -2.3780   -1.5350   -0.2410 C   0  0  0  0  0  0  0  0  0  0  0  0
   -1.5840   -0.4220   -0.1240 C   0  0  0  0  0  0  0  0  0  0  0  0
   -2.2210    0.7870    0.0440 C   0  0  0  0  0  0  0  0  0  0  0  0
   -3.6210    0.8680    0.0920 C   0  0  0  0  0  0  0  0  0  0  0  0
   -1.4080    1.9370    0.1660 N   0  0  0  0  0  0  0  0  0  0  0  0
    0.0450    1.9060    0.0050 C   0  0  0  0  0  0  0  0  0  0  0  0
    0.5440    0.5900    0.5240 C   0  0  2  0  0  0  0  0  0  0  0  0
    0.1750    0.5090    1.9900 C   0  0  0  0  0  0  0  0  0  0  0  0
    1.9540    0.3450    0.3570 C   0  0  0  0  0  0  0  0  0  0  0  0
    2.4080   -0.7300   -0.3690 C   0  0  0  0  0  0  0  0  0  0  0  0
    3.7810   -0.9620   -0.5280 C   0  0  0  0  0  0  0  0  0  0  0  0
    4.2490   -2.0350   -1.2510 O   0  0  0  0  0  0  0  0  0  0  0  0
    5.6060   -2.2460   -1.3960 C   0  0  0  0  0  0  0  0  0  0  0  0
    6.3160   -1.6970   -2.4510 C   0  0  0  0  0  0  0  0  0  0  0  0
    7.6640   -1.9000   -2.6050 C   0  0  0  0  0  0  0  0  0  0  0  0
    8.3380   -2.6560   -1.7100 N   0  0  0  0  0  0  0  0  0  0  0  0
    7.6900   -3.2110   -0.6670 C   0  0  0  0  0  0  0  0  0  0  0  0
    6.3360   -3.0160   -0.4980 C   0  0  0  0  0  0  0  0  0  0  0  0
    4.6970   -0.1060    0.0470 C   0  0  0  0  0  0  0  0  0  0  0  0
    4.2540    0.9620    0.7680 C   0  0  0  0  0  0  0  0  0  0  0  0
    2.8960    1.1760    0.9140 C   0  0  0  0  0  0  0  0  0  0  0  0
    2.4310    2.2550    1.6430 O   0  0  0  0  0  0  0  0  0  0  0  0
    3.3480    3.1350    2.2340 C   0  0  0  0  0  0  0  0  0  0  0  0
   -0.1980   -0.4330   -0.1630 O   0  0  0  0  0  0  0  0  0  0  0  0
  1  2  2  0
  2  3  1  0
  3  4  1  0
  4  5  2  3
  5  6  1  0
  6  7  2  0
  6 11  1  0
  7  8  1  0
  8  9  2  0
  9 10  1  0
  9 31  1  0
 10 11  2  0
 10 12  1  0
 12 13  1  0
 13 14  1  0
 14 15  1  1
 14 16  1  0
 14 31  1  0
 16 17  2  0
 16 28  1  0
 17 18  1  0
 18 19  1  0
 18 26  2  0
 19 20  1  0
 20 21  2  0
 20 25  1  0
 21 22  1  0
 22 23  2  0
 23 24  1  0
 24 25  2  0
 26 27  1  0
 27 28  2  0
 28 29  1  0
 29 30  1  0
M  END
