
     RDKit          3D

 28 31  0  0  0  0  0  0  0  0999 V2000
   -0.4040   -3.8720    0.7580 C   0  0  0  0  0  0  0  0  0  0  0  0
   -0.8020   -2.6670    1.5470 C   0  0  0  0  0  0  0  0  0  0  0  0
   -1.0370   -1.4460    0.7080 C   0  0  2  0  0  0  0  0  0  0  0  0
   -2.1430   -1.6580   -0.3130 C   0  0  0  0  0  0  0  0  0  0  0  0
   -2.4380   -0.3070   -0.8820 C   0  0  0  0  0  0  0  0  0  0  0  0
   -3.7070   -0.0540   -1.3230 O   0  0  0  0  0  0  0  0  0  0  0  0
   -4.5050    1.0360   -0.9760 C   0  0  1  0  0  0  0  0  0  0  0  0
   -5.8310    0.8840   -1.7170 C   0  0  0  0  0  0  0  0  0  0  0  0
   -6.9620    0.5930   -0.7450 C   0  0  0  0  0  0  0  0  0  0  0  0
   -7.1620    1.8540    0.0740 C   0  0  0  0  0  0  0  0  0  0  0  0
   -5.8510    2.1920    0.7130 C   0  0  0  0  0  0  0  0  0  0  0  0
   -4.7940    1.1340    0.4940 C   0  0  0  0  0  0  0  0  0  0  0  0
   -1.4960    0.6090   -0.9520 C   0  0  0  0  0  0  0  0  0  0  0  0
   -0.1140    0.4400   -0.5100 C   0  0  2  0  0  0  0  0  0  0  0  0
    0.8370    0.8820   -1.5090 N   0  0  0  0  0  0  0  0  0  0  0  0
    2.2300    0.8290   -1.3340 C   0  0  0  0  0  0  0  0  0  0  0  0
    2.8760    0.3650   -0.2260 N   0  0  0  0  0  0  0  0  0  0  0  0
    4.2030    0.4660   -0.4150 C   0  0  0  0  0  0  0  0  0  0  0  0
    5.3050    0.1770    0.3000 N   0  0  0  0  0  0  0  0  0  0  0  0
    6.5540    0.3800   -0.1310 C   0  0  0  0  0  0  0  0  0  0  0  0
    7.7000    0.0660    0.6440 N   0  0  0  0  0  0  0  0  0  0  0  0
    7.5400   -0.4960    1.9530 C   0  0  0  0  0  0  0  0  0  0  0  0
    9.0160    0.3140    0.1130 C   0  0  0  0  0  0  0  0  0  0  0  0
    6.6910    0.9140   -1.3750 N   0  0  0  0  0  0  0  0  0  0  0  0
    5.5950    1.2080   -2.1020 C   0  0  0  0  0  0  0  0  0  0  0  0
    4.3500    0.9990   -1.6560 N   0  0  0  0  0  0  0  0  0  0  0  0
    3.1720    1.2100   -2.1930 N   0  0  0  0  0  0  0  0  0  0  0  0
    0.1700   -0.9660   -0.0270 C   0  0  0  0  0  0  0  0  0  0  0  0
  1  2  1  0
  3  2  1  6
  3  4  1  0
  3 28  1  0
  4  5  1  0
  5  6  1  0
  5 13  2  0
  7  6  1  1
  7  8  1  0
  7 12  1  0
  8  9  1  0
  9 10  1  0
 10 11  1  0
 11 12  1  0
 13 14  1  0
 14 15  1  6
 14 28  1  0
 15 16  1  0
 16 17  1  0
 16 27  2  0
 17 18  2  0
 18 19  1  0
 18 26  1  0
 19 20  2  0
 20 21  1  0
 20 24  1  0
 21 22  1  0
 21 23  1  0
 24 25  2  0
 25 26  1  0
 26 27  1  0
M  END
