
     RDKit          3D

 31 36  0  0  0  0  0  0  0  0999 V2000
   -1.3840    1.4100   -1.1940 C   0  0  0  0  0  0  0  0  0  0  0  0
   -1.7110    0.4000   -0.1170 C   0  0  1  0  0  0  0  0  0  0  0  0
   -3.0660    0.8820    0.4230 C   0  0  0  0  0  0  0  0  0  0  0  0
   -3.3880    0.8460    1.7370 C   0  0  0  0  0  0  0  0  0  0  0  0
   -4.6370    1.2900    2.1280 C   0  0  0  0  0  0  0  0  0  0  0  0
   -5.5530    1.7660    1.1930 C   0  0  0  0  0  0  0  0  0  0  0  0
   -6.7770    2.1940    1.6240 F   0  0  0  0  0  0  0  0  0  0  0  0
   -5.1970    1.7910   -0.1400 C   0  0  0  0  0  0  0  0  0  0  0  0
   -3.9390    1.3440   -0.5300 C   0  0  0  0  0  0  0  0  0  0  0  0
   -1.9630   -0.9330   -0.6330 N   0  0  0  0  0  0  0  0  0  0  0  0
   -3.2090   -1.3920   -0.9090 N   0  0  0  0  0  0  0  0  0  0  0  0
   -3.1690   -2.6230   -1.3530 N   0  0  0  0  0  0  0  0  0  0  0  0
   -1.9000   -3.0400   -1.3940 C   0  0  0  0  0  0  0  0  0  0  0  0
   -1.2800   -4.2140   -1.7620 C   0  0  0  0  0  0  0  0  0  0  0  0
    0.0550   -4.3190   -1.6810 N   0  0  0  0  0  0  0  0  0  0  0  0
    0.8340   -3.3230   -1.2520 C   0  0  0  0  0  0  0  0  0  0  0  0
    2.1980   -3.4820   -1.1890 C   0  0  0  0  0  0  0  0  0  0  0  0
    2.9690   -2.4390   -0.7470 C   0  0  0  0  0  0  0  0  0  0  0  0
    2.3960   -1.2590   -0.3740 C   0  0  0  0  0  0  0  0  0  0  0  0
    3.2020   -0.1420    0.0990 C   0  0  0  0  0  0  0  0  0  0  0  0
    4.3610   -0.4210    0.7850 C   0  0  0  0  0  0  0  0  0  0  0  0
    5.1860    0.5890    1.2670 C   0  0  0  0  0  0  0  0  0  0  0  0
    4.8310    1.9010    1.0500 C   0  0  0  0  0  0  0  0  0  0  0  0
    5.3860    3.0530    1.3720 O   0  0  0  0  0  0  0  0  0  0  0  0
    4.6800    4.0540    0.9490 C   0  0  0  0  0  0  0  0  0  0  0  0
    3.6030    3.5540    0.3160 N   0  0  0  0  0  0  0  0  0  0  0  0
    3.6810    2.2110    0.3690 C   0  0  0  0  0  0  0  0  0  0  0  0
    2.8670    1.1720   -0.1060 C   0  0  0  0  0  0  0  0  0  0  0  0
    1.0000   -1.0730   -0.4290 C   0  0  0  0  0  0  0  0  0  0  0  0
    0.2400   -2.1160   -0.8690 C   0  0  0  0  0  0  0  0  0  0  0  0
   -1.1470   -1.9530   -0.9330 C   0  0  0  0  0  0  0  0  0  0  0  0
  2  1  1  6
  2  3  1  0
  2 10  1  0
  3  4  2  0
  3  9  1  0
  4  5  1  0
  5  6  2  0
  6  7  1  0
  6  8  1  0
  8  9  2  0
 10 11  1  0
 10 31  1  0
 11 12  2  0
 12 13  1  0
 13 14  2  0
 13 31  1  0
 14 15  1  0
 15 16  2  0
 16 17  1  0
 16 30  1  0
 17 18  2  0
 18 19  1  0
 19 20  1  0
 19 29  2  0
 20 21  2  0
 20 28  1  0
 21 22  1  0
 22 23  2  0
 23 24  1  0
 23 27  1  0
 24 25  1  0
 25 26  2  0
 26 27  1  0
 27 28  2  0
 29 30  1  0
 30 31  2  0
M  END
