
     RDKit          3D

 29 32  0  0  0  0  0  0  0  0999 V2000
   -6.4900    2.3020   -1.0010 C   0  0  0  0  0  0  0  0  0  0  0  0
   -5.8600    2.3380    0.1480 N   0  0  0  0  0  0  0  0  0  0  0  0
   -5.3990    1.1380    0.7560 C   0  0  0  0  0  0  0  0  0  0  0  0
   -6.0230    0.7150    1.8350 C   0  0  0  0  0  0  0  0  0  0  0  0
   -5.6280   -0.5290    2.5570 C   0  0  0  0  0  0  0  0  0  0  0  0
   -6.6800   -1.4200    2.5760 F   0  0  0  0  0  0  0  0  0  0  0  0
   -4.2970    0.4560    0.1770 N   0  0  0  0  0  0  0  0  0  0  0  0
   -4.4970   -0.8830   -0.3340 C   0  0  0  0  0  0  0  0  0  0  0  0
   -4.2110   -0.7960   -1.8400 C   0  0  0  0  0  0  0  0  0  0  0  0
   -2.7610   -0.4260   -1.9770 C   0  0  0  0  0  0  0  0  0  0  0  0
   -2.4200    0.8870   -1.3170 C   0  0  2  0  0  0  0  0  0  0  0  0
   -0.9150    0.9650   -1.2960 C   0  0  0  0  0  0  0  0  0  0  0  0
   -0.1730    1.8640   -1.9610 N   0  0  0  0  0  0  0  0  0  0  0  0
    1.0930    1.6180   -1.6980 N   0  0  0  0  0  0  0  0  0  0  0  0
    1.1640    0.5650   -0.8680 C   0  0  0  0  0  0  0  0  0  0  0  0
    2.3740   -0.0450   -0.3240 C   0  0  0  0  0  0  0  0  0  0  0  0
    2.3640   -1.1280    0.5260 C   0  0  0  0  0  0  0  0  0  0  0  0
    3.5280   -1.6820    1.0240 C   0  0  0  0  0  0  0  0  0  0  0  0
    4.7750   -1.1510    0.6760 C   0  0  0  0  0  0  0  0  0  0  0  0
    5.9690   -1.7100    1.1710 N   0  0  0  0  0  0  0  0  0  0  0  0
    7.2470   -1.1260    0.9370 C   0  0  0  0  0  0  0  0  0  0  0  0
    7.4940    0.1440    0.9610 N   0  0  0  0  0  0  0  0  0  0  0  0
    8.8860    0.4190    0.6850 C   0  0  0  0  0  0  0  0  0  0  0  0
    9.4220   -0.9480    0.4930 C   0  0  0  0  0  0  0  0  0  0  0  0
    8.4700   -1.8000    0.6420 N   0  0  0  0  0  0  0  0  0  0  0  0
    4.7890   -0.0780   -0.1660 C   0  0  0  0  0  0  0  0  0  0  0  0
    3.6090    0.4600   -0.6530 C   0  0  0  0  0  0  0  0  0  0  0  0
   -0.0830    0.2000   -0.6500 O   0  0  0  0  0  0  0  0  0  0  0  0
   -2.9720    1.0230    0.0660 C   0  0  0  0  0  0  0  0  0  0  0  0
  1  2  2  0
  2  3  1  0
  3  4  2  3
  3  7  1  0
  4  5  1  0
  5  6  1  0
  7  8  1  0
  7 29  1  0
  8  9  1  0
  9 10  1  0
 10 11  1  0
 11 12  1  1
 11 29  1  0
 12 13  2  0
 12 28  1  0
 13 14  1  0
 14 15  2  0
 15 16  1  0
 15 28  1  0
 16 17  2  0
 16 27  1  0
 17 18  1  0
 18 19  2  0
 19 20  1  0
 19 26  1  0
 20 21  1  0
 21 22  2  0
 21 25  1  0
 22 23  1  0
 23 24  1  0
 24 25  2  0
 26 27  2  0
M  END
