
     RDKit          3D

 31 35  0  0  0  0  0  0  0  0999 V2000
   -4.7520   -1.3280    2.8960 C   0  0  0  0  0  0  0  0  0  0  0  0
   -5.6880   -0.6380    2.3780 C   0  0  0  0  0  0  0  0  0  0  0  0
   -5.8040    0.0900    1.1390 C   0  0  0  0  0  0  0  0  0  0  0  0
   -6.9630    0.7370    0.8870 C   0  0  0  0  0  0  0  0  0  0  0  0
   -7.2420    1.5090   -0.3040 C   0  0  0  0  0  0  0  0  0  0  0  0
   -6.2150    1.6370   -1.3300 C   0  0  0  0  0  0  0  0  0  0  0  0
   -4.9560    0.8930   -0.9850 C   0  0  0  0  0  0  0  0  0  0  0  0
   -4.7590    0.2000    0.1110 C   0  0  0  0  0  0  0  0  0  0  0  0
   -3.4870   -0.5240    0.3740 C   0  0  0  0  0  0  0  0  0  0  0  0
   -2.4930   -0.3370   -0.6700 N   0  0  0  0  0  0  0  0  0  0  0  0
   -1.2000   -0.9510   -0.5300 C   0  0  0  0  0  0  0  0  0  0  0  0
   -0.9530   -1.6390    0.5190 O   0  0  0  0  0  0  0  0  0  0  0  0
   -0.1790   -0.8060   -1.5520 C   0  0  0  0  0  0  0  0  0  0  0  0
    1.0660   -1.3910   -1.4240 O   0  0  0  0  0  0  0  0  0  0  0  0
    2.0880   -0.9130   -0.6630 C   0  0  0  0  0  0  0  0  0  0  0  0
    3.2910   -1.5660   -0.6000 C   0  0  0  0  0  0  0  0  0  0  0  0
    4.3360   -1.0660    0.1870 C   0  0  0  0  0  0  0  0  0  0  0  0
    4.2330    0.0770    0.9230 C   0  0  0  0  0  0  0  0  0  0  0  0
    5.2590    0.7200    1.6810 C   0  0  0  0  0  0  0  0  0  0  0  0
    6.5190    0.7480    1.6670 C   0  0  0  0  0  0  0  0  0  0  0  0
    7.5650    0.1620    0.8710 C   0  0  0  0  0  0  0  0  0  0  0  0
    7.5640   -0.4170   -0.3620 C   0  0  0  0  0  0  0  0  0  0  0  0
    8.8550   -0.8230   -0.6430 C   0  0  0  0  0  0  0  0  0  0  0  0
    9.6160   -0.4790    0.4290 C   0  0  0  0  0  0  0  0  0  0  0  0
    8.8450    0.0890    1.2880 O   0  0  0  0  0  0  0  0  0  0  0  0
    2.9800    0.7370    0.8450 C   0  0  0  0  0  0  0  0  0  0  0  0
    1.9540    0.2400    0.0710 C   0  0  0  0  0  0  0  0  0  0  0  0
   -0.4640   -0.0960   -2.6200 C   0  0  0  0  0  0  0  0  0  0  0  0
   -1.7300    0.5710   -2.8820 C   0  0  0  0  0  0  0  0  0  0  0  0
   -2.7630    0.4220   -1.8230 C   0  0  0  0  0  0  0  0  0  0  0  0
   -3.9210    1.0000   -1.9730 N   0  0  0  0  0  0  0  0  0  0  0  0
  1  2  2  0
  2  3  1  0
  3  4  2  0
  3  8  1  0
  4  5  1  0
  5  6  1  0
  6  7  1  0
  7  8  2  0
  7 31  1  0
  8  9  1  0
  9 10  1  0
 10 11  1  0
 10 30  1  0
 11 12  2  0
 11 13  1  0
 13 14  1  0
 13 28  2  0
 14 15  1  0
 15 16  2  0
 15 27  1  0
 16 17  1  0
 17 18  2  0
 18 19  1  0
 18 26  1  0
 19 20  2  3
 20 21  1  0
 21 22  2  0
 21 25  1  0
 22 23  1  0
 23 24  2  0
 24 25  1  0
 26 27  2  0
 28 29  1  0
 29 30  1  0
 30 31  2  0
M  END
