
     RDKit          3D

 31 33  0  0  0  0  0  0  0  0999 V2000
    9.7050    1.9230    0.4670 N   0  0  0  0  0  0  0  0  0  0  0  0
    8.3530    1.6950    0.0890 C   0  0  0  0  0  0  0  0  0  0  0  0
    7.6960    2.5710   -0.5520 O   0  0  0  0  0  0  0  0  0  0  0  0
    7.6560    0.4940    0.3950 N   0  0  0  0  0  0  0  0  0  0  0  0
    6.2840    0.2420    0.0210 C   0  0  2  0  0  0  0  0  0  0  0  0
    5.4800   -0.3220    1.2010 C   0  0  0  0  0  0  0  0  0  0  0  0
    4.8250   -1.1820    0.2580 N   0  0  0  0  0  0  0  0  0  0  0  0
    3.5650   -1.8280    0.1470 C   0  0  0  0  0  0  0  0  0  0  0  0
    3.2690   -2.5450   -0.8330 O   0  0  0  0  0  0  0  0  0  0  0  0
    2.6560   -1.6720    1.1190 O   0  0  0  0  0  0  0  0  0  0  0  0
    1.4010   -2.0430    1.4400 C   0  0  0  0  0  0  0  0  0  0  0  0
    0.3220   -1.6820    0.7160 O   0  0  0  0  0  0  0  0  0  0  0  0
   -0.1600   -1.8830   -0.5130 C   0  0  0  0  0  0  0  0  0  0  0  0
    0.4780   -2.6030   -1.3080 O   0  0  0  0  0  0  0  0  0  0  0  0
   -1.4470   -1.2860   -1.0140 C   0  0  2  0  0  0  0  0  0  0  0  0
   -1.4140    0.2200   -0.9870 C   0  0  0  0  0  0  0  0  0  0  0  0
   -2.8910    0.5550   -0.7880 C   0  0  0  0  0  0  0  0  0  0  0  0
   -3.4830   -0.5290   -0.1210 N   0  0  0  0  0  0  0  0  0  0  0  0
   -4.7900   -0.6900    0.3780 C   0  0  0  0  0  0  0  0  0  0  0  0
   -4.9990   -1.8330    0.9710 O   0  0  0  0  0  0  0  0  0  0  0  0
   -5.9190    0.2180    0.3290 C   0  0  0  0  0  0  0  0  0  0  0  0
   -5.9160    1.4030   -0.2250 C   0  0  0  0  0  0  0  0  0  0  0  0
   -7.0920    2.3110   -0.2580 C   0  0  1  0  0  0  0  0  0  0  0  0
   -6.7150    3.4740    0.4330 O   0  0  0  0  0  0  0  0  0  0  0  0
   -7.5360    2.7100   -2.0170 P   0  0  0  0  0  0  0  0  0  0  0  0
   -6.7560    3.8390   -2.7260 O   0  0  0  0  0  0  0  0  0  0  0  0
   -8.2150    1.7750    0.3660 O   0  0  0  0  0  0  0  0  0  0  0  0
   -8.2350    0.5350    0.9520 C   0  0  0  0  0  0  0  0  0  0  0  0
   -7.1700   -0.2240    0.9520 C   0  0  0  0  0  0  0  0  0  0  0  0
   -2.5010   -1.6210    0.0190 C   0  0  0  0  0  0  0  0  0  0  0  0
    6.0120   -1.1220   -0.5630 C   0  0  0  0  0  0  0  0  0  0  0  0
  1  2  1  0
  2  3  2  0
  2  4  1  0
  5  4  1  1
  5  6  1  0
  5 31  1  0
  6  7  1  0
  7  8  1  0
  7 31  1  0
  8  9  2  0
  8 10  1  0
 10 11  1  0
 11 12  1  0
 12 13  1  0
 13 14  2  0
 15 13  1  1
 15 16  1  0
 15 30  1  0
 16 17  1  0
 17 18  1  0
 18 19  1  0
 18 30  1  0
 19 20  2  0
 19 21  1  0
 21 22  2  0
 21 29  1  0
 22 23  1  0
 23 24  1  1
 23 25  1  0
 23 27  1  0
 25 26  2  0
 27 28  1  0
 28 29  2  0
M  END
