
     RDKit          3D

 31 32  0  0  0  0  0  0  0  0999 V2000
    5.5660   -2.7730    1.4290 C   0  0  0  0  0  0  0  0  0  0  0  0
    6.0890   -1.4950    1.0450 C   0  0  0  0  0  0  0  0  0  0  0  0
    5.6650   -0.4360    0.4650 C   0  0  0  0  0  0  0  0  0  0  0  0
    6.7420    0.6300    0.3170 C   0  0  0  0  0  0  0  0  0  0  0  0
    6.6010    1.7780   -0.2110 C   0  0  0  0  0  0  0  0  0  0  0  0
    7.7200    2.6380   -0.2580 O   0  0  0  0  0  0  0  0  0  0  0  0
    9.0500    2.3990   -1.3280 P   0  0  0  0  0  0  0  0  0  0  0  0
   10.5530    2.3330   -0.4350 O   0  0  0  0  0  0  0  0  0  0  0  0
    9.1620    3.6590   -2.5400 O   0  0  0  0  0  0  0  0  0  0  0  0
    4.4000    0.0390    0.1030 C   0  0  0  0  0  0  0  0  0  0  0  0
    4.0100    0.9940   -0.4990 O   0  0  0  0  0  0  0  0  0  0  0  0
    3.1320   -0.9720    0.6900 N   0  0  0  0  0  0  0  0  0  0  0  0
    2.0270   -0.2640    0.0660 C   0  0  0  0  0  0  0  0  0  0  0  0
    2.0350    0.4470   -0.8620 O   0  0  0  0  0  0  0  0  0  0  0  0
    0.9660   -0.7170    0.9350 N   0  0  0  0  0  0  0  0  0  0  0  0
   -0.2710    0.2810    0.2860 C   0  0  0  0  0  0  0  0  0  0  0  0
    0.0320    0.8640   -0.6760 O   0  0  0  0  0  0  0  0  0  0  0  0
   -1.4700    0.2320    1.0750 C   0  0  0  0  0  0  0  0  0  0  0  0
   -1.7360   -0.5070    2.0100 O   0  0  0  0  0  0  0  0  0  0  0  0
   -2.4240    1.1990    0.6940 O   0  0  0  0  0  0  0  0  0  0  0  0
   -3.5920    1.3460    1.3860 C   0  0  0  0  0  0  0  0  0  0  0  0
   -4.6020    0.2840    1.4310 C   0  0  0  0  0  0  0  0  0  0  0  0
   -5.1420    0.1020    0.0900 N   0  0  0  0  0  0  0  0  0  0  0  0
   -4.6890   -0.8950   -0.8310 C   0  0  0  0  0  0  0  0  0  0  0  0
   -5.7590   -1.2980   -1.8300 C   0  0  1  0  0  0  0  0  0  0  0  0
   -6.9270   -1.9560   -1.1710 C   0  0  0  0  0  0  0  0  0  0  0  0
   -7.8180   -0.7970   -0.7560 C   0  0  0  0  0  0  0  0  0  0  0  0
   -7.1340    0.4390   -1.3670 C   0  0  2  0  0  0  0  0  0  0  0  0
   -6.3470   -0.1070   -2.4510 N   0  0  0  0  0  0  0  0  0  0  0  0
   -6.2250    0.9590   -0.3440 C   0  0  0  0  0  0  0  0  0  0  0  0
   -6.3070    2.0910    0.1900 O   0  0  0  0  0  0  0  0  0  0  0  0
  1  2  1  0
  2  3  2  3
  3  4  1  0
  3 10  1  0
  4  5  2  3
  5  6  1  0
  6  7  1  0
  7  8  1  0
  7  9  1  0
 10 11  2  0
 10 12  1  0
 12 13  1  0
 13 14  2  0
 13 15  1  0
 15 16  1  0
 16 17  2  0
 16 18  1  0
 18 19  2  0
 18 20  1  0
 20 21  1  0
 21 22  1  0
 22 23  1  0
 23 24  1  0
 23 30  1  0
 25 24  1  1
 25 26  1  0
 25 29  1  0
 26 27  1  0
 28 27  1  1
 28 29  1  0
 28 30  1  0
 30 31  2  0
M  END
