
     RDKit          3D

 30 32  0  0  0  0  0  0  0  0999 V2000
   -5.3270   -0.4630   -0.0410 O   0  0  0  0  0  0  0  0  0  0  0  0
   -4.6870   -1.4860   -0.4100 C   0  0  0  0  0  0  0  0  0  0  0  0
   -5.3870   -2.5000   -1.0580 O   0  0  0  0  0  0  0  0  0  0  0  0
   -3.3020   -1.6290   -0.1860 N   0  0  0  0  0  0  0  0  0  0  0  0
   -2.6930   -2.7210    0.0560 C   0  0  0  0  0  0  0  0  0  0  0  0
   -3.4350   -3.9290    0.1140 O   0  0  0  0  0  0  0  0  0  0  0  0
   -2.7350   -5.1220   -0.0650 C   0  0  0  0  0  0  0  0  0  0  0  0
   -1.5720   -5.0860    0.9320 C   0  0  0  0  0  0  0  0  0  0  0  0
   -0.6860   -4.0000    0.5300 N   0  0  0  0  0  0  0  0  0  0  0  0
   -1.2620   -2.6930    0.2630 C   0  0  0  0  0  0  0  0  0  0  0  0
   -0.4530   -1.6720    0.2400 C   0  0  0  0  0  0  0  0  0  0  0  0
   -0.6510   -0.2830    0.0170 C   0  0  0  0  0  0  0  0  0  0  0  0
   -1.7700    0.2580   -0.2230 N   0  0  0  0  0  0  0  0  0  0  0  0
   -1.9900    1.5780   -0.4400 O   0  0  0  0  0  0  0  0  0  0  0  0
   -2.6660    2.4240    0.4650 C   0  0  0  0  0  0  0  0  0  0  0  0
   -2.7100    3.8080   -0.1250 C   0  0  1  0  0  0  0  0  0  0  0  0
   -3.4060    4.8940    0.7010 C   0  0  0  0  0  0  0  0  0  0  0  0
   -1.9020    4.8530    0.5600 C   0  0  0  0  0  0  0  0  0  0  0  0
    0.5180    0.6520    0.0590 C   0  0  1  0  0  0  0  0  0  0  0  0
    1.1400    0.5690    1.4170 C   0  0  0  0  0  0  0  0  0  0  0  0
    2.1200    1.5060    1.6380 O   0  0  0  0  0  0  0  0  0  0  0  0
    3.3930    1.0510    1.2560 C   0  0  0  0  0  0  0  0  0  0  0  0
    3.6000    1.4530   -0.1660 C   0  0  1  0  0  0  0  0  0  0  0  0
    5.0410    1.6010   -0.5590 C   0  0  0  0  0  0  0  0  0  0  0  0
    6.0270    0.0670   -0.3670 P   0  0  0  0  0  0  0  0  0  0  0  0
    7.4810    0.4450    0.5080 O   0  0  0  0  0  0  0  0  0  0  0  0
    5.1780   -1.2070    0.4160 O   0  0  0  0  0  0  0  0  0  0  0  0
    2.8830    0.4660   -1.0250 C   0  0  0  0  0  0  0  0  0  0  0  0
    3.5440   -0.1900   -1.8590 O   0  0  0  0  0  0  0  0  0  0  0  0
    1.4830    0.2150   -0.9610 N   0  0  0  0  0  0  0  0  0  0  0  0
  1  2  2  0
  2  3  1  0
  2  4  1  0
  4  5  2  3
  5  6  1  0
  5 10  1  0
  6  7  1  0
  7  8  1  0
  8  9  1  0
  9 10  1  0
 10 11  2  3
 11 12  1  0
 12 13  2  3
 19 12  1  1
 13 14  1  0
 14 15  1  0
 16 15  1  1
 16 17  1  0
 16 18  1  0
 17 18  1  0
 19 20  1  0
 19 30  1  0
 20 21  1  0
 21 22  1  0
 22 23  1  0
 23 24  1  6
 23 28  1  0
 24 25  1  0
 25 26  1  0
 25 27  1  0
 28 29  2  0
 28 30  1  0
M  END
