
     RDKit          3D

 30 32  0  0  0  0  0  0  0  0999 V2000
   -1.9610    2.2660    3.1180 O   0  0  0  0  0  0  0  0  0  0  0  0
   -2.5220    1.3080    2.5810 C   0  0  0  0  0  0  0  0  0  0  0  0
   -2.0790   -0.0360    2.7410 N   0  0  0  0  0  0  0  0  0  0  0  0
   -2.6660   -1.0310    1.8980 C   0  0  0  0  0  0  0  0  0  0  0  0
   -2.9650   -2.1740    2.3650 O   0  0  0  0  0  0  0  0  0  0  0  0
   -2.8960   -0.6420    0.4790 C   0  0  2  0  0  0  0  0  0  0  0  0
   -1.6300   -0.4410   -0.2800 C   0  0  0  0  0  0  0  0  0  0  0  0
   -1.3180    0.7680   -0.5330 O   0  0  0  0  0  0  0  0  0  0  0  0
   -0.7840   -1.4560   -0.7210 N   0  0  0  0  0  0  0  0  0  0  0  0
   -1.1430   -2.8510   -0.4550 C   0  0  0  0  0  0  0  0  0  0  0  0
   -1.1510   -3.5670   -1.8020 C   0  0  0  0  0  0  0  0  0  0  0  0
   -0.0840   -3.2170   -2.5810 O   0  0  0  0  0  0  0  0  0  0  0  0
    0.9600   -2.6370   -1.8170 C   0  0  0  0  0  0  0  0  0  0  0  0
    0.4540   -1.2670   -1.4410 C   0  0  1  0  0  0  0  0  0  0  0  0
    0.1650   -0.5600   -2.7720 C   0  0  0  0  0  0  0  0  0  0  0  0
   -0.6990   -1.2990   -3.5660 O   0  0  0  0  0  0  0  0  0  0  0  0
    1.4300   -0.4540   -0.6670 C   0  0  0  0  0  0  0  0  0  0  0  0
    2.6780   -0.2340   -1.3340 N   0  0  0  0  0  0  0  0  0  0  0  0
    3.5880    0.5880   -0.5690 C   0  0  0  0  0  0  0  0  0  0  0  0
    4.1050   -0.0730    0.6790 C   0  0  0  0  0  0  0  0  0  0  0  0
    5.0490    0.8160    1.4430 C   0  0  0  0  0  0  0  0  0  0  0  0
    4.2560    2.3850    1.9760 P   0  0  0  0  0  0  0  0  0  0  0  0
    4.4240    3.6080    0.7410 O   0  0  0  0  0  0  0  0  0  0  0  0
    5.0240    2.9640    3.4430 O   0  0  0  0  0  0  0  0  0  0  0  0
   -3.6420    0.6230    0.5510 N   0  0  0  0  0  0  0  0  0  0  0  0
   -4.4170    1.2820   -0.4670 C   0  0  0  0  0  0  0  0  0  0  0  0
   -4.8400    0.7530   -1.5400 O   0  0  0  0  0  0  0  0  0  0  0  0
   -4.6520    2.6900   -0.0720 C   0  0  0  0  0  0  0  0  0  0  0  0
   -3.8560    2.8650    1.1910 C   0  0  0  0  0  0  0  0  0  0  0  0
   -3.7230    1.4620    1.7090 C   0  0  2  0  0  0  0  0  0  0  0  0
  1  2  2  0
  2  3  1  0
  2 30  1  0
  3  4  1  0
  4  5  2  0
  4  6  1  0
  6  7  1  6
  6 25  1  0
  7  8  2  0
  7  9  1  0
  9 10  1  0
  9 14  1  0
 10 11  1  0
 11 12  1  0
 12 13  1  0
 13 14  1  0
 14 15  1  6
 14 17  1  0
 15 16  1  0
 17 18  1  0
 18 19  1  0
 19 20  1  0
 20 21  1  0
 21 22  1  0
 22 23  1  0
 22 24  1  0
 25 26  1  0
 25 30  1  0
 26 27  2  0
 26 28  1  0
 28 29  1  0
 30 29  1  6
M  END
