
     RDKit          3D

 21 23  0  0  0  0  0  0  0  0999 V2000
   -1.3890    2.6160   -1.2180 C   0  0  0  0  0  0  0  0  0  0  0  0
   -2.4100    1.9000   -0.3510 C   0  0  0  0  0  0  0  0  0  0  0  0
   -2.7580    0.6720   -0.6380 C   0  0  0  0  0  0  0  0  0  0  0  0
   -2.1730    0.0400   -1.7500 N   0  0  0  0  0  0  0  0  0  0  0  0
   -0.9870   -0.7460   -1.5670 C   0  0  0  0  0  0  0  0  0  0  0  0
   -0.2210   -1.1040   -0.7240 N   0  0  0  0  0  0  0  0  0  0  0  0
    0.8380   -1.8600   -0.8210 C   0  0  0  0  0  0  0  0  0  0  0  0
    1.7740   -2.2720    0.2980 C   0  0  0  0  0  0  0  0  0  0  0  0
    2.9110   -1.4490    0.2190 N   0  0  0  0  0  0  0  0  0  0  0  0
    3.9340   -1.6810    1.2000 C   0  0  0  0  0  0  0  0  0  0  0  0
    4.7400   -0.4260    1.3530 C   0  0  0  0  0  0  0  0  0  0  0  0
    4.0640    0.5570    0.4580 C   0  0  0  0  0  0  0  0  0  0  0  0
    2.7170   -0.0470    0.0900 C   0  0  2  0  0  0  0  0  0  0  0  0
    1.6670    0.5450    0.9520 C   0  0  0  0  0  0  0  0  0  0  0  0
    1.1000   -2.3120   -2.1170 C   0  0  0  0  0  0  0  0  0  0  0  0
   -0.2230   -1.5920   -3.0820 S   0  0  0  0  0  0  0  0  0  0  0  0
   -3.7130   -0.0140    0.1660 N   0  0  0  0  0  0  0  0  0  0  0  0
   -4.0890   -1.3650   -0.1570 C   0  0  0  0  0  0  0  0  0  0  0  0
   -4.2740    0.6580    1.2750 C   0  0  0  0  0  0  0  0  0  0  0  0
   -3.9330    1.8880    1.5710 C   0  0  0  0  0  0  0  0  0  0  0  0
   -2.9550    2.6440    0.7790 C   0  0  0  0  0  0  0  0  0  0  0  0
  1  2  1  0
  2  3  2  0
  2 21  1  0
  3  4  1  0
  3 17  1  0
  4  5  1  0
  5  6  2  0
  5 16  1  0
  6  7  1  0
  7  8  1  0
  7 15  2  0
  8  9  1  0
  9 10  1  0
  9 13  1  0
 10 11  1  0
 11 12  1  0
 12 13  1  0
 13 14  1  1
 15 16  1  0
 17 18  1  0
 17 19  1  0
 19 20  2  0
 20 21  1  0
M  END
