
     RDKit          3D

 21 23  0  0  0  0  0  0  0  0999 V2000
   -5.4650    1.2050   -0.4990 C   0  0  0  0  0  0  0  0  0  0  0  0
   -4.8200    0.1680   -0.9980 C   0  0  0  0  0  0  0  0  0  0  0  0
   -5.4510   -0.8880   -1.7760 C   0  0  0  0  0  0  0  0  0  0  0  0
   -4.4720   -1.7470   -2.0940 C   0  0  0  0  0  0  0  0  0  0  0  0
   -3.2060   -1.2690   -1.5360 C   0  0  0  0  0  0  0  0  0  0  0  0
   -3.4010   -0.1230   -0.8770 C   0  0  0  0  0  0  0  0  0  0  0  0
   -2.4250    0.6650   -0.1900 N   0  0  0  0  0  0  0  0  0  0  0  0
   -2.0790    0.3310    1.1730 C   0  0  0  0  0  0  0  0  0  0  0  0
   -1.0430    1.2790    1.6990 C   0  0  0  0  0  0  0  0  0  0  0  0
    0.1500    1.2060    0.8890 N   0  0  0  0  0  0  0  0  0  0  0  0
    1.1910    0.3740    1.1000 C   0  0  0  0  0  0  0  0  0  0  0  0
    2.1510    0.5780    0.1330 C   0  0  0  0  0  0  0  0  0  0  0  0
    3.4390   -0.0710   -0.0610 C   0  0  0  0  0  0  0  0  0  0  0  0
    4.1320    0.3620   -1.1000 C   0  0  0  0  0  0  0  0  0  0  0  0
    5.4220   -0.0090   -1.6270 C   0  0  0  0  0  0  0  0  0  0  0  0
    6.4570   -0.5520   -1.0210 C   0  0  0  0  0  0  0  0  0  0  0  0
    6.5400   -1.0030    0.7280 S   0  0  0  0  0  0  0  0  0  0  0  0
    4.9390   -1.5240    1.2900 C   0  0  0  0  0  0  0  0  0  0  0  0
    3.7600   -1.0940    0.9170 C   0  0  0  0  0  0  0  0  0  0  0  0
    1.6580    1.5450   -0.6520 N   0  0  0  0  0  0  0  0  0  0  0  0
    0.4540    1.8980   -0.1680 N   0  0  0  0  0  0  0  0  0  0  0  0
  1  2  2  0
  2  3  1  0
  2  6  1  0
  3  4  2  0
  4  5  1  0
  5  6  2  0
  6  7  1  0
  7  8  1  0
  8  9  1  0
  9 10  1  0
 10 11  1  0
 10 21  1  0
 11 12  2  0
 12 13  1  0
 12 20  1  0
 13 14  2  0
 13 19  1  0
 14 15  1  0
 15 16  2  0
 16 17  1  0
 17 18  1  0
 18 19  2  0
 20 21  2  0
M  END
