
     RDKit          3D

 15 15  0  0  0  0  0  0  0  0999 V2000
    4.1440    1.1690    0.0440 C   0  0  0  0  0  0  0  0  0  0  0  0
    3.1430    0.0850   -0.1610 C   0  0  0  0  0  0  0  0  0  0  0  0
    3.5740   -1.0230   -0.5750 O   0  0  0  0  0  0  0  0  0  0  0  0
    1.7730    0.3360    0.1100 N   0  0  0  0  0  0  0  0  0  0  0  0
    0.8190   -0.7010   -0.0870 C   0  0  1  0  0  0  0  0  0  0  0  0
    0.0700   -1.0970    1.1570 C   0  0  1  0  0  0  0  0  0  0  0  0
    0.1720   -0.2090    2.1980 O   0  0  0  0  0  0  0  0  0  0  0  0
   -1.2890   -1.3040    0.8880 O   0  0  0  0  0  0  0  0  0  0  0  0
   -1.8650   -0.0460    0.7230 C   0  0  2  0  0  0  0  0  0  0  0  0
   -3.3500   -0.1380    0.4520 C   0  0  0  0  0  0  0  0  0  0  0  0
   -3.6560   -0.8500   -0.6850 O   0  0  0  0  0  0  0  0  0  0  0  0
   -1.1930    0.6540   -0.4310 C   0  0  2  0  0  0  0  0  0  0  0  0
   -2.1450    1.0250   -1.3980 O   0  0  0  0  0  0  0  0  0  0  0  0
   -0.2380   -0.2930   -1.1230 C   0  0  2  0  0  0  0  0  0  0  0  0
   -0.9060   -1.4760   -1.4690 O   0  0  0  0  0  0  0  0  0  0  0  0
  1  2  1  0
  2  3  2  0
  2  4  1  0
  5  4  1  1
  5  6  1  0
  5 14  1  0
  6  7  1  1
  6  8  1  0
  8  9  1  0
  9 10  1  6
  9 12  1  0
 10 11  1  0
 12 13  1  6
 12 14  1  0
 14 15  1  1
M  END
