
     RDKit          3D

 21 23  0  0  0  0  0  0  0  0999 V2000
    4.7050   -0.2430    2.2310 C   0  0  0  0  0  0  0  0  0  0  0  0
    5.2190   -1.1500    1.1750 C   0  0  0  0  0  0  0  0  0  0  0  0
    4.4280   -1.4650    0.1690 C   0  0  0  0  0  0  0  0  0  0  0  0
    3.0750   -0.9360    0.0910 C   0  0  0  0  0  0  0  0  0  0  0  0
    2.2310   -1.2170   -0.8990 C   0  0  0  0  0  0  0  0  0  0  0  0
    2.6410   -2.1160   -2.0140 C   0  0  0  0  0  0  0  0  0  0  0  0
    1.7000   -1.2530   -3.3580 S   0  0  0  0  0  0  0  0  0  0  0  0
    0.4140   -0.6440   -2.2970 C   0  0  0  0  0  0  0  0  0  0  0  0
   -0.8390   -0.1510   -2.2560 C   0  0  0  0  0  0  0  0  0  0  0  0
   -1.1910    0.1000   -0.9100 C   0  0  0  0  0  0  0  0  0  0  0  0
   -2.4720    0.7030   -0.5610 C   0  0  0  0  0  0  0  0  0  0  0  0
   -3.5330    0.6060   -1.4870 C   0  0  0  0  0  0  0  0  0  0  0  0
   -4.7530    1.1900   -1.2700 C   0  0  0  0  0  0  0  0  0  0  0  0
   -5.6920    1.0700   -2.1510 N   0  0  0  0  0  0  0  0  0  0  0  0
   -4.9410    1.8950   -0.1050 C   0  0  0  0  0  0  0  0  0  0  0  0
   -3.9230    1.9720    0.7510 N   0  0  0  0  0  0  0  0  0  0  0  0
   -2.7110    1.3920    0.5350 N   0  0  0  0  0  0  0  0  0  0  0  0
   -1.7490    1.6380    1.5980 C   0  0  0  0  0  0  0  0  0  0  0  0
   -1.8630    0.5720    2.6580 C   0  0  0  0  0  0  0  0  0  0  0  0
   -0.1260   -0.2570   -0.2180 N   0  0  0  0  0  0  0  0  0  0  0  0
    0.8760   -0.7150   -1.0280 C   0  0  0  0  0  0  0  0  0  0  0  0
  1  2  1  0
  2  3  2  3
  3  4  1  0
  4  5  2  3
  5  6  1  0
  5 21  1  0
  6  7  1  0
  7  8  1  0
  8  9  1  0
  8 21  2  0
  9 10  2  0
 10 11  1  0
 10 20  1  0
 11 12  2  0
 11 17  1  0
 12 13  1  0
 13 14  2  0
 13 15  1  0
 15 16  2  0
 16 17  1  0
 17 18  1  0
 18 19  1  0
 20 21  1  0
M  END
