
     RDKit          3D

 21 23  0  0  0  0  0  0  0  0999 V2000
    5.5800   -0.4410    2.2530 C   0  0  0  0  0  0  0  0  0  0  0  0
    4.4150   -0.6190    1.5520 C   0  0  0  0  0  0  0  0  0  0  0  0
    4.2980   -1.7710    0.6680 C   0  0  0  0  0  0  0  0  0  0  0  0
    3.4260    0.3710    1.7760 C   0  0  0  0  0  0  0  0  0  0  0  0
    2.2170    0.5710    1.3260 C   0  0  0  0  0  0  0  0  0  0  0  0
    1.4390    1.7010    1.7530 N   0  0  0  0  0  0  0  0  0  0  0  0
    0.2590    1.9850    1.3770 C   0  0  0  0  0  0  0  0  0  0  0  0
   -0.4830    3.4480    2.0600 S   0  0  0  0  0  0  0  0  0  0  0  0
   -2.1130    3.7780    1.4540 C   0  0  0  0  0  0  0  0  0  0  0  0
   -2.0840    4.1310   -0.0180 C   0  0  0  0  0  0  0  0  0  0  0  0
   -0.3650    1.1190    0.4510 N   0  0  0  0  0  0  0  0  0  0  0  0
   -1.5670    1.1870   -0.0890 N   0  0  0  0  0  0  0  0  0  0  0  0
   -1.7820    0.1550   -0.9330 C   0  0  0  0  0  0  0  0  0  0  0  0
   -0.6220   -0.5910   -0.8980 C   0  0  0  0  0  0  0  0  0  0  0  0
    0.2400    0.0290   -0.0330 C   0  0  0  0  0  0  0  0  0  0  0  0
    1.5850   -0.2840    0.4040 N   0  0  0  0  0  0  0  0  0  0  0  0
   -0.3430   -1.8340   -1.6510 C   0  0  0  0  0  0  0  0  0  0  0  0
   -1.3970   -2.8580   -1.2240 C   0  0  0  0  0  0  0  0  0  0  0  0
   -2.7170   -2.6060   -1.8770 C   0  0  0  0  0  0  0  0  0  0  0  0
   -3.5050   -1.4850   -1.2740 C   0  0  0  0  0  0  0  0  0  0  0  0
   -3.0070   -0.1160   -1.7270 C   0  0  0  0  0  0  0  0  0  0  0  0
  1  2  2  0
  2  3  1  0
  2  4  1  0
  4  5  2  3
  5  6  1  0
  5 16  1  0
  6  7  2  0
  7  8  1  0
  7 11  1  0
  8  9  1  0
  9 10  1  0
 11 12  1  0
 11 15  1  0
 12 13  2  0
 13 14  1  0
 13 21  1  0
 14 15  2  0
 14 17  1  0
 15 16  1  0
 17 18  1  0
 18 19  1  0
 19 20  1  0
 20 21  1  0
M  END
