
     RDKit          3D

 21 23  0  0  0  0  0  0  0  0999 V2000
    6.7580    1.4530    0.4400 C   0  0  0  0  0  0  0  0  0  0  0  0
    5.6580    0.7670    0.2030 C   0  0  0  0  0  0  0  0  0  0  0  0
    4.2920    1.2220    0.4320 C   0  0  0  0  0  0  0  0  0  0  0  0
    3.4810    0.2210    0.0590 C   0  0  0  0  0  0  0  0  0  0  0  0
    2.0370    0.2880    0.1350 C   0  0  0  0  0  0  0  0  0  0  0  0
    1.2080   -0.7330   -0.2460 C   0  0  0  0  0  0  0  0  0  0  0  0
   -0.1530   -0.6150   -0.1520 C   0  0  0  0  0  0  0  0  0  0  0  0
   -0.7190    0.5370    0.3290 C   0  0  0  0  0  0  0  0  0  0  0  0
   -2.1360    0.6890    0.4380 N   0  0  0  0  0  0  0  0  0  0  0  0
   -2.9620   -0.4210    0.0220 C   0  0  0  0  0  0  0  0  0  0  0  0
   -4.4080   -0.0250    0.2300 C   0  0  1  0  0  0  0  0  0  0  0  0
   -4.7030    1.1910   -0.5980 C   0  0  0  0  0  0  0  0  0  0  0  0
   -5.2560   -1.1950   -0.2320 C   0  0  0  0  0  0  0  0  0  0  0  0
   -4.6730    0.2400    1.6950 C   0  0  0  0  0  0  0  0  0  0  0  0
    0.1290    1.5190    0.6930 N   0  0  0  0  0  0  0  0  0  0  0  0
    1.4370    1.4010    0.6010 N   0  0  0  0  0  0  0  0  0  0  0  0
    4.3200   -0.9140   -0.4250 C   0  0  0  0  0  0  0  0  0  0  0  0
    3.9400   -2.1500   -0.9070 N   0  0  0  0  0  0  0  0  0  0  0  0
    5.5430   -2.9210   -1.2700 S   0  0  0  0  0  0  0  0  0  0  0  0
    6.5130   -1.5930   -0.7710 C   0  0  0  0  0  0  0  0  0  0  0  0
    5.5940   -0.6090   -0.3460 C   0  0  0  0  0  0  0  0  0  0  0  0
  1  2  2  0
  2  3  1  0
  2 21  1  0
  3  4  2  0
  4  5  1  0
  4 17  1  0
  5  6  2  0
  5 16  1  0
  6  7  1  0
  7  8  2  0
  8  9  1  0
  8 15  1  0
  9 10  1  0
 10 11  1  0
 11 12  1  6
 11 13  1  0
 11 14  1  0
 15 16  2  0
 17 18  2  0
 17 21  1  0
 18 19  1  0
 19 20  1  0
 20 21  2  0
M  END
