
     RDKit          3D

 21 23  0  0  0  0  0  0  0  0999 V2000
   -4.6840   -2.4230   -0.4430 C   0  0  0  0  0  0  0  0  0  0  0  0
   -3.5800   -1.4940   -0.1200 C   0  0  0  0  0  0  0  0  0  0  0  0
   -2.5970   -1.7960    0.7950 C   0  0  0  0  0  0  0  0  0  0  0  0
   -1.6070   -0.9310    1.0670 N   0  0  0  0  0  0  0  0  0  0  0  0
   -0.5730   -1.0170    1.9000 N   0  0  0  0  0  0  0  0  0  0  0  0
    0.1600    0.1110    1.8310 C   0  0  0  0  0  0  0  0  0  0  0  0
    1.4110    0.4480    2.5950 C   0  0  0  0  0  0  0  0  0  0  0  0
    2.6160    0.0200    1.8820 C   0  0  0  0  0  0  0  0  0  0  0  0
    3.5200    0.9170    1.5330 C   0  0  0  0  0  0  0  0  0  0  0  0
    4.7140    0.5720    0.8390 N   0  0  0  0  0  0  0  0  0  0  0  0
    4.8320    0.7900   -0.5570 C   0  0  0  0  0  0  0  0  0  0  0  0
    4.5350    1.7100   -1.4650 C   0  0  0  0  0  0  0  0  0  0  0  0
    5.0950    0.9030   -2.5390 C   0  0  0  0  0  0  0  0  0  0  0  0
    5.3940   -0.0190   -1.6420 C   0  0  0  0  0  0  0  0  0  0  0  0
    6.1800   -1.6140   -1.7700 S   0  0  0  0  0  0  0  0  0  0  0  0
   -0.4630    0.8870    0.9270 N   0  0  0  0  0  0  0  0  0  0  0  0
   -1.5540    0.2770    0.4360 C   0  0  0  0  0  0  0  0  0  0  0  0
   -2.5260    0.6020   -0.4820 C   0  0  0  0  0  0  0  0  0  0  0  0
   -2.5020    1.9050   -1.1870 C   0  0  0  0  0  0  0  0  0  0  0  0
   -3.5520   -0.2660   -0.7800 C   0  0  0  0  0  0  0  0  0  0  0  0
   -4.5900    0.1020   -1.7730 C   0  0  0  0  0  0  0  0  0  0  0  0
  1  2  1  0
  2  3  2  0
  2 20  1  0
  3  4  1  0
  4  5  1  0
  4 17  1  0
  5  6  2  0
  6  7  1  0
  6 16  1  0
  7  8  1  0
  8  9  2  3
  9 10  1  0
 10 11  1  0
 11 12  2  0
 11 14  1  0
 12 13  1  0
 13 14  2  0
 14 15  1  0
 16 17  2  0
 17 18  1  0
 18 19  1  0
 18 20  2  0
 20 21  1  0
M  END
