
     RDKit          3D

 21 23  0  0  0  0  0  0  0  0999 V2000
    4.6630    0.8800    1.4790 C   0  0  0  0  0  0  0  0  0  0  0  0
    3.4040    0.6990    1.1550 C   0  0  0  0  0  0  0  0  0  0  0  0
    2.4570    1.2620    2.0290 C   0  0  0  0  0  0  0  0  0  0  0  0
    1.1210    1.1260    1.7750 C   0  0  0  0  0  0  0  0  0  0  0  0
    0.7210    0.4310    0.6540 C   0  0  0  0  0  0  0  0  0  0  0  0
   -0.5000    0.1470    0.1670 N   0  0  0  0  0  0  0  0  0  0  0  0
   -0.4180   -0.5580   -0.9580 C   0  0  0  0  0  0  0  0  0  0  0  0
   -1.5200   -1.0810   -1.8250 C   0  0  2  0  0  0  0  0  0  0  0  0
   -2.2140    0.1390   -2.4390 C   0  0  0  0  0  0  0  0  0  0  0  0
   -2.7070   -2.0600   -0.8810 S   0  0  0  0  0  0  0  0  0  0  0  0
   -3.5920   -1.0600    0.2930 C   0  0  0  0  0  0  0  0  0  0  0  0
   -4.5210   -1.6940    1.0670 N   0  0  0  0  0  0  0  0  0  0  0  0
   -5.2340   -1.0140    1.9770 C   0  0  0  0  0  0  0  0  0  0  0  0
   -5.0340    0.3340    2.1400 C   0  0  0  0  0  0  0  0  0  0  0  0
   -4.0890    1.0020    1.3580 C   0  0  0  0  0  0  0  0  0  0  0  0
   -3.4100    0.2500    0.4630 N   0  0  0  0  0  0  0  0  0  0  0  0
    0.9180   -0.7260   -1.1890 N   0  0  0  0  0  0  0  0  0  0  0  0
    1.6410   -0.1360   -0.2270 C   0  0  0  0  0  0  0  0  0  0  0  0
    3.0140   -0.0050    0.0190 C   0  0  0  0  0  0  0  0  0  0  0  0
    3.9120   -0.5160   -0.7730 C   0  0  0  0  0  0  0  0  0  0  0  0
    3.7280   -1.2810   -2.0010 C   0  0  0  0  0  0  0  0  0  0  0  0
  1  2  2  0
  2  3  1  0
  2 19  1  0
  3  4  2  0
  4  5  1  0
  5  6  1  0
  5 18  2  0
  6  7  2  0
  7  8  1  0
  7 17  1  0
  8  9  1  1
  8 10  1  0
 10 11  1  0
 11 12  2  0
 11 16  1  0
 12 13  1  0
 13 14  2  0
 14 15  1  0
 15 16  2  0
 17 18  1  0
 18 19  1  0
 19 20  2  3
 20 21  1  0
M  END
