
     RDKit          3D

 22 23  0  0  0  0  0  0  0  0999 V2000
   -3.4830   -1.8120    2.0880 C   0  0  0  0  0  0  0  0  0  0  0  0
   -3.6210   -1.9500    0.7800 C   0  0  0  0  0  0  0  0  0  0  0  0
   -2.4500   -1.7050   -0.0600 C   0  0  0  0  0  0  0  0  0  0  0  0
   -2.6030   -1.8460   -1.3650 C   0  0  0  0  0  0  0  0  0  0  0  0
   -3.8710   -2.2310   -2.0200 C   0  0  0  0  0  0  0  0  0  0  0  0
   -1.1900   -1.3290    0.5140 N   0  0  0  0  0  0  0  0  0  0  0  0
   -0.7490    0.0210    0.5000 C   0  0  0  0  0  0  0  0  0  0  0  0
    0.5290    0.3040    0.6870 C   0  0  0  0  0  0  0  0  0  0  0  0
    1.3910   -0.7640    0.8900 O   0  0  0  0  0  0  0  0  0  0  0  0
    2.5310   -0.9800    0.1320 C   0  0  0  0  0  0  0  0  0  0  0  0
    2.5740   -1.9270   -0.7950 C   0  0  0  0  0  0  0  0  0  0  0  0
    3.8670   -2.0530   -1.5400 C   0  0  0  0  0  0  0  0  0  0  0  0
    5.0180   -1.9150   -0.6060 C   0  0  0  0  0  0  0  0  0  0  0  0
    4.8530   -1.0210    0.4110 O   0  0  0  0  0  0  0  0  0  0  0  0
    3.7800   -0.1760    0.2990 C   0  0  0  0  0  0  0  0  0  0  0  0
    0.9870    1.6670    0.6750 N   0  0  0  0  0  0  0  0  0  0  0  0
    0.1800    2.6370    0.4870 C   0  0  0  0  0  0  0  0  0  0  0  0
    0.6390    4.0700    0.4710 C   0  0  0  0  0  0  0  0  0  0  0  0
   -0.0980    4.7760    1.5720 C   0  0  0  0  0  0  0  0  0  0  0  0
   -1.1930    2.4070    0.2820 N   0  0  0  0  0  0  0  0  0  0  0  0
   -1.7310    1.0720    0.2790 C   0  0  1  0  0  0  0  0  0  0  0  0
   -2.2660    0.8750   -1.0040 O   0  0  0  0  0  0  0  0  0  0  0  0
  1  2  2  0
  2  3  1  0
  3  4  2  3
  3  6  1  0
  4  5  1  0
  6  7  1  0
  7  8  2  0
  7 21  1  0
  8  9  1  0
  8 16  1  0
  9 10  1  0
 10 11  2  0
 10 15  1  0
 11 12  1  0
 12 13  1  0
 13 14  1  0
 14 15  1  0
 16 17  2  0
 17 18  1  0
 17 20  1  0
 18 19  1  0
 20 21  1  0
 21 22  1  6
M  END
