
     RDKit          3D

 21 23  0  0  0  0  0  0  0  0999 V2000
    6.7180    0.2910   -0.3980 C   0  0  0  0  0  0  0  0  0  0  0  0
    5.6690    0.9880    0.0040 C   0  0  0  0  0  0  0  0  0  0  0  0
    5.6050    2.2780    0.5710 N   0  0  0  0  0  0  0  0  0  0  0  0
    4.2780    2.5300    0.8060 O   0  0  0  0  0  0  0  0  0  0  0  0
    3.4850    1.4590    0.4160 C   0  0  0  0  0  0  0  0  0  0  0  0
    4.2720    0.5200   -0.0670 C   0  0  0  0  0  0  0  0  0  0  0  0
    3.7300   -0.7460   -0.5650 C   0  0  0  0  0  0  0  0  0  0  0  0
    4.5120   -1.7080   -0.6930 O   0  0  0  0  0  0  0  0  0  0  0  0
    2.2880   -0.7980   -0.8840 C   0  0  0  0  0  0  0  0  0  0  0  0
    1.5650   -0.0950    0.2370 C   0  0  2  0  0  0  0  0  0  0  0  0
    0.1450   -0.0250   -0.1810 N   0  0  0  0  0  0  0  0  0  0  0  0
   -0.8140   -0.7250    0.5750 C   0  0  0  0  0  0  0  0  0  0  0  0
   -0.4410   -1.4080    1.6070 O   0  0  0  0  0  0  0  0  0  0  0  0
   -2.2190   -0.7430    0.2830 C   0  0  0  0  0  0  0  0  0  0  0  0
   -2.6250   -0.0640   -0.7520 C   0  0  0  0  0  0  0  0  0  0  0  0
   -4.0350    0.0480   -1.2250 C   0  0  0  0  0  0  0  0  0  0  0  0
   -4.8990    0.5510   -0.1100 C   0  0  0  0  0  0  0  0  0  0  0  0
   -5.2550   -0.6360    0.7740 C   0  0  0  0  0  0  0  0  0  0  0  0
   -4.1760   -0.7470    1.8180 C   0  0  0  0  0  0  0  0  0  0  0  0
   -3.0450   -1.5640    1.2370 C   0  0  0  0  0  0  0  0  0  0  0  0
    2.0210    1.2910    0.4810 C   0  0  0  0  0  0  0  0  0  0  0  0
  1  2  2  0
  2  3  1  0
  2  6  1  0
  3  4  1  0
  4  5  1  0
  5  6  2  0
  5 21  1  0
  6  7  1  0
  7  8  2  0
  7  9  1  0
  9 10  1  0
 10 11  1  6
 10 21  1  0
 11 12  1  0
 12 13  2  0
 12 14  1  0
 14 15  2  0
 14 20  1  0
 15 16  1  0
 16 17  1  0
 17 18  1  0
 18 19  1  0
 19 20  1  0
M  END
