
     RDKit          3D

 22 24  0  0  0  0  0  0  0  0999 V2000
    2.5720   -1.5730   -1.0010 O   0  0  0  0  0  0  0  0  0  0  0  0
    2.9510   -0.6670   -0.2080 C   0  0  0  0  0  0  0  0  0  0  0  0
    4.1350    0.0030   -0.4060 C   0  0  0  0  0  0  0  0  0  0  0  0
    4.9160   -0.3330   -1.4980 C   0  0  0  0  0  0  0  0  0  0  0  0
    6.0930    0.3400   -1.6850 C   0  0  0  0  0  0  0  0  0  0  0  0
    6.4570    1.3170   -0.7920 C   0  0  0  0  0  0  0  0  0  0  0  0
    5.6980    1.6640    0.2950 C   0  0  0  0  0  0  0  0  0  0  0  0
    4.4970    0.9850    0.4960 C   0  0  0  0  0  0  0  0  0  0  0  0
    3.7050    1.2640    1.5270 N   0  0  0  0  0  0  0  0  0  0  0  0
    2.5550    0.5860    1.6850 C   0  0  0  0  0  0  0  0  0  0  0  0
    2.1680   -0.3710    0.8360 N   0  0  0  0  0  0  0  0  0  0  0  0
    0.9120   -1.1070    1.0140 C   0  0  0  0  0  0  0  0  0  0  0  0
   -0.2250   -0.3830    0.2810 C   0  0  2  0  0  0  0  0  0  0  0  0
   -0.3150    0.8720    0.8340 O   0  0  0  0  0  0  0  0  0  0  0  0
   -1.4490   -1.2280    0.4450 C   0  0  0  0  0  0  0  0  0  0  0  0
   -2.6710   -0.6690   -0.2140 C   0  0  1  0  0  0  0  0  0  0  0  0
   -3.7680   -1.5960    0.0320 N   0  0  0  0  0  0  0  0  0  0  0  0
   -4.9010   -1.3060   -0.8240 C   0  0  0  0  0  0  0  0  0  0  0  0
   -5.1570    0.1690   -0.9770 C   0  0  0  0  0  0  0  0  0  0  0  0
   -4.5750    0.9010    0.2100 C   0  0  0  0  0  0  0  0  0  0  0  0
   -3.0980    0.6610    0.3630 C   0  0  1  0  0  0  0  0  0  0  0  0
   -2.7940    0.7780    1.7180 O   0  0  0  0  0  0  0  0  0  0  0  0
  1  2  2  0
  2  3  1  0
  2 11  1  0
  3  4  2  0
  3  8  1  0
  4  5  1  0
  5  6  2  0
  6  7  1  0
  7  8  2  0
  8  9  1  0
  9 10  2  0
 10 11  1  0
 11 12  1  0
 12 13  1  0
 13 14  1  1
 13 15  1  0
 16 15  1  1
 16 17  1  0
 16 21  1  0
 17 18  1  0
 18 19  1  0
 19 20  1  0
 20 21  1  0
 21 22  1  1
M  END
