
     RDKit          3D

 22 23  0  0  0  0  0  0  0  0999 V2000
    6.7850   -0.7340   -1.1430 C   0  0  0  0  0  0  0  0  0  0  0  0
    6.4750    0.6970   -0.8090 C   0  0  0  0  0  0  0  0  0  0  0  0
    5.1080    0.9600   -1.0520 O   0  0  0  0  0  0  0  0  0  0  0  0
    4.1440    0.2370   -0.3640 C   0  0  0  0  0  0  0  0  0  0  0  0
    4.5450   -0.6290    0.4540 O   0  0  0  0  0  0  0  0  0  0  0  0
    2.6910    0.4760   -0.5850 C   0  0  0  0  0  0  0  0  0  0  0  0
    1.9220   -0.4600    0.3040 C   0  0  0  0  0  0  0  0  0  0  0  0
    0.4850   -0.3240    0.1800 N   0  0  0  0  0  0  0  0  0  0  0  0
   -0.1020    0.9220    0.4860 C   0  0  0  0  0  0  0  0  0  0  0  0
    0.5780    1.9210    0.8590 O   0  0  0  0  0  0  0  0  0  0  0  0
   -1.5520    1.0600    0.3660 C   0  0  0  0  0  0  0  0  0  0  0  0
   -2.2230    2.1740    0.6140 C   0  0  0  0  0  0  0  0  0  0  0  0
   -1.6230    3.4120    1.0380 N   0  0  0  0  0  0  0  0  0  0  0  0
   -3.5910    1.9540    0.3830 N   0  0  0  0  0  0  0  0  0  0  0  0
   -3.8190    0.7530    0.0030 C   0  0  0  0  0  0  0  0  0  0  0  0
   -5.2490    0.4850   -0.2530 C   0  0  0  0  0  0  0  0  0  0  0  0
   -5.9620   -0.6270   -0.2840 C   0  0  0  0  0  0  0  0  0  0  0  0
   -5.6120   -2.0430   -0.0760 C   0  0  0  0  0  0  0  0  0  0  0  0
   -4.5730   -2.6540    0.4490 C   0  0  0  0  0  0  0  0  0  0  0  0
   -3.3170   -2.1850    1.0510 C   0  0  0  0  0  0  0  0  0  0  0  0
   -2.5380   -1.1460    0.8680 C   0  0  0  0  0  0  0  0  0  0  0  0
   -2.5470    0.0420   -0.0230 C   0  0  2  0  0  0  0  0  0  0  0  0
  1  2  1  0
  2  3  1  0
  3  4  1  0
  4  5  2  0
  4  6  1  0
  6  7  1  0
  7  8  1  0
  8  9  1  0
  9 10  2  0
  9 11  1  0
 11 12  2  0
 11 22  1  0
 12 13  1  0
 12 14  1  0
 14 15  2  0
 15 16  1  0
 15 22  1  0
 16 17  2  0
 17 18  1  0
 18 19  2  0
 19 20  1  0
 20 21  2  0
 22 21  1  1
M  END
