
     RDKit          3D

 22 23  0  0  0  0  0  0  0  0999 V2000
    2.8660   -1.4510    1.4040 C   0  0  0  0  0  0  0  0  0  0  0  0
    1.4450   -0.9440    1.2760 C   0  0  0  0  0  0  0  0  0  0  0  0
    1.1030   -0.4980   -0.1000 C   0  0  1  0  0  0  0  0  0  0  0  0
    1.9030    0.5660   -0.6050 N   0  0  0  0  0  0  0  0  0  0  0  0
    2.0890    1.8020    0.0630 C   0  0  0  0  0  0  0  0  0  0  0  0
    1.5460    1.9870    1.1490 O   0  0  0  0  0  0  0  0  0  0  0  0
    2.9530    2.8440   -0.5940 C   0  0  0  0  0  0  0  0  0  0  0  0
    2.9850    4.0230    0.2930 C   0  0  0  0  0  0  0  0  0  0  0  0
    3.0250    4.9370    0.9980 N   0  0  0  0  0  0  0  0  0  0  0  0
    1.4820   -1.7180   -1.0020 C   0  0  0  0  0  0  0  0  0  0  0  0
    0.8120   -2.9420   -0.5580 C   0  0  0  0  0  0  0  0  0  0  0  0
    1.4110   -4.0320   -0.6600 O   0  0  0  0  0  0  0  0  0  0  0  0
   -0.4940   -2.8600   -0.0260 N   0  0  0  0  0  0  0  0  0  0  0  0
   -0.9460   -1.5970    0.4260 C   0  0  0  0  0  0  0  0  0  0  0  0
   -1.7780   -1.4780    1.3690 O   0  0  0  0  0  0  0  0  0  0  0  0
   -0.3690   -0.3940   -0.2910 C   0  0  1  0  0  0  0  0  0  0  0  0
   -1.0290    0.8560    0.1430 C   0  0  0  0  0  0  0  0  0  0  0  0
   -2.4980    0.7500   -0.1780 C   0  0  0  0  0  0  0  0  0  0  0  0
   -3.1130   -0.2450   -0.7750 C   0  0  0  0  0  0  0  0  0  0  0  0
   -4.5620    0.0560   -0.8930 C   0  0  0  0  0  0  0  0  0  0  0  0
   -4.7000    1.3740   -0.2760 C   0  0  0  0  0  0  0  0  0  0  0  0
   -3.5140    1.7660    0.1300 C   0  0  0  0  0  0  0  0  0  0  0  0
  1  2  1  0
  3  2  1  1
  3  4  1  0
  3 10  1  0
  3 16  1  0
  4  5  1  0
  5  6  2  0
  5  7  1  0
  7  8  1  0
  8  9  3  0
 10 11  1  0
 11 12  2  0
 11 13  1  0
 13 14  1  0
 14 15  2  0
 14 16  1  0
 16 17  1  1
 17 18  1  0
 18 19  2  0
 18 22  1  0
 19 20  1  0
 20 21  1  0
 21 22  2  0
M  END
