
     RDKit          3D

 22 23  0  0  0  0  0  0  0  0999 V2000
   -1.7630    4.4920   -1.9950 C   0  0  0  0  0  0  0  0  0  0  0  0
   -1.1250    3.1930   -1.5620 C   0  0  0  0  0  0  0  0  0  0  0  0
   -2.1750    2.1680   -1.3950 C   0  0  0  0  0  0  0  0  0  0  0  0
   -3.3650    2.4710   -1.6150 O   0  0  0  0  0  0  0  0  0  0  0  0
   -1.8280    0.7830   -0.9700 C   0  0  0  0  0  0  0  0  0  0  0  0
   -0.6040    0.4820   -0.7460 N   0  0  0  0  0  0  0  0  0  0  0  0
   -0.2310   -0.8150   -0.3420 C   0  0  0  0  0  0  0  0  0  0  0  0
    1.0340   -1.1520   -0.1040 C   0  0  0  0  0  0  0  0  0  0  0  0
    1.5350   -2.4750    0.3230 C   0  0  0  0  0  0  0  0  0  0  0  0
    3.0140   -2.3340    0.5420 C   0  0  0  0  0  0  0  0  0  0  0  0
    3.2340   -0.8520    0.5620 C   0  0  0  0  0  0  0  0  0  0  0  0
    4.2310   -0.2810    1.1900 C   0  0  0  0  0  0  0  0  0  0  0  0
    4.3950    1.1550    1.1770 C   0  0  0  0  0  0  0  0  0  0  0  0
    5.5370    1.7670    1.8960 C   0  0  0  0  0  0  0  0  0  0  0  0
    3.5850    1.8730    0.5690 O   0  0  0  0  0  0  0  0  0  0  0  0
    2.1630   -0.2980   -0.2140 N   0  0  0  0  0  0  0  0  0  0  0  0
   -1.2840   -1.7710   -0.1930 N   0  0  0  0  0  0  0  0  0  0  0  0
   -2.6550   -1.3650    0.0200 C   0  0  1  0  0  0  0  0  0  0  0  0
   -3.5280   -2.4970   -0.5030 C   0  0  0  0  0  0  0  0  0  0  0  0
   -2.9130   -1.1120    1.4860 C   0  0  0  0  0  0  0  0  0  0  0  0
   -2.6480   -2.3300    2.1480 O   0  0  0  0  0  0  0  0  0  0  0  0
   -2.9360   -0.1780   -0.8340 C   0  0  0  0  0  0  0  0  0  0  0  0
  1  2  1  0
  2  3  1  0
  3  4  2  0
  3  5  1  0
  5  6  2  0
  5 22  1  0
  6  7  1  0
  7  8  2  3
  7 17  1  0
  8  9  1  0
  8 16  1  0
  9 10  1  0
 10 11  1  0
 11 12  2  3
 11 16  1  0
 12 13  1  0
 13 14  1  0
 13 15  2  0
 17 18  1  0
 18 19  1  6
 18 20  1  0
 18 22  1  0
 20 21  1  0
M  END
