
     RDKit          3D

 22 24  0  0  0  0  0  0  0  0999 V2000
    5.1660   -1.4270    0.8520 C   0  0  0  0  0  0  0  0  0  0  0  0
    4.2920   -0.4020    0.4590 O   0  0  0  0  0  0  0  0  0  0  0  0
    3.0500   -0.6390   -0.1450 C   0  0  0  0  0  0  0  0  0  0  0  0
    2.7390   -1.8360   -0.3260 O   0  0  0  0  0  0  0  0  0  0  0  0
    2.1930    0.4510   -0.5280 C   0  0  0  0  0  0  0  0  0  0  0  0
    2.6050    1.6950   -0.2960 C   0  0  0  0  0  0  0  0  0  0  0  0
    3.8430    1.9820    0.3080 N   0  0  0  0  0  0  0  0  0  0  0  0
    1.7230    2.8500   -0.6840 C   0  0  0  0  0  0  0  0  0  0  0  0
    0.3750    2.5140   -0.1540 C   0  0  0  0  0  0  0  0  0  0  0  0
   -0.2770    3.3840    0.4310 O   0  0  0  0  0  0  0  0  0  0  0  0
   -0.0750    1.1470   -0.3740 C   0  0  0  0  0  0  0  0  0  0  0  0
   -1.2260    0.7120    0.0980 C   0  0  0  0  0  0  0  0  0  0  0  0
   -2.0450    1.6740    0.8600 C   0  0  0  0  0  0  0  0  0  0  0  0
   -3.3930    1.0780    1.2820 C   0  0  0  0  0  0  0  0  0  0  0  0
   -3.8560    0.0850    0.2390 C   0  0  0  0  0  0  0  0  0  0  0  0
   -2.8940   -1.1050    0.4180 C   0  0  1  0  0  0  0  0  0  0  0  0
   -3.5480   -2.3470   -0.0310 C   0  0  0  0  0  0  0  0  0  0  0  0
   -1.6180   -0.7040   -0.1450 C   0  0  0  0  0  0  0  0  0  0  0  0
   -0.8440   -1.5200   -0.8150 C   0  0  0  0  0  0  0  0  0  0  0  0
   -1.2170   -2.8690   -1.0440 N   0  0  0  0  0  0  0  0  0  0  0  0
    0.4030   -1.0250   -1.3220 N   0  0  0  0  0  0  0  0  0  0  0  0
    0.8680    0.3030   -1.1730 C   0  0  2  0  0  0  0  0  0  0  0  0
  1  2  1  0
  2  3  1  0
  3  4  2  0
  3  5  1  0
  5  6  2  0
  5 22  1  0
  6  7  1  0
  6  8  1  0
  8  9  1  0
  9 10  2  0
  9 11  1  0
 11 12  2  0
 11 22  1  0
 12 13  1  0
 12 18  1  0
 13 14  1  0
 14 15  1  0
 15 16  1  0
 16 17  1  6
 16 18  1  0
 18 19  2  0
 19 20  1  0
 19 21  1  0
 22 21  1  1
M  END
