
     RDKit          3D

 22 25  0  0  0  0  0  0  0  0999 V2000
   -3.9730    0.3390    2.2720 C   0  0  0  0  0  0  0  0  0  0  0  0
   -2.5830    0.1440    1.7820 C   0  0  0  0  0  0  0  0  0  0  0  0
   -2.1910   -0.2880    0.5950 C   0  0  0  0  0  0  0  0  0  0  0  0
   -0.7370   -0.3440    0.4900 C   0  0  0  0  0  0  0  0  0  0  0  0
   -0.3590   -0.6860   -0.7530 C   0  0  0  0  0  0  0  0  0  0  0  0
    1.0080   -0.8690   -1.2750 C   0  0  0  0  0  0  0  0  0  0  0  0
    2.0810   -0.6650   -0.3090 C   0  0  0  0  0  0  0  0  0  0  0  0
    2.6080   -1.6810    0.2580 O   0  0  0  0  0  0  0  0  0  0  0  0
    2.6040    0.6000    0.0680 N   0  0  0  0  0  0  0  0  0  0  0  0
    1.9940    1.7750   -0.5580 C   0  0  0  0  0  0  0  0  0  0  0  0
    3.6720    0.8110    0.9990 C   0  0  2  0  0  0  0  0  0  0  0  0
    4.8880   -0.0900    0.7840 C   0  0  0  0  0  0  0  0  0  0  0  0
    4.0570   -0.1480    2.0470 C   0  0  0  0  0  0  0  0  0  0  0  0
   -1.5480   -0.6900   -1.5850 C   0  0  0  0  0  0  0  0  0  0  0  0
   -2.0720   -0.6460   -2.8030 C   0  0  0  0  0  0  0  0  0  0  0  0
   -1.3230   -0.5590   -4.0090 N   0  0  0  0  0  0  0  0  0  0  0  0
   -3.4990   -0.6900   -2.7060 O   0  0  0  0  0  0  0  0  0  0  0  0
   -3.7950   -0.1530   -1.3770 C   0  0  0  0  0  0  0  0  0  0  0  0
   -2.7160   -0.8370   -0.6310 C   0  0  2  0  0  0  0  0  0  0  0  0
   -0.2380    0.0900    1.7470 N   0  0  0  0  0  0  0  0  0  0  0  0
   -1.3990    0.3930    2.5460 C   0  0  0  0  0  0  0  0  0  0  0  0
   -1.3880    0.8200    3.7500 O   0  0  0  0  0  0  0  0  0  0  0  0
  1  2  1  0
  2  3  2  0
  2 21  1  0
  3  4  1  0
  3 19  1  0
  4  5  2  0
  4 20  1  0
  5  6  1  0
  5 14  1  0
  6  7  1  0
  7  8  2  0
  7  9  1  0
  9 10  1  0
 11  9  1  6
 11 12  1  0
 11 13  1  0
 12 13  1  0
 14 15  2  0
 14 19  1  0
 15 16  1  0
 15 17  1  0
 17 18  1  0
 19 18  1  6
 20 21  1  0
 21 22  2  0
M  END
