
     RDKit          3D

 22 24  0  0  0  0  0  0  0  0999 V2000
    1.9650   -2.3500    2.3630 O   0  0  0  0  0  0  0  0  0  0  0  0
    1.5350   -2.1430    1.1400 C   0  0  0  0  0  0  0  0  0  0  0  0
    2.5310   -2.1020    0.1130 C   0  0  0  0  0  0  0  0  0  0  0  0
    3.3350   -1.2770   -0.4350 C   0  0  0  0  0  0  0  0  0  0  0  0
    3.7060    0.1270   -0.3100 C   0  0  0  0  0  0  0  0  0  0  0  0
    4.9080    0.7190   -0.8010 C   0  0  0  0  0  0  0  0  0  0  0  0
    4.9660    1.9990   -0.4950 N   0  0  0  0  0  0  0  0  0  0  0  0
    3.8540    2.2910    0.1810 C   0  0  0  0  0  0  0  0  0  0  0  0
    3.0520    1.1350    0.3050 C   0  0  0  0  0  0  0  0  0  0  0  0
    1.7650    1.1370    0.9890 C   0  0  0  0  0  0  0  0  0  0  0  0
    1.7910    1.4650    2.2250 O   0  0  0  0  0  0  0  0  0  0  0  0
    0.5260    0.8350    0.4980 O   0  0  0  0  0  0  0  0  0  0  0  0
    0.0000    1.1440   -0.7600 C   0  0  0  0  0  0  0  0  0  0  0  0
   -0.7500   -0.0610   -1.2830 C   0  0  0  0  0  0  0  0  0  0  0  0
   -1.9820   -0.3860   -0.5290 C   0  0  2  0  0  0  0  0  0  0  0  0
   -2.2510    0.5980    0.5140 N   0  0  0  0  0  0  0  0  0  0  0  0
   -3.6880    0.7060    0.6030 C   0  0  2  0  0  0  0  0  0  0  0  0
   -4.4240    1.2620   -0.5940 C   0  0  0  0  0  0  0  0  0  0  0  0
   -4.3980    1.9710    0.7250 C   0  0  0  0  0  0  0  0  0  0  0  0
   -2.0740   -1.7680    0.0260 C   0  0  0  0  0  0  0  0  0  0  0  0
   -0.8290   -2.5400    0.1990 C   0  0  0  0  0  0  0  0  0  0  0  0
    0.1200   -2.0010    1.1000 N   0  0  0  0  0  0  0  0  0  0  0  0
  1  2  2  0
  2  3  1  0
  2 22  1  0
  3  4  2  0
  4  5  1  0
  5  6  2  0
  5  9  1  0
  6  7  1  0
  7  8  1  0
  8  9  2  0
  9 10  1  0
 10 11  2  0
 10 12  1  0
 12 13  1  0
 13 14  1  0
 14 15  1  0
 15 16  1  1
 15 20  1  0
 17 16  1  6
 17 18  1  0
 17 19  1  0
 18 19  1  0
 20 21  1  0
 21 22  1  0
M  END
