
     RDKit          3D

 22 25  0  0  0  0  0  0  0  0999 V2000
    6.9570    0.5020    0.6570 C   0  0  0  0  0  0  0  0  0  0  0  0
    5.7020   -0.1460    0.3480 N   0  0  0  0  0  0  0  0  0  0  0  0
    4.4880    0.4580    0.3480 C   0  0  0  0  0  0  0  0  0  0  0  0
    3.5170   -0.4580    0.0080 C   0  0  0  0  0  0  0  0  0  0  0  0
    2.0940   -0.2010   -0.1010 C   0  0  0  0  0  0  0  0  0  0  0  0
    1.5920    1.0280   -0.5070 C   0  0  0  0  0  0  0  0  0  0  0  0
    0.2570    1.2320   -0.5950 C   0  0  0  0  0  0  0  0  0  0  0  0
   -0.6720    0.2440   -0.2910 C   0  0  0  0  0  0  0  0  0  0  0  0
   -2.1020    0.5400   -0.4120 C   0  0  0  0  0  0  0  0  0  0  0  0
   -2.5990    1.7140   -0.8260 N   0  0  0  0  0  0  0  0  0  0  0  0
   -3.9370    1.6800   -0.8280 C   0  0  0  0  0  0  0  0  0  0  0  0
   -4.7380    2.6660   -1.1800 C   0  0  0  0  0  0  0  0  0  0  0  0
   -4.1260    4.2050   -1.7090 Cl  0  0  0  0  0  0  0  0  0  0  0  0
   -4.3050    0.4200   -0.3920 C   0  0  0  0  0  0  0  0  0  0  0  0
   -3.1750   -0.2490   -0.1470 N   0  0  0  0  0  0  0  0  0  0  0  0
   -3.4380   -1.5940    0.3300 C   0  0  0  0  0  0  0  0  0  0  0  0
   -4.9350   -1.6820    0.3330 C   0  0  0  0  0  0  0  0  0  0  0  0
   -5.3660   -0.3540   -0.1340 C   0  0  0  0  0  0  0  0  0  0  0  0
   -0.1920   -0.9720    0.1100 C   0  0  0  0  0  0  0  0  0  0  0  0
    1.1680   -1.1860    0.2010 C   0  0  0  0  0  0  0  0  0  0  0  0
    4.2020   -1.6340   -0.1930 C   0  0  0  0  0  0  0  0  0  0  0  0
    5.5260   -1.4100    0.0210 N   0  0  0  0  0  0  0  0  0  0  0  0
  1  2  1  0
  2  3  1  0
  2 22  1  0
  3  4  2  0
  4  5  1  0
  4 21  1  0
  5  6  2  0
  5 20  1  0
  6  7  1  0
  7  8  2  0
  8  9  1  0
  8 19  1  0
  9 10  2  0
  9 15  1  0
 10 11  1  0
 11 12  2  3
 11 14  1  0
 12 13  1  0
 14 15  1  0
 14 18  2  0
 15 16  1  0
 16 17  1  0
 17 18  1  0
 19 20  2  0
 21 22  2  0
M  END
