
     RDKit          3D

 21 22  0  0  0  0  0  0  0  0999 V2000
    4.2320    2.1600   -1.7160 C   0  0  0  0  0  0  0  0  0  0  0  0
    4.5450    0.9100   -0.8880 C   0  0  0  0  0  0  0  0  0  0  0  0
    3.2830    0.4730   -0.3130 N   0  0  0  0  0  0  0  0  0  0  0  0
    3.4310   -0.7560    0.3900 C   0  0  0  0  0  0  0  0  0  0  0  0
    4.7150   -1.3100    0.4870 C   0  0  0  0  0  0  0  0  0  0  0  0
    4.8820   -2.4970    1.1620 C   0  0  0  0  0  0  0  0  0  0  0  0
    3.7540   -3.0700    1.7050 C   0  0  0  0  0  0  0  0  0  0  0  0
    2.5380   -2.5150    1.5950 N   0  0  0  0  0  0  0  0  0  0  0  0
    2.3200   -1.3470    0.9410 C   0  0  0  0  0  0  0  0  0  0  0  0
    0.9860   -0.7760    0.8430 C   0  0  0  0  0  0  0  0  0  0  0  0
   -0.0750   -1.5270    1.4800 N   0  0  0  0  0  0  0  0  0  0  0  0
    0.7180    0.3230    0.2390 N   0  0  0  0  0  0  0  0  0  0  0  0
   -0.5840    0.7900    0.1970 N   0  0  0  0  0  0  0  0  0  0  0  0
   -1.6740   -0.0270   -0.1880 C   0  0  0  0  0  0  0  0  0  0  0  0
   -1.4710   -1.1270   -0.8240 N   0  0  0  0  0  0  0  0  0  0  0  0
   -3.0430    0.3630    0.1280 C   0  0  2  0  0  0  0  0  0  0  0  0
   -3.3130    0.5050    1.5320 N   0  0  0  0  0  0  0  0  0  0  0  0
   -4.0570   -0.6040   -0.4450 C   0  0  0  0  0  0  0  0  0  0  0  0
   -5.3540    0.1820   -0.2130 C   0  0  0  0  0  0  0  0  0  0  0  0
   -4.9890    1.6310   -0.3910 C   0  0  0  0  0  0  0  0  0  0  0  0
   -3.4660    1.6600   -0.5730 C   0  0  0  0  0  0  0  0  0  0  0  0
  1  2  1  0
  2  3  1  0
  3  4  1  0
  4  5  2  0
  4  9  1  0
  5  6  1  0
  6  7  2  0
  7  8  1  0
  8  9  2  0
  9 10  1  0
 10 11  1  0
 10 12  2  3
 12 13  1  0
 13 14  1  0
 14 15  2  0
 14 16  1  0
 16 17  1  1
 16 18  1  0
 16 21  1  0
 18 19  1  0
 19 20  1  0
 20 21  1  0
M  CHG  2   3   1  17   1
M  END
