
     RDKit          3D

 21 22  0  0  0  0  0  0  0  0999 V2000
    0.5630   -1.9000    1.7220 C   0  0  0  0  0  0  0  0  0  0  0  0
    0.0900   -0.7970    0.8210 C   0  0  0  0  0  0  0  0  0  0  0  0
    0.8990    0.2940    0.4690 N   0  0  0  0  0  0  0  0  0  0  0  0
    2.3370    0.3220    0.4820 C   0  0  2  0  0  0  0  0  0  0  0  0
    2.9340   -0.7800   -0.3610 C   0  0  0  0  0  0  0  0  0  0  0  0
    2.9160    0.3810    1.8730 C   0  0  0  0  0  0  0  0  0  0  0  0
    2.8120    1.6260   -0.1900 C   0  0  0  0  0  0  0  0  0  0  0  0
    4.2750    1.6090   -0.1530 N   0  0  0  0  0  0  0  0  0  0  0  0
   -1.1550   -0.9100    0.4150 C   0  0  0  0  0  0  0  0  0  0  0  0
   -2.0620   -2.0200    0.7970 C   0  0  0  0  0  0  0  0  0  0  0  0
   -2.5280   -2.7640   -0.3610 N   0  0  0  0  0  0  0  0  0  0  0  0
   -1.6830    0.0720   -0.5040 C   0  0  0  0  0  0  0  0  0  0  0  0
   -1.0330    0.3870   -1.6640 C   0  0  0  0  0  0  0  0  0  0  0  0
    0.1740   -0.2660   -2.1040 N   0  0  0  0  0  0  0  0  0  0  0  0
   -1.5160    1.3340   -2.5090 N   0  0  0  0  0  0  0  0  0  0  0  0
   -2.6540    1.9840   -2.2140 C   0  0  0  0  0  0  0  0  0  0  0  0
   -3.3280    1.6760   -1.0400 C   0  0  0  0  0  0  0  0  0  0  0  0
   -4.4760    2.1540   -0.4880 N   0  0  0  0  0  0  0  0  0  0  0  0
   -4.6990    1.5190    0.6730 C   0  0  0  0  0  0  0  0  0  0  0  0
   -3.7100    0.6410    0.8690 N   0  0  0  0  0  0  0  0  0  0  0  0
   -2.8580    0.7240   -0.1730 C   0  0  0  0  0  0  0  0  0  0  0  0
  1  2  1  0
  2  3  1  0
  2  9  2  3
  3  4  1  0
  4  5  1  6
  4  6  1  0
  4  7  1  0
  7  8  1  0
  9 10  1  0
  9 12  1  0
 10 11  1  0
 12 13  2  0
 12 21  1  0
 13 14  1  0
 13 15  1  0
 15 16  2  0
 16 17  1  0
 17 18  1  0
 17 21  2  0
 18 19  1  0
 19 20  2  0
 20 21  1  0
M  CHG  2   8   1  11   1
M  END
