
     RDKit          3D

 22 25  0  0  0  0  0  0  0  0999 V2000
   -4.8880    2.2240    0.2070 C   0  0  0  0  0  0  0  0  0  0  0  0
   -3.9210    1.1230   -0.0500 C   0  0  0  0  0  0  0  0  0  0  0  0
   -4.3690   -0.1370   -0.4030 C   0  0  0  0  0  0  0  0  0  0  0  0
   -3.5130   -1.1850   -0.6500 C   0  0  0  0  0  0  0  0  0  0  0  0
   -2.1620   -0.9410   -0.5350 C   0  0  0  0  0  0  0  0  0  0  0  0
   -1.7270    0.3140   -0.1840 C   0  0  0  0  0  0  0  0  0  0  0  0
   -2.5990    1.3390    0.0570 N   0  0  0  0  0  0  0  0  0  0  0  0
   -0.3350    0.7470   -0.0190 C   0  0  0  0  0  0  0  0  0  0  0  0
   -0.0070    2.1040    0.0910 C   0  0  0  0  0  0  0  0  0  0  0  0
    1.3270    2.1010    0.2270 N   0  0  0  0  0  0  0  0  0  0  0  0
    1.8160    0.8790    0.2090 N   0  0  0  0  0  0  0  0  0  0  0  0
    3.2040    0.6010    0.3360 C   0  0  0  0  0  0  0  0  0  0  0  0
    3.8260    0.4420    1.5530 C   0  0  0  0  0  0  0  0  0  0  0  0
    5.1680    0.1730    1.6720 C   0  0  0  0  0  0  0  0  0  0  0  0
    5.8790    0.0650    0.5420 N   0  0  0  0  0  0  0  0  0  0  0  0
    5.3440    0.2070   -0.6850 C   0  0  0  0  0  0  0  0  0  0  0  0
    3.9830    0.4790   -0.7910 C   0  0  0  0  0  0  0  0  0  0  0  0
    3.2100    0.6780   -2.3480 Cl  0  0  0  0  0  0  0  0  0  0  0  0
    0.8130    0.0010    0.0580 C   0  0  0  0  0  0  0  0  0  0  0  0
    1.0000   -1.4320   -0.0030 C   0  0  0  0  0  0  0  0  0  0  0  0
   -0.1740   -2.2980    0.1170 C   0  0  0  0  0  0  0  0  0  0  0  0
   -1.3070   -2.1090   -0.8140 C   0  0  0  0  0  0  0  0  0  0  0  0
  1  2  1  0
  2  3  2  0
  2  7  1  0
  3  4  1  0
  4  5  2  0
  5  6  1  0
  5 22  1  0
  6  7  2  0
  6  8  1  0
  8  9  1  0
  8 19  2  0
  9 10  2  0
 10 11  1  0
 11 12  1  0
 11 19  1  0
 12 13  2  0
 12 17  1  0
 13 14  1  0
 14 15  2  0
 15 16  1  0
 16 17  2  0
 17 18  1  0
 19 20  1  0
 20 21  1  0
 21 22  1  0
M  END
