
     RDKit          3D

 22 25  0  0  0  0  0  0  0  0999 V2000
    6.4220    0.5930    0.2710 C   0  0  0  0  0  0  0  0  0  0  0  0
    4.9270    0.5750    0.2570 C   0  0  0  0  0  0  0  0  0  0  0  0
    4.2200    0.1340    1.3110 N   0  0  0  0  0  0  0  0  0  0  0  0
    2.8790    0.1200    1.2940 C   0  0  0  0  0  0  0  0  0  0  0  0
    2.1860    0.5700    0.1630 C   0  0  0  0  0  0  0  0  0  0  0  0
    0.7200    0.5980    0.1580 C   0  0  0  0  0  0  0  0  0  0  0  0
   -0.0010   -0.3940   -0.2670 C   0  0  0  0  0  0  0  0  0  0  0  0
    0.5780   -1.5390   -0.7420 C   0  0  0  0  0  0  0  0  0  0  0  0
    2.3120   -1.7440   -0.8080 Cl  0  0  0  0  0  0  0  0  0  0  0  0
   -0.2490   -2.5780   -1.1880 C   0  0  0  0  0  0  0  0  0  0  0  0
   -1.6150   -2.4490   -1.1490 C   0  0  0  0  0  0  0  0  0  0  0  0
   -2.2010   -1.3020   -0.6740 C   0  0  0  0  0  0  0  0  0  0  0  0
   -3.5380   -1.1710   -0.6340 N   0  0  0  0  0  0  0  0  0  0  0  0
   -4.1480   -0.0740   -0.1790 C   0  0  0  0  0  0  0  0  0  0  0  0
   -3.4080    0.9850    0.2740 C   0  0  0  0  0  0  0  0  0  0  0  0
   -2.0180    0.8850    0.2480 C   0  0  0  0  0  0  0  0  0  0  0  0
   -1.4090   -0.2460   -0.2210 C   0  0  0  0  0  0  0  0  0  0  0  0
   -4.2280    1.9660    0.6770 C   0  0  0  0  0  0  0  0  0  0  0  0
   -5.6090    1.5240    0.4750 C   0  0  0  0  0  0  0  0  0  0  0  0
   -5.5630    0.3060   -0.0360 C   0  0  0  0  0  0  0  0  0  0  0  0
    2.9150    1.0070   -0.8790 N   0  0  0  0  0  0  0  0  0  0  0  0
    4.2340    1.0000   -0.8110 N   0  0  0  0  0  0  0  0  0  0  0  0
  1  2  1  0
  2  3  2  0
  2 22  1  0
  3  4  1  0
  4  5  2  0
  5  6  1  0
  5 21  1  0
  6  7  2  3
  7  8  1  0
  7 17  1  0
  8  9  1  0
  8 10  2  0
 10 11  1  0
 11 12  2  0
 12 13  1  0
 12 17  1  0
 13 14  2  0
 14 15  1  0
 14 20  1  0
 15 16  1  0
 15 18  2  0
 16 17  2  0
 18 19  1  0
 19 20  2  0
 21 22  2  0
M  END
