
     RDKit          3D

 22 25  0  0  0  0  0  0  0  0999 V2000
   -1.4100    3.3280   -2.0740 N   0  0  0  0  0  0  0  0  0  0  0  0
   -0.9750    2.3190   -1.7600 C   0  0  0  0  0  0  0  0  0  0  0  0
   -0.4470    1.0450   -1.3800 C   0  0  0  0  0  0  0  0  0  0  0  0
    0.2960    0.1600   -2.1200 C   0  0  0  0  0  0  0  0  0  0  0  0
    0.5940   -0.9290   -1.3720 N   0  0  0  0  0  0  0  0  0  0  0  0
    1.3620   -2.0420   -1.8840 C   0  0  0  0  0  0  0  0  0  0  0  0
    2.6550   -2.2470   -1.4670 C   0  0  0  0  0  0  0  0  0  0  0  0
    3.3630   -3.3310   -1.9900 C   0  0  0  0  0  0  0  0  0  0  0  0
    2.7630   -4.1640   -2.9020 C   0  0  0  0  0  0  0  0  0  0  0  0
    1.4620   -3.9580   -3.3230 C   0  0  0  0  0  0  0  0  0  0  0  0
    0.7850   -2.8930   -2.8010 C   0  0  0  0  0  0  0  0  0  0  0  0
    0.0560   -0.7290   -0.2040 N   0  0  0  0  0  0  0  0  0  0  0  0
   -0.5920    0.4460   -0.1340 C   0  0  0  0  0  0  0  0  0  0  0  0
   -1.3050    1.0000    0.9710 N   0  0  0  0  0  0  0  0  0  0  0  0
   -2.7290    1.2670    1.0450 C   0  0  0  0  0  0  0  0  0  0  0  0
   -2.8480    2.4470    1.9830 C   0  0  0  0  0  0  0  0  0  0  0  0
   -1.6720    2.3140    2.8730 C   0  0  0  0  0  0  0  0  0  0  0  0
   -1.1850    2.7150    4.0170 C   0  0  0  0  0  0  0  0  0  0  0  0
    0.1370    2.0880    4.2010 C   0  0  0  0  0  0  0  0  0  0  0  0
    0.3220    1.2770    2.9840 C   0  0  0  0  0  0  0  0  0  0  0  0
    1.7090    0.2840    2.5870 Cl  0  0  0  0  0  0  0  0  0  0  0  0
   -0.7440    1.4200    2.2210 C   0  0  0  0  0  0  0  0  0  0  0  0
  1  2  3  0
  2  3  1  0
  3  4  2  0
  3 13  1  0
  4  5  1  0
  5  6  1  0
  5 12  1  0
  6  7  2  0
  6 11  1  0
  7  8  1  0
  8  9  2  0
  9 10  1  0
 10 11  2  0
 12 13  2  0
 13 14  1  0
 14 15  1  0
 14 22  1  0
 15 16  1  0
 16 17  1  0
 17 18  2  0
 17 22  1  0
 18 19  1  0
 19 20  1  0
 20 21  1  0
 20 22  2  0
M  END
