
     RDKit          3D

 15 16  0  0  0  0  0  0  0  0999 V2000
    0.3940    2.7600   -0.3010 O   0  0  0  0  0  0  0  0  0  0  0  0
   -0.5990    2.1600    0.1870 C   0  0  0  0  0  0  0  0  0  0  0  0
   -1.7740    2.8590    0.2730 O   0  0  0  0  0  0  0  0  0  0  0  0
   -0.4160    0.7680    0.6220 C   0  0  2  0  0  0  0  0  0  0  0  0
    0.9440    0.2530    0.3970 C   0  0  0  0  0  0  0  0  0  0  0  0
    1.6190    0.4560   -0.7860 C   0  0  0  0  0  0  0  0  0  0  0  0
    2.8960   -0.0340   -0.9770 C   0  0  0  0  0  0  0  0  0  0  0  0
    3.5360   -0.7460    0.0170 C   0  0  0  0  0  0  0  0  0  0  0  0
    2.8600   -0.9490    1.2010 C   0  0  0  0  0  0  0  0  0  0  0  0
    1.5860   -0.4590    1.3890 C   0  0  0  0  0  0  0  0  0  0  0  0
   -1.4410   -0.1380    0.0820 N   0  0  0  0  0  0  0  0  0  0  0  0
   -2.5140   -0.6340    0.7250 C   0  0  0  0  0  0  0  0  0  0  0  0
   -3.2520   -1.4510   -0.0990 C   0  0  0  0  0  0  0  0  0  0  0  0
   -2.6030   -1.4590   -1.3110 C   0  0  0  0  0  0  0  0  0  0  0  0
   -1.4970   -0.6430   -1.1620 C   0  0  0  0  0  0  0  0  0  0  0  0
  1  2  2  0
  2  3  1  0
  2  4  1  0
  4  5  1  0
  4 11  1  6
  5  6  2  0
  5 10  1  0
  6  7  1  0
  7  8  2  0
  8  9  1  0
  9 10  2  0
 11 12  1  0
 11 15  1  0
 12 13  2  0
 13 14  1  0
 14 15  2  0
M  END
