
     RDKit          3D

 32 36  0  0  0  0  0  0  0  0999 V2000
   -1.6580    4.4650    0.3600 C   0  0  0  0  0  0  0  0  0  0  0  0
   -0.9550    3.4960    1.0770 O   0  0  0  0  0  0  0  0  0  0  0  0
   -0.6660    2.3650    0.3610 C   0  0  2  0  0  0  0  0  0  0  0  0
   -1.4100    1.2260    1.0420 C   0  0  1  0  0  0  0  0  0  0  0  0
   -0.5600    0.9290    2.2390 C   0  0  0  0  0  0  0  0  0  0  0  0
    0.6050    0.0960    1.6920 C   0  0  0  0  0  0  0  0  0  0  0  0
    0.9650    0.5980    0.4120 N   0  0  2  0  0  0  0  0  0  0  0  0
    2.1980    0.0990   -0.1260 C   0  0  1  0  0  0  0  0  0  0  0  0
    3.3090   -0.1380    0.8440 C   0  0  0  0  0  0  0  0  0  0  0  0
    3.4350   -1.6060    1.2510 C   0  0  0  0  0  0  0  0  0  0  0  0
    3.7170   -2.4660    0.0340 C   0  0  2  0  0  0  0  0  0  0  0  0
    5.2120   -2.8080   -0.0410 C   0  0  0  0  0  0  0  0  0  0  0  0
    3.3920   -1.7330   -1.2320 C   0  0  0  0  0  0  0  0  0  0  0  0
    2.0530   -0.9850   -1.1570 C   0  0  1  0  0  0  0  0  0  0  0  0
    0.9270   -1.9490   -1.0450 C   0  0  0  0  0  0  0  0  0  0  0  0
    0.5670   -2.6230   -2.3530 C   0  0  0  0  0  0  0  0  0  0  0  0
   -0.8170   -3.2510   -2.2590 C   0  0  0  0  0  0  0  0  0  0  0  0
   -1.7900   -2.5250   -1.3860 C   0  0  0  0  0  0  0  0  0  0  0  0
   -1.8640   -3.2330   -0.1740 C   0  0  0  0  0  0  0  0  0  0  0  0
   -2.6400   -2.8660    0.8860 C   0  0  0  0  0  0  0  0  0  0  0  0
   -3.3610   -1.7330    0.6880 C   0  0  0  0  0  0  0  0  0  0  0  0
   -3.3480   -0.9560   -0.5010 C   0  0  0  0  0  0  0  0  0  0  0  0
   -2.5460   -1.3470   -1.5800 C   0  0  0  0  0  0  0  0  0  0  0  0
   -2.4500   -0.6540   -2.8040 O   0  0  0  0  0  0  0  0  0  0  0  0
   -4.2640    0.1760   -0.2020 C   0  0  1  0  0  0  0  0  0  0  0  0
   -5.4080   -0.1710    0.7710 C   0  0  0  0  0  0  0  0  0  0  0  0
   -3.6930    1.4240    0.1640 N   0  0  0  0  0  0  0  0  0  0  0  0
   -2.8490    1.4720    1.3300 C   0  0  0  0  0  0  0  0  0  0  0  0
    0.8090    2.0460    0.4630 C   0  0  1  0  0  0  0  0  0  0  0  0
    1.6590    2.7750   -0.5160 C   0  0  1  0  0  0  0  0  0  0  0  0
    1.6910    4.2880   -0.3320 C   0  0  0  0  0  0  0  0  0  0  0  0
    2.9160    3.4940   -0.0500 C   0  0  0  0  0  0  0  0  0  0  0  0
  1  2  1  0
  3  2  1  1
  3  4  1  0
  3 29  1  0
  4  5  1  0
  4 28  1  1
  5  6  1  0
  7  6  1  1
  7  8  1  0
  7 29  1  0
  8  9  1  1
  8 14  1  0
  9 10  1  0
 10 11  1  0
 11 12  1  6
 11 13  1  0
 14 13  1  1
 14 15  1  0
 15 16  1  0
 16 17  1  0
 17 18  1  0
 18 19  1  0
 18 23  2  0
 19 20  2  0
 20 21  1  0
 21 22  2  0
 22 23  1  0
 22 25  1  0
 23 24  1  0
 25 26  1  1
 25 27  1  0
 27 28  1  0
 29 30  1  6
 30 31  1  1
 30 32  1  0
 31 32  1  0
M  CHG  2   7   1  27   1
M  END
