
     RDKit          3D

 32 36  0  0  0  0  0  0  0  0999 V2000
    7.5450   -0.8090    0.7850 C   0  0  0  0  0  0  0  0  0  0  0  0
    6.1470   -0.6620    0.2890 C   0  0  0  0  0  0  0  0  0  0  0  0
    5.7760   -1.0790   -0.9730 C   0  0  0  0  0  0  0  0  0  0  0  0
    4.4530   -0.9230   -1.4010 C   0  0  0  0  0  0  0  0  0  0  0  0
    3.4880   -0.3600   -0.5970 C   0  0  0  0  0  0  0  0  0  0  0  0
    2.0850   -0.2130   -1.0710 C   0  0  1  0  0  0  0  0  0  0  0  0
    1.1240   -0.8320   -0.1130 C   0  0  0  0  0  0  0  0  0  0  0  0
    0.0880   -1.7080   -0.7540 C   0  0  0  0  0  0  0  0  0  0  0  0
    0.5580   -2.4810   -1.5850 O   0  0  0  0  0  0  0  0  0  0  0  0
   -1.3350   -1.7340   -0.5080 C   0  0  1  0  0  0  0  0  0  0  0  0
   -1.8830   -3.1200   -0.8820 C   0  0  0  0  0  0  0  0  0  0  0  0
   -3.3880   -3.0840   -0.9750 C   0  0  0  0  0  0  0  0  0  0  0  0
   -4.0380   -2.9850    0.3740 C   0  0  0  0  0  0  0  0  0  0  0  0
   -4.2790   -1.6530    0.8020 N   0  0  0  0  0  0  0  0  0  0  0  0
   -3.1600   -0.7740    0.8310 C   0  0  1  0  0  0  0  0  0  0  0  0
   -3.3120    0.2390    1.9720 C   0  0  0  0  0  0  0  0  0  0  0  0
   -4.1970    1.3950    1.6160 C   0  0  0  0  0  0  0  0  0  0  0  0
   -3.5560    2.6270    1.2980 N   0  0  0  0  0  0  0  0  0  0  0  0
   -2.1860    2.5720    0.8120 C   0  0  0  0  0  0  0  0  0  0  0  0
   -1.9070    2.4730   -0.5440 C   0  0  0  0  0  0  0  0  0  0  0  0
   -0.6290    2.4270   -1.0370 C   0  0  0  0  0  0  0  0  0  0  0  0
    0.4830    2.4730   -0.1430 C   0  0  0  0  0  0  0  0  0  0  0  0
    0.2320    2.5680    1.1740 C   0  0  0  0  0  0  0  0  0  0  0  0
   -1.1060    2.6190    1.6740 C   0  0  0  0  0  0  0  0  0  0  0  0
   -0.9780    2.7130    3.0960 O   0  0  0  0  0  0  0  0  0  0  0  0
    1.7450    2.3480   -0.9040 C   0  0  0  0  0  0  0  0  0  0  0  0
    1.7850    1.0660   -1.7090 C   0  0  2  0  0  0  0  0  0  0  0  0
    0.5370    1.0400   -2.6170 C   0  0  0  0  0  0  0  0  0  0  0  0
   -0.1510    2.3930   -2.4460 C   0  0  0  0  0  0  0  0  0  0  0  0
   -1.8140   -1.4720    0.8760 C   0  0  0  0  0  0  0  0  0  0  0  0
    3.8900    0.0460    0.6580 C   0  0  0  0  0  0  0  0  0  0  0  0
    5.1910   -0.0970    1.1030 C   0  0  0  0  0  0  0  0  0  0  0  0
  1  2  1  0
  2  3  2  0
  2 32  1  0
  3  4  1  0
  4  5  2  0
  6  5  1  1
  5 31  1  0
  6  7  1  0
  6 27  1  0
  7  8  1  0
  8  9  2  0
  8 10  1  0
 10 11  1  1
 10 30  1  0
 11 12  1  0
 12 13  1  0
 13 14  1  0
 14 15  1  0
 15 16  1  1
 15 30  1  0
 16 17  1  0
 17 18  1  0
 18 19  1  0
 19 20  2  0
 19 24  1  0
 20 21  1  0
 21 22  2  0
 21 29  1  0
 22 23  1  0
 22 26  1  0
 23 24  2  0
 24 25  1  0
 26 27  1  0
 27 28  1  1
 28 29  1  0
 31 32  2  0
M  CHG  2  14   1  18   1
M  END
