
     RDKit          3D

 32 35  0  0  0  0  0  0  0  0999 V2000
    7.6900   -0.5210   -0.8160 C   0  0  0  0  0  0  0  0  0  0  0  0
    6.4050   -0.0170   -1.1600 O   0  0  0  0  0  0  0  0  0  0  0  0
    5.2950   -0.4240   -0.4450 C   0  0  0  0  0  0  0  0  0  0  0  0
    4.9390   -1.7430   -0.3420 C   0  0  0  0  0  0  0  0  0  0  0  0
    3.4760   -2.0360   -0.1380 C   0  0  0  0  0  0  0  0  0  0  0  0
    2.5850   -2.1890   -1.1850 C   0  0  0  0  0  0  0  0  0  0  0  0
    1.1990   -2.3910   -1.0000 C   0  0  0  0  0  0  0  0  0  0  0  0
    0.6070   -2.4520    0.2460 C   0  0  0  0  0  0  0  0  0  0  0  0
    1.4900   -2.3080    1.2950 C   0  0  0  0  0  0  0  0  0  0  0  0
    2.8770   -2.1060    1.1030 C   0  0  0  0  0  0  0  0  0  0  0  0
   -0.8900   -2.5610    0.4430 C   0  0  0  0  0  0  0  0  0  0  0  0
   -1.8440   -1.7940   -0.3860 C   0  0  2  0  0  0  0  0  0  0  0  0
   -1.8760   -2.2140   -1.8470 C   0  0  0  0  0  0  0  0  0  0  0  0
   -1.9670   -0.3670   -0.1910 N   0  0  1  0  0  0  0  0  0  0  0  0
   -3.0240   -0.0340    0.7620 C   0  0  0  0  0  0  0  0  0  0  0  0
   -4.4080   -0.0670    0.0970 C   0  0  2  0  0  0  0  0  0  0  0  0
   -4.3810    0.9600   -1.0270 C   0  0  0  0  0  0  0  0  0  0  0  0
   -5.7130    1.6770   -1.1180 C   0  0  0  0  0  0  0  0  0  0  0  0
   -6.7730    0.6290   -0.7840 C   0  0  0  0  0  0  0  0  0  0  0  0
   -6.7070    0.3810    0.5630 O   0  0  0  0  0  0  0  0  0  0  0  0
   -5.4530    0.3170    1.1070 C   0  0  1  0  0  0  0  0  0  0  0  0
   -5.4720   -0.7070    2.2210 C   0  0  0  0  0  0  0  0  0  0  0  0
   -0.8070    0.4030   -0.0830 C   0  0  1  0  0  0  0  0  0  0  0  0
   -0.3240    0.8820   -1.4570 C   0  0  0  0  0  0  0  0  0  0  0  0
    0.6870    2.0060   -1.3190 C   0  0  0  0  0  0  0  0  0  0  0  0
    1.4940    1.7080   -0.0930 C   0  0  2  0  0  0  0  0  0  0  0  0
    0.6170    2.0650    1.0730 C   0  0  0  0  0  0  0  0  0  0  0  0
   -0.8170    1.5700    0.8960 C   0  0  0  0  0  0  0  0  0  0  0  0
    2.8320    2.3970   -0.0400 C   0  0  0  0  0  0  0  0  0  0  0  0
    3.8420    1.5380   -0.6790 N   0  0  0  0  0  0  0  0  0  0  0  0
    4.4710    0.6300    0.2290 C   0  0  2  0  0  0  0  0  0  0  0  0
    5.4450    1.3690    1.1560 C   0  0  0  0  0  0  0  0  0  0  0  0
  1  2  1  0
  2  3  1  0
  3  4  2  0
  3 31  1  0
  4  5  1  0
  5  6  2  0
  5 10  1  0
  6  7  1  0
  7  8  2  0
  8  9  1  0
  8 11  1  0
  9 10  2  0
 11 12  1  0
 12 13  1  6
 12 14  1  0
 14 15  1  1
 14 23  1  0
 16 15  1  1
 16 17  1  0
 16 21  1  0
 17 18  1  0
 18 19  1  0
 19 20  1  0
 20 21  1  0
 21 22  1  1
 23 24  1  0
 23 28  1  1
 24 25  1  0
 25 26  1  0
 26 27  1  1
 26 29  1  0
 27 28  1  0
 29 30  1  0
 30 31  1  0
 31 32  1  1
M  CHG  2  14   1  30   1
M  END
