
     RDKit          3D

 32 36  0  0  0  0  0  0  0  0999 V2000
   -2.8220   -2.4350    3.2080 C   0  0  0  0  0  0  0  0  0  0  0  0
   -2.6840   -2.5880    1.6860 C   0  0  2  0  0  0  0  0  0  0  0  0
   -1.3420   -2.1700    1.2910 C   0  0  0  0  0  0  0  0  0  0  0  0
   -1.2840   -1.0300    0.3390 N   0  0  2  0  0  0  0  0  0  0  0  0
    0.0500   -0.6030    0.3580 C   0  0  0  0  0  0  0  0  0  0  0  0
    0.7560    0.0220   -0.7620 C   0  0  1  0  0  0  0  0  0  0  0  0
    2.2110   -0.4550   -0.9710 C   0  0  0  0  0  0  0  0  0  0  0  0
    2.7000   -1.1190    0.2760 C   0  0  0  0  0  0  0  0  0  0  0  0
    3.0650   -2.3930    0.0940 C   0  0  0  0  0  0  0  0  0  0  0  0
    3.5780   -3.3010    1.1220 C   0  0  0  0  0  0  0  0  0  0  0  0
    3.9010   -2.5250    2.3370 C   0  0  0  0  0  0  0  0  0  0  0  0
    2.7890   -1.5780    2.6750 C   0  0  0  0  0  0  0  0  0  0  0  0
    2.7640   -0.4820    1.5830 C   0  0  0  0  0  0  0  0  0  0  0  0
    2.8440    0.7700    1.9550 C   0  0  0  0  0  0  0  0  0  0  0  0
    2.8950    1.8590    1.1630 O   0  0  0  0  0  0  0  0  0  0  0  0
    2.5770    3.1130    0.9240 C   0  0  0  0  0  0  0  0  0  0  0  0
    1.6130    3.7680    0.3000 C   0  0  0  0  0  0  0  0  0  0  0  0
    0.4100    3.3270   -0.4580 C   0  0  0  0  0  0  0  0  0  0  0  0
   -0.7530    3.6490    0.0770 C   0  0  0  0  0  0  0  0  0  0  0  0
   -2.1470    3.4560   -0.2590 C   0  0  0  0  0  0  0  0  0  0  0  0
   -2.7510    2.4230    0.7460 C   0  0  0  0  0  0  0  0  0  0  0  0
   -2.1910    1.1600    0.2840 C   0  0  0  0  0  0  0  0  0  0  0  0
   -2.2840   -0.1260    0.9570 C   0  0  1  0  0  0  0  0  0  0  0  0
   -3.6270   -0.7300    0.6800 C   0  0  1  0  0  0  0  0  0  0  0  0
   -4.0650   -0.5690   -0.7560 C   0  0  0  0  0  0  0  0  0  0  0  0
   -3.7370   -2.0380    1.0250 O   0  0  0  0  0  0  0  0  0  0  0  0
    0.6740    2.6420   -1.7360 C   0  0  0  0  0  0  0  0  0  0  0  0
   -0.0670    1.6720   -2.3510 N   0  0  0  0  0  0  0  0  0  0  0  0
    0.1270    0.2630   -2.0660 C   0  0  1  0  0  0  0  0  0  0  0  0
    0.6600   -0.5270   -3.2330 C   0  0  1  0  0  0  0  0  0  0  0  0
    0.1120   -0.3480   -4.6000 C   0  0  0  0  0  0  0  0  0  0  0  0
    1.5890   -0.0680   -4.2330 C   0  0  0  0  0  0  0  0  0  0  0  0
  2  1  1  1
  2  3  1  0
  2 26  1  0
  4  3  1  1
  4  5  1  0
  4 23  1  0
  6  5  1  6
  6  7  1  0
  6 29  1  0
  7  8  1  0
  8  9  2  0
  8 13  1  0
  9 10  1  0
 10 11  1  0
 11 12  1  0
 12 13  1  0
 13 14  2  0
 14 15  1  0
 15 16  1  0
 16 17  2  0
 17 18  1  0
 18 19  2  0
 18 27  1  0
 19 20  1  0
 20 21  1  0
 21 22  1  0
 23 22  1  6
 23 24  1  0
 24 25  1  6
 24 26  1  0
 27 28  1  0
 29 28  1  6
 29 30  1  0
 30 31  1  6
 30 32  1  0
 31 32  1  0
M  CHG  2   4   1  28   1
M  END
