
     RDKit          3D

 32 36  0  0  0  0  0  0  0  0999 V2000
    0.5930    2.3970   -2.5800 C   0  0  0  0  0  0  0  0  0  0  0  0
   -0.1010    1.2080   -2.3390 N   0  0  0  0  0  0  0  0  0  0  0  0
   -0.2720    0.7080   -1.0200 C   0  0  2  0  0  0  0  0  0  0  0  0
   -1.0010    1.7190   -0.1780 C   0  0  1  0  0  0  0  0  0  0  0  0
   -2.2430    2.1360   -0.9170 C   0  0  0  0  0  0  0  0  0  0  0  0
   -3.5260    1.9100   -0.1590 C   0  0  0  0  0  0  0  0  0  0  0  0
   -3.4240    0.6600    0.7020 C   0  0  1  0  0  0  0  0  0  0  0  0
   -2.4830    1.1040    1.8030 C   0  0  0  0  0  0  0  0  0  0  0  0
   -1.1280    1.4990    1.2610 C   0  0  0  0  0  0  0  0  0  0  0  0
   -4.7240    0.2590    1.3050 C   0  0  1  0  0  0  0  0  0  0  0  0
   -5.8320    1.2560    1.0400 C   0  0  0  0  0  0  0  0  0  0  0  0
   -5.2290   -1.0920    0.8690 C   0  0  0  0  0  0  0  0  0  0  0  0
   -5.2570   -2.0650    1.8250 O   0  0  0  0  0  0  0  0  0  0  0  0
   -4.5250   -3.2340    1.4350 C   0  0  0  0  0  0  0  0  0  0  0  0
   -3.1880   -2.8840    0.8740 C   0  0  0  0  0  0  0  0  0  0  0  0
   -2.1850   -2.4450    1.6930 C   0  0  0  0  0  0  0  0  0  0  0  0
   -0.9140   -2.0230    1.1960 C   0  0  0  0  0  0  0  0  0  0  0  0
   -0.5970   -2.0260   -0.1440 C   0  0  0  0  0  0  0  0  0  0  0  0
   -1.6140   -2.4750   -0.9650 C   0  0  0  0  0  0  0  0  0  0  0  0
   -2.8780   -2.8940   -0.4660 C   0  0  0  0  0  0  0  0  0  0  0  0
    0.7410   -1.5430   -0.6440 C   0  0  0  0  0  0  0  0  0  0  0  0
    0.8850    0.0000   -0.5090 C   0  0  1  0  0  0  0  0  0  0  0  0
    2.1740    0.2840   -1.1060 N   0  0  0  0  0  0  0  0  0  0  0  0
    2.9890    1.1570   -0.2540 C   0  0  2  0  0  0  0  0  0  0  0  0
    4.1770    1.6100   -1.0660 C   0  0  0  0  0  0  0  0  0  0  0  0
    5.1210    0.4130   -0.9060 C   0  0  0  0  0  0  0  0  0  0  0  0
    4.9210    0.0370    0.5240 C   0  0  1  0  0  0  0  0  0  0  0  0
    5.0570   -1.4620    0.7680 C   0  0  0  0  0  0  0  0  0  0  0  0
    6.5510   -1.6260    0.8620 C   0  0  0  0  0  0  0  0  0  0  0  0
    7.0200   -0.2260    1.1220 C   0  0  0  0  0  0  0  0  0  0  0  0
    5.9040    0.5480    1.3600 O   0  0  0  0  0  0  0  0  0  0  0  0
    3.5380    0.4370    0.9450 C   0  0  0  0  0  0  0  0  0  0  0  0
  1  2  1  0
  3  2  1  6
  3  4  1  0
  3 22  1  0
  4  5  1  0
  4  9  1  1
  5  6  1  0
  6  7  1  0
  7  8  1  1
  7 10  1  0
  8  9  1  0
 10 11  1  6
 10 12  1  0
 12 13  1  0
 13 14  1  0
 14 15  1  0
 15 16  2  0
 15 20  1  0
 16 17  1  0
 17 18  2  0
 18 19  1  0
 18 21  1  0
 19 20  2  0
 21 22  1  0
 22 23  1  6
 24 23  1  6
 24 25  1  0
 24 32  1  0
 25 26  1  0
 27 26  1  6
 27 28  1  0
 27 31  1  0
 27 32  1  0
 28 29  1  0
 29 30  1  0
 30 31  1  0
M  CHG  1  23   1
M  END
