
     RDKit          3D

 32 34  0  0  0  0  0  0  0  0999 V2000
   -2.2590    3.2300    2.6780 C   0  0  0  0  0  0  0  0  0  0  0  0
   -2.8110    1.9360    2.1420 C   0  0  0  0  0  0  0  0  0  0  0  0
   -4.1650    1.6700    2.1790 C   0  0  0  0  0  0  0  0  0  0  0  0
   -4.6670    0.4700    1.6720 C   0  0  0  0  0  0  0  0  0  0  0  0
   -3.8420   -0.4710    1.1270 C   0  0  0  0  0  0  0  0  0  0  0  0
   -2.4910   -0.1930    1.0940 C   0  0  0  0  0  0  0  0  0  0  0  0
   -2.0020    0.9900    1.5970 C   0  0  0  0  0  0  0  0  0  0  0  0
   -1.6350   -1.1640    0.5150 N   0  0  0  0  0  0  0  0  0  0  0  0
   -0.6460   -0.8820   -0.4110 C   0  0  0  0  0  0  0  0  0  0  0  0
    0.3460   -1.7950   -0.2980 O   0  0  0  0  0  0  0  0  0  0  0  0
   -0.4460    0.1120   -1.4400 C   0  0  2  0  0  0  0  0  0  0  0  0
   -0.7350    1.5150   -1.1430 C   0  0  0  0  0  0  0  0  0  0  0  0
   -1.4380   -0.2470   -2.5990 C   0  0  0  0  0  0  0  0  0  0  0  0
   -1.1890   -1.5960   -3.1640 C   0  0  0  0  0  0  0  0  0  0  0  0
   -1.2970   -2.6060   -2.2410 O   0  0  0  0  0  0  0  0  0  0  0  0
    0.8870   -0.0490   -2.0440 N   0  0  0  0  0  0  0  0  0  0  0  0
    2.0730    0.0320   -1.3040 C   0  0  0  0  0  0  0  0  0  0  0  0
    1.9790    0.2530   -0.0650 O   0  0  0  0  0  0  0  0  0  0  0  0
    3.4280   -0.1190   -1.8480 C   0  0  0  0  0  0  0  0  0  0  0  0
    4.5220    0.0350   -0.8380 C   0  0  2  0  0  0  0  0  0  0  0  0
    4.4320   -0.9000    0.1920 O   0  0  0  0  0  0  0  0  0  0  0  0
    4.6210    1.4170   -0.2750 C   0  0  0  0  0  0  0  0  0  0  0  0
    5.7290    1.4990    0.7130 C   0  0  0  0  0  0  0  0  0  0  0  0
    6.6050    0.5040    1.0960 C   0  0  0  0  0  0  0  0  0  0  0  0
    7.4830    0.9890    2.0410 C   0  0  0  0  0  0  0  0  0  0  0  0
    7.1300    2.3070    2.2340 C   0  0  0  0  0  0  0  0  0  0  0  0
    6.0870    2.6010    1.4400 N   0  0  0  0  0  0  0  0  0  0  0  0
   -1.9700   -2.5530    0.9190 C   0  0  0  0  0  0  0  0  0  0  0  0
   -3.3750   -2.8390    0.4670 C   0  0  0  0  0  0  0  0  0  0  0  0
   -4.3730   -1.7470    0.6300 C   0  0  2  0  0  0  0  0  0  0  0  0
   -5.1670   -1.5410   -0.6630 C   0  0  0  0  0  0  0  0  0  0  0  0
   -5.6510   -2.7870   -1.0940 O   0  0  0  0  0  0  0  0  0  0  0  0
  1  2  1  0
  2  3  2  0
  2  7  1  0
  3  4  1  0
  4  5  2  0
  5  6  1  0
  5 30  1  0
  6  7  2  0
  6  8  1  0
  8  9  1  0
  8 28  1  0
  9 10  2  0
  9 11  1  0
 11 12  1  1
 11 13  1  0
 11 16  1  0
 13 14  1  0
 14 15  1  0
 16 17  1  0
 17 18  2  0
 17 19  1  0
 19 20  1  0
 20 21  1  1
 20 22  1  0
 22 23  1  0
 23 24  2  0
 23 27  1  0
 24 25  1  0
 25 26  2  0
 26 27  1  0
 28 29  1  0
 29 30  1  0
 30 31  1  6
 31 32  1  0
M  END
