
     RDKit          3D

 32 34  0  0  0  0  0  0  0  0999 V2000
    3.2250    6.9380    1.1760 C   0  0  0  0  0  0  0  0  0  0  0  0
    2.1740    7.2360    1.9880 O   0  0  0  0  0  0  0  0  0  0  0  0
    0.9600    6.8900    1.4830 C   0  0  0  0  0  0  0  0  0  0  0  0
    0.7470    5.4490    1.1800 C   0  0  0  0  0  0  0  0  0  0  0  0
    1.6190    4.9210    0.2320 O   0  0  0  0  0  0  0  0  0  0  0  0
    1.5260    3.5870   -0.1310 C   0  0  0  0  0  0  0  0  0  0  0  0
    0.5790    2.7680    0.4370 C   0  0  0  0  0  0  0  0  0  0  0  0
    0.4530    1.4020    0.0950 C   0  0  0  0  0  0  0  0  0  0  0  0
   -0.6260    0.6800    0.7360 C   0  0  2  0  0  0  0  0  0  0  0  0
   -1.0990    1.3680    2.0110 C   0  0  0  0  0  0  0  0  0  0  0  0
   -0.5200   -0.7150    0.9270 N   0  0  0  0  0  0  0  0  0  0  0  0
   -1.7920   -1.3600    1.1720 C   0  0  2  0  0  0  0  0  0  0  0  0
   -1.6230   -2.7150    1.7660 C   0  0  0  0  0  0  0  0  0  0  0  0
   -2.7330   -3.4100    1.9670 C   0  0  0  0  0  0  0  0  0  0  0  0
   -4.0290   -2.7900    1.5900 C   0  0  0  0  0  0  0  0  0  0  0  0
   -3.9970   -1.9800    0.3430 C   0  0  2  0  0  0  0  0  0  0  0  0
   -4.7760   -2.6980   -0.7370 C   0  0  0  0  0  0  0  0  0  0  0  0
   -2.5910   -1.6050   -0.1140 C   0  0  2  0  0  0  0  0  0  0  0  0
   -2.1010   -2.7310   -0.7640 O   0  0  0  0  0  0  0  0  0  0  0  0
    1.3370    0.9580   -0.8370 C   0  0  0  0  0  0  0  0  0  0  0  0
    1.3240   -0.2820   -1.2330 O   0  0  0  0  0  0  0  0  0  0  0  0
    2.1200   -0.8130   -2.1110 C   0  0  0  0  0  0  0  0  0  0  0  0
    2.0500   -2.2090   -2.5000 C   0  0  0  0  0  0  0  0  0  0  0  0
    1.2550   -3.1190   -2.0200 C   0  0  0  0  0  0  0  0  0  0  0  0
    1.3490   -4.5180   -2.5730 C   0  0  0  0  0  0  0  0  0  0  0  0
    1.7060   -5.3900   -1.3840 C   0  0  0  0  0  0  0  0  0  0  0  0
    2.9750   -4.9290   -0.8440 N   0  0  0  0  0  0  0  0  0  0  0  0
    3.0770   -0.0320   -2.7030 N   0  0  0  0  0  0  0  0  0  0  0  0
    3.1550    1.2560   -2.3500 C   0  0  0  0  0  0  0  0  0  0  0  0
    4.0360    2.0110   -2.8830 O   0  0  0  0  0  0  0  0  0  0  0  0
    2.3000    1.7720   -1.4220 C   0  0  0  0  0  0  0  0  0  0  0  0
    2.3970    3.1000   -1.0660 C   0  0  0  0  0  0  0  0  0  0  0  0
  1  2  1  0
  2  3  1  0
  3  4  1  0
  4  5  1  0
  5  6  1  0
  6  7  2  0
  6 32  1  0
  7  8  1  0
  8  9  1  0
  8 20  2  0
  9 10  1  1
  9 11  1  0
 12 11  1  6
 12 13  1  0
 12 18  1  0
 13 14  2  0
 14 15  1  0
 15 16  1  0
 16 17  1  6
 16 18  1  0
 18 19  1  1
 20 21  1  0
 20 31  1  0
 21 22  1  0
 22 23  1  0
 22 28  2  0
 23 24  2  3
 24 25  1  0
 25 26  1  0
 26 27  1  0
 28 29  1  0
 29 30  2  0
 29 31  1  0
 31 32  2  0
M  CHG  1  11   1
M  END
