
     RDKit          3D

 19 20  0  0  0  0  0  0  0  0999 V2000
    6.9680   -0.6450   -0.3010 C   0  0  0  0  0  0  0  0  0  0  0  0
    5.5490   -0.2090   -0.0720 C   0  0  0  0  0  0  0  0  0  0  0  0
    4.5200   -0.9950    0.0550 N   0  0  0  0  0  0  0  0  0  0  0  0
    3.3550   -0.2100    0.2580 C   0  0  0  0  0  0  0  0  0  0  0  0
    2.1010   -0.6170    0.4330 C   0  0  0  0  0  0  0  0  0  0  0  0
    0.7650    0.5340    0.6730 S   0  0  0  0  0  0  0  0  0  0  0  0
   -0.7990   -0.2910    0.3620 C   0  0  2  0  0  0  0  0  0  0  0  0
   -0.8520   -0.6560   -1.1220 C   0  0  0  0  0  0  0  0  0  0  0  0
   -2.2110   -0.1390   -1.5380 C   0  0  2  0  0  0  0  0  0  0  0  0
   -2.8520   -1.1870   -2.4210 C   0  0  0  0  0  0  0  0  0  0  0  0
   -2.0550    1.1820   -2.2680 C   0  0  0  0  0  0  0  0  0  0  0  0
   -2.9040    0.0250   -0.3480 O   0  0  0  0  0  0  0  0  0  0  0  0
   -1.9850    0.6340    0.4690 C   0  0  1  0  0  0  0  0  0  0  0  0
   -2.4370    0.8790    1.8680 C   0  0  0  0  0  0  0  0  0  0  0  0
   -2.8570   -0.3600    2.5990 C   0  0  0  0  0  0  0  0  0  0  0  0
   -3.9710   -0.9890    1.8880 N   0  0  0  0  0  0  0  0  0  0  0  0
    3.8090    1.1750    0.2370 C   0  0  0  0  0  0  0  0  0  0  0  0
    2.9710    2.2940    0.4030 N   0  0  0  0  0  0  0  0  0  0  0  0
    5.0850    1.1290    0.0440 N   0  0  0  0  0  0  0  0  0  0  0  0
  1  2  1  0
  2  3  2  0
  2 19  1  0
  3  4  1  0
  4  5  2  3
  4 17  1  0
  5  6  1  0
  7  6  1  6
  7  8  1  0
  7 13  1  0
  8  9  1  0
  9 10  1  6
  9 11  1  0
  9 12  1  0
 12 13  1  0
 13 14  1  1
 14 15  1  0
 15 16  1  0
 17 18  1  0
 17 19  2  0
M  CHG  1  16   1
M  END
