
     RDKit          3D

 20 21  0  0  0  0  0  0  0  0999 V2000
   -4.3540   -1.3870    0.0700 C   0  0  0  0  0  0  0  0  0  0  0  0
   -4.3550   -0.0920   -0.7030 C   0  0  0  0  0  0  0  0  0  0  0  0
   -2.9580    0.3210   -1.0780 C   0  0  0  0  0  0  0  0  0  0  0  0
   -2.1220    0.5000    0.1250 C   0  0  2  0  0  0  0  0  0  0  0  0
   -2.6730    1.5480    1.0070 C   0  0  0  0  0  0  0  0  0  0  0  0
   -3.8510    1.4110    1.7920 N   0  0  0  0  0  0  0  0  0  0  0  0
   -1.8760    3.0000    1.0990 S   0  0  0  0  0  0  0  0  0  0  0  0
   -0.7430    0.8600   -0.1730 N   0  0  1  0  0  0  0  0  0  0  0  0
   -0.0150    0.8070    1.0660 C   0  0  0  0  0  0  0  0  0  0  0  0
    1.1210   -0.1500    1.0920 C   0  0  0  0  0  0  0  0  0  0  0  0
    1.8660   -0.2440   -0.1220 N   0  0  0  0  0  0  0  0  0  0  0  0
    3.2360   -0.6770   -0.0180 C   0  0  0  0  0  0  0  0  0  0  0  0
    3.6330   -1.5140    0.8390 N   0  0  0  0  0  0  0  0  0  0  0  0
    4.9520   -2.0180    1.0410 C   0  0  0  0  0  0  0  0  0  0  0  0
    5.8460   -1.4580    0.1270 O   0  0  0  0  0  0  0  0  0  0  0  0
    5.4440   -0.5430   -0.8180 C   0  0  0  0  0  0  0  0  0  0  0  0
    4.2050   -0.1210   -0.9480 C   0  0  0  0  0  0  0  0  0  0  0  0
    3.7980    0.8220   -1.9250 N   0  0  0  0  0  0  0  0  0  0  0  0
    1.2550    0.0830   -1.3710 C   0  0  0  0  0  0  0  0  0  0  0  0
   -0.2660   -0.0130   -1.1970 C   0  0  0  0  0  0  0  0  0  0  0  0
  1  2  1  0
  2  3  1  0
  4  3  1  6
  4  5  1  0
  4  8  1  0
  5  6  1  0
  5  7  2  0
  8  9  1  1
  8 20  1  0
  9 10  1  0
 10 11  1  0
 11 12  1  0
 11 19  1  0
 12 13  2  0
 12 17  1  0
 13 14  1  0
 14 15  1  0
 15 16  1  0
 16 17  2  0
 17 18  1  0
 19 20  1  0
M  CHG  1   8   1
M  END
