
     RDKit          3D

 20 22  0  0  0  0  0  0  0  0999 V2000
   -4.1030    0.6130   -1.3320 N   0  0  0  0  0  0  0  0  0  0  0  0
   -3.7810   -0.5470   -0.5360 C   0  0  2  0  0  0  0  0  0  0  0  0
   -3.7740   -0.1460    0.9170 C   0  0  0  0  0  0  0  0  0  0  0  0
   -2.7440    0.8970    1.2280 C   0  0  0  0  0  0  0  0  0  0  0  0
   -1.4190    0.5250    0.9110 N   0  0  0  0  0  0  0  0  0  0  0  0
   -0.7270   -0.8470    0.9600 S   0  0  2  0  0  0  0  0  0  0  0  0
   -0.6380   -1.3570    2.3920 O   0  0  0  0  0  0  0  0  0  0  0  0
    0.7450   -0.9770    0.2120 N   0  0  0  0  0  0  0  0  0  0  0  0
    1.6480    0.0790    0.1820 C   0  0  1  0  0  0  0  0  0  0  0  0
    2.8730   -0.3570   -0.5550 C   0  0  0  0  0  0  0  0  0  0  0  0
    3.3750    0.1020   -1.6470 N   0  0  0  0  0  0  0  0  0  0  0  0
    4.5480   -0.6040   -1.9950 C   0  0  0  0  0  0  0  0  0  0  0  0
    4.8080   -1.5110   -1.1430 N   0  0  0  0  0  0  0  0  0  0  0  0
    3.7750   -1.4580   -0.1320 C   0  0  0  0  0  0  0  0  0  0  0  0
    1.0530    1.2280   -0.6190 C   0  0  0  0  0  0  0  0  0  0  0  0
    1.2220    2.4540    0.2370 C   0  0  0  0  0  0  0  0  0  0  0  0
    2.4350    2.1010    1.0710 C   0  0  0  0  0  0  0  0  0  0  0  0
    2.0880    0.6600    1.4740 C   0  0  0  0  0  0  0  0  0  0  0  0
   -1.8500   -1.9920    0.1340 C   0  0  0  0  0  0  0  0  0  0  0  0
   -2.5250   -1.2380   -0.9640 C   0  0  0  0  0  0  0  0  0  0  0  0
  2  1  1  6
  2  3  1  0
  2 20  1  0
  3  4  1  0
  4  5  1  0
  5  6  2  0
  6  7  2  0
  6  8  1  6
  6 19  1  0
  9  8  1  1
  9 10  1  0
  9 15  1  0
  9 18  1  0
 10 11  2  0
 10 14  1  0
 11 12  1  0
 12 13  2  0
 13 14  1  0
 15 16  1  0
 16 17  1  0
 17 18  1  0
 19 20  1  0
M  CHG  2   1   1  13   1
M  END
