
     RDKit          3D

 20 21  0  0  0  0  0  0  0  0999 V2000
    6.8580    0.5330   -0.4370 C   0  0  0  0  0  0  0  0  0  0  0  0
    5.6540    0.3310    0.0620 C   0  0  0  0  0  0  0  0  0  0  0  0
    5.1550   -1.0250    0.3510 C   0  0  0  0  0  0  0  0  0  0  0  0
    3.6800   -1.1540    0.0670 C   0  0  0  0  0  0  0  0  0  0  0  0
    3.0380    0.1200   -0.1960 N   0  0  0  0  0  0  0  0  0  0  0  0
    3.5470    1.3750    0.1860 C   0  0  0  0  0  0  0  0  0  0  0  0
    2.5470    2.8090    0.5070 S   0  0  0  0  0  0  0  0  0  0  0  0
    0.8090    2.3640    0.3160 C   0  0  0  0  0  0  0  0  0  0  0  0
    0.4320    1.4070    1.4110 C   0  0  0  0  0  0  0  0  0  0  0  0
   -0.9310    1.0630    1.2590 O   0  0  0  0  0  0  0  0  0  0  0  0
   -1.3260    0.4340    0.0680 C   0  0  0  0  0  0  0  0  0  0  0  0
   -0.6610   -0.0880   -0.8500 N   0  0  0  0  0  0  0  0  0  0  0  0
   -1.4170   -0.5910   -1.8870 N   0  0  0  0  0  0  0  0  0  0  0  0
   -2.8010   -0.3110   -1.5610 C   0  0  0  0  0  0  0  0  0  0  0  0
   -3.7680   -0.5570   -2.4730 C   0  0  0  0  0  0  0  0  0  0  0  0
   -2.8110    0.2720   -0.2690 C   0  0  1  0  0  0  0  0  0  0  0  0
   -3.4560   -0.3080    0.9160 C   0  0  0  0  0  0  0  0  0  0  0  0
   -4.8910   -0.6000    0.8840 C   0  0  0  0  0  0  0  0  0  0  0  0
   -5.3680   -1.6280    0.0170 N   0  0  0  0  0  0  0  0  0  0  0  0
    4.8410    1.4850    0.3150 N   0  0  0  0  0  0  0  0  0  0  0  0
  1  2  2  0
  2  3  1  0
  2 20  1  0
  3  4  1  0
  4  5  1  0
  5  6  1  0
  6  7  1  0
  6 20  2  0
  7  8  1  0
  8  9  1  0
  9 10  1  0
 10 11  1  0
 11 12  2  0
 11 16  1  0
 12 13  1  0
 13 14  1  0
 14 15  2  0
 14 16  1  0
 16 17  1  1
 17 18  1  0
 18 19  1  0
M  CHG  1  19   1
M  END
