
     RDKit          3D

 16 17  0  0  0  0  0  0  0  0999 V2000
   -1.6640    2.5080   -0.8770 N   0  0  0  0  0  0  0  0  0  0  0  0
   -2.6090    1.4370   -0.6440 C   0  0  0  0  0  0  0  0  0  0  0  0
   -3.8240    1.6060   -0.9900 N   0  0  0  0  0  0  0  0  0  0  0  0
   -5.0130    0.3690   -0.7440 S   0  0  0  0  0  0  0  0  0  0  0  0
   -4.2590   -1.0610    0.0240 C   0  0  2  0  0  0  0  0  0  0  0  0
   -4.9450   -1.2510    1.2550 O   0  0  0  0  0  0  0  0  0  0  0  0
   -2.8270   -0.8390    0.2560 C   0  0  0  0  0  0  0  0  0  0  0  0
   -2.1090    0.2170   -0.0210 C   0  0  0  0  0  0  0  0  0  0  0  0
   -0.7270    0.1760    0.3090 O   0  0  0  0  0  0  0  0  0  0  0  0
    0.1340    0.0200   -0.8000 C   0  0  0  0  0  0  0  0  0  0  0  0
    1.5820   -0.0180   -0.4040 C   0  0  2  0  0  0  0  0  0  0  0  0
    1.9190   -1.1370    0.5280 C   0  0  0  0  0  0  0  0  0  0  0  0
    3.3690   -0.9100    0.9760 C   0  0  0  0  0  0  0  0  0  0  0  0
    4.0460    0.0620    0.0090 C   0  0  0  0  0  0  0  0  0  0  0  0
    3.4670    1.3070    0.0240 O   0  0  0  0  0  0  0  0  0  0  0  0
    2.0740    1.2650    0.1820 C   0  0  0  0  0  0  0  0  0  0  0  0
  1  2  1  0
  2  3  2  0
  2  8  1  0
  3  4  1  0
  4  5  1  0
  5  6  1  1
  5  7  1  0
  7  8  2  0
  8  9  1  0
  9 10  1  0
 11 10  1  1
 11 12  1  0
 11 16  1  0
 12 13  1  0
 13 14  1  0
 14 15  1  0
 15 16  1  0
M  END
