
     RDKit          3D

 20 21  0  0  0  0  0  0  0  0999 V2000
    7.2350   -0.9860   -0.4680 C   0  0  0  0  0  0  0  0  0  0  0  0
    5.6390   -1.5340    0.1560 S   0  0  0  0  0  0  0  0  0  0  0  0
    4.2750   -0.7810   -0.8080 C   0  0  1  0  0  0  0  0  0  0  0  0
    2.9650   -1.2260   -0.3020 C   0  0  0  0  0  0  0  0  0  0  0  0
    2.0420   -0.4240    0.2010 C   0  0  0  0  0  0  0  0  0  0  0  0
    0.7320   -0.9440    0.6970 C   0  0  0  0  0  0  0  0  0  0  0  0
   -0.4210   -0.3460   -0.0490 C   0  0  0  0  0  0  0  0  0  0  0  0
   -1.7030   -0.8630    0.4460 C   0  0  0  0  0  0  0  0  0  0  0  0
   -1.6870   -1.7080    1.3930 O   0  0  0  0  0  0  0  0  0  0  0  0
   -2.9480   -0.4490   -0.0990 N   0  0  0  0  0  0  0  0  0  0  0  0
   -3.0800    0.5150   -1.1870 C   0  0  0  0  0  0  0  0  0  0  0  0
   -4.5670    0.7530   -1.3420 C   0  0  0  0  0  0  0  0  0  0  0  0
   -5.0740    0.3920    0.0410 C   0  0  2  0  0  0  0  0  0  0  0  0
   -4.6070    1.4320    0.9340 N   0  0  0  0  0  0  0  0  0  0  0  0
   -4.2580   -0.8770    0.2950 C   0  0  2  0  0  0  0  0  0  0  0  0
   -4.3310   -1.2980    1.7430 C   0  0  0  0  0  0  0  0  0  0  0  0
    2.2940    0.9560    0.2740 N   0  0  0  0  0  0  0  0  0  0  0  0
    3.4030    1.4660   -0.1370 C   0  0  0  0  0  0  0  0  0  0  0  0
    3.5710    2.8940   -0.0220 N   0  0  0  0  0  0  0  0  0  0  0  0
    4.4220    0.6500   -0.6830 N   0  0  0  0  0  0  0  0  0  0  0  0
  1  2  1  0
  3  2  1  1
  3  4  1  0
  3 20  1  0
  4  5  2  0
  5  6  1  0
  5 17  1  0
  6  7  1  0
  7  8  1  0
  8  9  2  0
  8 10  1  0
 10 11  1  0
 10 15  1  0
 11 12  1  0
 12 13  1  0
 13 14  1  1
 13 15  1  0
 15 16  1  1
 17 18  2  0
 18 19  1  0
 18 20  1  0
M  CHG  1  17   1
M  END
