
     RDKit          3D

 23 24  0  0  0  0  0  0  0  0999 V2000
    0.1870   -2.5220   -0.9690 C   0  0  0  0  0  0  0  0  0  0  0  0
   -0.6650   -1.5450   -0.1900 C   0  0  1  0  0  0  0  0  0  0  0  0
   -1.7260   -2.3760    0.5440 C   0  0  0  0  0  0  0  0  0  0  0  0
   -3.0800   -1.6630    0.4480 C   0  0  0  0  0  0  0  0  0  0  0  0
   -3.0730   -0.3260    1.1090 C   0  0  0  0  0  0  0  0  0  0  0  0
   -3.6690    0.7840    0.2540 C   0  0  2  0  0  0  0  0  0  0  0  0
   -3.5940    0.3590   -1.0700 O   0  0  0  0  0  0  0  0  0  0  0  0
   -2.9720    2.1080    0.4870 C   0  0  0  0  0  0  0  0  0  0  0  0
   -2.0900    2.3890   -0.6720 C   0  0  0  0  0  0  0  0  0  0  0  0
   -0.7460    3.0180   -0.2580 C   0  0  0  0  0  0  0  0  0  0  0  0
    0.3450    1.9790   -0.2970 C   0  0  0  0  0  0  0  0  0  0  0  0
    1.5330    1.9170    0.1970 C   0  0  0  0  0  0  0  0  0  0  0  0
    2.6140    0.8990    0.1710 C   0  0  0  0  0  0  0  0  0  0  0  0
    3.8890    1.2090   -0.3590 C   0  0  0  0  0  0  0  0  0  0  0  0
    4.9300    0.3460   -0.4040 C   0  0  0  0  0  0  0  0  0  0  0  0
    6.1440    0.7200   -0.9380 O   0  0  0  0  0  0  0  0  0  0  0  0
    4.7660   -0.9140    0.0900 C   0  0  0  0  0  0  0  0  0  0  0  0
    3.5570   -1.3020    0.6270 C   0  0  0  0  0  0  0  0  0  0  0  0
    3.4750   -2.6070    1.1130 O   0  0  0  0  0  0  0  0  0  0  0  0
    2.5100   -0.4030    0.6610 C   0  0  0  0  0  0  0  0  0  0  0  0
    1.2690   -0.9320    1.2820 C   0  0  0  0  0  0  0  0  0  0  0  0
    1.5020   -1.5530    2.4030 O   0  0  0  0  0  0  0  0  0  0  0  0
    0.0080   -0.7980    0.7600 O   0  0  0  0  0  0  0  0  0  0  0  0
  2  1  1  1
  2  3  1  0
  2 23  1  0
  3  4  1  0
  4  5  1  0
  5  6  1  0
  6  7  1  6
  6  8  1  0
  8  9  1  0
  9 10  1  0
 10 11  1  0
 11 12  2  0
 12 13  1  0
 13 14  2  0
 13 20  1  0
 14 15  1  0
 15 16  1  0
 15 17  2  0
 17 18  1  0
 18 19  1  0
 18 20  2  0
 20 21  1  0
 21 22  2  0
 21 23  1  0
M  END
