
     RDKit          3D

  9  9  0  0  0  0  0  0  0  0999 V2000
    3.5030    0.5160   -0.1740 N   0  0  0  0  0  0  0  0  0  0  0  0
    2.2150   -0.0270   -0.3580 C   0  0  0  0  0  0  0  0  0  0  0  0
    1.2020    0.5590    0.1520 N   0  0  0  0  0  0  0  0  0  0  0  0
   -0.1320    0.1060    0.0330 C   0  0  0  0  0  0  0  0  0  0  0  0
   -0.4460   -1.0840    0.4150 N   0  0  0  0  0  0  0  0  0  0  0  0
   -1.8740   -1.4030    0.2250 C   0  0  0  0  0  0  0  0  0  0  0  0
   -2.5900   -0.1910    0.8340 C   0  0  0  0  0  0  0  0  0  0  0  0
   -2.4180    0.8730   -0.0220 O   0  0  0  0  0  0  0  0  0  0  0  0
   -1.1600    0.9880   -0.5280 C   0  0  0  0  0  0  0  0  0  0  0  0
  1  2  1  0
  2  3  2  3
  3  4  1  0
  4  5  2  0
  4  9  1  0
  5  6  1  0
  6  7  1  0
  7  8  1  0
  8  9  1  0
M  CHG  1   1   1
M  END
