
     RDKit          3D

 18 19  0  0  0  0  0  0  0  0999 V2000
    4.5400    0.6720   -0.4550 C   0  0  0  0  0  0  0  0  0  0  0  0
    3.1530    0.3240   -0.1350 N   0  0  0  0  0  0  0  0  0  0  0  0
    2.5970    0.3380    1.0660 N   0  0  0  0  0  0  0  0  0  0  0  0
    1.3000   -0.0420    0.9900 C   0  0  0  0  0  0  0  0  0  0  0  0
    1.0470   -0.3020   -0.3280 C   0  0  0  0  0  0  0  0  0  0  0  0
   -0.1810   -0.7330   -0.8930 N   0  0  0  0  0  0  0  0  0  0  0  0
   -1.3450   -0.9520   -0.1140 C   0  0  0  0  0  0  0  0  0  0  0  0
   -2.3140   -0.0730    0.0700 C   0  0  0  0  0  0  0  0  0  0  0  0
   -2.3710    1.2660   -0.4820 C   0  0  0  0  0  0  0  0  0  0  0  0
   -3.4400    2.1430   -0.2380 N   0  0  0  0  0  0  0  0  0  0  0  0
   -1.4290    1.6900   -1.2200 O   0  0  0  0  0  0  0  0  0  0  0  0
   -3.3530   -0.6520    0.9320 C   0  0  0  0  0  0  0  0  0  0  0  0
   -4.4180   -0.0890    1.3110 O   0  0  0  0  0  0  0  0  0  0  0  0
   -2.8950   -1.9640    1.2370 N   0  0  0  0  0  0  0  0  0  0  0  0
   -1.6400   -2.1880    0.5990 C   0  0  0  0  0  0  0  0  0  0  0  0
   -0.9390   -3.2500    0.6510 O   0  0  0  0  0  0  0  0  0  0  0  0
    2.2060   -0.0720   -1.0200 C   0  0  0  0  0  0  0  0  0  0  0  0
    2.3980   -0.1960   -2.2700 O   0  0  0  0  0  0  0  0  0  0  0  0
  1  2  1  0
  2  3  1  0
  2 17  1  0
  3  4  1  0
  4  5  2  0
  5  6  1  0
  5 17  1  0
  6  7  1  0
  7  8  2  0
  7 15  1  0
  8  9  1  0
  8 12  1  0
  9 10  1  0
  9 11  2  0
 12 13  2  0
 12 14  1  0
 14 15  1  0
 15 16  2  0
 17 18  2  0
M  END
