
     RDKit          3D

  8  8  0  0  0  0  0  0  0  0999 V2000
    2.7660    0.0910   -0.2350 N   0  0  0  0  0  0  0  0  0  0  0  0
    1.3610    0.0270   -0.0290 C   0  0  0  0  0  0  0  0  0  0  0  0
    0.9070   -1.1270    0.3080 N   0  0  0  0  0  0  0  0  0  0  0  0
   -0.4520   -1.5530    0.5950 C   0  0  0  0  0  0  0  0  0  0  0  0
   -1.3390   -0.8190   -0.4140 C   0  0  0  0  0  0  0  0  0  0  0  0
   -1.7230    0.5300    0.0790 C   0  0  0  0  0  0  0  0  0  0  0  0
   -0.7380    1.6010   -0.0590 C   0  0  0  0  0  0  0  0  0  0  0  0
    0.6360    1.2130   -0.2140 N   0  0  0  0  0  0  0  0  0  0  0  0
  1  2  1  0
  2  3  2  0
  2  8  1  0
  3  4  1  0
  4  5  1  0
  5  6  1  0
  6  7  1  0
  7  8  1  0
M  CHG  1   3   1
M  END
