
     RDKit          3D

  9  9  0  0  0  0  0  0  0  0999 V2000
   -2.1780   -0.4590   -0.1840 C   0  0  0  0  0  0  0  0  0  0  0  0
   -0.7410   -0.3400    0.2790 C   0  0  1  0  0  0  0  0  0  0  0  0
    0.0300   -1.3690   -0.3130 N   0  0  0  0  0  0  0  0  0  0  0  0
    1.4350   -1.2280   -0.2570 C   0  0  0  0  0  0  0  0  0  0  0  0
    1.9280    0.1390   -0.0510 C   0  0  0  0  0  0  0  0  0  0  0  0
    3.3210    0.3080   -0.0010 O   0  0  0  0  0  0  0  0  0  0  0  0
    1.2020    1.1830    0.0860 N   0  0  0  0  0  0  0  0  0  0  0  0
   -0.2130    1.0250    0.0370 C   0  0  0  0  0  0  0  0  0  0  0  0
   -0.9860    2.0170   -0.2050 N   0  0  0  0  0  0  0  0  0  0  0  0
  2  1  1  6
  2  3  1  0
  2  8  1  0
  3  4  1  0
  4  5  1  0
  5  6  1  0
  5  7  2  0
  7  8  1  0
  8  9  2  0
M  CHG  1   9   1
M  END
