
     RDKit          3D

  9  9  0  0  0  0  0  0  0  0999 V2000
    2.7740   -0.7240    0.1360 C   0  0  0  0  0  0  0  0  0  0  0  0
    1.3400   -0.3020    0.0670 C   0  0  0  0  0  0  0  0  0  0  0  0
    0.3680   -1.0400    0.6340 N   0  0  0  0  0  0  0  0  0  0  0  0
   -0.9320   -0.6960    0.5940 C   0  0  0  0  0  0  0  0  0  0  0  0
   -1.9330   -1.4610    1.1810 O   0  0  0  0  0  0  0  0  0  0  0  0
   -1.3300    0.4640   -0.0500 C   0  0  0  0  0  0  0  0  0  0  0  0
   -2.6970    0.8390   -0.1000 N   0  0  0  0  0  0  0  0  0  0  0  0
   -0.3270    1.2200   -0.6320 C   0  0  0  0  0  0  0  0  0  0  0  0
    0.9560    0.8240   -0.5590 N   0  0  0  0  0  0  0  0  0  0  0  0
  1  2  1  0
  2  3  2  0
  2  9  1  0
  3  4  1  0
  4  5  1  0
  4  6  2  0
  6  7  1  0
  6  8  1  0
  8  9  2  0
M  CHG  1   9   1
M  END
