
     RDKit          3D

  8  8  0  0  0  0  0  0  0  0999 V2000
    0.4140    1.9740    0.0040 C   0  0  0  0  0  0  0  0  0  0  0  0
    0.7720    0.5610   -0.0170 N   0  0  0  0  0  0  0  0  0  0  0  0
    1.9710    0.0000    0.1970 C   0  0  0  0  0  0  0  0  0  0  0  0
    1.8880   -1.3730    0.0860 C   0  0  0  0  0  0  0  0  0  0  0  0
    0.6040   -1.6280   -0.2010 N   0  0  0  0  0  0  0  0  0  0  0  0
   -0.0710   -0.4830   -0.2650 C   0  0  0  0  0  0  0  0  0  0  0  0
   -1.5070   -0.2770   -0.5530 C   0  0  0  0  0  0  0  0  0  0  0  0
   -2.2130   -0.2550    0.7100 N   0  0  0  0  0  0  0  0  0  0  0  0
  1  2  1  0
  2  3  1  0
  2  6  1  0
  3  4  2  0
  4  5  1  0
  5  6  2  0
  6  7  1  0
  7  8  1  0
M  CHG  1   5   1
M  END
