
     RDKit          3D

 18 19  0  0  0  0  0  0  0  0999 V2000
    0.5920   -2.9840   -1.3140 N   0  0  0  0  0  0  0  0  0  0  0  0
    1.3720   -2.1010   -0.4640 C   0  0  0  0  0  0  0  0  0  0  0  0
    2.2780   -2.7040    0.1550 O   0  0  0  0  0  0  0  0  0  0  0  0
    1.0510   -0.7020   -0.4130 C   0  0  0  0  0  0  0  0  0  0  0  0
   -0.0380   -0.2530   -1.2190 O   0  0  0  0  0  0  0  0  0  0  0  0
   -1.3070   -0.1470   -0.6420 C   0  0  0  0  0  0  0  0  0  0  0  0
   -1.8930   -1.0740    0.0980 C   0  0  0  0  0  0  0  0  0  0  0  0
   -3.2340   -0.6070    0.5360 C   0  0  0  0  0  0  0  0  0  0  0  0
   -3.3150    0.6960   -0.0560 N   0  0  0  0  0  0  0  0  0  0  0  0
   -2.2400    0.9640   -0.7190 C   0  0  0  0  0  0  0  0  0  0  0  0
   -2.0470    2.1880   -1.4080 N   0  0  0  0  0  0  0  0  0  0  0  0
    1.6550    0.2200    0.2990 C   0  0  0  0  0  0  0  0  0  0  0  0
    1.3020    1.6250    0.3240 N   0  0  0  0  0  0  0  0  0  0  0  0
    2.1630    2.3310    1.2020 C   0  0  0  0  0  0  0  0  0  0  0  0
    2.1340    3.5800    1.4610 O   0  0  0  0  0  0  0  0  0  0  0  0
    3.0680    1.3920    1.7430 N   0  0  0  0  0  0  0  0  0  0  0  0
    2.7760    0.0780    1.2010 C   0  0  0  0  0  0  0  0  0  0  0  0
    3.4110   -0.9650    1.4940 O   0  0  0  0  0  0  0  0  0  0  0  0
  1  2  1  0
  2  3  2  0
  2  4  1  0
  4  5  1  0
  4 12  2  3
  5  6  1  0
  6  7  2  0
  6 10  1  0
  7  8  1  0
  8  9  1  0
  9 10  2  0
 10 11  1  0
 12 13  1  0
 12 17  1  0
 13 14  1  0
 14 15  2  0
 14 16  1  0
 16 17  1  0
 17 18  2  0
M  END
