
     RDKit          3D

 16 16  0  0  0  0  0  0  0  0999 V2000
    4.1950    0.2670    0.2510 C   0  0  0  0  0  0  0  0  0  0  0  0
    2.7150    0.5790    0.1560 C   0  0  0  0  0  0  0  0  0  0  0  0
    1.7120   -0.6540    1.0050 P   0  0  1  0  0  0  0  0  0  0  0  0
    2.5390   -1.3170    2.1030 O   0  0  0  0  0  0  0  0  0  0  0  0
    0.4320    0.1440    1.7730 O   0  0  0  0  0  0  0  0  0  0  0  0
    1.2050   -1.8650   -0.0220 O   0  0  0  0  0  0  0  0  0  0  0  0
    0.4640   -1.4580   -1.1010 C   0  0  0  0  0  0  0  0  0  0  0  0
   -0.8050   -0.7540   -0.7300 C   0  0  0  0  0  0  0  0  0  0  0  0
   -0.8190    0.6140   -0.6380 C   0  0  0  0  0  0  0  0  0  0  0  0
   -1.9710    1.2750   -0.2990 C   0  0  0  0  0  0  0  0  0  0  0  0
   -3.1490    0.6100   -0.0410 C   0  0  0  0  0  0  0  0  0  0  0  0
   -4.3490    1.3000    0.3120 N   0  0  0  0  0  0  0  0  0  0  0  0
   -4.3320    2.5210    0.3870 O   0  0  0  0  0  0  0  0  0  0  0  0
   -5.5130    0.6260    0.5660 O   0  0  0  0  0  0  0  0  0  0  0  0
   -3.1290   -0.7800   -0.1360 C   0  0  0  0  0  0  0  0  0  0  0  0
   -1.9680   -1.4400   -0.4760 C   0  0  0  0  0  0  0  0  0  0  0  0
  1  2  1  0
  2  3  1  0
  3  4  2  0
  3  5  1  1
  3  6  1  0
  6  7  1  0
  7  8  1  0
  8  9  2  0
  8 16  1  0
  9 10  1  0
 10 11  2  0
 11 12  1  0
 11 15  1  0
 12 13  2  0
 12 14  1  0
 15 16  2  0
M  CHG  2  12   1  14  -1
M  END
