
     RDKit          3D

 14 14  0  0  0  0  0  0  0  0999 V2000
    2.8930    0.5410    0.9550 O   0  0  0  0  0  0  0  0  0  0  0  0
    3.2060    0.0070   -0.1350 C   0  0  0  0  0  0  0  0  0  0  0  0
    4.5000    0.2530   -0.6360 O   0  0  0  0  0  0  0  0  0  0  0  0
    2.3040   -0.7810   -0.7930 O   0  0  0  0  0  0  0  0  0  0  0  0
    1.0140   -1.0340   -0.3190 C   0  0  0  0  0  0  0  0  0  0  0  0
    0.2440    0.2290   -0.2470 C   0  0  0  0  0  0  0  0  0  0  0  0
   -1.1760    0.0460    0.2500 C   0  0  2  0  0  0  0  0  0  0  0  0
   -1.9060   -0.8300   -0.6140 O   0  0  0  0  0  0  0  0  0  0  0  0
   -3.3010   -0.8420   -0.4460 C   0  0  0  0  0  0  0  0  0  0  0  0
   -3.9650   -1.8920   -0.7220 O   0  0  0  0  0  0  0  0  0  0  0  0
   -3.9760    0.2800    0.0190 O   0  0  0  0  0  0  0  0  0  0  0  0
   -3.2310    1.3820    0.3020 O   0  0  0  0  0  0  0  0  0  0  0  0
   -1.8460    1.3790    0.1310 C   0  0  0  0  0  0  0  0  0  0  0  0
   -1.2000    2.4370   -0.1100 O   0  0  0  0  0  0  0  0  0  0  0  0
  1  2  2  0
  2  3  1  0
  2  4  1  0
  4  5  1  0
  5  6  1  0
  7  6  1  6
  7  8  1  0
  7 13  1  0
  8  9  1  0
  9 10  2  0
  9 11  1  0
 11 12  1  0
 12 13  1  0
 13 14  2  0
M  END
