
     RDKit          3D

 14 14  0  0  0  0  0  0  0  0999 V2000
    3.3380    0.2950    1.0930 O   0  0  0  0  0  0  0  0  0  0  0  0
    2.9900    0.7890   -0.0100 C   0  0  0  0  0  0  0  0  0  0  0  0
    3.6000    1.9650   -0.4840 O   0  0  0  0  0  0  0  0  0  0  0  0
    2.0100    0.1580   -0.7280 O   0  0  0  0  0  0  0  0  0  0  0  0
    1.3850   -1.0310   -0.2590 C   0  0  2  0  0  0  0  0  0  0  0  0
    1.5600   -2.0440   -1.1850 O   0  0  0  0  0  0  0  0  0  0  0  0
   -0.0600   -0.7960   -0.0190 C   0  0  0  0  0  0  0  0  0  0  0  0
   -0.8640   -1.4750   -0.6220 O   0  0  0  0  0  0  0  0  0  0  0  0
   -0.4930    0.2490    0.9380 C   0  0  0  0  0  0  0  0  0  0  0  0
   -2.0010    0.3460    1.0210 C   0  0  1  0  0  0  0  0  0  0  0  0
   -2.6420    0.6960   -0.3040 C   0  0  0  0  0  0  0  0  0  0  0  0
   -3.6890   -0.2190   -0.3680 O   0  0  0  0  0  0  0  0  0  0  0  0
   -3.7700   -0.7690    0.8240 O   0  0  0  0  0  0  0  0  0  0  0  0
   -2.5590   -0.9080    1.2670 O   0  0  0  0  0  0  0  0  0  0  0  0
  1  2  2  0
  2  3  1  0
  2  4  1  0
  4  5  1  0
  5  6  1  6
  5  7  1  0
  7  8  2  0
  7  9  1  0
 10  9  1  6
 10 11  1  0
 10 14  1  0
 11 12  1  0
 12 13  1  0
 13 14  1  0
M  END
