
     RDKit          3D

 14 14  0  0  0  0  0  0  0  0999 V2000
    0.8380    1.7150    1.1820 O   0  0  0  0  0  0  0  0  0  0  0  0
    1.2410    0.8080    0.3770 C   0  0  0  0  0  0  0  0  0  0  0  0
    2.6660    0.7870    0.0020 C   0  0  0  0  0  0  0  0  0  0  0  0
    2.8910   -0.2680   -0.8730 O   0  0  0  0  0  0  0  0  0  0  0  0
    4.1590   -0.2920   -1.2110 O   0  0  0  0  0  0  0  0  0  0  0  0
    0.3530   -0.1310   -0.1270 O   0  0  0  0  0  0  0  0  0  0  0  0
   -0.9850   -0.0480    0.2740 C   0  0  2  0  0  0  0  0  0  0  0  0
   -1.4490   -1.3020    0.9940 C   0  0  0  0  0  0  0  0  0  0  0  0
   -2.7350   -1.0920    1.4730 O   0  0  0  0  0  0  0  0  0  0  0  0
   -3.6160   -0.8500    0.5160 O   0  0  0  0  0  0  0  0  0  0  0  0
   -3.3060   -0.1060   -0.6310 C   0  0  0  0  0  0  0  0  0  0  0  0
   -4.1830    0.3330   -1.4130 O   0  0  0  0  0  0  0  0  0  0  0  0
   -1.8950    0.1410   -0.8820 C   0  0  0  0  0  0  0  0  0  0  0  0
   -1.5280    0.4910   -2.0270 O   0  0  0  0  0  0  0  0  0  0  0  0
  1  2  2  0
  2  3  1  0
  2  6  1  0
  3  4  1  0
  4  5  1  0
  7  6  1  6
  7  8  1  0
  7 13  1  0
  8  9  1  0
  9 10  1  0
 10 11  1  0
 11 12  2  0
 11 13  1  0
 13 14  2  0
M  END
