
     RDKit          3D

 14 14  0  0  0  0  0  0  0  0999 V2000
    3.4910   -0.3730    1.6780 O   0  0  0  0  0  0  0  0  0  0  0  0
    3.9780   -0.0500    0.5610 C   0  0  0  0  0  0  0  0  0  0  0  0
    5.2530    0.4450    0.4240 O   0  0  0  0  0  0  0  0  0  0  0  0
    3.2090   -0.1910   -0.5950 O   0  0  0  0  0  0  0  0  0  0  0  0
    1.9410   -0.6710   -0.5480 O   0  0  0  0  0  0  0  0  0  0  0  0
    0.9000    0.1730   -0.8560 C   0  0  0  0  0  0  0  0  0  0  0  0
    1.1320    1.3560   -1.1710 O   0  0  0  0  0  0  0  0  0  0  0  0
   -0.4830   -0.3280   -0.8110 C   0  0  2  0  0  0  0  0  0  0  0  0
   -1.4160    0.6490   -1.1490 O   0  0  0  0  0  0  0  0  0  0  0  0
   -2.6870    0.0540   -0.9780 C   0  0  0  0  0  0  0  0  0  0  0  0
   -3.0630    0.1410    0.5020 C   0  0  0  0  0  0  0  0  0  0  0  0
   -1.7760   -0.0170    1.2570 C   0  0  0  0  0  0  0  0  0  0  0  0
   -1.6320    0.4060    2.4350 O   0  0  0  0  0  0  0  0  0  0  0  0
   -0.7550   -0.6660    0.5590 O   0  0  0  0  0  0  0  0  0  0  0  0
  1  2  2  0
  2  3  1  0
  2  4  1  0
  4  5  1  0
  5  6  1  0
  6  7  2  0
  8  6  1  1
  8  9  1  0
  8 14  1  0
  9 10  1  0
 10 11  1  0
 11 12  1  0
 12 13  2  0
 12 14  1  0
M  END
