
     RDKit          3D

 14 14  0  0  0  0  0  0  0  0999 V2000
   -2.9500    0.9030   -0.0210 O   0  0  0  0  0  0  0  0  0  0  0  0
   -2.1220    1.4260   -0.7800 C   0  0  0  0  0  0  0  0  0  0  0  0
   -0.8280    1.6150   -0.3510 O   0  0  0  0  0  0  0  0  0  0  0  0
   -0.3240    1.2590    0.9170 C   0  0  0  0  0  0  0  0  0  0  0  0
   -0.4560   -0.2080    1.1110 C   0  0  2  0  0  0  0  0  0  0  0  0
    0.0270   -0.6400    2.3440 O   0  0  0  0  0  0  0  0  0  0  0  0
    0.3470   -1.9320    2.2160 O   0  0  0  0  0  0  0  0  0  0  0  0
    0.6260   -2.2330    0.8940 C   0  0  0  0  0  0  0  0  0  0  0  0
    1.0550   -3.3390    0.5120 O   0  0  0  0  0  0  0  0  0  0  0  0
    0.3170   -1.0280    0.1190 C   0  0  2  0  0  0  0  0  0  0  0  0
    1.4440   -0.3740   -0.3930 O   0  0  0  0  0  0  0  0  0  0  0  0
    1.5970   -0.0890   -1.7370 C   0  0  0  0  0  0  0  0  0  0  0  0
    0.6530   -0.4530   -2.4980 O   0  0  0  0  0  0  0  0  0  0  0  0
    2.7210    0.5640   -2.2470 O   0  0  0  0  0  0  0  0  0  0  0  0
  1  2  2  0
  2  3  1  0
  3  4  1  0
  5  4  1  6
  5  6  1  0
  5 10  1  0
  6  7  1  0
  7  8  1  0
  8  9  2  0
  8 10  1  0
 10 11  1  1
 11 12  1  0
 12 13  2  0
 12 14  1  0
M  END
