
     RDKit          3D

 14 14  0  0  0  0  0  0  0  0999 V2000
   -3.8910    0.9400    1.0020 O   0  0  0  0  0  0  0  0  0  0  0  0
   -3.5270    0.7750   -0.1340 C   0  0  0  0  0  0  0  0  0  0  0  0
   -3.7870    1.9280   -1.0600 O   0  0  0  0  0  0  0  0  0  0  0  0
   -2.9020   -0.2580   -0.6270 O   0  0  0  0  0  0  0  0  0  0  0  0
   -2.4620   -1.3060    0.1190 C   0  0  0  0  0  0  0  0  0  0  0  0
   -1.0160   -1.2360   -0.4650 C   0  0  0  0  0  0  0  0  0  0  0  0
   -0.2030   -1.9810    0.2350 O   0  0  0  0  0  0  0  0  0  0  0  0
    0.8000   -1.0880    0.6320 O   0  0  0  0  0  0  0  0  0  0  0  0
    1.7130   -0.3190   -0.0950 C   0  0  0  0  0  0  0  0  0  0  0  0
    1.6240   -0.3790   -1.2600 O   0  0  0  0  0  0  0  0  0  0  0  0
    2.6520    0.4700    0.6200 C   0  0  2  0  0  0  0  0  0  0  0  0
    3.7210    1.1100   -0.2050 C   0  0  0  0  0  0  0  0  0  0  0  0
    4.0910   -0.1890   -0.3370 O   0  0  0  0  0  0  0  0  0  0  0  0
    3.7090   -0.4310    0.8770 O   0  0  0  0  0  0  0  0  0  0  0  0
  1  2  2  0
  2  3  1  0
  2  4  1  0
  4  5  1  0
  5  6  1  0
  6  7  1  0
  7  8  1  0
  8  9  1  0
  9 10  2  0
 11  9  1  6
 11 12  1  0
 11 14  1  0
 12 13  1  0
 13 14  1  0
M  END
