
     RDKit          3D

 10  9  0  0  0  0  0  0  0  0999 V2000
    3.5660   -0.6490    1.1570 O   0  0  0  0  0  0  0  0  0  0  0  0
    2.2410   -0.2440    0.9960 C   0  0  0  0  0  0  0  0  0  0  0  0
    1.8710   -0.4980   -0.4520 C   0  0  2  0  0  0  0  0  0  0  0  0
    2.7510    0.2650   -1.2230 O   0  0  0  0  0  0  0  0  0  0  0  0
    0.4820   -0.0370   -0.7760 C   0  0  0  0  0  0  0  0  0  0  0  0
   -0.5070   -0.6940   -0.0940 O   0  0  0  0  0  0  0  0  0  0  0  0
   -1.7330   -0.1900   -0.4700 C   0  0  1  0  0  0  0  0  0  0  0  0
   -2.4980   -1.2570   -0.9860 O   0  0  0  0  0  0  0  0  0  0  0  0
   -2.5230    0.3780    0.6800 C   0  0  0  0  0  0  0  0  0  0  0  0
   -3.7340    0.8470    0.1390 O   0  0  0  0  0  0  0  0  0  0  0  0
  1  2  1  0
  2  3  1  0
  3  4  1  6
  3  5  1  0
  5  6  1  0
  6  7  1  0
  7  8  1  1
  7  9  1  0
  9 10  1  0
M  END
