
     RDKit          3D

  9  9  0  0  0  0  0  0  0  0999 V2000
   -2.6230    0.0200   -0.1620 O   0  0  0  0  0  0  0  0  0  0  0  0
   -1.6650   -0.5350   -1.0150 C   0  0  0  0  0  0  0  0  0  0  0  0
   -0.3450   -0.4670   -0.3160 C   0  0  1  0  0  0  0  0  0  0  0  0
    0.7080   -0.9850   -1.0470 O   0  0  0  0  0  0  0  0  0  0  0  0
    1.7850   -1.1230   -0.1560 C   0  0  0  0  0  0  0  0  0  0  0  0
    2.1830    0.0570    0.4030 O   0  0  0  0  0  0  0  0  0  0  0  0
    1.1870    0.7470    1.0660 C   0  0  0  0  0  0  0  0  0  0  0  0
    0.0600    0.9470    0.0420 C   0  0  2  0  0  0  0  0  0  0  0  0
   -0.9630    1.7080    0.5270 O   0  0  0  0  0  0  0  0  0  0  0  0
  1  2  1  0
  3  2  1  6
  3  4  1  0
  3  8  1  0
  4  5  1  0
  5  6  1  0
  6  7  1  0
  7  8  1  0
  8  9  1  1
M  END
