
     RDKit          3D

 10  9  0  0  0  0  0  0  0  0999 V2000
    2.2570    1.6770    0.1020 C   0  0  0  0  0  0  0  0  0  0  0  0
    1.5250    0.7810    0.8860 O   0  0  0  0  0  0  0  0  0  0  0  0
    0.9920   -0.2480    0.1270 C   0  0  1  0  0  0  0  0  0  0  0  0
    1.4490   -1.4970    0.6000 O   0  0  0  0  0  0  0  0  0  0  0  0
   -0.5200   -0.2700    0.2850 C   0  0  1  0  0  0  0  0  0  0  0  0
   -0.7920   -0.4670    1.6190 O   0  0  0  0  0  0  0  0  0  0  0  0
   -1.0630    1.0470   -0.2290 C   0  0  0  0  0  0  0  0  0  0  0  0
   -2.4490    1.0910   -0.0700 O   0  0  0  0  0  0  0  0  0  0  0  0
   -1.0730   -1.4130   -0.5190 C   0  0  0  0  0  0  0  0  0  0  0  0
   -0.4970   -2.6060   -0.1150 O   0  0  0  0  0  0  0  0  0  0  0  0
  1  2  1  0
  2  3  1  0
  3  4  1  1
  3  5  1  0
  5  6  1  1
  5  7  1  0
  5  9  1  0
  7  8  1  0
  9 10  1  0
M  END
