
     RDKit          3D

 12 13  0  0  0  0  0  0  0  0999 V2000
   -1.2940    2.3550   -0.9470 O   0  0  0  0  0  0  0  0  0  0  0  0
   -1.3870    1.2240   -0.3680 C   0  0  0  0  0  0  0  0  0  0  0  0
   -2.5470    0.7600    0.1050 N   0  0  0  0  0  0  0  0  0  0  0  0
   -2.6060   -0.4380    0.7100 C   0  0  0  0  0  0  0  0  0  0  0  0
   -1.4690   -1.2010    0.8480 C   0  0  0  0  0  0  0  0  0  0  0  0
   -0.2640   -0.7350    0.3640 C   0  0  0  0  0  0  0  0  0  0  0  0
    0.9100   -1.4690    0.4800 C   0  0  0  0  0  0  0  0  0  0  0  0
    2.0840   -0.9340   -0.0310 C   0  0  0  0  0  0  0  0  0  0  0  0
    2.1430    0.2930   -0.6500 C   0  0  0  0  0  0  0  0  0  0  0  0
    3.3520    0.8030   -1.1560 O   0  0  0  0  0  0  0  0  0  0  0  0
    0.9720    1.0140   -0.7600 C   0  0  0  0  0  0  0  0  0  0  0  0
   -0.2170    0.4980   -0.2550 C   0  0  0  0  0  0  0  0  0  0  0  0
  1  2  2  0
  2  3  1  0
  2 12  1  0
  3  4  1  0
  4  5  2  0
  5  6  1  0
  6  7  2  0
  6 12  1  0
  7  8  1  0
  8  9  2  0
  9 10  1  0
  9 11  1  0
 11 12  2  0
M  END
