
     RDKit          3D

 22 24  0  0  0  0  0  0  0  0999 V2000
    4.6400    2.6140    0.2520 N   0  0  0  0  0  0  0  0  0  0  0  0
    3.8800    1.4310    0.6130 C   0  0  0  0  0  0  0  0  0  0  0  0
    3.4740    0.7400   -0.6450 C   0  0  2  0  0  0  0  0  0  0  0  0
    2.4560    1.8600   -1.6390 S   0  0  0  0  0  0  0  0  0  0  0  0
    0.9170    1.0200   -1.1950 C   0  0  0  0  0  0  0  0  0  0  0  0
   -0.2240    1.5550   -1.3540 N   0  0  0  0  0  0  0  0  0  0  0  0
   -1.4570    0.9620   -1.0320 C   0  0  0  0  0  0  0  0  0  0  0  0
   -2.0320    1.1060    0.1320 N   0  0  0  0  0  0  0  0  0  0  0  0
   -3.2780    0.4610    0.3490 C   0  0  0  0  0  0  0  0  0  0  0  0
   -4.4230    0.8160   -0.3310 C   0  0  0  0  0  0  0  0  0  0  0  0
   -4.3950    1.8230   -1.2590 O   0  0  0  0  0  0  0  0  0  0  0  0
   -5.6360    0.1750   -0.1070 C   0  0  0  0  0  0  0  0  0  0  0  0
   -5.7310   -0.8550    0.8210 C   0  0  0  0  0  0  0  0  0  0  0  0
   -4.5900   -1.2090    1.5000 C   0  0  0  0  0  0  0  0  0  0  0  0
   -3.3960   -0.5720    1.2730 C   0  0  0  0  0  0  0  0  0  0  0  0
   -2.2450   -0.9090    1.9390 F   0  0  0  0  0  0  0  0  0  0  0  0
    1.3520   -0.2620   -0.6800 C   0  0  0  0  0  0  0  0  0  0  0  0
    2.5830   -0.4240   -0.4060 C   0  0  0  0  0  0  0  0  0  0  0  0
    3.0620   -1.6660    0.1030 N   0  0  0  0  0  0  0  0  0  0  0  0
    2.2450   -2.8200    0.3470 C   0  0  0  0  0  0  0  0  0  0  0  0
    0.8520   -2.5500    0.0070 C   0  0  0  0  0  0  0  0  0  0  0  0
    0.4480   -1.4010   -0.4550 C   0  0  0  0  0  0  0  0  0  0  0  0
  1  2  1  0
  3  2  1  1
  3  4  1  0
  3 18  1  0
  4  5  1  0
  5  6  2  3
  5 17  1  0
  6  7  1  0
  7  8  2  3
  8  9  1  0
  9 10  2  0
  9 15  1  0
 10 11  1  0
 10 12  1  0
 12 13  2  0
 13 14  1  0
 14 15  2  0
 15 16  1  0
 17 18  2  0
 17 22  1  0
 18 19  1  0
 19 20  1  0
 20 21  1  0
 21 22  2  0
M  CHG  1   1   1
M  END
