
     RDKit          3D

 22 25  0  0  0  0  0  0  0  0999 V2000
    5.7450   -1.2630   -1.5260 N   0  0  0  0  0  0  0  0  0  0  0  0
    4.4070   -0.9290   -1.1890 C   0  0  0  0  0  0  0  0  0  0  0  0
    3.5120   -1.1530   -2.0270 O   0  0  0  0  0  0  0  0  0  0  0  0
    4.1410   -0.3420    0.1130 C   0  0  0  0  0  0  0  0  0  0  0  0
    5.1700   -0.1070    1.0240 C   0  0  0  0  0  0  0  0  0  0  0  0
    4.9490    0.4470    2.2630 C   0  0  0  0  0  0  0  0  0  0  0  0
    5.9700    0.6700    3.1430 F   0  0  0  0  0  0  0  0  0  0  0  0
    3.6500    0.7700    2.5870 C   0  0  0  0  0  0  0  0  0  0  0  0
    2.6080    0.5410    1.6870 C   0  0  0  0  0  0  0  0  0  0  0  0
    1.3020    0.7610    1.7650 N   0  0  0  0  0  0  0  0  0  0  0  0
    0.7090    0.3670    0.6250 C   0  0  0  0  0  0  0  0  0  0  0  0
   -0.7380    0.4460    0.3190 C   0  0  0  0  0  0  0  0  0  0  0  0
   -1.4360    0.0710   -0.8100 C   0  0  0  0  0  0  0  0  0  0  0  0
   -2.7540    0.2590   -0.8140 C   0  0  0  0  0  0  0  0  0  0  0  0
   -3.3490    0.8170    0.3090 C   0  0  0  0  0  0  0  0  0  0  0  0
   -2.0160    1.0740    1.3760 S   0  0  0  0  0  0  0  0  0  0  0  0
   -4.8240    1.0540    0.3690 C   0  0  0  0  0  0  0  0  0  0  0  0
   -5.5870    0.0280   -0.2610 N   0  0  0  0  0  0  0  0  0  0  0  0
   -4.8820   -0.7830   -1.1960 C   0  0  0  0  0  0  0  0  0  0  0  0
   -3.7540   -0.0570   -1.9040 C   0  0  0  0  0  0  0  0  0  0  0  0
    1.6600   -0.1170   -0.1990 N   0  0  0  0  0  0  0  0  0  0  0  0
    2.8360   -0.0160    0.4420 C   0  0  0  0  0  0  0  0  0  0  0  0
  1  2  1  0
  2  3  2  0
  2  4  1  0
  4  5  2  0
  4 22  1  0
  5  6  1  0
  6  7  1  0
  6  8  2  0
  8  9  1  0
  9 10  1  0
  9 22  2  0
 10 11  2  0
 11 12  1  0
 11 21  1  0
 12 13  2  0
 12 16  1  0
 13 14  1  0
 14 15  2  0
 14 20  1  0
 15 16  1  0
 15 17  1  0
 17 18  1  0
 18 19  1  0
 19 20  1  0
 21 22  1  0
M  CHG  1  18   1
M  END
