
     RDKit          3D

 21 24  0  0  0  0  0  0  0  0999 V2000
   -3.8910   -2.2150   -0.9200 N   0  0  0  0  0  0  0  0  0  0  0  0
   -2.8970   -1.1910   -0.9620 C   0  0  0  0  0  0  0  0  0  0  0  0
   -2.8720   -0.2330   -1.8470 N   0  0  0  0  0  0  0  0  0  0  0  0
   -1.7280    0.6310   -1.5940 C   0  0  0  0  0  0  0  0  0  0  0  0
   -1.4320    0.3590   -0.1440 C   0  0  1  0  0  0  0  0  0  0  0  0
   -0.1370    0.6610    0.3180 N   0  0  0  0  0  0  0  0  0  0  0  0
    1.0790    0.0100   -0.0070 C   0  0  0  0  0  0  0  0  0  0  0  0
    1.1330   -1.0520   -0.8790 C   0  0  0  0  0  0  0  0  0  0  0  0
    2.3400   -1.6990   -1.1680 C   0  0  0  0  0  0  0  0  0  0  0  0
    3.5190   -1.2890   -0.5830 C   0  0  0  0  0  0  0  0  0  0  0  0
    3.4730   -0.2300    0.2870 C   0  0  0  0  0  0  0  0  0  0  0  0
    2.2770    0.4010    0.5650 C   0  0  0  0  0  0  0  0  0  0  0  0
    4.8630   -0.0200    0.7610 C   0  0  0  0  0  0  0  0  0  0  0  0
    5.6740   -0.6090   -0.3720 C   0  0  0  0  0  0  0  0  0  0  0  0
    4.8500   -1.7450   -0.6870 O   0  0  0  0  0  0  0  0  0  0  0  0
   -2.4640    1.1550    0.6620 C   0  0  0  0  0  0  0  0  0  0  0  0
   -2.6080    2.4850    0.5760 C   0  0  0  0  0  0  0  0  0  0  0  0
   -3.5160    3.1140    1.3110 C   0  0  0  0  0  0  0  0  0  0  0  0
   -4.2940    1.8510    2.2370 S   0  0  0  0  0  0  0  0  0  0  0  0
   -3.3060    0.4960    1.5470 C   0  0  0  0  0  0  0  0  0  0  0  0
   -1.7770   -1.0470   -0.0590 N   0  0  0  0  0  0  0  0  0  0  0  0
  1  2  1  0
  2  3  2  0
  2 21  1  0
  3  4  1  0
  4  5  1  0
  5  6  1  1
  5 16  1  0
  5 21  1  0
  6  7  1  0
  7  8  2  0
  7 12  1  0
  8  9  1  0
  9 10  2  0
 10 11  1  0
 10 15  1  0
 11 12  2  0
 11 13  1  0
 13 14  1  0
 14 15  1  0
 16 17  1  0
 16 20  2  0
 17 18  2  0
 18 19  1  0
 19 20  1  0
M  CHG  1   3   1
M  END
