
     RDKit          3D

 22 24  0  0  0  0  0  0  0  0999 V2000
   -5.5410   -1.0820   -0.5300 C   0  0  0  0  0  0  0  0  0  0  0  0
   -4.4330   -0.8470    0.0810 C   0  0  0  0  0  0  0  0  0  0  0  0
   -4.0070   -1.7380    1.1310 N   0  0  0  0  0  0  0  0  0  0  0  0
   -2.7310   -2.2150    0.7310 N   0  0  0  0  0  0  0  0  0  0  0  0
   -1.7150   -1.2730    0.4450 C   0  0  0  0  0  0  0  0  0  0  0  0
   -0.5050   -1.5530    0.6360 O   0  0  0  0  0  0  0  0  0  0  0  0
   -2.0990    0.0570   -0.0830 C   0  0  0  0  0  0  0  0  0  0  0  0
   -1.1960    0.9450   -0.3900 C   0  0  0  0  0  0  0  0  0  0  0  0
    0.2590    0.7110   -0.2480 C   0  0  0  0  0  0  0  0  0  0  0  0
    1.0940   -0.1850   -0.5430 N   0  0  0  0  0  0  0  0  0  0  0  0
    2.3520   -0.1360   -0.2890 C   0  0  0  0  0  0  0  0  0  0  0  0
    2.8410    0.9740    0.3540 C   0  0  0  0  0  0  0  0  0  0  0  0
    1.3720    1.9380    0.5680 S   0  0  0  0  0  0  0  0  0  0  0  0
    4.1110    1.3510    0.7780 N   0  0  0  0  0  0  0  0  0  0  0  0
    5.4020    1.0030    0.2590 C   0  0  0  0  0  0  0  0  0  0  0  0
    5.4540   -0.5120    0.1540 C   0  0  0  0  0  0  0  0  0  0  0  0
    4.6040   -0.8490   -1.0520 C   0  0  0  0  0  0  0  0  0  0  0  0
    3.2400   -1.3040   -0.7060 C   0  0  0  0  0  0  0  0  0  0  0  0
   -3.5240    0.2840   -0.2700 C   0  0  0  0  0  0  0  0  0  0  0  0
   -4.0560    1.3900   -0.6650 C   0  0  0  0  0  0  0  0  0  0  0  0
   -3.5390    2.6990   -1.0940 C   0  0  0  0  0  0  0  0  0  0  0  0
   -5.4810    1.3340   -0.6400 F   0  0  0  0  0  0  0  0  0  0  0  0
  1  2  2  0
  2  3  1  0
  2 19  1  0
  3  4  1  0
  4  5  1  0
  5  6  2  0
  5  7  1  0
  7  8  2  3
  7 19  1  0
  8  9  1  0
  9 10  2  0
  9 13  1  0
 10 11  1  0
 11 12  2  0
 11 18  1  0
 12 13  1  0
 12 14  1  0
 14 15  1  0
 15 16  1  0
 16 17  1  0
 17 18  1  0
 19 20  2  3
 20 21  1  0
 20 22  1  0
M  CHG  1   3   1
M  END
