
     RDKit          3D

 21 23  0  0  0  0  0  0  0  0999 V2000
   -4.3610    3.6930    1.6190 C   0  0  0  0  0  0  0  0  0  0  0  0
   -3.2710    2.7670    1.6200 N   0  0  0  0  0  0  0  0  0  0  0  0
   -2.7450    2.5070    0.2790 C   0  0  0  0  0  0  0  0  0  0  0  0
   -1.6420    1.5470    0.4400 C   0  0  0  0  0  0  0  0  0  0  0  0
   -1.6980    0.3500   -0.1380 C   0  0  0  0  0  0  0  0  0  0  0  0
   -2.9330    0.0900   -0.9070 C   0  0  0  0  0  0  0  0  0  0  0  0
   -3.1070   -1.2830   -1.3830 C   0  0  0  0  0  0  0  0  0  0  0  0
   -1.9310   -2.1470   -1.3400 C   0  0  0  0  0  0  0  0  0  0  0  0
   -2.0260   -3.4670   -1.9710 N   0  0  0  0  0  0  0  0  0  0  0  0
   -0.8320   -1.8290   -0.7930 N   0  0  0  0  0  0  0  0  0  0  0  0
   -0.6100   -0.5830   -0.1520 C   0  0  0  0  0  0  0  0  0  0  0  0
    0.6000   -0.3880    0.3860 C   0  0  0  0  0  0  0  0  0  0  0  0
    1.0510    0.7760    1.0640 C   0  0  0  0  0  0  0  0  0  0  0  0
    2.2340    1.1720    1.3670 C   0  0  0  0  0  0  0  0  0  0  0  0
    3.5300    0.6580    1.1680 C   0  0  0  0  0  0  0  0  0  0  0  0
    4.5110    1.3610    1.6720 O   0  0  0  0  0  0  0  0  0  0  0  0
    3.9380   -0.4980    0.5040 N   0  0  0  0  0  0  0  0  0  0  0  0
    5.3820   -0.8130    0.4460 C   0  0  2  0  0  0  0  0  0  0  0  0
    5.8680   -1.3920   -0.9100 C   0  0  0  0  0  0  0  0  0  0  0  0
    5.7670   -2.2470    0.2960 C   0  0  0  0  0  0  0  0  0  0  0  0
   -0.2830    1.9350    1.5110 S   0  0  0  0  0  0  0  0  0  0  0  0
  1  2  1  0
  2  3  1  0
  3  4  1  0
  4  5  2  0
  4 21  1  0
  5  6  1  0
  5 11  1  0
  6  7  1  0
  7  8  1  0
  8  9  1  0
  8 10  2  0
 10 11  1  0
 11 12  2  0
 12 13  1  0
 13 14  2  3
 13 21  1  0
 14 15  1  0
 15 16  2  0
 15 17  1  0
 18 17  1  6
 18 19  1  0
 18 20  1  0
 19 20  1  0
M  CHG  1   9   1
M  END
