
     RDKit          3D

 22 24  0  0  0  0  0  0  0  0999 V2000
   -2.8770   -2.0800   -0.4490 N   0  0  0  0  0  0  0  0  0  0  0  0
   -1.8330   -1.0760   -0.3280 C   0  0  0  0  0  0  0  0  0  0  0  0
   -2.2420    0.1530   -0.2090 C   0  0  0  0  0  0  0  0  0  0  0  0
   -3.6830    0.4760   -0.2000 C   0  0  0  0  0  0  0  0  0  0  0  0
   -4.1250    1.7140   -0.0800 C   0  0  0  0  0  0  0  0  0  0  0  0
   -3.2870    2.7760    0.0430 F   0  0  0  0  0  0  0  0  0  0  0  0
   -5.5730    2.0200   -0.0730 C   0  0  0  0  0  0  0  0  0  0  0  0
   -6.3640    0.8080   -0.2100 N   0  0  0  0  0  0  0  0  0  0  0  0
   -0.4790   -1.5370   -0.3530 C   0  0  0  0  0  0  0  0  0  0  0  0
    0.5970   -0.8640   -0.2660 C   0  0  0  0  0  0  0  0  0  0  0  0
    0.7560    0.9550   -0.0760 S   0  0  0  0  0  0  0  0  0  0  0  0
    2.5730    0.9490   -0.0460 C   0  0  0  0  0  0  0  0  0  0  0  0
    3.6420    1.7540    0.0540 N   0  0  0  0  0  0  0  0  0  0  0  0
    4.7370    0.9360   -0.0110 C   0  0  0  0  0  0  0  0  0  0  0  0
    6.0810    1.2180    0.0400 C   0  0  0  0  0  0  0  0  0  0  0  0
    6.9720    0.1920   -0.0500 C   0  0  0  0  0  0  0  0  0  0  0  0
    6.5390   -1.1040   -0.1910 C   0  0  0  0  0  0  0  0  0  0  0  0
    5.1830   -1.3480   -0.2380 C   0  0  0  0  0  0  0  0  0  0  0  0
    4.2420   -0.3350   -0.1500 C   0  0  0  0  0  0  0  0  0  0  0  0
    2.8490   -0.3170   -0.1720 N   0  0  0  0  0  0  0  0  0  0  0  0
    1.9200   -1.2270   -0.2810 C   0  0  0  0  0  0  0  0  0  0  0  0
    2.1490   -2.5170   -0.4090 O   0  0  0  0  0  0  0  0  0  0  0  0
  1  2  1  0
  2  3  2  3
  2  9  1  0
  3  4  1  0
  4  5  2  3
  5  6  1  0
  5  7  1  0
  7  8  1  0
  9 10  2  3
 10 11  1  0
 10 21  1  0
 11 12  1  0
 12 13  2  0
 12 20  1  0
 13 14  1  0
 14 15  2  0
 14 19  1  0
 15 16  1  0
 16 17  2  0
 17 18  1  0
 18 19  2  0
 19 20  1  0
 20 21  1  0
 21 22  2  0
M  CHG  1   8   1
M  END
