
     RDKit          3D

 21 23  0  0  0  0  0  0  0  0999 V2000
   -5.6220    0.4160   -1.0730 C   0  0  0  0  0  0  0  0  0  0  0  0
   -5.4230    0.6810    0.4150 C   0  0  0  0  0  0  0  0  0  0  0  0
   -3.9720    0.5340    0.7020 C   0  0  0  0  0  0  0  0  0  0  0  0
   -3.1050    1.6130    0.5970 C   0  0  0  0  0  0  0  0  0  0  0  0
   -1.7920    1.4890    0.8510 N   0  0  0  0  0  0  0  0  0  0  0  0
   -1.2530    0.3190    1.2180 C   0  0  0  0  0  0  0  0  0  0  0  0
    0.1410    0.1330    1.4770 C   0  0  0  0  0  0  0  0  0  0  0  0
    1.1290    0.5360    0.7000 C   0  0  0  0  0  0  0  0  0  0  0  0
    0.7780    1.2500   -0.5730 C   0  0  0  0  0  0  0  0  0  0  0  0
    1.6570    0.3920   -1.9570 S   0  0  0  0  0  0  0  0  0  0  0  0
    3.2870    0.0470   -1.3100 C   0  0  0  0  0  0  0  0  0  0  0  0
    4.3000   -0.2270   -2.2120 C   0  0  0  0  0  0  0  0  0  0  0  0
    5.5860   -0.4730   -1.7790 C   0  0  0  0  0  0  0  0  0  0  0  0
    6.5790   -0.7450   -2.7000 O   0  0  0  0  0  0  0  0  0  0  0  0
    5.8550   -0.4410   -0.4210 C   0  0  0  0  0  0  0  0  0  0  0  0
    4.8320   -0.1670    0.4500 C   0  0  0  0  0  0  0  0  0  0  0  0
    3.5170    0.0850    0.0430 C   0  0  0  0  0  0  0  0  0  0  0  0
    2.4960    0.3190    1.0090 N   0  0  0  0  0  0  0  0  0  0  0  0
   -2.1080   -0.7530    1.3240 C   0  0  0  0  0  0  0  0  0  0  0  0
   -1.5560   -2.0210    1.7100 N   0  0  0  0  0  0  0  0  0  0  0  0
   -3.4300   -0.6440    1.0720 N   0  0  0  0  0  0  0  0  0  0  0  0
  1  2  1  0
  2  3  1  0
  3  4  2  0
  3 21  1  0
  4  5  1  0
  5  6  2  0
  6  7  1  0
  6 19  1  0
  7  8  2  3
  8  9  1  0
  8 18  1  0
  9 10  1  0
 10 11  1  0
 11 12  2  0
 11 17  1  0
 12 13  1  0
 13 14  1  0
 13 15  2  0
 15 16  1  0
 16 17  2  0
 17 18  1  0
 19 20  1  0
 19 21  2  0
M  CHG  1  21   1
M  END
