
     RDKit          3D

 22 25  0  0  0  0  0  0  0  0999 V2000
   -5.8880   -1.7200   -1.5560 N   0  0  0  0  0  0  0  0  0  0  0  0
   -4.6570   -1.4670   -0.8300 C   0  0  0  0  0  0  0  0  0  0  0  0
   -3.8030   -2.3510   -0.9530 O   0  0  0  0  0  0  0  0  0  0  0  0
   -4.4920   -0.2700   -0.0470 C   0  0  0  0  0  0  0  0  0  0  0  0
   -5.5970    0.4110    0.4060 N   0  0  0  0  0  0  0  0  0  0  0  0
   -5.2010    1.4350    1.1340 C   0  0  0  0  0  0  0  0  0  0  0  0
   -3.8770    1.4370    1.1630 N   0  0  0  0  0  0  0  0  0  0  0  0
   -3.4070    0.3600    0.4120 C   0  0  0  0  0  0  0  0  0  0  0  0
   -1.9890    0.1770    0.1310 C   0  0  0  0  0  0  0  0  0  0  0  0
   -1.4760   -0.4130   -0.9070 C   0  0  0  0  0  0  0  0  0  0  0  0
   -0.0700   -0.6150   -1.2050 C   0  0  0  0  0  0  0  0  0  0  0  0
    0.9340   -0.2180   -0.4410 C   0  0  0  0  0  0  0  0  0  0  0  0
    2.2810   -0.4800   -0.8510 N   0  0  0  0  0  0  0  0  0  0  0  0
    3.3510   -0.0600   -0.0390 C   0  0  0  0  0  0  0  0  0  0  0  0
    4.7280   -0.3630   -0.5210 C   0  0  2  0  0  0  0  0  0  0  0  0
    5.4280   -1.4150    0.3010 C   0  0  0  0  0  0  0  0  0  0  0  0
    5.9280    0.0280    0.2440 C   0  0  0  0  0  0  0  0  0  0  0  0
    3.1630    0.5730    1.0980 C   0  0  0  0  0  0  0  0  0  0  0  0
    1.7910    0.8430    1.5210 C   0  0  0  0  0  0  0  0  0  0  0  0
    1.6460    1.5090    2.7190 F   0  0  0  0  0  0  0  0  0  0  0  0
    0.7680    0.4750    0.8060 C   0  0  0  0  0  0  0  0  0  0  0  0
   -0.8570    0.8310    1.3810 S   0  0  0  0  0  0  0  0  0  0  0  0
  1  2  1  0
  2  3  2  0
  2  4  1  0
  4  5  1  0
  4  8  2  0
  5  6  2  0
  6  7  1  0
  7  8  1  0
  8  9  1  0
  9 10  2  0
  9 22  1  0
 10 11  1  0
 11 12  2  0
 12 13  1  0
 12 21  1  0
 13 14  1  0
 15 14  1  1
 14 18  2  0
 15 16  1  0
 15 17  1  0
 16 17  1  0
 18 19  1  0
 19 20  1  0
 19 21  2  0
 21 22  1  0
M  END
