
     RDKit          3D

 22 23  0  0  0  0  0  0  0  0999 V2000
    3.6000   -0.1340   -2.1760 C   0  0  0  0  0  0  0  0  0  0  0  0
    3.2920   -0.7840   -0.9660 O   0  0  0  0  0  0  0  0  0  0  0  0
    2.7430   -0.0450    0.1090 C   0  0  0  0  0  0  0  0  0  0  0  0
    2.5410    1.2990   -0.1120 C   0  0  0  0  0  0  0  0  0  0  0  0
    1.6510    2.1460    0.5230 C   0  0  0  0  0  0  0  0  0  0  0  0
    0.2880    2.1330    0.4180 C   0  0  0  0  0  0  0  0  0  0  0  0
   -0.6070    1.5860    1.2130 N   0  0  0  0  0  0  0  0  0  0  0  0
   -1.7500    0.9300    0.9740 C   0  0  0  0  0  0  0  0  0  0  0  0
   -2.3480    0.5760    2.2770 N   0  0  0  0  0  0  0  0  0  0  0  0
   -2.1430    0.7410   -0.3310 C   0  0  0  0  0  0  0  0  0  0  0  0
   -2.4240   -0.4260   -1.0450 C   0  0  0  0  0  0  0  0  0  0  0  0
   -3.7190   -1.1640   -1.3620 C   0  0  0  0  0  0  0  0  0  0  0  0
   -4.4490   -0.6670   -2.3950 F   0  0  0  0  0  0  0  0  0  0  0  0
   -1.3140   -1.0790   -1.6720 C   0  0  0  0  0  0  0  0  0  0  0  0
   -0.1760   -1.5220   -1.1040 N   0  0  0  0  0  0  0  0  0  0  0  0
    0.0510   -2.2080    0.0300 C   0  0  0  0  0  0  0  0  0  0  0  0
    0.1980   -1.7330    1.3210 C   0  0  0  0  0  0  0  0  0  0  0  0
    1.2780   -1.0270    1.8690 C   0  0  0  0  0  0  0  0  0  0  0  0
    1.1580   -0.5110    3.2350 N   0  0  0  0  0  0  0  0  0  0  0  0
    2.4830   -0.7740    1.2500 C   0  0  0  0  0  0  0  0  0  0  0  0
   -2.1580    2.1120   -1.0570 C   0  0  0  0  0  0  0  0  0  0  0  0
   -0.5870    2.9780   -0.9610 S   0  0  0  0  0  0  0  0  0  0  0  0
  1  2  1  0
  2  3  1  0
  3  4  1  0
  3 20  2  0
  4  5  2  0
  5  6  1  0
  6  7  2  0
  6 22  1  0
  7  8  1  0
  8  9  1  0
  8 10  2  0
 10 11  1  0
 10 21  1  0
 11 12  1  0
 11 14  2  0
 12 13  1  0
 14 15  1  0
 15 16  2  0
 16 17  1  0
 17 18  2  0
 18 19  1  0
 18 20  1  0
 21 22  1  0
M  CHG  1  15   1
M  END
