
     RDKit          3D

 25 28  0  0  0  0  0  0  0  0999 V2000
    0.3290    1.1900   -0.8540 O   0  0  0  0  0  0  0  0  0  0  0  0
    0.6630    0.8680    0.3030 C   0  0  0  0  0  0  0  0  0  0  0  0
    2.0400    0.7620    0.6130 N   0  0  0  0  0  0  0  0  0  0  0  0
    2.9750    0.9610   -0.4810 C   0  0  0  0  0  0  0  0  0  0  0  0
    4.3390    0.5270   -0.1190 C   0  0  0  0  0  0  0  0  0  0  0  0
    5.2880    1.3240    0.4190 C   0  0  0  0  0  0  0  0  0  0  0  0
    6.6280    0.9000    0.5150 C   0  0  0  0  0  0  0  0  0  0  0  0
    7.0210   -0.3630    0.0540 C   0  0  0  0  0  0  0  0  0  0  0  0
    8.2740   -0.7950    0.1530 F   0  0  0  0  0  0  0  0  0  0  0  0
    6.0270   -1.1670   -0.4900 C   0  0  0  0  0  0  0  0  0  0  0  0
    6.0010   -2.4740   -0.9500 C   0  0  0  0  0  0  0  0  0  0  0  0
    4.7510   -2.8130   -1.2900 N   0  0  0  0  0  0  0  0  0  0  0  0
    3.9170   -1.7280   -1.0580 C   0  0  0  0  0  0  0  0  0  0  0  0
    4.7440   -0.7390   -0.5740 C   0  0  0  0  0  0  0  0  0  0  0  0
   -0.3540    0.6090    1.2490 N   0  0  0  0  0  0  0  0  0  0  0  0
   -1.7530    0.6740    0.9650 C   0  0  0  0  0  0  0  0  0  0  0  0
   -2.5160    1.6910    1.5620 C   0  0  0  0  0  0  0  0  0  0  0  0
   -3.8680    1.7560    1.3070 C   0  0  0  0  0  0  0  0  0  0  0  0
   -4.5310    0.8780    0.4920 C   0  0  0  0  0  0  0  0  0  0  0  0
   -3.7530   -0.1030   -0.0760 C   0  0  0  0  0  0  0  0  0  0  0  0
   -2.4070   -0.2110    0.1460 C   0  0  0  0  0  0  0  0  0  0  0  0
   -4.4630   -1.0730   -0.9690 C   0  0  0  0  0  0  0  0  0  0  0  0
   -5.7990   -1.3440   -0.3040 C   0  0  0  0  0  0  0  0  0  0  0  0
   -6.5610   -0.0340   -0.3600 C   0  0  0  0  0  0  0  0  0  0  0  0
   -5.9260    1.0500    0.2900 N   0  0  0  0  0  0  0  0  0  0  0  0
  1  2  2  0
  2  3  1  0
  2 15  1  0
  3  4  1  0
  4  5  1  0
  5  6  2  0
  5 14  1  0
  6  7  1  0
  7  8  2  0
  8  9  1  0
  8 10  1  0
 10 11  2  0
 10 14  1  0
 11 12  1  0
 12 13  1  0
 13 14  2  0
 15 16  1  0
 16 17  2  0
 16 21  1  0
 17 18  1  0
 18 19  2  0
 19 20  1  0
 19 25  1  0
 20 21  2  0
 20 22  1  0
 22 23  1  0
 23 24  1  0
 24 25  1  0
M  CHG  1  25   1
M  END
