
     RDKit          3D

 25 28  0  0  0  0  0  0  0  0999 V2000
    7.4670    1.6430   -0.0920 C   0  0  0  0  0  0  0  0  0  0  0  0
    6.0840    1.0630   -0.0700 C   0  0  0  0  0  0  0  0  0  0  0  0
    5.6900    0.2900   -1.1170 C   0  0  0  0  0  0  0  0  0  0  0  0
    4.4040   -0.2590   -1.1150 C   0  0  0  0  0  0  0  0  0  0  0  0
    3.5210   -0.0470   -0.0920 C   0  0  0  0  0  0  0  0  0  0  0  0
    2.2220   -0.5790   -0.0000 N   0  0  0  0  0  0  0  0  0  0  0  0
    1.7470   -1.6660   -0.7290 C   0  0  0  0  0  0  0  0  0  0  0  0
    2.5600   -2.2420   -1.5280 O   0  0  0  0  0  0  0  0  0  0  0  0
    0.4100   -2.2390   -0.6840 C   0  0  0  0  0  0  0  0  0  0  0  0
    0.1360   -3.5260   -1.0510 N   0  0  0  0  0  0  0  0  0  0  0  0
   -1.1430   -3.7660   -0.9420 N   0  0  0  0  0  0  0  0  0  0  0  0
   -1.7490   -2.6540   -0.5030 C   0  0  0  0  0  0  0  0  0  0  0  0
   -3.0780   -2.4170   -0.2490 C   0  0  0  0  0  0  0  0  0  0  0  0
   -3.4430   -1.1560    0.1870 C   0  0  0  0  0  0  0  0  0  0  0  0
   -2.4980   -0.1700    0.3580 C   0  0  0  0  0  0  0  0  0  0  0  0
   -1.1520   -0.4280    0.0950 C   0  0  0  0  0  0  0  0  0  0  0  0
   -0.7690   -1.6730   -0.3350 C   0  0  0  0  0  0  0  0  0  0  0  0
   -2.9440    1.1470    0.8200 C   0  0  0  0  0  0  0  0  0  0  0  0
   -4.2250    1.6090    0.2230 C   0  0  2  0  0  0  0  0  0  0  0  0
   -4.8150    2.5780    1.1630 N   0  0  0  0  0  0  0  0  0  0  0  0
   -5.2380    0.5570   -0.0250 C   0  0  0  0  0  0  0  0  0  0  0  0
   -4.8510   -0.8060    0.4870 C   0  0  0  0  0  0  0  0  0  0  0  0
    3.9820    0.7560    0.9570 C   0  0  0  0  0  0  0  0  0  0  0  0
    5.2270    1.2960    0.9680 C   0  0  0  0  0  0  0  0  0  0  0  0
    5.6770    2.0760    1.9850 F   0  0  0  0  0  0  0  0  0  0  0  0
  1  2  1  0
  2  3  2  0
  2 24  1  0
  3  4  1  0
  4  5  2  0
  5  6  1  0
  5 23  1  0
  6  7  1  0
  7  8  2  0
  7  9  1  0
  9 10  2  0
  9 17  1  0
 10 11  1  0
 11 12  1  0
 12 13  2  0
 12 17  1  0
 13 14  1  0
 14 15  2  0
 14 22  1  0
 15 16  1  0
 15 18  1  0
 16 17  2  0
 18 19  1  0
 19 20  1  1
 19 21  1  0
 21 22  1  0
 23 24  2  0
 24 25  1  0
M  CHG  1  20   1
M  END
