
     RDKit          3D

 16 18  0  0  0  0  0  0  0  0999 V2000
    3.4080   -1.3590    0.2780 N   0  0  0  0  0  0  0  0  0  0  0  0
    2.6440   -0.1650    0.1840 C   0  0  0  0  0  0  0  0  0  0  0  0
    3.2180    1.0840    0.2060 C   0  0  0  0  0  0  0  0  0  0  0  0
    2.4050    2.1590    0.1110 C   0  0  0  0  0  0  0  0  0  0  0  0
    1.0060    2.0650   -0.0090 C   0  0  0  0  0  0  0  0  0  0  0  0
    0.4470    0.8170   -0.0300 C   0  0  0  0  0  0  0  0  0  0  0  0
    1.2620   -0.3080    0.0660 C   0  0  0  0  0  0  0  0  0  0  0  0
    0.6830   -1.5620    0.0440 C   0  0  0  0  0  0  0  0  0  0  0  0
   -0.6700   -1.7270   -0.0710 C   0  0  0  0  0  0  0  0  0  0  0  0
   -1.4760   -0.6140   -0.1660 C   0  0  0  0  0  0  0  0  0  0  0  0
   -2.8500   -0.7960   -0.2830 C   0  0  0  0  0  0  0  0  0  0  0  0
   -3.3800   -2.1130   -0.3000 N   0  0  0  0  0  0  0  0  0  0  0  0
   -3.6680    0.2630   -0.3780 N   0  0  0  0  0  0  0  0  0  0  0  0
   -3.1110    1.4800   -0.3560 C   0  0  0  0  0  0  0  0  0  0  0  0
   -1.7600    1.7030   -0.2430 C   0  0  0  0  0  0  0  0  0  0  0  0
   -0.9100    0.6470   -0.1450 C   0  0  0  0  0  0  0  0  0  0  0  0
  1  2  1  0
  2  3  2  0
  2  7  1  0
  3  4  1  0
  4  5  2  0
  5  6  1  0
  6  7  2  0
  6 16  1  0
  7  8  1  0
  8  9  2  0
  9 10  1  0
 10 11  2  0
 10 16  1  0
 11 12  1  0
 11 13  1  0
 13 14  2  0
 14 15  1  0
 15 16  2  0
M  END
