
     RDKit          3D

 25 27  0  0  0  0  0  0  0  0999 V2000
   -6.3390    1.8150   -1.0660 C   0  0  0  0  0  0  0  0  0  0  0  0
   -6.9080    1.0400    0.1010 C   0  0  0  0  0  0  0  0  0  0  0  0
   -5.8660    0.9250    1.1920 C   0  0  0  0  0  0  0  0  0  0  0  0
   -4.6770    0.2140    0.6530 C   0  0  0  0  0  0  0  0  0  0  0  0
   -3.5140   -0.0960    1.3150 C   0  0  0  0  0  0  0  0  0  0  0  0
   -2.6330   -0.7730    0.4530 C   0  0  0  0  0  0  0  0  0  0  0  0
   -1.3120   -1.2640    0.7920 C   0  0  0  0  0  0  0  0  0  0  0  0
   -0.9350   -1.0220    2.0150 O   0  0  0  0  0  0  0  0  0  0  0  0
   -0.3990   -1.9530   -0.0060 N   0  0  0  0  0  0  0  0  0  0  0  0
   -0.6870   -2.3200   -1.3710 C   0  0  0  0  0  0  0  0  0  0  0  0
    0.9070   -2.3040    0.5450 C   0  0  0  0  0  0  0  0  0  0  0  0
    1.9780   -1.2870    0.2940 C   0  0  1  0  0  0  0  0  0  0  0  0
    3.2700   -1.8250    0.9340 C   0  0  0  0  0  0  0  0  0  0  0  0
    2.2860   -1.1020   -1.1590 C   0  0  0  0  0  0  0  0  0  0  0  0
    3.6230   -0.4150   -1.3510 C   0  0  0  0  0  0  0  0  0  0  0  0
    3.7370    0.7660   -0.4520 C   0  0  0  0  0  0  0  0  0  0  0  0
    4.6280    1.7370   -0.4880 C   0  0  0  0  0  0  0  0  0  0  0  0
    5.7080    1.8770   -1.4220 N   0  0  0  0  0  0  0  0  0  0  0  0
    4.3450    2.6860    0.5980 C   0  0  0  0  0  0  0  0  0  0  0  0
    3.1570    2.1080    1.2600 C   0  0  0  0  0  0  0  0  0  0  0  0
    2.5420    2.6720    2.3410 F   0  0  0  0  0  0  0  0  0  0  0  0
    2.8100    0.9870    0.6400 C   0  0  0  0  0  0  0  0  0  0  0  0
    1.7090    0.0550    0.9190 C   0  0  0  0  0  0  0  0  0  0  0  0
   -3.3110   -0.8400   -0.6930 N   0  0  0  0  0  0  0  0  0  0  0  0
   -4.5150   -0.2620   -0.5860 N   0  0  0  0  0  0  0  0  0  0  0  0
  1  2  1  0
  2  3  1  0
  3  4  1  0
  4  5  1  0
  4 25  2  0
  5  6  2  0
  6  7  1  0
  6 24  1  0
  7  8  2  0
  7  9  1  0
  9 10  1  0
  9 11  1  0
 11 12  1  0
 12 13  1  1
 12 14  1  0
 12 23  1  0
 14 15  1  0
 15 16  1  0
 16 17  2  0
 16 22  1  0
 17 18  1  0
 17 19  1  0
 19 20  1  0
 20 21  1  0
 20 22  2  0
 22 23  1  0
 24 25  1  0
M  CHG  1  18   1
M  END
