
     RDKit          3D

 16 18  0  0  0  0  0  0  0  0999 V2000
    2.7170    4.5480   -0.9430 N   0  0  0  0  0  0  0  0  0  0  0  0
    2.3190    3.2180   -0.6350 C   0  0  0  0  0  0  0  0  0  0  0  0
    3.2390    2.2160   -0.3810 C   0  0  0  0  0  0  0  0  0  0  0  0
    2.8920    0.9250   -0.0810 C   0  0  0  0  0  0  0  0  0  0  0  0
    1.5520    0.6160   -0.0330 C   0  0  0  0  0  0  0  0  0  0  0  0
    0.9290   -0.5520    0.2320 N   0  0  0  0  0  0  0  0  0  0  0  0
   -0.3980   -0.3960    0.1700 C   0  0  0  0  0  0  0  0  0  0  0  0
   -1.3770   -1.4810    0.4090 C   0  0  0  0  0  0  0  0  0  0  0  0
   -2.6690   -1.2550    0.3310 C   0  0  0  0  0  0  0  0  0  0  0  0
   -3.7200   -2.2350    0.5440 C   0  0  0  0  0  0  0  0  0  0  0  0
   -3.3400   -3.4590    0.8410 C   0  0  0  0  0  0  0  0  0  0  0  0
   -1.9670   -3.7440    0.9340 N   0  0  0  0  0  0  0  0  0  0  0  0
   -0.8860   -2.8230    0.7360 C   0  0  0  0  0  0  0  0  0  0  0  0
   -0.6250    0.9100   -0.1440 C   0  0  0  0  0  0  0  0  0  0  0  0
    0.5990    1.5740   -0.2780 C   0  0  0  0  0  0  0  0  0  0  0  0
    0.9770    2.8590   -0.5760 C   0  0  0  0  0  0  0  0  0  0  0  0
  1  2  1  0
  2  3  2  0
  2 16  1  0
  3  4  1  0
  4  5  2  0
  5  6  1  0
  5 15  1  0
  6  7  1  0
  7  8  1  0
  7 14  2  0
  8  9  2  0
  8 13  1  0
  9 10  1  0
 10 11  2  0
 11 12  1  0
 12 13  1  0
 14 15  1  0
 15 16  2  0
M  END
