
     RDKit          3D

 16 18  0  0  0  0  0  0  0  0999 V2000
   -2.2340   -2.7790    0.7300 N   0  0  0  0  0  0  0  0  0  0  0  0
   -1.4070   -1.8500    0.4690 C   0  0  0  0  0  0  0  0  0  0  0  0
   -0.0700   -2.1080    0.4790 N   0  0  0  0  0  0  0  0  0  0  0  0
    0.8570   -1.1920    0.2170 C   0  0  0  0  0  0  0  0  0  0  0  0
    2.1740   -1.5490    0.2510 C   0  0  0  0  0  0  0  0  0  0  0  0
    3.1630   -0.6570   -0.0070 C   0  0  0  0  0  0  0  0  0  0  0  0
    2.8160    0.6600   -0.3150 C   0  0  0  0  0  0  0  0  0  0  0  0
    3.9070    1.5380   -0.5750 N   0  0  0  0  0  0  0  0  0  0  0  0
    1.4990    1.0550   -0.3590 C   0  0  0  0  0  0  0  0  0  0  0  0
    0.5180    0.1360   -0.0950 C   0  0  0  0  0  0  0  0  0  0  0  0
   -0.8160    0.4440   -0.1160 C   0  0  0  0  0  0  0  0  0  0  0  0
   -1.2010    1.7340   -0.4160 C   0  0  0  0  0  0  0  0  0  0  0  0
   -2.5490    2.0330   -0.4350 C   0  0  0  0  0  0  0  0  0  0  0  0
   -3.4680    1.0580   -0.1600 C   0  0  0  0  0  0  0  0  0  0  0  0
   -3.1010   -0.2380    0.1430 C   0  0  0  0  0  0  0  0  0  0  0  0
   -1.7610   -0.5520    0.1660 C   0  0  0  0  0  0  0  0  0  0  0  0
  1  2  2  0
  2  3  1  0
  2 16  1  0
  3  4  1  0
  4  5  2  0
  4 10  1  0
  5  6  1  0
  6  7  2  0
  7  8  1  0
  7  9  1  0
  9 10  2  0
 10 11  1  0
 11 12  2  0
 11 16  1  0
 12 13  1  0
 13 14  2  0
 14 15  1  0
 15 16  2  0
M  END
