
     RDKit          3D

 27 30  0  0  0  0  0  0  0  0999 V2000
    4.9050   -3.9540   -1.2260 C   0  0  0  0  0  0  0  0  0  0  0  0
    3.9150   -2.8720   -0.9500 C   0  0  0  0  0  0  0  0  0  0  0  0
    4.1980   -1.6010   -0.5130 C   0  0  0  0  0  0  0  0  0  0  0  0
    2.9990   -0.8810   -0.3710 C   0  0  0  0  0  0  0  0  0  0  0  0
    2.9380    0.4630    0.0680 N   0  0  0  0  0  0  0  0  0  0  0  0
    1.8000    1.2660    0.2410 C   0  0  0  0  0  0  0  0  0  0  0  0
    0.5260    0.8720   -0.0170 N   0  0  0  0  0  0  0  0  0  0  0  0
   -0.5300    1.6650    0.1530 C   0  0  0  0  0  0  0  0  0  0  0  0
   -1.9160    1.3380   -0.1000 C   0  0  0  0  0  0  0  0  0  0  0  0
   -2.7850    2.2980    0.1480 O   0  0  0  0  0  0  0  0  0  0  0  0
   -2.4300    0.1410   -0.5700 N   0  0  0  0  0  0  0  0  0  0  0  0
   -1.6680   -1.0090   -0.8990 C   0  0  0  0  0  0  0  0  0  0  0  0
   -2.6560   -2.0180   -1.5170 C   0  0  0  0  0  0  0  0  0  0  0  0
   -3.7010   -2.3430   -0.5960 N   0  0  0  0  0  0  0  0  0  0  0  0
   -4.3040   -1.1990    0.0230 C   0  0  2  0  0  0  0  0  0  0  0  0
   -5.7990   -1.3470    0.0650 C   0  0  0  0  0  0  0  0  0  0  0  0
   -3.8880    0.0210   -0.7510 C   0  0  0  0  0  0  0  0  0  0  0  0
   -0.3130    2.9470    0.6110 N   0  0  0  0  0  0  0  0  0  0  0  0
    0.8930    3.4120    0.8870 C   0  0  0  0  0  0  0  0  0  0  0  0
    1.0580    4.7200    1.3500 C   0  0  0  0  0  0  0  0  0  0  0  0
    2.3070    5.1950    1.6340 C   0  0  0  0  0  0  0  0  0  0  0  0
    3.4050    4.3890    1.4650 C   0  0  0  0  0  0  0  0  0  0  0  0
    5.0120    4.9840    1.8240 Cl  0  0  0  0  0  0  0  0  0  0  0  0
    3.2200    3.0850    1.0000 C   0  0  0  0  0  0  0  0  0  0  0  0
    1.9860    2.5750    0.7060 C   0  0  0  0  0  0  0  0  0  0  0  0
    2.0630   -1.7440   -0.7250 N   0  0  0  0  0  0  0  0  0  0  0  0
    2.5830   -2.9260   -1.0700 N   0  0  0  0  0  0  0  0  0  0  0  0
  1  2  1  0
  2  3  1  0
  2 27  2  0
  3  4  2  0
  4  5  1  0
  4 26  1  0
  5  6  1  0
  6  7  2  0
  6 25  1  0
  7  8  1  0
  8  9  1  0
  8 18  2  0
  9 10  2  0
  9 11  1  0
 11 12  1  0
 11 17  1  0
 12 13  1  0
 13 14  1  0
 14 15  1  0
 15 16  1  6
 15 17  1  0
 18 19  1  0
 19 20  2  0
 19 25  1  0
 20 21  1  0
 21 22  2  0
 22 23  1  0
 22 24  1  0
 24 25  2  0
 26 27  1  0
M  CHG  1  14   1
M  END
