
     RDKit          3D

 16 18  0  0  0  0  0  0  0  0999 V2000
    3.9920    0.1830    0.5160 C   0  0  0  0  0  0  0  0  0  0  0  0
    2.7160   -0.4370    0.0980 C   0  0  0  0  0  0  0  0  0  0  0  0
    2.5960   -1.6850   -0.4770 C   0  0  0  0  0  0  0  0  0  0  0  0
    1.2780   -1.9830   -0.7550 C   0  0  0  0  0  0  0  0  0  0  0  0
    0.5810   -0.8500   -0.3200 C   0  0  0  0  0  0  0  0  0  0  0  0
   -0.7830   -0.6170   -0.3630 C   0  0  0  0  0  0  0  0  0  0  0  0
   -1.6890   -1.5240   -0.8710 C   0  0  0  0  0  0  0  0  0  0  0  0
   -3.0600   -1.2440   -0.8940 C   0  0  0  0  0  0  0  0  0  0  0  0
   -3.5150   -0.0450   -0.4030 C   0  0  0  0  0  0  0  0  0  0  0  0
   -4.9130    0.2940   -0.4020 N   0  0  0  0  0  0  0  0  0  0  0  0
   -2.5940    0.8520    0.1010 C   0  0  0  0  0  0  0  0  0  0  0  0
   -1.2330    0.5930    0.1320 C   0  0  0  0  0  0  0  0  0  0  0  0
   -0.3110    1.4890    0.6360 C   0  0  0  0  0  0  0  0  0  0  0  0
    1.0450    1.2400    0.6720 C   0  0  0  0  0  0  0  0  0  0  0  0
    1.9710    2.1760    1.1950 N   0  0  0  0  0  0  0  0  0  0  0  0
    1.4610    0.0410    0.1770 N   0  0  0  0  0  0  0  0  0  0  0  0
  1  2  1  0
  2  3  2  0
  2 16  1  0
  3  4  1  0
  4  5  2  0
  5  6  1  0
  5 16  1  0
  6  7  2  0
  6 12  1  0
  7  8  1  0
  8  9  2  0
  9 10  1  0
  9 11  1  0
 11 12  2  0
 12 13  1  0
 13 14  2  0
 14 15  1  0
 14 16  1  0
M  END
