
     RDKit          3D

 29 32  0  0  0  0  0  0  0  0999 V2000
   -0.2190    0.6560   -1.6520 C   0  0  0  0  0  0  0  0  0  0  0  0
   -0.9120   -0.2340   -0.7660 O   0  0  0  0  0  0  0  0  0  0  0  0
   -2.0400    0.1990   -0.1040 C   0  0  0  0  0  0  0  0  0  0  0  0
   -1.9310    0.7620    1.1380 C   0  0  0  0  0  0  0  0  0  0  0  0
   -0.6230    0.9240    1.8350 C   0  0  0  0  0  0  0  0  0  0  0  0
   -0.5980    1.5730    3.1110 C   0  0  0  0  0  0  0  0  0  0  0  0
    1.1790    1.4930    3.4610 S   0  0  0  0  0  0  0  0  0  0  0  0
    1.6310    0.6060    1.8550 C   0  0  0  0  0  0  0  0  0  0  0  0
    2.9910    0.3090    1.6630 N   0  0  0  0  0  0  0  0  0  0  0  0
    3.4670   -0.3670    0.4980 C   0  0  0  0  0  0  0  0  0  0  0  0
    2.5740   -0.6730   -0.3310 O   0  0  0  0  0  0  0  0  0  0  0  0
    4.8810   -0.6780    0.2870 C   0  0  0  0  0  0  0  0  0  0  0  0
    5.8870   -0.4350    1.0260 N   0  0  0  0  0  0  0  0  0  0  0  0
    7.1280   -0.9090    0.4580 C   0  0  2  0  0  0  0  0  0  0  0  0
    8.1560    0.5180    0.1780 Cl  0  0  0  0  0  0  0  0  0  0  0  0
    6.6880   -1.5150   -0.8230 C   0  0  0  0  0  0  0  0  0  0  0  0
    7.5660   -2.1770   -1.8520 C   0  0  0  0  0  0  0  0  0  0  0  0
    5.3750   -1.3630   -0.8900 C   0  0  0  0  0  0  0  0  0  0  0  0
    0.5110    0.5300    1.3880 N   0  0  0  0  0  0  0  0  0  0  0  0
   -3.0900    1.1740    1.7390 C   0  0  0  0  0  0  0  0  0  0  0  0
   -4.3340    1.0410    1.1430 C   0  0  0  0  0  0  0  0  0  0  0  0
   -4.4130    0.4710   -0.1060 C   0  0  0  0  0  0  0  0  0  0  0  0
   -3.2700    0.0440   -0.7440 C   0  0  0  0  0  0  0  0  0  0  0  0
   -3.3710   -0.5250   -1.9960 O   0  0  0  0  0  0  0  0  0  0  0  0
   -3.5500   -1.9330   -2.0810 C   0  0  0  0  0  0  0  0  0  0  0  0
   -5.6790    0.3580   -0.6650 O   0  0  0  0  0  0  0  0  0  0  0  0
   -6.7780    1.1190   -0.2680 C   0  0  0  0  0  0  0  0  0  0  0  0
   -6.7180    1.6460    1.1240 C   0  0  0  0  0  0  0  0  0  0  0  0
   -5.4770    1.4600    1.7620 O   0  0  0  0  0  0  0  0  0  0  0  0
  1  2  1  0
  2  3  1  0
  3  4  2  0
  3 23  1  0
  4  5  1  0
  4 20  1  0
  5  6  2  0
  5 19  1  0
  6  7  1  0
  7  8  1  0
  8  9  1  0
  8 19  2  0
  9 10  1  0
 10 11  2  0
 10 12  1  0
 12 13  2  0
 12 18  1  0
 13 14  1  0
 14 15  1  6
 14 16  1  0
 16 17  1  0
 16 18  2  0
 20 21  2  0
 21 22  1  0
 21 29  1  0
 22 23  2  0
 22 26  1  0
 23 24  1  0
 24 25  1  0
 26 27  1  0
 27 28  1  0
 28 29  1  0
M  END
