
     RDKit          3D

 29 32  0  0  0  0  0  0  0  0999 V2000
    2.4490   -2.2940    3.0760 N   0  0  0  0  0  0  0  0  0  0  0  0
    1.5890   -1.9190    2.0170 C   0  0  0  0  0  0  0  0  0  0  0  0
    1.3900   -2.8110    1.1240 O   0  0  0  0  0  0  0  0  0  0  0  0
    0.9410   -0.5740    1.9250 C   0  0  2  0  0  0  0  0  0  0  0  0
   -0.0440   -0.5070    3.1000 C   0  0  0  0  0  0  0  0  0  0  0  0
   -1.3350   -0.0030    2.4360 C   0  0  0  0  0  0  0  0  0  0  0  0
   -1.2310   -0.7540    1.1200 C   0  0  1  0  0  0  0  0  0  0  0  0
   -2.2220   -0.2470    0.1400 C   0  0  0  0  0  0  0  0  0  0  0  0
   -2.1900    0.9650   -0.4380 N   0  0  0  0  0  0  0  0  0  0  0  0
   -3.2630    1.0420   -1.2650 C   0  0  0  0  0  0  0  0  0  0  0  0
   -3.9380   -0.1740   -1.1580 C   0  0  0  0  0  0  0  0  0  0  0  0
   -3.2570   -0.8820   -0.3060 O   0  0  0  0  0  0  0  0  0  0  0  0
   -5.1620   -0.3060   -1.9920 C   0  0  2  0  0  0  0  0  0  0  0  0
   -4.8150   -0.4940   -3.3190 O   0  0  0  0  0  0  0  0  0  0  0  0
   -5.9630    0.9670   -1.8250 C   0  0  0  0  0  0  0  0  0  0  0  0
   -5.2500    2.1540   -2.1680 N   0  0  0  0  0  0  0  0  0  0  0  0
   -3.8270    2.0450   -2.1780 C   0  0  0  0  0  0  0  0  0  0  0  0
    0.1360   -0.5550    0.7440 N   0  0  0  0  0  0  0  0  0  0  0  0
    0.5920   -0.3830   -0.5860 C   0  0  0  0  0  0  0  0  0  0  0  0
   -0.2310   -0.3990   -1.5730 O   0  0  0  0  0  0  0  0  0  0  0  0
    1.9960   -0.1780   -0.9790 C   0  0  0  0  0  0  0  0  0  0  0  0
    2.8910   -0.1710    0.1090 O   0  0  0  0  0  0  0  0  0  0  0  0
    4.2610    0.0120   -0.0880 C   0  0  0  0  0  0  0  0  0  0  0  0
    4.7750    0.1920   -1.3720 C   0  0  0  0  0  0  0  0  0  0  0  0
    6.1320    0.3710   -1.5420 C   0  0  0  0  0  0  0  0  0  0  0  0
    7.0180    0.3800   -0.4790 C   0  0  0  0  0  0  0  0  0  0  0  0
    6.4890    0.2040    0.7430 N   0  0  0  0  0  0  0  0  0  0  0  0
    5.1620    0.0250    0.9460 C   0  0  0  0  0  0  0  0  0  0  0  0
    4.6790   -0.1540    2.2670 N   0  0  0  0  0  0  0  0  0  0  0  0
  1  2  1  0
  2  3  2  0
  4  2  1  1
  4  5  1  0
  4 18  1  0
  5  6  1  0
  6  7  1  0
  7  8  1  6
  7 18  1  0
  8  9  2  0
  8 12  1  0
  9 10  1  0
 10 11  2  0
 10 17  1  0
 11 12  1  0
 11 13  1  0
 13 14  1  6
 13 15  1  0
 15 16  1  0
 16 17  1  0
 18 19  1  0
 19 20  2  0
 19 21  1  0
 21 22  1  0
 22 23  1  0
 23 24  2  0
 23 28  1  0
 24 25  1  0
 25 26  2  0
 26 27  1  0
 27 28  2  0
 28 29  1  0
M  CHG  1  16   1
M  END
