
     RDKit          3D

 29 31  0  0  0  0  0  0  0  0999 V2000
    6.2520    2.1950    1.5250 C   0  0  0  0  0  0  0  0  0  0  0  0
    6.6170    1.0370    0.6670 C   0  0  0  0  0  0  0  0  0  0  0  0
    7.8680    0.5590    0.4420 N   0  0  0  0  0  0  0  0  0  0  0  0
    7.7610   -0.3850   -0.4700 O   0  0  0  0  0  0  0  0  0  0  0  0
    6.5320   -0.5540   -0.8340 C   0  0  0  0  0  0  0  0  0  0  0  0
    5.9610   -1.5210   -1.8160 C   0  0  0  0  0  0  0  0  0  0  0  0
    5.7320    0.3630   -0.1120 C   0  0  0  0  0  0  0  0  0  0  0  0
    4.3070    0.3570   -0.0750 C   0  0  2  0  0  0  0  0  0  0  0  0
    3.6440    1.1440   -1.2000 C   0  0  0  0  0  0  0  0  0  0  0  0
    3.5290    0.3030    1.1900 C   0  0  0  0  0  0  0  0  0  0  0  0
    2.0870    0.1950    0.7040 C   0  0  0  0  0  0  0  0  0  0  0  0
    1.3580    1.1110    0.3480 O   0  0  0  0  0  0  0  0  0  0  0  0
    1.5430   -1.1760    0.6230 N   0  0  0  0  0  0  0  0  0  0  0  0
    0.3020   -1.3210    0.0870 N   0  0  0  0  0  0  0  0  0  0  0  0
   -0.8710   -1.3980    0.9940 C   0  0  0  0  0  0  0  0  0  0  0  0
   -0.7000   -1.4510    2.1470 O   0  0  0  0  0  0  0  0  0  0  0  0
   -2.0430   -1.3560    0.1590 N   0  0  0  0  0  0  0  0  0  0  0  0
   -3.1040   -0.8020    1.4260 C   0  0  0  0  0  0  0  0  0  0  0  0
   -2.6410   -0.6850    2.4860 O   0  0  0  0  0  0  0  0  0  0  0  0
   -4.4290   -0.5700    0.9270 C   0  0  2  0  0  0  0  0  0  0  0  0
   -4.9970   -1.6850    0.1190 C   0  0  0  0  0  0  0  0  0  0  0  0
   -6.2870   -1.2790   -0.5720 C   0  0  1  0  0  0  0  0  0  0  0  0
   -7.1550   -2.3560   -0.6590 O   0  0  0  0  0  0  0  0  0  0  0  0
   -6.9020   -0.0740    0.0920 C   0  0  0  0  0  0  0  0  0  0  0  0
   -5.9150    1.0440   -0.1340 C   0  0  0  0  0  0  0  0  0  0  0  0
   -5.9650    2.2490   -0.6480 N   0  0  0  0  0  0  0  0  0  0  0  0
   -4.7790    2.7650   -0.5900 N   0  0  0  0  0  0  0  0  0  0  0  0
   -3.9050    1.8830   -0.0140 C   0  0  0  0  0  0  0  0  0  0  0  0
   -4.6140    0.7700    0.2840 C   0  0  0  0  0  0  0  0  0  0  0  0
  1  2  1  0
  2  3  2  0
  2  7  1  0
  3  4  1  0
  4  5  1  0
  5  6  1  0
  5  7  2  0
  7  8  1  0
  8  9  1  1
  8 10  1  0
 10 11  1  0
 11 12  2  0
 11 13  1  0
 13 14  1  0
 14 15  1  0
 15 16  2  0
 15 17  1  0
 17 18  1  0
 18 19  2  0
 20 18  1  6
 20 21  1  0
 20 29  1  0
 21 22  1  0
 22 23  1  1
 22 24  1  0
 24 25  1  0
 25 26  1  0
 25 29  2  0
 26 27  1  0
 27 28  2  0
 28 29  1  0
M  CHG  1  27   1
M  END
