
     RDKit          3D

 29 32  0  0  0  0  0  0  0  0999 V2000
    2.2390    4.2180    0.3070 O   0  0  0  0  0  0  0  0  0  0  0  0
    1.6380    2.8250    0.4430 S   0  0  1  0  0  0  0  0  0  0  0  0
    1.3510    2.5570    1.9140 O   0  0  0  0  0  0  0  0  0  0  0  0
    0.1800    2.7300   -0.4540 N   0  0  0  0  0  0  0  0  0  0  0  0
   -0.4170    1.4510   -0.2430 C   0  0  0  0  0  0  0  0  0  0  0  0
   -1.7120    1.2570   -0.9990 C   0  0  1  0  0  0  0  0  0  0  0  0
   -2.1570   -0.1520   -0.8270 C   0  0  0  0  0  0  0  0  0  0  0  0
   -3.5750   -0.2780   -0.5690 N   0  0  0  0  0  0  0  0  0  0  0  0
   -3.9960   -1.6400   -0.4390 C   0  0  0  0  0  0  0  0  0  0  0  0
   -5.4420   -1.6670   -0.1800 C   0  0  0  0  0  0  0  0  0  0  0  0
   -6.0200   -2.1790    0.8870 C   0  0  0  0  0  0  0  0  0  0  0  0
   -7.4720   -2.0160    0.7810 C   0  0  0  0  0  0  0  0  0  0  0  0
   -7.6920   -1.3330   -0.4980 C   0  0  0  0  0  0  0  0  0  0  0  0
   -6.5100   -1.1320   -1.0540 C   0  0  0  0  0  0  0  0  0  0  0  0
   -6.2220   -0.3520   -2.5930 Cl  0  0  0  0  0  0  0  0  0  0  0  0
   -4.0110    0.5540    0.5300 C   0  0  0  0  0  0  0  0  0  0  0  0
   -3.3180    1.8910    0.5480 C   0  0  0  0  0  0  0  0  0  0  0  0
   -2.6750    2.1830   -0.6430 O   0  0  0  0  0  0  0  0  0  0  0  0
    2.7750    1.6350   -0.1220 C   0  0  0  0  0  0  0  0  0  0  0  0
    2.7310    0.8170   -1.2200 C   0  0  0  0  0  0  0  0  0  0  0  0
    3.8490    0.1090   -1.2550 O   0  0  0  0  0  0  0  0  0  0  0  0
    4.6300    0.4080   -0.2500 C   0  0  0  0  0  0  0  0  0  0  0  0
    5.9380   -0.1860    0.0110 C   0  0  0  0  0  0  0  0  0  0  0  0
    6.6820    0.1620    1.0490 C   0  0  0  0  0  0  0  0  0  0  0  0
    7.9940   -0.5510    1.1610 C   0  0  0  0  0  0  0  0  0  0  0  0
    7.6410   -2.0310    0.9570 C   0  0  0  0  0  0  0  0  0  0  0  0
    7.0810   -2.2850   -0.2670 O   0  0  0  0  0  0  0  0  0  0  0  0
    6.4910   -1.2190   -0.8950 C   0  0  0  0  0  0  0  0  0  0  0  0
    3.9870    1.3370    0.4460 N   0  0  0  0  0  0  0  0  0  0  0  0
  1  2  2  0
  2  3  2  0
  2  4  1  6
  2 19  1  0
  4  5  1  0
  6  5  1  1
  6  7  1  0
  6 18  1  0
  7  8  1  0
  8  9  1  0
  8 16  1  0
  9 10  1  0
 10 11  2  0
 10 14  1  0
 11 12  1  0
 12 13  1  0
 13 14  2  0
 14 15  1  0
 16 17  1  0
 17 18  1  0
 19 20  2  0
 19 29  1  0
 20 21  1  0
 21 22  1  0
 22 23  1  0
 22 29  2  0
 23 24  2  0
 23 28  1  0
 24 25  1  0
 25 26  1  0
 26 27  1  0
 27 28  1  0
M  END
