
     RDKit          3D

 29 32  0  0  0  0  0  0  0  0999 V2000
    0.7970   -0.1900    3.2450 O   0  0  0  0  0  0  0  0  0  0  0  0
   -0.2520   -0.3730    2.5640 C   0  0  0  0  0  0  0  0  0  0  0  0
   -1.1900   -1.2210    3.0750 C   0  0  0  0  0  0  0  0  0  0  0  0
   -1.2490   -1.9710    4.2480 C   0  0  0  0  0  0  0  0  0  0  0  0
   -2.4500   -2.6560    4.2460 C   0  0  0  0  0  0  0  0  0  0  0  0
   -3.1040   -2.3180    3.0780 C   0  0  0  0  0  0  0  0  0  0  0  0
   -4.6910   -2.9260    2.5890 Cl  0  0  0  0  0  0  0  0  0  0  0  0
   -2.3180   -1.4510    2.3940 N   0  0  0  0  0  0  0  0  0  0  0  0
   -2.4770   -0.8400    1.2450 N   0  0  0  0  0  0  0  0  0  0  0  0
   -1.5600    0.0090    0.7140 C   0  0  0  0  0  0  0  0  0  0  0  0
   -1.8230    0.6530   -0.5970 C   0  0  1  0  0  0  0  0  0  0  0  0
   -1.9890   -0.4350   -1.6120 C   0  0  0  0  0  0  0  0  0  0  0  0
   -3.3690   -0.9910   -1.7070 C   0  0  0  0  0  0  0  0  0  0  0  0
   -4.2730    0.1790   -2.1150 C   0  0  0  0  0  0  0  0  0  0  0  0
   -4.2730    1.1300   -0.9510 C   0  0  0  0  0  0  0  0  0  0  0  0
   -2.9530    1.6300   -0.5400 C   0  0  0  0  0  0  0  0  0  0  0  0
   -0.4180    0.2600    1.3730 N   0  0  0  0  0  0  0  0  0  0  0  0
    0.6220    1.1350    0.9300 C   0  0  0  0  0  0  0  0  0  0  0  0
    1.6480    0.4040    0.0700 C   0  0  0  0  0  0  0  0  0  0  0  0
    2.9000    1.5630   -0.4340 S   0  0  1  0  0  0  0  0  0  0  0  0
    2.2320    2.6560   -1.2460 O   0  0  0  0  0  0  0  0  0  0  0  0
    3.5440    2.1570    0.7760 O   0  0  0  0  0  0  0  0  0  0  0  0
    4.0770    0.7210   -1.4210 C   0  0  0  0  0  0  0  0  0  0  0  0
    4.0020    0.7040   -2.7590 C   0  0  0  0  0  0  0  0  0  0  0  0
    5.1020   -0.0660   -3.3430 C   0  0  0  0  0  0  0  0  0  0  0  0
    5.8410   -0.4620   -2.2420 O   0  0  0  0  0  0  0  0  0  0  0  0
    5.2540   -0.0260   -1.0520 C   0  0  0  0  0  0  0  0  0  0  0  0
    5.7060   -0.2640    0.1730 C   0  0  0  0  0  0  0  0  0  0  0  0
    5.0630    0.2010    1.2900 O   0  0  0  0  0  0  0  0  0  0  0  0
  1  2  2  0
  2  3  1  0
  2 17  1  0
  3  4  2  0
  3  8  1  0
  4  5  1  0
  5  6  2  0
  6  7  1  0
  6  8  1  0
  8  9  1  0
  9 10  2  0
 11 10  1  1
 10 17  1  0
 11 12  1  0
 11 16  1  0
 12 13  1  0
 13 14  1  0
 14 15  1  0
 15 16  1  0
 17 18  1  0
 18 19  1  0
 20 19  1  1
 20 21  2  0
 20 22  2  0
 20 23  1  0
 23 24  2  0
 23 27  1  0
 24 25  1  0
 25 26  1  0
 26 27  1  0
 27 28  2  3
 28 29  1  0
M  END
