
     RDKit          3D

 28 31  0  0  0  0  0  0  0  0999 V2000
   -1.7890   -4.0790   -1.9770 C   0  0  0  0  0  0  0  0  0  0  0  0
   -1.7930   -2.8080   -2.3500 C   0  0  0  0  0  0  0  0  0  0  0  0
   -2.8210   -1.8490   -1.9090 C   0  0  0  0  0  0  0  0  0  0  0  0
   -2.1890   -0.7970   -1.2050 O   0  0  0  0  0  0  0  0  0  0  0  0
   -3.0040    0.2150   -0.7060 C   0  0  0  0  0  0  0  0  0  0  0  0
   -4.3640    0.2100   -0.8790 C   0  0  0  0  0  0  0  0  0  0  0  0
   -5.1850    1.1990   -0.3940 C   0  0  0  0  0  0  0  0  0  0  0  0
   -4.5830    2.2260    0.2920 C   0  0  0  0  0  0  0  0  0  0  0  0
   -3.1850    2.2280    0.4680 C   0  0  0  0  0  0  0  0  0  0  0  0
   -2.3730    1.2410   -0.0170 C   0  0  0  0  0  0  0  0  0  0  0  0
   -0.9850    1.2530    0.1620 N   0  0  0  0  0  0  0  0  0  0  0  0
   -0.1750    2.1880    0.8270 C   0  0  0  0  0  0  0  0  0  0  0  0
   -0.6940    3.1770    1.3610 O   0  0  0  0  0  0  0  0  0  0  0  0
    1.3030    2.0600    0.9320 C   0  0  1  0  0  0  0  0  0  0  0  0
    1.9060    3.1850    1.7060 C   0  0  0  0  0  0  0  0  0  0  0  0
    1.7640    0.4170    1.6170 S   0  0  0  0  0  0  0  0  0  0  0  0
    3.0270    0.0840    0.4000 C   0  0  0  0  0  0  0  0  0  0  0  0
    3.9530   -0.9690    0.4710 N   0  0  0  0  0  0  0  0  0  0  0  0
    5.2780   -1.0220    1.0720 C   0  0  0  0  0  0  0  0  0  0  0  0
    6.0860   -1.9280    0.1810 C   0  0  0  0  0  0  0  0  0  0  0  0
    5.0950   -2.5670   -0.7430 C   0  0  0  0  0  0  0  0  0  0  0  0
    3.7630   -2.3180   -0.0800 C   0  0  0  0  0  0  0  0  0  0  0  0
    2.9170    0.9490   -0.4930 N   0  0  0  0  0  0  0  0  0  0  0  0
    1.9380    1.9160   -0.3980 C   0  0  0  0  0  0  0  0  0  0  0  0
    1.5880    2.6490   -1.3780 O   0  0  0  0  0  0  0  0  0  0  0  0
   -5.5860    3.0930    0.6810 O   0  0  0  0  0  0  0  0  0  0  0  0
   -6.7990    2.3850    0.6160 C   0  0  0  0  0  0  0  0  0  0  0  0
   -6.5520    1.4460   -0.4190 O   0  0  0  0  0  0  0  0  0  0  0  0
  1  2  2  0
  2  3  1  0
  3  4  1  0
  4  5  1  0
  5  6  2  0
  5 10  1  0
  6  7  1  0
  7  8  2  0
  7 28  1  0
  8  9  1  0
  8 26  1  0
  9 10  2  0
 10 11  1  0
 11 12  1  0
 12 13  2  0
 12 14  1  0
 14 15  1  1
 14 16  1  0
 14 24  1  0
 16 17  1  0
 17 18  1  0
 17 23  2  0
 18 19  1  0
 18 22  1  0
 19 20  1  0
 20 21  1  0
 21 22  1  0
 23 24  1  0
 24 25  2  0
 26 27  1  0
 27 28  1  0
M  END
