
     RDKit          3D

 29 32  0  0  0  0  0  0  0  0999 V2000
    3.2400    2.7710    0.0910 C   0  0  0  0  0  0  0  0  0  0  0  0
    3.5090    1.5220    0.8640 C   0  0  0  0  0  0  0  0  0  0  0  0
    4.7390    1.1600    1.3930 C   0  0  0  0  0  0  0  0  0  0  0  0
    5.9520    1.9530    1.2680 C   0  0  0  0  0  0  0  0  0  0  0  0
    7.0490    1.5600    1.7790 O   0  0  0  0  0  0  0  0  0  0  0  0
    5.9510    3.1580    0.5910 O   0  0  0  0  0  0  0  0  0  0  0  0
    4.5520   -0.0180    2.0050 N   0  0  0  0  0  0  0  0  0  0  0  0
    3.2490   -0.4020    1.8750 C   0  0  0  0  0  0  0  0  0  0  0  0
    2.3220   -1.3690    2.1730 C   0  0  0  0  0  0  0  0  0  0  0  0
    1.0840   -0.9850    1.6300 C   0  0  0  0  0  0  0  0  0  0  0  0
   -0.1390   -1.6990    1.6910 C   0  0  0  0  0  0  0  0  0  0  0  0
   -0.0500   -2.8020    2.4120 O   0  0  0  0  0  0  0  0  0  0  0  0
   -1.3860   -1.4800    1.1640 N   0  0  0  0  0  0  0  0  0  0  0  0
   -2.3670   -2.5670    1.6350 C   0  0  0  0  0  0  0  0  0  0  0  0
   -2.2620   -3.7000    0.7250 C   0  0  0  0  0  0  0  0  0  0  0  0
   -1.3390   -3.6890   -0.3430 N   0  0  0  0  0  0  0  0  0  0  0  0
   -2.9820   -4.7440    0.8450 O   0  0  0  0  0  0  0  0  0  0  0  0
   -2.0160   -0.5490    0.3250 C   0  0  1  0  0  0  0  0  0  0  0  0
   -2.0920    0.9040    0.8260 C   0  0  0  0  0  0  0  0  0  0  0  0
   -1.9980    1.3720   -0.5910 C   0  0  2  0  0  0  0  0  0  0  0  0
   -1.0040    2.3940   -0.9610 C   0  0  0  0  0  0  0  0  0  0  0  0
   -3.3280    1.8160   -1.0420 N   0  0  0  0  0  0  0  0  0  0  0  0
   -1.7070   -0.0810   -1.0000 C   0  0  2  0  0  0  0  0  0  0  0  0
   -2.8100   -0.5070   -2.0400 C   0  0  0  0  0  0  0  0  0  0  0  0
   -2.0730   -1.5490   -2.8110 C   0  0  0  0  0  0  0  0  0  0  0  0
   -0.7640   -1.5390   -2.4470 O   0  0  0  0  0  0  0  0  0  0  0  0
   -0.5360   -0.3070   -1.8160 C   0  0  0  0  0  0  0  0  0  0  0  0
    1.3530    0.1780    1.0480 N   0  0  0  0  0  0  0  0  0  0  0  0
    2.6290    0.5470    1.1790 N   0  0  0  0  0  0  0  0  0  0  0  0
  1  2  1  0
  2  3  2  0
  2 29  1  0
  3  4  1  0
  3  7  1  0
  4  5  2  0
  4  6  1  0
  7  8  2  0
  8  9  1  0
  8 29  1  0
  9 10  2  0
 10 11  1  0
 10 28  1  0
 11 12  2  0
 11 13  1  0
 13 14  1  0
 18 13  1  1
 14 15  1  0
 15 16  1  0
 15 17  2  0
 18 19  1  0
 18 23  1  0
 19 20  1  0
 20 21  1  1
 20 22  1  0
 20 23  1  0
 23 24  1  6
 23 27  1  0
 24 25  1  0
 25 26  1  0
 26 27  1  0
 28 29  1  0
M  END
