
     RDKit          3D

 29 32  0  0  0  0  0  0  0  0999 V2000
   -5.5010    3.1530    1.0430 C   0  0  0  0  0  0  0  0  0  0  0  0
   -4.6860    2.6370   -0.1240 C   0  0  2  0  0  0  0  0  0  0  0  0
   -5.4900    2.9330   -1.3950 C   0  0  0  0  0  0  0  0  0  0  0  0
   -4.4960    1.1630   -0.0300 C   0  0  0  0  0  0  0  0  0  0  0  0
   -3.3080    0.4370   -0.0190 C   0  0  0  0  0  0  0  0  0  0  0  0
   -3.6420   -0.8850    0.0820 C   0  0  0  0  0  0  0  0  0  0  0  0
   -2.7450   -1.9750    0.1270 N   0  0  0  0  0  0  0  0  0  0  0  0
   -1.3420   -1.8780    0.0730 C   0  0  0  0  0  0  0  0  0  0  0  0
   -0.7120   -0.6820   -0.0320 N   0  0  0  0  0  0  0  0  0  0  0  0
    0.6300   -0.5430   -0.0880 C   0  0  0  0  0  0  0  0  0  0  0  0
    1.2630    0.7420   -0.2010 C   0  0  0  0  0  0  0  0  0  0  0  0
    0.4340    1.7360   -0.2430 O   0  0  0  0  0  0  0  0  0  0  0  0
    2.5980    1.0600   -0.2700 N   0  0  0  0  0  0  0  0  0  0  0  0
    3.0030    2.4680   -0.3860 C   0  0  0  0  0  0  0  0  0  0  0  0
    3.8790    2.7620    0.7870 C   0  0  0  0  0  0  0  0  0  0  0  0
    5.0190    1.8810    0.8850 N   0  0  0  0  0  0  0  0  0  0  0  0
    4.6940    0.4980    0.8380 C   0  0  2  0  0  0  0  0  0  0  0  0
    5.9770   -0.2630    0.4860 C   0  0  0  0  0  0  0  0  0  0  0  0
    3.6820    0.1370   -0.2400 C   0  0  0  0  0  0  0  0  0  0  0  0
    1.3620   -1.6520   -0.0360 N   0  0  0  0  0  0  0  0  0  0  0  0
    0.8580   -2.8680    0.0660 C   0  0  0  0  0  0  0  0  0  0  0  0
    1.7030   -3.9510    0.1120 C   0  0  0  0  0  0  0  0  0  0  0  0
    1.1350   -5.1930    0.2180 C   0  0  0  0  0  0  0  0  0  0  0  0
   -0.2260   -5.3650    0.2770 C   0  0  0  0  0  0  0  0  0  0  0  0
   -0.9470   -6.9750    0.4140 Cl  0  0  0  0  0  0  0  0  0  0  0  0
   -1.0540   -4.2520    0.2280 C   0  0  0  0  0  0  0  0  0  0  0  0
   -0.5450   -2.9980    0.1230 C   0  0  0  0  0  0  0  0  0  0  0  0
   -4.9700   -0.9610    0.1310 N   0  0  0  0  0  0  0  0  0  0  0  0
   -5.4690    0.2500    0.0650 N   0  0  0  0  0  0  0  0  0  0  0  0
  2  1  1  1
  2  3  1  0
  2  4  1  0
  4  5  1  0
  4 29  2  0
  5  6  2  0
  6  7  1  0
  6 28  1  0
  7  8  1  0
  8  9  2  0
  8 27  1  0
  9 10  1  0
 10 11  1  0
 10 20  2  0
 11 12  2  0
 11 13  1  0
 13 14  1  0
 13 19  1  0
 14 15  1  0
 15 16  1  0
 16 17  1  0
 17 18  1  6
 17 19  1  0
 20 21  1  0
 21 22  2  0
 21 27  1  0
 22 23  1  0
 23 24  2  0
 24 25  1  0
 24 26  1  0
 26 27  2  0
 28 29  1  0
M  CHG  1  16   1
M  END
