
     RDKit          3D

 29 32  0  0  0  0  0  0  0  0999 V2000
    1.8040   -1.5810    0.7970 O   0  0  0  0  0  0  0  0  0  0  0  0
    3.0370   -1.5350    0.7290 C   0  0  0  0  0  0  0  0  0  0  0  0
    3.9060   -2.0150    1.7360 O   0  0  0  0  0  0  0  0  0  0  0  0
    5.1970   -1.4250    1.8620 C   0  0  0  0  0  0  0  0  0  0  0  0
    5.9190   -1.4590    0.5550 C   0  0  0  0  0  0  0  0  0  0  0  0
    5.0550   -0.9100   -0.5140 C   0  0  0  0  0  0  0  0  0  0  0  0
    5.6500   -0.3590   -1.5980 N   0  0  0  0  0  0  0  0  0  0  0  0
    4.9060    0.1360   -2.5940 C   0  0  0  0  0  0  0  0  0  0  0  0
    5.5220    0.6350   -3.5750 O   0  0  0  0  0  0  0  0  0  0  0  0
    3.5260    0.0960   -2.5390 C   0  0  0  0  0  0  0  0  0  0  0  0
    2.8730   -0.4550   -1.4560 C   0  0  0  0  0  0  0  0  0  0  0  0
    1.4730   -0.5330   -1.3260 N   0  0  0  0  0  0  0  0  0  0  0  0
    0.7860    0.4760   -0.8980 C   0  0  0  0  0  0  0  0  0  0  0  0
   -0.6580    0.4020   -0.7610 C   0  0  0  0  0  0  0  0  0  0  0  0
   -1.5090   -0.6430   -1.0280 C   0  0  0  0  0  0  0  0  0  0  0  0
   -2.8030   -0.2930   -0.7610 N   0  0  0  0  0  0  0  0  0  0  0  0
   -4.1300   -1.3810   -0.9790 S   0  0  2  0  0  0  0  0  0  0  0  0
   -3.6930   -2.6220   -1.6900 O   0  0  0  0  0  0  0  0  0  0  0  0
   -5.1330   -0.7010   -1.9050 O   0  0  0  0  0  0  0  0  0  0  0  0
   -4.9870   -1.7450    0.5060 C   0  0  0  0  0  0  0  0  0  0  0  0
   -4.1010   -2.3860    1.5540 C   0  0  0  0  0  0  0  0  0  0  0  0
   -2.7520   -1.3270    1.9890 Cl  0  0  0  0  0  0  0  0  0  0  0  0
   -2.7740    0.9740   -0.3250 C   0  0  0  0  0  0  0  0  0  0  0  0
   -1.4530    1.4330   -0.3140 C   0  0  0  0  0  0  0  0  0  0  0  0
   -1.2690    2.8310    0.1510 C   0  0  0  0  0  0  0  0  0  0  0  0
   -2.0650    2.9610    1.4350 C   0  0  0  0  0  0  0  0  0  0  0  0
   -3.5200    2.8010    1.1810 C   0  0  0  0  0  0  0  0  0  0  0  0
   -3.8910    1.8430    0.0950 C   0  0  0  0  0  0  0  0  0  0  0  0
    3.6910   -0.9630   -0.4320 C   0  0  0  0  0  0  0  0  0  0  0  0
  1  2  2  0
  2  3  1  0
  2 29  1  0
  3  4  1  0
  4  5  1  0
  5  6  1  0
  6  7  1  0
  6 29  2  0
  7  8  1  0
  8  9  2  0
  8 10  1  0
 10 11  2  0
 11 12  1  0
 11 29  1  0
 12 13  2  3
 13 14  1  0
 14 15  2  0
 14 24  1  0
 15 16  1  0
 16 17  1  0
 16 23  1  0
 17 18  2  0
 17 19  2  0
 17 20  1  1
 20 21  1  0
 21 22  1  0
 23 24  2  0
 23 28  1  0
 24 25  1  0
 25 26  1  0
 26 27  1  0
 27 28  1  0
M  END
