
     RDKit          3D

 29 32  0  0  0  0  0  0  0  0999 V2000
    6.2000    1.8170    0.9440 C   0  0  0  0  0  0  0  0  0  0  0  0
    6.7710    0.4680    0.6070 C   0  0  0  0  0  0  0  0  0  0  0  0
    7.8760   -0.0170    1.1540 O   0  0  0  0  0  0  0  0  0  0  0  0
    8.1540   -1.2030    0.6880 C   0  0  0  0  0  0  0  0  0  0  0  0
    7.1840   -1.5280   -0.2200 C   0  0  0  0  0  0  0  0  0  0  0  0
    7.0130   -3.0010   -1.1820 Cl  0  0  0  0  0  0  0  0  0  0  0  0
    6.2960   -0.4600   -0.2730 C   0  0  0  0  0  0  0  0  0  0  0  0
    5.0840   -0.3770   -1.0730 C   0  0  0  0  0  0  0  0  0  0  0  0
    3.8960   -0.0820   -0.6750 C   0  0  0  0  0  0  0  0  0  0  0  0
    2.6470    0.0170   -1.4400 C   0  0  0  0  0  0  0  0  0  0  0  0
    1.5010   -0.3860   -0.6090 C   0  0  0  0  0  0  0  0  0  0  0  0
    1.6760   -0.3120    0.7450 C   0  0  0  0  0  0  0  0  0  0  0  0
    0.7270   -0.6410    1.6230 N   0  0  0  0  0  0  0  0  0  0  0  0
   -0.4850   -1.0770    1.1860 C   0  0  0  0  0  0  0  0  0  0  0  0
   -0.7060   -1.1670   -0.1340 N   0  0  0  0  0  0  0  0  0  0  0  0
   -1.9710   -1.6300   -0.6590 C   0  0  0  0  0  0  0  0  0  0  0  0
   -2.9680   -0.5850   -0.8860 C   0  0  0  0  0  0  0  0  0  0  0  0
   -2.9760    0.2230   -1.8490 O   0  0  0  0  0  0  0  0  0  0  0  0
   -4.0530   -0.4350    0.0530 N   0  0  0  0  0  0  0  0  0  0  0  0
   -5.0790    0.5430   -0.0750 C   0  0  1  0  0  0  0  0  0  0  0  0
   -5.8560    0.4280   -1.3710 C   0  0  0  0  0  0  0  0  0  0  0  0
   -6.1250    0.3120    1.0300 C   0  0  0  0  0  0  0  0  0  0  0  0
   -6.8010    1.6530    1.0880 C   0  0  0  0  0  0  0  0  0  0  0  0
   -5.9070    2.5810    0.4810 O   0  0  0  0  0  0  0  0  0  0  0  0
   -4.6880    1.9300    0.1840 C   0  0  0  0  0  0  0  0  0  0  0  0
   -3.5840    2.5270    0.1780 O   0  0  0  0  0  0  0  0  0  0  0  0
    0.2330   -0.8410   -1.0250 C   0  0  0  0  0  0  0  0  0  0  0  0
   -0.0090   -0.9380   -2.2620 O   0  0  0  0  0  0  0  0  0  0  0  0
    3.3560    0.2650    0.9920 S   0  0  0  0  0  0  0  0  0  0  0  0
  1  2  1  0
  2  3  1  0
  2  7  2  0
  3  4  1  0
  4  5  2  0
  5  6  1  0
  5  7  1  0
  7  8  1  0
  8  9  2  3
  9 10  1  0
  9 29  1  0
 10 11  1  0
 11 12  2  0
 11 27  1  0
 12 13  1  0
 12 29  1  0
 13 14  2  0
 14 15  1  0
 15 16  1  0
 15 27  1  0
 16 17  1  0
 17 18  2  0
 17 19  1  0
 19 20  1  0
 20 21  1  6
 20 22  1  0
 20 25  1  0
 22 23  1  0
 23 24  1  0
 24 25  1  0
 25 26  2  0
 27 28  2  0
M  END
