
     RDKit          3D

 23 25  0  0  0  0  0  0  0  0999 V2000
   -2.2260   -3.3240   -1.6690 C   0  0  0  0  0  0  0  0  0  0  0  0
   -2.4700   -1.9880   -1.1040 C   0  0  0  0  0  0  0  0  0  0  0  0
   -3.6890   -1.4460   -1.1800 N   0  0  0  0  0  0  0  0  0  0  0  0
   -3.9700   -0.2090   -0.6720 C   0  0  0  0  0  0  0  0  0  0  0  0
   -5.1410    0.2360   -0.7800 O   0  0  0  0  0  0  0  0  0  0  0  0
   -3.0140    0.5420   -0.0570 C   0  0  0  0  0  0  0  0  0  0  0  0
   -3.2050    1.8580    0.5130 C   0  0  0  0  0  0  0  0  0  0  0  0
   -4.3240    2.5440    0.5320 C   0  0  0  0  0  0  0  0  0  0  0  0
   -4.3290    3.8620    1.1540 C   0  0  0  0  0  0  0  0  0  0  0  0
   -3.2830    4.3030    1.6470 O   0  0  0  0  0  0  0  0  0  0  0  0
   -1.7380   -0.0460    0.0120 C   0  0  0  0  0  0  0  0  0  0  0  0
   -1.4430   -1.2780   -0.4890 C   0  0  0  0  0  0  0  0  0  0  0  0
   -0.0460   -1.6100   -0.2660 C   0  0  0  0  0  0  0  0  0  0  0  0
    0.5610   -2.6600   -0.5970 O   0  0  0  0  0  0  0  0  0  0  0  0
    0.5640   -0.5260    0.4130 N   0  0  0  0  0  0  0  0  0  0  0  0
    1.9490   -0.4180    0.8400 C   0  0  0  0  0  0  0  0  0  0  0  0
    2.7030    0.2190   -0.3160 C   0  0  0  0  0  0  0  0  0  0  0  0
    4.1300    0.3280    0.1310 C   0  0  0  0  0  0  0  0  0  0  0  0
    4.9090    1.3860    0.2770 C   0  0  0  0  0  0  0  0  0  0  0  0
    6.0030    0.4880    0.7170 C   0  0  0  0  0  0  0  0  0  0  0  0
    5.1070   -0.6920    0.5460 C   0  0  0  0  0  0  0  0  0  0  0  0
   -0.4950    0.4440    0.5820 C   0  0  0  0  0  0  0  0  0  0  0  0
   -0.2450    1.5300    1.1630 O   0  0  0  0  0  0  0  0  0  0  0  0
  1  2  1  0
  2  3  1  0
  2 12  2  0
  3  4  1  0
  4  5  2  0
  4  6  1  0
  6  7  1  0
  6 11  2  0
  7  8  2  3
  8  9  1  0
  9 10  2  0
 11 12  1  0
 11 22  1  0
 12 13  1  0
 13 14  2  0
 13 15  1  0
 15 16  1  0
 15 22  1  0
 16 17  1  0
 17 18  1  0
 18 19  2  0
 18 21  1  0
 19 20  1  0
 20 21  1  0
 22 23  2  0
M  END
