
     RDKit          3D

 24 26  0  0  0  0  0  0  0  0999 V2000
   -0.1990    2.5010   -1.5730 C   0  0  0  0  0  0  0  0  0  0  0  0
    0.4690    1.5040   -0.7140 C   0  0  0  0  0  0  0  0  0  0  0  0
   -0.1880    0.5680    0.1440 C   0  0  0  0  0  0  0  0  0  0  0  0
   -1.6230    0.5260    0.2740 C   0  0  0  0  0  0  0  0  0  0  0  0
   -2.3000    1.3040   -0.4950 O   0  0  0  0  0  0  0  0  0  0  0  0
   -2.3810   -0.2520    1.1260 N   0  0  0  0  0  0  0  0  0  0  0  0
   -1.7370   -1.0970    2.0980 C   0  0  0  0  0  0  0  0  0  0  0  0
   -2.6430   -1.4760    3.2470 C   0  0  0  0  0  0  0  0  0  0  0  0
   -3.8560   -1.9610    2.8720 O   0  0  0  0  0  0  0  0  0  0  0  0
   -4.2270   -1.6890    1.5940 C   0  0  0  0  0  0  0  0  0  0  0  0
   -3.8210   -0.3120    1.1170 C   0  0  2  0  0  0  0  0  0  0  0  0
   -4.5030    0.0180   -0.1680 C   0  0  0  0  0  0  0  0  0  0  0  0
   -4.1850   -0.8270   -1.3390 C   0  0  0  0  0  0  0  0  0  0  0  0
   -4.9390   -0.3100   -2.4220 O   0  0  0  0  0  0  0  0  0  0  0  0
    0.8240   -0.0960    0.6940 N   0  0  0  0  0  0  0  0  0  0  0  0
    2.0430    0.3520    0.2500 C   0  0  0  0  0  0  0  0  0  0  0  0
    1.8210    1.3610   -0.6390 C   0  0  0  0  0  0  0  0  0  0  0  0
    2.9770    2.0040   -1.2550 C   0  0  0  0  0  0  0  0  0  0  0  0
    2.8510    3.1940   -1.6230 O   0  0  0  0  0  0  0  0  0  0  0  0
    4.2440    1.2560   -1.4280 C   0  0  0  0  0  0  0  0  0  0  0  0
    4.3370    0.0090   -0.6310 C   0  0  2  0  0  0  0  0  0  0  0  0
    5.7660   -0.0990   -0.0980 C   0  0  0  0  0  0  0  0  0  0  0  0
    4.1160   -1.2300   -1.4860 C   0  0  0  0  0  0  0  0  0  0  0  0
    3.4220   -0.0510    0.5560 C   0  0  0  0  0  0  0  0  0  0  0  0
  1  2  1  0
  2  3  2  0
  2 17  1  0
  3  4  1  0
  3 15  1  0
  4  5  2  0
  4  6  1  0
  6  7  1  0
  6 11  1  0
  7  8  1  0
  8  9  1  0
  9 10  1  0
 10 11  1  0
 11 12  1  6
 12 13  1  0
 13 14  1  0
 15 16  1  0
 16 17  2  0
 16 24  1  0
 17 18  1  0
 18 19  2  0
 18 20  1  0
 20 21  1  0
 21 22  1  1
 21 23  1  0
 21 24  1  0
M  END
