
     RDKit          3D

 24 25  0  0  0  0  0  0  0  0999 V2000
   -5.7700   -3.2560   -0.1520 C   0  0  0  0  0  0  0  0  0  0  0  0
   -4.4900   -2.5580   -0.4680 C   0  0  0  0  0  0  0  0  0  0  0  0
   -4.3910   -1.2430   -0.4240 C   0  0  0  0  0  0  0  0  0  0  0  0
   -5.5930   -0.4600   -0.0450 C   0  0  0  0  0  0  0  0  0  0  0  0
   -5.5950    0.8210    0.3370 C   0  0  0  0  0  0  0  0  0  0  0  0
   -4.5220    1.8030    0.5010 C   0  0  0  0  0  0  0  0  0  0  0  0
   -3.1940    1.2500    0.8980 C   0  0  0  0  0  0  0  0  0  0  0  0
   -2.5700    0.3990   -0.1740 C   0  0  0  0  0  0  0  0  0  0  0  0
   -3.0630   -0.6790   -0.7610 C   0  0  0  0  0  0  0  0  0  0  0  0
   -2.3290   -1.3790   -1.7810 C   0  0  0  0  0  0  0  0  0  0  0  0
   -1.2140   -1.1530   -2.2550 N   0  0  0  0  0  0  0  0  0  0  0  0
   -0.2700   -0.2200   -2.0370 N   0  0  0  0  0  0  0  0  0  0  0  0
    0.8860   -0.5020   -1.2090 C   0  0  0  0  0  0  0  0  0  0  0  0
    0.9750   -1.6610   -0.6990 O   0  0  0  0  0  0  0  0  0  0  0  0
    1.8890    0.5550   -1.0020 C   0  0  1  0  0  0  0  0  0  0  0  0
    1.2680    1.7400   -0.2600 C   0  0  0  0  0  0  0  0  0  0  0  0
    2.9210    0.0680   -0.1710 O   0  0  0  0  0  0  0  0  0  0  0  0
    4.2570    0.1280   -0.5250 C   0  0  0  0  0  0  0  0  0  0  0  0
    4.5790    0.6290   -1.6160 O   0  0  0  0  0  0  0  0  0  0  0  0
    5.3000   -0.4050    0.4000 C   0  0  2  0  0  0  0  0  0  0  0  0
    5.2300    0.2580    1.7330 C   0  0  0  0  0  0  0  0  0  0  0  0
    6.6910    0.4200    2.0990 C   0  0  0  0  0  0  0  0  0  0  0  0
    7.3190    0.5070    0.7150 C   0  0  0  0  0  0  0  0  0  0  0  0
    6.5510   -0.2570   -0.1210 O   0  0  0  0  0  0  0  0  0  0  0  0
  1  2  1  0
  2  3  2  3
  3  4  1  0
  3  9  1  0
  4  5  2  0
  5  6  1  0
  6  7  1  0
  7  8  1  0
  8  9  2  0
  9 10  1  0
 10 11  2  3
 11 12  1  0
 12 13  1  0
 13 14  2  0
 13 15  1  0
 15 16  1  1
 15 17  1  0
 17 18  1  0
 18 19  2  0
 20 18  1  6
 20 21  1  0
 20 24  1  0
 21 22  1  0
 22 23  1  0
 23 24  1  0
M  END
