
     RDKit          3D

 24 26  0  0  0  0  0  0  0  0999 V2000
    2.0990   -3.2390   -1.2720 C   0  0  0  0  0  0  0  0  0  0  0  0
    2.2870   -1.9110   -0.7420 N   0  0  0  0  0  0  0  0  0  0  0  0
    1.1260   -1.1290   -0.4350 C   0  0  0  0  0  0  0  0  0  0  0  0
   -0.1470   -1.6170   -0.6330 C   0  0  0  0  0  0  0  0  0  0  0  0
   -1.2660   -0.8490   -0.3320 C   0  0  0  0  0  0  0  0  0  0  0  0
   -2.5410   -1.3180   -0.5220 C   0  0  0  0  0  0  0  0  0  0  0  0
   -3.6290   -0.5080   -0.2040 C   0  0  0  0  0  0  0  0  0  0  0  0
   -4.9210   -0.9600   -0.3880 O   0  0  0  0  0  0  0  0  0  0  0  0
   -5.2500   -2.2270   -0.8920 C   0  0  0  0  0  0  0  0  0  0  0  0
   -3.4630    0.7710    0.3040 C   0  0  0  0  0  0  0  0  0  0  0  0
   -4.5580    1.5350    0.6030 O   0  0  0  0  0  0  0  0  0  0  0  0
   -4.3710    2.8380    1.1210 C   0  0  0  0  0  0  0  0  0  0  0  0
   -2.1920    1.2320    0.4910 C   0  0  0  0  0  0  0  0  0  0  0  0
   -1.1120    0.4320    0.1770 C   0  0  0  0  0  0  0  0  0  0  0  0
    0.1780    0.8700    0.3550 C   0  0  0  0  0  0  0  0  0  0  0  0
    0.3060    2.0530    0.8250 O   0  0  0  0  0  0  0  0  0  0  0  0
    1.2510    0.1170    0.0600 N   0  0  0  0  0  0  0  0  0  0  0  0
    2.5350    0.6450    0.2740 C   0  0  0  0  0  0  0  0  0  0  0  0
    3.0020    0.8440    1.5570 C   0  0  0  0  0  0  0  0  0  0  0  0
    4.2660    1.3650    1.7760 C   0  0  0  0  0  0  0  0  0  0  0  0
    5.0800    1.6930    0.7060 C   0  0  0  0  0  0  0  0  0  0  0  0
    6.3500    2.2160    0.9370 O   0  0  0  0  0  0  0  0  0  0  0  0
    4.5950    1.4870   -0.5710 C   0  0  0  0  0  0  0  0  0  0  0  0
    3.3350    0.9680   -0.8030 C   0  0  0  0  0  0  0  0  0  0  0  0
  1  2  1  0
  2  3  1  0
  3  4  2  0
  3 17  1  0
  4  5  1  0
  5  6  2  0
  5 14  1  0
  6  7  1  0
  7  8  1  0
  7 10  2  0
  8  9  1  0
 10 11  1  0
 10 13  1  0
 11 12  1  0
 13 14  2  0
 14 15  1  0
 15 16  2  0
 15 17  1  0
 17 18  1  0
 18 19  2  0
 18 24  1  0
 19 20  1  0
 20 21  2  0
 21 22  1  0
 21 23  1  0
 23 24  2  0
M  END
