
     RDKit          3D

 24 26  0  0  0  0  0  0  0  0999 V2000
    6.5950   -0.1370   -0.3050 C   0  0  0  0  0  0  0  0  0  0  0  0
    5.1830   -0.1130   -0.3380 O   0  0  0  0  0  0  0  0  0  0  0  0
    4.5010    1.0260    0.0330 C   0  0  0  0  0  0  0  0  0  0  0  0
    5.1300    2.0370    0.3970 O   0  0  0  0  0  0  0  0  0  0  0  0
    3.0050    1.1100    0.0190 C   0  0  0  0  0  0  0  0  0  0  0  0
    2.4940   -0.2380   -0.4580 C   0  0  0  0  0  0  0  0  0  0  0  0
    1.0570   -0.2800   -0.5130 N   0  0  0  0  0  0  0  0  0  0  0  0
    0.5240    0.1090   -1.7150 C   0  0  0  0  0  0  0  0  0  0  0  0
    1.1710    0.8070   -2.4940 O   0  0  0  0  0  0  0  0  0  0  0  0
   -0.7360   -0.2340   -2.1530 C   0  0  0  0  0  0  0  0  0  0  0  0
   -1.1270   -0.5410   -3.4210 C   0  0  0  0  0  0  0  0  0  0  0  0
   -2.4150   -0.9200   -3.4030 N   0  0  0  0  0  0  0  0  0  0  0  0
   -2.9040   -0.8710   -2.1260 C   0  0  0  0  0  0  0  0  0  0  0  0
   -1.8710   -0.4440   -1.3670 C   0  0  0  0  0  0  0  0  0  0  0  0
   -1.9520   -0.2410    0.0170 C   0  0  0  0  0  0  0  0  0  0  0  0
   -3.2150    0.1120    0.3680 C   0  0  0  0  0  0  0  0  0  0  0  0
   -4.2410    0.4750   -0.5850 C   0  0  0  0  0  0  0  0  0  0  0  0
   -3.4220    0.2320    1.7670 C   0  0  0  0  0  0  0  0  0  0  0  0
   -2.4250    0.0150    2.6860 C   0  0  0  0  0  0  0  0  0  0  0  0
   -2.7220    0.1570    4.1210 C   0  0  0  0  0  0  0  0  0  0  0  0
   -1.1690   -0.3320    2.2560 C   0  0  0  0  0  0  0  0  0  0  0  0
   -0.9180   -0.4600    0.9260 C   0  0  0  0  0  0  0  0  0  0  0  0
    0.4070   -0.6950    0.6190 C   0  0  0  0  0  0  0  0  0  0  0  0
    1.0460   -1.3420    1.4660 O   0  0  0  0  0  0  0  0  0  0  0  0
  1  2  1  0
  2  3  1  0
  3  4  2  0
  3  5  1  0
  5  6  1  0
  6  7  1  0
  7  8  1  0
  7 23  1  0
  8  9  2  0
  8 10  1  0
 10 11  2  0
 10 14  1  0
 11 12  1  0
 12 13  1  0
 13 14  2  0
 14 15  1  0
 15 16  2  0
 15 22  1  0
 16 17  1  0
 16 18  1  0
 18 19  2  0
 19 20  1  0
 19 21  1  0
 21 22  2  0
 22 23  1  0
 23 24  2  0
M  END
