
     RDKit          3D

 24 26  0  0  0  0  0  0  0  0999 V2000
    5.0900    2.6310    0.4190 C   0  0  0  0  0  0  0  0  0  0  0  0
    4.8330    1.1700    0.5990 C   0  0  0  0  0  0  0  0  0  0  0  0
    5.6280    0.4480    1.2100 O   0  0  0  0  0  0  0  0  0  0  0  0
    3.5960    0.6270    0.0190 C   0  0  0  0  0  0  0  0  0  0  0  0
    2.6210    1.2730   -0.6780 C   0  0  0  0  0  0  0  0  0  0  0  0
    1.6320    0.4030   -1.0450 N   0  0  0  0  0  0  0  0  0  0  0  0
    0.4520    0.7860   -1.7840 C   0  0  0  0  0  0  0  0  0  0  0  0
   -0.6090    1.2380   -0.8900 C   0  0  0  0  0  0  0  0  0  0  0  0
   -0.4630    2.4280   -0.4250 O   0  0  0  0  0  0  0  0  0  0  0  0
   -1.7580    0.5460   -0.4800 N   0  0  0  0  0  0  0  0  0  0  0  0
   -2.0460   -0.7810   -0.9330 C   0  0  0  0  0  0  0  0  0  0  0  0
   -3.5680   -0.9320   -0.9060 C   0  0  0  0  0  0  0  0  0  0  0  0
   -3.8880   -1.0940    0.5800 C   0  0  0  0  0  0  0  0  0  0  0  0
   -3.4990    0.1820    1.2490 C   0  0  2  0  0  0  0  0  0  0  0  0
   -4.7770    0.8380    1.6830 C   0  0  0  0  0  0  0  0  0  0  0  0
   -4.9720    1.0780    2.8980 O   0  0  0  0  0  0  0  0  0  0  0  0
   -5.7690    1.1970    0.7850 O   0  0  0  0  0  0  0  0  0  0  0  0
   -2.7220    1.1450    0.4290 C   0  0  0  0  0  0  0  0  0  0  0  0
    2.0030   -0.7930   -0.5700 C   0  0  0  0  0  0  0  0  0  0  0  0
    1.3930   -2.0370   -0.6480 C   0  0  0  0  0  0  0  0  0  0  0  0
    1.9870   -3.1230   -0.0750 C   0  0  0  0  0  0  0  0  0  0  0  0
    3.1870   -3.0560    0.5910 C   0  0  0  0  0  0  0  0  0  0  0  0
    3.7890   -1.8070    0.6630 C   0  0  0  0  0  0  0  0  0  0  0  0
    3.2090   -0.7140    0.0960 C   0  0  0  0  0  0  0  0  0  0  0  0
  1  2  1  0
  2  3  2  0
  2  4  1  0
  4  5  2  0
  4 24  1  0
  5  6  1  0
  6  7  1  0
  6 19  1  0
  7  8  1  0
  8  9  2  0
  8 10  1  0
 10 11  1  0
 10 18  1  0
 11 12  1  0
 12 13  1  0
 13 14  1  0
 14 15  1  6
 14 18  1  0
 15 16  2  0
 15 17  1  0
 19 20  2  0
 19 24  1  0
 20 21  1  0
 21 22  2  0
 22 23  1  0
 23 24  2  0
M  END
