
     RDKit          3D

 24 26  0  0  0  0  0  0  0  0999 V2000
   -2.5710   -4.5960   -1.0830 C   0  0  0  0  0  0  0  0  0  0  0  0
   -1.8800   -3.3730   -0.9680 O   0  0  0  0  0  0  0  0  0  0  0  0
   -2.6190   -2.1680   -0.7480 C   0  0  0  0  0  0  0  0  0  0  0  0
   -3.8330   -2.3150   -0.6770 O   0  0  0  0  0  0  0  0  0  0  0  0
   -1.7970   -0.9940   -0.6470 C   0  0  0  0  0  0  0  0  0  0  0  0
   -0.5090   -1.1280   -0.8100 N   0  0  0  0  0  0  0  0  0  0  0  0
    0.5750   -0.2260   -0.7870 C   0  0  0  0  0  0  0  0  0  0  0  0
    1.9040   -0.7740   -0.5780 C   0  0  0  0  0  0  0  0  0  0  0  0
    2.0820   -2.0240   -0.4210 O   0  0  0  0  0  0  0  0  0  0  0  0
    3.0410    0.0100   -0.5360 O   0  0  0  0  0  0  0  0  0  0  0  0
    4.3280   -0.5670   -0.3280 C   0  0  0  0  0  0  0  0  0  0  0  0
    5.3180    0.5950   -0.3430 C   0  0  1  0  0  0  0  0  0  0  0  0
    5.1110    1.6100    0.6620 C   0  0  0  0  0  0  0  0  0  0  0  0
    6.2310    1.3710    1.2580 C   0  0  0  0  0  0  0  0  0  0  0  0
    6.6050    0.3200    0.3420 C   0  0  0  0  0  0  0  0  0  0  0  0
    0.5080    1.1010   -0.9400 C   0  0  0  0  0  0  0  0  0  0  0  0
   -0.6630    1.9060   -1.1550 N   0  0  0  0  0  0  0  0  0  0  0  0
   -1.9410    1.5720   -0.6290 C   0  0  0  0  0  0  0  0  0  0  0  0
   -2.6770    2.6920   -0.3300 C   0  0  0  0  0  0  0  0  0  0  0  0
   -3.9110    2.5160    0.2500 C   0  0  0  0  0  0  0  0  0  0  0  0
   -4.4150    1.2600    0.5320 C   0  0  0  0  0  0  0  0  0  0  0  0
   -5.7440    1.0700    1.1580 C   0  0  0  0  0  0  0  0  0  0  0  0
   -3.6450    0.1380    0.2170 C   0  0  0  0  0  0  0  0  0  0  0  0
   -2.4290    0.2750   -0.3570 C   0  0  0  0  0  0  0  0  0  0  0  0
  1  2  1  0
  2  3  1  0
  3  4  2  0
  3  5  1  0
  5  6  2  0
  5 24  1  0
  6  7  1  0
  7  8  1  0
  7 16  2  0
  8  9  2  0
  8 10  1  0
 10 11  1  0
 12 11  1  1
 12 13  1  0
 12 15  1  0
 13 14  2  0
 14 15  1  0
 16 17  1  0
 17 18  1  0
 18 19  2  0
 18 24  1  0
 19 20  1  0
 20 21  2  0
 21 22  1  0
 21 23  1  0
 23 24  2  0
M  END
