
     RDKit          3D

 23 24  0  0  0  0  0  0  0  0999 V2000
   -1.0980   -0.7290   -2.3750 C   0  0  0  0  0  0  0  0  0  0  0  0
   -1.1840   -1.0860   -0.9670 O   0  0  0  0  0  0  0  0  0  0  0  0
   -1.8890   -0.1930   -0.1690 C   0  0  0  0  0  0  0  0  0  0  0  0
   -1.2820    0.8100    0.5150 C   0  0  0  0  0  0  0  0  0  0  0  0
    0.1430    1.0130    0.5890 C   0  0  0  0  0  0  0  0  0  0  0  0
    0.6140    2.0350    1.2150 O   0  0  0  0  0  0  0  0  0  0  0  0
    1.0900    0.1600    0.0110 N   0  0  0  0  0  0  0  0  0  0  0  0
    2.5330    0.4450    0.1110 C   0  0  0  0  0  0  0  0  0  0  0  0
    3.3350   -0.5970   -0.5770 C   0  0  0  0  0  0  0  0  0  0  0  0
    4.8190   -0.2840   -0.4610 C   0  0  0  0  0  0  0  0  0  0  0  0
    5.6290   -0.7040    0.5100 C   0  0  0  0  0  0  0  0  0  0  0  0
    6.9260   -0.3640    0.5120 C   0  0  0  0  0  0  0  0  0  0  0  0
    7.0950    0.6460   -0.9670 S   0  0  0  0  0  0  0  0  0  0  0  0
    5.3780    0.5110   -1.4540 C   0  0  0  0  0  0  0  0  0  0  0  0
   -2.0930    1.6850    1.2960 C   0  0  0  0  0  0  0  0  0  0  0  0
   -3.4500    1.5500    1.3820 C   0  0  0  0  0  0  0  0  0  0  0  0
   -4.2580    2.4550    2.1880 C   0  0  0  0  0  0  0  0  0  0  0  0
   -3.7130    3.4130    2.8420 O   0  0  0  0  0  0  0  0  0  0  0  0
   -4.0390    0.5280    0.6850 C   0  0  0  0  0  0  0  0  0  0  0  0
   -5.3900    0.3230    0.7200 O   0  0  0  0  0  0  0  0  0  0  0  0
   -3.2790   -0.3440   -0.0870 C   0  0  0  0  0  0  0  0  0  0  0  0
   -3.8360   -1.3810   -0.8000 O   0  0  0  0  0  0  0  0  0  0  0  0
   -4.0220   -2.6820   -0.2740 C   0  0  0  0  0  0  0  0  0  0  0  0
  1  2  1  0
  2  3  1  0
  3  4  2  0
  3 21  1  0
  4  5  1  0
  4 15  1  0
  5  6  2  0
  5  7  1  0
  7  8  1  0
  8  9  1  0
  9 10  1  0
 10 11  1  0
 10 14  2  0
 11 12  2  0
 12 13  1  0
 13 14  1  0
 15 16  2  0
 16 17  1  0
 16 19  1  0
 17 18  2  0
 19 20  1  0
 19 21  2  0
 21 22  1  0
 22 23  1  0
M  END
