
     RDKit          3D

 23 24  0  0  0  0  0  0  0  0999 V2000
   -5.0360   -1.6250    0.0030 C   0  0  0  0  0  0  0  0  0  0  0  0
   -4.4980   -0.2970   -0.3380 N   0  0  0  0  0  0  0  0  0  0  0  0
   -5.4860    0.6890   -0.6910 C   0  0  0  0  0  0  0  0  0  0  0  0
   -6.2660    1.0170    0.5350 C   0  0  0  0  0  0  0  0  0  0  0  0
   -7.1470    1.8380    0.4730 O   0  0  0  0  0  0  0  0  0  0  0  0
   -3.0970   -0.0630   -0.3020 C   0  0  0  0  0  0  0  0  0  0  0  0
   -2.2300   -1.1010    0.0390 C   0  0  0  0  0  0  0  0  0  0  0  0
   -0.8630   -0.9310    0.0940 C   0  0  0  0  0  0  0  0  0  0  0  0
   -0.2620    0.2730   -0.1850 C   0  0  0  0  0  0  0  0  0  0  0  0
    1.0510    0.5380   -0.1650 O   0  0  0  0  0  0  0  0  0  0  0  0
    2.2360   -0.0200   -0.1970 C   0  0  0  0  0  0  0  0  0  0  0  0
    2.5490   -1.3470   -0.3420 C   0  0  0  0  0  0  0  0  0  0  0  0
    3.8600   -1.8370   -0.3600 C   0  0  0  0  0  0  0  0  0  0  0  0
    4.8960   -0.9410   -0.2250 C   0  0  0  0  0  0  0  0  0  0  0  0
    6.5350   -1.5780   -0.2520 S   0  0  1  0  0  0  0  0  0  0  0  0
    7.5340   -0.5820    0.2090 O   0  0  0  0  0  0  0  0  0  0  0  0
    6.5870   -2.8120    0.6220 O   0  0  0  0  0  0  0  0  0  0  0  0
    4.6310    0.3820   -0.0790 C   0  0  0  0  0  0  0  0  0  0  0  0
    3.3560    0.8310   -0.0650 C   0  0  0  0  0  0  0  0  0  0  0  0
    3.0750    2.2830    0.0970 C   0  0  0  0  0  0  0  0  0  0  0  0
    4.2620    2.9840    0.2140 O   0  0  0  0  0  0  0  0  0  0  0  0
   -1.1520    1.3170   -0.5290 C   0  0  0  0  0  0  0  0  0  0  0  0
   -2.5130    1.1460   -0.5820 C   0  0  0  0  0  0  0  0  0  0  0  0
  1  2  1  0
  2  3  1  0
  2  6  1  0
  3  4  1  0
  4  5  2  0
  6  7  2  0
  6 23  1  0
  7  8  1  0
  8  9  2  0
  9 10  1  0
  9 22  1  0
 10 11  1  0
 11 12  2  0
 11 19  1  0
 12 13  1  0
 13 14  2  0
 15 14  1  1
 14 18  1  0
 15 16  2  0
 15 17  2  0
 18 19  2  0
 19 20  1  0
 20 21  1  0
 22 23  2  0
M  END
