
     RDKit          3D

 22 22  0  0  0  0  0  0  0  0999 V2000
    3.1240   -3.4200    0.0490 C   0  0  0  0  0  0  0  0  0  0  0  0
    3.2380   -2.1260   -0.2170 C   0  0  0  0  0  0  0  0  0  0  0  0
    3.7090   -1.2410    0.8570 C   0  0  0  0  0  0  0  0  0  0  0  0
    3.8320    0.0550    0.6120 C   0  0  0  0  0  0  0  0  0  0  0  0
    4.2800    0.9630    1.6030 N   0  0  0  0  0  0  0  0  0  0  0  0
    2.9070   -1.6180   -1.5510 C   0  0  0  0  0  0  0  0  0  0  0  0
    1.8620   -0.6680   -1.4960 O   0  0  0  0  0  0  0  0  0  0  0  0
    1.4280   -0.0680   -2.6630 C   0  0  0  0  0  0  0  0  0  0  0  0
    2.0200   -0.4220   -3.7380 O   0  0  0  0  0  0  0  0  0  0  0  0
    0.3480    0.9220   -2.6830 C   0  0  0  0  0  0  0  0  0  0  0  0
   -0.2420    1.1840   -1.4350 O   0  0  0  0  0  0  0  0  0  0  0  0
   -0.8830    0.2320   -0.6610 C   0  0  0  0  0  0  0  0  0  0  0  0
   -0.9350   -0.9360   -1.1030 O   0  0  0  0  0  0  0  0  0  0  0  0
   -1.4990    0.5940    0.6680 C   0  0  0  0  0  0  0  0  0  0  0  0
   -0.7180    0.4940    1.8240 C   0  0  0  0  0  0  0  0  0  0  0  0
    0.7050    0.0550    1.9320 C   0  0  0  0  0  0  0  0  0  0  0  0
   -1.7550    0.9900    3.1170 S   0  0  0  0  0  0  0  0  0  0  0  0
   -3.2240    1.3240    2.0760 C   0  0  0  0  0  0  0  0  0  0  0  0
   -4.5030    1.7970    2.5920 C   0  0  0  0  0  0  0  0  0  0  0  0
   -2.7670    1.0200    0.8440 C   0  0  0  0  0  0  0  0  0  0  0  0
   -3.7240    1.1660   -0.3540 C   0  0  0  0  0  0  0  0  0  0  0  0
   -4.2350   -0.1740   -0.7920 C   0  0  0  0  0  0  0  0  0  0  0  0
  1  2  2  0
  2  3  1  0
  2  6  1  0
  3  4  2  3
  4  5  1  0
  6  7  1  0
  7  8  1  0
  8  9  2  0
  8 10  1  0
 10 11  1  0
 11 12  1  0
 12 13  2  0
 12 14  1  0
 14 15  2  0
 14 20  1  0
 15 16  1  0
 15 17  1  0
 17 18  1  0
 18 19  1  0
 18 20  2  0
 20 21  1  0
 21 22  1  0
M  END
