
     RDKit          3D

 23 24  0  0  0  0  0  0  0  0999 V2000
   -4.8460   -3.1110    1.2510 C   0  0  0  0  0  0  0  0  0  0  0  0
   -4.6600   -1.8130    0.8370 O   0  0  0  0  0  0  0  0  0  0  0  0
   -3.3430   -1.4300    0.7610 C   0  0  0  0  0  0  0  0  0  0  0  0
   -3.2560   -0.0210    0.3080 C   0  0  0  0  0  0  0  0  0  0  0  0
   -4.3290    0.5900    0.0780 O   0  0  0  0  0  0  0  0  0  0  0  0
   -2.0470    0.6710    0.1190 N   0  0  0  0  0  0  0  0  0  0  0  0
   -2.0470    2.0350   -0.3280 C   0  0  0  0  0  0  0  0  0  0  0  0
   -2.0030    2.1520   -1.8410 C   0  0  0  0  0  0  0  0  0  0  0  0
   -2.0070    3.5210   -2.1340 O   0  0  0  0  0  0  0  0  0  0  0  0
   -0.7930    0.0170    0.3790 C   0  0  0  0  0  0  0  0  0  0  0  0
   -0.3350    0.2120    1.8110 C   0  0  0  0  0  0  0  0  0  0  0  0
    1.2300   -0.5860    2.1760 S   0  0  0  0  0  0  0  0  0  0  0  0
    2.6060    0.1330    1.2970 C   0  0  0  0  0  0  0  0  0  0  0  0
    3.3110    1.1880    1.8420 C   0  0  0  0  0  0  0  0  0  0  0  0
    2.9110    1.6730    3.1040 O   0  0  0  0  0  0  0  0  0  0  0  0
    4.3820    1.7790    1.2060 C   0  0  0  0  0  0  0  0  0  0  0  0
    4.7550    1.2870   -0.0260 C   0  0  0  0  0  0  0  0  0  0  0  0
    4.0500    0.2270   -0.5790 C   0  0  0  0  0  0  0  0  0  0  0  0
    2.9800   -0.3580    0.0660 C   0  0  0  0  0  0  0  0  0  0  0  0
    2.2490   -1.4710   -0.5150 C   0  0  0  0  0  0  0  0  0  0  0  0
    2.6190   -1.9310   -1.6870 C   0  0  0  0  0  0  0  0  0  0  0  0
    3.7410   -1.3560   -2.4190 C   0  0  0  0  0  0  0  0  0  0  0  0
    4.4000   -0.2910   -1.8190 O   0  0  0  0  0  0  0  0  0  0  0  0
  1  2  1  0
  2  3  1  0
  3  4  1  0
  4  5  2  0
  4  6  1  0
  6  7  1  0
  6 10  1  0
  7  8  1  0
  8  9  1  0
 10 11  1  0
 11 12  1  0
 12 13  1  0
 13 14  2  0
 13 19  1  0
 14 15  1  0
 14 16  1  0
 16 17  2  0
 17 18  1  0
 18 19  2  0
 18 23  1  0
 19 20  1  0
 20 21  2  0
 21 22  1  0
 22 23  1  0
M  END
