
     RDKit          3D

 23 24  0  0  0  0  0  0  0  0999 V2000
    1.5480    0.9650   -1.1490 O   0  0  0  0  0  0  0  0  0  0  0  0
    2.0770   -0.1730   -1.1570 C   0  0  0  0  0  0  0  0  0  0  0  0
    1.5010   -1.1960   -2.0650 C   0  0  0  0  0  0  0  0  0  0  0  0
    0.3410   -0.6930   -2.8510 C   0  0  0  0  0  0  0  0  0  0  0  0
   -0.7520   -0.2510   -1.9400 C   0  0  0  0  0  0  0  0  0  0  0  0
   -1.8010    0.2040   -2.4640 O   0  0  0  0  0  0  0  0  0  0  0  0
   -0.6810   -0.3120   -0.5680 O   0  0  0  0  0  0  0  0  0  0  0  0
   -1.6850    0.0930    0.3120 C   0  0  0  0  0  0  0  0  0  0  0  0
   -2.0470    1.5590    0.1750 C   0  0  0  0  0  0  0  0  0  0  0  0
   -3.0700    1.8290    1.1200 O   0  0  0  0  0  0  0  0  0  0  0  0
   -4.2700    1.0910    0.9870 C   0  0  0  0  0  0  0  0  0  0  0  0
   -4.8410    0.5940    2.0630 C   0  0  0  0  0  0  0  0  0  0  0  0
   -6.0880   -0.1820    1.9920 C   0  0  0  0  0  0  0  0  0  0  0  0
   -6.5450   -0.3050    0.6940 O   0  0  0  0  0  0  0  0  0  0  0  0
   -5.9610    0.2040   -0.4220 C   0  0  0  0  0  0  0  0  0  0  0  0
   -4.8520    0.8900   -0.3240 C   0  0  0  0  0  0  0  0  0  0  0  0
    3.1870   -0.4370   -0.3140 N   0  0  0  0  0  0  0  0  0  0  0  0
    3.7430    0.5810    0.5740 C   0  0  0  0  0  0  0  0  0  0  0  0
    4.8890   -0.0190    1.3130 C   0  0  0  0  0  0  0  0  0  0  0  0
    6.2020   -0.0780    1.0230 C   0  0  0  0  0  0  0  0  0  0  0  0
    7.0430   -0.6790    1.8580 C   0  0  0  0  0  0  0  0  0  0  0  0
    6.5030   -1.2310    3.0200 C   0  0  0  0  0  0  0  0  0  0  0  0
    4.7490   -0.8400    2.8420 S   0  0  0  0  0  0  0  0  0  0  0  0
  1  2  2  0
  2  3  1  0
  2 17  1  0
  3  4  1  0
  4  5  1  0
  5  6  2  0
  5  7  1  0
  7  8  1  0
  8  9  1  0
  9 10  1  0
 10 11  1  0
 11 12  2  0
 11 16  1  0
 12 13  1  0
 13 14  1  0
 14 15  1  0
 15 16  2  0
 17 18  1  0
 18 19  1  0
 19 20  2  0
 19 23  1  0
 20 21  1  0
 21 22  2  0
 22 23  1  0
M  END
