
     RDKit          3D

 27 29  0  0  0  0  0  0  0  0999 V2000
    7.4610   -0.2890    2.5090 C   0  0  0  0  0  0  0  0  0  0  0  0
    6.3440   -0.9390    1.8860 O   0  0  0  0  0  0  0  0  0  0  0  0
    5.4260   -0.2700    1.1260 C   0  0  0  0  0  0  0  0  0  0  0  0
    5.5640    0.9680    0.9660 O   0  0  0  0  0  0  0  0  0  0  0  0
    4.2790   -0.9130    0.4820 C   0  0  0  0  0  0  0  0  0  0  0  0
    4.0670   -2.1560    0.5930 O   0  0  0  0  0  0  0  0  0  0  0  0
    3.3480   -0.1850   -0.2980 N   0  0  0  0  0  0  0  0  0  0  0  0
    2.2000   -0.7750   -0.9550 C   0  0  2  0  0  0  0  0  0  0  0  0
    2.3500   -0.4580   -2.4260 C   0  0  0  0  0  0  0  0  0  0  0  0
    2.4220    0.8850   -2.6070 O   0  0  0  0  0  0  0  0  0  0  0  0
    1.4180    1.6520   -2.1080 C   0  0  0  0  0  0  0  0  0  0  0  0
    1.0400    1.3470   -0.6810 C   0  0  0  0  0  0  0  0  0  0  0  0
    0.9050   -0.1250   -0.4890 C   0  0  1  0  0  0  0  0  0  0  0  0
   -0.2390   -0.6560   -1.2990 C   0  0  0  0  0  0  0  0  0  0  0  0
   -1.5800   -0.0870   -0.9240 C   0  0  1  0  0  0  0  0  0  0  0  0
   -2.6080   -0.7130   -1.8120 C   0  0  0  0  0  0  0  0  0  0  0  0
   -3.7730   -1.1480   -1.1490 O   0  0  0  0  0  0  0  0  0  0  0  0
   -4.2430   -0.4090   -0.0750 C   0  0  0  0  0  0  0  0  0  0  0  0
   -3.2930    0.1010    0.8010 C   0  0  0  0  0  0  0  0  0  0  0  0
   -3.6780    0.8350    1.8760 C   0  0  0  0  0  0  0  0  0  0  0  0
   -5.0100    1.0720    2.0970 C   0  0  0  0  0  0  0  0  0  0  0  0
   -5.9660    0.5800    1.2500 C   0  0  0  0  0  0  0  0  0  0  0  0
   -7.3020    0.8350    1.4980 O   0  0  0  0  0  0  0  0  0  0  0  0
   -5.5980   -0.1720    0.1440 C   0  0  0  0  0  0  0  0  0  0  0  0
   -6.5390   -0.6780   -0.7240 O   0  0  0  0  0  0  0  0  0  0  0  0
   -1.8780   -0.1740    0.5330 C   0  0  1  0  0  0  0  0  0  0  0  0
   -1.4440   -1.4010    1.0240 O   0  0  0  0  0  0  0  0  0  0  0  0
  1  2  1  0
  2  3  1  0
  3  4  2  0
  3  5  1  0
  5  6  2  0
  5  7  1  0
  8  7  1  1
  8  9  1  0
  8 13  1  0
  9 10  1  0
 10 11  1  0
 11 12  1  0
 12 13  1  0
 13 14  1  6
 15 14  1  1
 15 16  1  0
 15 26  1  0
 16 17  1  0
 17 18  1  0
 18 19  2  0
 18 24  1  0
 19 20  1  0
 19 26  1  0
 20 21  2  0
 21 22  1  0
 22 23  1  0
 22 24  2  0
 24 25  1  0
 26 27  1  6
M  END
