
     RDKit          3D

 22 23  0  0  0  0  0  0  0  0999 V2000
    6.7390   -1.5750   -1.4120 O   0  0  0  0  0  0  0  0  0  0  0  0
    5.6710   -0.9300   -1.1340 C   0  0  0  0  0  0  0  0  0  0  0  0
    5.1680   -0.0010   -2.0200 O   0  0  0  0  0  0  0  0  0  0  0  0
    5.0320   -1.2350    0.1540 C   0  0  0  0  0  0  0  0  0  0  0  0
    3.7340   -0.5170    0.3340 C   0  0  0  0  0  0  0  0  0  0  0  0
    2.6960   -0.8480   -0.6780 C   0  0  0  0  0  0  0  0  0  0  0  0
    1.4490   -0.0430   -0.3540 C   0  0  0  0  0  0  0  0  0  0  0  0
    0.9720   -0.3680    0.9460 N   0  0  0  0  0  0  0  0  0  0  0  0
   -0.4550    0.4760    1.4250 S   0  0  2  0  0  0  0  0  0  0  0  0
   -0.0460    1.8550    1.6340 O   0  0  0  0  0  0  0  0  0  0  0  0
   -0.7780   -0.0820    2.8190 O   0  0  0  0  0  0  0  0  0  0  0  0
   -1.7310    0.0650    0.4130 C   0  0  0  0  0  0  0  0  0  0  0  0
   -1.6290   -1.0190   -0.4330 C   0  0  0  0  0  0  0  0  0  0  0  0
   -2.6910   -1.4220   -1.2570 C   0  0  0  0  0  0  0  0  0  0  0  0
   -3.8870   -0.7480   -1.2540 C   0  0  0  0  0  0  0  0  0  0  0  0
   -5.3310   -1.2970   -2.3770 Br  0  0  0  0  0  0  0  0  0  0  0  0
   -4.0100    0.3210   -0.4270 C   0  0  0  0  0  0  0  0  0  0  0  0
   -5.2020    1.0380   -0.3810 C   0  0  0  0  0  0  0  0  0  0  0  0
   -5.3490    2.1230    0.4510 C   0  0  0  0  0  0  0  0  0  0  0  0
   -4.3260    2.5340    1.2640 C   0  0  0  0  0  0  0  0  0  0  0  0
   -3.1340    1.7970    1.2010 C   0  0  0  0  0  0  0  0  0  0  0  0
   -2.9770    0.7160    0.3760 C   0  0  0  0  0  0  0  0  0  0  0  0
  1  2  2  0
  2  3  1  0
  2  4  1  0
  4  5  1  0
  5  6  1  0
  6  7  1  0
  7  8  1  0
  9  8  1  6
  9 10  2  0
  9 11  2  0
  9 12  1  0
 12 13  2  0
 12 22  1  0
 13 14  1  0
 14 15  2  0
 15 16  1  0
 15 17  1  0
 17 18  2  0
 17 22  1  0
 18 19  1  0
 19 20  2  0
 20 21  1  0
 21 22  2  0
M  END
