
     RDKit          3D

 26 28  0  0  0  0  0  0  0  0999 V2000
   -1.8250    0.0320    3.4420 C   0  0  0  0  0  0  0  0  0  0  0  0
   -0.7060   -0.2990    2.5170 C   0  0  0  0  0  0  0  0  0  0  0  0
   -0.8550   -0.4290    1.2210 C   0  0  0  0  0  0  0  0  0  0  0  0
   -2.0410   -0.2860    0.5040 O   0  0  0  0  0  0  0  0  0  0  0  0
   -2.3270   -0.9760   -0.6710 C   0  0  0  0  0  0  0  0  0  0  0  0
   -3.6930   -0.5480   -1.1330 C   0  0  0  0  0  0  0  0  0  0  0  0
   -4.3990    0.3300   -0.4660 C   0  0  0  0  0  0  0  0  0  0  0  0
   -5.7410    0.8240   -0.8190 C   0  0  1  0  0  0  0  0  0  0  0  0
   -5.6240    2.2800   -0.9740 N   0  0  0  0  0  0  0  0  0  0  0  0
   -6.1960    0.2290   -1.9920 O   0  0  0  0  0  0  0  0  0  0  0  0
   -5.4730   -0.7020   -2.7180 C   0  0  0  0  0  0  0  0  0  0  0  0
   -4.2780   -1.1010   -2.3480 C   0  0  0  0  0  0  0  0  0  0  0  0
    0.4580   -0.7580    0.6230 C   0  0  2  0  0  0  0  0  0  0  0  0
    0.5300   -2.1220    0.4040 O   0  0  0  0  0  0  0  0  0  0  0  0
    1.4110   -0.4180    1.7560 C   0  0  1  0  0  0  0  0  0  0  0  0
    1.9780    0.9510    1.5820 C   0  0  0  0  0  0  0  0  0  0  0  0
    2.7580    1.0840    0.4660 O   0  0  0  0  0  0  0  0  0  0  0  0
    3.9300    0.5300    0.0540 C   0  0  0  0  0  0  0  0  0  0  0  0
    4.6990   -0.3680    0.7480 C   0  0  0  0  0  0  0  0  0  0  0  0
    5.8940   -0.8840    0.2280 C   0  0  0  0  0  0  0  0  0  0  0  0
    6.3320   -0.4930   -1.0150 C   0  0  0  0  0  0  0  0  0  0  0  0
    5.5820    0.4100   -1.7400 C   0  0  0  0  0  0  0  0  0  0  0  0
    6.0380    0.8000   -3.0020 O   0  0  0  0  0  0  0  0  0  0  0  0
    4.4290    0.8920   -1.2100 C   0  0  0  0  0  0  0  0  0  0  0  0
    3.6900    1.8020   -1.9600 O   0  0  0  0  0  0  0  0  0  0  0  0
    0.5990   -0.5020    2.9370 O   0  0  0  0  0  0  0  0  0  0  0  0
  1  2  1  0
  2  3  2  0
  2 26  1  0
  3  4  1  0
  3 13  1  0
  4  5  1  0
  5  6  1  0
  6  7  2  0
  6 12  1  0
  7  8  1  0
  8  9  1  6
  8 10  1  0
 10 11  1  0
 11 12  2  0
 13 14  1  1
 13 15  1  0
 15 16  1  6
 15 26  1  0
 16 17  1  0
 17 18  1  0
 18 19  2  0
 18 24  1  0
 19 20  1  0
 20 21  2  0
 21 22  1  0
 22 23  1  0
 22 24  2  0
 24 25  1  0
M  END
