
     RDKit          3D

 27 30  0  0  0  0  0  0  0  0999 V2000
   -0.7810   -2.8490    1.9860 C   0  0  0  0  0  0  0  0  0  0  0  0
   -0.1140   -1.8930    1.0070 C   0  0  2  0  0  0  0  0  0  0  0  0
   -1.1760   -0.9890    0.4670 C   0  0  0  0  0  0  0  0  0  0  0  0
   -0.7100   -0.0470   -0.4530 O   0  0  0  0  0  0  0  0  0  0  0  0
   -1.6370    0.8340   -1.0040 C   0  0  0  0  0  0  0  0  0  0  0  0
   -2.9750    0.8030   -0.6740 C   0  0  0  0  0  0  0  0  0  0  0  0
   -3.9140    1.6630   -1.2040 C   0  0  0  0  0  0  0  0  0  0  0  0
   -5.2680    1.5840   -0.8280 O   0  0  0  0  0  0  0  0  0  0  0  0
   -3.4950    2.5550   -2.0700 O   0  0  0  0  0  0  0  0  0  0  0  0
   -2.2340    2.6280   -2.4190 C   0  0  0  0  0  0  0  0  0  0  0  0
   -1.9300    3.5170   -3.2570 O   0  0  0  0  0  0  0  0  0  0  0  0
   -1.2490    1.8010   -1.9280 C   0  0  0  0  0  0  0  0  0  0  0  0
    0.5380   -2.7360   -0.0620 C   0  0  2  0  0  0  0  0  0  0  0  0
   -0.1820   -3.9760   -0.1680 N   0  0  0  0  0  0  0  0  0  0  0  0
    1.8990   -2.9170    0.4840 C   0  0  0  0  0  0  0  0  0  0  0  0
    2.7880   -3.6350   -0.0340 O   0  0  0  0  0  0  0  0  0  0  0  0
    2.0450   -2.1780    1.6490 O   0  0  0  0  0  0  0  0  0  0  0  0
    0.9870   -1.2090    1.7250 C   0  0  1  0  0  0  0  0  0  0  0  0
    1.3990    0.0810    1.1490 C   0  0  0  0  0  0  0  0  0  0  0  0
    1.1120    1.2580    1.8090 C   0  0  0  0  0  0  0  0  0  0  0  0
    1.4840    2.4940    1.2990 C   0  0  0  0  0  0  0  0  0  0  0  0
    2.1610    2.5830    0.1000 C   0  0  0  0  0  0  0  0  0  0  0  0
    2.4570    1.4140   -0.5750 C   0  0  0  0  0  0  0  0  0  0  0  0
    2.0750    0.1760   -0.0460 C   0  0  0  0  0  0  0  0  0  0  0  0
    3.1290    1.8060   -1.7260 O   0  0  0  0  0  0  0  0  0  0  0  0
    3.5630    3.1490   -1.6250 C   0  0  0  0  0  0  0  0  0  0  0  0
    2.6610    3.6600   -0.6580 O   0  0  0  0  0  0  0  0  0  0  0  0
  2  1  1  1
  2  3  1  0
  2 13  1  0
  2 18  1  0
  3  4  1  0
  4  5  1  0
  5  6  1  0
  5 12  2  0
  6  7  2  0
  7  8  1  0
  7  9  1  0
  9 10  1  0
 10 11  2  0
 10 12  1  0
 13 14  1  1
 13 15  1  0
 15 16  2  0
 15 17  1  0
 17 18  1  0
 18 19  1  6
 19 20  2  0
 19 24  1  0
 20 21  1  0
 21 22  2  0
 22 23  1  0
 22 27  1  0
 23 24  2  0
 23 25  1  0
 25 26  1  0
 26 27  1  0
M  END
