
     RDKit          3D

 27 29  0  0  0  0  0  0  0  0999 V2000
    3.5240    0.0020    2.5920 O   0  0  0  0  0  0  0  0  0  0  0  0
    3.3250    0.0770    1.3610 C   0  0  0  0  0  0  0  0  0  0  0  0
    2.0490    0.0950    0.8220 N   0  0  0  0  0  0  0  0  0  0  0  0
    0.8330    0.0320    1.6030 C   0  0  0  0  0  0  0  0  0  0  0  0
    0.9060   -0.0030    2.9730 C   0  0  0  0  0  0  0  0  0  0  0  0
   -0.7870   -0.0640    3.5140 S   0  0  0  0  0  0  0  0  0  0  0  0
   -1.4910   -0.0390    1.8560 C   0  0  0  0  0  0  0  0  0  0  0  0
   -2.9410   -0.0680    1.6040 C   0  0  0  0  0  0  0  0  0  0  0  0
   -3.7350   -0.1180    2.5990 O   0  0  0  0  0  0  0  0  0  0  0  0
   -3.5130   -0.0460    0.3700 O   0  0  0  0  0  0  0  0  0  0  0  0
   -4.9010   -0.0730    0.1160 C   0  0  2  0  0  0  0  0  0  0  0  0
   -5.1980   -1.2510   -0.8180 C   0  0  0  0  0  0  0  0  0  0  0  0
   -6.6880   -1.3380   -1.0730 C   0  0  0  0  0  0  0  0  0  0  0  0
   -7.4020   -0.0990   -0.5760 C   0  0  0  0  0  0  0  0  0  0  0  0
   -6.6970    1.1580   -0.9880 C   0  0  0  0  0  0  0  0  0  0  0  0
   -5.2380    1.1760   -0.6710 C   0  0  0  0  0  0  0  0  0  0  0  0
   -0.4060    0.0120    1.0570 C   0  0  0  0  0  0  0  0  0  0  0  0
   -0.6150    0.0490   -0.4600 C   0  0  0  0  0  0  0  0  0  0  0  0
   -0.3500    1.8590   -1.0740 Br  0  0  0  0  0  0  0  0  0  0  0  0
    4.4830    0.1500    0.4360 C   0  0  0  0  0  0  0  0  0  0  0  0
    4.4150    0.2500   -0.9180 C   0  0  0  0  0  0  0  0  0  0  0  0
    5.7140    0.2870   -1.3720 C   0  0  0  0  0  0  0  0  0  0  0  0
    6.4930    0.2060   -0.2510 C   0  0  0  0  0  0  0  0  0  0  0  0
    7.9730    0.2100   -0.2470 C   0  0  0  0  0  0  0  0  0  0  0  0
    8.4380   -1.2470   -0.3460 C   0  0  0  0  0  0  0  0  0  0  0  0
    9.8070   -1.3650   -0.3510 O   0  0  0  0  0  0  0  0  0  0  0  0
    5.7290    0.1270    0.7940 O   0  0  0  0  0  0  0  0  0  0  0  0
  1  2  2  0
  2  3  1  0
  2 20  1  0
  3  4  1  0
  4  5  2  0
  4 17  1  0
  5  6  1  0
  6  7  1  0
  7  8  1  0
  7 17  2  0
  8  9  2  0
  8 10  1  0
 11 10  1  6
 11 12  1  0
 11 16  1  0
 12 13  1  0
 13 14  1  0
 14 15  1  0
 15 16  1  0
 17 18  1  0
 18 19  1  0
 20 21  2  0
 20 27  1  0
 21 22  1  0
 22 23  2  0
 23 24  1  0
 23 27  1  0
 24 25  1  0
 25 26  1  0
M  END
