
     RDKit          3D

 26 28  0  0  0  0  0  0  0  0999 V2000
    0.2130    2.2170    3.7080 O   0  0  0  0  0  0  0  0  0  0  0  0
    0.9310    0.8430    3.8580 P   0  0  0  0  0  0  0  0  0  0  0  0
    2.1930    0.3450    2.7590 O   0  0  0  0  0  0  0  0  0  0  0  0
    1.8180   -0.0030    1.4460 C   0  0  0  0  0  0  0  0  0  0  0  0
    0.5000    0.0510    1.0500 C   0  0  0  0  0  0  0  0  0  0  0  0
    0.0970   -0.2880   -0.2440 C   0  0  0  0  0  0  0  0  0  0  0  0
   -1.3060   -0.2230   -0.6410 C   0  0  0  0  0  0  0  0  0  0  0  0
   -1.8010   -1.0860   -1.5830 C   0  0  0  0  0  0  0  0  0  0  0  0
   -3.1250   -1.0240   -1.9560 C   0  0  0  0  0  0  0  0  0  0  0  0
   -3.9680   -0.0770   -1.3750 C   0  0  0  0  0  0  0  0  0  0  0  0
   -5.3010   -0.0130   -1.7490 O   0  0  0  0  0  0  0  0  0  0  0  0
   -6.1560   -0.8390   -1.1360 O   0  0  0  0  0  0  0  0  0  0  0  0
   -3.4930    0.8020   -0.4270 C   0  0  0  0  0  0  0  0  0  0  0  0
   -4.6240    2.0260    0.3100 P   0  0  0  0  0  0  0  0  0  0  0  0
   -3.8330    3.5410    0.5160 O   0  0  0  0  0  0  0  0  0  0  0  0
   -5.2230    1.4900    1.8570 O   0  0  0  0  0  0  0  0  0  0  0  0
   -2.1520    0.7170   -0.0680 C   0  0  0  0  0  0  0  0  0  0  0  0
    1.0960   -0.6810   -1.1060 C   0  0  0  0  0  0  0  0  0  0  0  0
    2.3890   -0.7370   -0.7300 N   0  0  0  0  0  0  0  0  0  0  0  0
    2.7660   -0.4060    0.5280 C   0  0  0  0  0  0  0  0  0  0  0  0
    4.1310   -0.4700    0.9110 N   0  0  0  0  0  0  0  0  0  0  0  0
    5.1590   -0.8880   -0.0190 C   0  0  0  0  0  0  0  0  0  0  0  0
    6.5430   -0.9500    0.3720 C   0  0  0  0  0  0  0  0  0  0  0  0
    7.2930   -1.5020   -1.1140 S   0  0  0  0  0  0  0  0  0  0  0  0
    5.7300   -1.5980   -2.0960 C   0  0  0  0  0  0  0  0  0  0  0  0
    4.9200   -1.2280   -1.2340 N   0  0  0  0  0  0  0  0  0  0  0  0
  1  2  2  0
  2  3  1  0
  3  4  1  0
  4  5  2  0
  4 20  1  0
  5  6  1  0
  6  7  1  0
  6 18  2  0
  7  8  2  0
  7 17  1  0
  8  9  1  0
  9 10  2  0
 10 11  1  0
 10 13  1  0
 11 12  1  0
 13 14  1  0
 13 17  2  0
 14 15  1  0
 14 16  1  0
 18 19  1  0
 19 20  2  0
 20 21  1  0
 21 22  1  0
 22 23  2  0
 22 26  1  0
 23 24  1  0
 24 25  1  0
 25 26  2  0
M  END
