
     RDKit          3D

 25 27  0  0  0  0  0  0  0  0999 V2000
   -6.9070   -2.6120    0.3770 O   0  0  0  0  0  0  0  0  0  0  0  0
   -5.6600   -3.2800   -0.2300 P   0  0  0  0  0  0  0  0  0  0  0  0
   -3.7110   -2.3160   -0.3980 P   0  0  0  0  0  0  0  0  0  0  0  0
   -3.0080   -2.7610   -1.9370 O   0  0  0  0  0  0  0  0  0  0  0  0
   -3.8100   -0.5050   -0.2270 C   0  0  0  0  0  0  0  0  0  0  0  0
   -5.0600    0.1240   -0.2640 C   0  0  0  0  0  0  0  0  0  0  0  0
   -5.0800    1.5060   -0.1300 C   0  0  0  0  0  0  0  0  0  0  0  0
   -3.9230    2.2340    0.0340 C   0  0  0  0  0  0  0  0  0  0  0  0
   -4.0400    3.6060    0.1600 O   0  0  0  0  0  0  0  0  0  0  0  0
   -2.6940    1.5800    0.0670 C   0  0  0  0  0  0  0  0  0  0  0  0
   -2.6490    0.2060   -0.0650 C   0  0  0  0  0  0  0  0  0  0  0  0
   -1.4090   -0.4790   -0.0340 N   0  0  0  0  0  0  0  0  0  0  0  0
   -0.1430    0.2110    0.1340 C   0  0  0  0  0  0  0  0  0  0  0  0
    0.9470   -0.7940    0.1220 C   0  0  0  0  0  0  0  0  0  0  0  0
    0.6840   -2.0270   -0.0200 O   0  0  0  0  0  0  0  0  0  0  0  0
    2.3150   -0.4340    0.2660 N   0  0  0  0  0  0  0  0  0  0  0  0
    2.6210    0.9780    0.4280 C   0  0  0  0  0  0  0  0  0  0  0  0
    2.9020    1.5210   -0.9570 C   0  0  0  0  0  0  0  0  0  0  0  0
    4.6310    1.2060   -1.3880 S   0  0  0  0  0  0  0  0  0  0  0  0
    5.3060    0.0480   -0.2380 C   0  0  0  0  0  0  0  0  0  0  0  0
    6.6040    0.0700    0.2210 C   0  0  0  0  0  0  0  0  0  0  0  0
    6.7080   -0.9300    1.0390 O   0  0  0  0  0  0  0  0  0  0  0  0
    5.6110   -1.5920    1.1550 N   0  0  0  0  0  0  0  0  0  0  0  0
    4.6650   -1.0350    0.3740 C   0  0  0  0  0  0  0  0  0  0  0  0
    3.2760   -1.5110    0.2360 C   0  0  0  0  0  0  0  0  0  0  0  0
  1  2  2  0
  2  3  1  0
  3  4  1  0
  3  5  1  0
  5  6  2  0
  5 11  1  0
  6  7  1  0
  7  8  2  0
  8  9  1  0
  8 10  1  0
 10 11  2  0
 11 12  1  0
 12 13  1  0
 13 14  1  0
 14 15  2  0
 14 16  1  0
 16 17  1  0
 16 25  1  0
 17 18  1  0
 18 19  1  0
 19 20  1  0
 20 21  2  0
 20 24  1  0
 21 22  1  0
 22 23  1  0
 23 24  2  0
 24 25  1  0
M  END
