
     RDKit          3D

  9  8  0  0  0  0  0  0  0  0999 V2000
    2.3470   -1.3000   -0.8080 O   0  0  0  0  0  0  0  0  0  0  0  0
    2.1120   -0.4910    0.1390 C   0  0  0  0  0  0  0  0  0  0  0  0
    3.2070   -0.1280    0.9120 O   0  0  0  0  0  0  0  0  0  0  0  0
    0.7520    0.0230    0.3880 C   0  0  0  0  0  0  0  0  0  0  0  0
   -0.1130   -0.5300   -0.5550 O   0  0  0  0  0  0  0  0  0  0  0  0
   -1.6540    0.0860   -0.2300 P   0  0  1  0  0  0  0  0  0  0  0  0
   -2.2870    0.4540   -1.5650 O   0  0  0  0  0  0  0  0  0  0  0  0
   -2.5560   -1.1500    0.4710 O   0  0  0  0  0  0  0  0  0  0  0  0
   -1.5570    1.4490    0.7450 O   0  0  0  0  0  0  0  0  0  0  0  0
  1  2  2  0
  2  3  1  0
  2  4  1  0
  4  5  1  0
  5  6  1  0
  6  7  2  0
  6  8  1  1
  6  9  1  0
M  END
