
     RDKit          3D

 24 25  0  0  0  0  0  0  0  0999 V2000
    5.2540    2.1700    0.9410 O   0  0  0  0  0  0  0  0  0  0  0  0
    4.6860    1.9280   -0.1650 C   0  0  0  0  0  0  0  0  0  0  0  0
    4.3280    0.6210   -0.4250 O   0  0  0  0  0  0  0  0  0  0  0  0
    4.6040   -0.3890    0.5430 C   0  0  0  0  0  0  0  0  0  0  0  0
    4.1150   -1.7470    0.0290 C   0  0  0  0  0  0  0  0  0  0  0  0
    2.6260   -1.6070   -0.1930 C   0  0  0  0  0  0  0  0  0  0  0  0
    2.0320   -2.7350   -0.6530 O   0  0  0  0  0  0  0  0  0  0  0  0
    0.3470   -2.6930   -0.9380 P   0  0  0  0  0  0  0  0  0  0  0  0
   -0.4550   -2.9610    0.5910 O   0  0  0  0  0  0  0  0  0  0  0  0
   -1.3250   -2.0380    0.6750 N   0  0  0  0  0  0  0  0  0  0  0  0
   -1.3280   -0.9540    0.0360 C   0  0  0  0  0  0  0  0  0  0  0  0
   -2.4770   -0.2310    0.4430 N   0  0  0  0  0  0  0  0  0  0  0  0
   -2.9030    1.0300    0.0100 C   0  0  0  0  0  0  0  0  0  0  0  0
   -2.1520    1.5250   -0.8250 O   0  0  0  0  0  0  0  0  0  0  0  0
   -4.1180    1.6960    0.5000 C   0  0  2  0  0  0  0  0  0  0  0  0
   -4.8010    0.8810    1.4650 O   0  0  0  0  0  0  0  0  0  0  0  0
   -6.1120    1.3330    1.4580 C   0  0  0  0  0  0  0  0  0  0  0  0
   -6.9750    1.2420    2.3920 O   0  0  0  0  0  0  0  0  0  0  0  0
   -6.3490    1.9310    0.2080 O   0  0  0  0  0  0  0  0  0  0  0  0
   -5.1560    1.8230   -0.5200 C   0  0  0  0  0  0  0  0  0  0  0  0
   -5.0310    1.8350   -1.7510 O   0  0  0  0  0  0  0  0  0  0  0  0
   -0.1600   -0.8590   -0.8260 C   0  0  2  0  0  0  0  0  0  0  0  0
   -0.3270   -0.2760   -2.5480 P   0  0  0  0  0  0  0  0  0  0  0  0
    0.1230    1.1140   -3.0580 O   0  0  0  0  0  0  0  0  0  0  0  0
  1  2  2  0
  2  3  1  0
  3  4  1  0
  4  5  1  0
  5  6  1  0
  6  7  1  0
  7  8  1  0
  8  9  1  0
  8 22  1  0
  9 10  1  0
 10 11  2  0
 11 12  1  0
 11 22  1  0
 12 13  1  0
 13 14  2  0
 15 13  1  6
 15 16  1  0
 15 20  1  0
 16 17  1  0
 17 18  2  0
 17 19  1  0
 19 20  1  0
 20 21  2  0
 22 23  1  6
 23 24  2  0
M  END
