
     RDKit          3D

 24 25  0  0  0  0  0  0  0  0999 V2000
   -3.6020    3.5030   -1.4680 O   0  0  0  0  0  0  0  0  0  0  0  0
   -3.4390    3.0270   -0.3120 C   0  0  0  0  0  0  0  0  0  0  0  0
   -4.2190    3.5250    0.7140 O   0  0  0  0  0  0  0  0  0  0  0  0
   -2.4250    1.9450   -0.0430 C   0  0  1  0  0  0  0  0  0  0  0  0
   -2.5000    1.6530    1.3060 O   0  0  0  0  0  0  0  0  0  0  0  0
   -2.7690    0.8080   -0.9390 C   0  0  0  0  0  0  0  0  0  0  0  0
   -2.0380   -0.3230   -0.8860 O   0  0  0  0  0  0  0  0  0  0  0  0
   -2.0360   -1.0270    0.2660 C   0  0  1  0  0  0  0  0  0  0  0  0
   -2.6250   -2.4580    0.0180 C   0  0  0  0  0  0  0  0  0  0  0  0
   -1.4840   -3.1350   -0.6730 C   0  0  0  0  0  0  0  0  0  0  0  0
   -0.2930   -2.5050   -0.1400 N   0  0  0  0  0  0  0  0  0  0  0  0
    1.1180   -2.4710   -0.1230 C   0  0  0  0  0  0  0  0  0  0  0  0
    1.8540   -3.4310   -0.5150 O   0  0  0  0  0  0  0  0  0  0  0  0
    1.5820   -1.2310    0.3850 N   0  0  0  0  0  0  0  0  0  0  0  0
    2.9570   -0.8010    0.5630 C   0  0  0  0  0  0  0  0  0  0  0  0
    3.6350    0.0530   -0.9220 P   0  0  0  0  0  0  0  0  0  0  0  0
    2.9190   -0.4750   -2.3930 O   0  0  0  0  0  0  0  0  0  0  0  0
    3.6420    1.7710   -0.7600 O   0  0  0  0  0  0  0  0  0  0  0  0
    4.8720    2.1750    0.4130 P   0  0  0  0  0  0  0  0  0  0  0  0
    5.5730    0.7690    1.1050 O   0  0  0  0  0  0  0  0  0  0  0  0
    6.0930    3.1760   -0.2800 O   0  0  0  0  0  0  0  0  0  0  0  0
    0.3830   -0.4800    0.6900 C   0  0  0  0  0  0  0  0  0  0  0  0
    0.4300    0.7780    0.8220 O   0  0  0  0  0  0  0  0  0  0  0  0
   -0.7060   -1.4360    0.7850 C   0  0  1  0  0  0  0  0  0  0  0  0
  1  2  2  0
  2  3  1  0
  2  4  1  0
  4  5  1  1
  4  6  1  0
  6  7  1  0
  8  7  1  6
  8  9  1  0
  8 24  1  0
  9 10  1  0
 10 11  1  0
 11 12  1  0
 11 24  1  0
 12 13  2  0
 12 14  1  0
 14 15  1  0
 14 22  1  0
 15 16  1  0
 16 17  1  0
 16 18  1  0
 18 19  1  0
 19 20  1  0
 19 21  1  0
 22 23  2  0
 24 22  1  6
M  END
