
     RDKit          3D

 23 24  0  0  0  0  0  0  0  0999 V2000
    4.8120    1.0860    0.8190 O   0  0  0  0  0  0  0  0  0  0  0  0
    4.9730    1.3920   -0.3830 C   0  0  0  0  0  0  0  0  0  0  0  0
    6.2630    1.7100   -0.7880 O   0  0  0  0  0  0  0  0  0  0  0  0
    3.8870    1.3970   -1.2210 O   0  0  0  0  0  0  0  0  0  0  0  0
    2.5750    1.0720   -0.8050 C   0  0  0  0  0  0  0  0  0  0  0  0
    2.5860   -0.3300   -0.2870 C   0  0  0  0  0  0  0  0  0  0  0  0
    3.6490   -1.0010   -0.2810 O   0  0  0  0  0  0  0  0  0  0  0  0
    1.3950   -0.9420    0.2120 N   0  0  0  0  0  0  0  0  0  0  0  0
    0.1720   -0.1620    0.2020 C   0  0  0  0  0  0  0  0  0  0  0  0
   -1.0100   -1.0430    0.5490 C   0  0  2  0  0  0  0  0  0  0  0  0
   -1.4880   -1.8700   -0.5990 C   0  0  0  0  0  0  0  0  0  0  0  0
   -2.6510   -1.3200   -1.2480 C   0  0  0  0  0  0  0  0  0  0  0  0
   -3.4160   -0.5120   -0.4920 O   0  0  0  0  0  0  0  0  0  0  0  0
   -2.5180   -0.0050    0.8910 P   0  0  0  0  0  0  0  0  0  0  0  0
   -2.1410    1.6470    0.9140 O   0  0  0  0  0  0  0  0  0  0  0  0
   -3.1610    2.6650    0.0330 P   0  0  0  0  0  0  0  0  0  0  0  0
   -2.5680    3.1760   -1.4820 O   0  0  0  0  0  0  0  0  0  0  0  0
   -4.8160    2.2850    0.0720 O   0  0  0  0  0  0  0  0  0  0  0  0
   -5.5030    3.4210   -0.0760 O   0  0  0  0  0  0  0  0  0  0  0  0
   -0.7200   -1.8490    1.7940 C   0  0  0  0  0  0  0  0  0  0  0  0
    0.3940   -2.7450    1.5470 N   0  0  0  0  0  0  0  0  0  0  0  0
    1.4300   -2.2710    0.6970 C   0  0  0  0  0  0  0  0  0  0  0  0
    2.3730   -3.0680    0.3930 O   0  0  0  0  0  0  0  0  0  0  0  0
  1  2  2  0
  2  3  1  0
  2  4  1  0
  4  5  1  0
  5  6  1  0
  6  7  2  0
  6  8  1  0
  8  9  1  0
  8 22  1  0
 10  9  1  6
 10 11  1  0
 10 14  1  0
 10 20  1  0
 11 12  1  0
 12 13  1  0
 13 14  1  0
 14 15  1  0
 15 16  1  0
 16 17  1  0
 16 18  1  0
 18 19  1  0
 20 21  1  0
 21 22  1  0
 22 23  2  0
M  END
