
     RDKit          3D

 24 25  0  0  0  0  0  0  0  0999 V2000
    0.8110   -1.1770   -1.9410 O   0  0  0  0  0  0  0  0  0  0  0  0
    0.3490   -1.0300   -0.7700 C   0  0  0  0  0  0  0  0  0  0  0  0
   -0.3190   -2.1510   -0.0920 C   0  0  2  0  0  0  0  0  0  0  0  0
   -0.9670   -3.0990   -1.0760 C   0  0  0  0  0  0  0  0  0  0  0  0
   -1.4170   -4.1930   -0.3020 O   0  0  0  0  0  0  0  0  0  0  0  0
   -2.5720   -3.7730    0.3550 C   0  0  0  0  0  0  0  0  0  0  0  0
   -2.3340   -2.6030    1.2350 C   0  0  0  0  0  0  0  0  0  0  0  0
   -3.0340   -2.3740    2.2620 O   0  0  0  0  0  0  0  0  0  0  0  0
   -1.2720   -1.7190    0.8900 N   0  0  0  0  0  0  0  0  0  0  0  0
   -1.1370   -0.4490    1.4890 C   0  0  0  0  0  0  0  0  0  0  0  0
   -1.6220   -0.2650    2.6360 O   0  0  0  0  0  0  0  0  0  0  0  0
   -0.4550    0.6550    0.8210 C   0  0  2  0  0  0  0  0  0  0  0  0
   -1.5400    1.5420    0.1950 C   0  0  0  0  0  0  0  0  0  0  0  0
   -1.0060    2.6930   -0.3720 O   0  0  0  0  0  0  0  0  0  0  0  0
   -2.3100    3.6010   -1.0370 P   0  0  0  0  0  0  0  0  0  0  0  0
   -2.8110    4.8190    0.0650 O   0  0  0  0  0  0  0  0  0  0  0  0
   -3.6020    2.5060   -1.4330 O   0  0  0  0  0  0  0  0  0  0  0  0
    0.5060    0.2410   -0.1620 N   0  0  0  0  0  0  0  0  0  0  0  0
    1.5930    1.1430   -0.4840 C   0  0  0  0  0  0  0  0  0  0  0  0
    2.9840    0.7390    0.6780 P   0  0  0  0  0  0  0  0  0  0  0  0
    3.4730    2.0710    1.6280 O   0  0  0  0  0  0  0  0  0  0  0  0
    4.3560   -0.1540   -0.1370 C   0  0  0  0  0  0  0  0  0  0  0  0
    5.3840    0.6570   -0.5740 O   0  0  0  0  0  0  0  0  0  0  0  0
    4.9070    1.5290   -1.4550 O   0  0  0  0  0  0  0  0  0  0  0  0
  1  2  2  0
  2  3  1  0
  2 18  1  0
  3  4  1  6
  3  9  1  0
  4  5  1  0
  5  6  1  0
  6  7  1  0
  7  8  2  0
  7  9  1  0
  9 10  1  0
 10 11  2  0
 10 12  1  0
 12 13  1  6
 12 18  1  0
 13 14  1  0
 14 15  1  0
 15 16  1  0
 15 17  1  0
 18 19  1  0
 19 20  1  0
 20 21  1  0
 20 22  1  0
 22 23  1  0
 23 24  1  0
M  END
