
     RDKit          3D

 22 24  0  0  0  0  0  0  0  0999 V2000
   -5.8110   -1.4410    1.2810 O   0  0  0  0  0  0  0  0  0  0  0  0
   -4.7130   -0.8770    0.9510 C   0  0  0  0  0  0  0  0  0  0  0  0
   -3.5680   -1.3740    1.4440 N   0  0  0  0  0  0  0  0  0  0  0  0
   -2.4100   -0.7870    1.1010 C   0  0  0  0  0  0  0  0  0  0  0  0
   -1.2470   -1.3160    1.6200 O   0  0  0  0  0  0  0  0  0  0  0  0
    0.0420   -0.8430    1.3780 C   0  0  0  0  0  0  0  0  0  0  0  0
    0.4130   -0.8810   -0.0910 C   0  0  0  0  0  0  0  0  0  0  0  0
    1.7700   -0.3800   -0.3210 C   0  0  0  0  0  0  0  0  0  0  0  0
    2.5370    0.0430    0.6730 C   0  0  0  0  0  0  0  0  0  0  0  0
    3.8740    0.5390    0.4650 C   0  0  0  0  0  0  0  0  0  0  0  0
    4.5940    0.9520    1.5240 C   0  0  0  0  0  0  0  0  0  0  0  0
    6.2160    1.5540    1.2720 Cl  0  0  0  0  0  0  0  0  0  0  0  0
    3.8970    0.8990    3.2840 Br  0  0  0  0  0  0  0  0  0  0  0  0
    4.4660    0.6040   -0.8680 C   0  0  0  0  0  0  0  0  0  0  0  0
    3.5520    0.1190   -1.8950 C   0  0  0  0  0  0  0  0  0  0  0  0
    2.3520   -0.3190   -1.6510 C   0  0  0  0  0  0  0  0  0  0  0  0
   -2.4220    0.2750    0.2800 N   0  0  0  0  0  0  0  0  0  0  0  0
   -3.5570    0.7830   -0.2210 C   0  0  0  0  0  0  0  0  0  0  0  0
   -3.9090    1.7880   -1.0300 N   0  0  0  0  0  0  0  0  0  0  0  0
   -5.2460    1.8350   -1.1940 C   0  0  0  0  0  0  0  0  0  0  0  0
   -5.7370    0.8260   -0.4620 N   0  0  0  0  0  0  0  0  0  0  0  0
   -4.7210    0.1840    0.1310 N   0  0  0  0  0  0  0  0  0  0  0  0
  1  2  2  0
  2  3  1  0
  2 22  1  0
  3  4  1  0
  4  5  1  0
  4 17  2  0
  5  6  1  0
  6  7  1  0
  7  8  1  0
  8  9  2  0
  8 16  1  0
  9 10  1  0
 10 11  2  3
 10 14  1  0
 11 12  1  0
 11 13  1  0
 14 15  1  0
 15 16  2  0
 17 18  1  0
 18 19  2  0
 18 22  1  0
 19 20  1  0
 20 21  2  0
 21 22  1  0
M  END
