
     RDKit          3D

 22 24  0  0  0  0  0  0  0  0999 V2000
    4.9330   -2.4470    0.0310 C   0  0  0  0  0  0  0  0  0  0  0  0
    4.2290   -1.1400    0.0440 C   0  0  0  0  0  0  0  0  0  0  0  0
    4.7660    0.0860    0.0730 N   0  0  0  0  0  0  0  0  0  0  0  0
    3.8020    0.9980    0.0750 N   0  0  0  0  0  0  0  0  0  0  0  0
    3.9640    2.4380    0.1030 C   0  0  0  0  0  0  0  0  0  0  0  0
    2.6000    0.3940    0.0460 C   0  0  0  0  0  0  0  0  0  0  0  0
    1.2560    0.5380    0.0290 N   0  0  0  0  0  0  0  0  0  0  0  0
    0.6740   -0.6710   -0.0010 C   0  0  0  0  0  0  0  0  0  0  0  0
   -0.7850   -0.9850   -0.0280 C   0  0  0  0  0  0  0  0  0  0  0  0
   -1.1310   -2.1800   -0.0540 O   0  0  0  0  0  0  0  0  0  0  0  0
   -1.7090    0.0810   -0.0230 N   0  0  0  0  0  0  0  0  0  0  0  0
   -3.1150   -0.0720   -0.0460 C   0  0  0  0  0  0  0  0  0  0  0  0
   -3.7570   -1.2200   -0.0760 C   0  0  0  0  0  0  0  0  0  0  0  0
   -5.2360   -1.2610   -0.0990 C   0  0  0  0  0  0  0  0  0  0  0  0
   -6.1000   -2.9510   -0.1410 Br  0  0  0  0  0  0  0  0  0  0  0  0
   -5.9790   -0.1780   -0.0910 C   0  0  0  0  0  0  0  0  0  0  0  0
   -5.3660    1.0570   -0.0600 O   0  0  0  0  0  0  0  0  0  0  0  0
   -3.9580    1.1400   -0.0380 C   0  0  0  0  0  0  0  0  0  0  0  0
   -3.3930    2.3260   -0.0080 C   0  0  0  0  0  0  0  0  0  0  0  0
   -4.4710    3.7470    0.0010 Cl  0  0  0  0  0  0  0  0  0  0  0  0
    1.6610   -1.5740   -0.0020 N   0  0  0  0  0  0  0  0  0  0  0  0
    2.8620   -0.9570    0.0270 C   0  0  0  0  0  0  0  0  0  0  0  0
  1  2  1  0
  2  3  2  0
  2 22  1  0
  3  4  1  0
  4  5  1  0
  4  6  1  0
  6  7  1  0
  6 22  2  0
  7  8  1  0
  8  9  1  0
  8 21  2  0
  9 10  2  0
  9 11  1  0
 11 12  1  0
 12 13  2  0
 12 18  1  0
 13 14  1  0
 14 15  1  0
 14 16  2  0
 16 17  1  0
 17 18  1  0
 18 19  2  3
 19 20  1  0
 21 22  1  0
M  END
