
     RDKit          3D

 22 25  0  0  0  0  0  0  0  0999 V2000
   -0.9710   -3.7280   -0.0840 O   0  0  0  0  0  0  0  0  0  0  0  0
   -0.3130   -2.6630   -0.1730 C   0  0  0  0  0  0  0  0  0  0  0  0
    1.0940   -2.7720   -0.3560 N   0  0  0  0  0  0  0  0  0  0  0  0
    2.0230   -1.7370   -0.2120 N   0  0  0  0  0  0  0  0  0  0  0  0
    1.9210   -0.4940    0.0630 C   0  0  0  0  0  0  0  0  0  0  0  0
    3.1550    0.3050    0.1320 C   0  0  0  0  0  0  0  0  0  0  0  0
    3.3500    1.6300   -0.1410 C   0  0  0  0  0  0  0  0  0  0  0  0
    4.6870    1.8930    0.0760 C   0  0  0  0  0  0  0  0  0  0  0  0
    5.2510    0.6870    0.4790 C   0  0  0  0  0  0  0  0  0  0  0  0
    7.0700    0.3610    0.9370 Br  0  0  0  0  0  0  0  0  0  0  0  0
    4.3120   -0.2010    0.4940 O   0  0  0  0  0  0  0  0  0  0  0  0
    0.7160    0.2380    0.3200 N   0  0  0  0  0  0  0  0  0  0  0  0
   -0.6440   -0.1430    0.1460 C   0  0  0  0  0  0  0  0  0  0  0  0
   -1.5230    0.9260    0.2150 C   0  0  0  0  0  0  0  0  0  0  0  0
   -2.8720    0.6430    0.0560 C   0  0  0  0  0  0  0  0  0  0  0  0
   -3.9990    1.4390    0.0660 C   0  0  0  0  0  0  0  0  0  0  0  0
   -4.0340    3.1750    0.3030 Cl  0  0  0  0  0  0  0  0  0  0  0  0
   -5.1190    0.6590   -0.1420 C   0  0  0  0  0  0  0  0  0  0  0  0
   -4.6740   -0.6040   -0.2770 N   0  0  0  0  0  0  0  0  0  0  0  0
   -3.3330   -0.6370   -0.1620 C   0  0  0  0  0  0  0  0  0  0  0  0
   -2.4180   -1.6220   -0.2170 N   0  0  0  0  0  0  0  0  0  0  0  0
   -1.1030   -1.4370   -0.0740 C   0  0  0  0  0  0  0  0  0  0  0  0
  1  2  2  0
  2  3  1  0
  2 22  1  0
  3  4  1  0
  4  5  2  0
  5  6  1  0
  5 12  1  0
  6  7  2  0
  6 11  1  0
  7  8  1  0
  8  9  2  0
  9 10  1  0
  9 11  1  0
 12 13  1  0
 13 14  2  0
 13 22  1  0
 14 15  1  0
 15 16  1  0
 15 20  2  0
 16 17  1  0
 16 18  2  0
 18 19  1  0
 19 20  1  0
 20 21  1  0
 21 22  2  0
M  END
