
     RDKit          3D

 22 24  0  0  0  0  0  0  0  0999 V2000
    5.3000    1.3960    0.1000 C   0  0  0  0  0  0  0  0  0  0  0  0
    4.7790    0.1840    0.0620 C   0  0  0  0  0  0  0  0  0  0  0  0
    3.3470   -0.1200   -0.0190 C   0  0  0  0  0  0  0  0  0  0  0  0
    2.2290    0.6390    0.2680 C   0  0  0  0  0  0  0  0  0  0  0  0
    0.9920    0.0870    0.0970 N   0  0  0  0  0  0  0  0  0  0  0  0
    0.9300   -1.1870   -0.3490 C   0  0  0  0  0  0  0  0  0  0  0  0
   -0.3440   -1.7980   -0.5400 N   0  0  0  0  0  0  0  0  0  0  0  0
   -1.5540   -1.1190   -0.2790 C   0  0  0  0  0  0  0  0  0  0  0  0
   -1.5050    0.1440    0.1640 N   0  0  0  0  0  0  0  0  0  0  0  0
   -2.6380    0.8400    0.4300 C   0  0  0  0  0  0  0  0  0  0  0  0
   -2.5890    2.2330    0.9180 C   0  0  0  0  0  0  0  0  0  0  0  0
   -3.8470    0.2190    0.2340 C   0  0  0  0  0  0  0  0  0  0  0  0
   -5.0860    0.9750    0.5230 C   0  0  0  0  0  0  0  0  0  0  0  0
   -3.8960   -1.0730   -0.2190 C   0  0  0  0  0  0  0  0  0  0  0  0
   -5.1290   -1.6780   -0.4080 O   0  0  0  0  0  0  0  0  0  0  0  0
   -2.7340   -1.7190   -0.4680 N   0  0  0  0  0  0  0  0  0  0  0  0
    2.0240   -1.9120   -0.6240 N   0  0  0  0  0  0  0  0  0  0  0  0
    3.2730   -1.4210   -0.4750 C   0  0  0  0  0  0  0  0  0  0  0  0
    4.5490   -1.9180   -0.6730 O   0  0  0  0  0  0  0  0  0  0  0  0
    5.4440   -1.1410    0.0870 C   0  0  2  0  0  0  0  0  0  0  0  0
    5.4050   -1.7580    1.7510 Cl  0  0  0  0  0  0  0  0  0  0  0  0
    7.2180   -1.1060   -0.6310 Br  0  0  0  0  0  0  0  0  0  0  0  0
  1  2  2  0
  2  3  1  0
  2 20  1  0
  3  4  2  0
  3 18  1  0
  4  5  1  0
  5  6  2  0
  6  7  1  0
  6 17  1  0
  7  8  1  0
  8  9  2  0
  8 16  1  0
  9 10  1  0
 10 11  1  0
 10 12  2  0
 12 13  1  0
 12 14  1  0
 14 15  1  0
 14 16  2  0
 17 18  2  0
 18 19  1  0
 19 20  1  0
 20 21  1  1
 20 22  1  0
M  END
