
     RDKit          3D

 25 27  0  0  0  0  0  0  0  0999 V2000
   -0.2740   -2.7950   -2.2340 C   0  0  0  0  0  0  0  0  0  0  0  0
   -1.4550   -2.0150   -1.7340 C   0  0  0  0  0  0  0  0  0  0  0  0
   -2.6060   -2.0560   -2.3350 O   0  0  0  0  0  0  0  0  0  0  0  0
   -3.6280   -1.3690   -1.8850 C   0  0  0  0  0  0  0  0  0  0  0  0
   -4.7570   -1.4080   -2.4740 O   0  0  0  0  0  0  0  0  0  0  0  0
   -3.5200   -0.5920   -0.7770 C   0  0  0  0  0  0  0  0  0  0  0  0
   -4.4340    0.2090   -0.1210 C   0  0  0  0  0  0  0  0  0  0  0  0
   -5.8590    0.4190   -0.5110 C   0  0  0  0  0  0  0  0  0  0  0  0
   -3.7580    0.7590    0.9490 C   0  0  0  0  0  0  0  0  0  0  0  0
   -4.3440    1.6940    1.9440 C   0  0  0  0  0  0  0  0  0  0  0  0
   -4.5290    3.4740    1.2090 Br  0  0  0  0  0  0  0  0  0  0  0  0
   -2.4750    0.2950    0.9260 N   0  0  0  0  0  0  0  0  0  0  0  0
   -2.3190   -0.5210   -0.1100 C   0  0  0  0  0  0  0  0  0  0  0  0
   -1.2520   -1.2470   -0.5930 C   0  0  0  0  0  0  0  0  0  0  0  0
    0.0480   -1.2220    0.0610 C   0  0  0  0  0  0  0  0  0  0  0  0
    0.2730   -2.0720    0.9590 O   0  0  0  0  0  0  0  0  0  0  0  0
    1.0530   -0.3220   -0.2420 O   0  0  0  0  0  0  0  0  0  0  0  0
    2.3110   -0.3150    0.4060 C   0  0  0  0  0  0  0  0  0  0  0  0
    3.1300    0.8140   -0.2020 C   0  0  0  0  0  0  0  0  0  0  0  0
    4.4500    0.8800    0.4250 N   0  0  0  0  0  0  0  0  0  0  0  0
    4.6470    1.7040    1.6280 C   0  0  0  0  0  0  0  0  0  0  0  0
    6.2700    2.4470    1.1860 S   0  0  0  0  0  0  0  0  0  0  0  0
    6.8460    1.0800    0.1100 C   0  0  0  0  0  0  0  0  0  0  0  0
    5.6320    0.2330    0.0460 C   0  0  0  0  0  0  0  0  0  0  0  0
    5.6500   -0.9930   -0.3250 O   0  0  0  0  0  0  0  0  0  0  0  0
  1  2  1  0
  2  3  1  0
  2 14  2  0
  3  4  1  0
  4  5  2  0
  4  6  1  0
  6  7  1  0
  6 13  2  0
  7  8  1  0
  7  9  2  0
  9 10  1  0
  9 12  1  0
 10 11  1  0
 12 13  1  0
 13 14  1  0
 14 15  1  0
 15 16  2  0
 15 17  1  0
 17 18  1  0
 18 19  1  0
 19 20  1  0
 20 21  1  0
 20 24  1  0
 21 22  1  0
 22 23  1  0
 23 24  1  0
 24 25  2  0
M  END
