
     RDKit          3D

 25 27  0  0  0  0  0  0  0  0999 V2000
   -2.7700   -2.8230   -0.3330 C   0  0  0  0  0  0  0  0  0  0  0  0
   -3.6420   -1.8910    0.4370 C   0  0  0  0  0  0  0  0  0  0  0  0
   -4.9980   -2.3120    1.4530 S   0  0  0  0  0  0  0  0  0  0  0  0
   -5.4430   -0.6840    1.9590 C   0  0  0  0  0  0  0  0  0  0  0  0
   -4.4980    0.0950    1.2990 C   0  0  0  0  0  0  0  0  0  0  0  0
   -4.2900    1.4150    1.2660 O   0  0  0  0  0  0  0  0  0  0  0  0
   -3.2540    1.6940    0.4860 C   0  0  0  0  0  0  0  0  0  0  0  0
   -2.7570    3.0350    0.2280 C   0  0  0  0  0  0  0  0  0  0  0  0
   -1.7640    3.2910   -0.5780 C   0  0  0  0  0  0  0  0  0  0  0  0
   -1.1970    5.1170   -0.8350 Br  0  0  0  0  0  0  0  0  0  0  0  0
   -2.7770    0.5090   -0.0010 C   0  0  0  0  0  0  0  0  0  0  0  0
   -1.6710    0.2930   -0.8530 N   0  0  0  0  0  0  0  0  0  0  0  0
   -0.3550   -0.0020   -0.3620 C   0  0  0  0  0  0  0  0  0  0  0  0
   -0.2570   -0.0540    0.8910 O   0  0  0  0  0  0  0  0  0  0  0  0
    0.8050   -0.2300   -1.2350 C   0  0  0  0  0  0  0  0  0  0  0  0
    2.0110   -0.5060   -0.5230 N   0  0  0  0  0  0  0  0  0  0  0  0
    2.5710   -1.7400   -0.0850 C   0  0  0  0  0  0  0  0  0  0  0  0
    2.0110   -2.8460   -0.2990 O   0  0  0  0  0  0  0  0  0  0  0  0
    3.7640   -1.4970    0.5730 O   0  0  0  0  0  0  0  0  0  0  0  0
    4.2250   -0.2290    0.2280 C   0  0  2  0  0  0  0  0  0  0  0  0
    5.0220   -0.3480   -1.0490 C   0  0  0  0  0  0  0  0  0  0  0  0
    4.9680    0.4820    1.3110 C   0  0  0  0  0  0  0  0  0  0  0  0
    2.9350    0.4850   -0.0910 C   0  0  0  0  0  0  0  0  0  0  0  0
    2.7160    1.7240    0.0070 O   0  0  0  0  0  0  0  0  0  0  0  0
   -3.6030   -0.5060    0.5430 C   0  0  0  0  0  0  0  0  0  0  0  0
  1  2  1  0
  2  3  1  0
  2 25  2  0
  3  4  1  0
  4  5  2  0
  5  6  1  0
  5 25  1  0
  6  7  1  0
  7  8  1  0
  7 11  2  0
  8  9  2  3
  9 10  1  0
 11 12  1  0
 11 25  1  0
 12 13  1  0
 13 14  2  0
 13 15  1  0
 15 16  1  0
 16 17  1  0
 16 23  1  0
 17 18  2  0
 17 19  1  0
 19 20  1  0
 20 21  1  6
 20 22  1  0
 20 23  1  0
 23 24  2  0
M  END
