
     RDKit          3D

 25 27  0  0  0  0  0  0  0  0999 V2000
    0.1970    2.1640    2.3970 O   0  0  0  0  0  0  0  0  0  0  0  0
   -0.2830    1.1720    1.7210 C   0  0  0  0  0  0  0  0  0  0  0  0
   -1.6690    1.3800    1.2790 C   0  0  0  0  0  0  0  0  0  0  0  0
   -2.4020    0.1470    0.2670 S   0  0  0  0  0  0  0  0  0  0  0  0
   -4.0610    0.4080   -0.1920 C   0  0  0  0  0  0  0  0  0  0  0  0
   -4.7650    1.4500    0.1010 C   0  0  0  0  0  0  0  0  0  0  0  0
   -4.0630    2.9180    1.1190 Br  0  0  0  0  0  0  0  0  0  0  0  0
   -6.1970    1.5640   -0.3200 C   0  0  0  0  0  0  0  0  0  0  0  0
   -6.6470    0.5500   -1.1320 O   0  0  0  0  0  0  0  0  0  0  0  0
   -5.9060   -0.5740   -1.4500 C   0  0  0  0  0  0  0  0  0  0  0  0
   -6.4880   -1.5760   -2.2210 O   0  0  0  0  0  0  0  0  0  0  0  0
   -4.6760   -0.6780   -1.0240 C   0  0  0  0  0  0  0  0  0  0  0  0
   -3.9420   -1.7920   -1.3420 O   0  0  0  0  0  0  0  0  0  0  0  0
    0.5480    0.1010    1.5210 N   0  0  0  0  0  0  0  0  0  0  0  0
    1.9590    0.1370    2.0520 C   0  0  0  0  0  0  0  0  0  0  0  0
    2.7890   -0.7130    1.1360 C   0  0  0  0  0  0  0  0  0  0  0  0
    2.4000   -0.7650   -0.2170 N   0  0  0  0  0  0  0  0  0  0  0  0
    3.0430    0.1520   -1.0970 C   0  0  0  0  0  0  0  0  0  0  0  0
    4.5230   -0.1410   -1.0560 C   0  0  0  0  0  0  0  0  0  0  0  0
    5.5560    0.6600   -1.5490 C   0  0  0  0  0  0  0  0  0  0  0  0
    6.7350   -0.0020   -1.2930 C   0  0  0  0  0  0  0  0  0  0  0  0
    6.4020   -1.1670   -0.6630 C   0  0  0  0  0  0  0  0  0  0  0  0
    5.1060   -1.1990   -0.5500 O   0  0  0  0  0  0  0  0  0  0  0  0
    1.0200   -1.0420   -0.4810 C   0  0  0  0  0  0  0  0  0  0  0  0
    0.2700   -1.1290    0.8460 C   0  0  0  0  0  0  0  0  0  0  0  0
  1  2  2  0
  2  3  1  0
  2 14  1  0
  3  4  1  0
  4  5  1  0
  5  6  2  0
  5 12  1  0
  6  7  1  0
  6  8  1  0
  8  9  1  0
  9 10  1  0
 10 11  1  0
 10 12  2  0
 12 13  1  0
 14 15  1  0
 14 25  1  0
 15 16  1  0
 16 17  1  0
 17 18  1  0
 17 24  1  0
 18 19  1  0
 19 20  2  0
 19 23  1  0
 20 21  1  0
 21 22  2  0
 22 23  1  0
 24 25  1  0
M  END
