
     RDKit          3D

 25 27  0  0  0  0  0  0  0  0999 V2000
   -2.1970    2.2070   -0.0330 O   0  0  0  0  0  0  0  0  0  0  0  0
   -1.6990    2.0360    1.0970 C   0  0  0  0  0  0  0  0  0  0  0  0
   -1.0430    3.4360    2.0290 S   0  0  0  0  0  0  0  0  0  0  0  0
   -1.6480    0.7650    1.6420 O   0  0  0  0  0  0  0  0  0  0  0  0
   -2.1590   -0.2840    0.9020 C   0  0  0  0  0  0  0  0  0  0  0  0
   -3.4810   -0.6580    1.0110 C   0  0  0  0  0  0  0  0  0  0  0  0
   -3.9900   -1.7020    0.2760 C   0  0  0  0  0  0  0  0  0  0  0  0
   -5.3240   -2.1000    0.3670 O   0  0  0  0  0  0  0  0  0  0  0  0
   -3.1260   -2.3600   -0.5760 C   0  0  0  0  0  0  0  0  0  0  0  0
   -3.6570   -3.4200   -1.3190 O   0  0  0  0  0  0  0  0  0  0  0  0
   -1.7880   -1.9890   -0.6930 C   0  0  0  0  0  0  0  0  0  0  0  0
   -1.2810   -0.9430    0.0460 C   0  0  0  0  0  0  0  0  0  0  0  0
    0.0750   -0.5340   -0.0440 N   0  0  0  0  0  0  0  0  0  0  0  0
    1.0540   -0.9440    0.7780 C   0  0  0  0  0  0  0  0  0  0  0  0
    0.8920   -1.7370    1.7260 O   0  0  0  0  0  0  0  0  0  0  0  0
    2.2340   -0.3910    0.4500 N   0  0  0  0  0  0  0  0  0  0  0  0
    3.5260   -0.5360    1.0380 C   0  0  0  0  0  0  0  0  0  0  0  0
    3.8280    0.4510    2.1240 C   0  0  0  0  0  0  0  0  0  0  0  0
    5.6320    0.0510    2.7610 Br  0  0  0  0  0  0  0  0  0  0  0  0
    1.9950    0.4010   -0.6210 C   0  0  0  0  0  0  0  0  0  0  0  0
    2.8270    1.2200   -1.3920 C   0  0  0  0  0  0  0  0  0  0  0  0
    2.2890    1.9210   -2.4430 C   0  0  0  0  0  0  0  0  0  0  0  0
    0.9530    1.8150   -2.7270 C   0  0  0  0  0  0  0  0  0  0  0  0
    0.1140    1.0160   -1.9830 C   0  0  0  0  0  0  0  0  0  0  0  0
    0.6550    0.3140   -0.9300 C   0  0  0  0  0  0  0  0  0  0  0  0
  1  2  2  0
  2  3  1  0
  2  4  1  0
  4  5  1  0
  5  6  2  0
  5 12  1  0
  6  7  1  0
  7  8  1  0
  7  9  2  0
  9 10  1  0
  9 11  1  0
 11 12  2  0
 12 13  1  0
 13 14  1  0
 13 25  1  0
 14 15  2  0
 14 16  1  0
 16 17  1  0
 16 20  1  0
 17 18  1  0
 18 19  1  0
 20 21  2  0
 20 25  1  0
 21 22  1  0
 22 23  2  0
 23 24  1  0
 24 25  2  0
M  END
