
     RDKit          3D

 25 27  0  0  0  0  0  0  0  0999 V2000
    2.2800   -4.4850    0.4760 C   0  0  0  0  0  0  0  0  0  0  0  0
    1.7540   -3.3590   -0.1980 O   0  0  0  0  0  0  0  0  0  0  0  0
    1.7570   -2.1140    0.4020 C   0  0  0  0  0  0  0  0  0  0  0  0
    2.2490   -1.8520    1.6540 C   0  0  0  0  0  0  0  0  0  0  0  0
    2.2460   -0.6110    2.2360 C   0  0  0  0  0  0  0  0  0  0  0  0
    2.6340   -0.0830    3.3760 O   0  0  0  0  0  0  0  0  0  0  0  0
    2.3800    1.2000    3.4030 N   0  0  0  0  0  0  0  0  0  0  0  0
    1.8050    1.5680    2.2600 C   0  0  0  0  0  0  0  0  0  0  0  0
    1.3540    2.9260    1.8700 C   0  0  0  0  0  0  0  0  0  0  0  0
    1.7050    0.4330    1.4900 C   0  0  0  0  0  0  0  0  0  0  0  0
    1.2050    0.1810    0.2230 C   0  0  0  0  0  0  0  0  0  0  0  0
    1.2120   -1.0680   -0.3530 C   0  0  0  0  0  0  0  0  0  0  0  0
    0.7440   -1.2880   -1.6510 N   0  0  0  0  0  0  0  0  0  0  0  0
   -0.8460   -1.2280   -2.2230 S   0  0  1  0  0  0  0  0  0  0  0  0
   -0.8200   -1.6270   -3.7040 O   0  0  0  0  0  0  0  0  0  0  0  0
   -1.6240   -2.3150   -1.5050 O   0  0  0  0  0  0  0  0  0  0  0  0
   -1.6630    0.2880   -2.0730 C   0  0  0  0  0  0  0  0  0  0  0  0
   -1.8710    1.0770   -3.1950 C   0  0  0  0  0  0  0  0  0  0  0  0
   -2.4830    2.3130   -3.0570 C   0  0  0  0  0  0  0  0  0  0  0  0
   -2.7530    3.3760   -4.6340 Br  0  0  0  0  0  0  0  0  0  0  0  0
   -2.8990    2.7960   -1.8340 C   0  0  0  0  0  0  0  0  0  0  0  0
   -2.6900    2.0050   -0.7200 C   0  0  0  0  0  0  0  0  0  0  0  0
   -2.0710    0.7530   -0.8580 C   0  0  0  0  0  0  0  0  0  0  0  0
   -1.8750   -0.0310    0.2590 O   0  0  0  0  0  0  0  0  0  0  0  0
   -2.2930    0.4380    1.5250 C   0  0  0  0  0  0  0  0  0  0  0  0
  1  2  1  0
  2  3  1  0
  3  4  2  0
  3 12  1  0
  4  5  1  0
  5  6  1  0
  5 10  2  0
  6  7  1  0
  7  8  2  0
  8  9  1  0
  8 10  1  0
 10 11  1  0
 11 12  2  0
 12 13  1  0
 14 13  1  1
 14 15  2  0
 14 16  2  0
 14 17  1  0
 17 18  2  0
 17 23  1  0
 18 19  1  0
 19 20  1  0
 19 21  2  0
 21 22  1  0
 22 23  2  0
 23 24  1  0
 24 25  1  0
M  END
