
     RDKit          3D

 22 22  0  0  0  0  0  0  0  0999 V2000
    1.5030   -1.7670    0.1770 C   0  0  0  0  0  0  0  0  0  0  0  0
    0.7340   -0.4750   -0.0740 C   0  0  2  0  0  0  0  0  0  0  0  0
   -0.7220   -0.6470    0.0150 C   0  0  1  0  0  0  0  0  0  0  0  0
   -1.0510   -1.1590    1.3280 O   0  0  0  0  0  0  0  0  0  0  0  0
   -1.5880    0.5820   -0.0710 C   0  0  0  0  0  0  0  0  0  0  0  0
   -1.5040    1.6400    0.9280 C   0  0  1  0  0  0  0  0  0  0  0  0
   -0.2950    2.2600    1.0200 O   0  0  0  0  0  0  0  0  0  0  0  0
   -2.5210    2.7700    0.6010 C   0  0  0  0  0  0  0  0  0  0  0  0
   -2.5180    3.7100    1.6010 O   0  0  0  0  0  0  0  0  0  0  0  0
   -1.3460   -1.6040   -0.9800 C   0  0  1  0  0  0  0  0  0  0  0  0
   -0.8950   -3.0130   -0.9580 C   0  0  0  0  0  0  0  0  0  0  0  0
   -1.6800   -3.6600   -1.9820 O   0  0  0  0  0  0  0  0  0  0  0  0
   -2.8370   -1.6280   -0.8150 C   0  0  0  0  0  0  0  0  0  0  0  0
   -3.5700   -1.3040   -1.7680 O   0  0  0  0  0  0  0  0  0  0  0  0
   -3.4160   -2.0090    0.3910 O   0  0  0  0  0  0  0  0  0  0  0  0
    1.0290   -0.0820   -1.4010 O   0  0  0  0  0  0  0  0  0  0  0  0
    2.3500    0.3930   -1.3190 C   0  0  0  0  0  0  0  0  0  0  0  0
    2.3950    1.0470    0.0210 C   0  0  2  0  0  0  0  0  0  0  0  0
    3.7080    1.0270    0.7160 C   0  0  1  0  0  0  0  0  0  0  0  0
    4.7190    1.6300   -0.0760 O   0  0  0  0  0  0  0  0  0  0  0  0
    3.6920    1.8200    1.8880 O   0  0  0  0  0  0  0  0  0  0  0  0
    1.3320    0.4810    0.7190 O   0  0  0  0  0  0  0  0  0  0  0  0
  2  1  1  1
  2  3  1  0
  2 16  1  0
  2 22  1  0
  3  4  1  1
  3  5  1  0
  3 10  1  0
  5  6  1  0
  6  7  1  6
  6  8  1  0
  8  9  1  0
 10 11  1  1
 10 13  1  0
 11 12  1  0
 13 14  2  0
 13 15  1  0
 16 17  1  0
 18 17  1  6
 18 19  1  0
 18 22  1  0
 19 20  1  6
 19 21  1  0
M  END
