
     RDKit          3D

 22 23  0  0  0  0  0  0  0  0999 V2000
   -6.2680    0.1640   -0.8220 O   0  0  0  0  0  0  0  0  0  0  0  0
   -5.5510    1.2900   -1.1310 C   0  0  0  0  0  0  0  0  0  0  0  0
   -4.0960    1.1930   -0.7440 C   0  0  1  0  0  0  0  0  0  0  0  0
   -3.9430    0.7710    0.7170 C   0  0  0  0  0  0  0  0  0  0  0  0
   -2.6260    0.2850    0.6960 O   0  0  0  0  0  0  0  0  0  0  0  0
   -2.3220   -0.0230   -0.6050 C   0  0  1  0  0  0  0  0  0  0  0  0
   -1.8100   -1.4690   -0.6120 C   0  0  0  0  0  0  0  0  0  0  0  0
   -0.5970   -1.4580    0.2840 C   0  0  2  0  0  0  0  0  0  0  0  0
   -0.9700   -1.0560    1.5420 O   0  0  0  0  0  0  0  0  0  0  0  0
    0.4130   -0.5130   -0.3520 C   0  0  0  0  0  0  0  0  0  0  0  0
    1.7160   -1.1730    0.0130 C   0  0  1  0  0  0  0  0  0  0  0  0
    2.4110   -0.2720    0.8320 O   0  0  0  0  0  0  0  0  0  0  0  0
    3.6380    0.0580    0.2910 C   0  0  2  0  0  0  0  0  0  0  0  0
    4.6140   -0.2960    1.2250 O   0  0  0  0  0  0  0  0  0  0  0  0
    3.7770    1.5450    0.0430 C   0  0  1  0  0  0  0  0  0  0  0  0
    3.6480    2.2810    1.2050 O   0  0  0  0  0  0  0  0  0  0  0  0
    5.1810    1.7510   -0.5360 C   0  0  0  0  0  0  0  0  0  0  0  0
    5.3970    3.1020   -0.8260 O   0  0  0  0  0  0  0  0  0  0  0  0
    1.4360   -2.3550    0.6520 O   0  0  0  0  0  0  0  0  0  0  0  0
    0.1590   -2.7600    0.2710 C   0  0  1  0  0  0  0  0  0  0  0  0
   -0.3260   -3.5620    1.3180 O   0  0  0  0  0  0  0  0  0  0  0  0
   -3.4420    0.1390   -1.3790 O   0  0  0  0  0  0  0  0  0  0  0  0
  1  2  1  0
  3  2  1  6
  3  4  1  0
  3 22  1  0
  4  5  1  0
  5  6  1  0
  6  7  1  1
  6 22  1  0
  7  8  1  0
  8  9  1  1
  8 10  1  0
  8 20  1  0
 10 11  1  0
 11 12  1  1
 11 19  1  0
 12 13  1  0
 13 14  1  1
 13 15  1  0
 15 16  1  1
 15 17  1  0
 17 18  1  0
 19 20  1  0
 20 21  1  1
M  END
