
     RDKit          3D

 20 21  0  0  0  0  0  0  0  0999 V2000
    6.3690    0.1180    0.0040 N   0  0  0  0  0  0  0  0  0  0  0  0
    5.0900   -0.1270    0.5630 C   0  0  0  0  0  0  0  0  0  0  0  0
    4.9880   -0.3560    1.7950 O   0  0  0  0  0  0  0  0  0  0  0  0
    3.8920   -0.1310   -0.2030 N   0  0  0  0  0  0  0  0  0  0  0  0
    2.6200   -0.3780    0.3730 C   0  0  0  0  0  0  0  0  0  0  0  0
    2.5440   -0.6040    1.6050 O   0  0  0  0  0  0  0  0  0  0  0  0
    1.3960   -0.3810   -0.4130 C   0  0  0  0  0  0  0  0  0  0  0  0
    1.4870   -0.1540   -1.6460 O   0  0  0  0  0  0  0  0  0  0  0  0
    0.1210   -0.6230    0.1280 N   0  0  0  0  0  0  0  0  0  0  0  0
   -1.0860   -0.6240   -0.6630 C   0  0  1  0  0  0  0  0  0  0  0  0
   -1.8670   -2.2760   -0.4730 S   0  0  0  0  0  0  0  0  0  0  0  0
   -3.2240   -1.7920    0.6660 C   0  0  0  0  0  0  0  0  0  0  0  0
   -2.7500   -0.4300    1.1000 C   0  0  0  0  0  0  0  0  0  0  0  0
   -2.1560    0.2580   -0.0870 C   0  0  1  0  0  0  0  0  0  0  0  0
   -1.6310    1.4960    0.3580 O   0  0  0  0  0  0  0  0  0  0  0  0
   -2.5170    2.5070    0.0190 C   0  0  0  0  0  0  0  0  0  0  0  0
   -2.5030    3.7180    0.4360 O   0  0  0  0  0  0  0  0  0  0  0  0
   -3.4810    1.9980   -0.8890 N   0  0  0  0  0  0  0  0  0  0  0  0
   -3.1640    0.6320   -1.1040 C   0  0  0  0  0  0  0  0  0  0  0  0
   -3.6440   -0.1130   -1.9840 O   0  0  0  0  0  0  0  0  0  0  0  0
  1  2  1  0
  2  3  2  0
  2  4  1  0
  4  5  1  0
  5  6  2  0
  5  7  1  0
  7  8  2  0
  7  9  1  0
 10  9  1  1
 10 11  1  0
 10 14  1  0
 11 12  1  0
 12 13  1  0
 14 13  1  1
 14 15  1  0
 14 19  1  0
 15 16  1  0
 16 17  2  0
 16 18  1  0
 18 19  1  0
 19 20  2  0
M  END
