
     RDKit          3D

 22 22  0  0  0  0  0  0  0  0999 V2000
   -4.1460    0.8090    1.6540 O   0  0  0  0  0  0  0  0  0  0  0  0
   -3.4710    1.8460    1.6830 C   0  0  0  0  0  0  0  0  0  0  0  0
   -4.1530    3.0090    2.0650 O   0  0  0  0  0  0  0  0  0  0  0  0
   -2.1700    1.7920    1.3560 O   0  0  0  0  0  0  0  0  0  0  0  0
   -1.3020    0.8550    0.9530 C   0  0  0  0  0  0  0  0  0  0  0  0
   -1.3690    0.2120   -0.3950 C   0  0  1  0  0  0  0  0  0  0  0  0
   -1.2320    1.2890   -1.4970 C   0  0  0  0  0  0  0  0  0  0  0  0
   -0.0290    1.9760   -1.3990 O   0  0  0  0  0  0  0  0  0  0  0  0
   -0.1530   -0.7050   -0.5890 C   0  0  1  0  0  0  0  0  0  0  0  0
    0.6090   -0.8070    0.5770 O   0  0  0  0  0  0  0  0  0  0  0  0
    1.9020   -0.3640    0.3490 C   0  0  0  0  0  0  0  0  0  0  0  0
    2.7660   -0.4670    1.5850 C   0  0  2  0  0  0  0  0  0  0  0  0
    2.1690    0.3250    2.5650 O   0  0  0  0  0  0  0  0  0  0  0  0
    4.1300    0.0950    1.3180 C   0  0  0  0  0  0  0  0  0  0  0  0
    4.8520   -0.6270    0.2040 C   0  0  0  0  0  0  0  0  0  0  0  0
    6.1010   -0.0210    0.0480 O   0  0  0  0  0  0  0  0  0  0  0  0
   -0.5750   -1.9960   -0.8910 O   0  0  0  0  0  0  0  0  0  0  0  0
   -1.2770   -2.0360   -2.0990 C   0  0  0  0  0  0  0  0  0  0  0  0
   -2.6070   -1.3460   -1.9590 C   0  0  2  0  0  0  0  0  0  0  0  0
   -2.9820   -0.5780   -3.0320 O   0  0  0  0  0  0  0  0  0  0  0  0
   -2.6090   -0.5920   -0.6280 C   0  0  1  0  0  0  0  0  0  0  0  0
   -2.8000   -1.5650    0.3390 O   0  0  0  0  0  0  0  0  0  0  0  0
  1  2  2  0
  2  3  1  0
  2  4  1  0
  4  5  1  0
  6  5  1  1
  6  7  1  0
  6  9  1  0
  6 21  1  0
  7  8  1  0
  9 10  1  1
  9 17  1  0
 10 11  1  0
 11 12  1  0
 12 13  1  1
 12 14  1  0
 14 15  1  0
 15 16  1  0
 17 18  1  0
 18 19  1  0
 19 20  1  6
 19 21  1  0
 21 22  1  1
M  END
