
     RDKit          3D

 21 22  0  0  0  0  0  0  0  0999 V2000
   -0.8710    2.1650   -0.9160 N   0  0  0  0  0  0  0  0  0  0  0  0
   -1.5790    1.0090   -0.4730 C   0  0  0  0  0  0  0  0  0  0  0  0
   -2.7610    1.2940    0.0400 C   0  0  0  0  0  0  0  0  0  0  0  0
   -3.7610    0.3960    0.5910 C   0  0  0  0  0  0  0  0  0  0  0  0
   -4.6730    0.9720    1.4810 O   0  0  0  0  0  0  0  0  0  0  0  0
   -3.9390   -0.8660    0.3840 N   0  0  0  0  0  0  0  0  0  0  0  0
   -3.0970   -1.9890   -0.6010 S   0  0  2  0  0  0  0  0  0  0  0  0
   -3.6900   -2.0360   -1.9780 O   0  0  0  0  0  0  0  0  0  0  0  0
   -3.1490   -3.3310    0.0680 O   0  0  0  0  0  0  0  0  0  0  0  0
   -1.4220   -1.4650   -0.7170 C   0  0  0  0  0  0  0  0  0  0  0  0
   -0.8980   -0.2580   -0.6570 C   0  0  0  0  0  0  0  0  0  0  0  0
    0.5030   -0.1950   -0.7880 N   0  0  0  0  0  0  0  0  0  0  0  0
    1.3690    0.3320    0.2030 C   0  0  0  0  0  0  0  0  0  0  0  0
    0.8720    0.7710    1.2630 O   0  0  0  0  0  0  0  0  0  0  0  0
    2.8170    0.3420   -0.0520 C   0  0  1  0  0  0  0  0  0  0  0  0
    3.5620    0.8870    1.0020 O   0  0  0  0  0  0  0  0  0  0  0  0
    4.8580    0.3620    0.9120 C   0  0  0  0  0  0  0  0  0  0  0  0
    5.9200    0.8530    1.3890 O   0  0  0  0  0  0  0  0  0  0  0  0
    4.7870   -0.8530    0.1720 N   0  0  0  0  0  0  0  0  0  0  0  0
    3.3960   -1.0230   -0.1710 C   0  0  0  0  0  0  0  0  0  0  0  0
    2.8340   -2.0880   -0.4910 O   0  0  0  0  0  0  0  0  0  0  0  0
  1  2  1  0
  2  3  2  0
  2 11  1  0
  3  4  1  0
  4  5  1  0
  4  6  2  0
  6  7  1  0
  7  8  2  0
  7  9  2  0
  7 10  1  6
 10 11  2  0
 11 12  1  0
 12 13  1  0
 13 14  2  0
 15 13  1  1
 15 16  1  0
 15 20  1  0
 16 17  1  0
 17 18  2  0
 17 19  1  0
 19 20  1  0
 20 21  2  0
M  END
