
     RDKit          3D

 21 22  0  0  0  0  0  0  0  0999 V2000
    0.7880    1.4080    2.3110 O   0  0  0  0  0  0  0  0  0  0  0  0
    1.5010    0.7270    1.5280 C   0  0  0  0  0  0  0  0  0  0  0  0
    2.8640    0.5260    1.7160 O   0  0  0  0  0  0  0  0  0  0  0  0
    3.6940   -0.0410    0.7050 C   0  0  0  0  0  0  0  0  0  0  0  0
    3.5630    0.8250   -0.5480 C   0  0  1  0  0  0  0  0  0  0  0  0
    4.5150    0.3220   -1.6080 C   0  0  0  0  0  0  0  0  0  0  0  0
    5.8010    0.4130   -1.0780 O   0  0  0  0  0  0  0  0  0  0  0  0
    1.8360    0.7410   -1.1050 S   0  0  0  0  0  0  0  0  0  0  0  0
    0.8960    0.0840    0.3250 C   0  0  2  0  0  0  0  0  0  0  0  0
   -0.5130    0.4080    0.2060 N   0  0  0  0  0  0  0  0  0  0  0  0
   -1.4720   -0.5960    0.0990 C   0  0  0  0  0  0  0  0  0  0  0  0
   -1.0220   -1.7980    0.1140 O   0  0  0  0  0  0  0  0  0  0  0  0
   -2.8750   -0.4460   -0.0240 N   0  0  0  0  0  0  0  0  0  0  0  0
   -3.6590   -1.5510   -0.1180 C   0  0  0  0  0  0  0  0  0  0  0  0
   -3.0820   -2.6690   -0.0900 O   0  0  0  0  0  0  0  0  0  0  0  0
   -4.9950   -1.5080   -0.2370 N   0  0  0  0  0  0  0  0  0  0  0  0
   -5.6490   -0.3380   -0.2700 C   0  0  0  0  0  0  0  0  0  0  0  0
   -6.9000   -0.2780   -0.3810 O   0  0  0  0  0  0  0  0  0  0  0  0
   -4.9010    0.7680   -0.1800 N   0  0  0  0  0  0  0  0  0  0  0  0
   -3.5370    0.7200   -0.0590 C   0  0  0  0  0  0  0  0  0  0  0  0
   -2.9030    1.7960    0.0210 O   0  0  0  0  0  0  0  0  0  0  0  0
  1  2  2  0
  2  3  1  0
  2  9  1  0
  3  4  1  0
  4  5  1  0
  5  6  1  6
  5  8  1  0
  6  7  1  0
  8  9  1  0
  9 10  1  6
 10 11  1  0
 11 12  2  0
 11 13  1  0
 13 14  1  0
 13 20  1  0
 14 15  2  0
 14 16  1  0
 16 17  1  0
 17 18  2  0
 17 19  1  0
 19 20  1  0
 20 21  2  0
M  END
