
     RDKit          3D

 22 22  0  0  0  0  0  0  0  0999 V2000
    5.0740    1.7070    1.7490 O   0  0  0  0  0  0  0  0  0  0  0  0
    4.6590    0.7760    1.0160 C   0  0  0  0  0  0  0  0  0  0  0  0
    5.6000   -0.1560    0.5390 O   0  0  0  0  0  0  0  0  0  0  0  0
    3.2220    0.6550    0.6590 C   0  0  0  0  0  0  0  0  0  0  0  0
    3.0380   -0.5340   -0.2110 C   0  0  2  0  0  0  0  0  0  0  0  0
    3.8070   -0.3600   -1.3590 O   0  0  0  0  0  0  0  0  0  0  0  0
    1.6160   -0.8520   -0.5470 C   0  0  2  0  0  0  0  0  0  0  0  0
    0.8970    0.2360   -1.2710 C   0  0  1  0  0  0  0  0  0  0  0  0
    1.4870    0.5810   -2.4780 O   0  0  0  0  0  0  0  0  0  0  0  0
   -0.5250   -0.2600   -1.4590 C   0  0  0  0  0  0  0  0  0  0  0  0
   -1.1680   -0.2340   -0.0880 C   0  0  1  0  0  0  0  0  0  0  0  0
   -1.7890    1.1440    0.0510 C   0  0  0  0  0  0  0  0  0  0  0  0
   -2.4260    1.3190    1.2590 O   0  0  0  0  0  0  0  0  0  0  0  0
   -2.9530    2.6100    1.2720 C   0  0  0  0  0  0  0  0  0  0  0  0
   -3.6230    2.8790    2.4700 O   0  0  0  0  0  0  0  0  0  0  0  0
   -2.2700   -1.2450    0.0570 C   0  0  1  0  0  0  0  0  0  0  0  0
   -2.8800   -1.0160    1.2900 O   0  0  0  0  0  0  0  0  0  0  0  0
   -3.3050   -1.1960   -1.0110 C   0  0  0  0  0  0  0  0  0  0  0  0
   -4.2350   -2.2210   -0.7040 O   0  0  0  0  0  0  0  0  0  0  0  0
   -0.2350   -0.3720    0.9310 O   0  0  0  0  0  0  0  0  0  0  0  0
    0.7900   -1.2360    0.6510 C   0  0  1  0  0  0  0  0  0  0  0  0
    0.3940   -2.5780    0.6020 O   0  0  0  0  0  0  0  0  0  0  0  0
  1  2  2  0
  2  3  1  0
  2  4  1  0
  4  5  1  0
  5  6  1  6
  7  5  1  1
  7  8  1  0
  7 21  1  0
  8  9  1  6
  8 10  1  0
 10 11  1  0
 11 12  1  1
 11 16  1  0
 11 20  1  0
 12 13  1  0
 13 14  1  0
 14 15  1  0
 16 17  1  1
 16 18  1  0
 18 19  1  0
 20 21  1  0
 21 22  1  6
M  END
