
     RDKit          3D

 22 23  0  0  0  0  0  0  0  0999 V2000
    5.3300    1.9440   -0.0000 O   0  0  0  0  0  0  0  0  0  0  0  0
    4.4080    1.8210    0.8170 C   0  0  0  0  0  0  0  0  0  0  0  0
    4.1900    2.8300    1.7430 O   0  0  0  0  0  0  0  0  0  0  0  0
    3.5130    0.6400    0.8600 C   0  0  2  0  0  0  0  0  0  0  0  0
    2.7340    0.4890   -0.4540 C   0  0  0  0  0  0  0  0  0  0  0  0
    1.9590   -0.8210   -0.2790 C   0  0  2  0  0  0  0  0  0  0  0  0
    2.8520   -1.7230    0.2930 O   0  0  0  0  0  0  0  0  0  0  0  0
    1.5890   -1.3120   -1.6450 C   0  0  0  0  0  0  0  0  0  0  0  0
    0.9920   -2.5480   -1.6500 O   0  0  0  0  0  0  0  0  0  0  0  0
    0.8060   -0.6120    0.6390 C   0  0  2  0  0  0  0  0  0  0  0  0
   -0.2990   -0.0220    0.0450 O   0  0  0  0  0  0  0  0  0  0  0  0
   -1.3990   -0.8330    0.1630 C   0  0  0  0  0  0  0  0  0  0  0  0
   -2.6060   -0.1700   -0.4950 C   0  0  1  0  0  0  0  0  0  0  0  0
   -2.3730    0.0630   -1.8530 O   0  0  0  0  0  0  0  0  0  0  0  0
   -3.8540   -0.9820   -0.3040 C   0  0  0  0  0  0  0  0  0  0  0  0
   -4.6650   -0.3020    0.5900 O   0  0  0  0  0  0  0  0  0  0  0  0
   -4.4320    1.0430    0.3780 C   0  0  1  0  0  0  0  0  0  0  0  0
   -4.7650    1.8280    1.4850 O   0  0  0  0  0  0  0  0  0  0  0  0
   -2.9360    1.1310    0.1790 C   0  0  0  0  0  0  0  0  0  0  0  0
    1.2810    0.2040    1.7920 C   0  0  0  0  0  0  0  0  0  0  0  0
    0.4900    0.4200    2.7450 O   0  0  0  0  0  0  0  0  0  0  0  0
    2.5470    0.7400    1.8770 O   0  0  0  0  0  0  0  0  0  0  0  0
  1  2  2  0
  2  3  1  0
  4  2  1  6
  4  5  1  0
  4 22  1  0
  5  6  1  0
  6  7  1  1
  6  8  1  0
  6 10  1  0
  8  9  1  0
 10 11  1  6
 10 20  1  0
 11 12  1  0
 12 13  1  0
 13 14  1  6
 13 15  1  0
 13 19  1  0
 15 16  1  0
 16 17  1  0
 17 18  1  1
 17 19  1  0
 20 21  2  0
 20 22  1  0
M  END
