
     RDKit          3D

 25 27  0  0  0  0  0  0  0  0999 V2000
   -3.6180    3.7500   -0.9890 C   0  0  0  0  0  0  0  0  0  0  0  0
   -2.4380    3.1600   -0.4040 N   0  0  0  0  0  0  0  0  0  0  0  0
   -2.3770    1.7570   -0.2190 C   0  0  0  0  0  0  0  0  0  0  0  0
   -3.4780    1.0130   -0.6290 C   0  0  0  0  0  0  0  0  0  0  0  0
   -3.4830   -0.3520   -0.4800 C   0  0  0  0  0  0  0  0  0  0  0  0
   -4.3430   -1.2940   -0.7610 O   0  0  0  0  0  0  0  0  0  0  0  0
   -3.8530   -2.4360   -0.4160 N   0  0  0  0  0  0  0  0  0  0  0  0
   -2.6300   -2.2940    0.1150 C   0  0  0  0  0  0  0  0  0  0  0  0
   -1.7230   -3.3550    0.6370 C   0  0  0  0  0  0  0  0  0  0  0  0
   -2.3860   -0.9460    0.0750 C   0  0  0  0  0  0  0  0  0  0  0  0
   -1.2750   -0.2030    0.4900 C   0  0  0  0  0  0  0  0  0  0  0  0
   -1.2680    1.1690    0.3420 C   0  0  0  0  0  0  0  0  0  0  0  0
   -0.1140    1.9120    0.7840 N   0  0  0  0  0  0  0  0  0  0  0  0
    1.3130    1.1350    1.3120 S   0  0  2  0  0  0  0  0  0  0  0  0
    0.9700    0.2300    2.4780 O   0  0  0  0  0  0  0  0  0  0  0  0
    2.3020    2.1850    1.7330 O   0  0  0  0  0  0  0  0  0  0  0  0
    2.0630    0.1650    0.0960 C   0  0  0  0  0  0  0  0  0  0  0  0
    1.5530    0.0720   -1.1670 C   0  0  0  0  0  0  0  0  0  0  0  0
    2.2090   -0.7270   -2.1110 C   0  0  0  0  0  0  0  0  0  0  0  0
    1.5120   -0.8760   -3.8970 Br  0  0  0  0  0  0  0  0  0  0  0  0
    3.3490   -1.4260   -1.8250 C   0  0  0  0  0  0  0  0  0  0  0  0
    3.8620   -1.3250   -0.5340 C   0  0  0  0  0  0  0  0  0  0  0  0
    3.2110   -0.5360    0.3920 C   0  0  0  0  0  0  0  0  0  0  0  0
    3.7520   -0.4610    1.6650 O   0  0  0  0  0  0  0  0  0  0  0  0
    4.9270   -1.1560    2.0290 C   0  0  0  0  0  0  0  0  0  0  0  0
  1  2  1  0
  2  3  1  0
  3  4  2  0
  3 12  1  0
  4  5  1  0
  5  6  1  0
  5 10  2  0
  6  7  1  0
  7  8  2  0
  8  9  1  0
  8 10  1  0
 10 11  1  0
 11 12  2  0
 12 13  1  0
 14 13  1  6
 14 15  2  0
 14 16  2  0
 14 17  1  0
 17 18  2  0
 17 23  1  0
 18 19  1  0
 19 20  1  0
 19 21  2  0
 21 22  1  0
 22 23  2  0
 23 24  1  0
 24 25  1  0
M  END
