
     RDKit          3D

 22 23  0  0  0  0  0  0  0  0999 V2000
    4.3470    0.1220    2.5220 O   0  0  0  0  0  0  0  0  0  0  0  0
    4.8520    0.3430    1.3990 C   0  0  0  0  0  0  0  0  0  0  0  0
    6.3100    0.5720    1.3070 C   0  0  0  0  0  0  0  0  0  0  0  0
    6.6600    0.7960   -0.0030 O   0  0  0  0  0  0  0  0  0  0  0  0
    4.0710    0.3740    0.2780 O   0  0  0  0  0  0  0  0  0  0  0  0
    2.6590    0.1610    0.3030 C   0  0  0  0  0  0  0  0  0  0  0  0
    2.1540    0.2720   -1.1200 C   0  0  0  0  0  0  0  0  0  0  0  0
    0.7840    0.0820   -1.2260 O   0  0  0  0  0  0  0  0  0  0  0  0
    0.3400   -1.1400   -0.7990 C   0  0  2  0  0  0  0  0  0  0  0  0
   -0.2270   -1.7870   -1.9220 O   0  0  0  0  0  0  0  0  0  0  0  0
   -1.3960   -1.0040   -2.0730 C   0  0  0  0  0  0  0  0  0  0  0  0
   -2.0050   -1.1310   -0.7140 C   0  0  1  0  0  0  0  0  0  0  0  0
   -0.7940   -1.0600    0.1930 C   0  0  1  0  0  0  0  0  0  0  0  0
   -0.7490   -2.1470    1.0680 O   0  0  0  0  0  0  0  0  0  0  0  0
   -0.8830    0.1530    0.8260 O   0  0  0  0  0  0  0  0  0  0  0  0
   -2.2410    0.3870    1.0400 C   0  0  1  0  0  0  0  0  0  0  0  0
   -2.4510    1.8030    1.4950 C   0  0  0  0  0  0  0  0  0  0  0  0
   -3.7680    2.1020    1.7250 O   0  0  0  0  0  0  0  0  0  0  0  0
   -2.8180    0.1100   -0.3250 C   0  0  1  0  0  0  0  0  0  0  0  0
   -2.6080    1.1330   -1.2270 O   0  0  0  0  0  0  0  0  0  0  0  0
   -4.2530   -0.3090   -0.2940 C   0  0  0  0  0  0  0  0  0  0  0  0
   -4.4130   -1.3330    0.6200 O   0  0  0  0  0  0  0  0  0  0  0  0
  1  2  2  0
  2  3  1  0
  2  5  1  0
  3  4  1  0
  5  6  1  0
  6  7  1  0
  7  8  1  0
  9  8  1  6
  9 10  1  0
  9 13  1  0
 10 11  1  0
 12 11  1  6
 12 13  1  0
 12 19  1  0
 13 14  1  1
 13 15  1  0
 15 16  1  0
 16 17  1  6
 16 19  1  0
 17 18  1  0
 19 20  1  6
 19 21  1  0
 21 22  1  0
M  END
