
     RDKit          3D

 16 16  0  0  0  0  0  0  0  0999 V2000
   -5.6450    1.2600   -0.3090 C   0  0  0  0  0  0  0  0  0  0  0  0
   -4.2350    1.3390    0.2360 C   0  0  0  0  0  0  0  0  0  0  0  0
   -3.3430    0.4990   -0.6280 C   0  0  2  0  0  0  0  0  0  0  0  0
   -3.8280   -0.9320   -0.6040 C   0  0  0  0  0  0  0  0  0  0  0  0
   -3.8110   -1.4350    0.6850 O   0  0  0  0  0  0  0  0  0  0  0  0
   -1.8880    0.6390   -0.3530 C   0  0  0  0  0  0  0  0  0  0  0  0
   -1.4650    0.2780    1.0310 C   0  0  0  0  0  0  0  0  0  0  0  0
    0.0340    0.4650    1.1950 C   0  0  0  0  0  0  0  0  0  0  0  0
    0.8150   -0.3970    0.2390 C   0  0  0  0  0  0  0  0  0  0  0  0
    2.2880   -0.1350    0.4880 C   0  0  0  0  0  0  0  0  0  0  0  0
    3.0980   -0.9180   -0.3830 O   0  0  0  0  0  0  0  0  0  0  0  0
    4.4730   -0.7720   -0.2570 C   0  0  0  0  0  0  0  0  0  0  0  0
    5.3620   -0.9060   -1.2250 C   0  0  0  0  0  0  0  0  0  0  0  0
    6.7120   -0.6690   -0.6750 C   0  0  0  0  0  0  0  0  0  0  0  0
    6.4840   -0.3790    0.7460 C   0  0  0  0  0  0  0  0  0  0  0  0
    5.1860   -0.4440    0.9620 C   0  0  0  0  0  0  0  0  0  0  0  0
  1  2  1  0
  3  2  1  1
  3  4  1  0
  3  6  1  0
  4  5  1  0
  6  7  1  0
  7  8  1  0
  8  9  1  0
  9 10  1  0
 10 11  1  0
 11 12  1  0
 12 13  2  0
 12 16  1  0
 13 14  1  0
 14 15  1  0
 15 16  2  0
M  END
