
     RDKit          3D

 28 31  0  0  0  0  0  0  0  0999 V2000
   -3.8550   -3.1310    1.2400 C   0  0  0  0  0  0  0  0  0  0  0  0
   -3.0460   -2.5780    0.0840 C   0  0  0  0  0  0  0  0  0  0  0  0
   -3.3200   -1.1290   -0.0840 N   0  0  0  0  0  0  0  0  0  0  0  0
   -4.6130   -0.7670   -0.5240 C   0  0  0  0  0  0  0  0  0  0  0  0
   -4.8780   -1.1780   -1.9670 C   0  0  0  0  0  0  0  0  0  0  0  0
   -2.2430   -0.2630    0.1800 C   0  0  0  0  0  0  0  0  0  0  0  0
   -0.9650   -0.7870    0.2550 N   0  0  0  0  0  0  0  0  0  0  0  0
    0.1260   -0.0660    0.4690 C   0  0  0  0  0  0  0  0  0  0  0  0
    1.4730   -0.7380    0.5170 C   0  0  0  0  0  0  0  0  0  0  0  0
    2.3990    0.1770   -0.0230 O   0  0  0  0  0  0  0  0  0  0  0  0
    3.7300   -0.1840   -0.1260 C   0  0  0  0  0  0  0  0  0  0  0  0
    4.2530   -1.3910    0.2630 C   0  0  0  0  0  0  0  0  0  0  0  0
    5.6000   -1.6660    0.1210 C   0  0  0  0  0  0  0  0  0  0  0  0
    6.4180   -0.7030   -0.4220 C   0  0  0  0  0  0  0  0  0  0  0  0
    7.7320   -0.6580   -0.6900 N   0  0  0  0  0  0  0  0  0  0  0  0
    8.0480    0.5310   -1.2320 C   0  0  0  0  0  0  0  0  0  0  0  0
    9.1930    0.9320   -1.6130 O   0  0  0  0  0  0  0  0  0  0  0  0
    6.9280    1.2450   -1.3090 N   0  0  0  0  0  0  0  0  0  0  0  0
    5.9090    0.5050   -0.8140 C   0  0  0  0  0  0  0  0  0  0  0  0
    4.5770    0.7820   -0.6750 C   0  0  0  0  0  0  0  0  0  0  0  0
    0.0250    1.2670    0.6300 N   0  0  0  0  0  0  0  0  0  0  0  0
   -1.1600    1.8950    0.5800 C   0  0  0  0  0  0  0  0  0  0  0  0
   -1.2870    3.2530    0.7490 C   0  0  0  0  0  0  0  0  0  0  0  0
   -2.5270    3.8490    0.6960 C   0  0  0  0  0  0  0  0  0  0  0  0
   -3.6230    3.0250    0.4680 C   0  0  0  0  0  0  0  0  0  0  0  0
   -4.8910    3.6750    0.4160 N   0  0  0  0  0  0  0  0  0  0  0  0
   -3.4730    1.7120    0.3070 N   0  0  0  0  0  0  0  0  0  0  0  0
   -2.2920    1.1010    0.3520 C   0  0  0  0  0  0  0  0  0  0  0  0
  1  2  1  0
  2  3  1  0
  3  4  1  0
  3  6  1  0
  4  5  1  0
  6  7  2  0
  6 28  1  0
  7  8  1  0
  8  9  1  0
  8 21  2  0
  9 10  1  0
 10 11  1  0
 11 12  2  0
 11 20  1  0
 12 13  1  0
 13 14  2  0
 14 15  1  0
 14 19  1  0
 15 16  1  0
 16 17  2  0
 16 18  1  0
 18 19  1  0
 19 20  2  0
 21 22  1  0
 22 23  2  0
 22 28  1  0
 23 24  1  0
 24 25  2  0
 25 26  1  0
 25 27  1  0
 27 28  2  0
M  END
