
     RDKit          3D

 26 30  0  0  0  0  0  0  0  0999 V2000
    6.5550    2.2550   -0.7110 C   0  0  0  0  0  0  0  0  0  0  0  0
    5.2440    2.3460   -0.1970 O   0  0  0  0  0  0  0  0  0  0  0  0
    4.5500    1.1860    0.0990 C   0  0  0  0  0  0  0  0  0  0  0  0
    3.2840    1.2800    0.5960 C   0  0  0  0  0  0  0  0  0  0  0  0
    2.5540    0.1420    0.9050 C   0  0  0  0  0  0  0  0  0  0  0  0
    3.0940   -1.1340    0.7160 C   0  0  0  0  0  0  0  0  0  0  0  0
    2.2400   -2.2620    1.0730 C   0  0  0  0  0  0  0  0  0  0  0  0
    1.3850   -2.7370   -0.0570 C   0  0  0  0  0  0  0  0  0  0  0  0
    1.7670   -3.6790   -0.9330 N   0  0  0  0  0  0  0  0  0  0  0  0
    0.8120   -3.9130   -1.8400 N   0  0  0  0  0  0  0  0  0  0  0  0
   -0.1710   -3.0610   -1.4680 C   0  0  0  0  0  0  0  0  0  0  0  0
   -1.8290   -2.4780   -1.8620 S   0  0  0  0  0  0  0  0  0  0  0  0
   -1.8150   -1.2770   -0.4170 C   0  0  0  0  0  0  0  0  0  0  0  0
   -3.0080   -0.4540   -0.2190 C   0  0  0  0  0  0  0  0  0  0  0  0
   -4.1780   -0.4110   -0.9360 C   0  0  0  0  0  0  0  0  0  0  0  0
   -5.0440    0.5170   -0.3960 C   0  0  0  0  0  0  0  0  0  0  0  0
   -6.3150    0.9610   -0.7020 C   0  0  0  0  0  0  0  0  0  0  0  0
   -6.9400    1.9320    0.0480 C   0  0  0  0  0  0  0  0  0  0  0  0
   -6.2550    2.4670    1.1370 C   0  0  0  0  0  0  0  0  0  0  0  0
   -4.9750    2.0120    1.4360 C   0  0  0  0  0  0  0  0  0  0  0  0
   -4.3390    1.0410    0.6930 C   0  0  0  0  0  0  0  0  0  0  0  0
   -3.1260    0.4270    0.7570 N   0  0  0  0  0  0  0  0  0  0  0  0
   -0.7740   -1.5020   -0.0010 N   0  0  0  0  0  0  0  0  0  0  0  0
    0.1360   -2.3420   -0.4070 N   0  0  0  0  0  0  0  0  0  0  0  0
    4.3610   -1.2200    0.2180 C   0  0  0  0  0  0  0  0  0  0  0  0
    5.0800   -0.0690   -0.0870 C   0  0  0  0  0  0  0  0  0  0  0  0
  1  2  1  0
  2  3  1  0
  3  4  2  0
  3 26  1  0
  4  5  1  0
  5  6  2  0
  6  7  1  0
  6 25  1  0
  7  8  1  0
  8  9  2  0
  8 24  1  0
  9 10  1  0
 10 11  2  0
 11 12  1  0
 11 24  1  0
 12 13  1  0
 13 14  1  0
 13 23  2  0
 14 15  2  0
 14 22  1  0
 15 16  1  0
 16 17  2  0
 16 21  1  0
 17 18  1  0
 18 19  2  0
 19 20  1  0
 20 21  2  0
 21 22  1  0
 23 24  1  0
 25 26  2  0
M  END
