
     RDKit          3D

 28 31  0  0  0  0  0  0  0  0999 V2000
    5.5740    3.3360    0.7460 C   0  0  0  0  0  0  0  0  0  0  0  0
    5.8330    2.3070   -0.2470 N   0  0  0  0  0  0  0  0  0  0  0  0
    5.1330    1.0810   -0.1800 C   0  0  0  0  0  0  0  0  0  0  0  0
    4.2080    0.6910    0.7130 N   0  0  0  0  0  0  0  0  0  0  0  0
    3.7930   -0.5430    0.4220 C   0  0  0  0  0  0  0  0  0  0  0  0
    2.7760   -1.3450    1.1600 C   0  0  0  0  0  0  0  0  0  0  0  0
    1.4440   -1.1180    0.6400 N   0  0  0  0  0  0  0  0  0  0  0  0
    0.3740   -1.8220    1.2530 C   0  0  0  0  0  0  0  0  0  0  0  0
    0.5870   -2.6750    2.2890 N   0  0  0  0  0  0  0  0  0  0  0  0
   -0.4220   -3.3440    2.8730 C   0  0  0  0  0  0  0  0  0  0  0  0
   -1.6940   -3.1370    2.3870 C   0  0  0  0  0  0  0  0  0  0  0  0
   -1.9080   -2.2910    1.3600 N   0  0  0  0  0  0  0  0  0  0  0  0
   -0.9090   -1.6150    0.7650 C   0  0  0  0  0  0  0  0  0  0  0  0
   -1.0770   -0.7350   -0.2930 O   0  0  0  0  0  0  0  0  0  0  0  0
   -2.3430   -0.4950   -0.8160 C   0  0  0  0  0  0  0  0  0  0  0  0
   -2.8360   -1.2760   -1.8550 C   0  0  0  0  0  0  0  0  0  0  0  0
   -4.0850   -1.0650   -2.3960 C   0  0  0  0  0  0  0  0  0  0  0  0
   -4.9060   -0.0640   -1.9260 C   0  0  0  0  0  0  0  0  0  0  0  0
   -6.1800    0.3820   -2.2560 C   0  0  0  0  0  0  0  0  0  0  0  0
   -6.4710    1.4290   -1.4280 C   0  0  0  0  0  0  0  0  0  0  0  0
   -5.4110    1.6110   -0.6240 N   0  0  0  0  0  0  0  0  0  0  0  0
   -5.2730    2.6250    0.4280 C   0  0  0  0  0  0  0  0  0  0  0  0
   -4.4320    0.7200   -0.8950 C   0  0  0  0  0  0  0  0  0  0  0  0
   -3.1640    0.5050   -0.3480 C   0  0  0  0  0  0  0  0  0  0  0  0
    4.4570   -0.9440   -0.6650 N   0  0  0  0  0  0  0  0  0  0  0  0
    5.2850    0.0330   -1.0540 C   0  0  0  0  0  0  0  0  0  0  0  0
    6.1930   -0.0270   -2.2200 C   0  0  0  0  0  0  0  0  0  0  0  0
    6.9470    0.8960   -2.5520 O   0  0  0  0  0  0  0  0  0  0  0  0
  1  2  1  0
  2  3  1  0
  3  4  1  0
  3 26  2  0
  4  5  2  0
  5  6  1  0
  5 25  1  0
  6  7  1  0
  7  8  1  0
  8  9  2  0
  8 13  1  0
  9 10  1  0
 10 11  2  0
 11 12  1  0
 12 13  2  0
 13 14  1  0
 14 15  1  0
 15 16  2  0
 15 24  1  0
 16 17  1  0
 17 18  2  0
 18 19  1  0
 18 23  1  0
 19 20  2  0
 20 21  1  0
 21 22  1  0
 21 23  1  0
 23 24  2  0
 25 26  1  0
 26 27  1  0
 27 28  2  0
M  END
