
     RDKit          3D

 28 31  0  0  0  0  0  0  0  0999 V2000
    2.0850    2.1160   -1.2230 C   0  0  0  0  0  0  0  0  0  0  0  0
    0.8720    1.7600   -0.5400 N   0  0  0  0  0  0  0  0  0  0  0  0
    0.7890    0.8460    0.3640 C   0  0  0  0  0  0  0  0  0  0  0  0
   -0.5270    0.6070    0.9630 C   0  0  0  0  0  0  0  0  0  0  0  0
   -1.5840    1.3030    0.5890 C   0  0  0  0  0  0  0  0  0  0  0  0
   -1.4080    2.2930   -0.4150 N   0  0  0  0  0  0  0  0  0  0  0  0
   -2.8250    1.0470    1.1840 N   0  0  0  0  0  0  0  0  0  0  0  0
   -3.7960    0.1960    0.6280 C   0  0  0  0  0  0  0  0  0  0  0  0
   -3.5640   -0.4470   -0.5750 C   0  0  0  0  0  0  0  0  0  0  0  0
   -4.5310   -1.2810   -1.1070 C   0  0  0  0  0  0  0  0  0  0  0  0
   -5.7330   -1.4910   -0.4640 C   0  0  0  0  0  0  0  0  0  0  0  0
   -5.9800   -0.8590    0.7340 C   0  0  0  0  0  0  0  0  0  0  0  0
   -5.0000   -0.0320    1.2450 C   0  0  0  0  0  0  0  0  0  0  0  0
   -7.2600   -1.2250    1.1940 O   0  0  0  0  0  0  0  0  0  0  0  0
   -7.5300   -2.5060    0.6130 C   0  0  0  0  0  0  0  0  0  0  0  0
   -6.9340   -2.3030   -0.7720 C   0  0  0  0  0  0  0  0  0  0  0  0
    1.9030    0.0790    0.7890 N   0  0  0  0  0  0  0  0  0  0  0  0
    2.5320   -0.8890   -0.0810 C   0  0  0  0  0  0  0  0  0  0  0  0
    2.4230    0.2510    2.0940 C   0  0  0  0  0  0  0  0  0  0  0  0
    3.6640    0.3540    2.3490 N   0  0  0  0  0  0  0  0  0  0  0  0
    4.7160    0.3170    1.3980 C   0  0  0  0  0  0  0  0  0  0  0  0
    5.4880   -0.7620    1.1670 N   0  0  0  0  0  0  0  0  0  0  0  0
    6.3820   -0.4570    0.2100 C   0  0  0  0  0  0  0  0  0  0  0  0
    7.4360   -0.8440   -0.5870 C   0  0  0  0  0  0  0  0  0  0  0  0
    7.8280    0.1970   -1.4090 C   0  0  0  0  0  0  0  0  0  0  0  0
    6.9730    1.2440   -1.0870 C   0  0  0  0  0  0  0  0  0  0  0  0
    6.1370    0.8250   -0.1330 N   0  0  0  0  0  0  0  0  0  0  0  0
    5.1420    1.2520    0.5920 O   0  0  0  0  0  0  0  0  0  0  0  0
  1  2  1  0
  2  3  2  3
  3  4  1  0
  3 17  1  0
  4  5  2  3
  5  6  1  0
  5  7  1  0
  7  8  1  0
  8  9  2  0
  8 13  1  0
  9 10  1  0
 10 11  2  0
 11 12  1  0
 11 16  1  0
 12 13  2  0
 12 14  1  0
 14 15  1  0
 15 16  1  0
 17 18  1  0
 17 19  1  0
 19 20  2  3
 20 21  1  0
 21 22  2  0
 21 28  1  0
 22 23  1  0
 23 24  2  0
 23 27  1  0
 24 25  1  0
 25 26  2  0
 26 27  1  0
 27 28  1  0
M  END
