
     RDKit          3D

 16 15  0  0  0  0  0  0  0  0999 V2000
    4.8320   -2.1630    1.4750 C   0  0  0  0  0  0  0  0  0  0  0  0
    3.3250   -2.0480    1.4480 C   0  0  0  0  0  0  0  0  0  0  0  0
    2.9730   -0.7440    0.7710 C   0  0  0  0  0  0  0  0  0  0  0  0
    1.4410   -0.5690    0.7140 C   0  0  0  0  0  0  0  0  0  0  0  0
    1.2780    0.7850    0.0070 C   0  0  0  0  0  0  0  0  0  0  0  0
   -0.1150    1.2190   -0.1650 C   0  0  1  0  0  0  0  0  0  0  0  0
   -0.2620    2.5180   -0.8640 C   0  0  0  0  0  0  0  0  0  0  0  0
    0.3420    3.7210   -0.2760 C   0  0  0  0  0  0  0  0  0  0  0  0
    1.8300    3.7630   -0.1860 C   0  0  0  0  0  0  0  0  0  0  0  0
   -1.0260    0.2090   -0.7770 C   0  0  0  0  0  0  0  0  0  0  0  0
   -0.6160   -0.8670   -1.2310 O   0  0  0  0  0  0  0  0  0  0  0  0
   -2.3790    0.4920   -0.8400 O   0  0  0  0  0  0  0  0  0  0  0  0
   -3.3580   -0.3350   -1.3770 C   0  0  0  0  0  0  0  0  0  0  0  0
   -3.4300   -1.6650   -0.6540 C   0  0  2  0  0  0  0  0  0  0  0  0
   -4.5220   -2.5160   -1.2920 C   0  0  0  0  0  0  0  0  0  0  0  0
   -3.6850   -1.5000    0.8120 C   0  0  0  0  0  0  0  0  0  0  0  0
  1  2  1  0
  2  3  1  0
  3  4  1  0
  4  5  1  0
  6  5  1  6
  6  7  1  0
  6 10  1  0
  7  8  1  0
  8  9  1  0
 10 11  2  0
 10 12  1  0
 12 13  1  0
 13 14  1  0
 14 15  1  6
 14 16  1  0
M  END
