
     RDKit          3D

 28 31  0  0  0  0  0  0  0  0999 V2000
    0.3740    1.7010    2.0710 C   0  0  0  0  0  0  0  0  0  0  0  0
    1.6360    0.8990    2.2080 C   0  0  0  0  0  0  0  0  0  0  0  0
    2.3370    0.9030    3.3970 C   0  0  0  0  0  0  0  0  0  0  0  0
    3.4820    0.1590    3.4840 C   0  0  0  0  0  0  0  0  0  0  0  0
    4.1230    0.1630    4.5700 O   0  0  0  0  0  0  0  0  0  0  0  0
    3.9110   -0.5650    2.4150 N   0  0  0  0  0  0  0  0  0  0  0  0
    3.2300   -0.5710    1.2550 C   0  0  0  0  0  0  0  0  0  0  0  0
    3.7420   -1.3700    0.1460 C   0  0  0  0  0  0  0  0  0  0  0  0
    4.8720   -2.1320    0.1540 N   0  0  0  0  0  0  0  0  0  0  0  0
    5.0410   -2.7070   -1.0110 N   0  0  0  0  0  0  0  0  0  0  0  0
    4.0600   -2.3790   -1.8600 C   0  0  0  0  0  0  0  0  0  0  0  0
    3.8180   -2.7750   -3.2720 C   0  0  0  0  0  0  0  0  0  0  0  0
    3.2270   -1.5250   -1.1220 C   0  0  0  0  0  0  0  0  0  0  0  0
    1.9820   -0.9280   -1.6590 C   0  0  0  0  0  0  0  0  0  0  0  0
    0.8010   -1.7490   -1.1680 C   0  0  0  0  0  0  0  0  0  0  0  0
   -0.4730   -1.1920   -1.6650 C   0  0  0  0  0  0  0  0  0  0  0  0
   -0.4450   -0.1730   -2.3930 O   0  0  0  0  0  0  0  0  0  0  0  0
   -1.7190   -1.7760   -1.3440 N   0  0  0  0  0  0  0  0  0  0  0  0
   -2.9480   -1.2230   -1.8350 C   0  0  0  0  0  0  0  0  0  0  0  0
   -3.3460    0.0060   -1.1070 C   0  0  0  0  0  0  0  0  0  0  0  0
   -4.0930    0.0420    0.0490 C   0  0  0  0  0  0  0  0  0  0  0  0
   -4.2530    1.3270    0.4100 N   0  0  0  0  0  0  0  0  0  0  0  0
   -3.6280    2.0920   -0.4870 C   0  0  0  0  0  0  0  0  0  0  0  0
   -3.0760    1.2890   -1.4110 N   0  0  0  0  0  0  0  0  0  0  0  0
   -3.7800    3.5340   -0.1300 C   0  0  0  0  0  0  0  0  0  0  0  0
   -4.9810    3.5120    0.7980 C   0  0  0  0  0  0  0  0  0  0  0  0
   -4.8700    2.1480    1.4360 C   0  0  0  0  0  0  0  0  0  0  0  0
    2.1160    0.1660    1.2040 N   0  0  0  0  0  0  0  0  0  0  0  0
  1  2  1  0
  2  3  2  0
  2 28  1  0
  3  4  1  0
  4  5  2  0
  4  6  1  0
  6  7  1  0
  7  8  1  0
  7 28  2  0
  8  9  1  0
  8 13  2  0
  9 10  1  0
 10 11  2  0
 11 12  1  0
 11 13  1  0
 13 14  1  0
 14 15  1  0
 15 16  1  0
 16 17  2  0
 16 18  1  0
 18 19  1  0
 19 20  1  0
 20 21  2  0
 20 24  1  0
 21 22  1  0
 22 23  1  0
 22 27  1  0
 23 24  2  0
 23 25  1  0
 25 26  1  0
 26 27  1  0
M  END
