
     RDKit          3D

 14 14  0  0  0  0  0  0  0  0999 V2000
   -2.6740   -1.0640    0.6940 C   0  0  0  0  0  0  0  0  0  0  0  0
   -1.7500   -0.8400   -0.4160 C   0  0  1  0  0  0  0  0  0  0  0  0
   -2.4920   -0.0310   -1.4910 C   0  0  0  0  0  0  0  0  0  0  0  0
   -0.4530   -0.2490   -0.2030 C   0  0  0  0  0  0  0  0  0  0  0  0
   -0.0480    0.2280    0.9450 C   0  0  0  0  0  0  0  0  0  0  0  0
   -1.0080    0.1000    1.9280 O   0  0  0  0  0  0  0  0  0  0  0  0
    1.2300    0.8610    1.3390 C   0  0  0  0  0  0  0  0  0  0  0  0
    1.2090    1.4670    2.5810 O   0  0  0  0  0  0  0  0  0  0  0  0
    2.3580    0.9100    0.6540 C   0  0  0  0  0  0  0  0  0  0  0  0
    2.6140    0.3470   -0.6630 C   0  0  0  0  0  0  0  0  0  0  0  0
    3.9750    0.3180   -1.0860 N   0  0  0  0  0  0  0  0  0  0  0  0
    1.7180   -0.1400   -1.5100 C   0  0  0  0  0  0  0  0  0  0  0  0
    2.2970   -0.5880   -2.6580 F   0  0  0  0  0  0  0  0  0  0  0  0
    0.3290   -0.2460   -1.3790 O   0  0  0  0  0  0  0  0  0  0  0  0
  2  1  1  1
  2  3  1  0
  2  4  1  0
  4  5  2  0
  4 14  1  0
  5  6  1  0
  5  7  1  0
  7  8  1  0
  7  9  2  0
  9 10  1  0
 10 11  1  0
 10 12  2  0
 12 13  1  0
 12 14  1  0
M  END
