
     RDKit          3D

 13 13  0  0  0  0  0  0  0  0999 V2000
    1.9900    1.8290    0.2570 N   0  0  0  0  0  0  0  0  0  0  0  0
    1.2980    1.2550   -0.9060 C   0  0  0  0  0  0  0  0  0  0  0  0
    0.3120    0.2430   -0.5000 C   0  0  0  0  0  0  0  0  0  0  0  0
   -0.9740    0.3200   -0.7420 C   0  0  0  0  0  0  0  0  0  0  0  0
   -1.6890    1.4000   -1.4490 C   0  0  0  0  0  0  0  0  0  0  0  0
   -2.6940    1.9810   -0.4750 C   0  0  0  0  0  0  0  0  0  0  0  0
   -3.4240    3.0140   -1.0500 O   0  0  0  0  0  0  0  0  0  0  0  0
    0.7780   -0.9660    0.2370 C   0  0  0  0  0  0  0  0  0  0  0  0
    2.0530   -1.1510    0.5320 C   0  0  0  0  0  0  0  0  0  0  0  0
    2.4850   -2.2950    1.2280 O   0  0  0  0  0  0  0  0  0  0  0  0
    1.4940   -2.9420    2.0050 C   0  0  0  0  0  0  0  0  0  0  0  0
    0.3380   -3.2020    1.0290 C   0  0  0  0  0  0  0  0  0  0  0  0
   -0.1340   -1.9360    0.6330 O   0  0  0  0  0  0  0  0  0  0  0  0
  1  2  1  0
  2  3  1  0
  3  4  2  3
  3  8  1  0
  4  5  1  0
  5  6  1  0
  6  7  1  0
  8  9  2  0
  8 13  1  0
  9 10  1  0
 10 11  1  0
 11 12  1  0
 12 13  1  0
M  END
