
     RDKit          3D

 14 14  0  0  0  0  0  0  0  0999 V2000
    3.7150   -0.5170   -1.7880 N   0  0  0  0  0  0  0  0  0  0  0  0
    3.3560    0.0450   -0.5060 C   0  0  2  0  0  0  0  0  0  0  0  0
    2.7670   -0.9320    0.4160 C   0  0  0  0  0  0  0  0  0  0  0  0
    1.5940   -0.4790    0.7930 C   0  0  0  0  0  0  0  0  0  0  0  0
    0.7410   -1.1150    1.6560 F   0  0  0  0  0  0  0  0  0  0  0  0
    1.3210    0.8090    0.1570 C   0  0  0  0  0  0  0  0  0  0  0  0
    0.0540    1.5860    0.4010 C   0  0  0  0  0  0  0  0  0  0  0  0
   -1.1220    0.7760   -0.0340 C   0  0  0  0  0  0  0  0  0  0  0  0
   -1.7650    1.0910   -1.0890 O   0  0  0  0  0  0  0  0  0  0  0  0
   -1.5280   -0.3180    0.6910 O   0  0  0  0  0  0  0  0  0  0  0  0
   -2.6280   -1.1380    0.3570 C   0  0  0  0  0  0  0  0  0  0  0  0
   -3.8840   -0.3030    0.4410 C   0  0  0  0  0  0  0  0  0  0  0  0
   -5.0190   -1.0540    0.1140 O   0  0  0  0  0  0  0  0  0  0  0  0
    2.3500    1.1110   -0.6010 C   0  0  0  0  0  0  0  0  0  0  0  0
  2  1  1  6
  2  3  1  0
  2 14  1  0
  3  4  2  0
  4  5  1  0
  4  6  1  0
  6  7  1  0
  6 14  2  0
  7  8  1  0
  8  9  2  0
  8 10  1  0
 10 11  1  0
 11 12  1  0
 12 13  1  0
M  END
