
     RDKit          3D

 14 13  0  0  0  0  0  0  0  0999 V2000
   -0.0300    2.5840    1.6900 C   0  0  0  0  0  0  0  0  0  0  0  0
   -1.1430    2.2910    1.4390 C   0  0  0  0  0  0  0  0  0  0  0  0
   -2.3000    3.1420    1.7150 O   0  0  0  0  0  0  0  0  0  0  0  0
   -1.6220    0.9630    0.7850 C   0  0  0  0  0  0  0  0  0  0  0  0
   -2.8630    0.8810    0.5550 C   0  0  0  0  0  0  0  0  0  0  0  0
   -3.8250    0.0880    0.0650 F   0  0  0  0  0  0  0  0  0  0  0  0
   -0.6230   -0.0320    0.5920 C   0  0  0  0  0  0  0  0  0  0  0  0
    0.5920    0.1360    0.7790 O   0  0  0  0  0  0  0  0  0  0  0  0
   -0.9260   -1.3620    0.1550 N   0  0  0  0  0  0  0  0  0  0  0  0
    0.1820   -2.2660   -0.0160 C   0  0  0  0  0  0  0  0  0  0  0  0
    1.0770   -1.8130   -1.1280 C   0  0  0  0  0  0  0  0  0  0  0  0
    1.7660   -1.4690   -1.9780 C   0  0  0  0  0  0  0  0  0  0  0  0
    2.6800   -1.0040   -3.0940 C   0  0  0  0  0  0  0  0  0  0  0  0
    3.9730   -1.4670   -2.8940 O   0  0  0  0  0  0  0  0  0  0  0  0
  1  2  2  0
  2  3  1  0
  2  4  1  0
  4  5  2  3
  4  7  1  0
  5  6  1  0
  7  8  2  0
  7  9  1  0
  9 10  1  0
 10 11  1  0
 11 12  3  0
 12 13  1  0
 13 14  1  0
M  END
