
     RDKit          3D

 13 13  0  0  0  0  0  0  0  0999 V2000
    3.4220    1.1550    0.6880 C   0  0  0  0  0  0  0  0  0  0  0  0
    3.6740   -0.0410   -0.1800 C   0  0  0  0  0  0  0  0  0  0  0  0
    2.5970   -1.1120    0.0420 C   0  0  0  0  0  0  0  0  0  0  0  0
    1.3410   -0.5010   -0.3000 N   0  0  0  0  0  0  0  0  0  0  0  0
    0.2130   -1.3820   -0.1450 C   0  0  0  0  0  0  0  0  0  0  0  0
   -1.0090   -0.5790   -0.5460 C   0  0  1  0  0  0  0  0  0  0  0  0
   -0.7950   -0.1980   -1.8870 O   0  0  0  0  0  0  0  0  0  0  0  0
   -2.2810   -1.3800   -0.4540 C   0  0  0  0  0  0  0  0  0  0  0  0
   -3.2980   -0.6000   -1.0060 O   0  0  0  0  0  0  0  0  0  0  0  0
   -3.5000    0.5840   -0.3310 C   0  0  0  0  0  0  0  0  0  0  0  0
   -2.4980    0.8120    0.7840 C   0  0  2  0  0  0  0  0  0  0  0  0
   -2.6550    2.1160    1.2430 O   0  0  0  0  0  0  0  0  0  0  0  0
   -1.0710    0.6640    0.2840 C   0  0  0  0  0  0  0  0  0  0  0  0
  1  2  1  0
  2  3  1  0
  3  4  1  0
  4  5  1  0
  5  6  1  0
  6  7  1  6
  6  8  1  0
  6 13  1  0
  8  9  1  0
  9 10  1  0
 10 11  1  0
 11 12  1  6
 11 13  1  0
M  END
