
     RDKit          3D

 10  9  0  0  0  0  0  0  0  0999 V2000
   -2.3390   -0.7650    0.9600 O   0  0  0  0  0  0  0  0  0  0  0  0
   -1.5940    0.3400    0.5080 C   0  0  2  0  0  0  0  0  0  0  0  0
   -1.7320    1.3330    1.4300 F   0  0  0  0  0  0  0  0  0  0  0  0
   -2.1150    0.7610   -0.6950 F   0  0  0  0  0  0  0  0  0  0  0  0
   -0.1690   -0.1380    0.3730 C   0  0  0  0  0  0  0  0  0  0  0  0
    0.6920    0.8480   -0.0670 O   0  0  0  0  0  0  0  0  0  0  0  0
    1.9670    0.2860   -0.1490 C   0  0  1  0  0  0  0  0  0  0  0  0
    2.8830    1.2490   -0.5940 F   0  0  0  0  0  0  0  0  0  0  0  0
    2.4330   -0.1650    1.0570 F   0  0  0  0  0  0  0  0  0  0  0  0
    1.9550   -0.7900   -1.0440 F   0  0  0  0  0  0  0  0  0  0  0  0
  2  1  1  1
  2  3  1  0
  2  4  1  0
  2  5  1  0
  5  6  1  0
  6  7  1  0
  7  8  1  6
  7  9  1  0
  7 10  1  0
M  END
