
     RDKit          3D

 11 10  0  0  0  0  0  0  0  0999 V2000
   -1.5230    1.2530   -0.5700 O   0  0  0  0  0  0  0  0  0  0  0  0
   -0.6390    0.3480    0.0710 C   0  0  2  0  0  0  0  0  0  0  0  0
   -1.0340    0.3370    1.4090 F   0  0  0  0  0  0  0  0  0  0  0  0
    0.5920    0.8420   -0.0330 O   0  0  0  0  0  0  0  0  0  0  0  0
    1.6560    0.2060    0.4810 C   0  0  2  0  0  0  0  0  0  0  0  0
    2.4840    1.0180    1.2680 F   0  0  0  0  0  0  0  0  0  0  0  0
    2.4790   -0.1610   -0.5980 F   0  0  0  0  0  0  0  0  0  0  0  0
   -0.9320   -0.9940   -0.5020 C   0  0  2  0  0  0  0  0  0  0  0  0
   -2.2690   -1.2980   -0.2320 F   0  0  0  0  0  0  0  0  0  0  0  0
   -0.1820   -2.0100   -0.0220 F   0  0  0  0  0  0  0  0  0  0  0  0
   -0.8500   -0.9520   -1.8950 F   0  0  0  0  0  0  0  0  0  0  0  0
  2  1  1  6
  2  3  1  0
  2  4  1  0
  2  8  1  0
  4  5  1  0
  5  6  1  1
  5  7  1  0
  8  9  1  6
  8 10  1  0
  8 11  1  0
M  END
