
     RDKit          3D

 10  9  0  0  0  0  0  0  0  0999 V2000
   -0.1900    0.5020    1.5760 O   0  0  0  0  0  0  0  0  0  0  0  0
    0.3660    0.6400    0.3020 C   0  0  1  0  0  0  0  0  0  0  0  0
    1.0500    1.8750    0.3020 F   0  0  0  0  0  0  0  0  0  0  0  0
    1.3700   -0.4700    0.0950 C   0  0  0  0  0  0  0  0  0  0  0  0
    2.3720   -0.3600    1.0700 F   0  0  0  0  0  0  0  0  0  0  0  0
   -0.5380    0.7250   -0.7110 O   0  0  0  0  0  0  0  0  0  0  0  0
   -1.3950   -0.3250   -0.8910 C   0  0  1  0  0  0  0  0  0  0  0  0
   -2.2180    0.0420   -1.9740 F   0  0  0  0  0  0  0  0  0  0  0  0
   -0.7410   -1.4810   -1.2940 F   0  0  0  0  0  0  0  0  0  0  0  0
   -2.2160   -0.5570    0.1800 F   0  0  0  0  0  0  0  0  0  0  0  0
  2  1  1  1
  2  3  1  0
  2  4  1  0
  2  6  1  0
  4  5  1  0
  6  7  1  0
  7  8  1  6
  7  9  1  0
  7 10  1  0
M  END
