
     RDKit          3D

 11 10  0  0  0  0  0  0  0  0999 V2000
   -1.9320    0.9990    0.4600 O   0  0  0  0  0  0  0  0  0  0  0  0
   -1.5580   -0.3410    0.3450 C   0  0  1  0  0  0  0  0  0  0  0  0
   -2.3930   -0.9820   -0.5680 F   0  0  0  0  0  0  0  0  0  0  0  0
   -0.1610   -0.3670   -0.2470 C   0  0  2  0  0  0  0  0  0  0  0  0
   -0.1530    0.1840   -1.5130 F   0  0  0  0  0  0  0  0  0  0  0  0
    0.2500   -1.6820   -0.3800 F   0  0  0  0  0  0  0  0  0  0  0  0
    0.6950    0.3230    0.6160 O   0  0  0  0  0  0  0  0  0  0  0  0
    1.9910    0.3580    0.1700 C   0  0  2  0  0  0  0  0  0  0  0  0
    2.5190   -0.9290    0.0300 F   0  0  0  0  0  0  0  0  0  0  0  0
    2.7570    0.9890    1.1260 F   0  0  0  0  0  0  0  0  0  0  0  0
    2.0550    1.0000   -1.0550 F   0  0  0  0  0  0  0  0  0  0  0  0
  2  1  1  6
  2  3  1  0
  2  4  1  0
  4  5  1  6
  4  6  1  0
  4  7  1  0
  7  8  1  0
  8  9  1  6
  8 10  1  0
  8 11  1  0
M  END
