
     RDKit          3D

 11 10  0  0  0  0  0  0  0  0999 V2000
   -0.1070    0.5070   -1.5650 O   0  0  0  0  0  0  0  0  0  0  0  0
    0.1080    0.3520   -0.1980 C   0  0  1  0  0  0  0  0  0  0  0  0
    0.6510    1.5190    0.2820 O   0  0  0  0  0  0  0  0  0  0  0  0
   -1.2080    0.0230    0.5150 C   0  0  2  0  0  0  0  0  0  0  0  0
   -1.6780   -1.1710   -0.0470 F   0  0  0  0  0  0  0  0  0  0  0  0
   -2.1350    1.0120    0.3710 F   0  0  0  0  0  0  0  0  0  0  0  0
   -0.9900   -0.2080    1.8550 F   0  0  0  0  0  0  0  0  0  0  0  0
    1.0080   -0.8460    0.0060 C   0  0  2  0  0  0  0  0  0  0  0  0
    0.3710   -1.9560   -0.5190 F   0  0  0  0  0  0  0  0  0  0  0  0
    1.1990   -1.0050    1.3660 F   0  0  0  0  0  0  0  0  0  0  0  0
    2.2050   -0.5820   -0.5920 F   0  0  0  0  0  0  0  0  0  0  0  0
  2  1  1  6
  2  3  1  0
  2  4  1  0
  2  8  1  0
  4  5  1  6
  4  6  1  0
  4  7  1  0
  8  9  1  6
  8 10  1  0
  8 11  1  0
M  END
