
     RDKit          3D

 13 13  0  0  0  0  0  0  0  0999 V2000
    5.1740    1.0230    0.6940 C   0  0  0  0  0  0  0  0  0  0  0  0
    4.2260   -0.0730    1.8440 P   0  0  0  0  0  0  0  0  0  0  0  0
    2.0710    0.1960    1.6670 P   0  0  0  0  0  0  0  0  0  0  0  0
    1.4890    0.1710   -0.0860 C   0  0  0  0  0  0  0  0  0  0  0  0
   -0.0040    0.0990   -0.0750 C   0  0  0  0  0  0  0  0  0  0  0  0
   -1.1360   -0.5920   -0.4350 C   0  0  0  0  0  0  0  0  0  0  0  0
   -1.6390   -1.7490   -1.0860 N   0  0  0  0  0  0  0  0  0  0  0  0
   -2.8360   -1.7680   -1.5420 C   0  0  0  0  0  0  0  0  0  0  0  0
   -3.9000   -0.3040   -1.3550 P   0  0  0  0  0  0  0  0  0  0  0  0
   -3.8290    0.8940   -3.1250 Cl  0  0  0  0  0  0  0  0  0  0  0  0
   -5.6550   -0.7590   -1.0760 C   0  0  0  0  0  0  0  0  0  0  0  0
   -6.3960    0.0670   -0.6000 O   0  0  0  0  0  0  0  0  0  0  0  0
   -1.3240    0.6630    0.2970 C   0  0  0  0  0  0  0  0  0  0  0  0
  1  2  1  0
  2  3  1  0
  3  4  1  0
  4  5  1  0
  5  6  2  0
  5 13  1  0
  6  7  1  0
  6 13  1  0
  7  8  2  3
  8  9  1  0
  9 10  1  0
  9 11  1  0
 11 12  2  0
M  END
