
     RDKit          3D

 26 28  0  0  0  0  0  0  0  0999 V2000
   -2.7350   -1.8640   -2.1250 O   0  0  0  0  0  0  0  0  0  0  0  0
   -3.0730   -2.3980   -1.0370 C   0  0  0  0  0  0  0  0  0  0  0  0
   -3.3910   -3.7400   -0.9240 O   0  0  0  0  0  0  0  0  0  0  0  0
   -3.1170   -1.5740    0.0760 O   0  0  0  0  0  0  0  0  0  0  0  0
   -2.7880   -0.2030   -0.0570 C   0  0  0  0  0  0  0  0  0  0  0  0
   -3.8790    0.5770   -0.3510 C   0  0  0  0  0  0  0  0  0  0  0  0
   -5.1570    0.0750   -0.5000 O   0  0  0  0  0  0  0  0  0  0  0  0
   -6.0080    0.0950    0.5540 O   0  0  0  0  0  0  0  0  0  0  0  0
   -3.7000    1.8890   -0.5020 N   0  0  0  0  0  0  0  0  0  0  0  0
   -2.4350    2.3800   -0.3560 C   0  0  0  0  0  0  0  0  0  0  0  0
   -1.3410    1.6480   -0.0690 C   0  0  0  0  0  0  0  0  0  0  0  0
   -1.4940    0.2270    0.1040 C   0  0  0  0  0  0  0  0  0  0  0  0
   -0.2750   -0.4280    0.4290 N   0  0  0  0  0  0  0  0  0  0  0  0
    0.3990   -0.8230    1.5820 C   0  0  0  0  0  0  0  0  0  0  0  0
    1.7060   -1.2600    1.5720 C   0  0  0  0  0  0  0  0  0  0  0  0
    2.4080   -1.3180    0.3930 N   0  0  0  0  0  0  0  0  0  0  0  0
    3.7590   -1.5460   -0.0420 C   0  0  0  0  0  0  0  0  0  0  0  0
    4.1660   -0.1280   -0.6110 C   0  0  0  0  0  0  0  0  0  0  0  0
    3.9850    0.8640    0.3020 O   0  0  0  0  0  0  0  0  0  0  0  0
    2.9840    1.6500    0.7010 C   0  0  0  0  0  0  0  0  0  0  0  0
    2.6960    1.6870    1.9650 O   0  0  0  0  0  0  0  0  0  0  0  0
    2.1400    2.5150   -0.1500 C   0  0  0  0  0  0  0  0  0  0  0  0
    0.9980    1.9670   -0.6500 O   0  0  0  0  0  0  0  0  0  0  0  0
   -0.0890    2.2530    0.0530 O   0  0  0  0  0  0  0  0  0  0  0  0
    1.6870   -0.9120   -0.8070 N   0  0  0  0  0  0  0  0  0  0  0  0
    0.5660   -0.5460   -0.7530 N   0  0  0  0  0  0  0  0  0  0  0  0
  1  2  2  0
  2  3  1  0
  2  4  1  0
  4  5  1  0
  5  6  2  0
  5 12  1  0
  6  7  1  0
  6  9  1  0
  7  8  1  0
  9 10  2  0
 10 11  1  0
 11 12  2  0
 11 24  1  0
 12 13  1  0
 13 14  1  0
 13 26  1  0
 14 15  2  0
 15 16  1  0
 16 17  1  0
 16 25  1  0
 17 18  1  0
 18 19  1  0
 19 20  1  0
 20 21  2  0
 20 22  1  0
 22 23  1  0
 23 24  1  0
 25 26  2  0
M  END
