
     RDKit          3D

 26 27  0  0  0  0  0  0  0  0999 V2000
    2.9030   -0.7500    1.9060 O   0  0  0  0  0  0  0  0  0  0  0  0
    2.3810   -0.0790    0.9730 C   0  0  0  0  0  0  0  0  0  0  0  0
    3.1140    1.0270    0.4280 N   0  0  0  0  0  0  0  0  0  0  0  0
    4.2670    0.8020   -0.1040 C   0  0  0  0  0  0  0  0  0  0  0  0
    5.0350    1.7620   -0.6420 N   0  0  0  0  0  0  0  0  0  0  0  0
    6.1680    1.2120   -1.1100 C   0  0  0  0  0  0  0  0  0  0  0  0
    6.1180   -0.1340   -0.8610 C   0  0  0  0  0  0  0  0  0  0  0  0
    4.9320   -0.3520   -0.2400 N   0  0  0  0  0  0  0  0  0  0  0  0
    1.0370   -0.3900    0.4180 C   0  0  1  0  0  0  0  0  0  0  0  0
    0.5200   -1.4760    1.0800 O   0  0  0  0  0  0  0  0  0  0  0  0
   -0.7400   -1.9960    1.3410 C   0  0  0  0  0  0  0  0  0  0  0  0
   -0.8030   -3.2090    1.6630 O   0  0  0  0  0  0  0  0  0  0  0  0
   -1.9450   -1.2530    1.2680 N   0  0  0  0  0  0  0  0  0  0  0  0
   -3.1340   -2.0410    1.5310 C   0  0  0  0  0  0  0  0  0  0  0  0
   -3.7040   -2.6510    0.2790 C   0  0  0  0  0  0  0  0  0  0  0  0
   -2.8310   -3.4930   -0.3660 O   0  0  0  0  0  0  0  0  0  0  0  0
   -3.4370   -3.9610   -1.4370 O   0  0  0  0  0  0  0  0  0  0  0  0
   -2.1340    0.1390    0.9750 C   0  0  0  0  0  0  0  0  0  0  0  0
   -3.3060    0.5700    1.0390 O   0  0  0  0  0  0  0  0  0  0  0  0
   -1.1450    1.1090    0.6150 N   0  0  0  0  0  0  0  0  0  0  0  0
   -1.5620    2.4810    0.4050 C   0  0  0  0  0  0  0  0  0  0  0  0
   -1.9490    2.7440   -1.0300 C   0  0  0  0  0  0  0  0  0  0  0  0
   -3.0030    1.9320   -1.4280 O   0  0  0  0  0  0  0  0  0  0  0  0
   -3.2640    2.2410   -2.6960 O   0  0  0  0  0  0  0  0  0  0  0  0
    0.2390    0.8380    0.4420 C   0  0  0  0  0  0  0  0  0  0  0  0
    0.9300    1.8840    0.2710 O   0  0  0  0  0  0  0  0  0  0  0  0
  1  2  2  0
  2  3  1  0
  9  2  1  1
  3  4  2  3
  4  5  1  0
  4  8  1  0
  5  6  1  0
  6  7  2  0
  7  8  1  0
  9 10  1  0
  9 25  1  0
 10 11  1  0
 11 12  2  0
 11 13  1  0
 13 14  1  0
 13 18  1  0
 14 15  1  0
 15 16  1  0
 16 17  1  0
 18 19  2  0
 18 20  1  0
 20 21  1  0
 20 25  1  0
 21 22  1  0
 22 23  1  0
 23 24  1  0
 25 26  2  0
M  END
