
     RDKit          3D

 26 28  0  0  0  0  0  0  0  0999 V2000
   -4.1670   -1.3600   -0.3270 C   0  0  0  0  0  0  0  0  0  0  0  0
   -4.1760   -0.0950    0.0350 C   0  0  0  0  0  0  0  0  0  0  0  0
   -5.4310    0.6080    0.1210 C   0  0  0  0  0  0  0  0  0  0  0  0
   -6.4990    0.0210   -0.1450 O   0  0  0  0  0  0  0  0  0  0  0  0
   -5.4610    1.9310    0.4970 O   0  0  0  0  0  0  0  0  0  0  0  0
   -2.9320    0.6220    0.3540 C   0  0  0  0  0  0  0  0  0  0  0  0
   -2.9340    1.8240    0.6980 O   0  0  0  0  0  0  0  0  0  0  0  0
   -1.6860    0.0290    0.2990 O   0  0  0  0  0  0  0  0  0  0  0  0
   -0.5120    0.6950    0.5970 C   0  0  1  0  0  0  0  0  0  0  0  0
    0.2730    0.1420    1.7500 C   0  0  0  0  0  0  0  0  0  0  0  0
    0.7390   -1.1030    1.4110 O   0  0  0  0  0  0  0  0  0  0  0  0
    1.7540   -1.0560    0.4920 C   0  0  2  0  0  0  0  0  0  0  0  0
    3.0690   -0.7710    1.1880 C   0  0  0  0  0  0  0  0  0  0  0  0
    3.3390   -1.6320    2.2390 O   0  0  0  0  0  0  0  0  0  0  0  0
    3.4870   -2.9860    2.0750 C   0  0  0  0  0  0  0  0  0  0  0  0
    3.3810   -3.4930    0.9380 O   0  0  0  0  0  0  0  0  0  0  0  0
    3.7560   -3.8550    3.1380 O   0  0  0  0  0  0  0  0  0  0  0  0
    1.5370   -0.1130   -0.5810 N   0  0  0  0  0  0  0  0  0  0  0  0
    2.4460   -0.0800   -1.6510 N   0  0  0  0  0  0  0  0  0  0  0  0
    2.2970    0.7440   -2.6360 C   0  0  0  0  0  0  0  0  0  0  0  0
    2.9830    1.0310   -3.8100 O   0  0  0  0  0  0  0  0  0  0  0  0
    2.3230    2.0460   -4.4870 N   0  0  0  0  0  0  0  0  0  0  0  0
    1.2820    2.3960   -3.8040 C   0  0  0  0  0  0  0  0  0  0  0  0
    1.1800    1.6260   -2.6120 N   0  0  0  0  0  0  0  0  0  0  0  0
    0.2810    1.5840   -1.5410 N   0  0  0  0  0  0  0  0  0  0  0  0
    0.4240    0.7620   -0.5520 C   0  0  0  0  0  0  0  0  0  0  0  0
  1  2  2  0
  2  3  1  0
  2  6  1  0
  3  4  2  0
  3  5  1  0
  6  7  2  0
  6  8  1  0
  9  8  1  6
  9 10  1  0
  9 26  1  0
 10 11  1  0
 11 12  1  0
 12 13  1  1
 12 18  1  0
 13 14  1  0
 14 15  1  0
 15 16  2  0
 15 17  1  0
 18 19  1  0
 18 26  1  0
 19 20  2  0
 20 21  1  0
 20 24  1  0
 21 22  1  0
 22 23  2  0
 23 24  1  0
 24 25  1  0
 25 26  2  0
M  END
