
     RDKit          3D

 18 18  0  0  0  0  0  0  0  0999 V2000
    0.6090   -1.4960    1.9450 O   0  0  0  0  0  0  0  0  0  0  0  0
    0.1320   -1.4230    0.6370 C   0  0  2  0  0  0  0  0  0  0  0  0
    0.6720   -0.2440   -0.1310 C   0  0  1  0  0  0  0  0  0  0  0  0
    2.0900   -0.5100   -0.4540 C   0  0  0  0  0  0  0  0  0  0  0  0
    2.8030    0.5990   -0.8080 O   0  0  0  0  0  0  0  0  0  0  0  0
    3.9470    1.1580    0.0030 P   0  0  0  0  0  0  0  0  0  0  0  0
    4.9500    1.5160   -1.1660 O   0  0  0  0  0  0  0  0  0  0  0  0
    2.8110    2.3110    0.5310 O   0  0  0  0  0  0  0  0  0  0  0  0
    4.0850   -0.1960    0.9460 O   0  0  0  0  0  0  0  0  0  0  0  0
   -0.1470   -0.0660   -1.1790 O   0  0  0  0  0  0  0  0  0  0  0  0
   -1.4210   -0.4740   -0.8300 C   0  0  2  0  0  0  0  0  0  0  0  0
   -2.2630    0.5780   -0.8720 O   0  0  0  0  0  0  0  0  0  0  0  0
   -3.8260    0.4460   -0.5740 P   0  0  0  0  0  0  0  0  0  0  0  0
   -3.9160   -1.0750   -0.6010 O   0  0  0  0  0  0  0  0  0  0  0  0
   -4.2720    0.3510    1.0540 O   0  0  0  0  0  0  0  0  0  0  0  0
   -4.1140    1.9670   -0.4480 O   0  0  0  0  0  0  0  0  0  0  0  0
   -1.3360   -1.0800    0.5860 C   0  0  2  0  0  0  0  0  0  0  0  0
   -1.5880   -0.1460    1.5680 O   0  0  0  0  0  0  0  0  0  0  0  0
  2  1  1  1
  2  3  1  0
  2 17  1  0
  3  4  1  6
  3 10  1  0
  4  5  1  0
  5  6  1  0
  6  7  1  0
  6  8  1  0
  6  9  1  0
 10 11  1  0
 11 12  1  1
 11 17  1  0
 12 13  1  0
 13 14  1  0
 13 15  1  0
 13 16  1  0
 17 18  1  1
M  END
