
     RDKit          3D

 26 27  0  0  0  0  0  0  0  0999 V2000
    4.1200   -0.5110   -0.8850 C   0  0  0  0  0  0  0  0  0  0  0  0
    3.3250    0.1380    0.1450 N   0  0  0  0  0  0  0  0  0  0  0  0
    3.9340    0.5680    1.3820 C   0  0  0  0  0  0  0  0  0  0  0  0
    4.4010    1.8720    1.2530 O   0  0  0  0  0  0  0  0  0  0  0  0
    3.4470    2.7310    0.9820 O   0  0  0  0  0  0  0  0  0  0  0  0
    3.8010    3.9680    1.2610 O   0  0  0  0  0  0  0  0  0  0  0  0
    1.9360    0.3600   -0.0570 C   0  0  0  0  0  0  0  0  0  0  0  0
    1.2520    0.9250    0.8270 O   0  0  0  0  0  0  0  0  0  0  0  0
    1.2630   -0.0730   -1.3260 C   0  0  0  0  0  0  0  0  0  0  0  0
    0.2950   -1.1690   -1.0890 C   0  0  0  0  0  0  0  0  0  0  0  0
    0.5670   -2.3420   -1.6560 C   0  0  0  0  0  0  0  0  0  0  0  0
   -0.1120   -3.6460   -1.6730 C   0  0  0  0  0  0  0  0  0  0  0  0
    1.0950   -4.1110   -2.2010 O   0  0  0  0  0  0  0  0  0  0  0  0
    1.5710   -2.8710   -2.4620 O   0  0  0  0  0  0  0  0  0  0  0  0
   -0.8980   -1.0500   -0.2970 C   0  0  0  0  0  0  0  0  0  0  0  0
   -1.2610   -1.9890    0.6270 N   0  0  0  0  0  0  0  0  0  0  0  0
   -2.4010   -1.8610    1.3350 C   0  0  0  0  0  0  0  0  0  0  0  0
   -3.2440   -0.7950    1.1640 C   0  0  0  0  0  0  0  0  0  0  0  0
   -2.9160    0.1480    0.2620 N   0  0  0  0  0  0  0  0  0  0  0  0
   -3.7870    1.2800    0.0410 C   0  0  0  0  0  0  0  0  0  0  0  0
   -4.1060    1.5620   -1.1630 N   0  0  0  0  0  0  0  0  0  0  0  0
   -4.2690    2.0380    1.1340 N   0  0  0  0  0  0  0  0  0  0  0  0
   -5.4010    2.7790    0.9000 O   0  0  0  0  0  0  0  0  0  0  0  0
   -6.1310    2.6910    1.9870 O   0  0  0  0  0  0  0  0  0  0  0  0
   -1.7740    0.0070   -0.4360 C   0  0  0  0  0  0  0  0  0  0  0  0
   -1.5050    0.9100   -1.2670 O   0  0  0  0  0  0  0  0  0  0  0  0
  1  2  1  0
  2  3  1  0
  2  7  1  0
  3  4  1  0
  4  5  1  0
  5  6  1  0
  7  8  2  0
  7  9  1  0
  9 10  1  0
 10 11  2  3
 10 15  1  0
 11 12  1  0
 11 14  1  0
 12 13  1  0
 13 14  1  0
 15 16  2  0
 15 25  1  0
 16 17  1  0
 17 18  2  0
 18 19  1  0
 19 20  1  0
 19 25  1  0
 20 21  2  0
 20 22  1  0
 22 23  1  0
 23 24  1  0
 25 26  2  0
M  END
