
     RDKit          3D

 13 14  0  0  0  0  0  0  0  0999 V2000
   -3.5220   -1.3920   -0.2950 O   0  0  0  0  0  0  0  0  0  0  0  0
   -3.1470   -1.3050    1.0540 C   0  0  0  0  0  0  0  0  0  0  0  0
   -1.9240    0.0500    1.3450 P   0  0  0  0  0  0  0  0  0  0  0  0
   -2.7650    1.7550   -0.0450 P   0  0  0  0  0  0  0  0  0  0  0  0
   -0.9820    2.3800   -0.0500 C   0  0  0  0  0  0  0  0  0  0  0  0
   -0.1570    1.3840    0.0640 C   0  0  0  0  0  0  0  0  0  0  0  0
   -0.5310    0.0090    0.1470 C   0  0  1  0  0  0  0  0  0  0  0  0
    0.8200    0.3160    0.1930 N   0  0  0  0  0  0  0  0  0  0  0  0
    2.2390    0.0340    0.2900 C   0  0  0  0  0  0  0  0  0  0  0  0
    3.2100    0.7760    1.4070 P   0  0  0  0  0  0  0  0  0  0  0  0
    2.8610   -0.9270   -0.6120 C   0  0  0  0  0  0  0  0  0  0  0  0
    4.1440   -1.1990   -0.5440 C   0  0  0  0  0  0  0  0  0  0  0  0
    4.8930   -2.3420   -1.6120 Cl  0  0  0  0  0  0  0  0  0  0  0  0
  1  2  1  0
  2  3  1  0
  3  4  1  0
  3  7  1  0
  4  5  1  0
  5  6  2  0
  6  7  1  0
  6  8  1  0
  7  8  1  1
  8  9  1  0
  9 10  2  0
  9 11  1  0
 11 12  2  3
 12 13  1  0
M  END
