
     RDKit          3D

 26 28  0  0  0  0  0  0  0  0999 V2000
    4.6060    0.8850   -0.1760 C   0  0  0  0  0  0  0  0  0  0  0  0
    4.1500   -0.2850   -0.4980 C   0  0  0  0  0  0  0  0  0  0  0  0
    5.0130   -1.2370   -1.1800 C   0  0  0  0  0  0  0  0  0  0  0  0
    6.2070   -0.9810   -1.4820 O   0  0  0  0  0  0  0  0  0  0  0  0
    4.5630   -2.5160   -1.5490 O   0  0  0  0  0  0  0  0  0  0  0  0
    2.7680   -0.7130   -0.2020 C   0  0  0  0  0  0  0  0  0  0  0  0
    2.3490   -1.8520   -0.5240 O   0  0  0  0  0  0  0  0  0  0  0  0
    1.8690    0.1240    0.4460 O   0  0  0  0  0  0  0  0  0  0  0  0
    0.5340   -0.2870    0.7320 C   0  0  1  0  0  0  0  0  0  0  0  0
    0.3420   -0.0240    2.2060 C   0  0  0  0  0  0  0  0  0  0  0  0
   -0.8840   -0.3200    2.6690 O   0  0  0  0  0  0  0  0  0  0  0  0
   -1.9690   -0.2270    1.7960 C   0  0  2  0  0  0  0  0  0  0  0  0
   -2.4210   -1.6370    1.5680 C   0  0  0  0  0  0  0  0  0  0  0  0
   -3.5810   -1.7770    0.8500 O   0  0  0  0  0  0  0  0  0  0  0  0
   -3.7380   -1.5390   -0.4770 C   0  0  0  0  0  0  0  0  0  0  0  0
   -2.7850   -1.1720   -1.2020 O   0  0  0  0  0  0  0  0  0  0  0  0
   -4.9710   -1.6860   -1.1320 O   0  0  0  0  0  0  0  0  0  0  0  0
   -1.7380    0.6150    0.6890 N   0  0  0  0  0  0  0  0  0  0  0  0
   -2.7910    1.4400    0.2010 N   0  0  0  0  0  0  0  0  0  0  0  0
   -2.5510    2.2070   -0.7980 C   0  0  0  0  0  0  0  0  0  0  0  0
   -3.3110    3.1300   -1.5330 O   0  0  0  0  0  0  0  0  0  0  0  0
   -2.5080    3.6510   -2.5000 N   0  0  0  0  0  0  0  0  0  0  0  0
   -1.3290    3.1600   -2.4560 C   0  0  0  0  0  0  0  0  0  0  0  0
   -1.2590    2.2190   -1.3910 N   0  0  0  0  0  0  0  0  0  0  0  0
   -0.2060    1.3990   -0.9060 N   0  0  0  0  0  0  0  0  0  0  0  0
   -0.4460    0.6480    0.0740 C   0  0  0  0  0  0  0  0  0  0  0  0
  1  2  2  0
  2  3  1  0
  2  6  1  0
  3  4  2  0
  3  5  1  0
  6  7  2  0
  6  8  1  0
  9  8  1  6
  9 10  1  0
  9 26  1  0
 10 11  1  0
 11 12  1  0
 12 13  1  6
 12 18  1  0
 13 14  1  0
 14 15  1  0
 15 16  2  0
 15 17  1  0
 18 19  1  0
 18 26  1  0
 19 20  2  0
 20 21  1  0
 20 24  1  0
 21 22  1  0
 22 23  2  0
 23 24  1  0
 24 25  1  0
 25 26  2  0
M  END
