
     RDKit          3D

 13 13  0  0  0  0  0  0  0  0999 V2000
    2.0520    2.1670    1.2730 O   0  0  0  0  0  0  0  0  0  0  0  0
    1.6620    1.0770   -0.0170 P   0  0  0  0  0  0  0  0  0  0  0  0
    0.9320   -0.4650    0.5880 C   0  0  0  0  0  0  0  0  0  0  0  0
   -0.3670   -0.6350    0.4420 C   0  0  0  0  0  0  0  0  0  0  0  0
   -1.0810   -1.8430    0.8910 C   0  0  0  0  0  0  0  0  0  0  0  0
   -0.3840   -3.2750    1.3620 P   0  0  0  0  0  0  0  0  0  0  0  0
   -2.5140   -1.5090    0.8320 C   0  0  0  0  0  0  0  0  0  0  0  0
   -2.6100   -0.3590   -0.0800 N   0  0  0  0  0  0  0  0  0  0  0  0
   -1.3390    0.2680   -0.1560 C   0  0  0  0  0  0  0  0  0  0  0  0
   -1.0410    1.4540   -0.6630 C   0  0  0  0  0  0  0  0  0  0  0  0
   -0.8830    3.0930   -0.8610 P   0  0  0  0  0  0  0  0  0  0  0  0
    3.1120    0.7640   -1.1210 C   0  0  0  0  0  0  0  0  0  0  0  0
    2.9380   -0.8920   -1.7750 Cl  0  0  0  0  0  0  0  0  0  0  0  0
  1  2  1  0
  2  3  1  0
  2 12  1  0
  3  4  2  3
  4  5  1  0
  4  9  1  0
  5  6  2  0
  5  7  1  0
  7  8  1  0
  8  9  1  0
  9 10  2  0
 10 11  2  0
 12 13  1  0
M  END
