
     RDKit          3D

 26 28  0  0  0  0  0  0  0  0999 V2000
    4.8900    0.0840   -2.2260 O   0  0  0  0  0  0  0  0  0  0  0  0
    5.6910   -0.6150   -1.5780 C   0  0  0  0  0  0  0  0  0  0  0  0
    6.9320   -0.9020   -2.1500 O   0  0  0  0  0  0  0  0  0  0  0  0
    5.3000   -1.0760   -0.3060 N   0  0  0  0  0  0  0  0  0  0  0  0
    4.0170   -0.7640    0.2600 C   0  0  0  0  0  0  0  0  0  0  0  0
    3.1220   -0.0140   -0.3860 N   0  0  0  0  0  0  0  0  0  0  0  0
    1.8940    0.2780    0.1680 C   0  0  0  0  0  0  0  0  0  0  0  0
    1.5470   -0.1880    1.3940 C   0  0  0  0  0  0  0  0  0  0  0  0
    0.2840    0.0790    2.0530 C   0  0  0  0  0  0  0  0  0  0  0  0
   -0.0050   -0.4910    3.2810 N   0  0  0  0  0  0  0  0  0  0  0  0
   -1.1690   -0.1150    3.6870 N   0  0  0  0  0  0  0  0  0  0  0  0
   -1.7000    0.7010    2.7760 C   0  0  0  0  0  0  0  0  0  0  0  0
   -0.7790    0.8040    1.7740 N   0  0  0  0  0  0  0  0  0  0  0  0
   -1.0420    1.6140    0.6220 C   0  0  0  0  0  0  0  0  0  0  0  0
   -1.7430    0.8690   -0.4470 C   0  0  0  0  0  0  0  0  0  0  0  0
   -1.1310    0.3030   -1.3710 O   0  0  0  0  0  0  0  0  0  0  0  0
   -3.1430    0.7890   -0.4320 O   0  0  0  0  0  0  0  0  0  0  0  0
   -3.7680    0.0740   -1.4620 C   0  0  1  0  0  0  0  0  0  0  0  0
   -4.5990   -1.0880   -0.9450 C   0  0  0  0  0  0  0  0  0  0  0  0
   -5.5990   -1.1810   -1.9100 O   0  0  0  0  0  0  0  0  0  0  0  0
   -5.9330    0.1090   -2.1770 O   0  0  0  0  0  0  0  0  0  0  0  0
   -4.7800    0.8790   -2.1880 C   0  0  0  0  0  0  0  0  0  0  0  0
   -4.5510    2.0100   -2.6770 O   0  0  0  0  0  0  0  0  0  0  0  0
    2.5260   -0.9670    2.0170 C   0  0  0  0  0  0  0  0  0  0  0  0
    2.2610   -1.4300    3.1640 O   0  0  0  0  0  0  0  0  0  0  0  0
    3.6730   -1.2090    1.4410 O   0  0  0  0  0  0  0  0  0  0  0  0
  1  2  2  0
  2  3  1  0
  2  4  1  0
  4  5  1  0
  5  6  2  0
  5 26  1  0
  6  7  1  0
  7  8  2  0
  8  9  1  0
  8 24  1  0
  9 10  2  0
  9 13  1  0
 10 11  1  0
 11 12  2  0
 12 13  1  0
 13 14  1  0
 14 15  1  0
 15 16  2  0
 15 17  1  0
 18 17  1  1
 18 19  1  0
 18 22  1  0
 19 20  1  0
 20 21  1  0
 21 22  1  0
 22 23  2  0
 24 25  2  0
 24 26  1  0
M  END
