
     RDKit          3D

 18 18  0  0  0  0  0  0  0  0999 V2000
    0.8000    1.8350    0.9750 O   0  0  0  0  0  0  0  0  0  0  0  0
    0.3240    0.5790    0.6980 C   0  0  2  0  0  0  0  0  0  0  0  0
    0.6030    0.1130   -0.7310 C   0  0  1  0  0  0  0  0  0  0  0  0
    1.6420   -0.9740   -0.6430 C   0  0  0  0  0  0  0  0  0  0  0  0
    2.7590   -0.5830   -1.4030 O   0  0  0  0  0  0  0  0  0  0  0  0
    3.9550   -0.2250   -0.4850 P   0  0  0  0  0  0  0  0  0  0  0  0
    5.1120    0.5250    0.2130 O   0  0  0  0  0  0  0  0  0  0  0  0
    4.8790   -0.2750   -1.8590 O   0  0  0  0  0  0  0  0  0  0  0  0
    3.8150   -1.4850    0.4610 O   0  0  0  0  0  0  0  0  0  0  0  0
   -0.5530   -0.2300   -1.3220 O   0  0  0  0  0  0  0  0  0  0  0  0
   -1.5030   -0.4750   -0.3830 C   0  0  2  0  0  0  0  0  0  0  0  0
   -2.7340   -0.1680   -0.9060 O   0  0  0  0  0  0  0  0  0  0  0  0
   -3.9980   -0.1450    0.1390 P   0  0  0  0  0  0  0  0  0  0  0  0
   -3.8190    0.6700    1.5560 O   0  0  0  0  0  0  0  0  0  0  0  0
   -4.6110    1.0420   -0.6230 O   0  0  0  0  0  0  0  0  0  0  0  0
   -5.3710   -1.0390   -0.1460 O   0  0  0  0  0  0  0  0  0  0  0  0
   -1.1650    0.5300    0.7470 C   0  0  2  0  0  0  0  0  0  0  0  0
   -1.6470    1.7770    0.4610 O   0  0  0  0  0  0  0  0  0  0  0  0
  2  1  1  6
  2  3  1  0
  2 17  1  0
  3  4  1  1
  3 10  1  0
  4  5  1  0
  5  6  1  0
  6  7  1  0
  6  8  1  0
  6  9  1  0
 10 11  1  0
 11 12  1  6
 11 17  1  0
 12 13  1  0
 13 14  1  0
 13 15  1  0
 13 16  1  0
 17 18  1  6
M  END
