
     RDKit          3D

 13 14  0  0  0  0  0  0  0  0999 V2000
   -3.0860    1.7360    0.1660 O   0  0  0  0  0  0  0  0  0  0  0  0
   -2.5060    1.5610   -1.1030 C   0  0  0  0  0  0  0  0  0  0  0  0
   -1.6210   -0.0670   -1.2250 P   0  0  0  0  0  0  0  0  0  0  0  0
   -2.8540   -1.4110    0.2590 P   0  0  0  0  0  0  0  0  0  0  0  0
   -1.2360   -2.3380    0.4940 C   0  0  0  0  0  0  0  0  0  0  0  0
   -0.2170   -1.5400    0.3530 C   0  0  0  0  0  0  0  0  0  0  0  0
   -0.3420   -0.1370    0.0880 C   0  0  1  0  0  0  0  0  0  0  0  0
    0.9650   -0.7040    0.2020 N   0  0  0  0  0  0  0  0  0  0  0  0
    2.3870   -0.7190    0.2110 C   0  0  0  0  0  0  0  0  0  0  0  0
    3.2160   -2.1620    0.6420 P   0  0  0  0  0  0  0  0  0  0  0  0
    3.2040    0.3800   -0.1130 C   0  0  0  0  0  0  0  0  0  0  0  0
    2.9000    1.5790   -0.4680 C   0  0  0  0  0  0  0  0  0  0  0  0
    1.2560    2.1180   -0.6300 Cl  0  0  0  0  0  0  0  0  0  0  0  0
  1  2  1  0
  2  3  1  0
  3  4  1  0
  3  7  1  0
  4  5  1  0
  5  6  2  0
  6  7  1  0
  6  8  1  0
  7  8  1  6
  8  9  1  0
  9 10  2  0
  9 11  1  0
 11 12  2  3
 12 13  1  0
M  END
