
     RDKit          3D

 26 28  0  0  0  0  0  0  0  0999 V2000
    3.4910   -1.4270    1.1280 O   0  0  0  0  0  0  0  0  0  0  0  0
    3.6890   -1.6410   -0.0940 C   0  0  0  0  0  0  0  0  0  0  0  0
    4.2490   -2.8500   -0.4430 O   0  0  0  0  0  0  0  0  0  0  0  0
    3.3330   -0.6540   -0.9980 O   0  0  0  0  0  0  0  0  0  0  0  0
    2.7740    0.5290   -0.5140 C   0  0  0  0  0  0  0  0  0  0  0  0
    3.7090    1.5160   -0.2160 C   0  0  0  0  0  0  0  0  0  0  0  0
    5.0620    1.3120   -0.3930 O   0  0  0  0  0  0  0  0  0  0  0  0
    5.8640    0.9080    0.6210 O   0  0  0  0  0  0  0  0  0  0  0  0
    3.2510    2.6800    0.2540 N   0  0  0  0  0  0  0  0  0  0  0  0
    1.9390    2.8920    0.4320 C   0  0  0  0  0  0  0  0  0  0  0  0
    1.0150    1.9200    0.1380 C   0  0  0  0  0  0  0  0  0  0  0  0
    1.4230    0.6510   -0.3670 C   0  0  0  0  0  0  0  0  0  0  0  0
    0.2890   -0.1720   -0.5900 N   0  0  0  0  0  0  0  0  0  0  0  0
   -0.5250   -0.4560   -1.6980 C   0  0  0  0  0  0  0  0  0  0  0  0
   -1.6650   -1.1820   -1.5610 C   0  0  0  0  0  0  0  0  0  0  0  0
   -2.0420   -1.6540   -0.3120 N   0  0  0  0  0  0  0  0  0  0  0  0
   -3.2190   -2.3090    0.2050 C   0  0  0  0  0  0  0  0  0  0  0  0
   -4.2450   -1.2080    0.5610 C   0  0  0  0  0  0  0  0  0  0  0  0
   -3.9200   -0.0910   -0.2350 O   0  0  0  0  0  0  0  0  0  0  0  0
   -3.6630    1.1990    0.1080 C   0  0  0  0  0  0  0  0  0  0  0  0
   -4.5110    2.1490   -0.1290 O   0  0  0  0  0  0  0  0  0  0  0  0
   -2.4150    1.6550    0.7720 C   0  0  0  0  0  0  0  0  0  0  0  0
   -1.3860    1.6490   -0.1340 O   0  0  0  0  0  0  0  0  0  0  0  0
   -0.3090    2.2460    0.3630 O   0  0  0  0  0  0  0  0  0  0  0  0
   -1.1900   -1.3490    0.7660 N   0  0  0  0  0  0  0  0  0  0  0  0
   -0.1970   -0.7160    0.6380 N   0  0  0  0  0  0  0  0  0  0  0  0
  1  2  2  0
  2  3  1  0
  2  4  1  0
  4  5  1  0
  5  6  2  0
  5 12  1  0
  6  7  1  0
  6  9  1  0
  7  8  1  0
  9 10  2  0
 10 11  1  0
 11 12  2  0
 11 24  1  0
 12 13  1  0
 13 14  1  0
 13 26  1  0
 14 15  2  0
 15 16  1  0
 16 17  1  0
 16 25  1  0
 17 18  1  0
 18 19  1  0
 19 20  1  0
 20 21  2  0
 20 22  1  0
 22 23  1  0
 23 24  1  0
 25 26  2  0
M  END
