
     RDKit          3D

 26 27  0  0  0  0  0  0  0  0999 V2000
   -2.1830    1.1650    2.3580 O   0  0  0  0  0  0  0  0  0  0  0  0
   -2.0310    0.1370    1.6710 C   0  0  0  0  0  0  0  0  0  0  0  0
   -3.0860   -0.7230    1.4250 N   0  0  0  0  0  0  0  0  0  0  0  0
   -4.2040   -0.4110    0.8630 C   0  0  0  0  0  0  0  0  0  0  0  0
   -4.6190    0.7790    0.3910 N   0  0  0  0  0  0  0  0  0  0  0  0
   -5.8670    0.6640   -0.1220 C   0  0  0  0  0  0  0  0  0  0  0  0
   -6.2400   -0.6490    0.0390 C   0  0  0  0  0  0  0  0  0  0  0  0
   -5.2170   -1.2650    0.6340 N   0  0  0  0  0  0  0  0  0  0  0  0
   -0.6950   -0.1540    1.1200 C   0  0  1  0  0  0  0  0  0  0  0  0
   -0.7270   -1.3490    0.3720 O   0  0  0  0  0  0  0  0  0  0  0  0
    0.1230   -1.9350   -0.5520 C   0  0  0  0  0  0  0  0  0  0  0  0
   -0.2260   -3.0580   -1.0420 O   0  0  0  0  0  0  0  0  0  0  0  0
    1.3600   -1.3930   -1.0080 N   0  0  0  0  0  0  0  0  0  0  0  0
    2.2620   -2.3280   -1.6080 C   0  0  0  0  0  0  0  0  0  0  0  0
    3.2100   -2.9800   -0.6400 C   0  0  0  0  0  0  0  0  0  0  0  0
    4.0100   -2.0520    0.0070 O   0  0  0  0  0  0  0  0  0  0  0  0
    4.8060   -2.7140    0.8330 O   0  0  0  0  0  0  0  0  0  0  0  0
    1.7720   -0.0240   -0.9210 C   0  0  0  0  0  0  0  0  0  0  0  0
    2.9420    0.2340   -1.2990 O   0  0  0  0  0  0  0  0  0  0  0  0
    1.0080    1.1030   -0.4500 N   0  0  0  0  0  0  0  0  0  0  0  0
    1.4780    2.4180   -0.8340 C   0  0  0  0  0  0  0  0  0  0  0  0
    2.4550    2.9690    0.1870 C   0  0  0  0  0  0  0  0  0  0  0  0
    2.8660    4.2210   -0.2370 O   0  0  0  0  0  0  0  0  0  0  0  0
    3.7180    4.7240    0.6330 O   0  0  0  0  0  0  0  0  0  0  0  0
   -0.1560    0.9970    0.3540 C   0  0  0  0  0  0  0  0  0  0  0  0
   -0.8290    2.0540    0.4200 O   0  0  0  0  0  0  0  0  0  0  0  0
  1  2  2  0
  2  3  1  0
  9  2  1  6
  3  4  2  3
  4  5  1  0
  4  8  1  0
  5  6  1  0
  6  7  2  0
  7  8  1  0
  9 10  1  0
  9 25  1  0
 10 11  1  0
 11 12  2  0
 11 13  1  0
 13 14  1  0
 13 18  1  0
 14 15  1  0
 15 16  1  0
 16 17  1  0
 18 19  2  0
 18 20  1  0
 20 21  1  0
 20 25  1  0
 21 22  1  0
 22 23  1  0
 23 24  1  0
 25 26  2  0
M  END
