
     RDKit          3D

 13 13  0  0  0  0  0  0  0  0999 V2000
   -5.0400   -0.0540    0.2250 C   0  0  0  0  0  0  0  0  0  0  0  0
   -4.2120   -1.6700   -0.1930 P   0  0  0  0  0  0  0  0  0  0  0  0
   -2.0390   -1.3720    0.0280 P   0  0  0  0  0  0  0  0  0  0  0  0
   -1.5460    0.3370   -0.4560 C   0  0  0  0  0  0  0  0  0  0  0  0
   -0.1400    0.5460   -0.0040 C   0  0  0  0  0  0  0  0  0  0  0  0
    1.1520    0.8190   -0.2740 C   0  0  0  0  0  0  0  0  0  0  0  0
    2.0530    1.1130   -1.3240 N   0  0  0  0  0  0  0  0  0  0  0  0
    3.2900    0.8360   -1.1860 C   0  0  0  0  0  0  0  0  0  0  0  0
    3.8520    0.0690    0.3660 P   0  0  0  0  0  0  0  0  0  0  0  0
    3.4560   -2.0010    0.3400 Cl  0  0  0  0  0  0  0  0  0  0  0  0
    5.6200    0.4200    0.6590 C   0  0  0  0  0  0  0  0  0  0  0  0
    6.3940   -0.4970    0.7390 O   0  0  0  0  0  0  0  0  0  0  0  0
    0.7840    0.5820    1.1320 C   0  0  0  0  0  0  0  0  0  0  0  0
  1  2  1  0
  2  3  1  0
  3  4  1  0
  4  5  1  0
  5  6  2  0
  5 13  1  0
  6  7  1  0
  6 13  1  0
  7  8  2  3
  8  9  1  0
  9 10  1  0
  9 11  1  0
 11 12  2  0
M  END
