
     RDKit          3D

 10  9  0  0  0  0  0  0  0  0999 V2000
    3.0700    1.1430   -0.3750 C   0  0  0  0  0  0  0  0  0  0  0  0
    1.8130    0.7220   -0.8930 O   0  0  0  0  0  0  0  0  0  0  0  0
    1.3700   -0.5700   -0.5420 C   0  0  0  0  0  0  0  0  0  0  0  0
    2.0800   -1.2920    0.2000 O   0  0  0  0  0  0  0  0  0  0  0  0
    0.0760   -1.1080   -1.0270 C   0  0  0  0  0  0  0  0  0  0  0  0
   -1.0220   -0.9970   -0.0220 C   0  0  1  0  0  0  0  0  0  0  0  0
   -0.7960   -1.6620    1.1620 O   0  0  0  0  0  0  0  0  0  0  0  0
   -1.2760    0.3510    0.2030 O   0  0  0  0  0  0  0  0  0  0  0  0
   -2.5730    0.6730   -0.2190 C   0  0  0  0  0  0  0  0  0  0  0  0
   -2.7430    2.0350    0.0410 O   0  0  0  0  0  0  0  0  0  0  0  0
  1  2  1  0
  2  3  1  0
  3  4  2  0
  3  5  1  0
  5  6  1  0
  6  7  1  1
  6  8  1  0
  8  9  1  0
  9 10  1  0
M  END
