
     RDKit          3D

 10  9  0  0  0  0  0  0  0  0999 V2000
    3.7240   -0.1790   -0.0690 C   0  0  0  0  0  0  0  0  0  0  0  0
    2.4930   -0.8060    0.0250 O   0  0  0  0  0  0  0  0  0  0  0  0
    1.4580    0.0920   -0.2650 C   0  0  0  0  0  0  0  0  0  0  0  0
    0.1280   -0.5870   -0.1630 C   0  0  0  0  0  0  0  0  0  0  0  0
   -0.8650    0.3430   -0.4590 O   0  0  0  0  0  0  0  0  0  0  0  0
   -2.1360   -0.2190   -0.3840 C   0  0  2  0  0  0  0  0  0  0  0  0
   -2.7370   -0.1030   -1.6140 O   0  0  0  0  0  0  0  0  0  0  0  0
   -2.9350    0.4290    0.6960 C   0  0  0  0  0  0  0  0  0  0  0  0
   -4.0110    0.9870    0.4180 O   0  0  0  0  0  0  0  0  0  0  0  0
   -2.5030    0.4230    2.0070 O   0  0  0  0  0  0  0  0  0  0  0  0
  1  2  1  0
  2  3  1  0
  3  4  1  0
  4  5  1  0
  5  6  1  0
  6  7  1  6
  6  8  1  0
  8  9  2  0
  8 10  1  0
M  END
