
     RDKit          3D

 10  9  0  0  0  0  0  0  0  0999 V2000
    4.3760   -0.4970   -0.4710 O   0  0  0  0  0  0  0  0  0  0  0  0
    3.1610   -0.1210   -0.4990 C   0  0  0  0  0  0  0  0  0  0  0  0
    2.7070    0.8110    0.4020 O   0  0  0  0  0  0  0  0  0  0  0  0
    2.3090   -0.7280   -1.5240 C   0  0  0  0  0  0  0  0  0  0  0  0
    1.0260   -0.3030   -1.4040 O   0  0  0  0  0  0  0  0  0  0  0  0
    0.3490   -0.6340   -0.2490 C   0  0  0  0  0  0  0  0  0  0  0  0
   -0.9270   -0.0810   -0.3850 O   0  0  0  0  0  0  0  0  0  0  0  0
   -1.7330   -0.3290    0.7020 C   0  0  0  0  0  0  0  0  0  0  0  0
   -3.0770    0.3420    0.3870 C   0  0  0  0  0  0  0  0  0  0  0  0
   -3.9860    0.1630    1.4150 O   0  0  0  0  0  0  0  0  0  0  0  0
  1  2  2  0
  2  3  1  0
  2  4  1  0
  4  5  1  0
  5  6  1  0
  6  7  1  0
  7  8  1  0
  8  9  1  0
  9 10  1  0
M  END
