
     RDKit          3D

 10  9  0  0  0  0  0  0  0  0999 V2000
    4.2160    0.0250    0.1970 C   0  0  0  0  0  0  0  0  0  0  0  0
    2.9970   -0.6310    0.4860 O   0  0  0  0  0  0  0  0  0  0  0  0
    1.7780   -0.1850   -0.0500 C   0  0  0  0  0  0  0  0  0  0  0  0
    1.7850    0.8100   -0.7920 O   0  0  0  0  0  0  0  0  0  0  0  0
    0.5820   -0.8120    0.2220 O   0  0  0  0  0  0  0  0  0  0  0  0
   -0.5970   -0.2910   -0.3630 C   0  0  1  0  0  0  0  0  0  0  0  0
   -1.1490   -1.3270   -1.1340 O   0  0  0  0  0  0  0  0  0  0  0  0
   -1.5500    0.0270    0.7530 C   0  0  0  0  0  0  0  0  0  0  0  0
   -2.8610    0.5960    0.2670 C   0  0  0  0  0  0  0  0  0  0  0  0
   -3.4500   -0.3520   -0.5640 O   0  0  0  0  0  0  0  0  0  0  0  0
  1  2  1  0
  2  3  1  0
  3  4  2  0
  3  5  1  0
  5  6  1  0
  6  7  1  6
  6  8  1  0
  8  9  1  0
  9 10  1  0
M  END
