
     RDKit          3D

 10  9  0  0  0  0  0  0  0  0999 V2000
   -3.2580    1.7430    0.1880 C   0  0  0  0  0  0  0  0  0  0  0  0
   -2.5590    0.6930   -0.3870 O   0  0  0  0  0  0  0  0  0  0  0  0
   -1.4290    0.3470    0.3320 C   0  0  0  0  0  0  0  0  0  0  0  0
   -0.8130   -0.7150   -0.3420 O   0  0  0  0  0  0  0  0  0  0  0  0
    0.3330   -1.1490    0.2860 C   0  0  1  0  0  0  0  0  0  0  0  0
    0.2130   -2.4600    0.7420 O   0  0  0  0  0  0  0  0  0  0  0  0
    1.5160   -1.0620   -0.6230 C   0  0  0  0  0  0  0  0  0  0  0  0
    2.2160   -2.0900   -0.8580 O   0  0  0  0  0  0  0  0  0  0  0  0
    1.8920    0.1090   -1.2310 O   0  0  0  0  0  0  0  0  0  0  0  0
    3.0290    0.1740   -2.0990 C   0  0  0  0  0  0  0  0  0  0  0  0
  1  2  1  0
  2  3  1  0
  3  4  1  0
  4  5  1  0
  5  6  1  6
  5  7  1  0
  7  8  2  0
  7  9  1  0
  9 10  1  0
M  END
