
     RDKit          3D

 10  9  0  0  0  0  0  0  0  0999 V2000
    3.4220    0.8040    0.5960 C   0  0  0  0  0  0  0  0  0  0  0  0
    2.0970    0.4450    0.2350 O   0  0  0  0  0  0  0  0  0  0  0  0
    1.6360   -0.8450    0.2010 C   0  0  0  0  0  0  0  0  0  0  0  0
    2.3990   -1.7820    0.4990 O   0  0  0  0  0  0  0  0  0  0  0  0
    0.2500   -1.1440   -0.1840 C   0  0  0  0  0  0  0  0  0  0  0  0
   -0.3860    0.0430   -0.4640 O   0  0  0  0  0  0  0  0  0  0  0  0
   -1.7090   -0.1030   -0.8420 C   0  0  2  0  0  0  0  0  0  0  0  0
   -1.8740    0.4920   -2.0840 O   0  0  0  0  0  0  0  0  0  0  0  0
   -2.5350    0.7190    0.1530 C   0  0  0  0  0  0  0  0  0  0  0  0
   -2.3090    0.2130    1.4350 O   0  0  0  0  0  0  0  0  0  0  0  0
  1  2  1  0
  2  3  1  0
  3  4  2  0
  3  5  1  0
  5  6  1  0
  6  7  1  0
  7  8  1  6
  7  9  1  0
  9 10  1  0
M  END
