
     RDKit          3D

 10  9  0  0  0  0  0  0  0  0999 V2000
    3.8950    0.1250   -0.1900 C   0  0  0  0  0  0  0  0  0  0  0  0
    2.6960    0.0440   -0.8690 O   0  0  0  0  0  0  0  0  0  0  0  0
    1.6860   -0.1410    0.0790 C   0  0  0  0  0  0  0  0  0  0  0  0
    0.3430   -0.2410   -0.5630 C   0  0  0  0  0  0  0  0  0  0  0  0
    0.1760   -0.1630   -1.8100 O   0  0  0  0  0  0  0  0  0  0  0  0
   -0.7390   -0.4260    0.2710 O   0  0  0  0  0  0  0  0  0  0  0  0
   -2.0250   -0.5260   -0.2920 C   0  0  1  0  0  0  0  0  0  0  0  0
   -2.5710   -1.7620    0.0880 O   0  0  0  0  0  0  0  0  0  0  0  0
   -2.8890    0.5430    0.3210 C   0  0  0  0  0  0  0  0  0  0  0  0
   -2.3890    1.8060    0.0810 O   0  0  0  0  0  0  0  0  0  0  0  0
  1  2  1  0
  2  3  1  0
  3  4  1  0
  4  5  2  0
  4  6  1  0
  6  7  1  0
  7  8  1  1
  7  9  1  0
  9 10  1  0
M  END
