
     RDKit          3D

 10  9  0  0  0  0  0  0  0  0999 V2000
    3.7320    0.8620   -0.2730 C   0  0  0  0  0  0  0  0  0  0  0  0
    2.4570    1.0390   -0.8170 O   0  0  0  0  0  0  0  0  0  0  0  0
    1.6220    0.1060   -0.1910 C   0  0  0  0  0  0  0  0  0  0  0  0
    0.2360    0.2240   -0.7130 C   0  0  0  0  0  0  0  0  0  0  0  0
   -0.1100    1.0510   -1.5890 O   0  0  0  0  0  0  0  0  0  0  0  0
   -0.7250   -0.6270   -0.2010 O   0  0  0  0  0  0  0  0  0  0  0  0
   -2.0750   -0.6100   -0.6170 C   0  0  1  0  0  0  0  0  0  0  0  0
   -2.3970   -1.8730   -1.1120 O   0  0  0  0  0  0  0  0  0  0  0  0
   -2.9070   -0.2830    0.6250 C   0  0  0  0  0  0  0  0  0  0  0  0
   -2.4550    0.9800    1.0610 O   0  0  0  0  0  0  0  0  0  0  0  0
  1  2  1  0
  2  3  1  0
  3  4  1  0
  4  5  2  0
  4  6  1  0
  6  7  1  0
  7  8  1  1
  7  9  1  0
  9 10  1  0
M  END
