
     RDKit          3D

 10  9  0  0  0  0  0  0  0  0999 V2000
   -2.8640    0.6260   -0.7070 C   0  0  0  0  0  0  0  0  0  0  0  0
   -2.6300    0.8070    0.6270 O   0  0  0  0  0  0  0  0  0  0  0  0
   -1.3210    1.0590    0.9460 C   0  0  0  0  0  0  0  0  0  0  0  0
   -0.4340   -0.0700    0.5370 C   0  0  0  0  0  0  0  0  0  0  0  0
    0.9150    0.2000    0.8770 O   0  0  0  0  0  0  0  0  0  0  0  0
    1.6980   -0.8760    0.4770 C   0  0  2  0  0  0  0  0  0  0  0  0
    2.4070   -1.4180    1.5350 O   0  0  0  0  0  0  0  0  0  0  0  0
    2.6490   -0.4760   -0.5840 C   0  0  0  0  0  0  0  0  0  0  0  0
    3.8730   -0.6660   -0.3960 O   0  0  0  0  0  0  0  0  0  0  0  0
    2.1930    0.0970   -1.7590 O   0  0  0  0  0  0  0  0  0  0  0  0
  1  2  1  0
  2  3  1  0
  3  4  1  0
  4  5  1  0
  5  6  1  0
  6  7  1  1
  6  8  1  0
  8  9  2  0
  8 10  1  0
M  END
