
     RDKit          3D

 10  9  0  0  0  0  0  0  0  0999 V2000
    3.3030    1.4440    0.0320 C   0  0  0  0  0  0  0  0  0  0  0  0
    2.6040    0.3150    0.5340 O   0  0  0  0  0  0  0  0  0  0  0  0
    1.2920    0.0360    0.1220 C   0  0  0  0  0  0  0  0  0  0  0  0
    0.8060    0.8280   -0.6900 O   0  0  0  0  0  0  0  0  0  0  0  0
    0.6440   -1.1510    0.6910 C   0  0  0  0  0  0  0  0  0  0  0  0
   -0.6150   -1.3770    0.2520 O   0  0  0  0  0  0  0  0  0  0  0  0
   -1.5780   -0.4370    0.4480 C   0  0  2  0  0  0  0  0  0  0  0  0
   -2.4820   -0.9240    1.4790 O   0  0  0  0  0  0  0  0  0  0  0  0
   -2.4860   -0.1460   -0.7010 C   0  0  0  0  0  0  0  0  0  0  0  0
   -1.8780    0.3010   -1.8580 O   0  0  0  0  0  0  0  0  0  0  0  0
  1  2  1  0
  2  3  1  0
  3  4  2  0
  3  5  1  0
  5  6  1  0
  6  7  1  0
  7  8  1  1
  7  9  1  0
  9 10  1  0
M  END
