
     RDKit          3D

 10  9  0  0  0  0  0  0  0  0999 V2000
   -3.4100    0.2480    0.5420 C   0  0  0  0  0  0  0  0  0  0  0  0
   -2.3410   -0.2430   -0.2040 O   0  0  0  0  0  0  0  0  0  0  0  0
   -1.4220    0.7160   -0.5460 C   0  0  0  0  0  0  0  0  0  0  0  0
   -0.4140    0.1180   -1.2790 O   0  0  0  0  0  0  0  0  0  0  0  0
    0.2150   -0.8760   -0.5330 C   0  0  1  0  0  0  0  0  0  0  0  0
   -0.0370   -2.1130   -1.1360 O   0  0  0  0  0  0  0  0  0  0  0  0
    1.6620   -0.6200   -0.4230 C   0  0  0  0  0  0  0  0  0  0  0  0
    2.4960   -1.4510   -0.8380 O   0  0  0  0  0  0  0  0  0  0  0  0
    2.1170    0.5520    0.1460 O   0  0  0  0  0  0  0  0  0  0  0  0
    3.5010    0.8610    0.2830 C   0  0  0  0  0  0  0  0  0  0  0  0
  1  2  1  0
  2  3  1  0
  3  4  1  0
  4  5  1  0
  5  6  1  6
  5  7  1  0
  7  8  2  0
  7  9  1  0
  9 10  1  0
M  END
