
     RDKit          3D

 10  9  0  0  0  0  0  0  0  0999 V2000
    3.5820    0.5050    0.2610 C   0  0  0  0  0  0  0  0  0  0  0  0
    2.4150   -0.1380    0.7710 O   0  0  0  0  0  0  0  0  0  0  0  0
    1.3150   -0.3350   -0.0400 C   0  0  0  0  0  0  0  0  0  0  0  0
    1.4120    0.0830   -1.2370 O   0  0  0  0  0  0  0  0  0  0  0  0
    0.1450   -0.9460    0.3660 O   0  0  0  0  0  0  0  0  0  0  0  0
   -0.9700   -1.1370   -0.4850 C   0  0  1  0  0  0  0  0  0  0  0  0
   -1.2360   -2.4820   -0.7150 O   0  0  0  0  0  0  0  0  0  0  0  0
   -2.1980   -0.4330    0.0470 C   0  0  0  0  0  0  0  0  0  0  0  0
   -1.9630    1.0630    0.1680 C   0  0  0  0  0  0  0  0  0  0  0  0
   -1.6570    1.6000   -1.0820 O   0  0  0  0  0  0  0  0  0  0  0  0
  1  2  1  0
  2  3  1  0
  3  4  2  0
  3  5  1  0
  5  6  1  0
  6  7  1  1
  6  8  1  0
  8  9  1  0
  9 10  1  0
M  END
