
     RDKit          3D

 23 23  0  0  0  0  0  0  0  0999 V2000
   -3.1610    0.5690    2.2150 C   0  0  0  0  0  0  0  0  0  0  0  0
   -3.0630   -0.4530    1.0910 C   0  0  2  0  0  0  0  0  0  0  0  0
   -2.9190    0.1880   -0.1980 N   0  0  0  0  0  0  0  0  0  0  0  0
   -1.8230    1.1040   -0.2690 C   0  0  1  0  0  0  0  0  0  0  0  0
   -0.7100    0.5980   -1.1790 C   0  0  0  0  0  0  0  0  0  0  0  0
   -0.1530   -0.7170   -0.6970 C   0  0  0  0  0  0  0  0  0  0  0  0
    0.4100   -0.6760    0.6010 N   0  0  0  0  0  0  0  0  0  0  0  0
    1.8030   -0.3380    0.7240 C   0  0  2  0  0  0  0  0  0  0  0  0
    2.5090   -0.5830   -0.5740 C   0  0  0  0  0  0  0  0  0  0  0  0
    3.9760   -0.2530   -0.4410 C   0  0  0  0  0  0  0  0  0  0  0  0
    4.9560   -1.1550   -0.0920 C   0  0  0  0  0  0  0  0  0  0  0  0
    6.1090   -0.4590   -0.0890 N   0  0  0  0  0  0  0  0  0  0  0  0
    5.8300    0.8270   -0.4290 C   0  0  0  0  0  0  0  0  0  0  0  0
    4.5170    0.9680   -0.6490 N   0  0  0  0  0  0  0  0  0  0  0  0
    2.4320   -1.0630    1.8740 C   0  0  0  0  0  0  0  0  0  0  0  0
    1.7920   -1.9440    2.5300 O   0  0  0  0  0  0  0  0  0  0  0  0
    3.7270   -0.8210    2.2870 O   0  0  0  0  0  0  0  0  0  0  0  0
   -2.3220    2.3590   -0.9050 C   0  0  0  0  0  0  0  0  0  0  0  0
   -1.5070    3.3020   -1.0620 O   0  0  0  0  0  0  0  0  0  0  0  0
   -3.6150    2.5430   -1.3270 O   0  0  0  0  0  0  0  0  0  0  0  0
   -4.3200   -1.2660    1.0330 C   0  0  0  0  0  0  0  0  0  0  0  0
   -4.7040   -1.9450    2.0330 O   0  0  0  0  0  0  0  0  0  0  0  0
   -5.1190   -1.3200   -0.1000 O   0  0  0  0  0  0  0  0  0  0  0  0
  2  1  1  1
  2  3  1  0
  2 21  1  0
  3  4  1  0
  4  5  1  6
  4 18  1  0
  5  6  1  0
  6  7  1  0
  7  8  1  0
  8  9  1  6
  8 15  1  0
  9 10  1  0
 10 11  2  0
 10 14  1  0
 11 12  1  0
 12 13  2  0
 13 14  1  0
 15 16  2  0
 15 17  1  0
 18 19  2  0
 18 20  1  0
 21 22  2  0
 21 23  1  0
M  CHG  2   3   1   7   1
M  END
