
     RDKit          3D

 10  9  0  0  0  0  0  0  0  0999 V2000
   -1.3100    2.1180    0.1400 C   0  0  0  0  0  0  0  0  0  0  0  0
   -1.1290    1.0360   -0.6950 O   0  0  0  0  0  0  0  0  0  0  0  0
   -0.5710   -0.0570   -0.0790 C   0  0  1  0  0  0  0  0  0  0  0  0
   -1.7440   -1.0850    0.1240 C   0  0  0  0  0  0  0  0  0  0  0  0
   -2.2790   -1.4270   -1.0900 O   0  0  0  0  0  0  0  0  0  0  0  0
    0.4220   -0.6640   -0.7700 O   0  0  0  0  0  0  0  0  0  0  0  0
    1.5720   -1.0090   -0.1530 C   0  0  0  0  0  0  0  0  0  0  0  0
    2.3330    0.1400    0.3580 C   0  0  0  0  0  0  0  0  0  0  0  0
    1.9990    1.3190    0.1960 O   0  0  0  0  0  0  0  0  0  0  0  0
    3.5230   -0.1360    1.0800 O   0  0  0  0  0  0  0  0  0  0  0  0
  1  2  1  0
  2  3  1  0
  3  4  1  6
  3  6  1  0
  4  5  1  0
  6  7  1  0
  7  8  1  0
  8  9  2  0
  8 10  1  0
M  END
