
     RDKit          3D

 10  9  0  0  0  0  0  0  0  0999 V2000
   -0.7890   -0.1440    1.7010 O   0  0  0  0  0  0  0  0  0  0  0  0
   -0.0660   -0.2600    0.6800 C   0  0  0  0  0  0  0  0  0  0  0  0
    1.3980   -0.0610    0.8150 C   0  0  0  0  0  0  0  0  0  0  0  0
    2.0330   -0.2280   -0.4160 O   0  0  0  0  0  0  0  0  0  0  0  0
    3.4090   -0.0440   -0.3020 C   0  0  0  0  0  0  0  0  0  0  0  0
    3.7250    1.2420    0.1610 O   0  0  0  0  0  0  0  0  0  0  0  0
   -0.6260   -0.5640   -0.5340 O   0  0  0  0  0  0  0  0  0  0  0  0
   -2.0090   -0.7610   -0.7120 C   0  0  0  0  0  0  0  0  0  0  0  0
   -2.8180    0.4620   -0.3490 C   0  0  0  0  0  0  0  0  0  0  0  0
   -4.1700    0.2190   -0.5410 O   0  0  0  0  0  0  0  0  0  0  0  0
  1  2  2  0
  2  3  1  0
  2  7  1  0
  3  4  1  0
  4  5  1  0
  5  6  1  0
  7  8  1  0
  8  9  1  0
  9 10  1  0
M  END
