
     RDKit          3D

 10  9  0  0  0  0  0  0  0  0999 V2000
   -2.7990    0.5630   -0.1480 C   0  0  0  0  0  0  0  0  0  0  0  0
   -1.7080    1.1810    0.4560 O   0  0  0  0  0  0  0  0  0  0  0  0
   -0.9540    0.1940    1.0810 C   0  0  2  0  0  0  0  0  0  0  0  0
   -0.9320    0.4470    2.4680 O   0  0  0  0  0  0  0  0  0  0  0  0
    0.4710    0.1960    0.5340 C   0  0  0  0  0  0  0  0  0  0  0  0
    0.3910   -0.0750   -0.9500 C   0  0  0  0  0  0  0  0  0  0  0  0
    1.6800   -0.0760   -1.4810 O   0  0  0  0  0  0  0  0  0  0  0  0
    2.6900   -0.9380   -1.1150 C   0  0  0  0  0  0  0  0  0  0  0  0
    2.4810   -1.8010   -0.2490 O   0  0  0  0  0  0  0  0  0  0  0  0
    3.9590   -0.8520   -1.7140 O   0  0  0  0  0  0  0  0  0  0  0  0
  1  2  1  0
  2  3  1  0
  3  4  1  1
  3  5  1  0
  5  6  1  0
  6  7  1  0
  7  8  1  0
  8  9  2  0
  8 10  1  0
M  END
