
     RDKit          3D

 10  9  0  0  0  0  0  0  0  0999 V2000
    2.9260   -1.6910   -1.5360 O   0  0  0  0  0  0  0  0  0  0  0  0
    2.5380   -0.6730   -0.9150 C   0  0  0  0  0  0  0  0  0  0  0  0
    3.0460    0.5620   -1.2830 O   0  0  0  0  0  0  0  0  0  0  0  0
    1.5510   -0.8480    0.1870 C   0  0  0  0  0  0  0  0  0  0  0  0
    1.2950    0.4210    0.7010 O   0  0  0  0  0  0  0  0  0  0  0  0
    0.3760    0.3640    1.7450 C   0  0  0  0  0  0  0  0  0  0  0  0
   -0.8020   -0.1940    1.1960 O   0  0  0  0  0  0  0  0  0  0  0  0
   -1.2640    0.6080    0.1700 C   0  0  0  0  0  0  0  0  0  0  0  0
   -2.5340   -0.0750   -0.3580 C   0  0  0  0  0  0  0  0  0  0  0  0
   -3.1030    0.6270   -1.3930 O   0  0  0  0  0  0  0  0  0  0  0  0
  1  2  2  0
  2  3  1  0
  2  4  1  0
  4  5  1  0
  5  6  1  0
  6  7  1  0
  7  8  1  0
  8  9  1  0
  9 10  1  0
M  END
