
     RDKit          3D

 10  9  0  0  0  0  0  0  0  0999 V2000
   -3.3080   -1.1350   -0.7830 C   0  0  0  0  0  0  0  0  0  0  0  0
   -2.5390   -0.6290    0.2750 O   0  0  0  0  0  0  0  0  0  0  0  0
   -1.4800    0.0540   -0.2830 C   0  0  0  0  0  0  0  0  0  0  0  0
   -0.6270    0.6140    0.6550 O   0  0  0  0  0  0  0  0  0  0  0  0
    0.3930    1.2700   -0.0420 C   0  0  1  0  0  0  0  0  0  0  0  0
    0.3330    2.6360    0.2270 O   0  0  0  0  0  0  0  0  0  0  0  0
    1.7430    0.7250    0.3500 C   0  0  0  0  0  0  0  0  0  0  0  0
    2.6260    1.4780    0.8440 O   0  0  0  0  0  0  0  0  0  0  0  0
    2.0480   -0.6120    0.1790 O   0  0  0  0  0  0  0  0  0  0  0  0
    3.3180   -1.1570    0.5410 C   0  0  0  0  0  0  0  0  0  0  0  0
  1  2  1  0
  2  3  1  0
  3  4  1  0
  4  5  1  0
  5  6  1  1
  5  7  1  0
  7  8  2  0
  7  9  1  0
  9 10  1  0
M  END
