
     RDKit          3D

 23 23  0  0  0  0  0  0  0  0999 V2000
    4.3270   -0.7400    0.5800 C   0  0  0  0  0  0  0  0  0  0  0  0
    3.7820    0.6600    0.3840 C   0  0  2  0  0  0  0  0  0  0  0  0
    2.6130    0.7010   -0.4390 N   0  0  0  0  0  0  0  0  0  0  0  0
    1.7640   -0.5170   -0.2150 C   0  0  1  0  0  0  0  0  0  0  0  0
    0.8810   -0.1820    0.9400 C   0  0  0  0  0  0  0  0  0  0  0  0
   -0.0700   -1.1470    1.4760 C   0  0  0  0  0  0  0  0  0  0  0  0
   -1.1480   -1.6560    0.7350 N   0  0  0  0  0  0  0  0  0  0  0  0
   -1.9930   -0.6900    0.0660 C   0  0  2  0  0  0  0  0  0  0  0  0
   -3.0570   -0.1580    1.0070 C   0  0  0  0  0  0  0  0  0  0  0  0
   -3.9240    0.8250    0.3370 C   0  0  0  0  0  0  0  0  0  0  0  0
   -5.1160    0.6380   -0.3270 C   0  0  0  0  0  0  0  0  0  0  0  0
   -5.5700    1.8210   -0.7990 N   0  0  0  0  0  0  0  0  0  0  0  0
   -4.6810    2.7480   -0.4420 C   0  0  0  0  0  0  0  0  0  0  0  0
   -3.6880    2.1630    0.2400 N   0  0  0  0  0  0  0  0  0  0  0  0
   -2.6740   -1.3810   -1.0510 C   0  0  0  0  0  0  0  0  0  0  0  0
   -3.4080   -0.8150   -1.9040 O   0  0  0  0  0  0  0  0  0  0  0  0
   -2.5300   -2.7580   -1.2250 O   0  0  0  0  0  0  0  0  0  0  0  0
    0.9930   -0.6470   -1.4660 C   0  0  0  0  0  0  0  0  0  0  0  0
    0.4430   -1.6950   -1.8340 O   0  0  0  0  0  0  0  0  0  0  0  0
    0.8440    0.4650   -2.3340 O   0  0  0  0  0  0  0  0  0  0  0  0
    4.8410    1.5090   -0.2000 C   0  0  0  0  0  0  0  0  0  0  0  0
    4.6210    2.1240   -1.2680 O   0  0  0  0  0  0  0  0  0  0  0  0
    6.0910    1.6610    0.3860 O   0  0  0  0  0  0  0  0  0  0  0  0
  2  1  1  6
  2  3  1  0
  2 21  1  0
  3  4  1  0
  4  5  1  1
  4 18  1  0
  5  6  1  0
  6  7  1  0
  7  8  1  0
  8  9  1  1
  8 15  1  0
  9 10  1  0
 10 11  2  0
 10 14  1  0
 11 12  1  0
 12 13  2  0
 13 14  1  0
 15 16  2  0
 15 17  1  0
 18 19  2  0
 18 20  1  0
 21 22  2  0
 21 23  1  0
M  CHG  2   3   1   7   1
M  END
