
     RDKit          3D

 10  9  0  0  0  0  0  0  0  0999 V2000
    3.8690   -0.9600    1.0190 C   0  0  0  0  0  0  0  0  0  0  0  0
    2.6070   -0.4440    1.1970 O   0  0  0  0  0  0  0  0  0  0  0  0
    1.8040   -0.5070    0.0890 C   0  0  0  0  0  0  0  0  0  0  0  0
    0.4800    0.0870    0.4420 C   0  0  0  0  0  0  0  0  0  0  0  0
    0.2560    0.5440    1.6150 O   0  0  0  0  0  0  0  0  0  0  0  0
   -0.5600    0.1790   -0.4480 O   0  0  0  0  0  0  0  0  0  0  0  0
   -1.7860    0.7390   -0.0900 C   0  0  1  0  0  0  0  0  0  0  0  0
   -2.1050    1.8750   -0.8310 O   0  0  0  0  0  0  0  0  0  0  0  0
   -2.9490   -0.2200   -0.2310 C   0  0  0  0  0  0  0  0  0  0  0  0
   -4.0960    0.4770    0.1600 O   0  0  0  0  0  0  0  0  0  0  0  0
  1  2  1  0
  2  3  1  0
  3  4  1  0
  4  5  2  0
  4  6  1  0
  6  7  1  0
  7  8  1  6
  7  9  1  0
  9 10  1  0
M  END
