
     RDKit          3D

 10  9  0  0  0  0  0  0  0  0999 V2000
   -2.0670    1.8010   -0.2590 C   0  0  0  0  0  0  0  0  0  0  0  0
   -1.2920    0.6650   -0.2650 O   0  0  0  0  0  0  0  0  0  0  0  0
   -1.1780    0.1050    0.9750 C   0  0  0  0  0  0  0  0  0  0  0  0
   -0.3490   -1.1390    1.0620 C   0  0  0  0  0  0  0  0  0  0  0  0
    0.9430   -1.0300    0.6920 O   0  0  0  0  0  0  0  0  0  0  0  0
    1.2740   -0.7000   -0.5760 C   0  0  2  0  0  0  0  0  0  0  0  0
    1.9860   -1.7000   -1.2510 O   0  0  0  0  0  0  0  0  0  0  0  0
    2.0050    0.5660   -0.7280 C   0  0  0  0  0  0  0  0  0  0  0  0
    3.0700    0.5690   -1.3880 O   0  0  0  0  0  0  0  0  0  0  0  0
    1.5970    1.7770   -0.1870 O   0  0  0  0  0  0  0  0  0  0  0  0
  1  2  1  0
  2  3  1  0
  3  4  1  0
  4  5  1  0
  5  6  1  0
  6  7  1  1
  6  8  1  0
  8  9  2  0
  8 10  1  0
M  END
