
     RDKit          3D

 10  9  0  0  0  0  0  0  0  0999 V2000
   -2.8700    1.0650    0.4560 C   0  0  0  0  0  0  0  0  0  0  0  0
   -2.1100    0.4530   -0.5520 O   0  0  0  0  0  0  0  0  0  0  0  0
   -0.7490    0.3450   -0.0890 C   0  0  2  0  0  0  0  0  0  0  0  0
   -0.0220    1.1640   -0.9880 O   0  0  0  0  0  0  0  0  0  0  0  0
   -0.3890   -1.0690   -0.2820 C   0  0  0  0  0  0  0  0  0  0  0  0
    0.9230   -1.5930    0.1390 C   0  0  0  0  0  0  0  0  0  0  0  0
    2.0870   -1.0240   -0.3320 O   0  0  0  0  0  0  0  0  0  0  0  0
    2.6750    0.1560   -0.0170 C   0  0  0  0  0  0  0  0  0  0  0  0
    2.1480    0.8950    0.8480 O   0  0  0  0  0  0  0  0  0  0  0  0
    3.8580    0.6120   -0.6100 O   0  0  0  0  0  0  0  0  0  0  0  0
  1  2  1  0
  2  3  1  0
  3  4  1  6
  3  5  1  0
  5  6  1  0
  6  7  1  0
  7  8  1  0
  8  9  2  0
  8 10  1  0
M  END
