
     RDKit          3D

 10  9  0  0  0  0  0  0  0  0999 V2000
    2.0910    2.1540   -0.0650 C   0  0  0  0  0  0  0  0  0  0  0  0
    1.4270    1.0820    0.6220 O   0  0  0  0  0  0  0  0  0  0  0  0
    1.4460   -0.1950    0.1200 C   0  0  0  0  0  0  0  0  0  0  0  0
    2.0810   -0.3890   -0.9860 O   0  0  0  0  0  0  0  0  0  0  0  0
    0.7910   -1.3500    0.7530 C   0  0  0  0  0  0  0  0  0  0  0  0
   -0.6830   -1.4530    0.5300 C   0  0  1  0  0  0  0  0  0  0  0  0
   -1.1700   -2.6050    1.1670 O   0  0  0  0  0  0  0  0  0  0  0  0
   -1.2920   -0.3400    1.1310 O   0  0  0  0  0  0  0  0  0  0  0  0
   -2.0670    0.3980    0.2800 C   0  0  0  0  0  0  0  0  0  0  0  0
   -1.3020    0.8960   -0.7870 O   0  0  0  0  0  0  0  0  0  0  0  0
  1  2  1  0
  2  3  1  0
  3  4  2  0
  3  5  1  0
  5  6  1  0
  6  7  1  1
  6  8  1  0
  8  9  1  0
  9 10  1  0
M  END
