
     RDKit          3D

 10  9  0  0  0  0  0  0  0  0999 V2000
   -2.1110   -1.0090   -0.6700 C   0  0  0  0  0  0  0  0  0  0  0  0
   -1.8270   -0.0200    0.2330 O   0  0  0  0  0  0  0  0  0  0  0  0
   -0.4560    0.3750    0.2190 C   0  0  1  0  0  0  0  0  0  0  0  0
   -0.3570    1.8020   -0.2350 C   0  0  0  0  0  0  0  0  0  0  0  0
   -0.8910    1.8490   -1.5270 O   0  0  0  0  0  0  0  0  0  0  0  0
    0.1290    0.0940    1.4220 O   0  0  0  0  0  0  0  0  0  0  0  0
    0.9790   -0.9780    1.4400 C   0  0  0  0  0  0  0  0  0  0  0  0
    2.1510   -0.9250    0.5600 C   0  0  0  0  0  0  0  0  0  0  0  0
    2.9870   -1.8820    0.5150 O   0  0  0  0  0  0  0  0  0  0  0  0
    2.4270    0.1390   -0.2620 O   0  0  0  0  0  0  0  0  0  0  0  0
  1  2  1  0
  2  3  1  0
  3  4  1  1
  3  6  1  0
  4  5  1  0
  6  7  1  0
  7  8  1  0
  8  9  2  0
  8 10  1  0
M  END
