
     RDKit          3D

 10  9  0  0  0  0  0  0  0  0999 V2000
    3.5340   -0.3130    0.7970 C   0  0  0  0  0  0  0  0  0  0  0  0
    2.3410   -0.9770    0.4030 O   0  0  0  0  0  0  0  0  0  0  0  0
    1.2810   -0.2450   -0.1410 C   0  0  0  0  0  0  0  0  0  0  0  0
    1.4550    0.9920   -0.2510 O   0  0  0  0  0  0  0  0  0  0  0  0
    0.1000   -0.8530   -0.5380 O   0  0  0  0  0  0  0  0  0  0  0  0
   -0.9580   -0.0810   -1.0860 C   0  0  1  0  0  0  0  0  0  0  0  0
   -1.1340   -0.4650   -2.4280 O   0  0  0  0  0  0  0  0  0  0  0  0
   -2.2400   -0.2860   -0.3400 C   0  0  0  0  0  0  0  0  0  0  0  0
   -2.1240    0.1030    1.1100 C   0  0  0  0  0  0  0  0  0  0  0  0
   -1.7900    1.4440    1.2630 O   0  0  0  0  0  0  0  0  0  0  0  0
  1  2  1  0
  2  3  1  0
  3  4  2  0
  3  5  1  0
  5  6  1  0
  6  7  1  6
  6  8  1  0
  8  9  1  0
  9 10  1  0
M  END
