
     RDKit          3D

 10  9  0  0  0  0  0  0  0  0999 V2000
   -3.7670    1.4050    0.6850 O   0  0  0  0  0  0  0  0  0  0  0  0
   -3.7180    0.2500    0.2030 C   0  0  0  0  0  0  0  0  0  0  0  0
   -4.9020   -0.4330   -0.0170 O   0  0  0  0  0  0  0  0  0  0  0  0
   -2.3960   -0.3400   -0.1110 C   0  0  0  0  0  0  0  0  0  0  0  0
   -1.3550    0.5330    0.1960 O   0  0  0  0  0  0  0  0  0  0  0  0
   -0.1720   -0.0930   -0.1260 C   0  0  0  0  0  0  0  0  0  0  0  0
    0.9560    0.6680    0.1300 O   0  0  0  0  0  0  0  0  0  0  0  0
    2.0620   -0.0950   -0.2450 C   0  0  0  0  0  0  0  0  0  0  0  0
    3.3640    0.6480   -0.0050 C   0  0  0  0  0  0  0  0  0  0  0  0
    4.3870   -0.2280   -0.4230 O   0  0  0  0  0  0  0  0  0  0  0  0
  1  2  2  0
  2  3  1  0
  2  4  1  0
  4  5  1  0
  5  6  1  0
  6  7  1  0
  7  8  1  0
  8  9  1  0
  9 10  1  0
M  END
