
     RDKit          3D

 10  9  0  0  0  0  0  0  0  0999 V2000
    4.0140   -0.5610   -0.5790 C   0  0  0  0  0  0  0  0  0  0  0  0
    2.8290    0.2350   -0.5730 O   0  0  0  0  0  0  0  0  0  0  0  0
    1.6530   -0.3100   -0.0440 C   0  0  0  0  0  0  0  0  0  0  0  0
    1.6300   -1.4690    0.4160 O   0  0  0  0  0  0  0  0  0  0  0  0
    0.4270    0.5080   -0.0350 C   0  0  0  0  0  0  0  0  0  0  0  0
   -0.6090   -0.1940    0.5180 O   0  0  0  0  0  0  0  0  0  0  0  0
   -1.8010    0.4880    0.5710 C   0  0  2  0  0  0  0  0  0  0  0  0
   -2.1530    0.6350    1.9070 O   0  0  0  0  0  0  0  0  0  0  0  0
   -2.9290   -0.2550   -0.1370 C   0  0  0  0  0  0  0  0  0  0  0  0
   -2.6470   -0.4590   -1.4720 O   0  0  0  0  0  0  0  0  0  0  0  0
  1  2  1  0
  2  3  1  0
  3  4  2  0
  3  5  1  0
  5  6  1  0
  6  7  1  0
  7  8  1  1
  7  9  1  0
  9 10  1  0
M  END
