
     RDKit          3D

 25 28  0  0  0  0  0  0  0  0999 V2000
   -4.2520    3.3510    1.1570 C   0  0  0  0  0  0  0  0  0  0  0  0
   -4.4300    2.0320    0.5140 C   0  0  0  0  0  0  0  0  0  0  0  0
   -3.4100    1.2290    0.2260 C   0  0  0  0  0  0  0  0  0  0  0  0
   -2.0240    1.4930    0.4810 N   0  0  0  0  0  0  0  0  0  0  0  0
   -1.2500    0.8830   -0.5690 C   0  0  1  0  0  0  0  0  0  0  0  0
    0.1150    0.5400   -0.1620 C   0  0  0  0  0  0  0  0  0  0  0  0
    0.4930    0.7870    1.0060 O   0  0  0  0  0  0  0  0  0  0  0  0
    0.9980   -0.0700   -1.0930 N   0  0  0  0  0  0  0  0  0  0  0  0
    2.3540   -0.4350   -0.7620 C   0  0  0  0  0  0  0  0  0  0  0  0
    3.1500    0.7870   -0.3410 C   0  0  0  0  0  0  0  0  0  0  0  0
    4.5440    0.3200   -0.0150 C   0  0  0  0  0  0  0  0  0  0  0  0
    5.0240   -0.9340   -0.0750 N   0  0  0  0  0  0  0  0  0  0  0  0
    6.3170   -0.9590    0.2910 C   0  0  0  0  0  0  0  0  0  0  0  0
    6.6450    0.3030    0.5850 N   0  0  0  0  0  0  0  0  0  0  0  0
    5.5820    1.0730    0.4010 N   0  0  0  0  0  0  0  0  0  0  0  0
    8.0350    0.3890    0.9970 C   0  0  0  0  0  0  0  0  0  0  0  0
    8.6500   -0.8520    0.3690 C   0  0  0  0  0  0  0  0  0  0  0  0
    7.5160   -1.8470    0.4950 C   0  0  0  0  0  0  0  0  0  0  0  0
   -2.0630   -0.2970   -1.0020 C   0  0  0  0  0  0  0  0  0  0  0  0
   -3.4630   -0.1030   -0.4130 C   0  0  1  0  0  0  0  0  0  0  0  0
   -3.6330   -1.2020    0.6210 C   0  0  0  0  0  0  0  0  0  0  0  0
   -5.0350   -1.1060    1.1490 C   0  0  0  0  0  0  0  0  0  0  0  0
   -5.9950   -1.3760    0.0560 C   0  0  0  0  0  0  0  0  0  0  0  0
   -5.7960   -0.6420   -1.2050 C   0  0  0  0  0  0  0  0  0  0  0  0
   -4.4360   -0.1980   -1.5380 C   0  0  0  0  0  0  0  0  0  0  0  0
  1  2  1  0
  2  3  2  3
  3  4  1  0
  3 20  1  0
  4  5  1  0
  5  6  1  1
  5 19  1  0
  6  7  2  0
  6  8  1  0
  8  9  1  0
  9 10  1  0
 10 11  1  0
 11 12  1  0
 11 15  2  0
 12 13  2  0
 13 14  1  0
 13 18  1  0
 14 15  1  0
 14 16  1  0
 16 17  1  0
 17 18  1  0
 20 19  1  6
 20 21  1  0
 20 25  1  0
 21 22  1  0
 22 23  1  0
 23 24  1  0
 24 25  1  0
M  END
