
     RDKit          3D

 25 28  0  0  0  0  0  0  0  0999 V2000
   -6.9800   -1.4080    0.0910 C   0  0  0  0  0  0  0  0  0  0  0  0
   -5.8830   -0.9070   -0.4110 C   0  0  0  0  0  0  0  0  0  0  0  0
   -5.7420   -0.1160   -1.6430 C   0  0  0  0  0  0  0  0  0  0  0  0
   -4.4010    0.6160   -1.4950 C   0  0  0  0  0  0  0  0  0  0  0  0
   -4.0100    0.3790   -0.0300 C   0  0  2  0  0  0  0  0  0  0  0  0
   -2.5380    0.4580    0.1340 C   0  0  0  0  0  0  0  0  0  0  0  0
   -1.6420   -0.3390   -0.4730 N   0  0  0  0  0  0  0  0  0  0  0  0
   -0.3990    0.0300   -0.0830 C   0  0  0  0  0  0  0  0  0  0  0  0
    0.8410   -0.5840   -0.5150 N   0  0  0  0  0  0  0  0  0  0  0  0
    2.0340   -0.0040    0.0490 C   0  0  0  0  0  0  0  0  0  0  0  0
    3.2980   -0.5860   -0.3600 C   0  0  0  0  0  0  0  0  0  0  0  0
    3.3910   -1.6210   -1.2590 C   0  0  0  0  0  0  0  0  0  0  0  0
    4.6480   -2.1210   -1.6150 C   0  0  0  0  0  0  0  0  0  0  0  0
    4.6740   -3.0710   -2.4450 O   0  0  0  0  0  0  0  0  0  0  0  0
    5.7730   -1.6170   -1.1000 N   0  0  0  0  0  0  0  0  0  0  0  0
    5.7020   -0.6050   -0.2180 C   0  0  0  0  0  0  0  0  0  0  0  0
    6.8490   -0.0540    0.3430 C   0  0  0  0  0  0  0  0  0  0  0  0
    6.7630    0.9790    1.2460 C   0  0  0  0  0  0  0  0  0  0  0  0
    5.5610    1.5140    1.6370 C   0  0  0  0  0  0  0  0  0  0  0  0
    4.4020    0.9620    1.0730 C   0  0  0  0  0  0  0  0  0  0  0  0
    4.4810   -0.0710    0.1690 C   0  0  0  0  0  0  0  0  0  0  0  0
   -0.5820    1.0550    0.7620 N   0  0  0  0  0  0  0  0  0  0  0  0
   -1.8680    1.3270    0.9040 N   0  0  0  0  0  0  0  0  0  0  0  0
   -2.3930    2.3810    1.7510 C   0  0  0  0  0  0  0  0  0  0  0  0
   -4.5320   -1.0330    0.1660 C   0  0  0  0  0  0  0  0  0  0  0  0
  1  2  2  0
  2  3  1  0
  2 25  1  0
  3  4  1  0
  4  5  1  0
  5  6  1  6
  5 25  1  0
  6  7  2  0
  6 23  1  0
  7  8  1  0
  8  9  1  0
  8 22  2  0
  9 10  1  0
 10 11  1  0
 11 12  2  0
 11 21  1  0
 12 13  1  0
 13 14  2  0
 13 15  1  0
 15 16  1  0
 16 17  2  0
 16 21  1  0
 17 18  1  0
 18 19  2  0
 19 20  1  0
 20 21  2  0
 22 23  1  0
 23 24  1  0
M  END
