
     RDKit          3D

 25 27  0  0  0  0  0  0  0  0999 V2000
   -4.6520    0.2210    0.2710 C   0  0  0  0  0  0  0  0  0  0  0  0
   -3.8750    1.2430    0.5530 C   0  0  0  0  0  0  0  0  0  0  0  0
   -2.6700    1.4990   -0.2280 C   0  0  0  0  0  0  0  0  0  0  0  0
   -1.9260    2.5350    0.0880 C   0  0  0  0  0  0  0  0  0  0  0  0
   -2.2720    3.4500    1.2100 C   0  0  0  0  0  0  0  0  0  0  0  0
   -2.3410    0.6230   -1.2930 N   0  0  0  0  0  0  0  0  0  0  0  0
   -2.1180   -0.6920   -1.0850 N   0  0  0  0  0  0  0  0  0  0  0  0
   -1.1590   -1.3770   -0.6680 C   0  0  0  0  0  0  0  0  0  0  0  0
    0.1380   -0.8180   -0.2490 C   0  0  2  0  0  0  0  0  0  0  0  0
    0.4650    0.4410   -0.8460 N   0  0  0  0  0  0  0  0  0  0  0  0
    1.6170    1.1370   -0.3520 C   0  0  0  0  0  0  0  0  0  0  0  0
    2.4280    0.7010    0.6690 C   0  0  0  0  0  0  0  0  0  0  0  0
    3.4010    1.6700    0.8120 C   0  0  0  0  0  0  0  0  0  0  0  0
    3.1910    2.6440   -0.0770 N   0  0  0  0  0  0  0  0  0  0  0  0
    2.1180    2.3170   -0.7730 N   0  0  0  0  0  0  0  0  0  0  0  0
    4.2100    3.6570    0.0760 C   0  0  0  0  0  0  0  0  0  0  0  0
    4.1090    4.8650   -0.2350 O   0  0  0  0  0  0  0  0  0  0  0  0
    5.3590    2.9200    0.6730 C   0  0  0  0  0  0  0  0  0  0  0  0
    4.6170    2.0040    1.6300 C   0  0  0  0  0  0  0  0  0  0  0  0
    1.2770   -1.7860   -0.6460 C   0  0  0  0  0  0  0  0  0  0  0  0
    0.8300   -2.6080   -1.8440 C   0  0  0  0  0  0  0  0  0  0  0  0
   -0.3280   -3.5000   -1.4990 C   0  0  0  0  0  0  0  0  0  0  0  0
   -1.2760   -2.8810   -0.5290 C   0  0  2  0  0  0  0  0  0  0  0  0
   -2.7200   -3.2240   -0.8510 C   0  0  0  0  0  0  0  0  0  0  0  0
   -0.9370   -3.3290    0.8610 C   0  0  0  0  0  0  0  0  0  0  0  0
  1  2  2  0
  2  3  1  0
  3  4  2  3
  3  6  1  0
  4  5  1  0
  6  7  1  0
  7  8  2  3
  8  9  1  0
  8 23  1  0
  9 10  1  6
  9 20  1  0
 10 11  1  0
 11 12  1  0
 11 15  2  0
 12 13  2  0
 13 14  1  0
 13 19  1  0
 14 15  1  0
 14 16  1  0
 16 17  2  0
 16 18  1  0
 18 19  1  0
 20 21  1  0
 21 22  1  0
 22 23  1  0
 23 24  1  6
 23 25  1  0
M  END
