
     RDKit          3D

 25 27  0  0  0  0  0  0  0  0999 V2000
    7.8780   -1.3780   -0.2400 C   0  0  0  0  0  0  0  0  0  0  0  0
    6.9340   -0.2310   -0.2590 C   0  0  0  0  0  0  0  0  0  0  0  0
    5.6540   -0.4890   -0.4540 C   0  0  0  0  0  0  0  0  0  0  0  0
    5.2670   -1.8700   -0.6340 C   0  0  0  0  0  0  0  0  0  0  0  0
    4.1000   -2.3560   -1.0930 C   0  0  0  0  0  0  0  0  0  0  0  0
    2.9110   -1.6270   -1.5320 C   0  0  0  0  0  0  0  0  0  0  0  0
    2.6840   -0.3390   -1.4320 C   0  0  0  0  0  0  0  0  0  0  0  0
    1.4310    0.0630   -1.9530 N   0  0  0  0  0  0  0  0  0  0  0  0
    0.4820    0.6960   -1.1000 C   0  0  0  0  0  0  0  0  0  0  0  0
    0.7980    0.8720    0.0810 O   0  0  0  0  0  0  0  0  0  0  0  0
   -0.7670    1.0890   -1.6490 N   0  0  0  0  0  0  0  0  0  0  0  0
   -1.7340    1.7220   -0.8130 C   0  0  0  0  0  0  0  0  0  0  0  0
   -2.1740    0.8550    0.3470 C   0  0  1  0  0  0  0  0  0  0  0  0
   -3.1840    1.6390    1.1330 C   0  0  0  0  0  0  0  0  0  0  0  0
   -3.5000    1.1020    2.4160 N   0  0  0  0  0  0  0  0  0  0  0  0
   -4.0060    2.0790    3.3420 C   0  0  0  0  0  0  0  0  0  0  0  0
   -4.2580   -0.0910    2.4300 C   0  0  0  0  0  0  0  0  0  0  0  0
   -4.8380   -0.3920    1.0990 C   0  0  0  0  0  0  0  0  0  0  0  0
   -6.1320   -0.5820    0.8110 N   0  0  0  0  0  0  0  0  0  0  0  0
   -6.2670   -0.8330   -0.5030 C   0  0  0  0  0  0  0  0  0  0  0  0
   -5.0090   -0.7990   -1.0600 C   0  0  0  0  0  0  0  0  0  0  0  0
   -4.1620   -0.5270   -0.0530 N   0  0  0  0  0  0  0  0  0  0  0  0
   -2.7470   -0.4120   -0.2510 C   0  0  0  0  0  0  0  0  0  0  0  0
    3.4910    0.7390   -0.8820 C   0  0  0  0  0  0  0  0  0  0  0  0
    4.7650    0.6660   -0.4650 C   0  0  0  0  0  0  0  0  0  0  0  0
  1  2  1  0
  2  3  2  3
  3  4  1  0
  3 25  1  0
  4  5  2  0
  5  6  1  0
  6  7  2  0
  7  8  1  0
  7 24  1  0
  8  9  1  0
  9 10  2  0
  9 11  1  0
 11 12  1  0
 13 12  1  6
 13 14  1  0
 13 23  1  0
 14 15  1  0
 15 16  1  0
 15 17  1  0
 17 18  1  0
 18 19  2  0
 18 22  1  0
 19 20  1  0
 20 21  2  0
 21 22  1  0
 22 23  1  0
 24 25  2  0
M  END
