
     RDKit          3D

 25 28  0  0  0  0  0  0  0  0999 V2000
   -3.0520    0.8180   -2.1390 C   0  0  0  0  0  0  0  0  0  0  0  0
   -2.2230    0.2780   -1.0130 C   0  0  0  0  0  0  0  0  0  0  0  0
   -2.8600   -0.0670    0.1370 C   0  0  0  0  0  0  0  0  0  0  0  0
   -4.2820    0.0910    0.2270 C   0  0  0  0  0  0  0  0  0  0  0  0
   -5.1460   -0.1360    1.1730 C   0  0  0  0  0  0  0  0  0  0  0  0
   -6.6020    0.1500    0.9230 C   0  0  0  0  0  0  0  0  0  0  0  0
   -7.2690   -0.1400    1.9680 N   0  0  0  0  0  0  0  0  0  0  0  0
   -6.5060   -0.6110    2.9860 N   0  0  0  0  0  0  0  0  0  0  0  0
   -5.1390   -0.6230    2.5140 C   0  0  0  0  0  0  0  0  0  0  0  0
   -4.2000   -1.0060    3.2240 O   0  0  0  0  0  0  0  0  0  0  0  0
   -2.0810   -0.5960    1.2480 C   0  0  0  0  0  0  0  0  0  0  0  0
   -0.6220   -0.6700    1.1240 C   0  0  0  0  0  0  0  0  0  0  0  0
   -0.0380   -0.2540   -0.2000 C   0  0  0  0  0  0  0  0  0  0  0  0
    1.4270   -0.2930   -0.1830 C   0  0  0  0  0  0  0  0  0  0  0  0
    2.2620    0.3860   -1.1650 C   0  0  0  0  0  0  0  0  0  0  0  0
    3.7340    0.1320   -0.7690 C   0  0  0  0  0  0  0  0  0  0  0  0
    4.5140   -0.8660   -1.1510 N   0  0  0  0  0  0  0  0  0  0  0  0
    5.7480   -0.7320   -0.5810 C   0  0  0  0  0  0  0  0  0  0  0  0
    5.6630    0.4130    0.1720 C   0  0  0  0  0  0  0  0  0  0  0  0
    4.4090    0.9390    0.0470 N   0  0  0  0  0  0  0  0  0  0  0  0
    6.8130    0.6540    0.7830 C   0  0  0  0  0  0  0  0  0  0  0  0
    7.7270   -0.4500    0.3790 C   0  0  0  0  0  0  0  0  0  0  0  0
    6.9140   -1.2690   -0.4970 N   0  0  0  0  0  0  0  0  0  0  0  0
   -0.7730    0.1720   -1.1730 C   0  0  0  0  0  0  0  0  0  0  0  0
   -0.1900    0.4460   -2.5370 C   0  0  0  0  0  0  0  0  0  0  0  0
  1  2  1  0
  2  3  2  0
  2 24  1  0
  3  4  1  0
  3 11  1  0
  4  5  2  3
  5  6  1  0
  5  9  1  0
  6  7  2  0
  7  8  1  0
  8  9  1  0
  9 10  2  0
 11 12  1  0
 12 13  1  0
 13 14  1  0
 13 24  2  0
 14 15  1  0
 15 16  1  0
 16 17  2  0
 16 20  1  0
 17 18  1  0
 18 19  1  0
 18 23  2  0
 19 20  1  0
 19 21  2  0
 21 22  1  0
 22 23  1  0
 24 25  1  0
M  END
