
     RDKit          3D

 25 28  0  0  0  0  0  0  0  0999 V2000
   -4.0200   -2.1520    0.8180 C   0  0  0  0  0  0  0  0  0  0  0  0
   -4.7870   -1.2650   -0.0610 C   0  0  0  0  0  0  0  0  0  0  0  0
   -4.7370    0.1690   -0.0380 C   0  0  1  0  0  0  0  0  0  0  0  0
   -5.0890    0.9590    1.1980 C   0  0  0  0  0  0  0  0  0  0  0  0
   -5.1630    2.4200    0.6790 C   0  0  0  0  0  0  0  0  0  0  0  0
   -5.5240    2.5090   -0.7680 C   0  0  0  0  0  0  0  0  0  0  0  0
   -4.4870    1.8880   -1.7130 C   0  0  0  0  0  0  0  0  0  0  0  0
   -3.7710    0.9470   -0.7470 N   0  0  0  0  0  0  0  0  0  0  0  0
   -2.4120    1.0400   -0.7880 C   0  0  0  0  0  0  0  0  0  0  0  0
   -1.9420    1.8210   -1.7460 O   0  0  0  0  0  0  0  0  0  0  0  0
   -1.3440    0.4720   -0.0060 C   0  0  0  0  0  0  0  0  0  0  0  0
   -1.4260   -0.1450    1.2010 C   0  0  0  0  0  0  0  0  0  0  0  0
   -0.2100   -0.5750    1.5760 N   0  0  0  0  0  0  0  0  0  0  0  0
    0.7060   -0.2610    0.6460 C   0  0  0  0  0  0  0  0  0  0  0  0
    2.1290   -0.5660    0.7100 C   0  0  0  0  0  0  0  0  0  0  0  0
    2.9740   -0.2270   -0.2420 C   0  0  0  0  0  0  0  0  0  0  0  0
    4.3930   -0.5290   -0.1840 C   0  0  0  0  0  0  0  0  0  0  0  0
    5.0530   -1.1720    0.8000 N   0  0  0  0  0  0  0  0  0  0  0  0
    6.3330   -1.2740    0.5290 N   0  0  0  0  0  0  0  0  0  0  0  0
    6.5200   -0.6760   -0.6770 C   0  0  0  0  0  0  0  0  0  0  0  0
    7.8050   -0.5460   -1.3900 C   0  0  2  0  0  0  0  0  0  0  0  0
    8.7350   -1.7120   -1.2730 C   0  0  0  0  0  0  0  0  0  0  0  0
    9.0710   -0.3640   -0.6350 C   0  0  0  0  0  0  0  0  0  0  0  0
    5.3290   -0.2260   -1.0990 N   0  0  0  0  0  0  0  0  0  0  0  0
    0.0140    0.3930   -0.3460 C   0  0  0  0  0  0  0  0  0  0  0  0
  1  2  1  0
  3  2  1  1
  3  4  1  0
  3  8  1  0
  4  5  1  0
  5  6  1  0
  6  7  1  0
  7  8  1  0
  8  9  1  0
  9 10  2  0
  9 11  1  0
 11 12  2  0
 11 25  1  0
 12 13  1  0
 13 14  1  0
 14 15  1  0
 14 25  2  0
 15 16  2  3
 16 17  1  0
 17 18  2  0
 17 24  1  0
 18 19  1  0
 19 20  1  0
 21 20  1  1
 20 24  2  0
 21 22  1  0
 21 23  1  0
 22 23  1  0
M  END
