
     RDKit          3D

 25 27  0  0  0  0  0  0  0  0999 V2000
    3.4950   -1.6280    1.2020 C   0  0  0  0  0  0  0  0  0  0  0  0
    3.7110   -0.2080    0.8430 C   0  0  0  0  0  0  0  0  0  0  0  0
    2.9770    0.4320   -0.0200 C   0  0  0  0  0  0  0  0  0  0  0  0
    3.1450    1.8400   -0.4150 C   0  0  0  0  0  0  0  0  0  0  0  0
    4.0410    2.6700    0.0310 N   0  0  0  0  0  0  0  0  0  0  0  0
    2.1180    2.0650   -1.3680 N   0  0  0  0  0  0  0  0  0  0  0  0
    1.9420    3.3650   -2.0120 C   0  0  0  0  0  0  0  0  0  0  0  0
    1.3710    0.8790   -1.5470 C   0  0  0  0  0  0  0  0  0  0  0  0
    1.8310   -0.1140   -0.7800 C   0  0  0  0  0  0  0  0  0  0  0  0
    1.3370   -1.3780   -0.7400 N   0  0  0  0  0  0  0  0  0  0  0  0
    0.3260   -2.0050   -0.4010 C   0  0  0  0  0  0  0  0  0  0  0  0
    0.1620   -3.3750   -0.5150 N   0  0  0  0  0  0  0  0  0  0  0  0
   -1.0150   -3.7380   -0.0800 N   0  0  0  0  0  0  0  0  0  0  0  0
   -1.6920   -2.6720    0.3410 C   0  0  0  0  0  0  0  0  0  0  0  0
   -3.0510   -2.7010    0.9190 C   0  0  0  0  0  0  0  0  0  0  0  0
   -0.8410   -1.5580    0.1390 C   0  0  0  0  0  0  0  0  0  0  0  0
   -1.2670   -0.2480    0.6010 C   0  0  0  0  0  0  0  0  0  0  0  0
   -2.1720    0.4420   -0.0270 C   0  0  0  0  0  0  0  0  0  0  0  0
   -2.8590    0.0560   -1.2190 C   0  0  0  0  0  0  0  0  0  0  0  0
   -2.7490   -1.1210   -2.0600 C   0  0  0  0  0  0  0  0  0  0  0  0
   -3.7440    0.9240   -1.6260 O   0  0  0  0  0  0  0  0  0  0  0  0
   -2.5140    1.7840    0.6380 C   0  0  0  0  0  0  0  0  0  0  0  0
   -1.2270    2.5470    0.8600 C   0  0  0  0  0  0  0  0  0  0  0  0
   -0.2510    1.7170    1.6670 C   0  0  0  0  0  0  0  0  0  0  0  0
   -0.6870    0.3110    1.8790 C   0  0  0  0  0  0  0  0  0  0  0  0
  1  2  1  0
  2  3  2  3
  3  4  1  0
  3  9  1  0
  4  5  2  0
  4  6  1  0
  6  7  1  0
  6  8  1  0
  8  9  2  0
  9 10  1  0
 10 11  2  3
 11 12  1  0
 11 16  1  0
 12 13  1  0
 13 14  1  0
 14 15  1  0
 14 16  2  0
 16 17  1  0
 17 18  2  0
 17 25  1  0
 18 19  1  0
 18 22  1  0
 19 20  1  0
 19 21  2  0
 22 23  1  0
 23 24  1  0
 24 25  1  0
M  END
