
     RDKit          3D

 12 12  0  0  0  0  0  0  0  0999 V2000
    3.2610    1.0130    0.0070 C   0  0  0  0  0  0  0  0  0  0  0  0
    2.1270    0.7900    0.7800 O   0  0  0  0  0  0  0  0  0  0  0  0
    1.2400    0.0270    0.0590 C   0  0  1  0  0  0  0  0  0  0  0  0
    1.0370   -1.1900    0.7520 O   0  0  0  0  0  0  0  0  0  0  0  0
    0.3170   -2.0190   -0.1170 C   0  0  0  0  0  0  0  0  0  0  0  0
   -1.0560   -1.4520   -0.4130 C   0  0  0  0  0  0  0  0  0  0  0  0
   -1.1820   -0.1470    0.3360 C   0  0  2  0  0  0  0  0  0  0  0  0
   -0.9760   -0.4050    1.6730 O   0  0  0  0  0  0  0  0  0  0  0  0
   -2.5460    0.4670    0.1280 C   0  0  0  0  0  0  0  0  0  0  0  0
   -2.7940    0.7440   -1.2040 O   0  0  0  0  0  0  0  0  0  0  0  0
   -0.0740    0.7610   -0.1380 C   0  0  1  0  0  0  0  0  0  0  0  0
   -0.0630    1.8760    0.6990 O   0  0  0  0  0  0  0  0  0  0  0  0
  1  2  1  0
  3  2  1  1
  3  4  1  0
  3 11  1  0
  4  5  1  0
  5  6  1  0
  6  7  1  0
  7  8  1  1
  7  9  1  0
  7 11  1  0
  9 10  1  0
 11 12  1  1
M  END
