
     RDKit          3D

 12 12  0  0  0  0  0  0  0  0999 V2000
    3.6500    0.5400   -0.3330 O   0  0  0  0  0  0  0  0  0  0  0  0
    2.4140    0.4630    0.3020 C   0  0  0  0  0  0  0  0  0  0  0  0
    1.4180   -0.1420   -0.6680 C   0  0  1  0  0  0  0  0  0  0  0  0
    1.8260   -1.4150   -1.0500 O   0  0  0  0  0  0  0  0  0  0  0  0
    0.0470   -0.2130    0.0190 C   0  0  1  0  0  0  0  0  0  0  0  0
    0.1780   -1.0310    1.1420 O   0  0  0  0  0  0  0  0  0  0  0  0
   -0.2660    1.1680    0.4920 C   0  0  0  0  0  0  0  0  0  0  0  0
   -1.7420    1.4030    0.7270 C   0  0  0  0  0  0  0  0  0  0  0  0
   -2.3860    1.1150   -0.4570 O   0  0  0  0  0  0  0  0  0  0  0  0
   -2.3460   -0.2330   -0.7570 C   0  0  2  0  0  0  0  0  0  0  0  0
   -3.0880   -0.9300    0.2090 O   0  0  0  0  0  0  0  0  0  0  0  0
   -0.9720   -0.7870   -0.9190 C   0  0  0  0  0  0  0  0  0  0  0  0
  1  2  1  0
  2  3  1  0
  3  4  1  1
  3  5  1  0
  5  6  1  1
  5  7  1  0
  5 12  1  0
  7  8  1  0
  8  9  1  0
  9 10  1  0
 10 11  1  1
 10 12  1  0
M  END
