
     RDKit          3D

 12 12  0  0  0  0  0  0  0  0999 V2000
    3.1650   -1.2280    0.2350 C   0  0  0  0  0  0  0  0  0  0  0  0
    2.3740   -0.2440   -0.3520 O   0  0  0  0  0  0  0  0  0  0  0  0
    1.0890   -0.2180    0.2060 C   0  0  2  0  0  0  0  0  0  0  0  0
    0.1250   -0.4960   -0.9290 C   0  0  0  0  0  0  0  0  0  0  0  0
   -1.2840   -0.0550   -0.5960 C   0  0  1  0  0  0  0  0  0  0  0  0
   -1.9860    0.0080   -1.8000 O   0  0  0  0  0  0  0  0  0  0  0  0
   -1.9940   -1.0730    0.2740 C   0  0  0  0  0  0  0  0  0  0  0  0
   -3.2960   -0.6170    0.4570 O   0  0  0  0  0  0  0  0  0  0  0  0
   -1.2920    1.3160    0.0140 C   0  0  0  0  0  0  0  0  0  0  0  0
   -0.4130    1.4710    1.0590 O   0  0  0  0  0  0  0  0  0  0  0  0
    0.8890    1.1650    0.7650 C   0  0  2  0  0  0  0  0  0  0  0  0
    1.5100    2.0600   -0.0900 O   0  0  0  0  0  0  0  0  0  0  0  0
  1  2  1  0
  3  2  1  6
  3  4  1  0
  3 11  1  0
  4  5  1  0
  5  6  1  6
  5  7  1  0
  5  9  1  0
  7  8  1  0
  9 10  1  0
 10 11  1  0
 11 12  1  6
M  END
