
     RDKit          3D

 12 12  0  0  0  0  0  0  0  0999 V2000
    4.1620   -0.3460   -0.2990 O   0  0  0  0  0  0  0  0  0  0  0  0
    3.0340    0.2490    0.2730 C   0  0  0  0  0  0  0  0  0  0  0  0
    1.9220   -0.3200   -0.3260 O   0  0  0  0  0  0  0  0  0  0  0  0
    0.7260    0.1640    0.1320 C   0  0  1  0  0  0  0  0  0  0  0  0
   -0.0590    0.8820   -0.9370 C   0  0  0  0  0  0  0  0  0  0  0  0
   -1.4600    1.1580   -0.4150 C   0  0  1  0  0  0  0  0  0  0  0  0
   -2.0990    1.9230   -1.4050 O   0  0  0  0  0  0  0  0  0  0  0  0
   -2.2130   -0.1370   -0.2190 C   0  0  0  0  0  0  0  0  0  0  0  0
   -1.2550   -1.3080   -0.1130 C   0  0  2  0  0  0  0  0  0  0  0  0
   -1.9040   -2.3630    0.4980 O   0  0  0  0  0  0  0  0  0  0  0  0
   -0.1280   -0.8780    0.8130 C   0  0  2  0  0  0  0  0  0  0  0  0
   -0.6900   -0.4250    1.9910 O   0  0  0  0  0  0  0  0  0  0  0  0
  1  2  1  0
  2  3  1  0
  4  3  1  6
  4  5  1  0
  4 11  1  0
  5  6  1  0
  6  7  1  6
  6  8  1  0
  8  9  1  0
  9 10  1  1
  9 11  1  0
 11 12  1  1
M  END
