
     RDKit          3D

 12 12  0  0  0  0  0  0  0  0999 V2000
   -3.0540   -0.2870    0.7780 C   0  0  0  0  0  0  0  0  0  0  0  0
   -2.2790    0.9330    0.4380 C   0  0  1  0  0  0  0  0  0  0  0  0
   -2.3900    1.8800    1.4750 O   0  0  0  0  0  0  0  0  0  0  0  0
   -0.8220    0.6960    0.1860 C   0  0  2  0  0  0  0  0  0  0  0  0
   -0.5890   -0.2180   -0.9770 C   0  0  0  0  0  0  0  0  0  0  0  0
    0.7680   -0.0580   -1.3370 O   0  0  0  0  0  0  0  0  0  0  0  0
    1.5320   -0.5560   -0.2950 C   0  0  1  0  0  0  0  0  0  0  0  0
    2.0000   -1.8150   -0.7280 O   0  0  0  0  0  0  0  0  0  0  0  0
    2.7560    0.3370   -0.1130 C   0  0  0  0  0  0  0  0  0  0  0  0
    3.5650   -0.1010    0.9120 O   0  0  0  0  0  0  0  0  0  0  0  0
    0.7860   -0.7680    0.9710 C   0  0  0  0  0  0  0  0  0  0  0  0
   -0.1360    0.2140    1.2800 O   0  0  0  0  0  0  0  0  0  0  0  0
  2  1  1  1
  2  3  1  0
  2  4  1  0
  4  5  1  6
  4 12  1  0
  5  6  1  0
  6  7  1  0
  7  8  1  6
  7  9  1  0
  7 11  1  0
  9 10  1  0
 11 12  1  0
M  END
