
     RDKit          3D

 12 13  0  0  0  0  0  0  0  0999 V2000
   -1.7870    1.3580    0.2270 C   0  0  0  0  0  0  0  0  0  0  0  0
   -1.6090   -0.0300   -0.2680 C   0  0  2  0  0  0  0  0  0  0  0  0
   -2.4190   -0.3270   -1.3570 O   0  0  0  0  0  0  0  0  0  0  0  0
   -1.6290   -1.1330    0.7330 C   0  0  0  0  0  0  0  0  0  0  0  0
   -0.6990   -1.7990   -0.0590 O   0  0  0  0  0  0  0  0  0  0  0  0
   -0.2360   -0.5500   -0.4630 C   0  0  1  0  0  0  0  0  0  0  0  0
    0.1840   -0.5120   -1.7960 O   0  0  0  0  0  0  0  0  0  0  0  0
    0.8390   -0.0840    0.4830 C   0  0  1  0  0  0  0  0  0  0  0  0
    2.0680   -0.9500    0.3410 C   0  0  0  0  0  0  0  0  0  0  0  0
    2.9530   -0.2300   -0.4610 O   0  0  0  0  0  0  0  0  0  0  0  0
    2.6620    1.0810   -0.0880 C   0  0  0  0  0  0  0  0  0  0  0  0
    1.2970    1.1820    0.0560 O   0  0  0  0  0  0  0  0  0  0  0  0
  2  1  1  1
  2  3  1  0
  2  4  1  0
  2  6  1  0
  4  5  1  0
  5  6  1  0
  6  7  1  6
  6  8  1  0
  8  9  1  6
  8 12  1  0
  9 10  1  0
 10 11  1  0
 11 12  1  0
M  END
