
     RDKit          3D

 11 11  0  0  0  0  0  0  0  0999 V2000
    4.1370   -0.1550    0.4900 O   0  0  0  0  0  0  0  0  0  0  0  0
    2.9900   -0.0400   -0.2870 C   0  0  0  0  0  0  0  0  0  0  0  0
    1.8980   -0.1790    0.5340 O   0  0  0  0  0  0  0  0  0  0  0  0
    0.6870   -0.0830   -0.1270 C   0  0  1  0  0  0  0  0  0  0  0  0
   -0.0660   -1.3840   -0.0020 C   0  0  0  0  0  0  0  0  0  0  0  0
   -1.4770   -1.2810   -0.4920 C   0  0  0  0  0  0  0  0  0  0  0  0
   -2.2290   -0.1100    0.0320 C   0  0  1  0  0  0  0  0  0  0  0  0
   -2.8180   -0.4000    1.2860 O   0  0  0  0  0  0  0  0  0  0  0  0
   -1.4830    1.1700    0.0680 C   0  0  0  0  0  0  0  0  0  0  0  0
   -0.0520    1.0890    0.4410 C   0  0  2  0  0  0  0  0  0  0  0  0
    0.5930    2.2460   -0.0450 O   0  0  0  0  0  0  0  0  0  0  0  0
  1  2  1  0
  2  3  1  0
  4  3  1  1
  4  5  1  0
  4 10  1  0
  5  6  1  0
  6  7  1  0
  7  8  1  1
  7  9  1  0
  9 10  1  0
 10 11  1  6
M  END
