
     RDKit          3D

 12 12  0  0  0  0  0  0  0  0999 V2000
   -3.5250   -0.2820   -0.0200 C   0  0  0  0  0  0  0  0  0  0  0  0
   -2.5180    0.3630   -0.7630 O   0  0  0  0  0  0  0  0  0  0  0  0
   -1.1840    0.1030   -0.4660 C   0  0  0  0  0  0  0  0  0  0  0  0
   -0.7460   -1.1430   -0.3910 C   0  0  0  0  0  0  0  0  0  0  0  0
    0.6560   -1.3710   -0.0770 C   0  0  0  0  0  0  0  0  0  0  0  0
    1.5460   -0.4370    0.1440 C   0  0  0  0  0  0  0  0  0  0  0  0
    2.9500   -0.7530    0.4560 C   0  0  0  0  0  0  0  0  0  0  0  0
    3.3830   -2.0930    0.5280 N   0  0  0  0  0  0  0  0  0  0  0  0
    3.7750    0.1700    0.6620 O   0  0  0  0  0  0  0  0  0  0  0  0
    1.1270    0.9850    0.0770 C   0  0  0  0  0  0  0  0  0  0  0  0
   -0.2580    1.1460   -0.2350 N   0  0  0  0  0  0  0  0  0  0  0  0
   -0.7790    2.5040   -0.3260 C   0  0  0  0  0  0  0  0  0  0  0  0
  1  2  1  0
  2  3  1  0
  3  4  2  0
  3 11  1  0
  4  5  1  0
  5  6  2  0
  6  7  1  0
  6 10  1  0
  7  8  1  0
  7  9  2  0
 10 11  1  0
 11 12  1  0
M  END
