
     RDKit          3D

 12 12  0  0  0  0  0  0  0  0999 V2000
    4.3850   -0.3460   -1.1690 O   0  0  0  0  0  0  0  0  0  0  0  0
    3.3790   -0.6640   -0.2790 C   0  0  0  0  0  0  0  0  0  0  0  0
    2.0810    0.0450   -0.6580 C   0  0  0  0  0  0  0  0  0  0  0  0
    1.1300   -0.3140    0.2640 O   0  0  0  0  0  0  0  0  0  0  0  0
   -0.1090    0.2400    0.0680 C   0  0  2  0  0  0  0  0  0  0  0  0
   -0.5560    1.1320    1.2100 C   0  0  0  0  0  0  0  0  0  0  0  0
   -2.0020    1.5110    0.8580 C   0  0  0  0  0  0  0  0  0  0  0  0
   -2.7470    0.3580    1.0920 O   0  0  0  0  0  0  0  0  0  0  0  0
   -2.5070   -0.5250    0.0730 C   0  0  1  0  0  0  0  0  0  0  0  0
   -3.1820   -0.0750   -1.0790 O   0  0  0  0  0  0  0  0  0  0  0  0
   -1.0890   -0.8530   -0.1810 C   0  0  1  0  0  0  0  0  0  0  0  0
   -0.9660   -1.2180   -1.5420 O   0  0  0  0  0  0  0  0  0  0  0  0
  1  2  1  0
  2  3  1  0
  3  4  1  0
  5  4  1  1
  5  6  1  0
  5 11  1  0
  6  7  1  0
  7  8  1  0
  8  9  1  0
  9 10  1  6
  9 11  1  0
 11 12  1  6
M  END
