
     RDKit          3D

 42 46  0  0  0  0  0  0  0  0999 V2000
   -9.0720   -0.2370   -3.8300 C   0  0  0  0  0  0  0  0  0  0  0  0
   -8.7300    0.6220   -2.8930 C   0  0  0  0  0  0  0  0  0  0  0  0
   -9.6060    0.8340   -1.7300 C   0  0  1  0  0  0  0  0  0  0  0  0
   -9.3800   -0.1850   -0.6460 C   0  0  0  0  0  0  0  0  0  0  0  0
   -7.9700   -0.1440   -0.1460 C   0  0  0  0  0  0  0  0  0  0  0  0
   -7.2080    0.6820   -0.6820 O   0  0  0  0  0  0  0  0  0  0  0  0
   -7.4890   -0.9740    0.8720 N   0  0  0  0  0  0  0  0  0  0  0  0
   -6.1920   -1.0250    1.4190 C   0  0  0  0  0  0  0  0  0  0  0  0
   -5.9700   -1.8980    2.4820 C   0  0  0  0  0  0  0  0  0  0  0  0
   -4.7360   -2.0130    3.0720 C   0  0  0  0  0  0  0  0  0  0  0  0
   -3.6610   -1.2440    2.6100 C   0  0  0  0  0  0  0  0  0  0  0  0
   -3.8270   -0.3730    1.5720 C   0  0  0  0  0  0  0  0  0  0  0  0
   -2.7760    0.4990    1.0770 C   0  0  0  0  0  0  0  0  0  0  0  0
   -3.0690    1.0590   -0.0800 O   0  0  0  0  0  0  0  0  0  0  0  0
   -1.5480    0.8430    1.5850 N   0  0  0  0  0  0  0  0  0  0  0  0
   -0.9170    0.4950    2.8480 C   0  0  0  0  0  0  0  0  0  0  0  0
    0.0350   -0.6250    2.5090 C   0  0  0  0  0  0  0  0  0  0  0  0
    0.9810   -0.1260    1.4540 C   0  0  0  0  0  0  0  0  0  0  0  0
    2.2270   -0.7670    1.3190 C   0  0  0  0  0  0  0  0  0  0  0  0
    3.1560   -0.3880    0.3820 C   0  0  0  0  0  0  0  0  0  0  0  0
    4.4350   -1.0750    0.2770 C   0  0  0  0  0  0  0  0  0  0  0  0
    4.7690   -1.8670    1.2110 O   0  0  0  0  0  0  0  0  0  0  0  0
    5.3400   -0.9230   -0.8000 N   0  0  0  0  0  0  0  0  0  0  0  0
    6.6220   -1.6380   -0.8610 C   0  0  1  0  0  0  0  0  0  0  0  0
    6.5620   -2.6720   -1.9910 C   0  0  0  0  0  0  0  0  0  0  0  0
    7.7490   -0.7020   -1.0680 C   0  0  0  0  0  0  0  0  0  0  0  0
    7.6590    0.3090   -2.0000 C   0  0  0  0  0  0  0  0  0  0  0  0
    8.7200    1.1980   -2.2030 C   0  0  0  0  0  0  0  0  0  0  0  0
    9.8670    1.0720   -1.4710 C   0  0  0  0  0  0  0  0  0  0  0  0
    9.9740    0.0720   -0.5380 C   0  0  0  0  0  0  0  0  0  0  0  0
    8.9090   -0.8120   -0.3430 C   0  0  0  0  0  0  0  0  0  0  0  0
   11.3000    0.1720    0.0910 C   0  0  0  0  0  0  0  0  0  0  0  0
   11.7340    1.5800   -0.2580 C   0  0  0  0  0  0  0  0  0  0  0  0
   11.0550    1.8180   -1.4790 O   0  0  0  0  0  0  0  0  0  0  0  0
    2.8060    0.6690   -0.4340 C   0  0  0  0  0  0  0  0  0  0  0  0
    1.6000    1.3150   -0.3280 C   0  0  0  0  0  0  0  0  0  0  0  0
    0.6640    0.9070    0.6410 C   0  0  0  0  0  0  0  0  0  0  0  0
   -0.6420    1.6490    0.7100 C   0  0  0  0  0  0  0  0  0  0  0  0
   -5.1190   -0.2990    1.0060 C   0  0  0  0  0  0  0  0  0  0  0  0
   -9.5310    2.1730   -1.1910 N   0  0  0  0  0  0  0  0  0  0  0  0
  -10.6400    3.0320   -1.1620 C   0  0  0  0  0  0  0  0  0  0  0  0
  -11.7340    2.5760   -1.6390 O   0  0  0  0  0  0  0  0  0  0  0  0
  1  2  2  0
  2  3  1  0
  3  4  1  1
  3 40  1  0
  4  5  1  0
  5  6  2  0
  5  7  1  0
  7  8  1  0
  8  9  2  0
  8 39  1  0
  9 10  1  0
 10 11  2  0
 11 12  1  0
 12 13  1  0
 12 39  2  0
 13 14  2  0
 13 15  1  0
 15 16  1  0
 15 38  1  0
 16 17  1  0
 17 18  1  0
 18 19  2  0
 18 37  1  0
 19 20  1  0
 20 21  1  0
 20 35  2  0
 21 22  2  0
 21 23  1  0
 23 24  1  0
 24 25  1  6
 24 26  1  0
 26 27  2  0
 26 31  1  0
 27 28  1  0
 28 29  2  0
 29 30  1  0
 29 34  1  0
 30 31  2  0
 30 32  1  0
 32 33  1  0
 33 34  1  0
 35 36  1  0
 36 37  2  0
 37 38  1  0
 40 41  1  0
 41 42  2  0
M  END
