
     RDKit          3D

 42 46  0  0  0  0  0  0  0  0999 V2000
   -5.7310    4.3070    1.2080 C   0  0  0  0  0  0  0  0  0  0  0  0
   -5.6900    4.2410   -0.2960 C   0  0  0  0  0  0  0  0  0  0  0  0
   -5.1210    3.0600   -0.8000 O   0  0  0  0  0  0  0  0  0  0  0  0
   -5.5980    1.7930   -0.5730 C   0  0  0  0  0  0  0  0  0  0  0  0
   -6.7170    1.5380    0.1820 C   0  0  0  0  0  0  0  0  0  0  0  0
   -7.1870    0.2710    0.4040 C   0  0  0  0  0  0  0  0  0  0  0  0
   -6.5330   -0.7990   -0.1380 C   0  0  0  0  0  0  0  0  0  0  0  0
   -5.3820   -0.5630   -0.9190 C   0  0  0  0  0  0  0  0  0  0  0  0
   -4.9020    0.6940   -1.1470 C   0  0  0  0  0  0  0  0  0  0  0  0
   -3.8220    0.9790   -1.8680 O   0  0  0  0  0  0  0  0  0  0  0  0
   -2.8220    0.3490   -2.5250 C   0  0  0  0  0  0  0  0  0  0  0  0
   -2.7900    0.4790   -3.9360 C   0  0  0  0  0  0  0  0  0  0  0  0
   -1.7920   -0.1310   -4.6200 C   0  0  0  0  0  0  0  0  0  0  0  0
   -0.8140   -0.8690   -3.9930 C   0  0  0  0  0  0  0  0  0  0  0  0
   -0.8410   -1.0020   -2.5990 C   0  0  0  0  0  0  0  0  0  0  0  0
   -1.8350   -0.3960   -1.8910 C   0  0  0  0  0  0  0  0  0  0  0  0
   -1.9220   -0.5240   -0.3960 C   0  0  0  0  0  0  0  0  0  0  0  0
   -0.7450   -1.2210    0.0820 N   0  0  0  0  0  0  0  0  0  0  0  0
    0.5280   -0.6570   -0.0140 C   0  0  0  0  0  0  0  0  0  0  0  0
    0.6050    0.4880   -0.5450 O   0  0  0  0  0  0  0  0  0  0  0  0
    1.8010   -1.3520    0.4900 C   0  0  2  0  0  0  0  0  0  0  0  0
    2.8320   -0.4200    0.1810 N   0  0  0  0  0  0  0  0  0  0  0  0
    4.1960   -0.6200    0.4510 C   0  0  0  0  0  0  0  0  0  0  0  0
    4.5620   -1.6740    0.9820 O   0  0  0  0  0  0  0  0  0  0  0  0
    5.1950    0.3550    0.1370 N   0  0  0  0  0  0  0  0  0  0  0  0
    6.5710    0.0540    0.4650 C   0  0  0  0  0  0  0  0  0  0  0  0
    7.4820    1.1590    0.0900 C   0  0  0  0  0  0  0  0  0  0  0  0
    8.2120    1.7680    1.0180 C   0  0  0  0  0  0  0  0  0  0  0  0
    9.1300    2.8830    0.6270 C   0  0  0  0  0  0  0  0  0  0  0  0
    8.7520    3.5250   -0.6680 C   0  0  0  0  0  0  0  0  0  0  0  0
    7.5530    3.0650   -1.2110 O   0  0  0  0  0  0  0  0  0  0  0  0
    7.6460    1.6560   -1.3050 C   0  0  0  0  0  0  0  0  0  0  0  0
    1.8270   -2.6630   -0.1730 C   0  0  0  0  0  0  0  0  0  0  0  0
    2.4000   -3.8380    0.5260 C   0  0  0  0  0  0  0  0  0  0  0  0
    2.4270   -3.8330    1.9870 C   0  0  0  0  0  0  0  0  0  0  0  0
    2.1750   -2.5660    2.6970 C   0  0  0  0  0  0  0  0  0  0  0  0
    1.5230   -1.4620    1.9700 C   0  0  1  0  0  0  0  0  0  0  0  0
    1.8300   -0.1680    2.6950 C   0  0  0  0  0  0  0  0  0  0  0  0
   -6.9370   -2.2060    0.0320 C   0  0  0  0  0  0  0  0  0  0  0  0
   -8.1510   -2.3930    0.8640 C   0  0  0  0  0  0  0  0  0  0  0  0
   -8.7300   -1.1960    1.3640 N   0  0  0  0  0  0  0  0  0  0  0  0
   -8.3660    0.0130    1.2060 C   0  0  0  0  0  0  0  0  0  0  0  0
  1  2  1  0
  2  3  1  0
  3  4  1  0
  4  5  2  0
  4  9  1  0
  5  6  1  0
  6  7  2  0
  6 42  1  0
  7  8  1  0
  7 39  1  0
  8  9  2  0
  9 10  1  0
 10 11  1  0
 11 12  2  0
 11 16  1  0
 12 13  1  0
 13 14  2  0
 14 15  1  0
 15 16  2  0
 16 17  1  0
 17 18  1  0
 18 19  1  0
 19 20  2  0
 19 21  1  0
 21 22  1  1
 21 33  1  0
 21 37  1  0
 22 23  1  0
 23 24  2  0
 23 25  1  0
 25 26  1  0
 26 27  1  0
 27 28  2  0
 27 32  1  0
 28 29  1  0
 29 30  1  0
 30 31  1  0
 31 32  1  0
 33 34  1  0
 34 35  1  0
 35 36  1  0
 36 37  1  0
 37 38  1  1
 39 40  1  0
 40 41  1  0
 41 42  2  0
M  END
