
     RDKit          3D

 42 45  0  0  0  0  0  0  0  0999 V2000
   -9.7350   -0.6750    0.8310 C   0  0  0  0  0  0  0  0  0  0  0  0
   -8.5620   -0.3380    1.3560 C   0  0  0  0  0  0  0  0  0  0  0  0
   -8.2030   -0.8520    2.6880 C   0  0  0  0  0  0  0  0  0  0  0  0
   -9.1950   -1.6580    3.2190 F   0  0  0  0  0  0  0  0  0  0  0  0
   -7.6850    0.5270    0.6080 C   0  0  0  0  0  0  0  0  0  0  0  0
   -7.5350    1.9070    0.8100 C   0  0  0  0  0  0  0  0  0  0  0  0
   -6.6520    2.3750   -0.0680 N   0  0  0  0  0  0  0  0  0  0  0  0
   -6.1930    1.3930   -0.8590 C   0  0  0  0  0  0  0  0  0  0  0  0
   -6.8200    0.2390   -0.4540 C   0  0  0  0  0  0  0  0  0  0  0  0
   -6.5710   -1.0900   -1.0310 C   0  0  2  0  0  0  0  0  0  0  0  0
   -7.8560   -1.7290   -1.5530 C   0  0  0  0  0  0  0  0  0  0  0  0
   -6.0240   -1.9420   -0.0510 O   0  0  0  0  0  0  0  0  0  0  0  0
   -5.5930   -1.0350   -2.1850 C   0  0  1  0  0  0  0  0  0  0  0  0
   -6.0550   -0.1610   -3.3030 C   0  0  0  0  0  0  0  0  0  0  0  0
   -4.2090   -0.8400   -1.7290 C   0  0  0  0  0  0  0  0  0  0  0  0
   -4.0090   -1.0940   -0.4820 O   0  0  0  0  0  0  0  0  0  0  0  0
   -3.1610   -0.4110   -2.5390 O   0  0  0  0  0  0  0  0  0  0  0  0
   -1.9450   -0.2870   -1.8640 C   0  0  0  0  0  0  0  0  0  0  0  0
   -1.9720    0.4160   -0.6430 C   0  0  0  0  0  0  0  0  0  0  0  0
   -0.8250    0.5660    0.0640 C   0  0  0  0  0  0  0  0  0  0  0  0
    0.4390    0.0570   -0.3410 C   0  0  0  0  0  0  0  0  0  0  0  0
    1.5330    0.2770    0.6070 C   0  0  0  0  0  0  0  0  0  0  0  0
    1.1120    0.2180    1.9650 C   0  0  0  0  0  0  0  0  0  0  0  0
    1.9180    0.5680    3.0040 C   0  0  0  0  0  0  0  0  0  0  0  0
    3.1940    0.9950    2.7420 C   0  0  0  0  0  0  0  0  0  0  0  0
    4.0420    1.3570    3.7820 O   0  0  0  0  0  0  0  0  0  0  0  0
    3.6640    1.0690    1.4210 C   0  0  0  0  0  0  0  0  0  0  0  0
    4.9060    1.8380    1.2230 C   0  0  0  0  0  0  0  0  0  0  0  0
    6.0620    1.3110    1.0180 O   0  0  0  0  0  0  0  0  0  0  0  0
    7.1020    0.6450    0.5760 C   0  0  0  0  0  0  0  0  0  0  0  0
    8.3140    0.8600    1.3300 C   0  0  0  0  0  0  0  0  0  0  0  0
    9.4740    0.2230    0.9730 C   0  0  0  0  0  0  0  0  0  0  0  0
    9.5470   -0.6370   -0.0970 C   0  0  0  0  0  0  0  0  0  0  0  0
   10.7930   -1.2720   -0.4230 N   0  0  0  0  0  0  0  0  0  0  0  0
   12.0120   -0.5160   -0.2520 C   0  0  0  0  0  0  0  0  0  0  0  0
   13.3360   -1.1350   -0.5130 C   0  0  0  0  0  0  0  0  0  0  0  0
   11.8930    0.6930    0.1350 O   0  0  0  0  0  0  0  0  0  0  0  0
    8.4100   -0.8550   -0.8280 C   0  0  0  0  0  0  0  0  0  0  0  0
    7.2160   -0.2080   -0.4690 C   0  0  0  0  0  0  0  0  0  0  0  0
    2.8020    0.6950    0.3730 C   0  0  0  0  0  0  0  0  0  0  0  0
    0.4430   -0.6090   -1.5170 C   0  0  0  0  0  0  0  0  0  0  0  0
   -0.7510   -0.7760   -2.2650 C   0  0  0  0  0  0  0  0  0  0  0  0
  1  2  2  0
  2  3  1  0
  2  5  1  0
  3  4  1  0
  5  6  2  0
  5  9  1  0
  6  7  1  0
  7  8  1  0
  8  9  2  0
  9 10  1  0
 10 11  1  6
 10 12  1  0
 10 13  1  0
 13 14  1  6
 13 15  1  0
 15 16  2  0
 15 17  1  0
 17 18  1  0
 18 19  2  0
 18 42  1  0
 19 20  1  0
 20 21  2  0
 21 22  1  0
 21 41  1  0
 22 23  2  0
 22 40  1  0
 23 24  1  0
 24 25  2  0
 25 26  1  0
 25 27  1  0
 27 28  1  0
 27 40  2  0
 28 29  1  0
 29 30  1  0
 30 31  2  0
 30 39  1  0
 31 32  1  0
 32 33  2  0
 33 34  1  0
 33 38  1  0
 34 35  1  0
 35 36  1  0
 35 37  2  0
 38 39  2  0
 41 42  2  0
M  END
