
     RDKit          3D

 42 46  0  0  0  0  0  0  0  0999 V2000
   -9.4340    3.8620   -2.5040 C   0  0  0  0  0  0  0  0  0  0  0  0
   -9.8780    3.7690   -1.0650 C   0  0  0  0  0  0  0  0  0  0  0  0
   -9.4540    2.5370   -0.4450 N   0  0  0  0  0  0  0  0  0  0  0  0
   -8.0590    2.2150   -0.3550 C   0  0  0  0  0  0  0  0  0  0  0  0
   -7.2630    3.0270   -0.8250 O   0  0  0  0  0  0  0  0  0  0  0  0
   -7.6020    1.0170    0.2470 N   0  0  0  0  0  0  0  0  0  0  0  0
   -6.2630    0.5940    0.3830 C   0  0  0  0  0  0  0  0  0  0  0  0
   -5.2040    1.2620   -0.1800 C   0  0  0  0  0  0  0  0  0  0  0  0
   -3.8860    0.8020   -0.0430 C   0  0  0  0  0  0  0  0  0  0  0  0
   -3.7040   -0.3350    0.6720 C   0  0  0  0  0  0  0  0  0  0  0  0
   -2.3370   -0.8410    0.8330 C   0  0  0  0  0  0  0  0  0  0  0  0
   -1.6510   -0.4620    1.7920 O   0  0  0  0  0  0  0  0  0  0  0  0
   -1.8230   -1.7530   -0.1060 N   0  0  0  0  0  0  0  0  0  0  0  0
   -2.5970   -2.2260   -1.2440 C   0  0  0  0  0  0  0  0  0  0  0  0
   -0.4360   -2.2340    0.0890 C   0  0  0  0  0  0  0  0  0  0  0  0
    0.5170   -1.3680   -0.5990 C   0  0  0  0  0  0  0  0  0  0  0  0
   -0.0020   -0.3790   -1.2570 O   0  0  0  0  0  0  0  0  0  0  0  0
    1.9070   -1.4620   -0.6350 N   0  0  0  0  0  0  0  0  0  0  0  0
    2.6400   -0.3900   -1.4050 C   0  0  0  0  0  0  0  0  0  0  0  0
    3.4730    0.3810   -0.3790 C   0  0  0  0  0  0  0  0  0  0  0  0
    4.4060   -0.5810    0.3130 C   0  0  1  0  0  0  0  0  0  0  0  0
    5.2210    0.1100    1.3550 C   0  0  0  0  0  0  0  0  0  0  0  0
    6.0810    1.2000    0.8550 C   0  0  0  0  0  0  0  0  0  0  0  0
    5.6890    2.5270    1.0300 C   0  0  0  0  0  0  0  0  0  0  0  0
    6.4570    3.5780    0.5780 C   0  0  0  0  0  0  0  0  0  0  0  0
    7.6500    3.3610   -0.0690 C   0  0  0  0  0  0  0  0  0  0  0  0
    8.0530    2.0470   -0.2500 C   0  0  0  0  0  0  0  0  0  0  0  0
    7.2760    0.9880    0.2070 C   0  0  0  0  0  0  0  0  0  0  0  0
    7.7260   -0.4270    0.0090 C   0  0  0  0  0  0  0  0  0  0  0  0
    9.1150   -0.4410   -0.2450 O   0  0  0  0  0  0  0  0  0  0  0  0
    9.3940    0.3570   -1.3630 C   0  0  0  0  0  0  0  0  0  0  0  0
    9.3350    1.7930   -0.9350 C   0  0  0  0  0  0  0  0  0  0  0  0
    3.5400   -1.6100    1.0650 C   0  0  0  0  0  0  0  0  0  0  0  0
    2.8110   -2.3790   -0.0330 C   0  0  1  0  0  0  0  0  0  0  0  0
    2.3290   -3.6700    0.4720 C   0  0  0  0  0  0  0  0  0  0  0  0
    1.8340   -4.4240   -0.6180 O   0  0  0  0  0  0  0  0  0  0  0  0
   -4.7250   -1.0380    1.2530 C   0  0  0  0  0  0  0  0  0  0  0  0
   -4.4430   -2.1860    1.9660 C   0  0  0  0  0  0  0  0  0  0  0  0
   -5.4300   -2.9080    2.5580 C   0  0  0  0  0  0  0  0  0  0  0  0
   -6.7180   -2.4710    2.4320 C   0  0  0  0  0  0  0  0  0  0  0  0
   -7.0250   -1.3110    1.7150 C   0  0  0  0  0  0  0  0  0  0  0  0
   -6.0330   -0.5800    1.1160 C   0  0  0  0  0  0  0  0  0  0  0  0
  1  2  1  0
  2  3  1  0
  3  4  1  0
  4  5  2  0
  4  6  1  0
  6  7  1  0
  7  8  2  0
  7 42  1  0
  8  9  1  0
  9 10  2  0
 10 11  1  0
 10 37  1  0
 11 12  2  0
 11 13  1  0
 13 14  1  0
 13 15  1  0
 15 16  1  0
 16 17  2  0
 16 18  1  0
 18 19  1  0
 18 34  1  0
 19 20  1  0
 20 21  1  0
 21 22  1  1
 21 33  1  0
 22 23  1  0
 23 24  2  0
 23 28  1  0
 24 25  1  0
 25 26  2  0
 26 27  1  0
 27 28  2  0
 27 32  1  0
 28 29  1  0
 29 30  1  0
 30 31  1  0
 31 32  1  0
 33 34  1  0
 34 35  1  1
 35 36  1  0
 37 38  2  0
 37 42  1  0
 38 39  1  0
 39 40  2  0
 40 41  1  0
 41 42  2  0
M  END
