
     RDKit          3D

 42 45  0  0  0  0  0  0  0  0999 V2000
   -3.2500    2.4240    1.2710 C   0  0  0  0  0  0  0  0  0  0  0  0
   -1.9260    1.8020    1.3390 C   0  0  0  0  0  0  0  0  0  0  0  0
   -0.9340    2.4300    2.0720 C   0  0  0  0  0  0  0  0  0  0  0  0
    0.3270    1.9130    2.1790 C   0  0  0  0  0  0  0  0  0  0  0  0
    1.2600    2.5900    2.9250 O   0  0  0  0  0  0  0  0  0  0  0  0
    0.6350    0.7210    1.5350 C   0  0  0  0  0  0  0  0  0  0  0  0
    1.8860    0.2360    1.6570 O   0  0  0  0  0  0  0  0  0  0  0  0
    2.6470   -0.7580    1.2270 C   0  0  0  0  0  0  0  0  0  0  0  0
    3.2820   -0.9980   -0.0760 C   0  0  1  0  0  0  0  0  0  0  0  0
    2.6180   -0.9740   -1.3770 C   0  0  0  0  0  0  0  0  0  0  0  0
    2.0520    0.1900   -2.0230 C   0  0  0  0  0  0  0  0  0  0  0  0
    1.0830    0.9670   -1.5580 O   0  0  0  0  0  0  0  0  0  0  0  0
    4.3940   -0.0200   -0.1810 O   0  0  0  0  0  0  0  0  0  0  0  0
    5.6890   -0.2600   -0.1480 C   0  0  0  0  0  0  0  0  0  0  0  0
    6.5480    0.8350   -0.2790 C   0  0  0  0  0  0  0  0  0  0  0  0
    7.9050    0.6960   -0.2590 C   0  0  0  0  0  0  0  0  0  0  0  0
    8.4610   -0.5330   -0.1060 C   0  0  0  0  0  0  0  0  0  0  0  0
    9.8480   -0.6880   -0.0830 C   0  0  0  0  0  0  0  0  0  0  0  0
   10.6900    0.5250   -0.2340 C   0  0  0  0  0  0  0  0  0  0  0  0
   10.4140   -1.9150    0.0690 C   0  0  0  0  0  0  0  0  0  0  0  0
    9.6050   -3.0180    0.2020 C   0  0  0  0  0  0  0  0  0  0  0  0
    8.2270   -2.8610    0.1790 C   0  0  0  0  0  0  0  0  0  0  0  0
    7.6730   -1.6310    0.0270 C   0  0  0  0  0  0  0  0  0  0  0  0
    6.2740   -1.4720    0.0030 C   0  0  0  0  0  0  0  0  0  0  0  0
   -0.3830    0.1280    0.8150 C   0  0  0  0  0  0  0  0  0  0  0  0
   -1.6530    0.6250    0.6920 C   0  0  0  0  0  0  0  0  0  0  0  0
   -2.6540   -0.0760   -0.0800 C   0  0  1  0  0  0  0  0  0  0  0  0
   -2.0490   -1.3780   -0.6020 C   0  0  0  0  0  0  0  0  0  0  0  0
   -3.9170   -0.3180    0.5710 N   0  0  0  0  0  0  0  0  0  0  0  0
   -5.1610   -0.0390   -0.0550 C   0  0  0  0  0  0  0  0  0  0  0  0
   -5.1580    0.4340   -1.2320 O   0  0  0  0  0  0  0  0  0  0  0  0
   -6.4190   -0.2820    0.6080 N   0  0  0  0  0  0  0  0  0  0  0  0
   -7.6310   -0.0070   -0.0810 C   0  0  0  0  0  0  0  0  0  0  0  0
   -8.1930    1.2500   -0.0650 C   0  0  0  0  0  0  0  0  0  0  0  0
   -7.5470    2.3910    0.6690 C   0  0  0  0  0  0  0  0  0  0  0  0
   -8.3860    3.5050    0.4650 O   0  0  0  0  0  0  0  0  0  0  0  0
   -9.3860    1.4150   -0.7680 C   0  0  0  0  0  0  0  0  0  0  0  0
   -9.9720    0.3490   -1.4490 C   0  0  0  0  0  0  0  0  0  0  0  0
   -9.3740   -0.8900   -1.4360 C   0  0  0  0  0  0  0  0  0  0  0  0
   -9.9030   -1.9710   -2.0820 F   0  0  0  0  0  0  0  0  0  0  0  0
   -8.1980   -1.0890   -0.7550 C   0  0  0  0  0  0  0  0  0  0  0  0
   -7.5500   -2.4380   -0.7340 C   0  0  0  0  0  0  0  0  0  0  0  0
  1  2  1  0
  2  3  2  0
  2 26  1  0
  3  4  1  0
  4  5  1  0
  4  6  2  0
  6  7  1  0
  6 25  1  0
  7  8  1  0
  9  8  1  1
  9 10  1  0
  9 13  1  0
 10 11  1  0
 11 12  1  0
 13 14  1  0
 14 15  2  0
 14 24  1  0
 15 16  1  0
 16 17  2  0
 17 18  1  0
 17 23  1  0
 18 19  1  0
 18 20  2  0
 20 21  1  0
 21 22  2  0
 22 23  1  0
 23 24  2  0
 25 26  2  0
 26 27  1  0
 27 28  1  1
 27 29  1  0
 29 30  1  0
 30 31  2  0
 30 32  1  0
 32 33  1  0
 33 34  2  0
 33 41  1  0
 34 35  1  0
 34 37  1  0
 35 36  1  0
 37 38  2  0
 38 39  1  0
 39 40  1  0
 39 41  2  0
 41 42  1  0
M  END
