
     RDKit          3D

 42 45  0  0  0  0  0  0  0  0999 V2000
    5.6510    3.0780   -2.4870 C   0  0  0  0  0  0  0  0  0  0  0  0
    5.6820    2.0480   -1.5100 O   0  0  0  0  0  0  0  0  0  0  0  0
    4.5210    1.4190   -1.0900 C   0  0  0  0  0  0  0  0  0  0  0  0
    3.2980    1.8130   -1.6460 C   0  0  0  0  0  0  0  0  0  0  0  0
    2.1190    1.2240   -1.2660 C   0  0  0  0  0  0  0  0  0  0  0  0
    0.7940    1.5860   -1.8390 C   0  0  1  0  0  0  0  0  0  0  0  0
    0.9690    2.3290   -3.1660 C   0  0  0  0  0  0  0  0  0  0  0  0
   -0.2960    2.5820   -3.7230 O   0  0  0  0  0  0  0  0  0  0  0  0
    0.1040    0.3640   -2.0700 O   0  0  0  0  0  0  0  0  0  0  0  0
   -1.1430    0.0620   -1.5950 C   0  0  0  0  0  0  0  0  0  0  0  0
   -1.7710    0.8860   -0.9040 O   0  0  0  0  0  0  0  0  0  0  0  0
   -1.7520   -1.2660   -1.9080 C   0  0  2  0  0  0  0  0  0  0  0  0
   -0.8200   -2.0220   -2.6360 O   0  0  0  0  0  0  0  0  0  0  0  0
   -3.0140   -1.0860   -2.7230 C   0  0  0  0  0  0  0  0  0  0  0  0
   -4.0410   -0.3450   -2.0580 N   0  0  0  0  0  0  0  0  0  0  0  0
   -4.7540   -0.8700   -0.9490 C   0  0  0  0  0  0  0  0  0  0  0  0
   -4.6700   -2.1880   -0.5550 C   0  0  0  0  0  0  0  0  0  0  0  0
   -5.3730   -2.6630    0.5300 C   0  0  0  0  0  0  0  0  0  0  0  0
   -6.2110   -1.8350    1.2930 C   0  0  0  0  0  0  0  0  0  0  0  0
   -6.9180   -2.3640    2.3990 N   0  0  0  0  0  0  0  0  0  0  0  0
   -6.3020   -0.5200    0.9080 C   0  0  0  0  0  0  0  0  0  0  0  0
   -7.1660    0.4260    1.6650 C   0  0  1  0  0  0  0  0  0  0  0  0
   -6.6970    0.5240    3.1190 C   0  0  0  0  0  0  0  0  0  0  0  0
   -7.0220    1.8090    1.0830 C   0  0  0  0  0  0  0  0  0  0  0  0
   -8.6040   -0.0060    1.7340 C   0  0  0  0  0  0  0  0  0  0  0  0
   -9.2850   -0.1730    0.4140 C   0  0  0  0  0  0  0  0  0  0  0  0
   -9.3030    1.0010   -0.2700 F   0  0  0  0  0  0  0  0  0  0  0  0
   -5.5840   -0.0550   -0.1930 C   0  0  0  0  0  0  0  0  0  0  0  0
    2.2100    0.2170   -0.2990 C   0  0  0  0  0  0  0  0  0  0  0  0
    3.4150   -0.1720    0.2480 C   0  0  0  0  0  0  0  0  0  0  0  0
    4.5910    0.4260   -0.1420 C   0  0  0  0  0  0  0  0  0  0  0  0
    5.8870    0.0020    0.4260 C   0  0  0  0  0  0  0  0  0  0  0  0
    6.0510   -0.1660    1.7810 C   0  0  0  0  0  0  0  0  0  0  0  0
    7.2620   -0.5690    2.2990 C   0  0  0  0  0  0  0  0  0  0  0  0
    8.3530   -0.8210    1.4950 C   0  0  0  0  0  0  0  0  0  0  0  0
    9.6120   -1.2460    2.0880 C   0  0  0  0  0  0  0  0  0  0  0  0
   10.7750   -1.5420    1.3890 C   0  0  0  0  0  0  0  0  0  0  0  0
   11.7310   -1.9030    2.3280 C   0  0  0  0  0  0  0  0  0  0  0  0
   11.1120   -1.8120    3.5460 C   0  0  0  0  0  0  0  0  0  0  0  0
    9.8880   -1.4280    3.3500 O   0  0  0  0  0  0  0  0  0  0  0  0
    8.1870   -0.6520    0.1370 C   0  0  0  0  0  0  0  0  0  0  0  0
    6.9690   -0.2440   -0.3940 C   0  0  0  0  0  0  0  0  0  0  0  0
  1  2  1  0
  2  3  1  0
  3  4  2  0
  3 31  1  0
  4  5  1  0
  5  6  1  0
  5 29  2  0
  6  7  1  6
  6  9  1  0
  7  8  1  0
  9 10  1  0
 10 11  2  0
 10 12  1  0
 12 13  1  6
 12 14  1  0
 14 15  1  0
 15 16  1  0
 16 17  2  0
 16 28  1  0
 17 18  1  0
 18 19  2  0
 19 20  1  0
 19 21  1  0
 21 22  1  0
 21 28  2  0
 22 23  1  1
 22 24  1  0
 22 25  1  0
 25 26  1  0
 26 27  1  0
 29 30  1  0
 30 31  2  0
 31 32  1  0
 32 33  2  0
 32 42  1  0
 33 34  1  0
 34 35  2  0
 35 36  1  0
 35 41  1  0
 36 37  2  0
 36 40  1  0
 37 38  1  0
 38 39  2  0
 39 40  1  0
 41 42  2  0
M  END
