
     RDKit          3D

 15 16  0  0  0  0  0  0  0  0999 V2000
    4.4570   -1.2820    0.2780 C   0  0  0  0  0  0  0  0  0  0  0  0
    3.0800   -1.1990    0.5030 O   0  0  0  0  0  0  0  0  0  0  0  0
    2.2390   -0.3080   -0.1530 C   0  0  0  0  0  0  0  0  0  0  0  0
    2.6670    0.5700   -1.0770 N   0  0  0  0  0  0  0  0  0  0  0  0
    1.7860    1.3980   -1.6650 C   0  0  0  0  0  0  0  0  0  0  0  0
    0.5010    1.3280   -1.3140 N   0  0  0  0  0  0  0  0  0  0  0  0
    0.0240    0.4700   -0.3980 C   0  0  0  0  0  0  0  0  0  0  0  0
   -1.3930    0.4390   -0.0560 C   0  0  0  0  0  0  0  0  0  0  0  0
   -2.2800    1.2390   -0.6150 C   0  0  0  0  0  0  0  0  0  0  0  0
   -3.7280    1.2370   -0.2940 C   0  0  0  0  0  0  0  0  0  0  0  0
   -4.0760    0.2890    0.6790 O   0  0  0  0  0  0  0  0  0  0  0  0
   -3.1470   -0.5430    1.2610 C   0  0  0  0  0  0  0  0  0  0  0  0
   -1.8630   -0.5190    0.9530 C   0  0  0  0  0  0  0  0  0  0  0  0
   -0.9590   -1.4080    1.5940 N   0  0  0  0  0  0  0  0  0  0  0  0
    0.9210   -0.3490    0.1780 N   0  0  0  0  0  0  0  0  0  0  0  0
  1  2  1  0
  2  3  1  0
  3  4  2  0
  3 15  1  0
  4  5  1  0
  5  6  2  0
  6  7  1  0
  7  8  1  0
  7 15  2  0
  8  9  2  0
  8 13  1  0
  9 10  1  0
 10 11  1  0
 11 12  1  0
 12 13  2  0
 13 14  1  0
M  END
