
     RDKit          3D

 15 16  0  0  0  0  0  0  0  0999 V2000
    3.5030    1.3400   -0.7950 C   0  0  0  0  0  0  0  0  0  0  0  0
    2.3680    0.4520   -0.7210 N   0  0  0  0  0  0  0  0  0  0  0  0
    2.4770   -0.5600    0.2600 C   0  0  0  0  0  0  0  0  0  0  0  0
    1.2500   -1.4230    0.2670 C   0  0  0  0  0  0  0  0  0  0  0  0
   -0.0300   -0.7180    0.5740 C   0  0  2  0  0  0  0  0  0  0  0  0
   -0.0030   -0.1090    1.8420 O   0  0  0  0  0  0  0  0  0  0  0  0
   -1.1710   -1.7520    0.5640 C   0  0  0  0  0  0  0  0  0  0  0  0
   -2.2670   -1.0990    1.3980 C   0  0  0  0  0  0  0  0  0  0  0  0
   -2.6720    0.1080    0.5970 C   0  0  0  0  0  0  0  0  0  0  0  0
   -3.8440    0.7630    0.5180 N   0  0  0  0  0  0  0  0  0  0  0  0
   -3.7470    1.7710   -0.3150 N   0  0  0  0  0  0  0  0  0  0  0  0
   -2.4890    1.7510   -0.7690 C   0  0  0  0  0  0  0  0  0  0  0  0
   -2.0390    2.5950   -1.6040 O   0  0  0  0  0  0  0  0  0  0  0  0
   -1.8040    0.7120   -0.2040 N   0  0  0  0  0  0  0  0  0  0  0  0
   -0.4250    0.3380   -0.4210 C   0  0  0  0  0  0  0  0  0  0  0  0
  1  2  1  0
  2  3  1  0
  3  4  1  0
  4  5  1  0
  5  6  1  1
  5  7  1  0
  5 15  1  0
  7  8  1  0
  8  9  1  0
  9 10  2  0
  9 14  1  0
 10 11  1  0
 11 12  1  0
 12 13  2  0
 12 14  1  0
 14 15  1  0
M  END
