
     RDKit          3D

 27 29  0  0  0  0  0  0  0  0999 V2000
    8.5030    0.0730    1.0750 C   0  0  0  0  0  0  0  0  0  0  0  0
    7.5970   -0.3400    0.0860 O   0  0  0  0  0  0  0  0  0  0  0  0
    6.2430   -0.1610    0.2930 C   0  0  0  0  0  0  0  0  0  0  0  0
    5.7250    0.4110    1.4370 C   0  0  0  0  0  0  0  0  0  0  0  0
    4.3680    0.5770    1.6160 C   0  0  0  0  0  0  0  0  0  0  0  0
    3.4610    0.1750    0.6510 C   0  0  0  0  0  0  0  0  0  0  0  0
    2.0500    0.3810    0.9070 C   0  0  0  0  0  0  0  0  0  0  0  0
    1.0740    0.0400    0.0630 C   0  0  0  0  0  0  0  0  0  0  0  0
   -0.3240    0.2730    0.3780 C   0  0  0  0  0  0  0  0  0  0  0  0
   -0.6540    0.8180    1.4900 O   0  0  0  0  0  0  0  0  0  0  0  0
   -1.3500   -0.1160   -0.5740 C   0  0  0  0  0  0  0  0  0  0  0  0
   -1.0480   -0.7000   -1.7710 C   0  0  0  0  0  0  0  0  0  0  0  0
   -2.0470   -1.0700   -2.6810 C   0  0  0  0  0  0  0  0  0  0  0  0
   -3.3700   -0.8460   -2.3730 C   0  0  0  0  0  0  0  0  0  0  0  0
   -4.4080   -1.1920   -3.2360 O   0  0  0  0  0  0  0  0  0  0  0  0
   -4.0480   -1.7940   -4.4650 C   0  0  0  0  0  0  0  0  0  0  0  0
   -3.6460   -0.2560   -1.1600 C   0  0  0  0  0  0  0  0  0  0  0  0
   -2.6910    0.1240   -0.2350 C   0  0  0  0  0  0  0  0  0  0  0  0
   -3.0130    0.7100    0.9630 O   0  0  0  0  0  0  0  0  0  0  0  0
   -4.3090    0.9750    1.3600 C   0  0  1  0  0  0  0  0  0  0  0  0
   -4.6670    0.1650    2.6360 C   0  0  0  0  0  0  0  0  0  0  0  0
   -4.4850    2.4490    1.7430 C   0  0  0  0  0  0  0  0  0  0  0  0
   -5.3090    0.5650    0.3680 C   0  0  0  0  0  0  0  0  0  0  0  0
   -5.0250    0.0120   -0.7670 C   0  0  0  0  0  0  0  0  0  0  0  0
    3.9810   -0.3920   -0.4820 C   0  0  0  0  0  0  0  0  0  0  0  0
    5.3560   -0.5670   -0.6780 C   0  0  0  0  0  0  0  0  0  0  0  0
    5.7860   -1.1570   -1.8690 O   0  0  0  0  0  0  0  0  0  0  0  0
  1  2  1  0
  2  3  1  0
  3  4  2  0
  3 26  1  0
  4  5  1  0
  5  6  2  0
  6  7  1  0
  6 25  1  0
  7  8  2  3
  8  9  1  0
  9 10  2  0
  9 11  1  0
 11 12  2  0
 11 18  1  0
 12 13  1  0
 13 14  2  0
 14 15  1  0
 14 17  1  0
 15 16  1  0
 17 18  2  0
 17 24  1  0
 18 19  1  0
 19 20  1  0
 20 21  1  1
 20 22  1  0
 20 23  1  0
 23 24  2  0
 25 26  2  0
 26 27  1  0
M  END
