
     RDKit          3D

 15 15  0  0  0  0  0  0  0  0999 V2000
    1.5890   -0.0670    1.7010 C   0  0  0  0  0  0  0  0  0  0  0  0
    0.5030   -0.0150    0.9120 C   0  0  0  0  0  0  0  0  0  0  0  0
   -0.7720   -0.1830    1.5710 C   0  0  0  0  0  0  0  0  0  0  0  0
   -1.9010   -0.1490    0.8890 C   0  0  0  0  0  0  0  0  0  0  0  0
   -1.8540    0.0520   -0.4760 O   0  0  0  0  0  0  0  0  0  0  0  0
   -3.1320   -0.3260    1.6240 C   0  0  0  0  0  0  0  0  0  0  0  0
   -4.2730   -0.3220    1.1100 N   0  0  0  0  0  0  0  0  0  0  0  0
   -4.5310   -0.1420   -0.2810 C   0  0  0  0  0  0  0  0  0  0  0  0
    0.6850    0.2000   -0.5510 C   0  0  0  0  0  0  0  0  0  0  0  0
    2.1500    0.3080   -0.8260 C   0  0  0  0  0  0  0  0  0  0  0  0
    2.9150    1.4060   -0.8320 N   0  0  0  0  0  0  0  0  0  0  0  0
    4.1590    1.0320   -1.1270 N   0  0  0  0  0  0  0  0  0  0  0  0
    4.1500   -0.2830   -1.3000 C   0  0  0  0  0  0  0  0  0  0  0  0
    5.1450   -0.9980   -1.5910 O   0  0  0  0  0  0  0  0  0  0  0  0
    2.9130   -0.7630   -1.1190 N   0  0  0  0  0  0  0  0  0  0  0  0
  1  2  2  0
  2  3  1  0
  2  9  1  0
  3  4  2  3
  4  5  1  0
  4  6  1  0
  6  7  2  3
  7  8  1  0
  9 10  1  0
 10 11  2  0
 10 15  1  0
 11 12  1  0
 12 13  1  0
 13 14  2  0
 13 15  1  0
M  END
