
     RDKit          3D

 15 16  0  0  0  0  0  0  0  0999 V2000
    0.9160   -2.5670    0.5410 O   0  0  0  0  0  0  0  0  0  0  0  0
    0.9900   -1.3680    0.1770 C   0  0  0  0  0  0  0  0  0  0  0  0
   -0.1940   -0.5830    0.1010 N   0  0  0  0  0  0  0  0  0  0  0  0
   -1.5000   -1.0950    0.4240 C   0  0  0  0  0  0  0  0  0  0  0  0
   -2.5100   -0.0200    0.2390 C   0  0  0  0  0  0  0  0  0  0  0  0
   -3.3200    0.4880    1.1350 C   0  0  0  0  0  0  0  0  0  0  0  0
   -4.1760    1.5530    0.5230 C   0  0  0  0  0  0  0  0  0  0  0  0
   -3.7180    1.5530   -0.8340 N   0  0  0  0  0  0  0  0  0  0  0  0
   -2.7740    0.6670   -1.0130 C   0  0  0  0  0  0  0  0  0  0  0  0
    2.2830   -0.7620   -0.1720 C   0  0  0  0  0  0  0  0  0  0  0  0
    3.5110   -1.3890   -0.1480 C   0  0  0  0  0  0  0  0  0  0  0  0
    4.4820   -0.5120   -0.5350 N   0  0  0  0  0  0  0  0  0  0  0  0
    3.8590    0.6520   -0.7970 C   0  0  0  0  0  0  0  0  0  0  0  0
    4.4570    1.8240   -1.2220 O   0  0  0  0  0  0  0  0  0  0  0  0
    2.5220    0.4970   -0.5750 N   0  0  0  0  0  0  0  0  0  0  0  0
  1  2  2  0
  2  3  1  0
  2 10  1  0
  3  4  1  0
  4  5  1  0
  5  6  2  0
  5  9  1  0
  6  7  1  0
  7  8  1  0
  8  9  2  0
 10 11  2  0
 10 15  1  0
 11 12  1  0
 12 13  1  0
 13 14  1  0
 13 15  2  0
M  END
