
     RDKit          3D

 26 28  0  0  0  0  0  0  0  0999 V2000
   -4.3730    1.0650    1.8900 C   0  0  0  0  0  0  0  0  0  0  0  0
   -3.2370    0.1890    1.4420 C   0  0  0  0  0  0  0  0  0  0  0  0
   -2.7480    0.5240    0.0650 C   0  0  2  0  0  0  0  0  0  0  0  0
   -3.7680    0.3970   -1.0010 C   0  0  0  0  0  0  0  0  0  0  0  0
   -2.9510    0.3290   -2.2660 C   0  0  0  0  0  0  0  0  0  0  0  0
   -1.5260    0.0420   -1.8420 C   0  0  0  0  0  0  0  0  0  0  0  0
   -1.6500   -0.4040   -0.4080 C   0  0  1  0  0  0  0  0  0  0  0  0
   -0.4830   -0.1400    0.3800 N   0  0  0  0  0  0  0  0  0  0  0  0
    0.6580    0.3630   -0.3520 C   0  0  0  0  0  0  0  0  0  0  0  0
    1.9510    0.1760    0.3260 C   0  0  0  0  0  0  0  0  0  0  0  0
    2.7300    1.1740    0.6700 C   0  0  0  0  0  0  0  0  0  0  0  0
    2.4650    2.5850    0.4470 C   0  0  0  0  0  0  0  0  0  0  0  0
    2.5310    3.6420    1.0800 N   0  0  0  0  0  0  0  0  0  0  0  0
    2.2520    4.7880    0.5630 N   0  0  0  0  0  0  0  0  0  0  0  0
    1.9140    5.0160   -0.5060 C   0  0  0  0  0  0  0  0  0  0  0  0
    1.5350    6.0650   -1.4000 O   0  0  0  0  0  0  0  0  0  0  0  0
    1.9040    3.2540   -1.2160 S   0  0  0  0  0  0  0  0  0  0  0  0
    2.3870   -1.1830    0.6090 C   0  0  0  0  0  0  0  0  0  0  0  0
    1.6620   -2.1920    0.2860 O   0  0  0  0  0  0  0  0  0  0  0  0
    3.6110   -1.5220    1.2460 N   0  0  0  0  0  0  0  0  0  0  0  0
    3.9790   -2.9130    1.4970 C   0  0  1  0  0  0  0  0  0  0  0  0
    5.3860   -3.3420    1.2400 C   0  0  0  0  0  0  0  0  0  0  0  0
    4.8450   -3.2650    2.6250 C   0  0  0  0  0  0  0  0  0  0  0  0
   -2.0250   -1.8200   -0.2960 C   0  0  0  0  0  0  0  0  0  0  0  0
   -3.0760   -2.4430   -1.0230 N   0  0  0  0  0  0  0  0  0  0  0  0
   -1.3770   -2.5550    0.4980 O   0  0  0  0  0  0  0  0  0  0  0  0
  1  2  1  0
  3  2  1  1
  3  4  1  0
  3  7  1  0
  4  5  1  0
  5  6  1  0
  6  7  1  0
  7  8  1  1
  7 24  1  0
  8  9  1  0
  9 10  1  0
 10 11  2  3
 10 18  1  0
 11 12  1  0
 12 13  2  0
 12 17  1  0
 13 14  1  0
 14 15  2  0
 15 16  1  0
 15 17  1  0
 18 19  2  0
 18 20  1  0
 21 20  1  1
 21 22  1  0
 21 23  1  0
 22 23  1  0
 24 25  1  0
 24 26  2  0
M  CHG  1   8   1
M  END
