
     RDKit          3D

 27 28  0  0  0  0  0  0  0  0999 V2000
    1.8530   -0.2460    2.1390 C   0  0  0  0  0  0  0  0  0  0  0  0
    1.6210    0.7330    0.9530 C   0  0  2  0  0  0  0  0  0  0  0  0
    0.2630    0.5550    0.5830 N   0  0  0  0  0  0  0  0  0  0  0  0
   -0.7820    1.3410    1.1470 C   0  0  0  0  0  0  0  0  0  0  0  0
   -0.4040    2.2860    1.9110 O   0  0  0  0  0  0  0  0  0  0  0  0
   -2.1920    1.1230    0.9350 C   0  0  1  0  0  0  0  0  0  0  0  0
   -3.0580    2.2430    1.4170 C   0  0  0  0  0  0  0  0  0  0  0  0
   -4.5030    1.7240    1.5190 C   0  0  0  0  0  0  0  0  0  0  0  0
   -4.5300    0.2440    1.5300 C   0  0  0  0  0  0  0  0  0  0  0  0
   -3.9050   -0.4080    0.2840 C   0  0  1  0  0  0  0  0  0  0  0  0
   -4.9810   -0.7840   -0.6140 C   0  0  0  0  0  0  0  0  0  0  0  0
   -5.3740   -2.0770   -0.7530 N   0  0  0  0  0  0  0  0  0  0  0  0
   -6.4320   -2.3820   -1.4900 C   0  0  0  0  0  0  0  0  0  0  0  0
   -7.1530   -1.4590   -2.1260 N   0  0  0  0  0  0  0  0  0  0  0  0
   -6.8000   -0.1700   -2.0210 C   0  0  0  0  0  0  0  0  0  0  0  0
   -7.4660    0.6980   -2.6080 O   0  0  0  0  0  0  0  0  0  0  0  0
   -5.7090    0.1330   -1.2590 N   0  0  0  0  0  0  0  0  0  0  0  0
   -2.7560    0.4470   -0.2450 C   0  0  0  0  0  0  0  0  0  0  0  0
    2.7180    0.6640    0.0230 C   0  0  0  0  0  0  0  0  0  0  0  0
    3.4180    1.6270   -0.3040 O   0  0  0  0  0  0  0  0  0  0  0  0
    3.0710   -0.6280   -0.5730 N   0  0  0  0  0  0  0  0  0  0  0  0
    4.1480   -0.9310   -1.4020 C   0  0  1  0  0  0  0  0  0  0  0  0
    4.4150   -0.3410   -2.7160 C   0  0  0  0  0  0  0  0  0  0  0  0
    5.4370   -0.9290   -0.5880 C   0  0  0  0  0  0  0  0  0  0  0  0
    5.4480   -1.8760    0.4480 N   0  0  0  0  0  0  0  0  0  0  0  0
    6.4270   -0.1140   -0.7710 C   0  0  0  0  0  0  0  0  0  0  0  0
    7.6210   -0.1850    0.0450 N   0  0  0  0  0  0  0  0  0  0  0  0
  2  1  1  1
  2  3  1  0
  2 19  1  0
  3  4  1  0
  4  5  2  0
  6  4  1  6
  6  7  1  0
  6 18  1  0
  7  8  1  0
  8  9  1  0
  9 10  1  0
 10 11  1  6
 10 18  1  0
 11 12  2  0
 11 17  1  0
 12 13  1  0
 13 14  2  0
 14 15  1  0
 15 16  2  0
 15 17  1  0
 19 20  2  0
 19 21  1  0
 21 22  1  0
 22 23  1  6
 22 24  1  0
 24 25  1  0
 24 26  2  3
 26 27  1  0
M  CHG  1  27   1
M  END
