
     RDKit          3D

 26 27  0  0  0  0  0  0  0  0999 V2000
   -7.4750    3.0720   -0.5410 C   0  0  0  0  0  0  0  0  0  0  0  0
   -6.1660    2.5400   -0.0640 C   0  0  0  0  0  0  0  0  0  0  0  0
   -5.4500    1.8300   -1.0860 N   0  0  0  0  0  0  0  0  0  0  0  0
   -3.9750    1.3270   -0.8730 S   0  0  0  0  0  0  0  0  0  0  0  0
   -3.4680    1.8120    0.7910 C   0  0  0  0  0  0  0  0  0  0  0  0
   -2.1660    1.1370    1.1800 C   0  0  0  0  0  0  0  0  0  0  0  0
   -2.0530   -0.1510    0.4960 N   0  0  0  0  0  0  0  0  0  0  0  0
   -0.7740   -0.4960    0.0080 C   0  0  0  0  0  0  0  0  0  0  0  0
   -0.6310   -1.5810   -0.6060 O   0  0  0  0  0  0  0  0  0  0  0  0
    0.4160    0.3700    0.1880 C   0  0  0  0  0  0  0  0  0  0  0  0
    1.6980   -0.2150   -0.2830 C   0  0  0  0  0  0  0  0  0  0  0  0
    2.0960   -1.4930    0.4220 C   0  0  0  0  0  0  0  0  0  0  0  0
    3.3390   -2.0380   -0.0620 N   0  0  0  0  0  0  0  0  0  0  0  0
    4.5450   -1.3290    0.0340 C   0  0  0  0  0  0  0  0  0  0  0  0
    4.5430   -0.1880    0.5650 O   0  0  0  0  0  0  0  0  0  0  0  0
    5.7810   -1.8720   -0.4590 N   0  0  0  0  0  0  0  0  0  0  0  0
    6.9800   -1.1370   -0.3500 C   0  0  0  0  0  0  0  0  0  0  0  0
    8.0470   -1.5350    0.3000 C   0  0  0  0  0  0  0  0  0  0  0  0
    9.0750   -0.4810    0.1710 C   0  0  0  0  0  0  0  0  0  0  0  0
    8.4580    0.5720   -0.6370 C   0  0  0  0  0  0  0  0  0  0  0  0
    7.2390    0.1620   -0.9250 C   0  0  0  0  0  0  0  0  0  0  0  0
   -3.2530   -0.9160    0.3780 C   0  0  2  0  0  0  0  0  0  0  0  0
   -3.1470   -2.3600    0.5380 C   0  0  0  0  0  0  0  0  0  0  0  0
   -4.3150   -3.1580    0.2770 N   0  0  0  0  0  0  0  0  0  0  0  0
   -2.1340   -2.9820    0.8820 O   0  0  0  0  0  0  0  0  0  0  0  0
   -3.9070   -0.4820   -0.9430 C   0  0  0  0  0  0  0  0  0  0  0  0
  1  2  1  0
  2  3  1  0
  3  4  2  3
  4  5  1  1
  4 26  1  0
  5  6  1  0
  6  7  1  0
  7  8  1  0
  7 22  1  0
  8  9  2  0
  8 10  1  0
 10 11  1  0
 11 12  1  0
 12 13  1  0
 13 14  1  0
 14 15  2  0
 14 16  1  0
 16 17  1  0
 17 18  2  0
 17 21  1  0
 18 19  1  0
 19 20  1  0
 20 21  2  0
 22 23  1  6
 22 26  1  0
 23 24  1  0
 23 25  2  0
M  CHG  1   3   1
M  END
