
     RDKit          3D

 26 27  0  0  0  0  0  0  0  0999 V2000
   -6.2690    2.6600    1.1890 C   0  0  0  0  0  0  0  0  0  0  0  0
   -5.2810    2.8370   -0.2960 S   0  0  0  0  0  0  0  0  0  0  0  0
   -3.6730    2.0600   -0.1780 C   0  0  0  0  0  0  0  0  0  0  0  0
   -3.7590    0.5550   -0.0720 C   0  0  1  0  0  0  0  0  0  0  0  0
   -4.4530   -0.0210   -1.2920 C   0  0  0  0  0  0  0  0  0  0  0  0
   -4.9060   -1.4160   -0.9280 C   0  0  0  0  0  0  0  0  0  0  0  0
   -3.9500   -2.0180    0.0770 C   0  0  0  0  0  0  0  0  0  0  0  0
   -2.5540   -1.4620   -0.0710 C   0  0  0  0  0  0  0  0  0  0  0  0
   -2.4900   -0.0440    0.1710 N   0  0  1  0  0  0  0  0  0  0  0  0
   -1.4670    0.5140   -0.6770 C   0  0  0  0  0  0  0  0  0  0  0  0
   -0.1390   -0.1850   -0.4940 C   0  0  0  0  0  0  0  0  0  0  0  0
    0.3810   -0.0980    0.8990 C   0  0  0  0  0  0  0  0  0  0  0  0
    1.6380   -0.7940    0.9750 N   0  0  0  0  0  0  0  0  0  0  0  0
    2.8020   -0.4700    0.2440 C   0  0  0  0  0  0  0  0  0  0  0  0
    2.7500    0.5140   -0.5400 O   0  0  0  0  0  0  0  0  0  0  0  0
    4.0160   -1.2510    0.3980 N   0  0  0  0  0  0  0  0  0  0  0  0
    5.1420   -0.8490   -0.3570 C   0  0  0  0  0  0  0  0  0  0  0  0
    5.5330   -1.6290   -1.3920 C   0  0  0  0  0  0  0  0  0  0  0  0
    6.6800   -1.2320   -2.1720 C   0  0  0  0  0  0  0  0  0  0  0  0
    7.0330   -1.9600   -3.1290 O   0  0  0  0  0  0  0  0  0  0  0  0
    7.3920   -0.0440   -1.8630 N   0  0  0  0  0  0  0  0  0  0  0  0
    7.0690    0.7260   -0.8970 C   0  0  0  0  0  0  0  0  0  0  0  0
    5.8860    0.3460   -0.0670 C   0  0  0  0  0  0  0  0  0  0  0  0
    5.6140    1.0890    0.9720 C   0  0  0  0  0  0  0  0  0  0  0  0
    4.6040    0.8060    1.8860 N   0  0  0  0  0  0  0  0  0  0  0  0
    6.3670    2.2390    1.1990 O   0  0  0  0  0  0  0  0  0  0  0  0
  1  2  1  0
  2  3  1  0
  4  3  1  6
  4  5  1  0
  4  9  1  0
  5  6  1  0
  6  7  1  0
  7  8  1  0
  8  9  1  0
  9 10  1  6
 10 11  1  0
 11 12  1  0
 12 13  1  0
 13 14  1  0
 14 15  2  0
 14 16  1  0
 16 17  1  0
 17 18  2  0
 17 23  1  0
 18 19  1  0
 19 20  2  0
 19 21  1  0
 21 22  2  0
 22 23  1  0
 23 24  2  3
 24 25  1  0
 24 26  1  0
M  CHG  1   9   1
M  END
