
     RDKit          3D

 26 27  0  0  0  0  0  0  0  0999 V2000
    6.5680   -0.9400    1.2330 C   0  0  0  0  0  0  0  0  0  0  0  0
    5.1390   -0.8430    2.3370 S   0  0  0  0  0  0  0  0  0  0  0  0
    3.7780   -0.0550    1.3990 C   0  0  0  0  0  0  0  0  0  0  0  0
    3.4020   -1.0070    0.2980 C   0  0  0  0  0  0  0  0  0  0  0  0
    2.3360   -0.5390   -0.5430 N   0  0  0  0  0  0  0  0  0  0  0  0
    1.0430   -0.2420   -0.0280 C   0  0  0  0  0  0  0  0  0  0  0  0
    0.9030   -0.4230    1.2020 O   0  0  0  0  0  0  0  0  0  0  0  0
   -0.0680    0.2540   -0.9320 C   0  0  1  0  0  0  0  0  0  0  0  0
   -1.1520   -0.6280   -0.8610 N   0  0  0  0  0  0  0  0  0  0  0  0
   -1.3630   -1.4040    0.3330 C   0  0  1  0  0  0  0  0  0  0  0  0
   -1.8870   -0.6750    1.5110 C   0  0  0  0  0  0  0  0  0  0  0  0
   -2.4170   -2.4120   -0.0650 C   0  0  0  0  0  0  0  0  0  0  0  0
   -2.1690   -3.7000   -0.0790 C   0  0  0  0  0  0  0  0  0  0  0  0
   -3.2040   -4.6760   -0.4690 C   0  0  0  0  0  0  0  0  0  0  0  0
   -4.4230   -4.0770   -0.8020 O   0  0  0  0  0  0  0  0  0  0  0  0
   -4.6780   -2.7350   -0.7860 C   0  0  0  0  0  0  0  0  0  0  0  0
   -3.7190   -1.8980   -0.4300 C   0  0  0  0  0  0  0  0  0  0  0  0
   -0.2580    1.6860   -0.7590 C   0  0  0  0  0  0  0  0  0  0  0  0
   -1.4530    2.3050   -0.6910 C   0  0  0  0  0  0  0  0  0  0  0  0
   -2.7280    1.7120   -0.8100 N   0  0  0  0  0  0  0  0  0  0  0  0
   -1.5100    3.6700   -0.5040 N   0  0  0  0  0  0  0  0  0  0  0  0
   -0.4220    4.4280   -0.3830 C   0  0  0  0  0  0  0  0  0  0  0  0
   -0.5040    5.9150   -0.1790 C   0  0  0  0  0  0  0  0  0  0  0  0
    0.7820    3.8400   -0.4460 N   0  0  0  0  0  0  0  0  0  0  0  0
    0.8700    2.4980   -0.6300 C   0  0  0  0  0  0  0  0  0  0  0  0
    2.0500    2.0710   -0.6710 O   0  0  0  0  0  0  0  0  0  0  0  0
  1  2  1  0
  2  3  1  0
  3  4  1  0
  4  5  1  0
  5  6  1  0
  6  7  2  0
  6  8  1  0
  8  9  1  1
  8 18  1  0
  9 10  1  0
 10 11  1  1
 10 12  1  0
 12 13  2  0
 12 17  1  0
 13 14  1  0
 14 15  1  0
 15 16  1  0
 16 17  2  0
 18 19  2  0
 18 25  1  0
 19 20  1  0
 19 21  1  0
 21 22  2  0
 22 23  1  0
 22 24  1  0
 24 25  1  0
 25 26  2  0
M  CHG  1   9   1
M  END
