
     RDKit          3D

 27 28  0  0  0  0  0  0  0  0999 V2000
   -6.1390    0.9650    2.0080 C   0  0  0  0  0  0  0  0  0  0  0  0
   -5.4870    0.8570    0.8780 C   0  0  0  0  0  0  0  0  0  0  0  0
   -6.2780    0.7360   -0.3760 C   0  0  0  0  0  0  0  0  0  0  0  0
   -5.4220    1.1160   -1.5390 C   0  0  0  0  0  0  0  0  0  0  0  0
   -4.5260    0.0170   -2.0070 C   0  0  0  0  0  0  0  0  0  0  0  0
   -3.5640   -0.4820   -0.9780 C   0  0  0  0  0  0  0  0  0  0  0  0
   -3.0930    0.5670   -0.0170 C   0  0  2  0  0  0  0  0  0  0  0  0
   -1.7570    0.1960    0.5940 C   0  0  1  0  0  0  0  0  0  0  0  0
   -1.7950   -1.1040    1.3140 C   0  0  0  0  0  0  0  0  0  0  0  0
   -2.7210   -1.1770    2.4130 N   0  0  0  0  0  0  0  0  0  0  0  0
   -0.6620    0.3180   -0.3890 C   0  0  0  0  0  0  0  0  0  0  0  0
   -0.9900    0.6650   -1.5720 O   0  0  0  0  0  0  0  0  0  0  0  0
    0.6820    0.0840   -0.1130 N   0  0  0  0  0  0  0  0  0  0  0  0
    1.7120    0.2040   -1.0410 N   0  0  0  0  0  0  0  0  0  0  0  0
    2.9880   -0.4190   -0.7960 C   0  0  0  0  0  0  0  0  0  0  0  0
    3.0760   -1.0480    0.2790 O   0  0  0  0  0  0  0  0  0  0  0  0
    4.0390   -0.3050   -1.7320 N   0  0  0  0  0  0  0  0  0  0  0  0
    5.3080   -0.8700   -1.5720 C   0  0  0  0  0  0  0  0  0  0  0  0
    6.1960   -0.4460   -0.4720 C   0  0  1  0  0  0  0  0  0  0  0  0
    7.5040   -1.2530   -0.6210 C   0  0  0  0  0  0  0  0  0  0  0  0
    6.6020    0.9380   -0.5460 N   0  0  0  0  0  0  0  0  0  0  0  0
    5.9140    1.6290    0.4810 C   0  0  0  0  0  0  0  0  0  0  0  0
    5.7690    2.8930    0.6110 O   0  0  0  0  0  0  0  0  0  0  0  0
    5.3810    0.6830    1.3910 N   0  0  0  0  0  0  0  0  0  0  0  0
    5.7570   -0.6160    0.9020 C   0  0  0  0  0  0  0  0  0  0  0  0
    5.6920   -1.6810    1.6090 O   0  0  0  0  0  0  0  0  0  0  0  0
   -4.0620    0.8770    0.9900 N   0  0  0  0  0  0  0  0  0  0  0  0
  1  2  2  0
  2  3  1  0
  2 27  1  0
  3  4  1  0
  4  5  1  0
  5  6  1  0
  7  6  1  1
  7  8  1  0
  7 27  1  0
  8  9  1  6
  8 11  1  0
  9 10  1  0
 11 12  2  0
 11 13  1  0
 13 14  1  0
 14 15  1  0
 15 16  2  0
 15 17  1  0
 17 18  1  0
 18 19  1  0
 19 20  1  1
 19 21  1  0
 19 25  1  0
 21 22  1  0
 22 23  2  0
 22 24  1  0
 24 25  1  0
 25 26  2  0
M  CHG  1  10   1
M  END
