
     RDKit          3D

 27 29  0  0  0  0  0  0  0  0999 V2000
    6.3120   -1.4220   -2.7410 N   0  0  0  0  0  0  0  0  0  0  0  0
    5.7930   -0.6340   -1.6900 C   0  0  0  0  0  0  0  0  0  0  0  0
    6.4840    0.3650   -1.1320 N   0  0  0  0  0  0  0  0  0  0  0  0
    5.9400    1.0990   -0.1180 C   0  0  0  0  0  0  0  0  0  0  0  0
    4.7070    0.8610    0.3610 N   0  0  0  0  0  0  0  0  0  0  0  0
    4.0000   -0.1370   -0.1860 C   0  0  0  0  0  0  0  0  0  0  0  0
    4.5320   -0.9020   -1.2220 C   0  0  0  0  0  0  0  0  0  0  0  0
    3.6050   -1.7940   -1.5430 N   0  0  0  0  0  0  0  0  0  0  0  0
    2.5380   -1.6070   -0.7520 C   0  0  0  0  0  0  0  0  0  0  0  0
    2.7770   -0.5820    0.0900 N   0  0  0  0  0  0  0  0  0  0  0  0
    1.8070   -0.1380    1.0710 C   0  0  2  0  0  0  0  0  0  0  0  0
    0.5250   -0.2060    0.5900 O   0  0  0  0  0  0  0  0  0  0  0  0
   -0.2530    0.7280    1.2100 C   0  0  2  0  0  0  0  0  0  0  0  0
   -0.8630    1.6110    0.1160 C   0  0  0  0  0  0  0  0  0  0  0  0
   -1.7030    0.7890   -0.8310 C   0  0  1  0  0  0  0  0  0  0  0  0
   -0.9660   -0.2450   -1.5010 N   0  0  0  0  0  0  0  0  0  0  0  0
   -2.9510    0.2370   -0.1500 C   0  0  0  0  0  0  0  0  0  0  0  0
   -3.7040   -0.5570   -1.1720 C   0  0  0  0  0  0  0  0  0  0  0  0
   -4.9490   -1.1660   -0.6080 C   0  0  2  0  0  0  0  0  0  0  0  0
   -5.6380   -1.9340   -1.6610 N   0  0  0  0  0  0  0  0  0  0  0  0
   -5.8940   -0.2180   -0.0090 C   0  0  0  0  0  0  0  0  0  0  0  0
   -5.6590    0.5300    0.9640 O   0  0  0  0  0  0  0  0  0  0  0  0
   -7.1780   -0.1190   -0.5520 O   0  0  0  0  0  0  0  0  0  0  0  0
    0.6340    1.6240    2.0330 C   0  0  1  0  0  0  0  0  0  0  0  0
    0.6240    1.2520    3.3930 O   0  0  0  0  0  0  0  0  0  0  0  0
    2.0000    1.3270    1.4090 C   0  0  1  0  0  0  0  0  0  0  0  0
    3.0200    1.5160    2.3340 O   0  0  0  0  0  0  0  0  0  0  0  0
  1  2  1  0
  2  3  2  0
  2  7  1  0
  3  4  1  0
  4  5  2  0
  5  6  1  0
  6  7  2  0
  6 10  1  0
  7  8  1  0
  8  9  2  0
  9 10  1  0
 11 10  1  6
 11 12  1  0
 11 26  1  0
 12 13  1  0
 13 14  1  6
 13 24  1  0
 14 15  1  0
 15 16  1  1
 15 17  1  0
 17 18  1  0
 18 19  1  0
 19 20  1  6
 19 21  1  0
 21 22  2  0
 21 23  1  0
 24 25  1  1
 24 26  1  0
 26 27  1  1
M  END
