
     RDKit          3D

 26 27  0  0  0  0  0  0  0  0999 V2000
   -5.3700   -0.8030   -0.9170 C   0  0  0  0  0  0  0  0  0  0  0  0
   -4.4910   -1.2900   -0.0660 C   0  0  0  0  0  0  0  0  0  0  0  0
   -4.1160   -2.7180   -0.1280 C   0  0  0  0  0  0  0  0  0  0  0  0
   -4.4230   -3.4090    1.1150 N   0  0  0  0  0  0  0  0  0  0  0  0
   -3.9030   -0.3680    0.9390 C   0  0  0  0  0  0  0  0  0  0  0  0
   -2.4670   -0.2770    0.8160 N   0  0  0  0  0  0  0  0  0  0  0  0
   -1.8350    0.1760   -0.3760 C   0  0  0  0  0  0  0  0  0  0  0  0
   -2.5650    0.5010   -1.3320 O   0  0  0  0  0  0  0  0  0  0  0  0
   -0.3280    0.2630   -0.4910 C   0  0  2  0  0  0  0  0  0  0  0  0
    0.1910   -1.1270   -0.4560 C   0  0  0  0  0  0  0  0  0  0  0  0
    1.5700   -1.3580   -0.5620 N   0  0  0  0  0  0  0  0  0  0  0  0
    2.6130   -0.9550    0.2950 C   0  0  0  0  0  0  0  0  0  0  0  0
    2.3230   -0.3010    1.3160 O   0  0  0  0  0  0  0  0  0  0  0  0
    3.9890   -1.2930   -0.0010 N   0  0  0  0  0  0  0  0  0  0  0  0
    4.2960   -2.0520   -1.1900 C   0  0  0  0  0  0  0  0  0  0  0  0
    5.7170   -2.5960   -0.9870 C   0  0  0  0  0  0  0  0  0  0  0  0
    6.6360   -1.5820   -0.8600 O   0  0  0  0  0  0  0  0  0  0  0  0
    6.2340   -0.5210   -0.0830 C   0  0  0  0  0  0  0  0  0  0  0  0
    5.0790   -0.8920    0.8570 C   0  0  0  0  0  0  0  0  0  0  0  0
    0.1830    1.3140    0.8780 S   0  0  0  0  0  0  0  0  0  0  0  0
   -0.3610    2.9860    0.5690 C   0  0  0  0  0  0  0  0  0  0  0  0
   -0.8760    3.3960   -0.5730 C   0  0  0  0  0  0  0  0  0  0  0  0
   -1.3460    4.7390   -0.9050 C   0  0  0  0  0  0  0  0  0  0  0  0
   -1.1210    5.6730    0.1550 N   0  0  0  0  0  0  0  0  0  0  0  0
   -0.5720    5.2660    1.3920 C   0  0  0  0  0  0  0  0  0  0  0  0
   -0.2090    4.0210    1.6110 C   0  0  0  0  0  0  0  0  0  0  0  0
  1  2  2  0
  2  3  1  0
  2  5  1  0
  3  4  1  0
  5  6  1  0
  6  7  1  0
  7  8  2  0
  7  9  1  0
  9 10  1  1
  9 20  1  0
 10 11  1  0
 11 12  1  0
 12 13  2  0
 12 14  1  0
 14 15  1  0
 14 19  1  0
 15 16  1  0
 16 17  1  0
 17 18  1  0
 18 19  1  0
 20 21  1  0
 21 22  2  0
 21 26  1  0
 22 23  1  0
 23 24  1  0
 24 25  1  0
 25 26  2  0
M  CHG  1   4   1
M  END
