
     RDKit          3D

 43 46  0  0  0  0  0  0  0  0999 V2000
   -7.8890    2.3720    1.7030 O   0  0  0  0  0  0  0  0  0  0  0  0
   -6.8010    2.7330    2.1690 C   0  0  0  0  0  0  0  0  0  0  0  0
   -6.7300    3.7890    3.0370 O   0  0  0  0  0  0  0  0  0  0  0  0
   -5.6220    1.9950    1.7600 N   0  0  0  0  0  0  0  0  0  0  0  0
   -5.7710    0.8820    0.9390 C   0  0  0  0  0  0  0  0  0  0  0  0
   -6.9750    0.2430    0.7020 N   0  0  0  0  0  0  0  0  0  0  0  0
   -6.7180   -0.8700    0.0190 C   0  0  0  0  0  0  0  0  0  0  0  0
   -7.6970   -1.7820   -0.4020 O   0  0  0  0  0  0  0  0  0  0  0  0
   -5.4370   -0.9570   -0.1820 O   0  0  0  0  0  0  0  0  0  0  0  0
   -4.8130    0.1100    0.3680 C   0  0  0  0  0  0  0  0  0  0  0  0
   -3.3790    0.2170    0.2280 C   0  0  0  0  0  0  0  0  0  0  0  0
   -2.7470   -0.8330   -0.1650 N   0  0  0  0  0  0  0  0  0  0  0  0
   -1.3610   -0.9240   -0.4500 C   0  0  0  0  0  0  0  0  0  0  0  0
   -0.6580    0.1340   -0.3100 N   0  0  0  0  0  0  0  0  0  0  0  0
   -1.1710    1.3660    0.1010 C   0  0  0  0  0  0  0  0  0  0  0  0
   -0.4660    2.4910    0.2430 C   0  0  0  0  0  0  0  0  0  0  0  0
    0.9550    2.6170   -0.0040 C   0  0  0  0  0  0  0  0  0  0  0  0
    1.3820    3.5640   -0.8130 C   0  0  0  0  0  0  0  0  0  0  0  0
    0.5480    4.4590   -1.4490 O   0  0  0  0  0  0  0  0  0  0  0  0
    1.9810    1.7240    0.6470 C   0  0  2  0  0  0  0  0  0  0  0  0
    2.1280    2.1540    1.9690 O   0  0  0  0  0  0  0  0  0  0  0  0
    3.1800    1.9400    0.0170 O   0  0  0  0  0  0  0  0  0  0  0  0
    4.0320    2.8330    0.6380 C   0  0  0  0  0  0  0  0  0  0  0  0
    4.9290    2.2370    1.6430 C   0  0  0  0  0  0  0  0  0  0  0  0
    5.0990    2.8900    2.7310 O   0  0  0  0  0  0  0  0  0  0  0  0
    5.6200    1.0130    1.5200 N   0  0  0  0  0  0  0  0  0  0  0  0
    5.0950   -0.2440    1.1070 C   0  0  0  0  0  0  0  0  0  0  0  0
    5.5600   -0.5680   -0.3020 C   0  0  0  0  0  0  0  0  0  0  0  0
    4.5730   -1.3770   -1.0230 N   0  0  0  0  0  0  0  0  0  0  0  0
    3.9750   -0.9550   -2.2860 C   0  0  0  0  0  0  0  0  0  0  0  0
    4.2010    0.0940   -2.9420 O   0  0  0  0  0  0  0  0  0  0  0  0
    3.0600   -1.9040   -2.7270 O   0  0  0  0  0  0  0  0  0  0  0  0
    2.6750   -2.5600   -1.5280 C   0  0  2  0  0  0  0  0  0  0  0  0
    1.6170   -1.8560   -0.7540 C   0  0  0  0  0  0  0  0  0  0  0  0
    0.4370   -2.7390   -0.5440 C   0  0  0  0  0  0  0  0  0  0  0  0
   -0.8330   -2.1960   -0.8890 N   0  0  0  0  0  0  0  0  0  0  0  0
   -1.6780   -3.0010   -1.7510 C   0  0  0  0  0  0  0  0  0  0  0  0
   -2.1970   -4.2470   -1.0930 C   0  0  0  0  0  0  0  0  0  0  0  0
   -1.1830   -5.0950   -0.6730 O   0  0  0  0  0  0  0  0  0  0  0  0
    3.9930   -2.5890   -0.7390 C   0  0  0  0  0  0  0  0  0  0  0  0
    4.1400   -3.6690   -0.0980 O   0  0  0  0  0  0  0  0  0  0  0  0
   -2.6350    1.4320    0.3940 C   0  0  0  0  0  0  0  0  0  0  0  0
   -3.0930    2.5270    0.7470 O   0  0  0  0  0  0  0  0  0  0  0  0
  1  2  2  0
  2  3  1  0
  2  4  1  0
  4  5  1  0
  5  6  1  0
  5 10  2  0
  6  7  2  0
  7  8  1  0
  7  9  1  0
  9 10  1  0
 10 11  1  0
 11 12  2  0
 11 42  1  0
 12 13  1  0
 13 14  2  0
 13 36  1  0
 14 15  1  0
 15 16  2  0
 15 42  1  0
 16 17  1  0
 17 18  2  3
 17 20  1  0
 18 19  1  0
 20 21  1  1
 20 22  1  0
 22 23  1  0
 23 24  1  0
 24 25  2  0
 24 26  1  0
 26 27  1  0
 27 28  1  0
 28 29  1  0
 29 30  1  0
 29 40  1  0
 30 31  2  0
 30 32  1  0
 32 33  1  0
 33 34  1  1
 33 40  1  0
 34 35  1  0
 35 36  1  0
 36 37  1  0
 37 38  1  0
 38 39  1  0
 40 41  2  0
 42 43  2  0
M  END
