
     RDKit          3D

 43 45  0  0  0  0  0  0  0  0999 V2000
   -4.2080    3.7830    2.4170 C   0  0  0  0  0  0  0  0  0  0  0  0
   -3.6880    2.9330    1.3010 C   0  0  0  0  0  0  0  0  0  0  0  0
   -4.1980    2.0770    0.6250 N   0  0  0  0  0  0  0  0  0  0  0  0
   -4.6960    1.1320   -0.1490 C   0  0  0  0  0  0  0  0  0  0  0  0
   -4.5900   -0.2320   -0.0630 C   0  0  0  0  0  0  0  0  0  0  0  0
   -3.8950   -0.8680    0.9140 O   0  0  0  0  0  0  0  0  0  0  0  0
   -2.8870   -1.7400    1.1270 C   0  0  2  0  0  0  0  0  0  0  0  0
   -2.8510   -2.9840    0.2380 C   0  0  0  0  0  0  0  0  0  0  0  0
   -3.0590   -2.3790    2.5240 C   0  0  0  0  0  0  0  0  0  0  0  0
   -4.2090   -3.0970    2.7170 O   0  0  0  0  0  0  0  0  0  0  0  0
   -5.5040   -2.7030    2.7410 C   0  0  0  0  0  0  0  0  0  0  0  0
   -5.7800   -1.4930    2.5770 O   0  0  0  0  0  0  0  0  0  0  0  0
   -1.5310   -1.1220    1.2200 C   0  0  0  0  0  0  0  0  0  0  0  0
   -1.2670   -0.6010    2.3370 O   0  0  0  0  0  0  0  0  0  0  0  0
   -0.5290   -1.0570    0.2200 N   0  0  0  0  0  0  0  0  0  0  0  0
    0.8160   -1.4770    0.5710 C   0  0  0  0  0  0  0  0  0  0  0  0
    1.7080   -1.8890   -0.1470 N   0  0  0  0  0  0  0  0  0  0  0  0
    2.2700   -2.2460   -1.3050 C   0  0  0  0  0  0  0  0  0  0  0  0
    1.6400   -2.9610   -2.3920 O   0  0  0  0  0  0  0  0  0  0  0  0
    3.5580   -1.9660   -1.6020 C   0  0  0  0  0  0  0  0  0  0  0  0
    4.5650   -1.2940   -0.8610 C   0  0  0  0  0  0  0  0  0  0  0  0
    4.7560   -0.0310   -0.5150 C   0  0  0  0  0  0  0  0  0  0  0  0
    5.9900    0.2380    0.2950 C   0  0  0  0  0  0  0  0  0  0  0  0
    6.3520    1.4070    0.7110 C   0  0  0  0  0  0  0  0  0  0  0  0
    7.5270    1.5390    1.4650 O   0  0  0  0  0  0  0  0  0  0  0  0
    6.8470   -0.8280    0.6540 O   0  0  0  0  0  0  0  0  0  0  0  0
    8.1510   -0.5970    0.4870 O   0  0  0  0  0  0  0  0  0  0  0  0
    3.8870    1.0800   -0.8370 C   0  0  0  0  0  0  0  0  0  0  0  0
    3.7220    1.9130    0.1540 O   0  0  0  0  0  0  0  0  0  0  0  0
    3.1810    1.4600   -1.9860 N   0  0  0  0  0  0  0  0  0  0  0  0
    2.2080    0.8150   -2.7670 C   0  0  0  0  0  0  0  0  0  0  0  0
    2.6140    0.5250   -3.9750 O   0  0  0  0  0  0  0  0  0  0  0  0
    0.8910    0.4130   -2.5370 N   0  0  0  0  0  0  0  0  0  0  0  0
   -0.0320    0.7010   -1.4720 C   0  0  1  0  0  0  0  0  0  0  0  0
    0.5190    1.3520   -0.2710 C   0  0  0  0  0  0  0  0  0  0  0  0
    0.7830    2.7120   -0.3410 O   0  0  0  0  0  0  0  0  0  0  0  0
   -0.2820    3.4490    0.1900 O   0  0  0  0  0  0  0  0  0  0  0  0
   -1.6660    3.0270   -0.0930 C   0  0  0  0  0  0  0  0  0  0  0  0
   -2.2930    3.1870    0.9820 N   0  0  0  0  0  0  0  0  0  0  0  0
   -1.9520    2.5800   -1.3860 N   0  0  0  0  0  0  0  0  0  0  0  0
   -1.1400    1.5650   -2.0500 C   0  0  0  0  0  0  0  0  0  0  0  0
   -1.4160    1.3970   -3.2720 O   0  0  0  0  0  0  0  0  0  0  0  0
   -0.7680   -0.5890   -1.1380 C   0  0  0  0  0  0  0  0  0  0  0  0
  1  2  1  0
  2  3  2  0
  2 39  1  0
  3  4  1  0
  4  5  2  0
  5  6  1  0
  6  7  1  0
  7  8  1  6
  7  9  1  0
  7 13  1  0
  9 10  1  0
 10 11  1  0
 11 12  2  0
 13 14  2  0
 13 15  1  0
 15 16  1  0
 15 43  1  0
 16 17  2  0
 17 18  1  0
 18 19  1  0
 18 20  2  0
 20 21  1  0
 21 22  2  0
 22 23  1  0
 22 28  1  0
 23 24  2  3
 23 26  1  0
 24 25  1  0
 26 27  1  0
 28 29  2  0
 28 30  1  0
 30 31  1  0
 31 32  2  0
 31 33  1  0
 33 34  1  0
 34 35  1  1
 34 41  1  0
 34 43  1  0
 35 36  1  0
 36 37  1  0
 37 38  1  0
 38 39  2  0
 38 40  1  0
 40 41  1  0
 41 42  2  0
M  END
