
     RDKit          3D

 44 46  0  0  0  0  0  0  0  0999 V2000
    7.8360   -1.1370   -0.0380 C   0  0  0  0  0  0  0  0  0  0  0  0
    6.7390   -0.6520   -0.8300 O   0  0  0  0  0  0  0  0  0  0  0  0
    5.6430   -0.1910   -0.1110 C   0  0  0  0  0  0  0  0  0  0  0  0
    5.7180   -0.1680    1.1690 O   0  0  0  0  0  0  0  0  0  0  0  0
    4.4720    0.1700   -0.7990 N   0  0  0  0  0  0  0  0  0  0  0  0
    4.4880    1.4720   -1.4280 C   0  0  0  0  0  0  0  0  0  0  0  0
    3.9950    2.3360   -0.1750 C   0  0  0  0  0  0  0  0  0  0  0  0
    3.8260    3.6420   -0.6150 N   0  0  0  0  0  0  0  0  0  0  0  0
    2.8660    4.6300   -0.3190 C   0  0  0  0  0  0  0  0  0  0  0  0
    3.2540    5.8310   -0.5090 O   0  0  0  0  0  0  0  0  0  0  0  0
    1.4520    4.4310    0.1610 C   0  0  0  0  0  0  0  0  0  0  0  0
    1.0190    3.4610    0.9130 C   0  0  0  0  0  0  0  0  0  0  0  0
    0.6760    2.3620    1.7250 C   0  0  0  0  0  0  0  0  0  0  0  0
    0.8130    1.5350    2.7540 N   0  0  0  0  0  0  0  0  0  0  0  0
   -0.1650    0.6660    2.8750 O   0  0  0  0  0  0  0  0  0  0  0  0
   -1.0440    0.7270    1.9960 C   0  0  0  0  0  0  0  0  0  0  0  0
   -0.4970    1.8440    1.2500 N   0  0  0  0  0  0  0  0  0  0  0  0
   -2.2790    0.4940    1.1540 C   0  0  0  0  0  0  0  0  0  0  0  0
   -2.9750    1.6520    1.0820 C   0  0  0  0  0  0  0  0  0  0  0  0
   -4.0710    2.3640    0.5510 C   0  0  0  0  0  0  0  0  0  0  0  0
   -2.9550    3.2860   -0.1110 O   0  0  0  0  0  0  0  0  0  0  0  0
   -3.4040    4.1770   -0.7610 O   0  0  0  0  0  0  0  0  0  0  0  0
   -2.9790   -0.5240    0.5040 C   0  0  1  0  0  0  0  0  0  0  0  0
   -4.3490   -0.6500    1.2020 C   0  0  0  0  0  0  0  0  0  0  0  0
   -5.0250   -1.7980    0.8920 O   0  0  0  0  0  0  0  0  0  0  0  0
   -2.9970   -0.3260   -0.8630 O   0  0  0  0  0  0  0  0  0  0  0  0
   -4.0180   -0.4730   -1.7910 C   0  0  0  0  0  0  0  0  0  0  0  0
   -5.1720   -0.7220   -1.1850 O   0  0  0  0  0  0  0  0  0  0  0  0
   -4.0860   -0.4170   -3.1270 O   0  0  0  0  0  0  0  0  0  0  0  0
   -2.3800   -1.9120    0.7210 C   0  0  0  0  0  0  0  0  0  0  0  0
   -2.5170   -2.2580    1.9390 O   0  0  0  0  0  0  0  0  0  0  0  0
   -1.6800   -2.6970   -0.2640 N   0  0  0  0  0  0  0  0  0  0  0  0
   -2.1830   -4.0480   -0.7190 C   0  0  0  0  0  0  0  0  0  0  0  0
   -2.3840   -4.9730    0.4490 C   0  0  0  0  0  0  0  0  0  0  0  0
   -3.5380   -4.3490    1.0680 O   0  0  0  0  0  0  0  0  0  0  0  0
   -4.6330   -5.0660    0.7460 O   0  0  0  0  0  0  0  0  0  0  0  0
   -0.6430   -2.2110   -1.0970 C   0  0  0  0  0  0  0  0  0  0  0  0
   -1.1250   -2.3440   -2.3980 O   0  0  0  0  0  0  0  0  0  0  0  0
    0.7000   -1.6650   -0.8150 C   0  0  0  0  0  0  0  0  0  0  0  0
    0.8600   -0.2750   -0.7880 C   0  0  0  0  0  0  0  0  0  0  0  0
    2.1230    0.1840   -0.7700 N   0  0  0  0  0  0  0  0  0  0  0  0
    3.2300   -0.5440   -0.7700 C   0  0  0  0  0  0  0  0  0  0  0  0
    3.0460   -1.8730   -0.7970 N   0  0  0  0  0  0  0  0  0  0  0  0
    1.8000   -2.4830   -0.8070 C   0  0  0  0  0  0  0  0  0  0  0  0
  1  2  1  0
  2  3  1  0
  3  4  2  0
  3  5  1  0
  5  6  1  0
  5 42  1  0
  6  7  1  0
  7  8  1  0
  8  9  1  0
  9 10  2  0
  9 11  1  0
 11 12  2  0
 12 13  1  0
 13 14  2  0
 13 17  1  0
 14 15  1  0
 15 16  1  0
 16 17  2  0
 16 18  1  0
 18 19  2  3
 18 23  1  0
 19 20  1  0
 20 21  1  0
 21 22  1  0
 23 24  1  1
 23 26  1  0
 23 30  1  0
 24 25  1  0
 26 27  1  0
 27 28  2  0
 27 29  1  0
 30 31  2  0
 30 32  1  0
 32 33  1  0
 32 37  1  0
 33 34  1  0
 34 35  1  0
 35 36  1  0
 37 38  2  0
 37 39  1  0
 39 40  2  0
 39 44  1  0
 40 41  1  0
 41 42  2  0
 42 43  1  0
 43 44  2  0
M  END
