
     RDKit          3D

 43 45  0  0  0  0  0  0  0  0999 V2000
    6.0270    1.0920    1.6950 N   0  0  0  0  0  0  0  0  0  0  0  0
    6.1150    1.7530    0.4400 C   0  0  0  0  0  0  0  0  0  0  0  0
    6.2580    2.9910    0.3470 O   0  0  0  0  0  0  0  0  0  0  0  0
    6.0350    0.9520   -0.8320 C   0  0  2  0  0  0  0  0  0  0  0  0
    4.7100    0.2600   -0.8370 C   0  0  0  0  0  0  0  0  0  0  0  0
    3.5720    1.2120   -0.7900 C   0  0  0  0  0  0  0  0  0  0  0  0
    3.8430    2.4370   -0.7500 O   0  0  0  0  0  0  0  0  0  0  0  0
    2.2190    0.7760   -0.7890 N   0  0  0  0  0  0  0  0  0  0  0  0
    1.1580    1.7920   -0.7400 C   0  0  0  0  0  0  0  0  0  0  0  0
    0.2080    1.3380    0.3400 C   0  0  1  0  0  0  0  0  0  0  0  0
   -1.0060    2.2050    0.4840 C   0  0  0  0  0  0  0  0  0  0  0  0
   -1.9180    2.1800   -0.6650 C   0  0  0  0  0  0  0  0  0  0  0  0
   -1.6150    2.9690   -1.5770 O   0  0  0  0  0  0  0  0  0  0  0  0
   -3.1190    1.3240   -0.8130 C   0  0  0  0  0  0  0  0  0  0  0  0
   -3.9510    1.2130    0.3360 N   0  0  0  0  0  0  0  0  0  0  0  0
   -4.7730    2.3440    0.6650 C   0  0  0  0  0  0  0  0  0  0  0  0
   -5.5450    2.3230    1.6830 O   0  0  0  0  0  0  0  0  0  0  0  0
   -4.7900    3.5370   -0.0950 N   0  0  0  0  0  0  0  0  0  0  0  0
   -5.6250    4.6530    0.2630 C   0  0  0  0  0  0  0  0  0  0  0  0
   -6.3650    4.5820    1.2750 O   0  0  0  0  0  0  0  0  0  0  0  0
   -5.6400    5.8230   -0.4820 O   0  0  0  0  0  0  0  0  0  0  0  0
   -4.0250    0.0480    1.1880 C   0  0  0  0  0  0  0  0  0  0  0  0
   -4.2530   -1.2510    0.4440 C   0  0  0  0  0  0  0  0  0  0  0  0
   -3.7700   -2.2850    1.2400 O   0  0  0  0  0  0  0  0  0  0  0  0
   -3.6480   -3.6250    1.0180 C   0  0  0  0  0  0  0  0  0  0  0  0
   -4.3130   -4.4650    1.7420 O   0  0  0  0  0  0  0  0  0  0  0  0
   -2.8090   -4.2650    0.0060 C   0  0  0  0  0  0  0  0  0  0  0  0
   -3.2590   -5.3790   -0.5510 C   0  0  0  0  0  0  0  0  0  0  0  0
   -2.4550   -5.9920   -1.5220 O   0  0  0  0  0  0  0  0  0  0  0  0
   -1.4950   -3.7130   -0.4010 C   0  0  0  0  0  0  0  0  0  0  0  0
   -1.0080   -2.5920    0.1280 N   0  0  0  0  0  0  0  0  0  0  0  0
    0.1860   -2.3260   -0.4160 C   0  0  0  0  0  0  0  0  0  0  0  0
    0.3670   -3.3300   -1.2720 N   0  0  0  0  0  0  0  0  0  0  0  0
   -0.6290   -4.1500   -1.2610 O   0  0  0  0  0  0  0  0  0  0  0  0
    0.8530   -1.0950    0.0800 C   0  0  2  0  0  0  0  0  0  0  0  0
    1.2820   -1.3280    1.4550 C   0  0  0  0  0  0  0  0  0  0  0  0
    0.8340   -0.6200    2.3860 O   0  0  0  0  0  0  0  0  0  0  0  0
    2.1850   -2.3240    1.7870 O   0  0  0  0  0  0  0  0  0  0  0  0
   -0.2400   -0.0280   -0.0320 C   0  0  0  0  0  0  0  0  0  0  0  0
    1.9530   -0.6260   -0.8350 C   0  0  0  0  0  0  0  0  0  0  0  0
    7.0990   -0.0750   -0.7910 C   0  0  0  0  0  0  0  0  0  0  0  0
    7.1200   -1.0420    0.2430 N   0  0  0  0  0  0  0  0  0  0  0  0
    7.9940   -0.1090   -1.6640 O   0  0  0  0  0  0  0  0  0  0  0  0
  1  2  1  0
  2  3  2  0
  2  4  1  0
  4  5  1  1
  4 41  1  0
  5  6  1  0
  6  7  2  0
  6  8  1  0
  8  9  1  0
  8 40  1  0
 10  9  1  6
 10 11  1  0
 10 39  1  0
 11 12  1  0
 12 13  2  0
 12 14  1  0
 14 15  1  0
 15 16  1  0
 15 22  1  0
 16 17  2  0
 16 18  1  0
 18 19  1  0
 19 20  2  0
 19 21  1  0
 22 23  1  0
 23 24  1  0
 24 25  1  0
 25 26  2  0
 25 27  1  0
 27 28  2  3
 27 30  1  0
 28 29  1  0
 30 31  2  0
 30 34  1  0
 31 32  1  0
 32 33  2  0
 32 35  1  0
 33 34  1  0
 35 36  1  1
 35 39  1  0
 35 40  1  0
 36 37  2  0
 36 38  1  0
 41 42  1  0
 41 43  2  0
M  END
