
     RDKit          3D

 43 45  0  0  0  0  0  0  0  0999 V2000
    4.6190    1.2870   -2.1240 C   0  0  0  0  0  0  0  0  0  0  0  0
    5.2510    1.5980   -0.7850 C   0  0  1  0  0  0  0  0  0  0  0  0
    5.7970    2.9000   -0.8820 O   0  0  0  0  0  0  0  0  0  0  0  0
    4.2180    1.5620    0.3160 C   0  0  0  0  0  0  0  0  0  0  0  0
    3.5960    0.3110    0.5400 N   0  0  0  0  0  0  0  0  0  0  0  0
    4.2900   -0.8510    1.0510 C   0  0  0  0  0  0  0  0  0  0  0  0
    4.7060   -0.6510    2.4980 C   0  0  0  0  0  0  0  0  0  0  0  0
    5.3770   -1.7760    2.9790 O   0  0  0  0  0  0  0  0  0  0  0  0
    2.1900    0.1620    0.2720 C   0  0  0  0  0  0  0  0  0  0  0  0
    1.7890   -0.5560   -0.6620 N   0  0  0  0  0  0  0  0  0  0  0  0
    0.4480   -0.8520   -1.1180 C   0  0  0  0  0  0  0  0  0  0  0  0
   -0.4650   -0.0630   -0.8870 N   0  0  0  0  0  0  0  0  0  0  0  0
   -1.2520    0.8630   -0.5540 N   0  0  0  0  0  0  0  0  0  0  0  0
   -2.5530    0.9220   -0.4630 C   0  0  0  0  0  0  0  0  0  0  0  0
   -3.0550    2.2090   -0.0270 N   0  0  0  0  0  0  0  0  0  0  0  0
   -2.1600    3.2490    0.4930 C   0  0  0  0  0  0  0  0  0  0  0  0
   -2.9600    4.4760    0.8570 C   0  0  0  0  0  0  0  0  0  0  0  0
   -2.1460    5.4910    1.3580 O   0  0  0  0  0  0  0  0  0  0  0  0
   -2.9550    6.5010    1.6330 O   0  0  0  0  0  0  0  0  0  0  0  0
   -3.4750   -0.1660   -0.7520 C   0  0  0  0  0  0  0  0  0  0  0  0
   -4.3110    0.0280   -1.7970 C   0  0  0  0  0  0  0  0  0  0  0  0
   -4.4130    1.1430   -2.6690 C   0  0  0  0  0  0  0  0  0  0  0  0
   -3.6780    2.1440   -2.6000 O   0  0  0  0  0  0  0  0  0  0  0  0
   -5.3980    1.1490   -3.6880 O   0  0  0  0  0  0  0  0  0  0  0  0
   -3.5200   -1.4220   -0.0750 N   0  0  0  0  0  0  0  0  0  0  0  0
   -2.9270   -1.9460    1.0710 C   0  0  2  0  0  0  0  0  0  0  0  0
   -2.1390   -1.1010    1.9970 C   0  0  0  0  0  0  0  0  0  0  0  0
   -0.7530   -1.7050    2.2720 C   0  0  0  0  0  0  0  0  0  0  0  0
    0.2320   -0.6840    2.7960 C   0  0  0  0  0  0  0  0  0  0  0  0
    0.2910    0.3860    1.9350 O   0  0  0  0  0  0  0  0  0  0  0  0
    1.3020    0.8740    1.1650 C   0  0  0  0  0  0  0  0  0  0  0  0
    1.4740    2.1550    1.2640 O   0  0  0  0  0  0  0  0  0  0  0  0
   -2.1130   -3.1780    0.7510 C   0  0  0  0  0  0  0  0  0  0  0  0
   -1.9500   -3.9280    1.7490 O   0  0  0  0  0  0  0  0  0  0  0  0
   -1.6300   -3.4330   -0.4400 O   0  0  0  0  0  0  0  0  0  0  0  0
   -1.9730   -3.8310   -1.6950 C   0  0  0  0  0  0  0  0  0  0  0  0
   -0.8720   -3.8730   -2.7040 C   0  0  2  0  0  0  0  0  0  0  0  0
    0.3600   -4.4270   -2.1860 O   0  0  0  0  0  0  0  0  0  0  0  0
    0.7780   -3.3860   -1.3090 C   0  0  0  0  0  0  0  0  0  0  0  0
    1.4680   -3.6350   -0.2920 O   0  0  0  0  0  0  0  0  0  0  0  0
    0.2650   -2.1230   -1.8270 N   0  0  0  0  0  0  0  0  0  0  0  0
   -0.4200   -2.4270   -2.9800 C   0  0  0  0  0  0  0  0  0  0  0  0
   -0.7970   -2.0000   -4.1170 O   0  0  0  0  0  0  0  0  0  0  0  0
  2  1  1  6
  2  3  1  0
  2  4  1  0
  4  5  1  0
  5  6  1  0
  5  9  1  0
  6  7  1  0
  7  8  1  0
  9 10  2  0
  9 31  1  0
 10 11  1  0
 11 12  2  0
 11 41  1  0
 12 13  1  0
 13 14  2  0
 14 15  1  0
 14 20  1  0
 15 16  1  0
 16 17  1  0
 17 18  1  0
 18 19  1  0
 20 21  2  3
 20 25  1  0
 21 22  1  0
 22 23  2  0
 22 24  1  0
 25 26  1  0
 26 27  1  6
 26 33  1  0
 27 28  1  0
 28 29  1  0
 29 30  1  0
 30 31  1  0
 31 32  2  0
 33 34  2  0
 33 35  1  0
 35 36  1  0
 37 36  1  1
 37 38  1  0
 37 42  1  0
 38 39  1  0
 39 40  2  0
 39 41  1  0
 41 42  1  0
 42 43  2  0
M  END
