
     RDKit          3D

 43 45  0  0  0  0  0  0  0  0999 V2000
    6.2970    0.2390   -0.8930 C   0  0  0  0  0  0  0  0  0  0  0  0
    5.6130   -0.5180    0.2310 C   0  0  1  0  0  0  0  0  0  0  0  0
    6.5120   -1.5830    0.7680 C   0  0  0  0  0  0  0  0  0  0  0  0
    5.4310    0.5180    1.3500 C   0  0  0  0  0  0  0  0  0  0  0  0
    4.3520   -1.0090   -0.1870 O   0  0  0  0  0  0  0  0  0  0  0  0
    3.3920   -0.0840   -0.5710 C   0  0  0  0  0  0  0  0  0  0  0  0
    3.6850    1.1470   -0.5210 O   0  0  0  0  0  0  0  0  0  0  0  0
    2.0800   -0.4260   -1.0240 N   0  0  0  0  0  0  0  0  0  0  0  0
    1.7060   -1.8400   -1.0700 C   0  0  0  0  0  0  0  0  0  0  0  0
    2.5600   -2.5200   -1.7980 O   0  0  0  0  0  0  0  0  0  0  0  0
    0.6170   -2.5230   -0.4760 N   0  0  0  0  0  0  0  0  0  0  0  0
    0.5030   -3.1280    0.8360 C   0  0  0  0  0  0  0  0  0  0  0  0
   -0.0250   -2.4770    1.8430 O   0  0  0  0  0  0  0  0  0  0  0  0
    0.9000   -4.4230    1.2540 N   0  0  0  0  0  0  0  0  0  0  0  0
    0.5120   -5.7070    0.6940 C   0  0  0  0  0  0  0  0  0  0  0  0
   -1.0120   -5.8110    0.4830 C   0  0  0  0  0  0  0  0  0  0  0  0
   -1.4310   -4.4870    0.4750 O   0  0  0  0  0  0  0  0  0  0  0  0
   -2.5970   -4.2210    1.1310 C   0  0  0  0  0  0  0  0  0  0  0  0
   -3.2390   -2.9440    0.6320 C   0  0  0  0  0  0  0  0  0  0  0  0
   -3.9480   -3.1490   -0.5690 O   0  0  0  0  0  0  0  0  0  0  0  0
   -3.1720   -1.8740    1.1730 N   0  0  0  0  0  0  0  0  0  0  0  0
   -2.8540   -0.9100    2.0700 C   0  0  0  0  0  0  0  0  0  0  0  0
   -2.5320   -1.0790    3.3240 O   0  0  0  0  0  0  0  0  0  0  0  0
   -2.8290    0.4280    1.7610 O   0  0  0  0  0  0  0  0  0  0  0  0
   -3.2450    1.2330    0.7460 C   0  0  2  0  0  0  0  0  0  0  0  0
   -3.5080    0.4910   -0.5520 C   0  0  0  0  0  0  0  0  0  0  0  0
   -2.2330    0.0160   -1.1880 C   0  0  0  0  0  0  0  0  0  0  0  0
   -1.1760    0.8990   -0.7320 N   0  0  0  0  0  0  0  0  0  0  0  0
    0.0920    0.5290   -0.3420 C   0  0  0  0  0  0  0  0  0  0  0  0
    0.5950    0.1020    0.7300 O   0  0  0  0  0  0  0  0  0  0  0  0
    1.2090    0.6360   -1.3960 C   0  0  1  0  0  0  0  0  0  0  0  0
    1.5420    2.0430   -1.3000 C   0  0  0  0  0  0  0  0  0  0  0  0
    0.4350    2.7470   -1.8610 O   0  0  0  0  0  0  0  0  0  0  0  0
   -0.4910    3.2520   -1.0060 C   0  0  0  0  0  0  0  0  0  0  0  0
   -1.6950    2.3180   -0.8360 C   0  0  2  0  0  0  0  0  0  0  0  0
   -2.3870    2.4580    0.5030 C   0  0  1  0  0  0  0  0  0  0  0  0
   -2.9140    3.6810    0.8200 N   0  0  0  0  0  0  0  0  0  0  0  0
   -3.4850    4.6400   -0.1860 C   0  0  0  0  0  0  0  0  0  0  0  0
   -3.5030    4.2040   -1.2920 O   0  0  0  0  0  0  0  0  0  0  0  0
   -3.8250    5.7870    0.4930 N   0  0  0  0  0  0  0  0  0  0  0  0
   -4.3050    6.6600   -0.9290 C   0  0  0  0  0  0  0  0  0  0  0  0
   -4.2190    6.0770   -1.9180 O   0  0  0  0  0  0  0  0  0  0  0  0
   -4.7050    7.9080   -0.5830 O   0  0  0  0  0  0  0  0  0  0  0  0
  2  1  1  6
  2  3  1  0
  2  4  1  0
  2  5  1  0
  5  6  1  0
  6  7  2  0
  6  8  1  0
  8  9  1  0
  8 31  1  0
  9 10  2  0
  9 11  1  0
 11 12  1  0
 12 13  2  0
 12 14  1  0
 14 15  1  0
 15 16  1  0
 16 17  1  0
 17 18  1  0
 18 19  1  0
 19 20  1  0
 19 21  2  0
 21 22  1  0
 22 23  2  0
 22 24  1  0
 25 24  1  1
 25 26  1  0
 25 36  1  0
 26 27  1  0
 27 28  1  0
 28 29  1  0
 28 35  1  0
 29 30  2  0
 29 31  1  0
 31 32  1  1
 32 33  1  0
 33 34  1  0
 35 34  1  1
 35 36  1  0
 36 37  1  6
 37 38  1  0
 38 39  2  0
 38 40  1  0
 40 41  1  0
 41 42  2  0
 41 43  1  0
M  END
