
     RDKit          3D

 44 48  0  0  0  0  0  0  0  0999 V2000
   11.1900    2.7570    0.4070 N   0  0  0  0  0  0  0  0  0  0  0  0
   10.4090    1.6130    0.7130 C   0  0  0  0  0  0  0  0  0  0  0  0
   10.8110    0.8030    1.5880 O   0  0  0  0  0  0  0  0  0  0  0  0
    9.1680    1.3990    0.0160 C   0  0  0  0  0  0  0  0  0  0  0  0
    8.4360    0.3390    0.2940 C   0  0  0  0  0  0  0  0  0  0  0  0
    7.1920    0.0530   -0.3510 N   0  0  0  0  0  0  0  0  0  0  0  0
    6.4810   -1.1250    0.0290 C   0  0  2  0  0  0  0  0  0  0  0  0
    5.2240   -1.1880   -0.5640 O   0  0  0  0  0  0  0  0  0  0  0  0
    4.5000   -2.1390    0.1150 C   0  0  2  0  0  0  0  0  0  0  0  0
    3.0580   -1.6370    0.2110 C   0  0  0  0  0  0  0  0  0  0  0  0
    2.5450   -1.4580   -1.0500 O   0  0  0  0  0  0  0  0  0  0  0  0
    0.9550   -0.9040   -0.9200 P   0  0  2  0  0  0  0  0  0  0  0  0
    0.8590    0.3510   -1.7830 O   0  0  0  0  0  0  0  0  0  0  0  0
    0.6060   -0.4720    0.6550 O   0  0  0  0  0  0  0  0  0  0  0  0
   -0.0570   -2.1080   -1.5200 O   0  0  0  0  0  0  0  0  0  0  0  0
   -1.3680   -2.4230   -0.5270 P   0  0  1  0  0  0  0  0  0  0  0  0
   -1.3880   -3.9300   -0.2740 O   0  0  0  0  0  0  0  0  0  0  0  0
   -1.2690   -1.6640    0.9660 O   0  0  0  0  0  0  0  0  0  0  0  0
   -2.8270   -1.9560   -1.2570 O   0  0  0  0  0  0  0  0  0  0  0  0
   -3.7220   -1.6340   -0.2420 C   0  0  0  0  0  0  0  0  0  0  0  0
   -5.0400   -1.2120   -0.8700 C   0  0  1  0  0  0  0  0  0  0  0  0
   -5.9800   -0.8760    0.0780 O   0  0  0  0  0  0  0  0  0  0  0  0
   -6.8870   -0.0550   -0.5920 C   0  0  1  0  0  0  0  0  0  0  0  0
   -7.7650    0.6380    0.3270 N   0  0  0  0  0  0  0  0  0  0  0  0
   -7.6020    0.9400    1.6190 C   0  0  0  0  0  0  0  0  0  0  0  0
   -8.7020    1.6040    2.0750 N   0  0  0  0  0  0  0  0  0  0  0  0
   -9.5600    1.7170    1.0590 C   0  0  0  0  0  0  0  0  0  0  0  0
  -10.8130    2.2900    0.9560 C   0  0  0  0  0  0  0  0  0  0  0  0
  -11.4590    2.9210    2.0420 N   0  0  0  0  0  0  0  0  0  0  0  0
  -11.4810    2.2650   -0.2220 N   0  0  0  0  0  0  0  0  0  0  0  0
  -10.8970    1.6730   -1.2760 C   0  0  0  0  0  0  0  0  0  0  0  0
   -9.6680    1.1090   -1.1850 N   0  0  0  0  0  0  0  0  0  0  0  0
   -8.9720    1.1130   -0.0330 C   0  0  0  0  0  0  0  0  0  0  0  0
   -5.9580    0.9020   -1.3080 C   0  0  2  0  0  0  0  0  0  0  0  0
   -6.5910    1.5300   -2.3780 O   0  0  0  0  0  0  0  0  0  0  0  0
   -4.8800   -0.0610   -1.8050 C   0  0  2  0  0  0  0  0  0  0  0  0
   -5.3000   -0.4590   -3.0950 O   0  0  0  0  0  0  0  0  0  0  0  0
    5.0370   -2.2290    1.5110 C   0  0  1  0  0  0  0  0  0  0  0  0
    5.7340   -3.4360    1.6330 O   0  0  0  0  0  0  0  0  0  0  0  0
    6.1040   -1.1310    1.5110 C   0  0  1  0  0  0  0  0  0  0  0  0
    7.1720   -1.4610    2.3120 O   0  0  0  0  0  0  0  0  0  0  0  0
    6.6990    0.9280   -1.3370 C   0  0  0  0  0  0  0  0  0  0  0  0
    7.4190    1.9960   -1.6300 C   0  0  0  0  0  0  0  0  0  0  0  0
    8.6980    2.3520   -1.0110 C   0  0  0  0  0  0  0  0  0  0  0  0
  1  2  1  0
  2  3  2  0
  2  4  1  0
  4  5  2  0
  4 44  1  0
  5  6  1  0
  7  6  1  6
  6 42  1  0
  7  8  1  0
  7 40  1  0
  8  9  1  0
  9 10  1  1
  9 38  1  0
 10 11  1  0
 11 12  1  0
 12 13  2  0
 12 14  1  1
 12 15  1  0
 15 16  1  0
 16 17  2  0
 16 18  1  1
 16 19  1  0
 19 20  1  0
 21 20  1  1
 21 22  1  0
 21 36  1  0
 22 23  1  0
 23 24  1  1
 23 34  1  0
 24 25  1  0
 24 33  1  0
 25 26  2  0
 26 27  1  0
 27 28  2  0
 27 33  1  0
 28 29  1  0
 28 30  1  0
 30 31  2  0
 31 32  1  0
 32 33  2  0
 34 35  1  6
 34 36  1  0
 36 37  1  6
 38 39  1  6
 38 40  1  0
 40 41  1  1
 42 43  2  0
 43 44  1  0
M  END
