
     RDKit          3D

 43 45  0  0  0  0  0  0  0  0999 V2000
   -4.0020    2.1780   -2.2920 O   0  0  0  0  0  0  0  0  0  0  0  0
   -2.8020    2.4070   -1.8360 C   0  0  0  0  0  0  0  0  0  0  0  0
   -2.5970    3.7440   -1.3940 N   0  0  0  0  0  0  0  0  0  0  0  0
   -1.6110    4.6910   -1.8130 C   0  0  0  0  0  0  0  0  0  0  0  0
   -0.4430    4.7910   -0.8570 C   0  0  0  0  0  0  0  0  0  0  0  0
    0.7830    4.7230   -1.4650 O   0  0  0  0  0  0  0  0  0  0  0  0
    0.9550    3.7240   -2.3870 C   0  0  0  0  0  0  0  0  0  0  0  0
    0.5100    2.4580   -2.0110 O   0  0  0  0  0  0  0  0  0  0  0  0
    1.3850    1.4450   -1.8010 N   0  0  0  0  0  0  0  0  0  0  0  0
    1.1860    0.2620   -1.3920 C   0  0  0  0  0  0  0  0  0  0  0  0
    2.1780   -0.7010   -1.2120 N   0  0  0  0  0  0  0  0  0  0  0  0
    3.2110   -0.8260   -0.5410 C   0  0  0  0  0  0  0  0  0  0  0  0
    3.6850    0.1770    0.3560 N   0  0  0  0  0  0  0  0  0  0  0  0
    2.8470    0.9160    1.2500 C   0  0  0  0  0  0  0  0  0  0  0  0
    2.2460    0.0950    2.3660 C   0  0  0  0  0  0  0  0  0  0  0  0
    3.2360   -0.4800    3.1550 O   0  0  0  0  0  0  0  0  0  0  0  0
    2.6480   -1.1860    4.1000 O   0  0  0  0  0  0  0  0  0  0  0  0
    4.0170   -2.0560   -0.6720 C   0  0  0  0  0  0  0  0  0  0  0  0
    3.6200   -2.9510   -1.4680 O   0  0  0  0  0  0  0  0  0  0  0  0
    5.1990   -2.2990    0.0280 N   0  0  0  0  0  0  0  0  0  0  0  0
    5.9630   -3.5400   -0.1430 C   0  0  0  0  0  0  0  0  0  0  0  0
    7.1950   -3.4760    0.7530 C   0  0  0  0  0  0  0  0  0  0  0  0
    7.9640   -2.3810    0.3790 O   0  0  0  0  0  0  0  0  0  0  0  0
    9.0340   -2.3000    1.1320 O   0  0  0  0  0  0  0  0  0  0  0  0
   -0.1990   -0.1870   -1.1030 C   0  0  1  0  0  0  0  0  0  0  0  0
   -0.1410   -1.1120   -0.0370 O   0  0  0  0  0  0  0  0  0  0  0  0
    0.1660   -2.4510   -0.1540 C   0  0  0  0  0  0  0  0  0  0  0  0
    1.0530   -2.9390    0.6420 O   0  0  0  0  0  0  0  0  0  0  0  0
   -0.3870   -3.3640   -1.0610 N   0  0  0  0  0  0  0  0  0  0  0  0
   -1.7600   -3.5150   -1.4450 C   0  0  0  0  0  0  0  0  0  0  0  0
   -2.6340   -3.5630   -0.2110 C   0  0  0  0  0  0  0  0  0  0  0  0
   -3.9070   -3.1040   -0.4380 O   0  0  0  0  0  0  0  0  0  0  0  0
   -4.2670   -2.2710    0.6220 C   0  0  0  0  0  0  0  0  0  0  0  0
   -4.7320   -0.9100    0.1260 C   0  0  0  0  0  0  0  0  0  0  0  0
   -4.3650    0.2020    1.0440 C   0  0  2  0  0  0  0  0  0  0  0  0
   -5.5700    1.1350    1.2340 C   0  0  0  0  0  0  0  0  0  0  0  0
   -5.2830    1.8830    2.3820 O   0  0  0  0  0  0  0  0  0  0  0  0
   -4.2260    2.7120    2.0630 C   0  0  0  0  0  0  0  0  0  0  0  0
   -2.9890    2.0010    1.6310 C   0  0  0  0  0  0  0  0  0  0  0  0
   -3.2660    1.0320    0.5980 N   0  0  0  0  0  0  0  0  0  0  0  0
   -2.1460    0.2040    0.2750 C   0  0  0  0  0  0  0  0  0  0  0  0
   -1.1560    0.9020   -0.6830 C   0  0  2  0  0  0  0  0  0  0  0  0
   -1.8650    1.3960   -1.8150 O   0  0  0  0  0  0  0  0  0  0  0  0
  1  2  2  0
  2  3  1  0
  2 43  1  0
  3  4  1  0
  4  5  1  0
  5  6  1  0
  6  7  1  0
  7  8  1  0
  8  9  1  0
  9 10  2  0
 10 11  1  0
 10 25  1  0
 11 12  2  3
 12 13  1  0
 12 18  1  0
 13 14  1  0
 14 15  1  0
 15 16  1  0
 16 17  1  0
 18 19  2  0
 18 20  1  0
 20 21  1  0
 21 22  1  0
 22 23  1  0
 23 24  1  0
 25 26  1  1
 25 42  1  0
 26 27  1  0
 27 28  2  0
 27 29  1  0
 29 30  1  0
 30 31  1  0
 31 32  1  0
 32 33  1  0
 33 34  1  0
 35 34  1  6
 35 36  1  0
 35 40  1  0
 36 37  1  0
 37 38  1  0
 38 39  1  0
 39 40  1  0
 40 41  1  0
 42 41  1  1
 42 43  1  0
M  END
