
     RDKit          3D

 20 19  0  0  0  0  0  0  0  0999 V2000
   -2.9760   -1.9930    1.6110 N   0  0  0  0  0  0  0  0  0  0  0  0
   -2.3230   -0.7570    1.3200 C   0  0  0  0  0  0  0  0  0  0  0  0
   -1.8170   -0.0950    2.2600 O   0  0  0  0  0  0  0  0  0  0  0  0
   -2.2530   -0.2830   -0.0480 C   0  0  0  0  0  0  0  0  0  0  0  0
   -2.7840   -0.9950   -1.0100 C   0  0  0  0  0  0  0  0  0  0  0  0
   -3.5870   -2.5350   -0.6280 S   0  0  0  0  0  0  0  0  0  0  0  0
   -1.5710    1.0240   -0.3100 C   0  0  2  0  0  0  0  0  0  0  0  0
   -2.3030    2.1550    0.3920 C   0  0  0  0  0  0  0  0  0  0  0  0
   -3.5880    2.2790   -0.1200 O   0  0  0  0  0  0  0  0  0  0  0  0
   -1.4720    1.3490   -1.7670 C   0  0  0  0  0  0  0  0  0  0  0  0
   -0.7730    2.5690   -1.8620 O   0  0  0  0  0  0  0  0  0  0  0  0
   -0.2380    0.9060    0.2380 N   0  0  0  0  0  0  0  0  0  0  0  0
    0.6410   -0.1110   -0.2160 C   0  0  0  0  0  0  0  0  0  0  0  0
    0.3010   -0.9530   -1.1060 O   0  0  0  0  0  0  0  0  0  0  0  0
    1.9630   -0.2130    0.3330 N   0  0  0  0  0  0  0  0  0  0  0  0
    2.8260   -1.2640   -0.1600 C   0  0  0  0  0  0  0  0  0  0  0  0
    4.1790   -1.2360    0.5160 C   0  0  0  0  0  0  0  0  0  0  0  0
    4.8230    0.0010    0.2790 O   0  0  0  0  0  0  0  0  0  0  0  0
    6.0790    0.2400    0.8090 C   0  0  0  0  0  0  0  0  0  0  0  0
    6.6110   -0.6700    1.4940 O   0  0  0  0  0  0  0  0  0  0  0  0
  1  2  1  0
  2  3  2  0
  2  4  1  0
  4  5  2  3
  4  7  1  0
  5  6  1  0
  7  8  1  1
  7 10  1  0
  7 12  1  0
  8  9  1  0
 10 11  1  0
 12 13  1  0
 13 14  2  0
 13 15  1  0
 15 16  1  0
 16 17  1  0
 17 18  1  0
 18 19  1  0
 19 20  2  0
M  END
