
     RDKit          3D

 20 19  0  0  0  0  0  0  0  0999 V2000
    5.5170    1.8950    0.3560 N   0  0  0  0  0  0  0  0  0  0  0  0
    4.6250    0.8190    0.8260 C   0  0  1  0  0  0  0  0  0  0  0  0
    3.2980    0.9700    0.1530 C   0  0  0  0  0  0  0  0  0  0  0  0
    2.3060   -0.0710    0.5680 C   0  0  0  0  0  0  0  0  0  0  0  0
    1.0110    0.1800   -0.1480 C   0  0  0  0  0  0  0  0  0  0  0  0
    0.9710    1.1570   -0.9270 O   0  0  0  0  0  0  0  0  0  0  0  0
   -0.1050   -0.6680    0.0650 N   0  0  0  0  0  0  0  0  0  0  0  0
   -1.3270   -0.3730   -0.6550 C   0  0  1  0  0  0  0  0  0  0  0  0
   -1.6680   -1.6180   -1.4580 C   0  0  0  0  0  0  0  0  0  0  0  0
   -1.8970   -2.9950   -0.3050 S   0  0  0  0  0  0  0  0  0  0  0  0
   -2.4610   -0.1290    0.2780 C   0  0  0  0  0  0  0  0  0  0  0  0
   -2.3670   -0.1740    1.5160 O   0  0  0  0  0  0  0  0  0  0  0  0
   -3.7280    0.1740   -0.3110 N   0  0  0  0  0  0  0  0  0  0  0  0
   -4.9060    0.4300    0.4860 C   0  0  0  0  0  0  0  0  0  0  0  0
   -6.0450    0.7090   -0.4060 C   0  0  0  0  0  0  0  0  0  0  0  0
   -5.8970    0.6980   -1.6720 O   0  0  0  0  0  0  0  0  0  0  0  0
   -7.3000    0.9890    0.0700 O   0  0  0  0  0  0  0  0  0  0  0  0
    5.2570   -0.4510    0.4880 C   0  0  0  0  0  0  0  0  0  0  0  0
    4.8070   -1.5680    0.8570 O   0  0  0  0  0  0  0  0  0  0  0  0
    6.4210   -0.4570   -0.2840 O   0  0  0  0  0  0  0  0  0  0  0  0
  2  1  1  6
  2  3  1  0
  2 18  1  0
  3  4  1  0
  4  5  1  0
  5  6  2  0
  5  7  1  0
  7  8  1  0
  8  9  1  6
  8 11  1  0
  9 10  1  0
 11 12  2  0
 11 13  1  0
 13 14  1  0
 14 15  1  0
 15 16  2  0
 15 17  1  0
 18 19  2  0
 18 20  1  0
M  END
