
     RDKit          3D

 20 19  0  0  0  0  0  0  0  0999 V2000
   -2.9150    1.6520   -0.4610 C   0  0  0  0  0  0  0  0  0  0  0  0
   -3.2250    0.3830    0.3420 C   0  0  2  0  0  0  0  0  0  0  0  0
   -3.1200    0.7720    1.7870 C   0  0  0  0  0  0  0  0  0  0  0  0
   -3.4930   -0.3160    2.5790 O   0  0  0  0  0  0  0  0  0  0  0  0
   -2.4320   -0.6940   -0.0780 N   0  0  0  0  0  0  0  0  0  0  0  0
   -0.9930   -0.6630   -0.0140 C   0  0  0  0  0  0  0  0  0  0  0  0
   -0.5340    0.4140    0.4510 O   0  0  0  0  0  0  0  0  0  0  0  0
   -0.1830   -1.8130   -0.4650 C   0  0  0  0  0  0  0  0  0  0  0  0
    1.1470   -1.5810   -0.3780 O   0  0  0  0  0  0  0  0  0  0  0  0
    1.6830   -0.5800   -1.1370 C   0  0  0  0  0  0  0  0  0  0  0  0
    3.1600   -0.4500   -0.9410 C   0  0  0  0  0  0  0  0  0  0  0  0
    3.7480    0.4410   -1.5930 O   0  0  0  0  0  0  0  0  0  0  0  0
    3.9020   -1.2470   -0.0930 O   0  0  0  0  0  0  0  0  0  0  0  0
    5.2920   -1.0400    0.0170 C   0  0  0  0  0  0  0  0  0  0  0  0
    5.6320    0.3080    0.4870 C   0  0  0  0  0  0  0  0  0  0  0  0
    6.9820    0.7030    0.6600 N   0  0  0  0  0  0  0  0  0  0  0  0
    4.7320    1.1430    0.7480 O   0  0  0  0  0  0  0  0  0  0  0  0
   -4.6530    0.0840    0.0890 C   0  0  0  0  0  0  0  0  0  0  0  0
   -5.6480    1.0250    0.4390 N   0  0  0  0  0  0  0  0  0  0  0  0
   -5.0710   -1.3280   -0.5920 S   0  0  0  0  0  0  0  0  0  0  0  0
  2  1  1  6
  2  3  1  0
  2  5  1  0
  2 18  1  0
  3  4  1  0
  5  6  1  0
  6  7  2  0
  6  8  1  0
  8  9  1  0
  9 10  1  0
 10 11  1  0
 11 12  2  0
 11 13  1  0
 13 14  1  0
 14 15  1  0
 15 16  1  0
 15 17  2  0
 18 19  1  0
 18 20  2  0
M  END
