
     RDKit          3D

 20 19  0  0  0  0  0  0  0  0999 V2000
   -4.2400   -1.6350   -0.6800 C   0  0  0  0  0  0  0  0  0  0  0  0
   -3.0500   -0.7130   -0.4410 C   0  0  1  0  0  0  0  0  0  0  0  0
   -3.2070   -0.1730    0.9660 C   0  0  0  0  0  0  0  0  0  0  0  0
   -4.3850    0.5670    0.9970 O   0  0  0  0  0  0  0  0  0  0  0  0
   -1.8490   -1.5020   -0.5830 N   0  0  0  0  0  0  0  0  0  0  0  0
   -0.5440   -0.9620   -0.4250 C   0  0  0  0  0  0  0  0  0  0  0  0
   -0.4230    0.2610   -0.1490 O   0  0  0  0  0  0  0  0  0  0  0  0
    0.6780   -1.8180   -0.5810 C   0  0  0  0  0  0  0  0  0  0  0  0
    1.8800   -1.0760   -0.3820 N   0  0  0  0  0  0  0  0  0  0  0  0
    2.1100   -0.4360    0.8610 C   0  0  0  0  0  0  0  0  0  0  0  0
    1.2810   -0.5060    1.7880 O   0  0  0  0  0  0  0  0  0  0  0  0
    3.3610    0.3490    1.1000 C   0  0  0  0  0  0  0  0  0  0  0  0
    4.1360    0.2990   -0.0450 O   0  0  0  0  0  0  0  0  0  0  0  0
    5.3400    0.9640    0.0400 C   0  0  0  0  0  0  0  0  0  0  0  0
    5.2380    2.4080    0.3120 C   0  0  0  0  0  0  0  0  0  0  0  0
    4.7290    2.8740    1.5050 O   0  0  0  0  0  0  0  0  0  0  0  0
    5.7390    3.4980   -0.8260 S   0  0  0  0  0  0  0  0  0  0  0  0
   -3.1100    0.3930   -1.4290 C   0  0  0  0  0  0  0  0  0  0  0  0
   -4.2210    1.2610   -1.4270 N   0  0  0  0  0  0  0  0  0  0  0  0
   -2.2040    0.5920   -2.2780 O   0  0  0  0  0  0  0  0  0  0  0  0
  2  1  1  6
  2  3  1  0
  2  5  1  0
  2 18  1  0
  3  4  1  0
  5  6  1  0
  6  7  2  0
  6  8  1  0
  8  9  1  0
  9 10  1  0
 10 11  2  0
 10 12  1  0
 12 13  1  0
 13 14  1  0
 14 15  1  0
 15 16  1  0
 15 17  2  0
 18 19  1  0
 18 20  2  0
M  END
