
     RDKit          3D

 20 19  0  0  0  0  0  0  0  0999 V2000
   -5.1270    1.6170    0.3360 C   0  0  0  0  0  0  0  0  0  0  0  0
   -4.2450    0.4140    0.4430 C   0  0  2  0  0  0  0  0  0  0  0  0
   -3.5290    0.3210    1.6270 O   0  0  0  0  0  0  0  0  0  0  0  0
   -3.2830    0.4050   -0.7510 C   0  0  0  0  0  0  0  0  0  0  0  0
   -2.5900   -0.7760   -0.8100 O   0  0  0  0  0  0  0  0  0  0  0  0
   -1.7510   -0.9330   -1.8440 C   0  0  0  0  0  0  0  0  0  0  0  0
   -0.5710   -0.0340   -1.9770 C   0  0  0  0  0  0  0  0  0  0  0  0
    0.2070   -0.2660   -0.7580 O   0  0  0  0  0  0  0  0  0  0  0  0
    1.4460    0.2220   -0.6380 C   0  0  0  0  0  0  0  0  0  0  0  0
    2.0760    0.8500   -1.3920 O   0  0  0  0  0  0  0  0  0  0  0  0
    2.2090   -0.1680    0.8710 N   0  0  0  0  0  0  0  0  0  0  0  0
    3.4600    0.3250    0.5370 C   0  0  0  0  0  0  0  0  0  0  0  0
    3.9490    0.9150   -0.3890 O   0  0  0  0  0  0  0  0  0  0  0  0
    4.3870    0.0040    1.6740 N   0  0  0  0  0  0  0  0  0  0  0  0
    5.7270    0.4030    1.5780 C   0  0  0  0  0  0  0  0  0  0  0  0
    6.4760   -0.2220    0.4060 C   0  0  0  0  0  0  0  0  0  0  0  0
    7.7730    0.3080    0.4940 O   0  0  0  0  0  0  0  0  0  0  0  0
   -5.0650   -0.8590    0.3910 C   0  0  0  0  0  0  0  0  0  0  0  0
   -4.4310   -2.1200    0.5400 N   0  0  0  0  0  0  0  0  0  0  0  0
   -6.6540   -0.7160    0.1550 S   0  0  0  0  0  0  0  0  0  0  0  0
  2  1  1  1
  2  3  1  0
  2  4  1  0
  2 18  1  0
  4  5  1  0
  5  6  1  0
  6  7  1  0
  7  8  1  0
  8  9  1  0
  9 10  2  0
  9 11  1  0
 11 12  1  0
 12 13  2  0
 12 14  1  0
 14 15  1  0
 15 16  1  0
 16 17  1  0
 18 19  1  0
 18 20  2  0
M  END
