
     RDKit          3D

 20 19  0  0  0  0  0  0  0  0999 V2000
    4.8560    2.3230   -2.5890 C   0  0  0  0  0  0  0  0  0  0  0  0
    4.8440    1.1470   -1.8630 O   0  0  0  0  0  0  0  0  0  0  0  0
    4.8170    1.4290   -0.5060 C   0  0  2  0  0  0  0  0  0  0  0  0
    6.0410    0.8580    0.1560 C   0  0  0  0  0  0  0  0  0  0  0  0
    3.6020    0.8640    0.1260 C   0  0  0  0  0  0  0  0  0  0  0  0
    3.3960    1.0100    1.3490 O   0  0  0  0  0  0  0  0  0  0  0  0
    2.6450    0.1400   -0.6620 N   0  0  0  0  0  0  0  0  0  0  0  0
    1.4550   -0.4130   -0.0380 C   0  0  0  0  0  0  0  0  0  0  0  0
    0.6630   -1.1070   -1.1330 C   0  0  0  0  0  0  0  0  0  0  0  0
   -0.5570   -1.7050   -0.6390 N   0  0  0  0  0  0  0  0  0  0  0  0
   -1.5610   -0.9230   -0.0310 C   0  0  0  0  0  0  0  0  0  0  0  0
   -1.3880    0.3060    0.0760 O   0  0  0  0  0  0  0  0  0  0  0  0
   -2.7740   -1.4450    0.4750 N   0  0  0  0  0  0  0  0  0  0  0  0
   -3.7830   -0.6220    1.0910 C   0  0  2  0  0  0  0  0  0  0  0  0
   -4.0410   -0.9570    2.5290 C   0  0  0  0  0  0  0  0  0  0  0  0
   -5.0370   -0.0870    3.0010 O   0  0  0  0  0  0  0  0  0  0  0  0
   -5.0700   -0.6530    0.2840 C   0  0  2  0  0  0  0  0  0  0  0  0
   -4.8540   -0.1800   -1.0140 O   0  0  0  0  0  0  0  0  0  0  0  0
   -6.3650    0.3190    1.1100 S   0  0  0  0  0  0  0  0  0  0  0  0
   -5.9320    1.9930    1.1220 O   0  0  0  0  0  0  0  0  0  0  0  0
  1  2  1  0
  2  3  1  0
  3  4  1  1
  3  5  1  0
  5  6  2  0
  5  7  1  0
  7  8  1  0
  8  9  1  0
  9 10  1  0
 10 11  1  0
 11 12  2  0
 11 13  1  0
 13 14  1  0
 14 15  1  1
 14 17  1  0
 15 16  1  0
 17 18  1  6
 17 19  1  0
 19 20  1  0
M  END
