
     RDKit          3D

 20 19  0  0  0  0  0  0  0  0999 V2000
   -3.2010    2.6080   -1.8380 C   0  0  0  0  0  0  0  0  0  0  0  0
   -2.2200    3.1140   -1.0790 O   0  0  0  0  0  0  0  0  0  0  0  0
   -1.1520    2.4370   -0.6620 C   0  0  0  0  0  0  0  0  0  0  0  0
   -1.2930    1.2040    0.1650 C   0  0  1  0  0  0  0  0  0  0  0  0
   -1.8670    0.0560   -0.6350 C   0  0  0  0  0  0  0  0  0  0  0  0
   -1.8830   -1.1210    0.1590 O   0  0  0  0  0  0  0  0  0  0  0  0
   -2.3710   -2.2950   -0.3810 C   0  0  0  0  0  0  0  0  0  0  0  0
   -2.4270   -3.5230    0.3340 N   0  0  0  0  0  0  0  0  0  0  0  0
   -2.7880   -2.2630   -1.5820 O   0  0  0  0  0  0  0  0  0  0  0  0
   -0.0320    0.7880    0.5720 O   0  0  0  0  0  0  0  0  0  0  0  0
    0.8630    0.4780   -0.3840 C   0  0  0  0  0  0  0  0  0  0  0  0
    2.2060    0.0770    0.3050 C   0  0  0  0  0  0  0  0  0  0  0  0
    3.0510   -0.2210   -0.7410 O   0  0  0  0  0  0  0  0  0  0  0  0
    4.3180   -0.6010   -0.4170 C   0  0  0  0  0  0  0  0  0  0  0  0
    4.3280   -1.8450    0.3630 C   0  0  0  0  0  0  0  0  0  0  0  0
    5.6310   -2.3030    0.7940 N   0  0  0  0  0  0  0  0  0  0  0  0
    3.3190   -2.5120    0.6700 O   0  0  0  0  0  0  0  0  0  0  0  0
   -2.0600    1.4810    1.3850 C   0  0  0  0  0  0  0  0  0  0  0  0
   -2.3230    0.4650    2.3240 N   0  0  0  0  0  0  0  0  0  0  0  0
   -2.6100    2.9790    1.6510 S   0  0  0  0  0  0  0  0  0  0  0  0
  1  2  1  0
  2  3  1  0
  4  3  1  6
  4  5  1  0
  4 10  1  0
  4 18  1  0
  5  6  1  0
  6  7  1  0
  7  8  1  0
  7  9  2  0
 10 11  1  0
 11 12  1  0
 12 13  1  0
 13 14  1  0
 14 15  1  0
 15 16  1  0
 15 17  2  0
 18 19  1  0
 18 20  2  0
M  END
