
     RDKit          3D

 20 19  0  0  0  0  0  0  0  0999 V2000
    0.0020   -3.4330   -2.5740 N   0  0  0  0  0  0  0  0  0  0  0  0
   -0.4050   -2.1310   -2.9820 C   0  0  0  0  0  0  0  0  0  0  0  0
   -1.7740   -1.9130   -3.8440 S   0  0  0  0  0  0  0  0  0  0  0  0
    0.4470   -0.9980   -2.6010 C   0  0  0  0  0  0  0  0  0  0  0  0
    0.5510   -0.9250   -1.0550 C   0  0  2  0  0  0  0  0  0  0  0  0
   -0.7460   -0.7640   -0.6120 O   0  0  0  0  0  0  0  0  0  0  0  0
   -1.2480   -0.6910    0.6650 C   0  0  0  0  0  0  0  0  0  0  0  0
   -2.3740   -0.0150    0.8720 C   0  0  0  0  0  0  0  0  0  0  0  0
   -3.0500    0.1660    2.1590 C   0  0  0  0  0  0  0  0  0  0  0  0
   -4.3260   -0.3810    2.0510 O   0  0  0  0  0  0  0  0  0  0  0  0
   -0.4960   -1.3800    1.7360 C   0  0  0  0  0  0  0  0  0  0  0  0
    0.8030   -0.9250    1.9050 O   0  0  0  0  0  0  0  0  0  0  0  0
    1.4040    0.2420   -0.7740 C   0  0  0  0  0  0  0  0  0  0  0  0
    2.6030    0.2640   -1.0800 O   0  0  0  0  0  0  0  0  0  0  0  0
    0.9560    1.3760   -0.1640 N   0  0  0  0  0  0  0  0  0  0  0  0
    1.5550    2.5080    0.2090 C   0  0  0  0  0  0  0  0  0  0  0  0
    0.4410    3.1070    0.7740 O   0  0  0  0  0  0  0  0  0  0  0  0
    2.4380    3.5060    0.4480 N   0  0  0  0  0  0  0  0  0  0  0  0
    3.7800    3.6530    0.1680 C   0  0  0  0  0  0  0  0  0  0  0  0
    4.3050    2.7030   -0.4120 O   0  0  0  0  0  0  0  0  0  0  0  0
  1  2  1  0
  2  3  2  0
  2  4  1  0
  5  4  1  6
  5  6  1  0
  5 13  1  0
  6  7  1  0
  7  8  2  3
  7 11  1  0
  8  9  1  0
  9 10  1  0
 11 12  1  0
 13 14  2  0
 13 15  1  0
 15 16  1  0
 16 17  2  0
 16 18  1  0
 18 19  1  0
 19 20  2  0
M  END
