
     RDKit          3D

 20 19  0  0  0  0  0  0  0  0999 V2000
    2.5460   -1.9430    0.1780 N   0  0  0  0  0  0  0  0  0  0  0  0
    3.5530   -1.2400   -0.4950 C   0  0  0  0  0  0  0  0  0  0  0  0
    4.6230   -1.8870   -0.7620 O   0  0  0  0  0  0  0  0  0  0  0  0
    3.4260    0.1960   -0.9000 C   0  0  1  0  0  0  0  0  0  0  0  0
    3.0410    1.0040    0.2940 C   0  0  0  0  0  0  0  0  0  0  0  0
    1.8540    0.5990    0.9530 N   0  0  0  0  0  0  0  0  0  0  0  0
    0.5650    0.5560    0.3550 C   0  0  0  0  0  0  0  0  0  0  0  0
    0.4970    0.9070   -0.8390 O   0  0  0  0  0  0  0  0  0  0  0  0
   -0.5990    0.1480    1.0330 N   0  0  0  0  0  0  0  0  0  0  0  0
   -1.9270    0.1030    0.4040 C   0  0  2  0  0  0  0  0  0  0  0  0
   -1.8830   -0.8570   -0.7390 C   0  0  0  0  0  0  0  0  0  0  0  0
   -1.5510   -2.1170   -0.2100 O   0  0  0  0  0  0  0  0  0  0  0  0
   -2.2670    1.5160   -0.0360 C   0  0  0  0  0  0  0  0  0  0  0  0
   -2.2730    2.5810    1.4340 S   0  0  0  0  0  0  0  0  0  0  0  0
   -2.8970   -0.3300    1.4500 C   0  0  0  0  0  0  0  0  0  0  0  0
   -4.3240   -0.4400    1.0380 C   0  0  0  0  0  0  0  0  0  0  0  0
   -4.6070   -1.3370    0.0440 O   0  0  0  0  0  0  0  0  0  0  0  0
    4.5840    0.5910   -1.5410 O   0  0  0  0  0  0  0  0  0  0  0  0
    4.6210    0.9560   -2.8690 C   0  0  0  0  0  0  0  0  0  0  0  0
    3.5320    0.9150   -3.4900 O   0  0  0  0  0  0  0  0  0  0  0  0
  1  2  1  0
  2  3  2  0
  2  4  1  0
  4  5  1  1
  4 18  1  0
  5  6  1  0
  6  7  1  0
  7  8  2  0
  7  9  1  0
  9 10  1  0
 10 11  1  6
 10 13  1  0
 10 15  1  0
 11 12  1  0
 13 14  1  0
 15 16  1  0
 16 17  1  0
 18 19  1  0
 19 20  2  0
M  END
