
     RDKit          3D

 16 15  0  0  0  0  0  0  0  0999 V2000
   -3.8750    0.8140    1.7630 C   0  0  0  0  0  0  0  0  0  0  0  0
   -2.8390    0.5030    0.6800 C   0  0  0  0  0  0  0  0  0  0  0  0
   -2.2260    1.6940    0.2940 O   0  0  0  0  0  0  0  0  0  0  0  0
   -1.0620    1.2930   -0.9320 P   0  0  0  0  0  0  0  0  0  0  0  0
   -1.9080    0.7270   -2.3050 O   0  0  0  0  0  0  0  0  0  0  0  0
    0.1520    0.1250   -0.2440 C   0  0  2  0  0  0  0  0  0  0  0  0
    1.4130    0.7520   -0.2310 O   0  0  0  0  0  0  0  0  0  0  0  0
    1.9100    0.8480    0.9700 O   0  0  0  0  0  0  0  0  0  0  0  0
    3.2880    1.0240    0.8570 C   0  0  0  0  0  0  0  0  0  0  0  0
    3.9510    1.1440    2.1650 C   0  0  0  0  0  0  0  0  0  0  0  0
    5.1530    1.3020    2.2220 O   0  0  0  0  0  0  0  0  0  0  0  0
    0.2770   -1.1740   -0.9790 C   0  0  2  0  0  0  0  0  0  0  0  0
    0.8040   -1.0570   -2.3660 C   0  0  0  0  0  0  0  0  0  0  0  0
   -0.9730   -1.7940   -0.9910 O   0  0  0  0  0  0  0  0  0  0  0  0
    1.2190   -2.0320   -0.2030 C   0  0  0  0  0  0  0  0  0  0  0  0
    0.8690   -3.0860    0.3040 O   0  0  0  0  0  0  0  0  0  0  0  0
  1  2  1  0
  2  3  1  0
  3  4  1  0
  4  5  1  0
  4  6  1  0
  6  7  1  6
  6 12  1  0
  7  8  1  0
  8  9  1  0
  9 10  1  0
 10 11  2  0
 12 13  1  6
 12 14  1  0
 12 15  1  0
 15 16  2  0
M  END
