
     RDKit          3D

 16 15  0  0  0  0  0  0  0  0999 V2000
   -2.7710   -2.1870    2.0420 C   0  0  0  0  0  0  0  0  0  0  0  0
   -1.7230   -1.3150    1.7450 O   0  0  0  0  0  0  0  0  0  0  0  0
   -1.8770   -0.8250    0.0910 P   0  0  0  0  0  0  0  0  0  0  0  0
   -1.4830   -2.1030   -1.0050 O   0  0  0  0  0  0  0  0  0  0  0  0
   -0.7800    0.6690   -0.2360 C   0  0  2  0  0  0  0  0  0  0  0  0
   -1.4510    1.4240   -1.1730 O   0  0  0  0  0  0  0  0  0  0  0  0
   -2.1160    2.4170   -0.7290 O   0  0  0  0  0  0  0  0  0  0  0  0
   -1.3840    3.5510   -0.5780 C   0  0  0  0  0  0  0  0  0  0  0  0
   -0.3330    3.4770    0.3060 O   0  0  0  0  0  0  0  0  0  0  0  0
    0.5520    0.1910   -0.7670 C   0  0  2  0  0  0  0  0  0  0  0  0
    1.4460    1.3030   -1.1870 C   0  0  0  0  0  0  0  0  0  0  0  0
    0.3290   -0.6120   -1.9100 O   0  0  0  0  0  0  0  0  0  0  0  0
    1.1590   -0.7010    0.2830 C   0  0  0  0  0  0  0  0  0  0  0  0
    2.5040   -1.2440   -0.1380 C   0  0  0  0  0  0  0  0  0  0  0  0
    3.0710   -2.1140    0.9140 C   0  0  0  0  0  0  0  0  0  0  0  0
    4.1500   -2.6320    0.7340 O   0  0  0  0  0  0  0  0  0  0  0  0
  1  2  1  0
  2  3  1  0
  3  4  1  0
  3  5  1  0
  5  6  1  6
  5 10  1  0
  6  7  1  0
  7  8  1  0
  8  9  1  0
 10 11  1  6
 10 12  1  0
 10 13  1  0
 13 14  1  0
 14 15  1  0
 15 16  2  0
M  END
