
     RDKit          3D

 16 15  0  0  0  0  0  0  0  0999 V2000
    3.2680    0.4730   -0.5460 C   0  0  0  0  0  0  0  0  0  0  0  0
    2.1170    1.3760   -0.2190 C   0  0  0  0  0  0  0  0  0  0  0  0
    1.2780    0.9980    0.7250 O   0  0  0  0  0  0  0  0  0  0  0  0
    0.4830   -0.0510    0.7710 C   0  0  1  0  0  0  0  0  0  0  0  0
    1.2390   -1.3610    0.7100 C   0  0  0  0  0  0  0  0  0  0  0  0
   -0.2320    0.0090    1.9960 O   0  0  0  0  0  0  0  0  0  0  0  0
    0.6230   -0.0120    3.0800 C   0  0  0  0  0  0  0  0  0  0  0  0
   -0.8450   -0.0990   -0.5450 P   0  0  0  0  0  0  0  0  0  0  0  0
   -2.2230    0.8430   -0.0070 O   0  0  0  0  0  0  0  0  0  0  0  0
   -3.1020    1.4450   -0.9120 C   0  0  0  0  0  0  0  0  0  0  0  0
   -4.2720    2.2440   -0.4900 C   0  0  0  0  0  0  0  0  0  0  0  0
   -2.8150    1.2500   -2.1360 O   0  0  0  0  0  0  0  0  0  0  0  0
   -1.2680   -1.7770   -0.8380 O   0  0  0  0  0  0  0  0  0  0  0  0
   -0.6920   -2.5040   -1.8800 C   0  0  0  0  0  0  0  0  0  0  0  0
    0.1510   -1.8750   -2.5950 O   0  0  0  0  0  0  0  0  0  0  0  0
   -1.0300   -3.8260   -2.1040 O   0  0  0  0  0  0  0  0  0  0  0  0
  1  2  1  0
  2  3  1  0
  3  4  1  0
  4  5  1  1
  4  6  1  0
  4  8  1  0
  6  7  1  0
  8  9  1  0
  8 13  1  0
  9 10  1  0
 10 11  1  0
 10 12  2  0
 13 14  1  0
 14 15  2  0
 14 16  1  0
M  END
