
     RDKit          3D

 16 15  0  0  0  0  0  0  0  0999 V2000
    4.3730    0.4290   -1.0120 C   0  0  0  0  0  0  0  0  0  0  0  0
    4.3530   -0.7880   -0.1160 C   0  0  0  0  0  0  0  0  0  0  0  0
    2.9760   -1.0100    0.4280 C   0  0  0  0  0  0  0  0  0  0  0  0
    2.7720   -1.9830    1.1950 O   0  0  0  0  0  0  0  0  0  0  0  0
    1.9440   -0.1680    0.0980 O   0  0  0  0  0  0  0  0  0  0  0  0
    0.6510   -0.4140    0.6360 C   0  0  0  0  0  0  0  0  0  0  0  0
   -0.2520    0.5450    0.1860 O   0  0  0  0  0  0  0  0  0  0  0  0
   -1.4220    0.2650    0.7150 O   0  0  0  0  0  0  0  0  0  0  0  0
   -2.3310    0.1820   -0.3320 C   0  0  1  0  0  0  0  0  0  0  0  0
   -1.8400   -0.9220   -1.2410 C   0  0  0  0  0  0  0  0  0  0  0  0
   -3.7140   -0.2030    0.1540 C   0  0  0  0  0  0  0  0  0  0  0  0
   -4.5540   -0.2630   -0.9480 O   0  0  0  0  0  0  0  0  0  0  0  0
   -2.3980    1.4890   -1.0150 C   0  0  0  0  0  0  0  0  0  0  0  0
   -3.1200    1.7030   -1.9760 O   0  0  0  0  0  0  0  0  0  0  0  0
   -1.3490    2.8480   -0.3890 P   0  0  0  0  0  0  0  0  0  0  0  0
   -1.9320    3.8670    0.6310 O   0  0  0  0  0  0  0  0  0  0  0  0
  1  2  1  0
  2  3  1  0
  3  4  2  0
  3  5  1  0
  5  6  1  0
  6  7  1  0
  7  8  1  0
  8  9  1  0
  9 10  1  6
  9 11  1  0
  9 13  1  0
 11 12  1  0
 13 14  2  0
 13 15  1  0
 15 16  2  0
M  END
