
     RDKit          3D

 16 15  0  0  0  0  0  0  0  0999 V2000
    5.0330   -0.1480   -0.5480 C   0  0  0  0  0  0  0  0  0  0  0  0
    3.8180   -0.9160   -0.1280 C   0  0  0  0  0  0  0  0  0  0  0  0
    2.6710    0.0200    0.2540 C   0  0  0  0  0  0  0  0  0  0  0  0
    1.5550   -0.7070    0.6400 O   0  0  0  0  0  0  0  0  0  0  0  0
    0.2980    0.3920    1.0580 P   0  0  0  0  0  0  0  0  0  0  0  0
    0.5840    1.8830    0.1870 O   0  0  0  0  0  0  0  0  0  0  0  0
   -1.3760   -0.2240    0.5060 C   0  0  1  0  0  0  0  0  0  0  0  0
   -1.4240   -0.2450   -0.8880 O   0  0  0  0  0  0  0  0  0  0  0  0
   -1.6640   -1.5740    1.0470 C   0  0  0  0  0  0  0  0  0  0  0  0
   -1.9480   -2.7180    0.1490 C   0  0  0  0  0  0  0  0  0  0  0  0
   -1.6680   -1.7560    2.2470 O   0  0  0  0  0  0  0  0  0  0  0  0
   -2.3840    0.7270    1.0340 C   0  0  0  0  0  0  0  0  0  0  0  0
   -2.4690    0.8600    2.2380 O   0  0  0  0  0  0  0  0  0  0  0  0
   -3.2640    1.4940    0.1230 C   0  0  0  0  0  0  0  0  0  0  0  0
   -4.1350    2.3270    0.8230 O   0  0  0  0  0  0  0  0  0  0  0  0
   -4.9120    3.0050    0.0160 O   0  0  0  0  0  0  0  0  0  0  0  0
  1  2  1  0
  2  3  1  0
  3  4  1  0
  4  5  1  0
  5  6  1  0
  5  7  1  0
  7  8  1  6
  7  9  1  0
  7 12  1  0
  9 10  1  0
  9 11  2  0
 12 13  2  0
 12 14  1  0
 14 15  1  0
 15 16  1  0
M  END
