
     RDKit          3D

 16 16  0  0  0  0  0  0  0  0999 V2000
    4.4110   -0.5780    0.3880 C   0  0  0  0  0  0  0  0  0  0  0  0
    3.1040   -0.9790    0.0430 O   0  0  0  0  0  0  0  0  0  0  0  0
    2.2200   -0.2250    0.3620 O   0  0  0  0  0  0  0  0  0  0  0  0
    1.7240    0.8540    0.0750 O   0  0  0  0  0  0  0  0  0  0  0  0
    0.7510    0.9040   -0.8780 C   0  0  0  0  0  0  0  0  0  0  0  0
   -0.4000    0.2300   -0.1920 C   0  0  0  0  0  0  0  0  0  0  0  0
   -1.5840    0.8790    0.0650 C   0  0  0  0  0  0  0  0  0  0  0  0
   -1.6510    2.1770   -0.3390 O   0  0  0  0  0  0  0  0  0  0  0  0
   -2.7840    3.3590   -0.7280 P   0  0  0  0  0  0  0  0  0  0  0  0
   -2.2440    4.8180   -0.9910 O   0  0  0  0  0  0  0  0  0  0  0  0
   -2.6230    0.1880    0.7550 C   0  0  0  0  0  0  0  0  0  0  0  0
   -3.3710    0.7830    1.5500 O   0  0  0  0  0  0  0  0  0  0  0  0
   -2.8500   -1.2460    0.4770 C   0  0  0  0  0  0  0  0  0  0  0  0
   -1.6410   -1.8190   -0.2490 C   0  0  0  0  0  0  0  0  0  0  0  0
   -1.7480   -2.7360   -1.0240 O   0  0  0  0  0  0  0  0  0  0  0  0
   -0.3620   -1.1680    0.1560 C   0  0  0  0  0  0  0  0  0  0  0  0
  1  2  1  0
  2  3  1  0
  3  4  1  0
  4  5  1  0
  5  6  1  0
  6  7  2  0
  6 16  1  0
  7  8  1  0
  7 11  1  0
  8  9  1  0
  9 10  2  0
 11 12  2  0
 11 13  1  0
 13 14  1  0
 14 15  2  0
 14 16  1  0
M  END
