
     RDKit          3D

 15 14  0  0  0  0  0  0  0  0999 V2000
   -3.0790   -0.1620    0.7700 C   0  0  0  0  0  0  0  0  0  0  0  0
   -2.0800    0.7600    0.1290 C   0  0  2  0  0  0  0  0  0  0  0  0
   -2.4400    0.8100   -1.3490 C   0  0  0  0  0  0  0  0  0  0  0  0
   -0.6650    0.5280    0.3900 C   0  0  0  0  0  0  0  0  0  0  0  0
    0.0400   -0.7040    0.0230 C   0  0  1  0  0  0  0  0  0  0  0  0
    1.3920   -0.4740    0.4620 O   0  0  0  0  0  0  0  0  0  0  0  0
    2.2520   -0.4130   -0.6020 C   0  0  0  0  0  0  0  0  0  0  0  0
    3.6430   -0.1720   -0.0900 C   0  0  0  0  0  0  0  0  0  0  0  0
    3.6520    1.0400    0.6130 O   0  0  0  0  0  0  0  0  0  0  0  0
    4.8300    1.3120    1.0860 O   0  0  0  0  0  0  0  0  0  0  0  0
   -0.3270   -1.9760    0.5840 C   0  0  0  0  0  0  0  0  0  0  0  0
   -1.4020   -2.5460    0.3140 O   0  0  0  0  0  0  0  0  0  0  0  0
    0.4970   -2.6540    1.4680 O   0  0  0  0  0  0  0  0  0  0  0  0
   -2.5170    2.4870    0.7770 P   0  0  0  0  0  0  0  0  0  0  0  0
   -3.5760    3.3570    0.0930 O   0  0  0  0  0  0  0  0  0  0  0  0
  2  1  1  1
  2  3  1  0
  2  4  1  0
  2 14  1  0
  5  4  1  1
  5  6  1  0
  5 11  1  0
  6  7  1  0
  7  8  1  0
  8  9  1  0
  9 10  1  0
 11 12  2  0
 11 13  1  0
 14 15  2  0
M  END
