
     RDKit          3D

 23 25  0  0  0  0  0  0  0  0999 V2000
   -5.6100   -1.9520   -1.3760 N   0  0  0  0  0  0  0  0  0  0  0  0
   -4.9190   -0.7370   -1.2430 C   0  0  0  0  0  0  0  0  0  0  0  0
   -5.4280    0.4630   -1.5980 N   0  0  0  0  0  0  0  0  0  0  0  0
   -4.7410    1.6140   -1.4580 C   0  0  0  0  0  0  0  0  0  0  0  0
   -3.4940    1.6380   -0.9520 N   0  0  0  0  0  0  0  0  0  0  0  0
   -2.9440    0.4460   -0.5820 C   0  0  0  0  0  0  0  0  0  0  0  0
   -3.6390   -0.7390   -0.7200 C   0  0  0  0  0  0  0  0  0  0  0  0
   -2.8540   -1.7180   -0.2800 N   0  0  0  0  0  0  0  0  0  0  0  0
   -1.6720   -1.1770    0.1360 C   0  0  0  0  0  0  0  0  0  0  0  0
   -1.7290    0.1550   -0.0500 N   0  0  0  0  0  0  0  0  0  0  0  0
   -0.6620    1.0950    0.2700 C   0  0  2  0  0  0  0  0  0  0  0  0
    0.5350    0.6830   -0.2650 O   0  0  0  0  0  0  0  0  0  0  0  0
    1.5210    0.8260    0.6740 C   0  0  2  0  0  0  0  0  0  0  0  0
    2.7010   -0.0890    0.4440 C   0  0  0  0  0  0  0  0  0  0  0  0
    3.2530    0.1780   -0.7770 O   0  0  0  0  0  0  0  0  0  0  0  0
    4.5370   -0.7750   -1.1000 P   0  0  0  0  0  0  0  0  0  0  0  0
    3.7880   -2.0730   -0.8270 O   0  0  0  0  0  0  0  0  0  0  0  0
    4.7770   -1.3130   -2.6950 O   0  0  0  0  0  0  0  0  0  0  0  0
    5.7160   -1.0680   -0.0170 O   0  0  0  0  0  0  0  0  0  0  0  0
    0.8060    0.4710    1.9620 C   0  0  1  0  0  0  0  0  0  0  0  0
    1.5040    0.8980    3.0820 O   0  0  0  0  0  0  0  0  0  0  0  0
   -0.4730    1.2580    1.7580 C   0  0  1  0  0  0  0  0  0  0  0  0
   -0.1940    2.5880    2.0560 O   0  0  0  0  0  0  0  0  0  0  0  0
  1  2  1  0
  2  3  2  0
  2  7  1  0
  3  4  1  0
  4  5  2  0
  5  6  1  0
  6  7  2  0
  6 10  1  0
  7  8  1  0
  8  9  2  0
  9 10  1  0
 11 10  1  1
 11 12  1  0
 11 22  1  0
 12 13  1  0
 13 14  1  6
 13 20  1  0
 14 15  1  0
 15 16  1  0
 16 17  1  0
 16 18  1  0
 16 19  1  0
 20 21  1  1
 20 22  1  0
 22 23  1  6
M  END
