
     RDKit          3D

  9  9  0  0  0  0  0  0  0  0999 V2000
    2.6020    0.7100    0.2580 O   0  0  0  0  0  0  0  0  0  0  0  0
    1.6960   -0.2430    0.7240 C   0  0  0  0  0  0  0  0  0  0  0  0
    0.5030   -0.2140   -0.1800 C   0  0  1  0  0  0  0  0  0  0  0  0
    0.9020   -0.5140   -1.4660 O   0  0  0  0  0  0  0  0  0  0  0  0
   -0.6050   -1.1380    0.2720 C   0  0  0  0  0  0  0  0  0  0  0  0
   -1.6200   -0.7290   -0.6140 O   0  0  0  0  0  0  0  0  0  0  0  0
   -1.6470    0.6420   -0.5280 C   0  0  1  0  0  0  0  0  0  0  0  0
   -2.5790    1.0050    0.4280 O   0  0  0  0  0  0  0  0  0  0  0  0
   -0.2370    1.0930   -0.1580 C   0  0  0  0  0  0  0  0  0  0  0  0
  1  2  1  0
  2  3  1  0
  3  4  1  6
  3  5  1  0
  3  9  1  0
  5  6  1  0
  6  7  1  0
  7  8  1  1
  7  9  1  0
M  END
