
     RDKit          3D

  9  8  0  0  0  0  0  0  0  0999 V2000
    2.7050    0.0920    0.4670 C   0  0  0  0  0  0  0  0  0  0  0  0
    1.6090    0.7010   -0.1290 O   0  0  0  0  0  0  0  0  0  0  0  0
    0.6890   -0.2090   -0.6180 C   0  0  2  0  0  0  0  0  0  0  0  0
    0.5220   -0.0590   -1.9910 O   0  0  0  0  0  0  0  0  0  0  0  0
   -0.5880   -0.0410    0.1390 C   0  0  1  0  0  0  0  0  0  0  0  0
   -1.6350   -1.0720   -0.3010 C   0  0  0  0  0  0  0  0  0  0  0  0
   -0.3500   -0.2760    1.4850 O   0  0  0  0  0  0  0  0  0  0  0  0
   -1.2140    1.3170   -0.0500 C   0  0  0  0  0  0  0  0  0  0  0  0
   -2.4260    1.4060    0.6300 O   0  0  0  0  0  0  0  0  0  0  0  0
  1  2  1  0
  2  3  1  0
  3  4  1  6
  3  5  1  0
  5  6  1  6
  5  7  1  0
  5  8  1  0
  8  9  1  0
M  END
