
     RDKit          3D

  9  9  0  0  0  0  0  0  0  0999 V2000
   -2.3140    0.5780    1.0520 O   0  0  0  0  0  0  0  0  0  0  0  0
   -1.7740   -0.4000    0.2050 C   0  0  1  0  0  0  0  0  0  0  0  0
   -2.2650   -0.2450   -1.1030 O   0  0  0  0  0  0  0  0  0  0  0  0
   -0.2730   -0.2160    0.2430 C   0  0  2  0  0  0  0  0  0  0  0  0
    0.0780    1.1640   -0.3020 C   0  0  0  0  0  0  0  0  0  0  0  0
    1.4210    1.1790   -0.6120 O   0  0  0  0  0  0  0  0  0  0  0  0
    2.1400    0.3010    0.1730 C   0  0  0  0  0  0  0  0  0  0  0  0
    1.7470   -1.1080   -0.2290 C   0  0  0  0  0  0  0  0  0  0  0  0
    0.3930   -1.1360   -0.5660 O   0  0  0  0  0  0  0  0  0  0  0  0
  2  1  1  1
  2  3  1  0
  2  4  1  0
  4  5  1  6
  4  9  1  0
  5  6  1  0
  6  7  1  0
  7  8  1  0
  8  9  1  0
M  END
