
     RDKit          3D

  9  9  0  0  0  0  0  0  0  0999 V2000
   -2.8820    1.1090    0.3760 O   0  0  0  0  0  0  0  0  0  0  0  0
   -2.2980   -0.0340   -0.1170 C   0  0  0  0  0  0  0  0  0  0  0  0
   -0.9520   -0.3140    0.5110 C   0  0  1  0  0  0  0  0  0  0  0  0
   -0.2800   -1.4700   -0.1870 C   0  0  0  0  0  0  0  0  0  0  0  0
    1.0680   -1.1360   -0.0180 O   0  0  0  0  0  0  0  0  0  0  0  0
    1.0350    0.2130   -0.3680 C   0  0  2  0  0  0  0  0  0  0  0  0
    2.3260    0.9140   -0.0050 C   0  0  0  0  0  0  0  0  0  0  0  0
    2.5680    0.8430    1.3630 O   0  0  0  0  0  0  0  0  0  0  0  0
   -0.0570    0.7450    0.2720 O   0  0  0  0  0  0  0  0  0  0  0  0
  1  2  1  0
  3  2  1  6
  3  4  1  0
  3  9  1  0
  4  5  1  0
  5  6  1  0
  6  7  1  1
  6  9  1  0
  7  8  1  0
M  END
