
     RDKit          3D

 10  9  0  0  0  0  0  0  0  0999 V2000
    2.2200   -0.3510   -0.3370 C   0  0  0  0  0  0  0  0  0  0  0  0
    1.3090    0.4610    0.5630 C   0  0  2  0  0  0  0  0  0  0  0  0
    0.8910   -0.3220    1.6140 O   0  0  0  0  0  0  0  0  0  0  0  0
    0.2010    1.1140   -0.2130 C   0  0  1  0  0  0  0  0  0  0  0  0
    0.8180    1.8610   -1.2250 O   0  0  0  0  0  0  0  0  0  0  0  0
   -0.7970    0.1390   -0.7730 C   0  0  1  0  0  0  0  0  0  0  0  0
   -0.2700   -0.7840   -1.6400 O   0  0  0  0  0  0  0  0  0  0  0  0
   -1.5790   -0.5780    0.2950 C   0  0  1  0  0  0  0  0  0  0  0  0
   -2.1240    0.3590    1.1980 O   0  0  0  0  0  0  0  0  0  0  0  0
   -2.6830   -1.1810   -0.3120 O   0  0  0  0  0  0  0  0  0  0  0  0
  2  1  1  6
  2  3  1  0
  2  4  1  0
  4  5  1  6
  4  6  1  0
  6  7  1  1
  6  8  1  0
  8  9  1  1
  8 10  1  0
M  END
