
     RDKit          3D

  9  9  0  0  0  0  0  0  0  0999 V2000
    2.2400   -0.7910   -1.0340 O   0  0  0  0  0  0  0  0  0  0  0  0
    1.5850    0.3240   -0.5070 C   0  0  0  0  0  0  0  0  0  0  0  0
    0.3520   -0.1650    0.1850 C   0  0  2  0  0  0  0  0  0  0  0  0
    0.6060   -1.0470    1.2130 O   0  0  0  0  0  0  0  0  0  0  0  0
   -0.6350   -0.8050   -0.7720 C   0  0  0  0  0  0  0  0  0  0  0  0
   -1.8650   -0.7320    0.1110 C   0  0  0  0  0  0  0  0  0  0  0  0
   -1.7510    0.3820    0.9010 O   0  0  0  0  0  0  0  0  0  0  0  0
   -0.5230    0.9620    0.7000 C   0  0  2  0  0  0  0  0  0  0  0  0
   -0.6760    1.9050   -0.3430 O   0  0  0  0  0  0  0  0  0  0  0  0
  1  2  1  0
  2  3  1  0
  3  4  1  1
  3  5  1  0
  3  8  1  0
  5  6  1  0
  6  7  1  0
  7  8  1  0
  8  9  1  6
M  END
