
     RDKit          3D

 10  9  0  0  0  0  0  0  0  0999 V2000
    3.4060   -0.8320   -0.0120 O   0  0  0  0  0  0  0  0  0  0  0  0
    2.8000    0.3920    0.3320 C   0  0  0  0  0  0  0  0  0  0  0  0
    1.4250    0.4180   -0.3340 C   0  0  2  0  0  0  0  0  0  0  0  0
    0.8350    1.6020   -0.0030 O   0  0  0  0  0  0  0  0  0  0  0  0
    0.6770   -0.8000    0.0700 C   0  0  0  0  0  0  0  0  0  0  0  0
   -0.5570   -0.9190   -0.4710 O   0  0  0  0  0  0  0  0  0  0  0  0
   -1.5150   -0.0080   -0.1870 C   0  0  1  0  0  0  0  0  0  0  0  0
   -1.9530    0.7060   -1.3180 O   0  0  0  0  0  0  0  0  0  0  0  0
   -2.7250   -0.6780    0.4690 C   0  0  0  0  0  0  0  0  0  0  0  0
   -3.7120    0.2680    0.7610 O   0  0  0  0  0  0  0  0  0  0  0  0
  1  2  1  0
  2  3  1  0
  3  4  1  1
  3  5  1  0
  5  6  1  0
  6  7  1  0
  7  8  1  6
  7  9  1  0
  9 10  1  0
M  END
