
     RDKit          3D

 14 14  0  0  0  0  0  0  0  0999 V2000
    4.6030   -0.0740    1.4350 C   0  0  0  0  0  0  0  0  0  0  0  0
    3.2800   -0.1200    0.9730 O   0  0  0  0  0  0  0  0  0  0  0  0
    2.5570    1.0170    0.6150 C   0  0  0  0  0  0  0  0  0  0  0  0
    3.1560    2.1160    0.7270 O   0  0  0  0  0  0  0  0  0  0  0  0
    1.2020    0.9460    0.1430 C   0  0  0  0  0  0  0  0  0  0  0  0
    0.5190   -0.1820    0.0040 C   0  0  0  0  0  0  0  0  0  0  0  0
    1.2200   -1.3660    0.3580 N   0  0  0  0  0  0  0  0  0  0  0  0
   -0.8110   -0.1890   -0.4640 N   0  0  0  0  0  0  0  0  0  0  0  0
   -1.2920    0.4340   -1.6620 C   0  0  0  0  0  0  0  0  0  0  0  0
   -2.4160   -0.5050   -2.0430 C   0  0  0  0  0  0  0  0  0  0  0  0
   -2.6510   -1.3340   -0.9750 O   0  0  0  0  0  0  0  0  0  0  0  0
   -1.9640   -0.8000    0.1230 C   0  0  2  0  0  0  0  0  0  0  0  0
   -2.9010    0.1550    0.8140 C   0  0  0  0  0  0  0  0  0  0  0  0
   -3.3990    1.1080   -0.0510 O   0  0  0  0  0  0  0  0  0  0  0  0
  1  2  1  0
  2  3  1  0
  3  4  2  0
  3  5  1  0
  5  6  2  3
  6  7  1  0
  6  8  1  0
  8  9  1  0
  8 12  1  0
  9 10  1  0
 10 11  1  0
 11 12  1  0
 12 13  1  6
 13 14  1  0
M  END
