
     RDKit          3D

 14 14  0  0  0  0  0  0  0  0999 V2000
   -3.2200    1.7970    0.0330 N   0  0  0  0  0  0  0  0  0  0  0  0
   -2.6100    0.6140    0.6730 C   0  0  0  0  0  0  0  0  0  0  0  0
   -1.1790    0.7850    0.6860 C   0  0  0  0  0  0  0  0  0  0  0  0
   -0.1320    0.2010    0.1850 C   0  0  0  0  0  0  0  0  0  0  0  0
    1.1950    0.7550    0.4960 O   0  0  0  0  0  0  0  0  0  0  0  0
    2.0650   -0.3710    0.4990 C   0  0  2  0  0  0  0  0  0  0  0  0
    3.4700    0.0030    0.4780 C   0  0  0  0  0  0  0  0  0  0  0  0
    3.9850    1.3020    0.4550 N   0  0  0  0  0  0  0  0  0  0  0  0
    4.3260   -0.9470    0.4800 O   0  0  0  0  0  0  0  0  0  0  0  0
    1.6310   -0.9190   -0.7520 O   0  0  0  0  0  0  0  0  0  0  0  0
    0.1520   -0.9160   -0.6540 C   0  0  0  0  0  0  0  0  0  0  0  0
   -0.5110   -1.8170   -1.2830 C   0  0  0  0  0  0  0  0  0  0  0  0
   -1.8020   -2.2610   -1.5420 C   0  0  0  0  0  0  0  0  0  0  0  0
   -2.9230   -1.8770   -1.2160 O   0  0  0  0  0  0  0  0  0  0  0  0
  1  2  1  0
  2  3  1  0
  3  4  2  3
  4  5  1  0
  4 11  1  0
  5  6  1  0
  6  7  1  6
  6 10  1  0
  7  8  1  0
  7  9  2  0
 10 11  1  0
 11 12  2  3
 12 13  1  0
 13 14  2  0
M  END
