
     RDKit          3D

 12 12  0  0  0  0  0  0  0  0999 V2000
    2.4640    1.2950   -0.9640 C   0  0  0  0  0  0  0  0  0  0  0  0
    2.2930    0.1470   -0.1750 O   0  0  0  0  0  0  0  0  0  0  0  0
    1.0220   -0.2670    0.1560 C   0  0  0  0  0  0  0  0  0  0  0  0
   -0.0480    0.4640   -0.3020 C   0  0  0  0  0  0  0  0  0  0  0  0
   -1.3300    0.0720    0.0140 C   0  0  0  0  0  0  0  0  0  0  0  0
   -2.4990    0.8140   -0.4480 C   0  0  0  0  0  0  0  0  0  0  0  0
   -3.6580    0.4370   -0.1470 O   0  0  0  0  0  0  0  0  0  0  0  0
   -2.3460    1.9470   -1.2270 O   0  0  0  0  0  0  0  0  0  0  0  0
   -1.4940   -1.0570    0.7900 C   0  0  0  0  0  0  0  0  0  0  0  0
   -0.4380   -1.8080    1.2630 C   0  0  0  0  0  0  0  0  0  0  0  0
    0.8440   -1.4030    0.9380 C   0  0  0  0  0  0  0  0  0  0  0  0
    1.9580   -2.1200    1.3850 O   0  0  0  0  0  0  0  0  0  0  0  0
  1  2  1  0
  2  3  1  0
  3  4  2  0
  3 11  1  0
  4  5  1  0
  5  6  1  0
  5  9  2  0
  6  7  2  0
  6  8  1  0
  9 10  1  0
 10 11  2  0
 11 12  1  0
M  END
