
     RDKit          3D

 13 14  0  0  0  0  0  0  0  0999 V2000
    3.4280    1.3330    1.4810 O   0  0  0  0  0  0  0  0  0  0  0  0
    2.5040    0.6040    1.0280 C   0  0  0  0  0  0  0  0  0  0  0  0
    1.2520    1.1220    0.8650 N   0  0  0  0  0  0  0  0  0  0  0  0
    0.2390    0.3960    0.3910 C   0  0  0  0  0  0  0  0  0  0  0  0
    0.4560   -0.9170    0.0540 C   0  0  0  0  0  0  0  0  0  0  0  0
    1.7200   -1.4470    0.2170 C   0  0  0  0  0  0  0  0  0  0  0  0
    1.9640   -2.6400   -0.0780 O   0  0  0  0  0  0  0  0  0  0  0  0
    2.7220   -0.6940    0.6960 N   0  0  0  0  0  0  0  0  0  0  0  0
   -0.6070   -1.6840   -0.4450 O   0  0  0  0  0  0  0  0  0  0  0  0
   -1.8500   -1.1250   -0.8290 C   0  0  0  0  0  0  0  0  0  0  0  0
   -1.6480    0.3530   -1.0960 C   0  0  1  0  0  0  0  0  0  0  0  0
   -2.7970    0.9810   -1.5090 O   0  0  0  0  0  0  0  0  0  0  0  0
   -1.1160    0.9450    0.2110 C   0  0  0  0  0  0  0  0  0  0  0  0
  1  2  2  0
  2  3  1  0
  2  8  1  0
  3  4  1  0
  4  5  2  0
  4 13  1  0
  5  6  1  0
  5  9  1  0
  6  7  2  0
  6  8  1  0
  9 10  1  0
 10 11  1  0
 11 12  1  1
 11 13  1  0
M  END
