
     RDKit          3D

 13 14  0  0  0  0  0  0  0  0999 V2000
   -3.1680    0.6270    0.4700 N   0  0  0  0  0  0  0  0  0  0  0  0
   -1.9710   -0.1800    0.6540 C   0  0  2  0  0  0  0  0  0  0  0  0
   -0.7840    0.6090    0.9040 C   0  0  0  0  0  0  0  0  0  0  0  0
    0.3440    0.4380    0.2490 C   0  0  0  0  0  0  0  0  0  0  0  0
    1.4980    1.2590    0.5430 N   0  0  0  0  0  0  0  0  0  0  0  0
    2.6940    1.0420   -0.1860 C   0  0  0  0  0  0  0  0  0  0  0  0
    3.5110    1.9880   -0.2940 O   0  0  0  0  0  0  0  0  0  0  0  0
    2.9250   -0.2960   -0.7910 C   0  0  0  0  0  0  0  0  0  0  0  0
    1.7450   -0.7270   -1.4890 O   0  0  0  0  0  0  0  0  0  0  0  0
    0.5310   -0.5570   -0.7980 C   0  0  0  0  0  0  0  0  0  0  0  0
   -0.5180   -1.3150   -1.0800 C   0  0  0  0  0  0  0  0  0  0  0  0
   -1.7870   -1.1750   -0.3940 C   0  0  0  0  0  0  0  0  0  0  0  0
   -2.7150   -1.9680   -0.7630 O   0  0  0  0  0  0  0  0  0  0  0  0
  2  1  1  6
  2  3  1  0
  2 12  1  0
  3  4  2  0
  4  5  1  0
  4 10  1  0
  5  6  1  0
  6  7  2  0
  6  8  1  0
  8  9  1  0
  9 10  1  0
 10 11  2  0
 11 12  1  0
 12 13  2  0
M  END
