
     RDKit          3D

 13 14  0  0  0  0  0  0  0  0999 V2000
    2.6310   -1.2750   -1.3490 N   0  0  0  0  0  0  0  0  0  0  0  0
    2.4890   -0.3880   -0.2550 C   0  0  0  0  0  0  0  0  0  0  0  0
    3.5500    0.0560    0.5440 C   0  0  0  0  0  0  0  0  0  0  0  0
    3.0110    0.8760    1.4640 N   0  0  0  0  0  0  0  0  0  0  0  0
    1.6600    0.9580    1.2680 C   0  0  0  0  0  0  0  0  0  0  0  0
    1.3150    0.1710    0.1930 C   0  0  0  0  0  0  0  0  0  0  0  0
    0.0650   -0.0130   -0.3200 O   0  0  0  0  0  0  0  0  0  0  0  0
   -1.1240    0.5370    0.1130 C   0  0  1  0  0  0  0  0  0  0  0  0
   -1.9000    1.2840   -0.9250 C   0  0  0  0  0  0  0  0  0  0  0  0
   -3.2030    0.8540   -0.8970 O   0  0  0  0  0  0  0  0  0  0  0  0
   -3.2580   -0.3920   -0.3300 C   0  0  0  0  0  0  0  0  0  0  0  0
   -2.0500   -0.5680    0.5400 C   0  0  1  0  0  0  0  0  0  0  0  0
   -1.5200   -1.8320    0.3080 O   0  0  0  0  0  0  0  0  0  0  0  0
  1  2  1  0
  2  3  2  0
  2  6  1  0
  3  4  1  0
  4  5  1  0
  5  6  2  0
  6  7  1  0
  8  7  1  6
  8  9  1  0
  8 12  1  0
  9 10  1  0
 10 11  1  0
 11 12  1  0
 12 13  1  6
M  END
