
     RDKit          3D

 14 14  0  0  0  0  0  0  0  0999 V2000
    0.0780    2.3130    1.5410 C   0  0  0  0  0  0  0  0  0  0  0  0
   -0.3860    1.4480    0.6790 C   0  0  0  0  0  0  0  0  0  0  0  0
   -1.7170    1.7060    0.1800 N   0  0  0  0  0  0  0  0  0  0  0  0
   -2.5460    0.6870   -0.3730 C   0  0  0  0  0  0  0  0  0  0  0  0
   -3.7760    0.9480   -0.3150 O   0  0  0  0  0  0  0  0  0  0  0  0
   -2.1630   -0.5770   -0.9770 C   0  0  2  0  0  0  0  0  0  0  0  0
   -3.3240   -1.2950   -1.2650 O   0  0  0  0  0  0  0  0  0  0  0  0
   -1.2190   -1.4430   -0.2490 C   0  0  0  0  0  0  0  0  0  0  0  0
    0.0300   -0.9460    0.0720 O   0  0  0  0  0  0  0  0  0  0  0  0
    0.5010    0.3410    0.3320 C   0  0  0  0  0  0  0  0  0  0  0  0
    1.7730    0.5960    0.2700 C   0  0  0  0  0  0  0  0  0  0  0  0
    2.7490   -0.4770   -0.0760 C   0  0  1  0  0  0  0  0  0  0  0  0
    2.0960   -1.7490    0.0860 N   0  0  0  0  0  0  0  0  0  0  0  0
    3.2450   -0.2930   -1.3690 O   0  0  0  0  0  0  0  0  0  0  0  0
  1  2  2  0
  2  3  1  0
  2 10  1  0
  3  4  1  0
  4  5  2  0
  4  6  1  0
  6  7  1  1
  6  8  1  0
  8  9  1  0
  9 10  1  0
 10 11  2  3
 11 12  1  0
 12 13  1  6
 12 14  1  0
M  END
