
     RDKit          3D

 14 14  0  0  0  0  0  0  0  0999 V2000
    3.9620    0.4200    1.4350 C   0  0  0  0  0  0  0  0  0  0  0  0
    3.3170   -0.5210    0.5950 O   0  0  0  0  0  0  0  0  0  0  0  0
    2.1100   -0.1940   -0.0510 C   0  0  0  0  0  0  0  0  0  0  0  0
    1.6030    0.9450    0.1200 O   0  0  0  0  0  0  0  0  0  0  0  0
    1.4370   -1.1020   -0.8940 N   0  0  0  0  0  0  0  0  0  0  0  0
    0.1970   -0.7610   -1.5550 C   0  0  0  0  0  0  0  0  0  0  0  0
   -0.8770   -0.4180   -0.6020 C   0  0  0  0  0  0  0  0  0  0  0  0
   -1.4420    0.7570   -0.6260 C   0  0  0  0  0  0  0  0  0  0  0  0
   -2.5270    1.2190    0.2750 C   0  0  2  0  0  0  0  0  0  0  0  0
   -2.0350    2.4170    0.9350 N   0  0  0  0  0  0  0  0  0  0  0  0
   -2.8950    0.2370    1.1830 O   0  0  0  0  0  0  0  0  0  0  0  0
   -2.3240   -1.0100    1.2400 C   0  0  0  0  0  0  0  0  0  0  0  0
   -1.3500   -1.3650    0.3990 C   0  0  0  0  0  0  0  0  0  0  0  0
   -0.8110   -2.6390    0.5030 O   0  0  0  0  0  0  0  0  0  0  0  0
  1  2  1  0
  2  3  1  0
  3  4  2  0
  3  5  1  0
  5  6  1  0
  6  7  1  0
  7  8  2  0
  7 13  1  0
  8  9  1  0
  9 10  1  1
  9 11  1  0
 11 12  1  0
 12 13  2  0
 13 14  1  0
M  END
