
     RDKit          3D

 14 14  0  0  0  0  0  0  0  0999 V2000
    4.3970    0.7290   -0.5920 C   0  0  0  0  0  0  0  0  0  0  0  0
    3.1720    0.5010    0.0560 O   0  0  0  0  0  0  0  0  0  0  0  0
    2.4290   -0.6720   -0.0890 C   0  0  0  0  0  0  0  0  0  0  0  0
    2.8490   -1.5810   -0.8250 O   0  0  0  0  0  0  0  0  0  0  0  0
    1.1620   -0.7740    0.6500 C   0  0  0  0  0  0  0  0  0  0  0  0
   -0.0360   -0.4970   -0.2290 C   0  0  1  0  0  0  0  0  0  0  0  0
   -0.1200   -1.3790   -1.2790 O   0  0  0  0  0  0  0  0  0  0  0  0
   -1.3080   -0.5000    0.5920 C   0  0  0  0  0  0  0  0  0  0  0  0
   -2.4360   -0.2550   -0.3780 C   0  0  1  0  0  0  0  0  0  0  0  0
   -3.6890   -0.6960    0.1900 N   0  0  0  0  0  0  0  0  0  0  0  0
   -2.4410    1.2410   -0.6690 C   0  0  0  0  0  0  0  0  0  0  0  0
   -1.0780    1.7370   -0.6990 N   0  0  0  0  0  0  0  0  0  0  0  0
    0.0480    0.8790   -0.8290 C   0  0  0  0  0  0  0  0  0  0  0  0
    1.0560    1.2980   -1.4310 O   0  0  0  0  0  0  0  0  0  0  0  0
  1  2  1  0
  2  3  1  0
  3  4  2  0
  3  5  1  0
  5  6  1  0
  6  7  1  6
  6  8  1  0
  6 13  1  0
  8  9  1  0
  9 10  1  1
  9 11  1  0
 11 12  1  0
 12 13  1  0
 13 14  2  0
M  END
