
     RDKit          3D

 16 17  0  0  0  0  0  0  0  0999 V2000
   -4.8410    1.4490    1.5750 O   0  0  0  0  0  0  0  0  0  0  0  0
   -4.0310    1.5860    0.6790 C   0  0  0  0  0  0  0  0  0  0  0  0
   -4.1190    0.8540   -0.5870 C   0  0  2  0  0  0  0  0  0  0  0  0
   -4.6700   -0.5680   -0.4370 C   0  0  0  0  0  0  0  0  0  0  0  0
   -3.2300   -1.0240   -0.3120 C   0  0  0  0  0  0  0  0  0  0  0  0
   -2.8560    0.2290   -1.1030 C   0  0  2  0  0  0  0  0  0  0  0  0
   -1.3210    0.9160   -0.4270 S   0  0  0  0  0  0  0  0  0  0  0  0
    0.0370   -0.0160   -1.2170 C   0  0  0  0  0  0  0  0  0  0  0  0
    1.3210    0.4130   -0.7830 N   0  0  0  0  0  0  0  0  0  0  0  0
    1.6820    0.3380    0.5800 C   0  0  0  0  0  0  0  0  0  0  0  0
    0.8490   -0.1140    1.4030 O   0  0  0  0  0  0  0  0  0  0  0  0
    3.0190    0.7830    1.0450 C   0  0  1  0  0  0  0  0  0  0  0  0
    3.7490   -0.4540    1.5640 C   0  0  0  0  0  0  0  0  0  0  0  0
    4.9600   -0.4820    0.6710 C   0  0  0  0  0  0  0  0  0  0  0  0
    4.4800    0.2210   -0.5060 N   0  0  0  0  0  0  0  0  0  0  0  0
    3.7410    1.2320   -0.0330 O   0  0  0  0  0  0  0  0  0  0  0  0
  1  2  2  0
  3  2  1  1
  3  4  1  0
  3  6  1  0
  4  5  1  0
  5  6  1  0
  6  7  1  1
  7  8  1  0
  8  9  1  0
  9 10  1  0
 10 11  2  0
 12 10  1  6
 12 13  1  0
 12 16  1  0
 13 14  1  0
 14 15  1  0
 15 16  1  0
M  END
