
     RDKit          3D

 20 21  0  0  0  0  0  0  0  0999 V2000
   -5.0690   -1.8240   -0.4390 C   0  0  0  0  0  0  0  0  0  0  0  0
   -4.4410   -0.5320    0.0620 C   0  0  0  0  0  0  0  0  0  0  0  0
   -2.9640   -0.6610   -0.1340 C   0  0  0  0  0  0  0  0  0  0  0  0
   -2.1650    0.5300    0.3070 C   0  0  2  0  0  0  0  0  0  0  0  0
   -2.4850    1.7700   -0.3620 C   0  0  0  0  0  0  0  0  0  0  0  0
   -3.7590    2.3800   -0.3120 N   0  0  0  0  0  0  0  0  0  0  0  0
   -1.3620    2.5510   -1.2370 S   0  0  0  0  0  0  0  0  0  0  0  0
   -0.7770    0.1490    0.2750 N   0  0  2  0  0  0  0  0  0  0  0  0
    0.1110    1.0740    0.9570 C   0  0  0  0  0  0  0  0  0  0  0  0
    1.3750    0.2500    1.2630 C   0  0  0  0  0  0  0  0  0  0  0  0
    1.9430   -0.0630   -0.0350 N   0  0  0  0  0  0  0  0  0  0  0  0
    3.2890   -0.5140   -0.1180 C   0  0  0  0  0  0  0  0  0  0  0  0
    3.6000   -1.6780   -0.5830 N   0  0  0  0  0  0  0  0  0  0  0  0
    4.9600   -2.1630   -0.6790 C   0  0  0  0  0  0  0  0  0  0  0  0
    5.9120   -1.2500   -0.2190 O   0  0  0  0  0  0  0  0  0  0  0  0
    5.6230   -0.0080    0.2810 C   0  0  0  0  0  0  0  0  0  0  0  0
    4.3500    0.3760    0.3410 C   0  0  0  0  0  0  0  0  0  0  0  0
    4.0690    1.6730    0.8650 N   0  0  0  0  0  0  0  0  0  0  0  0
    1.1480    0.0830   -1.2380 C   0  0  0  0  0  0  0  0  0  0  0  0
   -0.2940   -0.2740   -1.0100 C   0  0  0  0  0  0  0  0  0  0  0  0
  1  2  1  0
  2  3  1  0
  4  3  1  6
  4  5  1  0
  4  8  1  0
  5  6  1  0
  5  7  2  0
  8  9  1  6
  8 20  1  0
  9 10  1  0
 10 11  1  0
 11 12  1  0
 11 19  1  0
 12 13  2  0
 12 17  1  0
 13 14  1  0
 14 15  1  0
 15 16  1  0
 16 17  2  0
 17 18  1  0
 19 20  1  0
M  CHG  1   8   1
M  END
