
     RDKit          3D

 20 22  0  0  0  0  0  0  0  0999 V2000
    4.8600   -1.0850    0.7120 N   0  0  0  0  0  0  0  0  0  0  0  0
    3.7520   -0.5710   -0.0700 C   0  0  2  0  0  0  0  0  0  0  0  0
    3.6470    0.9000    0.2330 C   0  0  0  0  0  0  0  0  0  0  0  0
    2.7210    1.6700   -0.6270 C   0  0  0  0  0  0  0  0  0  0  0  0
    1.4180    1.7120    0.0010 N   0  0  0  0  0  0  0  0  0  0  0  0
    0.5050    0.4080    0.0720 S   0  0  2  0  0  0  0  0  0  0  0  0
    0.4550   -0.0860   -1.3220 O   0  0  0  0  0  0  0  0  0  0  0  0
   -0.9570    0.7930    0.8020 N   0  0  0  0  0  0  0  0  0  0  0  0
   -2.1690    0.4740    0.1490 C   0  0  2  0  0  0  0  0  0  0  0  0
   -2.3790   -0.9940    0.1020 C   0  0  0  0  0  0  0  0  0  0  0  0
   -3.3240   -1.5540    0.8190 N   0  0  0  0  0  0  0  0  0  0  0  0
   -3.3290   -2.9440    0.6070 C   0  0  0  0  0  0  0  0  0  0  0  0
   -2.4170   -3.2770   -0.2220 N   0  0  0  0  0  0  0  0  0  0  0  0
   -1.7230   -2.0790   -0.6240 C   0  0  0  0  0  0  0  0  0  0  0  0
   -2.3430    1.0970   -1.2190 C   0  0  0  0  0  0  0  0  0  0  0  0
   -2.5450    2.5700   -0.8400 C   0  0  0  0  0  0  0  0  0  0  0  0
   -3.5820    2.4560    0.2350 C   0  0  0  0  0  0  0  0  0  0  0  0
   -3.2870    1.1660    0.9200 C   0  0  0  0  0  0  0  0  0  0  0  0
    1.4990   -0.7370    1.0250 C   0  0  0  0  0  0  0  0  0  0  0  0
    2.4970   -1.3350    0.1090 C   0  0  0  0  0  0  0  0  0  0  0  0
  2  1  1  1
  2  3  1  0
  2 20  1  0
  3  4  1  0
  4  5  1  0
  5  6  2  0
  6  7  2  0
  6  8  1  1
  6 19  1  0
  9  8  1  1
  9 10  1  0
  9 15  1  0
  9 18  1  0
 10 11  2  0
 10 14  1  0
 11 12  1  0
 12 13  2  0
 13 14  1  0
 15 16  1  0
 16 17  1  0
 17 18  1  0
 19 20  1  0
M  CHG  2   1   1  13   1
M  END
