
     RDKit          3D

 20 22  0  0  0  0  0  0  0  0999 V2000
    5.5410   -1.3470   -0.2150 C   0  0  0  0  0  0  0  0  0  0  0  0
    5.6490    0.0080   -0.8370 C   0  0  0  0  0  0  0  0  0  0  0  0
    4.9280    1.0720   -0.0450 C   0  0  1  0  0  0  0  0  0  0  0  0
    5.0840    2.3470   -0.7150 N   0  0  0  0  0  0  0  0  0  0  0  0
    3.4890    0.7170   -0.0560 C   0  0  0  0  0  0  0  0  0  0  0  0
    2.7020   -0.1880   -0.2560 N   0  0  0  0  0  0  0  0  0  0  0  0
    1.4390   -0.0910   -0.1550 N   0  0  0  0  0  0  0  0  0  0  0  0
    0.8290    0.9500    0.1650 C   0  0  0  0  0  0  0  0  0  0  0  0
   -0.4980    1.4720    0.3860 C   0  0  0  0  0  0  0  0  0  0  0  0
   -0.6840    2.6700    0.7220 O   0  0  0  0  0  0  0  0  0  0  0  0
   -1.6330    0.6320    0.2250 N   0  0  0  0  0  0  0  0  0  0  0  0
   -2.8930    1.2630    0.4690 C   0  0  0  0  0  0  0  0  0  0  0  0
   -3.9290    0.9380   -0.5790 C   0  0  0  0  0  0  0  0  0  0  0  0
   -4.3950   -0.4890   -0.5080 C   0  0  2  0  0  0  0  0  0  0  0  0
   -4.5570   -0.9790    0.9090 C   0  0  0  0  0  0  0  0  0  0  0  0
   -3.2480   -1.6390    1.2220 C   0  0  0  0  0  0  0  0  0  0  0  0
   -2.5120   -1.6610   -0.0750 C   0  0  2  0  0  0  0  0  0  0  0  0
   -1.3420   -0.7380   -0.1590 C   0  0  0  0  0  0  0  0  0  0  0  0
   -3.4750   -1.4040   -1.1310 N   0  0  0  0  0  0  0  0  0  0  0  0
    2.3230    2.0850    0.3860 S   0  0  0  0  0  0  0  0  0  0  0  0
  1  2  1  0
  2  3  1  0
  3  4  1  6
  3  5  1  0
  5  6  2  0
  5 20  1  0
  6  7  1  0
  7  8  2  0
  8  9  1  0
  8 20  1  0
  9 10  2  0
  9 11  1  0
 11 12  1  0
 11 18  1  0
 12 13  1  0
 14 13  1  1
 14 15  1  0
 14 19  1  0
 15 16  1  0
 17 16  1  1
 17 18  1  0
 17 19  1  0
M  CHG  1  19   1
M  END
