
     RDKit          3D

 16 17  0  0  0  0  0  0  0  0999 V2000
   -2.7690    2.3780    0.6300 N   0  0  0  0  0  0  0  0  0  0  0  0
   -3.1960    1.1050    0.0910 C   0  0  0  0  0  0  0  0  0  0  0  0
   -4.4160    0.9500   -0.2540 N   0  0  0  0  0  0  0  0  0  0  0  0
   -5.0070   -0.5470   -0.9090 S   0  0  0  0  0  0  0  0  0  0  0  0
   -3.6780   -1.7350   -0.9990 C   0  0  2  0  0  0  0  0  0  0  0  0
   -4.0160   -2.8620   -0.1900 O   0  0  0  0  0  0  0  0  0  0  0  0
   -2.4170   -1.1630   -0.5010 C   0  0  0  0  0  0  0  0  0  0  0  0
   -2.1830    0.0330   -0.0340 C   0  0  0  0  0  0  0  0  0  0  0  0
   -0.8870    0.3970    0.4010 O   0  0  0  0  0  0  0  0  0  0  0  0
    0.1480   -0.5410    0.2990 C   0  0  0  0  0  0  0  0  0  0  0  0
    1.4650    0.0120    0.8070 C   0  0  2  0  0  0  0  0  0  0  0  0
    1.9040    1.2200    0.0450 C   0  0  0  0  0  0  0  0  0  0  0  0
    3.1080    0.9520   -0.8250 C   0  0  0  0  0  0  0  0  0  0  0  0
    4.1890    0.3530    0.0130 C   0  0  0  0  0  0  0  0  0  0  0  0
    3.7330   -0.5690    0.9440 O   0  0  0  0  0  0  0  0  0  0  0  0
    2.5020   -1.0860    0.6010 C   0  0  0  0  0  0  0  0  0  0  0  0
  1  2  1  0
  2  3  2  0
  2  8  1  0
  3  4  1  0
  4  5  1  0
  5  6  1  1
  5  7  1  0
  7  8  2  0
  8  9  1  0
  9 10  1  0
 11 10  1  6
 11 12  1  0
 11 16  1  0
 12 13  1  0
 13 14  1  0
 14 15  1  0
 15 16  1  0
M  END
