
     RDKit          3D

 19 20  0  0  0  0  0  0  0  0999 V2000
    5.4910    1.6550   -2.4340 C   0  0  0  0  0  0  0  0  0  0  0  0
    4.7910    0.6140   -1.6040 C   0  0  0  0  0  0  0  0  0  0  0  0
    3.5070    0.3830   -1.5820 N   0  0  0  0  0  0  0  0  0  0  0  0
    3.2460   -0.6730   -0.6760 C   0  0  0  0  0  0  0  0  0  0  0  0
    2.0900   -1.2270   -0.3470 C   0  0  0  0  0  0  0  0  0  0  0  0
    0.5430   -0.7000   -1.0410 S   0  0  0  0  0  0  0  0  0  0  0  0
   -0.3820    0.2450    0.2050 C   0  0  2  0  0  0  0  0  0  0  0  0
   -0.7480   -0.7050    1.3200 C   0  0  0  0  0  0  0  0  0  0  0  0
   -2.1150   -1.1930    0.8420 C   0  0  1  0  0  0  0  0  0  0  0  0
   -1.9510   -2.2880   -0.1870 C   0  0  0  0  0  0  0  0  0  0  0  0
   -2.8590   -1.6940    2.0480 C   0  0  0  0  0  0  0  0  0  0  0  0
   -2.6920   -0.1120    0.2340 O   0  0  0  0  0  0  0  0  0  0  0  0
   -1.7230    0.6880   -0.3170 C   0  0  1  0  0  0  0  0  0  0  0  0
   -1.9630    2.1050    0.1410 C   0  0  0  0  0  0  0  0  0  0  0  0
   -3.2920    2.6420   -0.3360 C   0  0  0  0  0  0  0  0  0  0  0  0
   -4.4140    1.8860    0.1260 N   0  0  0  0  0  0  0  0  0  0  0  0
    4.5410   -1.0680   -0.1370 C   0  0  0  0  0  0  0  0  0  0  0  0
    4.7970   -2.0920    0.8160 N   0  0  0  0  0  0  0  0  0  0  0  0
    5.3900   -0.2970   -0.7040 N   0  0  0  0  0  0  0  0  0  0  0  0
  1  2  1  0
  2  3  2  0
  2 19  1  0
  3  4  1  0
  4  5  2  3
  4 17  1  0
  5  6  1  0
  7  6  1  6
  7  8  1  0
  7 13  1  0
  8  9  1  0
  9 10  1  6
  9 11  1  0
  9 12  1  0
 12 13  1  0
 13 14  1  1
 14 15  1  0
 15 16  1  0
 17 18  1  0
 17 19  2  0
M  CHG  1  16   1
M  END
