
     RDKit          3D

 20 22  0  0  0  0  0  0  0  0999 V2000
    3.9070   -2.1180    0.5130 C   0  0  0  0  0  0  0  0  0  0  0  0
    3.9450   -0.8110   -0.2740 C   0  0  2  0  0  0  0  0  0  0  0  0
    4.5620    0.1290    0.5800 O   0  0  0  0  0  0  0  0  0  0  0  0
    4.2200    1.3650    0.0260 C   0  0  0  0  0  0  0  0  0  0  0  0
    2.7380    1.2020   -0.3050 C   0  0  0  0  0  0  0  0  0  0  0  0
    2.5460   -0.2750   -0.5000 C   0  0  2  0  0  0  0  0  0  0  0  0
    1.6840   -0.8720    0.4750 N   0  0  0  0  0  0  0  0  0  0  0  0
    0.3340   -0.4840    0.3630 C   0  0  0  0  0  0  0  0  0  0  0  0
   -0.4940   -0.7290    1.4370 C   0  0  0  0  0  0  0  0  0  0  0  0
   -1.8390   -0.3710    1.3920 C   0  0  0  0  0  0  0  0  0  0  0  0
   -2.3800    0.2300    0.2950 C   0  0  0  0  0  0  0  0  0  0  0  0
   -3.7550    0.5730    0.3050 N   0  0  0  0  0  0  0  0  0  0  0  0
   -4.7300   -0.0510   -0.3760 C   0  0  0  0  0  0  0  0  0  0  0  0
   -4.6260   -1.0580   -1.1530 N   0  0  0  0  0  0  0  0  0  0  0  0
   -5.9200    0.5660   -0.1140 N   0  0  0  0  0  0  0  0  0  0  0  0
   -5.6780    1.5600    0.7200 N   0  0  0  0  0  0  0  0  0  0  0  0
   -4.3420    1.5720    0.9840 C   0  0  0  0  0  0  0  0  0  0  0  0
   -3.5990    2.6400    1.9710 S   0  0  0  0  0  0  0  0  0  0  0  0
   -1.5600    0.4820   -0.7870 C   0  0  0  0  0  0  0  0  0  0  0  0
   -0.2190    0.1240   -0.7420 C   0  0  0  0  0  0  0  0  0  0  0  0
  2  1  1  1
  2  3  1  0
  2  6  1  0
  3  4  1  0
  4  5  1  0
  5  6  1  0
  6  7  1  1
  7  8  1  0
  8  9  2  0
  8 20  1  0
  9 10  1  0
 10 11  2  0
 11 12  1  0
 11 19  1  0
 12 13  1  0
 12 17  1  0
 13 14  2  0
 13 15  1  0
 15 16  1  0
 16 17  1  0
 17 18  2  0
 19 20  2  0
M  CHG  1   7   1
M  END
