
     RDKit          3D

 20 21  0  0  0  0  0  0  0  0999 V2000
   -6.8060    0.3440    0.5010 C   0  0  0  0  0  0  0  0  0  0  0  0
   -5.6820    0.3820   -0.1870 C   0  0  0  0  0  0  0  0  0  0  0  0
   -5.2450   -0.7730   -1.0280 C   0  0  0  0  0  0  0  0  0  0  0  0
   -3.7990   -1.0900   -0.8690 C   0  0  0  0  0  0  0  0  0  0  0  0
   -3.0560   -0.0760   -0.1570 N   0  0  0  0  0  0  0  0  0  0  0  0
   -3.5260    1.2640   -0.1770 C   0  0  0  0  0  0  0  0  0  0  0  0
   -2.3750    2.6320   -0.1730 S   0  0  0  0  0  0  0  0  0  0  0  0
   -0.6860    2.0340   -0.1540 C   0  0  0  0  0  0  0  0  0  0  0  0
   -0.3820    1.3210   -1.4750 C   0  0  0  0  0  0  0  0  0  0  0  0
    0.9800    0.8750   -1.3770 O   0  0  0  0  0  0  0  0  0  0  0  0
    1.3640   -0.0050   -0.3690 C   0  0  0  0  0  0  0  0  0  0  0  0
    0.5790   -0.8900    0.1190 N   0  0  0  0  0  0  0  0  0  0  0  0
    1.1760   -1.6270    1.1050 N   0  0  0  0  0  0  0  0  0  0  0  0
    2.5290   -1.1360    1.2800 C   0  0  0  0  0  0  0  0  0  0  0  0
    3.3440   -1.5990    2.2060 C   0  0  0  0  0  0  0  0  0  0  0  0
    2.7190   -0.0810    0.2920 C   0  0  1  0  0  0  0  0  0  0  0  0
    3.7550   -0.3070   -0.7560 C   0  0  0  0  0  0  0  0  0  0  0  0
    5.1400   -0.3980   -0.2080 C   0  0  0  0  0  0  0  0  0  0  0  0
    5.5200    0.7720    0.5330 N   0  0  0  0  0  0  0  0  0  0  0  0
   -4.7970    1.5010   -0.1920 N   0  0  0  0  0  0  0  0  0  0  0  0
  1  2  2  0
  2  3  1  0
  2 20  1  0
  3  4  1  0
  4  5  1  0
  5  6  1  0
  6  7  1  0
  6 20  2  0
  7  8  1  0
  8  9  1  0
  9 10  1  0
 10 11  1  0
 11 12  2  0
 11 16  1  0
 12 13  1  0
 13 14  1  0
 14 15  2  0
 14 16  1  0
 16 17  1  6
 17 18  1  0
 18 19  1  0
M  CHG  1  19   1
M  END
