
     RDKit          3D

 20 22  0  0  0  0  0  0  0  0999 V2000
   -5.9790    2.4990    0.7690 N   0  0  0  0  0  0  0  0  0  0  0  0
   -5.0800    1.4550    0.5360 N   0  0  0  0  0  0  0  0  0  0  0  0
   -5.3390    0.2800   -0.0810 C   0  0  0  0  0  0  0  0  0  0  0  0
   -4.1960   -0.4970   -0.1200 C   0  0  0  0  0  0  0  0  0  0  0  0
   -3.2020    0.2340    0.4970 C   0  0  0  0  0  0  0  0  0  0  0  0
   -1.7970   -0.2110    0.6850 C   0  0  2  0  0  0  0  0  0  0  0  0
   -1.0600    0.0540   -0.5990 C   0  0  0  0  0  0  0  0  0  0  0  0
    0.1430   -0.8430   -0.7790 C   0  0  1  0  0  0  0  0  0  0  0  0
    1.1300   -0.6260    0.2590 N   0  0  0  0  0  0  0  0  0  0  0  0
    2.4250   -0.6680   -0.3450 C   0  0  0  0  0  0  0  0  0  0  0  0
    3.5420   -0.3710    0.6240 C   0  0  1  0  0  0  0  0  0  0  0  0
    4.8720   -0.4370   -0.0960 C   0  0  0  0  0  0  0  0  0  0  0  0
    5.0520    0.8480   -0.8480 C   0  0  0  0  0  0  0  0  0  0  0  0
    5.0420    1.9300    0.2410 C   0  0  0  0  0  0  0  0  0  0  0  0
    3.5150    1.3970    1.1200 S   0  0  0  0  0  0  0  0  0  0  0  0
   -0.3480   -2.2440   -0.7270 C   0  0  0  0  0  0  0  0  0  0  0  0
    0.1760   -3.1600   -1.4130 O   0  0  0  0  0  0  0  0  0  0  0  0
   -1.4560   -2.4930    0.1530 N   0  0  0  0  0  0  0  0  0  0  0  0
   -1.7010   -1.5600    1.1460 N   0  0  0  0  0  0  0  0  0  0  0  0
   -3.7830    1.4150    0.8820 C   0  0  0  0  0  0  0  0  0  0  0  0
  1  2  1  0
  2  3  1  0
  2 20  1  0
  3  4  2  0
  4  5  1  0
  6  5  1  6
  5 20  2  0
  6  7  1  0
  6 19  1  0
  7  8  1  0
  8  9  1  1
  8 16  1  0
  9 10  1  0
 11 10  1  6
 11 12  1  0
 11 15  1  0
 12 13  1  0
 13 14  1  0
 14 15  1  0
 16 17  2  0
 16 18  1  0
 18 19  1  0
M  CHG  1   9   1
M  END
