
     RDKit          3D

 21 21  0  0  0  0  0  0  0  0999 V2000
   -0.8350   -3.5590    0.7440 C   0  0  0  0  0  0  0  0  0  0  0  0
   -0.1260   -2.2040    0.6860 C   0  0  2  0  0  0  0  0  0  0  0  0
    1.2160   -2.5050    0.4630 O   0  0  0  0  0  0  0  0  0  0  0  0
   -0.1870   -1.5940    1.9560 O   0  0  0  0  0  0  0  0  0  0  0  0
   -1.3540   -0.8440    2.0170 C   0  0  0  0  0  0  0  0  0  0  0  0
   -1.3500    0.3390    1.1240 C   0  0  2  0  0  0  0  0  0  0  0  0
   -2.6700    0.6610    0.8030 O   0  0  0  0  0  0  0  0  0  0  0  0
   -0.5090    0.1740   -0.1380 C   0  0  2  0  0  0  0  0  0  0  0  0
    0.8900    0.5220    0.1380 C   0  0  0  0  0  0  0  0  0  0  0  0
    1.8580    0.4050   -1.0050 C   0  0  0  0  0  0  0  0  0  0  0  0
    3.2040    0.8360   -0.4800 C   0  0  0  0  0  0  0  0  0  0  0  0
    4.2110    0.8380   -1.2290 O   0  0  0  0  0  0  0  0  0  0  0  0
    3.3700    1.2400    0.8320 O   0  0  0  0  0  0  0  0  0  0  0  0
    4.5210    1.6320    1.3640 O   0  0  0  0  0  0  0  0  0  0  0  0
   -1.1870    0.7900   -1.3080 C   0  0  0  0  0  0  0  0  0  0  0  0
   -1.5640    2.1590   -1.2770 N   0  0  0  0  0  0  0  0  0  0  0  0
   -0.7810    3.3200   -1.1810 C   0  0  0  0  0  0  0  0  0  0  0  0
    0.4510    3.2790   -1.1150 O   0  0  0  0  0  0  0  0  0  0  0  0
   -1.3780    4.6070   -1.1550 O   0  0  0  0  0  0  0  0  0  0  0  0
   -0.6330   -1.3610   -0.4160 C   0  0  1  0  0  0  0  0  0  0  0  0
   -0.0630   -1.5830   -1.6530 O   0  0  0  0  0  0  0  0  0  0  0  0
  2  1  1  1
  2  3  1  0
  2  4  1  0
  2 20  1  0
  4  5  1  0
  5  6  1  0
  6  7  1  6
  6  8  1  0
  8  9  1  1
  8 15  1  0
  8 20  1  0
  9 10  1  0
 10 11  1  0
 11 12  2  0
 11 13  1  0
 13 14  1  0
 15 16  1  0
 16 17  1  0
 17 18  2  0
 17 19  1  0
 20 21  1  6
M  END
