
     RDKit          3D

 20 20  0  0  0  0  0  0  0  0999 V2000
    5.4780    0.9380   -1.2250 O   0  0  0  0  0  0  0  0  0  0  0  0
    4.9090   -0.2220   -0.7000 C   0  0  0  0  0  0  0  0  0  0  0  0
    3.5760    0.1190   -0.0760 C   0  0  1  0  0  0  0  0  0  0  0  0
    2.6990    0.7020   -1.1910 C   0  0  0  0  0  0  0  0  0  0  0  0
    1.5720    1.2120   -0.6040 O   0  0  0  0  0  0  0  0  0  0  0  0
    0.8600    0.2530    0.1340 C   0  0  1  0  0  0  0  0  0  0  0  0
    1.0400    0.5940    1.4750 O   0  0  0  0  0  0  0  0  0  0  0  0
   -0.5800    0.4030   -0.2370 C   0  0  1  0  0  0  0  0  0  0  0  0
   -0.7940    0.1990   -1.5980 O   0  0  0  0  0  0  0  0  0  0  0  0
   -1.5350   -0.4060    0.5330 C   0  0  0  0  0  0  0  0  0  0  0  0
   -2.9790   -0.2450    0.1400 C   0  0  1  0  0  0  0  0  0  0  0  0
   -3.2130   -0.5940   -1.2020 O   0  0  0  0  0  0  0  0  0  0  0  0
   -3.7760   -1.2830    0.9620 C   0  0  0  0  0  0  0  0  0  0  0  0
   -3.2920   -2.5600    0.6560 O   0  0  0  0  0  0  0  0  0  0  0  0
   -3.5620    1.1040    0.3640 C   0  0  0  0  0  0  0  0  0  0  0  0
   -3.0290    2.1400   -0.4640 N   0  0  0  0  0  0  0  0  0  0  0  0
   -3.5890    3.3460   -0.2230 O   0  0  0  0  0  0  0  0  0  0  0  0
    1.4180   -1.1210   -0.0570 C   0  0  0  0  0  0  0  0  0  0  0  0
    2.8630   -1.0720    0.4650 C   0  0  1  0  0  0  0  0  0  0  0  0
    3.5220   -2.2680    0.2390 O   0  0  0  0  0  0  0  0  0  0  0  0
  1  2  1  0
  3  2  1  6
  3  4  1  0
  3 19  1  0
  4  5  1  0
  5  6  1  0
  6  7  1  1
  6  8  1  0
  6 18  1  0
  8  9  1  6
  8 10  1  0
 10 11  1  0
 11 12  1  6
 11 13  1  0
 11 15  1  0
 13 14  1  0
 15 16  1  0
 16 17  1  0
 18 19  1  0
 19 20  1  6
M  END
