
     RDKit          3D

 21 21  0  0  0  0  0  0  0  0999 V2000
    1.7000    1.3770    2.1960 C   0  0  0  0  0  0  0  0  0  0  0  0
    1.5110    0.7090    0.8120 C   0  0  1  0  0  0  0  0  0  0  0  0
    0.1810    0.1080    0.7880 C   0  0  2  0  0  0  0  0  0  0  0  0
    0.1230   -0.9210    1.7550 O   0  0  0  0  0  0  0  0  0  0  0  0
   -0.4040   -0.2790   -0.5240 C   0  0  0  0  0  0  0  0  0  0  0  0
   -1.7690   -0.8730   -0.3480 C   0  0  2  0  0  0  0  0  0  0  0  0
   -1.7090   -2.0290    0.4690 O   0  0  0  0  0  0  0  0  0  0  0  0
   -2.3310   -1.3040   -1.6520 C   0  0  0  0  0  0  0  0  0  0  0  0
   -2.7050   -2.6370   -1.9300 N   0  0  0  0  0  0  0  0  0  0  0  0
   -2.4820   -0.4340   -2.5600 O   0  0  0  0  0  0  0  0  0  0  0  0
   -2.7720    0.0340    0.3180 C   0  0  2  0  0  0  0  0  0  0  0  0
   -4.0050   -0.6730    0.3940 O   0  0  0  0  0  0  0  0  0  0  0  0
   -3.0550    1.2760   -0.4060 C   0  0  0  0  0  0  0  0  0  0  0  0
   -4.1990    1.5100   -0.8460 O   0  0  0  0  0  0  0  0  0  0  0  0
   -2.0620    2.2070   -0.6120 O   0  0  0  0  0  0  0  0  0  0  0  0
    1.7450    1.7250   -0.0950 O   0  0  0  0  0  0  0  0  0  0  0  0
    3.1030    1.9680    0.0440 C   0  0  0  0  0  0  0  0  0  0  0  0
    3.6950    0.8840    0.6500 O   0  0  0  0  0  0  0  0  0  0  0  0
    2.7120   -0.1470    0.6470 C   0  0  2  0  0  0  0  0  0  0  0  0
    2.8840   -0.8170   -0.6790 C   0  0  0  0  0  0  0  0  0  0  0  0
    2.6670    0.0830   -1.7180 O   0  0  0  0  0  0  0  0  0  0  0  0
  2  1  1  1
  2  3  1  0
  2 16  1  0
  2 19  1  0
  3  4  1  1
  3  5  1  0
  5  6  1  0
  6  7  1  1
  6  8  1  0
  6 11  1  0
  8  9  1  0
  8 10  2  0
 11 12  1  6
 11 13  1  0
 13 14  2  0
 13 15  1  0
 16 17  1  0
 17 18  1  0
 18 19  1  0
 19 20  1  6
 20 21  1  0
M  END
