
     RDKit          3D

 21 21  0  0  0  0  0  0  0  0999 V2000
    5.4930    2.1110   -0.2460 N   0  0  0  0  0  0  0  0  0  0  0  0
    4.8910    1.1160    0.6090 C   0  0  0  0  0  0  0  0  0  0  0  0
    5.6490    0.2770    1.1190 O   0  0  0  0  0  0  0  0  0  0  0  0
    3.5560    1.0740    0.8660 O   0  0  0  0  0  0  0  0  0  0  0  0
    2.9040    0.1590    1.6630 C   0  0  0  0  0  0  0  0  0  0  0  0
    2.9640   -1.2720    1.2750 C   0  0  2  0  0  0  0  0  0  0  0  0
    4.1930   -1.8550    1.2100 O   0  0  0  0  0  0  0  0  0  0  0  0
    2.2310   -1.4730   -0.0570 C   0  0  2  0  0  0  0  0  0  0  0  0
    2.9960   -0.8800   -1.0510 O   0  0  0  0  0  0  0  0  0  0  0  0
    0.9810   -0.8820    0.0870 O   0  0  0  0  0  0  0  0  0  0  0  0
   -0.0150   -1.8590   -0.0650 C   0  0  0  0  0  0  0  0  0  0  0  0
   -1.2710   -1.2760    0.0770 O   0  0  0  0  0  0  0  0  0  0  0  0
   -1.4680   -0.2970   -0.8700 C   0  0  2  0  0  0  0  0  0  0  0  0
   -1.7170    1.0460   -0.2230 C   0  0  0  0  0  0  0  0  0  0  0  0
   -3.1860    1.3150   -0.2870 C   0  0  2  0  0  0  0  0  0  0  0  0
   -3.4050    2.5240   -0.9360 O   0  0  0  0  0  0  0  0  0  0  0  0
   -3.8240    1.3860    1.0710 C   0  0  0  0  0  0  0  0  0  0  0  0
   -5.1890    1.6130    0.8890 O   0  0  0  0  0  0  0  0  0  0  0  0
   -3.8170    0.2120   -1.1000 C   0  0  0  0  0  0  0  0  0  0  0  0
   -2.6890   -0.5580   -1.7290 C   0  0  2  0  0  0  0  0  0  0  0  0
   -3.0340   -1.8870   -1.7940 O   0  0  0  0  0  0  0  0  0  0  0  0
  1  2  1  0
  2  3  2  0
  2  4  1  0
  4  5  1  0
  5  6  1  0
  6  7  1  6
  6  8  1  0
  8  9  1  6
  8 10  1  0
 10 11  1  0
 11 12  1  0
 13 12  1  1
 13 14  1  0
 13 20  1  0
 14 15  1  0
 15 16  1  6
 15 17  1  0
 15 19  1  0
 17 18  1  0
 19 20  1  0
 20 21  1  1
M  END
