
     RDKit          3D

 21 21  0  0  0  0  0  0  0  0999 V2000
    3.4760   -2.9750    0.5920 C   0  0  0  0  0  0  0  0  0  0  0  0
    2.4350   -2.1120   -0.0600 C   0  0  0  0  0  0  0  0  0  0  0  0
    2.0220   -2.3840   -1.2130 O   0  0  0  0  0  0  0  0  0  0  0  0
    1.8930   -0.9790    0.5960 N   0  0  0  0  0  0  0  0  0  0  0  0
    0.8700   -0.1070    0.0020 C   0  0  2  0  0  0  0  0  0  0  0  0
    1.6760    1.1130   -0.4700 C   0  0  1  0  0  0  0  0  0  0  0  0
    2.6100    0.7880   -1.4110 O   0  0  0  0  0  0  0  0  0  0  0  0
    0.6090    2.0680   -0.9820 C   0  0  0  0  0  0  0  0  0  0  0  0
   -0.0620    2.5710    0.2920 C   0  0  1  0  0  0  0  0  0  0  0  0
    0.8990    3.4750    0.8290 O   0  0  0  0  0  0  0  0  0  0  0  0
   -1.2470    3.3890   -0.0480 C   0  0  0  0  0  0  0  0  0  0  0  0
   -2.2760    2.8800   -0.5540 O   0  0  0  0  0  0  0  0  0  0  0  0
   -1.2610    4.7500    0.1830 O   0  0  0  0  0  0  0  0  0  0  0  0
   -0.2510    1.6350    1.2410 O   0  0  0  0  0  0  0  0  0  0  0  0
   -0.1920    0.3060    0.9460 C   0  0  1  0  0  0  0  0  0  0  0  0
   -1.5780   -0.2620    0.6550 C   0  0  2  0  0  0  0  0  0  0  0  0
   -2.3480    0.0090    1.8370 O   0  0  0  0  0  0  0  0  0  0  0  0
   -1.6080   -1.7550    0.5430 C   0  0  2  0  0  0  0  0  0  0  0  0
   -0.9560   -2.2690   -0.5560 O   0  0  0  0  0  0  0  0  0  0  0  0
   -3.0460   -2.2750    0.4800 C   0  0  0  0  0  0  0  0  0  0  0  0
   -3.6140   -1.8190   -0.7240 O   0  0  0  0  0  0  0  0  0  0  0  0
  1  2  1  0
  2  3  2  0
  2  4  1  0
  5  4  1  1
  5  6  1  0
  5 15  1  0
  6  7  1  6
  6  8  1  0
  8  9  1  0
  9 10  1  1
  9 11  1  0
  9 14  1  0
 11 12  2  0
 11 13  1  0
 15 14  1  6
 15 16  1  0
 16 17  1  1
 16 18  1  0
 18 19  1  6
 18 20  1  0
 20 21  1  0
M  END
