
     RDKit          3D

 21 21  0  0  0  0  0  0  0  0999 V2000
   -5.5780   -0.1600    0.7340 N   0  0  0  0  0  0  0  0  0  0  0  0
   -4.3100   -0.5350    0.2100 C   0  0  0  0  0  0  0  0  0  0  0  0
   -3.8110   -1.6810    0.3900 O   0  0  0  0  0  0  0  0  0  0  0  0
   -3.5100    0.4650   -0.5970 C   0  0  2  0  0  0  0  0  0  0  0  0
   -4.4070    1.0220   -1.6880 C   0  0  0  0  0  0  0  0  0  0  0  0
   -5.5660    1.4820   -1.0400 O   0  0  0  0  0  0  0  0  0  0  0  0
   -2.3440   -0.0270   -1.0210 O   0  0  0  0  0  0  0  0  0  0  0  0
   -1.1470    0.4210   -0.5710 C   0  0  0  0  0  0  0  0  0  0  0  0
   -0.9640    0.1090    0.8780 C   0  0  2  0  0  0  0  0  0  0  0  0
   -1.9890    0.6700    1.6820 O   0  0  0  0  0  0  0  0  0  0  0  0
    0.3640    0.4380    1.4520 C   0  0  0  0  0  0  0  0  0  0  0  0
    1.5060   -0.2660    0.8350 C   0  0  2  0  0  0  0  0  0  0  0  0
    2.6890    0.1490    1.5410 O   0  0  0  0  0  0  0  0  0  0  0  0
    3.6380   -0.8230    1.2490 C   0  0  0  0  0  0  0  0  0  0  0  0
    3.9130   -0.7860   -0.2270 C   0  0  2  0  0  0  0  0  0  0  0  0
    4.8300   -1.7660   -0.5610 O   0  0  0  0  0  0  0  0  0  0  0  0
    4.4570    0.5800   -0.5830 C   0  0  0  0  0  0  0  0  0  0  0  0
    5.6480    0.7860    0.1320 O   0  0  0  0  0  0  0  0  0  0  0  0
    2.6110   -0.9570   -0.9870 C   0  0  1  0  0  0  0  0  0  0  0  0
    2.0770   -2.2200   -0.8640 O   0  0  0  0  0  0  0  0  0  0  0  0
    1.7250    0.0140   -0.5090 O   0  0  0  0  0  0  0  0  0  0  0  0
  1  2  1  0
  2  3  2  0
  2  4  1  0
  4  5  1  6
  4  7  1  0
  5  6  1  0
  7  8  1  0
  8  9  1  0
  9 10  1  1
  9 11  1  0
 12 11  1  1
 12 13  1  0
 12 21  1  0
 13 14  1  0
 14 15  1  0
 15 16  1  6
 15 17  1  0
 15 19  1  0
 17 18  1  0
 19 20  1  1
 19 21  1  0
M  END
