
     RDKit          3D

 21 21  0  0  0  0  0  0  0  0999 V2000
    5.4870   -0.0700   -1.4150 O   0  0  0  0  0  0  0  0  0  0  0  0
    4.4930    0.6070   -1.7940 C   0  0  0  0  0  0  0  0  0  0  0  0
    4.7150    1.6030   -2.7290 O   0  0  0  0  0  0  0  0  0  0  0  0
    3.1880    0.3560   -1.2760 N   0  0  0  0  0  0  0  0  0  0  0  0
    2.9800   -0.6680   -0.3200 C   0  0  0  0  0  0  0  0  0  0  0  0
    3.9180   -1.3800    0.1020 O   0  0  0  0  0  0  0  0  0  0  0  0
    1.6160   -0.9110    0.2040 C   0  0  2  0  0  0  0  0  0  0  0  0
    0.6320   -1.2810   -0.8850 C   0  0  1  0  0  0  0  0  0  0  0  0
    0.9830   -2.5480   -1.3380 O   0  0  0  0  0  0  0  0  0  0  0  0
   -0.7200   -1.3960   -0.2200 C   0  0  0  0  0  0  0  0  0  0  0  0
   -1.2740   -0.0380    0.1780 C   0  0  2  0  0  0  0  0  0  0  0  0
   -2.2370    0.2770   -0.7180 O   0  0  0  0  0  0  0  0  0  0  0  0
   -3.5200    0.3460   -0.3220 C   0  0  1  0  0  0  0  0  0  0  0  0
   -3.9070    1.7060   -0.4310 O   0  0  0  0  0  0  0  0  0  0  0  0
   -4.5210   -0.4420   -1.1090 C   0  0  0  0  0  0  0  0  0  0  0  0
   -5.7810   -0.2100   -0.5050 O   0  0  0  0  0  0  0  0  0  0  0  0
   -0.1220    0.9180    0.2410 C   0  0  0  0  0  0  0  0  0  0  0  0
    1.1140    0.3270    0.8860 C   0  0  2  0  0  0  0  0  0  0  0  0
    2.0970    1.3430    0.8210 O   0  0  0  0  0  0  0  0  0  0  0  0
    0.8730    0.0990    2.3690 C   0  0  0  0  0  0  0  0  0  0  0  0
    0.4240    1.2630    2.9890 O   0  0  0  0  0  0  0  0  0  0  0  0
  1  2  2  0
  2  3  1  0
  2  4  1  0
  4  5  1  0
  5  6  2  0
  7  5  1  6
  7  8  1  0
  7 18  1  0
  8  9  1  1
  8 10  1  0
 10 11  1  0
 11 12  1  6
 11 17  1  0
 12 13  1  0
 13 14  1  6
 13 15  1  0
 15 16  1  0
 17 18  1  0
 18 19  1  1
 18 20  1  0
 20 21  1  0
M  END
