
     RDKit          3D

 20 20  0  0  0  0  0  0  0  0999 V2000
   -3.5860    0.6090   -1.8940 N   0  0  0  0  0  0  0  0  0  0  0  0
   -2.8940    0.4260   -0.5870 C   0  0  1  0  0  0  0  0  0  0  0  0
   -3.8380    0.6240    0.3910 O   0  0  0  0  0  0  0  0  0  0  0  0
   -3.6740    1.7980    1.1050 C   0  0  0  0  0  0  0  0  0  0  0  0
   -2.4840    1.9210    1.7750 O   0  0  0  0  0  0  0  0  0  0  0  0
   -2.3190   -0.9510   -0.6180 C   0  0  1  0  0  0  0  0  0  0  0  0
   -3.3400   -1.9110   -0.7760 O   0  0  0  0  0  0  0  0  0  0  0  0
   -1.3690   -1.1370   -1.7570 C   0  0  0  0  0  0  0  0  0  0  0  0
   -0.3860   -2.0340   -1.3740 O   0  0  0  0  0  0  0  0  0  0  0  0
   -0.3000   -1.9650    0.0120 C   0  0  1  0  0  0  0  0  0  0  0  0
    1.0290   -1.7910    0.5840 C   0  0  0  0  0  0  0  0  0  0  0  0
    1.8580   -0.5810    0.1350 C   0  0  1  0  0  0  0  0  0  0  0  0
    1.9870   -0.7920   -1.2600 O   0  0  0  0  0  0  0  0  0  0  0  0
    1.1480    0.6740    0.4460 C   0  0  0  0  0  0  0  0  0  0  0  0
    0.9880    0.9180    1.8030 O   0  0  0  0  0  0  0  0  0  0  0  0
    3.0580   -0.7150    0.6910 O   0  0  0  0  0  0  0  0  0  0  0  0
    4.1840   -0.0870    0.4890 C   0  0  0  0  0  0  0  0  0  0  0  0
    4.3250    1.3840    0.7090 C   0  0  0  0  0  0  0  0  0  0  0  0
    5.6900    1.7430    0.4230 O   0  0  0  0  0  0  0  0  0  0  0  0
   -1.4700   -1.2830    0.5870 C   0  0  0  0  0  0  0  0  0  0  0  0
  2  1  1  6
  2  3  1  0
  2  6  1  0
  3  4  1  0
  4  5  1  0
  6  7  1  6
  6  8  1  0
  6 20  1  0
  8  9  1  0
  9 10  1  0
 10 11  1  6
 10 20  1  0
 11 12  1  0
 12 13  1  6
 12 14  1  0
 12 16  1  0
 14 15  1  0
 16 17  1  0
 17 18  1  0
 18 19  1  0
M  END
