
     RDKit          3D

 20 21  0  0  0  0  0  0  0  0999 V2000
   -1.2680    0.7120   -2.7190 N   0  0  0  0  0  0  0  0  0  0  0  0
   -1.4080   -0.5390   -1.9860 C   0  0  2  0  0  0  0  0  0  0  0  0
   -2.6920   -1.0620   -2.1230 O   0  0  0  0  0  0  0  0  0  0  0  0
   -0.9270   -0.4710   -0.5890 C   0  0  2  0  0  0  0  0  0  0  0  0
   -1.6530    0.4440    0.3260 C   0  0  1  0  0  0  0  0  0  0  0  0
   -1.1500    0.3720    1.6510 O   0  0  0  0  0  0  0  0  0  0  0  0
   -1.5710    1.9160   -0.0260 C   0  0  0  0  0  0  0  0  0  0  0  0
   -2.6280    2.4370    0.9660 C   0  0  0  0  0  0  0  0  0  0  0  0
   -3.4530    1.3830    1.2500 O   0  0  0  0  0  0  0  0  0  0  0  0
   -3.1180    0.3000    0.4290 C   0  0  0  0  0  0  0  0  0  0  0  0
    0.5640   -0.2080   -0.6170 C   0  0  0  0  0  0  0  0  0  0  0  0
    1.1880   -1.2360    0.3040 C   0  0  2  0  0  0  0  0  0  0  0  0
    2.6210   -0.9050    0.6370 C   0  0  0  0  0  0  0  0  0  0  0  0
    2.7690    0.2890    1.2860 O   0  0  0  0  0  0  0  0  0  0  0  0
    4.1120    0.5100    1.5500 C   0  0  2  0  0  0  0  0  0  0  0  0
    4.3670    0.5630    2.9270 O   0  0  0  0  0  0  0  0  0  0  0  0
    4.5860    1.6530    0.9090 O   0  0  0  0  0  0  0  0  0  0  0  0
    1.0760   -2.4560   -0.3550 O   0  0  0  0  0  0  0  0  0  0  0  0
   -0.2810   -2.7080   -0.4870 C   0  0  0  0  0  0  0  0  0  0  0  0
   -1.1270   -1.7600   -0.0360 O   0  0  0  0  0  0  0  0  0  0  0  0
  2  1  1  1
  2  3  1  0
  2  4  1  0
  4  5  1  0
  4 11  1  6
  4 20  1  0
  5  6  1  1
  5  7  1  0
  5 10  1  0
  7  8  1  0
  8  9  1  0
  9 10  1  0
 11 12  1  0
 12 13  1  6
 12 18  1  0
 13 14  1  0
 14 15  1  0
 15 16  1  1
 15 17  1  0
 18 19  1  0
 19 20  1  0
M  END
