
     RDKit          3D

 12 12  0  0  0  0  0  0  0  0999 V2000
    1.7150    1.5580   -0.7440 O   0  0  0  0  0  0  0  0  0  0  0  0
    1.7620    0.1800   -1.0430 C   0  0  0  0  0  0  0  0  0  0  0  0
    1.3470   -0.6180    0.1200 C   0  0  1  0  0  0  0  0  0  0  0  0
    2.2040   -0.3520    1.1860 O   0  0  0  0  0  0  0  0  0  0  0  0
   -0.0970   -0.4800    0.5260 C   0  0  1  0  0  0  0  0  0  0  0  0
   -0.2360   -1.4420    1.5650 O   0  0  0  0  0  0  0  0  0  0  0  0
   -0.4380    0.8410    1.1080 C   0  0  0  0  0  0  0  0  0  0  0  0
   -1.3750    1.6920    0.3100 C   0  0  0  0  0  0  0  0  0  0  0  0
   -2.4360    0.8930   -0.1220 O   0  0  0  0  0  0  0  0  0  0  0  0
   -1.8870    0.0940   -1.1530 C   0  0  0  0  0  0  0  0  0  0  0  0
   -0.9930   -0.9520   -0.5740 C   0  0  2  0  0  0  0  0  0  0  0  0
   -1.8290   -2.0240   -0.1820 O   0  0  0  0  0  0  0  0  0  0  0  0
  1  2  1  0
  2  3  1  0
  3  4  1  1
  3  5  1  0
  5  6  1  1
  5  7  1  0
  5 11  1  0
  7  8  1  0
  8  9  1  0
  9 10  1  0
 10 11  1  0
 11 12  1  1
M  END
