
     RDKit          3D

 13 13  0  0  0  0  0  0  0  0999 V2000
   -2.8270   -0.1600   -0.1750 O   0  0  0  0  0  0  0  0  0  0  0  0
   -1.6340   -0.8940   -0.0620 C   0  0  0  0  0  0  0  0  0  0  0  0
   -0.5220    0.1380    0.0960 C   0  0  1  0  0  0  0  0  0  0  0  0
   -0.5300    1.0000   -1.1060 C   0  0  0  0  0  0  0  0  0  0  0  0
    0.4260    1.9970   -1.1200 O   0  0  0  0  0  0  0  0  0  0  0  0
   -0.8240    0.9620    1.3290 C   0  0  0  0  0  0  0  0  0  0  0  0
    0.4630    1.1980    1.8370 O   0  0  0  0  0  0  0  0  0  0  0  0
    0.9680   -0.1210    1.8830 C   0  0  0  0  0  0  0  0  0  0  0  0
    0.7250   -0.5500    0.4370 C   0  0  1  0  0  0  0  0  0  0  0  0
    0.5780   -1.9410    0.3770 O   0  0  0  0  0  0  0  0  0  0  0  0
    1.9370   -0.1870   -0.3440 C   0  0  2  0  0  0  0  0  0  0  0  0
    1.8620   -0.5650   -1.6840 O   0  0  0  0  0  0  0  0  0  0  0  0
    2.9930   -0.9430    0.1930 F   0  0  0  0  0  0  0  0  0  0  0  0
  1  2  1  0
  3  2  1  6
  3  4  1  0
  3  6  1  0
  3  9  1  0
  4  5  1  0
  6  7  1  0
  7  8  1  0
  8  9  1  0
  9 10  1  1
  9 11  1  0
 11 12  1  6
 11 13  1  0
M  END
