
     RDKit          3D

 12 12  0  0  0  0  0  0  0  0999 V2000
   -2.7700   -0.4430    0.4020 O   0  0  0  0  0  0  0  0  0  0  0  0
   -1.6600   -1.2200    0.0850 C   0  0  0  0  0  0  0  0  0  0  0  0
   -0.5490   -0.3940   -0.4820 C   0  0  2  0  0  0  0  0  0  0  0  0
   -0.9730    0.2360   -1.6330 O   0  0  0  0  0  0  0  0  0  0  0  0
    0.6200   -1.3430   -0.7760 C   0  0  0  0  0  0  0  0  0  0  0  0
    1.7960   -0.4220   -0.8140 C   0  0  2  0  0  0  0  0  0  0  0  0
    2.8900   -0.9340   -0.1080 O   0  0  0  0  0  0  0  0  0  0  0  0
    1.3840    0.8910   -0.2150 C   0  0  0  0  0  0  0  0  0  0  0  0
    0.0930    0.5230    0.5070 C   0  0  2  0  0  0  0  0  0  0  0  0
    0.3730   -0.1450    1.6710 O   0  0  0  0  0  0  0  0  0  0  0  0
   -0.6650    1.7920    0.7530 C   0  0  0  0  0  0  0  0  0  0  0  0
   -0.7960    2.5110   -0.4180 F   0  0  0  0  0  0  0  0  0  0  0  0
  1  2  1  0
  2  3  1  0
  3  4  1  6
  3  5  1  0
  3  9  1  0
  5  6  1  0
  6  7  1  1
  6  8  1  0
  8  9  1  0
  9 10  1  1
  9 11  1  0
 11 12  1  0
M  END
