
     RDKit          3D

 12 12  0  0  0  0  0  0  0  0999 V2000
   -0.6090    1.6880    0.8100 C   0  0  0  0  0  0  0  0  0  0  0  0
   -0.1920    0.4900    0.0330 C   0  0  2  0  0  0  0  0  0  0  0  0
   -0.2570    0.6510   -1.3400 O   0  0  0  0  0  0  0  0  0  0  0  0
   -1.0350   -0.7480    0.3740 C   0  0  2  0  0  0  0  0  0  0  0  0
   -2.3720   -0.7260   -0.2520 C   0  0  0  0  0  0  0  0  0  0  0  0
   -1.0470   -0.8930    1.7550 O   0  0  0  0  0  0  0  0  0  0  0  0
   -0.1010   -1.8010   -0.1840 C   0  0  0  0  0  0  0  0  0  0  0  0
    1.1460   -1.4110    0.2230 O   0  0  0  0  0  0  0  0  0  0  0  0
    1.1530   -0.0620    0.4580 C   0  0  2  0  0  0  0  0  0  0  0  0
    1.2640    0.1840    1.8290 F   0  0  0  0  0  0  0  0  0  0  0  0
    2.2940    0.6670   -0.2110 C   0  0  0  0  0  0  0  0  0  0  0  0
    3.4850    0.1490    0.2660 O   0  0  0  0  0  0  0  0  0  0  0  0
  2  1  1  1
  2  3  1  0
  2  4  1  0
  2  9  1  0
  4  5  1  6
  4  6  1  0
  4  7  1  0
  7  8  1  0
  8  9  1  0
  9 10  1  1
  9 11  1  0
 11 12  1  0
M  END
