
     RDKit          3D

 21 22  0  0  0  0  0  0  0  0999 V2000
    6.5470    1.0190    1.0280 N   0  0  0  0  0  0  0  0  0  0  0  0
    5.6530    0.5470    0.0300 C   0  0  0  0  0  0  0  0  0  0  0  0
    6.0690    0.4750   -1.3250 N   0  0  0  0  0  0  0  0  0  0  0  0
    4.4600    0.1800    0.3430 N   0  0  0  0  0  0  0  0  0  0  0  0
    3.5370   -0.2970   -0.6270 C   0  0  0  0  0  0  0  0  0  0  0  0
    3.9750   -0.7770   -1.6870 O   0  0  0  0  0  0  0  0  0  0  0  0
    2.1050   -0.2150   -0.3610 C   0  0  0  0  0  0  0  0  0  0  0  0
    1.6320    0.3100    0.7980 N   0  0  0  0  0  0  0  0  0  0  0  0
    0.3130    0.3890    1.0510 C   0  0  0  0  0  0  0  0  0  0  0  0
   -0.3080    1.0640    2.5490 Cl  0  0  0  0  0  0  0  0  0  0  0  0
   -0.5570   -0.0820    0.0920 C   0  0  0  0  0  0  0  0  0  0  0  0
   -1.9680   -0.0210    0.3040 N   0  0  0  0  0  0  0  0  0  0  0  0
   -2.6080    1.2500    0.4830 C   0  0  0  0  0  0  0  0  0  0  0  0
   -3.7250    1.2310    1.4780 C   0  0  0  0  0  0  0  0  0  0  0  0
   -4.7790    0.2160    1.1880 C   0  0  0  0  0  0  0  0  0  0  0  0
   -4.8370   -0.2300   -0.2300 C   0  0  0  0  0  0  0  0  0  0  0  0
   -3.8780   -1.3380   -0.5200 C   0  0  0  0  0  0  0  0  0  0  0  0
   -2.6350   -1.3110    0.3180 C   0  0  0  0  0  0  0  0  0  0  0  0
   -0.0730   -0.6090   -1.0720 N   0  0  0  0  0  0  0  0  0  0  0  0
    1.2430   -0.6890   -1.3270 C   0  0  0  0  0  0  0  0  0  0  0  0
    1.7540   -1.2390   -2.5420 N   0  0  0  0  0  0  0  0  0  0  0  0
  1  2  1  0
  2  3  1  0
  2  4  2  3
  4  5  1  0
  5  6  2  0
  5  7  1  0
  7  8  2  0
  7 20  1  0
  8  9  1  0
  9 10  1  0
  9 11  2  0
 11 12  1  0
 11 19  1  0
 12 13  1  0
 12 18  1  0
 13 14  1  0
 14 15  1  0
 15 16  1  0
 16 17  1  0
 17 18  1  0
 19 20  2  0
 20 21  1  0
M  CHG  1   4   1
M  END
