
     RDKit          3D

 12 12  0  0  0  0  0  0  0  0999 V2000
    3.5370   -0.8780   -0.5050 O   0  0  0  0  0  0  0  0  0  0  0  0
    2.4320   -0.0610   -0.6430 C   0  0  0  0  0  0  0  0  0  0  0  0
    1.3320   -0.4850    0.3010 C   0  0  1  0  0  0  0  0  0  0  0  0
    1.8020   -0.4000    1.6110 O   0  0  0  0  0  0  0  0  0  0  0  0
    0.1190    0.3950    0.2020 C   0  0  1  0  0  0  0  0  0  0  0  0
    0.5020    1.6920    0.5140 O   0  0  0  0  0  0  0  0  0  0  0  0
   -0.4870    0.4090   -1.1800 C   0  0  0  0  0  0  0  0  0  0  0  0
   -1.9110    0.9150   -1.0010 C   0  0  0  0  0  0  0  0  0  0  0  0
   -2.6720   -0.1340   -0.5090 O   0  0  0  0  0  0  0  0  0  0  0  0
   -2.0440   -0.8310    0.4980 C   0  0  2  0  0  0  0  0  0  0  0  0
   -2.9960   -1.1050    1.4800 O   0  0  0  0  0  0  0  0  0  0  0  0
   -0.9380   -0.0380    1.1610 C   0  0  0  0  0  0  0  0  0  0  0  0
  1  2  1  0
  2  3  1  0
  3  4  1  1
  3  5  1  0
  5  6  1  1
  5  7  1  0
  5 12  1  0
  7  8  1  0
  8  9  1  0
  9 10  1  0
 10 11  1  1
 10 12  1  0
M  END
