
     RDKit          3D

 12 12  0  0  0  0  0  0  0  0999 V2000
   -1.3660    1.0610   -0.2080 C   0  0  0  0  0  0  0  0  0  0  0  0
   -0.6190   -0.2380   -0.1620 C   0  0  1  0  0  0  0  0  0  0  0  0
   -1.6430   -1.3450    0.0500 C   0  0  2  0  0  0  0  0  0  0  0  0
   -2.5290   -1.3970   -1.0340 O   0  0  0  0  0  0  0  0  0  0  0  0
   -2.4200   -1.0820    1.1990 O   0  0  0  0  0  0  0  0  0  0  0  0
    0.0700   -0.5160   -1.3180 O   0  0  0  0  0  0  0  0  0  0  0  0
    1.0770    0.3990   -1.5800 C   0  0  0  0  0  0  0  0  0  0  0  0
    2.1370    0.4150   -0.5110 C   0  0  0  0  0  0  0  0  0  0  0  0
    1.4600    0.7290    0.8080 C   0  0  2  0  0  0  0  0  0  0  0  0
    2.3440    0.5720    1.8790 O   0  0  0  0  0  0  0  0  0  0  0  0
    0.3630   -0.3040    0.9910 C   0  0  2  0  0  0  0  0  0  0  0  0
    1.0010   -1.5620    0.8750 O   0  0  0  0  0  0  0  0  0  0  0  0
  2  1  1  6
  2  3  1  0
  2  6  1  0
  2 11  1  0
  3  4  1  6
  3  5  1  0
  6  7  1  0
  7  8  1  0
  8  9  1  0
  9 10  1  1
  9 11  1  0
 11 12  1  6
M  END
