
     RDKit          3D

 20 22  0  0  0  0  0  0  0  0999 V2000
   -4.6980   -1.0500    1.2570 C   0  0  0  0  0  0  0  0  0  0  0  0
   -4.1250    0.2080    0.7470 C   0  0  0  0  0  0  0  0  0  0  0  0
   -4.7680    1.3590    0.6910 N   0  0  0  0  0  0  0  0  0  0  0  0
   -3.9350    2.2660    0.1760 C   0  0  0  0  0  0  0  0  0  0  0  0
   -4.1230    3.4900   -0.0580 O   0  0  0  0  0  0  0  0  0  0  0  0
   -2.7440    1.6350   -0.0880 N   0  0  0  0  0  0  0  0  0  0  0  0
   -2.8170    0.3640    0.2500 C   0  0  0  0  0  0  0  0  0  0  0  0
   -1.8640   -0.7150    0.1820 C   0  0  0  0  0  0  0  0  0  0  0  0
   -2.2410   -1.8880    0.5970 O   0  0  0  0  0  0  0  0  0  0  0  0
   -0.5520   -0.6850   -0.2780 N   0  0  0  0  0  0  0  0  0  0  0  0
    0.2170   -1.9510   -0.2420 C   0  0  0  0  0  0  0  0  0  0  0  0
    1.5790   -1.6350    0.2630 C   0  0  0  0  0  0  0  0  0  0  0  0
    2.2340   -0.5610   -0.2050 C   0  0  0  0  0  0  0  0  0  0  0  0
    3.5510   -0.1920    0.2340 C   0  0  0  0  0  0  0  0  0  0  0  0
    4.2500    0.8410   -0.1790 C   0  0  0  0  0  0  0  0  0  0  0  0
    5.5680    0.8960    0.5030 C   0  0  0  0  0  0  0  0  0  0  0  0
    5.5140   -0.2570    1.3640 N   0  0  0  0  0  0  0  0  0  0  0  0
    4.3960   -0.8660    1.2190 C   0  0  0  0  0  0  0  0  0  0  0  0
    1.5190    0.2370   -1.2070 C   0  0  0  0  0  0  0  0  0  0  0  0
    0.0720    0.5010   -0.7750 C   0  0  0  0  0  0  0  0  0  0  0  0
  1  2  1  0
  2  3  1  0
  2  7  2  0
  3  4  1  0
  4  5  2  0
  4  6  1  0
  6  7  1  0
  7  8  1  0
  8  9  2  0
  8 10  1  0
 10 11  1  0
 10 20  1  0
 11 12  1  0
 12 13  2  0
 13 14  1  0
 13 19  1  0
 14 15  2  0
 14 18  1  0
 15 16  1  0
 16 17  1  0
 17 18  2  0
 19 20  1  0
M  END
