
     RDKit          3D

 12 12  0  0  0  0  0  0  0  0999 V2000
    3.7260    0.4630    1.1080 O   0  0  0  0  0  0  0  0  0  0  0  0
    2.7060   -0.2080    0.4650 C   0  0  0  0  0  0  0  0  0  0  0  0
    1.3800    0.5250    0.5410 C   0  0  0  0  0  0  0  0  0  0  0  0
    0.3720   -0.3050   -0.1900 C   0  0  1  0  0  0  0  0  0  0  0  0
    0.2120   -1.5700    0.3470 O   0  0  0  0  0  0  0  0  0  0  0  0
   -0.9300   -2.0910   -0.1980 C   0  0  2  0  0  0  0  0  0  0  0  0
   -0.6240   -2.9300   -1.2520 F   0  0  0  0  0  0  0  0  0  0  0  0
   -1.8050   -0.9290   -0.6340 C   0  0  0  0  0  0  0  0  0  0  0  0
   -1.0390    0.2480   -0.0670 C   0  0  1  0  0  0  0  0  0  0  0  0
   -1.4060    0.4630    1.2470 O   0  0  0  0  0  0  0  0  0  0  0  0
   -1.2160    1.4890   -0.9120 C   0  0  0  0  0  0  0  0  0  0  0  0
   -2.5420    1.8650   -0.8860 O   0  0  0  0  0  0  0  0  0  0  0  0
  1  2  1  0
  2  3  1  0
  4  3  1  1
  4  5  1  0
  4  9  1  0
  5  6  1  0
  6  7  1  6
  6  8  1  0
  8  9  1  0
  9 10  1  1
  9 11  1  0
 11 12  1  0
M  END
