
     RDKit          3D

 26 28  0  0  0  0  0  0  0  0999 V2000
   -6.2900   -0.0620    2.2270 C   0  0  0  0  0  0  0  0  0  0  0  0
   -4.8130   -0.1540    1.8520 C   0  0  0  0  0  0  0  0  0  0  0  0
   -4.6060    0.5330    0.5150 C   0  0  0  0  0  0  0  0  0  0  0  0
   -3.1820    0.4170    0.1790 N   0  0  0  0  0  0  0  0  0  0  0  0
   -2.6420   -0.8300   -0.2060 C   0  0  0  0  0  0  0  0  0  0  0  0
   -3.4520   -1.9430   -0.3720 N   0  0  0  0  0  0  0  0  0  0  0  0
   -2.6600   -2.9670   -0.6820 C   0  0  0  0  0  0  0  0  0  0  0  0
   -1.3590   -2.5540   -0.7240 C   0  0  0  0  0  0  0  0  0  0  0  0
   -1.3770   -1.2010   -0.4210 N   0  0  0  0  0  0  0  0  0  0  0  0
   -0.2250   -0.4230   -0.4030 N   0  0  0  0  0  0  0  0  0  0  0  0
   -0.0540    0.9960   -0.2610 C   0  0  2  0  0  0  0  0  0  0  0  0
   -0.5880    1.6550   -1.4550 C   0  0  0  0  0  0  0  0  0  0  0  0
    0.2740    2.0700   -2.5500 C   0  0  0  0  0  0  0  0  0  0  0  0
    1.6380    1.5350   -2.4630 C   0  0  0  0  0  0  0  0  0  0  0  0
    2.6120    1.3070   -3.3890 N   0  0  0  0  0  0  0  0  0  0  0  0
    3.6940    0.8550   -2.8100 N   0  0  0  0  0  0  0  0  0  0  0  0
    3.5020    0.7540   -1.4510 C   0  0  0  0  0  0  0  0  0  0  0  0
    4.5410    0.2730   -0.5730 C   0  0  0  0  0  0  0  0  0  0  0  0
    5.5370   -0.3560   -1.0500 O   0  0  0  0  0  0  0  0  0  0  0  0
    4.5650    0.4430    0.8270 N   0  0  0  0  0  0  0  0  0  0  0  0
    5.6150   -0.0670    1.6070 N   0  0  0  0  0  0  0  0  0  0  0  0
    5.7120   -1.4420    1.8910 C   0  0  0  0  0  0  0  0  0  0  0  0
    6.7300   -2.0360    2.6650 N   0  0  0  0  0  0  0  0  0  0  0  0
    4.8030   -2.1720    1.4010 O   0  0  0  0  0  0  0  0  0  0  0  0
    2.2050    1.1830   -1.2640 C   0  0  0  0  0  0  0  0  0  0  0  0
    1.4300    1.2380   -0.0180 C   0  0  0  0  0  0  0  0  0  0  0  0
  1  2  1  0
  2  3  1  0
  3  4  1  0
  4  5  1  0
  5  6  2  0
  5  9  1  0
  6  7  1  0
  7  8  2  0
  8  9  1  0
  9 10  1  0
 11 10  1  6
 11 12  1  0
 11 26  1  0
 12 13  1  0
 13 14  1  0
 14 15  1  0
 14 25  2  0
 15 16  1  0
 16 17  2  0
 17 18  1  0
 17 25  1  0
 18 19  2  0
 18 20  1  0
 20 21  1  0
 21 22  1  0
 22 23  1  0
 22 24  2  0
 25 26  1  0
M  CHG  1   6   1
M  END
