
     RDKit          3D

 26 28  0  0  0  0  0  0  0  0999 V2000
   -2.0070   -3.1320    3.7900 C   0  0  0  0  0  0  0  0  0  0  0  0
   -1.6430   -2.5520    2.5080 N   0  0  0  0  0  0  0  0  0  0  0  0
   -0.6710   -1.6710    2.2310 C   0  0  0  0  0  0  0  0  0  0  0  0
   -0.6900   -1.4040    0.9020 C   0  0  0  0  0  0  0  0  0  0  0  0
    0.2040   -0.5270    0.1800 C   0  0  0  0  0  0  0  0  0  0  0  0
    1.5550   -0.6130    0.3570 N   0  0  0  0  0  0  0  0  0  0  0  0
    2.4220    0.1700   -0.2930 C   0  0  0  0  0  0  0  0  0  0  0  0
    3.8780    0.0560   -0.0830 C   0  0  0  0  0  0  0  0  0  0  0  0
    4.6470    0.8110   -0.7170 O   0  0  0  0  0  0  0  0  0  0  0  0
    4.3750   -0.9070    0.8320 N   0  0  0  0  0  0  0  0  0  0  0  0
    5.5210   -0.7790    1.3890 C   0  0  0  0  0  0  0  0  0  0  0  0
    6.0380   -1.7280    2.3050 N   0  0  0  0  0  0  0  0  0  0  0  0
    6.3050    0.3620    1.0750 N   0  0  0  0  0  0  0  0  0  0  0  0
    1.9600    1.1050   -1.1790 C   0  0  0  0  0  0  0  0  0  0  0  0
    2.9000    1.9400   -1.8740 N   0  0  0  0  0  0  0  0  0  0  0  0
    0.6520    1.2100   -1.3690 N   0  0  0  0  0  0  0  0  0  0  0  0
   -0.2550    0.4230   -0.7170 C   0  0  0  0  0  0  0  0  0  0  0  0
   -1.6420    0.5960   -0.9270 N   0  0  0  0  0  0  0  0  0  0  0  0
   -2.4420    1.1280    0.1370 C   0  0  0  0  0  0  0  0  0  0  0  0
   -3.9270    1.0210   -0.1530 C   0  0  0  0  0  0  0  0  0  0  0  0
   -4.3540    1.9620   -1.2510 C   0  0  0  0  0  0  0  0  0  0  0  0
   -3.2110    2.4720   -2.0660 C   0  0  0  0  0  0  0  0  0  0  0  0
   -2.6300    1.4160   -2.9660 C   0  0  0  0  0  0  0  0  0  0  0  0
   -2.1130    0.2090   -2.2270 C   0  0  0  0  0  0  0  0  0  0  0  0
   -1.7050   -2.1480    0.3660 C   0  0  0  0  0  0  0  0  0  0  0  0
   -2.2810   -2.8530    1.3830 N   0  0  0  0  0  0  0  0  0  0  0  0
  1  2  1  0
  2  3  1  0
  2 26  1  0
  3  4  2  0
  4  5  1  0
  4 25  1  0
  5  6  2  0
  5 17  1  0
  6  7  1  0
  7  8  1  0
  7 14  2  0
  8  9  2  0
  8 10  1  0
 10 11  2  3
 11 12  1  0
 11 13  1  0
 14 15  1  0
 14 16  1  0
 16 17  2  0
 17 18  1  0
 18 19  1  0
 18 24  1  0
 19 20  1  0
 20 21  1  0
 21 22  1  0
 22 23  1  0
 23 24  1  0
 25 26  2  0
M  CHG  1  10   1
M  END
