
     RDKit          3D

 26 27  0  0  0  0  0  0  0  0999 V2000
   -3.6670   -1.6260   -3.1250 C   0  0  0  0  0  0  0  0  0  0  0  0
   -3.4250   -0.5930   -2.0940 C   0  0  0  0  0  0  0  0  0  0  0  0
   -4.0940   -0.3280   -1.0220 C   0  0  0  0  0  0  0  0  0  0  0  0
   -3.6630    0.7520   -0.1350 C   0  0  0  0  0  0  0  0  0  0  0  0
   -2.6250    1.5200   -0.2900 N   0  0  0  0  0  0  0  0  0  0  0  0
   -2.3680    2.5080    0.6800 C   0  0  0  0  0  0  0  0  0  0  0  0
   -1.2720    2.4360    1.4490 C   0  0  0  0  0  0  0  0  0  0  0  0
   -0.3580    1.3380    1.2710 N   0  0  0  0  0  0  0  0  0  0  0  0
    0.6040    1.2370    2.1840 C   0  0  0  0  0  0  0  0  0  0  0  0
    1.5140    0.1270    1.9790 N   0  0  0  0  0  0  0  0  0  0  0  0
    2.2180    0.0700    0.8100 N   0  0  0  0  0  0  0  0  0  0  0  0
    3.2160   -1.0480    0.5630 C   0  0  0  0  0  0  0  0  0  0  0  0
    3.1620   -1.9400    1.3860 O   0  0  0  0  0  0  0  0  0  0  0  0
    3.9310   -0.6960   -0.5770 N   0  0  0  0  0  0  0  0  0  0  0  0
    4.9930   -2.0440   -0.5550 C   0  0  0  0  0  0  0  0  0  0  0  0
    4.6580   -2.9190    0.0980 O   0  0  0  0  0  0  0  0  0  0  0  0
    6.1760   -1.7920   -1.4050 C   0  0  2  0  0  0  0  0  0  0  0  0
    7.1660   -0.7800   -0.6390 C   0  0  0  0  0  0  0  0  0  0  0  0
    6.5920   -0.5460   -1.9920 C   0  0  0  0  0  0  0  0  0  0  0  0
    0.7580    2.1510    3.2970 C   0  0  0  0  0  0  0  0  0  0  0  0
   -0.0320    3.1380    3.4790 N   0  0  0  0  0  0  0  0  0  0  0  0
   -1.1450    3.3650    2.5380 C   0  0  0  0  0  0  0  0  0  0  0  0
   -1.8950    4.3730    2.7950 N   0  0  0  0  0  0  0  0  0  0  0  0
   -5.2690   -1.0450   -0.5940 C   0  0  0  0  0  0  0  0  0  0  0  0
   -5.9000   -0.4950    0.6360 N   0  0  0  0  0  0  0  0  0  0  0  0
   -5.8570   -2.0090   -1.0620 N   0  0  0  0  0  0  0  0  0  0  0  0
  1  2  1  0
  2  3  2  3
  3  4  1  0
  3 24  1  0
  4  5  2  3
  5  6  1  0
  6  7  2  3
  7  8  1  0
  7 22  1  0
  8  9  2  0
  9 10  1  0
  9 20  1  0
 10 11  1  0
 11 12  1  0
 12 13  2  0
 12 14  1  0
 14 15  1  0
 15 16  2  0
 17 15  1  1
 17 18  1  0
 17 19  1  0
 18 19  1  0
 20 21  2  0
 21 22  1  0
 22 23  2  0
 24 25  1  0
 24 26  2  0
M  CHG  1  26   1
M  END
