
     RDKit          3D

 24 26  0  0  0  0  0  0  0  0999 V2000
    2.9460    2.4650    2.7230 C   0  0  0  0  0  0  0  0  0  0  0  0
    2.7970    1.4910    1.7090 O   0  0  0  0  0  0  0  0  0  0  0  0
    1.6360    0.8020    1.4760 C   0  0  0  0  0  0  0  0  0  0  0  0
    0.6400    1.0170    2.1690 O   0  0  0  0  0  0  0  0  0  0  0  0
    1.5820   -0.2110    0.3760 C   0  0  0  0  0  0  0  0  0  0  0  0
    2.6740   -0.3960   -0.3380 C   0  0  0  0  0  0  0  0  0  0  0  0
    3.8240    0.4030    0.0160 N   0  0  0  0  0  0  0  0  0  0  0  0
    2.7630   -1.3110   -1.4110 N   0  0  0  0  0  0  0  0  0  0  0  0
    1.5730   -2.0400   -1.6800 C   0  0  0  0  0  0  0  0  0  0  0  0
    0.4780   -1.9040   -1.0190 C   0  0  0  0  0  0  0  0  0  0  0  0
   -0.6420   -2.7730   -1.4860 C   0  0  0  0  0  0  0  0  0  0  0  0
   -1.8800   -2.4650   -1.4340 O   0  0  0  0  0  0  0  0  0  0  0  0
   -0.1430   -4.0600   -2.0280 C   0  0  0  0  0  0  0  0  0  0  0  0
    1.2880   -3.3220   -2.9490 S   0  0  0  0  0  0  0  0  0  0  0  0
    0.3540   -0.9550    0.1300 C   0  0  2  0  0  0  0  0  0  0  0  0
   -0.8230   -0.0680   -0.0940 C   0  0  0  0  0  0  0  0  0  0  0  0
   -0.8580    0.6400   -1.2750 C   0  0  0  0  0  0  0  0  0  0  0  0
   -1.9030    1.5250   -1.5380 C   0  0  0  0  0  0  0  0  0  0  0  0
   -1.9780    2.3040   -2.7940 C   0  0  0  0  0  0  0  0  0  0  0  0
   -2.8720    1.6420   -0.5660 C   0  0  0  0  0  0  0  0  0  0  0  0
   -2.8250    0.9270    0.6100 C   0  0  0  0  0  0  0  0  0  0  0  0
   -1.7780    0.0390    0.8750 C   0  0  0  0  0  0  0  0  0  0  0  0
   -1.7650   -0.6700    2.0660 O   0  0  0  0  0  0  0  0  0  0  0  0
   -2.8130   -0.4710    2.9900 C   0  0  0  0  0  0  0  0  0  0  0  0
  1  2  1  0
  2  3  1  0
  3  4  2  0
  3  5  1  0
  5  6  2  0
  5 15  1  0
  6  7  1  0
  6  8  1  0
  8  9  1  0
  9 10  2  0
  9 14  1  0
 10 11  1  0
 10 15  1  0
 11 12  2  0
 11 13  1  0
 13 14  1  0
 15 16  1  6
 16 17  2  0
 16 22  1  0
 17 18  1  0
 18 19  1  0
 18 20  2  0
 20 21  1  0
 21 22  2  0
 22 23  1  0
 23 24  1  0
M  END
