
     RDKit          3D

 26 29  0  0  0  0  0  0  0  0999 V2000
    8.8200    1.1680   -1.3440 N   0  0  0  0  0  0  0  0  0  0  0  0
    7.8170    0.6530   -1.1370 C   0  0  0  0  0  0  0  0  0  0  0  0
    6.5680   -0.0020   -0.9000 C   0  0  0  0  0  0  0  0  0  0  0  0
    6.3240   -1.3000   -1.1610 N   0  0  0  0  0  0  0  0  0  0  0  0
    5.0740   -1.6140   -0.8340 N   0  0  0  0  0  0  0  0  0  0  0  0
    4.5160   -0.5120   -0.3620 C   0  0  0  0  0  0  0  0  0  0  0  0
    3.2210   -0.2890    0.1210 C   0  0  0  0  0  0  0  0  0  0  0  0
    2.8650    0.9450    0.5600 C   0  0  0  0  0  0  0  0  0  0  0  0
    1.5970    1.2770    1.0630 N   0  0  0  0  0  0  0  0  0  0  0  0
    0.5380    0.3750    1.1730 C   0  0  0  0  0  0  0  0  0  0  0  0
    0.5950   -0.8060    0.8450 O   0  0  0  0  0  0  0  0  0  0  0  0
   -0.7500    0.9040    1.7340 C   0  0  0  0  0  0  0  0  0  0  0  0
   -1.7030   -0.2020    1.7560 N   0  0  0  0  0  0  0  0  0  0  0  0
   -1.9000   -1.0650    2.7550 N   0  0  0  0  0  0  0  0  0  0  0  0
   -2.8390   -1.9400    2.4410 N   0  0  0  0  0  0  0  0  0  0  0  0
   -3.2910   -1.6680    1.2020 C   0  0  0  0  0  0  0  0  0  0  0  0
   -2.5620   -0.5730    0.7950 C   0  0  0  0  0  0  0  0  0  0  0  0
   -2.8390   -0.0300   -0.5530 C   0  0  0  0  0  0  0  0  0  0  0  0
   -4.3400    0.1340   -0.6620 C   0  0  1  0  0  0  0  0  0  0  0  0
   -4.7100    0.7760   -1.9070 N   0  0  0  0  0  0  0  0  0  0  0  0
   -5.1020   -1.1170   -0.3950 C   0  0  0  0  0  0  0  0  0  0  0  0
   -4.2960   -2.2190    0.2580 C   0  0  0  0  0  0  0  0  0  0  0  0
    3.8410    1.9590    0.5070 C   0  0  0  0  0  0  0  0  0  0  0  0
    3.5180    3.1020    0.9120 O   0  0  0  0  0  0  0  0  0  0  0  0
    5.0690    1.7380    0.0470 N   0  0  0  0  0  0  0  0  0  0  0  0
    5.4050    0.5220   -0.3820 C   0  0  0  0  0  0  0  0  0  0  0  0
  1  2  3  0
  2  3  1  0
  3  4  2  0
  3 26  1  0
  4  5  1  0
  5  6  1  0
  6  7  1  0
  6 26  2  0
  7  8  2  0
  8  9  1  0
  8 23  1  0
  9 10  1  0
 10 11  2  0
 10 12  1  0
 12 13  1  0
 13 14  1  0
 13 17  1  0
 14 15  2  0
 15 16  1  0
 16 17  2  0
 16 22  1  0
 17 18  1  0
 18 19  1  0
 19 20  1  6
 19 21  1  0
 21 22  1  0
 23 24  2  0
 23 25  1  0
 25 26  1  0
M  CHG  1  20   1
M  END
