
     RDKit          3D

 26 28  0  0  0  0  0  0  0  0999 V2000
   -4.4250    0.3280    2.5010 C   0  0  0  0  0  0  0  0  0  0  0  0
   -3.4200   -0.4710    1.9030 O   0  0  0  0  0  0  0  0  0  0  0  0
   -3.5800   -0.8730    0.6000 C   0  0  0  0  0  0  0  0  0  0  0  0
   -3.0270   -0.1910   -0.4620 C   0  0  0  0  0  0  0  0  0  0  0  0
   -2.2380    0.9720   -0.5070 N   0  0  0  0  0  0  0  0  0  0  0  0
   -0.8110    0.9390   -0.4460 C   0  0  0  0  0  0  0  0  0  0  0  0
   -0.3120   -0.2120   -0.3480 O   0  0  0  0  0  0  0  0  0  0  0  0
   -0.0310    2.1290   -0.4940 N   0  0  0  0  0  0  0  0  0  0  0  0
    1.3800    2.0480   -0.4310 C   0  0  0  0  0  0  0  0  0  0  0  0
    2.1610    3.1850   -0.4770 C   0  0  0  0  0  0  0  0  0  0  0  0
    3.5400    3.1420   -0.4180 C   0  0  0  0  0  0  0  0  0  0  0  0
    4.3620    4.2950   -0.4630 N   0  0  0  0  0  0  0  0  0  0  0  0
    4.0950    1.9010   -0.3120 N   0  0  0  0  0  0  0  0  0  0  0  0
    3.3650    0.7860   -0.2660 C   0  0  0  0  0  0  0  0  0  0  0  0
    4.0300   -0.5070   -0.1510 C   0  0  0  0  0  0  0  0  0  0  0  0
    5.4090   -0.5830   -0.0900 C   0  0  0  0  0  0  0  0  0  0  0  0
    6.0310   -1.7900    0.0170 C   0  0  0  0  0  0  0  0  0  0  0  0
    5.3030   -2.9550    0.0660 C   0  0  0  0  0  0  0  0  0  0  0  0
    3.9760   -2.8710    0.0060 N   0  0  0  0  0  0  0  0  0  0  0  0
    3.3350   -1.6890   -0.0990 C   0  0  0  0  0  0  0  0  0  0  0  0
    2.0400    0.8740   -0.3250 N   0  0  0  0  0  0  0  0  0  0  0  0
   -3.4180   -0.9110   -1.5760 C   0  0  0  0  0  0  0  0  0  0  0  0
   -3.1290   -0.6580   -2.9550 N   0  0  0  0  0  0  0  0  0  0  0  0
   -4.1730   -1.9740   -1.1630 N   0  0  0  0  0  0  0  0  0  0  0  0
   -4.2650   -1.9430    0.1610 N   0  0  0  0  0  0  0  0  0  0  0  0
   -4.9720   -2.8790    1.0190 C   0  0  0  0  0  0  0  0  0  0  0  0
  1  2  1  0
  2  3  1  0
  3  4  2  0
  3 25  1  0
  4  5  1  0
  4 22  1  0
  5  6  1  0
  6  7  2  0
  6  8  1  0
  8  9  1  0
  9 10  2  0
  9 21  1  0
 10 11  1  0
 11 12  1  0
 11 13  2  0
 13 14  1  0
 14 15  1  0
 14 21  2  0
 15 16  2  0
 15 20  1  0
 16 17  1  0
 17 18  2  0
 18 19  1  0
 19 20  2  0
 22 23  1  0
 22 24  2  0
 24 25  1  0
 25 26  1  0
M  CHG  1  24   1
M  END
