
     RDKit          3D

 26 28  0  0  0  0  0  0  0  0999 V2000
   -5.1400    0.6200    2.3560 N   0  0  0  0  0  0  0  0  0  0  0  0
   -5.9180    0.1500    1.2520 C   0  0  0  0  0  0  0  0  0  0  0  0
   -5.1310   -0.6960    0.2950 C   0  0  0  0  0  0  0  0  0  0  0  0
   -5.3400   -1.9280   -0.0150 N   0  0  0  0  0  0  0  0  0  0  0  0
   -4.3420   -2.3450   -0.9750 C   0  0  0  0  0  0  0  0  0  0  0  0
   -3.4970   -1.2000   -1.2080 N   0  0  0  0  0  0  0  0  0  0  0  0
   -3.9650   -0.2320   -0.4580 C   0  0  0  0  0  0  0  0  0  0  0  0
   -3.3880    1.0580   -0.4310 N   0  0  0  0  0  0  0  0  0  0  0  0
   -2.0030    1.3210   -0.5030 C   0  0  0  0  0  0  0  0  0  0  0  0
   -1.0600    0.3340   -0.5440 C   0  0  0  0  0  0  0  0  0  0  0  0
    0.3220    0.5840   -0.6100 C   0  0  0  0  0  0  0  0  0  0  0  0
    1.1760   -0.5350   -0.6310 N   0  0  0  0  0  0  0  0  0  0  0  0
    2.5340   -0.4540   -0.9570 C   0  0  0  0  0  0  0  0  0  0  0  0
    3.1230    0.5880   -1.2630 O   0  0  0  0  0  0  0  0  0  0  0  0
    3.3340   -1.6520   -0.9450 N   0  0  0  0  0  0  0  0  0  0  0  0
    4.6730   -1.6710   -1.2510 N   0  0  0  0  0  0  0  0  0  0  0  0
    5.7120   -1.2990   -0.3590 C   0  0  0  0  0  0  0  0  0  0  0  0
    6.2190   -0.0280   -0.4130 C   0  0  0  0  0  0  0  0  0  0  0  0
    7.1990    0.3080    0.4460 N   0  0  0  0  0  0  0  0  0  0  0  0
    7.6790   -0.5700    1.3420 C   0  0  0  0  0  0  0  0  0  0  0  0
    7.1680   -1.8550    1.3980 C   0  0  0  0  0  0  0  0  0  0  0  0
    6.1980   -2.1940    0.5500 N   0  0  0  0  0  0  0  0  0  0  0  0
    0.7010    1.8720   -0.6320 C   0  0  0  0  0  0  0  0  0  0  0  0
   -0.2320    2.9180   -0.5910 C   0  0  0  0  0  0  0  0  0  0  0  0
   -1.5590    2.6420   -0.5280 C   0  0  0  0  0  0  0  0  0  0  0  0
   -2.5130    3.6340   -0.4860 O   0  0  0  0  0  0  0  0  0  0  0  0
  1  2  1  0
  2  3  1  0
  3  4  2  0
  3  7  1  0
  4  5  1  0
  5  6  1  0
  6  7  2  0
  7  8  1  0
  8  9  1  0
  9 10  2  0
  9 25  1  0
 10 11  1  0
 11 12  1  0
 11 23  2  0
 12 13  1  0
 13 14  2  0
 13 15  1  0
 15 16  1  0
 16 17  1  0
 17 18  2  0
 17 22  1  0
 18 19  1  0
 19 20  2  0
 20 21  1  0
 21 22  2  0
 23 24  1  0
 24 25  2  0
 25 26  1  0
M  CHG  1   1   1
M  END
