
     RDKit          3D

 31 34  0  0  0  0  0  0  0  0999 V2000
    5.7700    3.3970   -0.9930 C   0  0  0  0  0  0  0  0  0  0  0  0
    4.3570    3.1150   -0.7000 C   0  0  0  0  0  0  0  0  0  0  0  0
    3.5860    4.1230   -0.5850 O   0  0  0  0  0  0  0  0  0  0  0  0
    3.8030    1.8410   -0.5400 N   0  0  0  0  0  0  0  0  0  0  0  0
    2.4270    1.4850   -0.2530 C   0  0  0  0  0  0  0  0  0  0  0  0
    2.5360    0.3140    0.6860 C   0  0  1  0  0  0  0  0  0  0  0  0
    1.7420   -0.8380    0.2730 N   0  0  0  0  0  0  0  0  0  0  0  0
    1.8790   -1.7930    1.4020 C   0  0  0  0  0  0  0  0  0  0  0  0
    0.3360   -0.4890    0.1580 C   0  0  0  0  0  0  0  0  0  0  0  0
   -0.3690   -1.6750   -0.4000 C   0  0  0  0  0  0  0  0  0  0  0  0
    0.2690   -2.8370   -0.7600 C   0  0  0  0  0  0  0  0  0  0  0  0
   -0.3730   -3.9430   -1.2900 C   0  0  0  0  0  0  0  0  0  0  0  0
    0.3600   -5.1750   -1.6610 C   0  0  0  0  0  0  0  0  0  0  0  0
   -1.7310   -3.8730   -1.4670 C   0  0  0  0  0  0  0  0  0  0  0  0
   -2.6140   -5.2510   -2.1390 Cl  0  0  0  0  0  0  0  0  0  0  0  0
   -2.4090   -2.7300   -1.1220 C   0  0  0  0  0  0  0  0  0  0  0  0
   -1.7590   -1.6240   -0.5910 C   0  0  0  0  0  0  0  0  0  0  0  0
   -2.5010   -0.4270   -0.2480 C   0  0  0  0  0  0  0  0  0  0  0  0
   -3.8210   -0.2260   -0.3590 N   0  0  0  0  0  0  0  0  0  0  0  0
   -4.1110    1.0360    0.0710 C   0  0  0  0  0  0  0  0  0  0  0  0
   -5.4380    1.6350    0.1080 C   0  0  0  0  0  0  0  0  0  0  0  0
   -5.5800    2.8640    0.5460 C   0  0  0  0  0  0  0  0  0  0  0  0
   -6.8940    3.5050    0.6000 C   0  0  0  0  0  0  0  0  0  0  0  0
   -7.9330    2.6910    0.1460 O   0  0  0  0  0  0  0  0  0  0  0  0
   -7.8110    1.3950   -0.3180 C   0  0  0  0  0  0  0  0  0  0  0  0
   -6.5980    0.8860   -0.3350 C   0  0  0  0  0  0  0  0  0  0  0  0
   -2.9380    1.5560    0.4310 N   0  0  0  0  0  0  0  0  0  0  0  0
   -1.9920    0.6700    0.2330 O   0  0  0  0  0  0  0  0  0  0  0  0
    3.9820   -0.1310    0.6180 C   0  0  2  0  0  0  0  0  0  0  0  0
    4.7130    0.3350    1.8570 C   0  0  0  0  0  0  0  0  0  0  0  0
    4.4780    0.5630   -0.6250 C   0  0  0  0  0  0  0  0  0  0  0  0
  1  2  1  0
  2  3  2  0
  2  4  1  0
  4  5  1  0
  4 31  1  0
  5  6  1  0
  6  7  1  6
  6 29  1  0
  7  8  1  0
  7  9  1  0
  9 10  1  0
 10 11  2  0
 10 17  1  0
 11 12  1  0
 12 13  1  0
 12 14  2  0
 14 15  1  0
 14 16  1  0
 16 17  2  0
 17 18  1  0
 18 19  2  0
 18 28  1  0
 19 20  1  0
 20 21  1  0
 20 27  2  0
 21 22  2  0
 21 26  1  0
 22 23  1  0
 23 24  1  0
 24 25  1  0
 25 26  2  0
 27 28  1  0
 29 30  1  1
 29 31  1  0
M  END
