
     RDKit          3D

 29 32  0  0  0  0  0  0  0  0999 V2000
    6.2650    2.8930    0.3720 C   0  0  0  0  0  0  0  0  0  0  0  0
    4.8830    2.4850    0.6950 C   0  0  0  0  0  0  0  0  0  0  0  0
    4.3990    1.2770    0.4770 C   0  0  0  0  0  0  0  0  0  0  0  0
    3.0120    0.8200    0.7870 C   0  0  0  0  0  0  0  0  0  0  0  0
    3.2900   -0.5700    1.1760 N   0  0  0  0  0  0  0  0  0  0  0  0
    2.6500   -1.3460    2.1790 C   0  0  0  0  0  0  0  0  0  0  0  0
    1.5040   -1.9110    2.0120 N   0  0  0  0  0  0  0  0  0  0  0  0
    0.8570   -1.7400    0.7580 C   0  0  0  0  0  0  0  0  0  0  0  0
    1.5810   -1.7860   -0.2690 O   0  0  0  0  0  0  0  0  0  0  0  0
   -0.6300   -1.5160    0.6890 C   0  0  0  0  0  0  0  0  0  0  0  0
   -0.9750   -1.3810   -0.7560 C   0  0  0  0  0  0  0  0  0  0  0  0
   -2.3950   -1.1580   -1.0010 N   0  0  0  0  0  0  0  0  0  0  0  0
   -3.0890   -0.0420   -0.4880 C   0  0  0  0  0  0  0  0  0  0  0  0
   -2.4410    0.7720    0.1950 O   0  0  0  0  0  0  0  0  0  0  0  0
   -4.5350    0.1490   -0.7550 C   0  0  0  0  0  0  0  0  0  0  0  0
   -5.1870    1.1930   -0.2870 C   0  0  0  0  0  0  0  0  0  0  0  0
   -4.7170    2.3190    0.5300 C   0  0  0  0  0  0  0  0  0  0  0  0
   -5.7890    3.0910    0.7020 C   0  0  0  0  0  0  0  0  0  0  0  0
   -6.9080    2.5390    0.0550 N   0  0  0  0  0  0  0  0  0  0  0  0
   -6.5930    1.4220   -0.5390 C   0  0  0  0  0  0  0  0  0  0  0  0
   -7.3600    0.4550   -1.3530 C   0  0  0  0  0  0  0  0  0  0  0  0
   -6.7360   -0.8890   -1.2710 C   0  0  0  0  0  0  0  0  0  0  0  0
   -5.2480   -0.8650   -1.5420 C   0  0  0  0  0  0  0  0  0  0  0  0
    4.3660   -1.0270    0.3320 C   0  0  0  0  0  0  0  0  0  0  0  0
    4.7850   -2.2760   -0.0760 C   0  0  0  0  0  0  0  0  0  0  0  0
    5.8710   -2.3680   -0.8990 C   0  0  0  0  0  0  0  0  0  0  0  0
    6.5530   -1.2490   -1.3300 C   0  0  0  0  0  0  0  0  0  0  0  0
    6.1480    0.0090   -0.9330 C   0  0  0  0  0  0  0  0  0  0  0  0
    5.0510    0.1080   -0.1000 C   0  0  0  0  0  0  0  0  0  0  0  0
  1  2  1  0
  2  3  2  3
  3  4  1  0
  3 29  1  0
  4  5  1  0
  5  6  1  0
  5 24  1  0
  6  7  2  3
  7  8  1  0
  8  9  2  0
  8 10  1  0
 10 11  1  0
 11 12  1  0
 12 13  1  0
 13 14  2  0
 13 15  1  0
 15 16  2  0
 15 23  1  0
 16 17  1  0
 16 20  1  0
 17 18  2  0
 18 19  1  0
 19 20  2  0
 20 21  1  0
 21 22  1  0
 22 23  1  0
 24 25  2  0
 24 29  1  0
 25 26  1  0
 26 27  2  0
 27 28  1  0
 28 29  2  0
M  END
