
     RDKit          3D

 29 32  0  0  0  0  0  0  0  0999 V2000
   -8.9550   -1.2510   -1.0600 C   0  0  0  0  0  0  0  0  0  0  0  0
   -7.9630   -0.6530   -0.2600 O   0  0  0  0  0  0  0  0  0  0  0  0
   -6.6240   -0.7000   -0.6210 C   0  0  0  0  0  0  0  0  0  0  0  0
   -6.2010   -1.3320   -1.7770 C   0  0  0  0  0  0  0  0  0  0  0  0
   -4.8660   -1.3520   -2.0920 C   0  0  0  0  0  0  0  0  0  0  0  0
   -3.9120   -0.7470   -1.2720 C   0  0  0  0  0  0  0  0  0  0  0  0
   -4.2880   -0.1100   -0.1180 C   0  0  0  0  0  0  0  0  0  0  0  0
   -3.4230    0.5400    0.8250 C   0  0  0  0  0  0  0  0  0  0  0  0
   -4.0190    1.1260    1.8340 O   0  0  0  0  0  0  0  0  0  0  0  0
   -2.0440    0.6280    0.8070 N   0  0  0  0  0  0  0  0  0  0  0  0
   -1.1480    0.0850   -0.1500 C   0  0  0  0  0  0  0  0  0  0  0  0
    0.2950    0.3350    0.3420 C   0  0  0  0  0  0  0  0  0  0  0  0
    0.5650    1.7650    0.4610 N   0  0  0  0  0  0  0  0  0  0  0  0
    1.7850    1.8700    1.2500 C   0  0  0  0  0  0  0  0  0  0  0  0
    2.9470    1.2030    0.6020 C   0  0  0  0  0  0  0  0  0  0  0  0
    3.0850    1.1830   -0.7700 C   0  0  0  0  0  0  0  0  0  0  0  0
    4.1710    0.5550   -1.3660 C   0  0  0  0  0  0  0  0  0  0  0  0
    5.1470   -0.0700   -0.6170 C   0  0  0  0  0  0  0  0  0  0  0  0
    6.2990   -0.7510   -0.9500 C   0  0  0  0  0  0  0  0  0  0  0  0
    6.8260   -1.0080   -2.2720 C   0  0  0  0  0  0  0  0  0  0  0  0
    7.2410   -1.2160   -3.3320 N   0  0  0  0  0  0  0  0  0  0  0  0
    6.8810   -1.1580    0.2310 C   0  0  0  0  0  0  0  0  0  0  0  0
    8.1600   -1.9370    0.3580 C   0  0  0  0  0  0  0  0  0  0  0  0
    6.0920   -0.7270    1.2290 N   0  0  0  0  0  0  0  0  0  0  0  0
    5.0200   -0.0580    0.7590 C   0  0  0  0  0  0  0  0  0  0  0  0
    3.9340    0.5720    1.3400 C   0  0  0  0  0  0  0  0  0  0  0  0
   -0.4820    2.4040    1.2540 C   0  0  0  0  0  0  0  0  0  0  0  0
   -1.3690    1.3790    1.9070 C   0  0  0  0  0  0  0  0  0  0  0  0
   -5.6740   -0.1100    0.1750 C   0  0  0  0  0  0  0  0  0  0  0  0
  1  2  1  0
  2  3  1  0
  3  4  2  0
  3 29  1  0
  4  5  1  0
  5  6  2  0
  6  7  1  0
  7  8  1  0
  7 29  2  0
  8  9  2  0
  8 10  1  0
 10 11  1  0
 10 28  1  0
 11 12  1  0
 12 13  1  0
 13 14  1  0
 13 27  1  0
 14 15  1  0
 15 16  2  0
 15 26  1  0
 16 17  1  0
 17 18  2  0
 18 19  1  0
 18 25  1  0
 19 20  1  0
 19 22  2  0
 20 21  3  0
 22 23  1  0
 22 24  1  0
 24 25  1  0
 25 26  2  0
 27 28  1  0
M  END
