
     RDKit          3D

 29 32  0  0  0  0  0  0  0  0999 V2000
    6.1050   -0.7130    0.5980 N   0  0  0  0  0  0  0  0  0  0  0  0
    5.4230    0.3210    1.2640 C   0  0  0  0  0  0  0  0  0  0  0  0
    6.1590    1.5030    1.5770 N   0  0  0  0  0  0  0  0  0  0  0  0
    4.1850    0.1790    1.5670 N   0  0  0  0  0  0  0  0  0  0  0  0
    3.5340   -1.0270    1.2170 C   0  0  0  0  0  0  0  0  0  0  0  0
    4.1510   -2.1290    1.2860 O   0  0  0  0  0  0  0  0  0  0  0  0
    2.1450   -0.9950    0.7780 C   0  0  0  0  0  0  0  0  0  0  0  0
    1.4800    0.1710    0.7010 N   0  0  0  0  0  0  0  0  0  0  0  0
    0.1720    0.2300    0.2900 C   0  0  0  0  0  0  0  0  0  0  0  0
   -0.4380    1.5460    0.3400 C   0  0  0  0  0  0  0  0  0  0  0  0
   -1.7580    1.8930    0.2910 C   0  0  0  0  0  0  0  0  0  0  0  0
   -1.8280    3.2810    0.3800 C   0  0  0  0  0  0  0  0  0  0  0  0
   -2.8820    4.1490    0.3800 C   0  0  0  0  0  0  0  0  0  0  0  0
   -2.6270    5.5060    0.4840 C   0  0  0  0  0  0  0  0  0  0  0  0
   -1.3110    5.9410    0.5860 C   0  0  0  0  0  0  0  0  0  0  0  0
   -0.2480    5.0730    0.5870 C   0  0  0  0  0  0  0  0  0  0  0  0
   -0.5300    3.7150    0.4800 C   0  0  0  0  0  0  0  0  0  0  0  0
    0.2410    2.6860    0.4540 O   0  0  0  0  0  0  0  0  0  0  0  0
   -0.4660   -0.9200   -0.0510 C   0  0  0  0  0  0  0  0  0  0  0  0
   -1.7930   -0.9770   -0.5620 N   0  0  0  0  0  0  0  0  0  0  0  0
   -2.0460   -0.4790   -1.8940 C   0  0  0  0  0  0  0  0  0  0  0  0
   -2.7480   -1.5850   -2.6980 C   0  0  0  0  0  0  0  0  0  0  0  0
   -2.2660   -2.9360   -2.3060 C   0  0  0  0  0  0  0  0  0  0  0  0
   -3.0120   -3.5650   -1.1620 C   0  0  0  0  0  0  0  0  0  0  0  0
   -2.6240   -3.0720    0.1870 C   0  0  0  0  0  0  0  0  0  0  0  0
   -2.7520   -1.5740    0.3380 C   0  0  0  0  0  0  0  0  0  0  0  0
    0.2520   -2.0920    0.0440 N   0  0  0  0  0  0  0  0  0  0  0  0
    1.5110   -2.1740    0.4380 C   0  0  0  0  0  0  0  0  0  0  0  0
    2.2430   -3.3900    0.5320 N   0  0  0  0  0  0  0  0  0  0  0  0
  1  2  1  0
  2  3  1  0
  2  4  2  3
  4  5  1  0
  5  6  2  0
  5  7  1  0
  7  8  2  0
  7 28  1  0
  8  9  1  0
  9 10  1  0
  9 19  2  0
 10 11  2  0
 10 18  1  0
 11 12  1  0
 12 13  2  0
 12 17  1  0
 13 14  1  0
 14 15  2  0
 15 16  1  0
 16 17  2  0
 17 18  1  0
 19 20  1  0
 19 27  1  0
 20 21  1  0
 20 26  1  0
 21 22  1  0
 22 23  1  0
 23 24  1  0
 24 25  1  0
 25 26  1  0
 27 28  2  0
 28 29  1  0
M  CHG  1   4   1
M  END
