
     RDKit          3D

 31 34  0  0  0  0  0  0  0  0999 V2000
   -6.0860    0.0300    2.1270 C   0  0  0  0  0  0  0  0  0  0  0  0
   -6.5480   -0.9110    1.0540 C   0  0  0  0  0  0  0  0  0  0  0  0
   -5.5640   -1.2800    0.0140 C   0  0  0  0  0  0  0  0  0  0  0  0
   -5.0170   -0.1940   -0.8540 C   0  0  2  0  0  0  0  0  0  0  0  0
   -4.0590   -0.8950   -1.8330 C   0  0  0  0  0  0  0  0  0  0  0  0
   -3.7210    0.0330   -2.9840 C   0  0  0  0  0  0  0  0  0  0  0  0
   -3.4970    1.4580   -2.4630 C   0  0  0  0  0  0  0  0  0  0  0  0
   -3.1380    1.3110   -1.0770 N   0  0  0  0  0  0  0  0  0  0  0  0
   -1.8230    1.5740   -0.6250 C   0  0  0  0  0  0  0  0  0  0  0  0
   -0.9170    1.9450   -1.4170 O   0  0  0  0  0  0  0  0  0  0  0  0
   -1.4280    1.4290    0.8020 C   0  0  0  0  0  0  0  0  0  0  0  0
   -0.0150    1.7500    1.0390 C   0  0  0  0  0  0  0  0  0  0  0  0
    0.4910    2.8970    1.6040 C   0  0  0  0  0  0  0  0  0  0  0  0
    1.8230    2.7650    1.6270 N   0  0  0  0  0  0  0  0  0  0  0  0
    2.1640    1.6290    1.1210 O   0  0  0  0  0  0  0  0  0  0  0  0
    1.0970    0.9490    0.7370 C   0  0  0  0  0  0  0  0  0  0  0  0
    1.0130   -0.3610    0.1230 C   0  0  0  0  0  0  0  0  0  0  0  0
    1.9590   -1.1850   -0.1950 C   0  0  0  0  0  0  0  0  0  0  0  0
    3.3840   -1.0800   -0.0490 C   0  0  0  0  0  0  0  0  0  0  0  0
    4.1530   -2.1020   -0.4710 C   0  0  0  0  0  0  0  0  0  0  0  0
    5.5930   -1.9920   -0.3210 C   0  0  0  0  0  0  0  0  0  0  0  0
    6.1490   -0.9190    0.2150 C   0  0  0  0  0  0  0  0  0  0  0  0
    5.3110    0.2070    0.6820 C   0  0  0  0  0  0  0  0  0  0  0  0
    5.8810    1.2370    1.2000 N   0  0  0  0  0  0  0  0  0  0  0  0
    7.2950    1.3640    1.3560 C   0  0  0  0  0  0  0  0  0  0  0  0
    8.1270    0.4020    0.9650 C   0  0  0  0  0  0  0  0  0  0  0  0
    9.8620    0.5230    1.1410 Cl  0  0  0  0  0  0  0  0  0  0  0  0
    7.5540   -0.7730    0.3800 N   0  0  0  0  0  0  0  0  0  0  0  0
    8.3910   -1.8760   -0.0760 C   0  0  0  0  0  0  0  0  0  0  0  0
    3.9550    0.0450    0.5130 O   0  0  0  0  0  0  0  0  0  0  0  0
   -4.2280    0.8740   -0.1820 C   0  0  0  0  0  0  0  0  0  0  0  0
  1  2  1  0
  2  3  1  0
  4  3  1  1
  4  5  1  0
  4 31  1  0
  5  6  1  0
  6  7  1  0
  7  8  1  0
  8  9  1  0
  8 31  1  0
  9 10  2  0
  9 11  1  0
 11 12  1  0
 12 13  1  0
 12 16  2  0
 13 14  2  0
 14 15  1  0
 15 16  1  0
 16 17  1  0
 17 18  2  3
 18 19  1  0
 19 20  2  0
 19 30  1  0
 20 21  1  0
 21 22  2  0
 22 23  1  0
 22 28  1  0
 23 24  2  0
 23 30  1  0
 24 25  1  0
 25 26  2  0
 26 27  1  0
 26 28  1  0
 28 29  1  0
M  END
