
     RDKit          3D

 29 32  0  0  0  0  0  0  0  0999 V2000
   -7.3800   -1.6930    2.5970 C   0  0  0  0  0  0  0  0  0  0  0  0
   -6.0740   -1.2240    2.0590 C   0  0  0  0  0  0  0  0  0  0  0  0
   -5.9570   -0.2310    1.2160 C   0  0  0  0  0  0  0  0  0  0  0  0
   -6.9990    0.6130    0.6280 C   0  0  0  0  0  0  0  0  0  0  0  0
   -6.3760    1.2060   -0.5350 N   0  0  0  0  0  0  0  0  0  0  0  0
   -7.1100    1.7940   -1.6640 C   0  0  0  0  0  0  0  0  0  0  0  0
   -4.9650    1.1150   -0.3840 C   0  0  0  0  0  0  0  0  0  0  0  0
   -3.9240    1.7000   -1.0620 C   0  0  0  0  0  0  0  0  0  0  0  0
   -2.6100    1.4330   -0.7010 C   0  0  0  0  0  0  0  0  0  0  0  0
   -2.2950    0.5820    0.3380 C   0  0  0  0  0  0  0  0  0  0  0  0
   -0.8980    0.2800    0.7380 C   0  0  0  0  0  0  0  0  0  0  0  0
    0.0780    0.5130   -0.2710 N   0  0  0  0  0  0  0  0  0  0  0  0
   -0.1610   -0.3250   -1.3990 C   0  0  0  0  0  0  0  0  0  0  0  0
    0.3010   -1.7730   -1.1880 C   0  0  0  0  0  0  0  0  0  0  0  0
    1.6050   -1.8280   -0.4260 C   0  0  0  0  0  0  0  0  0  0  0  0
    2.2460   -0.4750   -0.5020 C   0  0  2  0  0  0  0  0  0  0  0  0
    3.6400   -0.4960    0.0580 C   0  0  0  0  0  0  0  0  0  0  0  0
    4.7700   -0.1940   -0.5620 N   0  0  0  0  0  0  0  0  0  0  0  0
    5.8400   -0.3190    0.2370 C   0  0  0  0  0  0  0  0  0  0  0  0
    7.2430   -0.0800   -0.0740 C   0  0  0  0  0  0  0  0  0  0  0  0
    7.5280    0.2940   -1.2400 O   0  0  0  0  0  0  0  0  0  0  0  0
    8.2680   -0.2370    0.8170 O   0  0  0  0  0  0  0  0  0  0  0  0
    9.6350   -0.0030    0.5100 C   0  0  0  0  0  0  0  0  0  0  0  0
    9.7400    1.4480    0.0910 C   0  0  0  0  0  0  0  0  0  0  0  0
    5.3240   -0.7310    1.4450 C   0  0  0  0  0  0  0  0  0  0  0  0
    3.9860   -0.8370    1.3300 N   0  0  0  0  0  0  0  0  0  0  0  0
    1.4110    0.5390    0.2290 C   0  0  0  0  0  0  0  0  0  0  0  0
   -3.3700    0.0090    1.0000 C   0  0  0  0  0  0  0  0  0  0  0  0
   -4.6880    0.2500    0.6720 C   0  0  0  0  0  0  0  0  0  0  0  0
  1  2  1  0
  2  3  2  3
  3  4  1  0
  3 29  1  0
  4  5  1  0
  5  6  1  0
  5  7  1  0
  7  8  2  0
  7 29  1  0
  8  9  1  0
  9 10  2  0
 10 11  1  0
 10 28  1  0
 11 12  1  0
 12 13  1  0
 12 27  1  0
 13 14  1  0
 14 15  1  0
 15 16  1  0
 16 17  1  1
 16 27  1  0
 17 18  2  0
 17 26  1  0
 18 19  1  0
 19 20  1  0
 19 25  2  0
 20 21  2  0
 20 22  1  0
 22 23  1  0
 23 24  1  0
 25 26  1  0
 28 29  2  0
M  END
