
     RDKit          3D

 25 28  0  0  0  0  0  0  0  0999 V2000
    5.5180   -4.4230    1.2190 O   0  0  0  0  0  0  0  0  0  0  0  0
    4.9300   -3.3750    0.8410 C   0  0  0  0  0  0  0  0  0  0  0  0
    3.6500   -3.0850    0.8760 O   0  0  0  0  0  0  0  0  0  0  0  0
    3.4800   -1.8660    0.3720 C   0  0  0  0  0  0  0  0  0  0  0  0
    2.1900   -1.1780    0.2370 C   0  0  0  0  0  0  0  0  0  0  0  0
    1.9140    0.0040    0.9000 C   0  0  0  0  0  0  0  0  0  0  0  0
    0.6840    0.6070    0.7350 C   0  0  0  0  0  0  0  0  0  0  0  0
   -0.3080    0.0600   -0.0890 C   0  0  0  0  0  0  0  0  0  0  0  0
   -1.5640    0.7590   -0.1860 N   0  0  1  0  0  0  0  0  0  0  0  0
   -2.4320    0.0970   -1.1000 C   0  0  0  0  0  0  0  0  0  0  0  0
   -3.6000    0.9050   -1.5890 C   0  0  0  0  0  0  0  0  0  0  0  0
   -4.9050    0.6560   -0.9510 C   0  0  0  0  0  0  0  0  0  0  0  0
   -4.9320   -0.4460    0.0710 C   0  0  0  0  0  0  0  0  0  0  0  0
   -4.2740   -0.1330    1.3550 C   0  0  0  0  0  0  0  0  0  0  0  0
   -3.4720    1.1420    1.3680 C   0  0  0  0  0  0  0  0  0  0  0  0
   -2.0210    0.9120    1.1540 C   0  0  0  0  0  0  0  0  0  0  0  0
   -0.0460   -1.1090   -0.7490 C   0  0  0  0  0  0  0  0  0  0  0  0
    1.2080   -1.7050   -0.5690 C   0  0  0  0  0  0  0  0  0  0  0  0
    4.7350   -1.4140    0.0200 C   0  0  0  0  0  0  0  0  0  0  0  0
    4.9890   -0.0950   -0.5800 C   0  0  0  0  0  0  0  0  0  0  0  0
    5.7770    0.8730    0.0350 C   0  0  0  0  0  0  0  0  0  0  0  0
    5.7720    1.9520   -0.8300 C   0  0  0  0  0  0  0  0  0  0  0  0
    5.0030    1.5880   -1.8950 C   0  0  0  0  0  0  0  0  0  0  0  0
    4.5530    0.3680   -1.7170 O   0  0  0  0  0  0  0  0  0  0  0  0
    5.5960   -2.3550    0.3180 O   0  0  0  0  0  0  0  0  0  0  0  0
  1  2  2  0
  2  3  1  0
  2 25  1  0
  3  4  1  0
  4  5  1  0
  4 19  2  0
  5  6  2  0
  5 18  1  0
  6  7  1  0
  7  8  2  0
  9  8  1  1
  8 17  1  0
  9 10  1  0
  9 16  1  0
 10 11  1  0
 11 12  1  0
 12 13  1  0
 13 14  1  0
 14 15  1  0
 15 16  1  0
 17 18  2  0
 19 20  1  0
 19 25  1  0
 20 21  2  0
 20 24  1  0
 21 22  1  0
 22 23  2  0
 23 24  1  0
M  CHG  1   9   1
M  END
