
     RDKit          3D

 25 29  0  0  0  0  0  0  0  0999 V2000
    3.7150   -4.1940    0.5650 C   0  0  0  0  0  0  0  0  0  0  0  0
    2.8660   -3.2190   -0.0190 O   0  0  0  0  0  0  0  0  0  0  0  0
    3.3780   -1.9670   -0.3290 C   0  0  0  0  0  0  0  0  0  0  0  0
    4.5880   -1.7550   -0.0730 O   0  0  0  0  0  0  0  0  0  0  0  0
    2.5360   -0.9190   -0.9360 C   0  0  2  0  0  0  0  0  0  0  0  0
    2.6070    0.3700   -0.1560 C   0  0  0  0  0  0  0  0  0  0  0  0
    1.6640    1.3640   -0.8490 C   0  0  2  0  0  0  0  0  0  0  0  0
    1.8770    2.7550   -0.3480 C   0  0  0  0  0  0  0  0  0  0  0  0
    0.7840    3.3040    0.3930 N   0  0  1  0  0  0  0  0  0  0  0  0
    0.9890    4.7370    0.5330 C   0  0  0  0  0  0  0  0  0  0  0  0
   -0.5020    3.0870   -0.1720 C   0  0  0  0  0  0  0  0  0  0  0  0
   -0.7520    1.6410   -0.3130 C   0  0  0  0  0  0  0  0  0  0  0  0
   -1.9880    1.0600   -0.1350 C   0  0  0  0  0  0  0  0  0  0  0  0
   -2.1350   -0.3070   -0.2910 C   0  0  0  0  0  0  0  0  0  0  0  0
   -1.0830   -1.1310   -0.6210 C   0  0  0  0  0  0  0  0  0  0  0  0
   -1.5000   -2.3870   -0.7040 O   0  0  0  0  0  0  0  0  0  0  0  0
   -2.8040   -2.4130   -0.4380 C   0  0  0  0  0  0  0  0  0  0  0  0
   -3.7190   -3.4570   -0.3900 C   0  0  0  0  0  0  0  0  0  0  0  0
   -5.0250   -3.1530   -0.0780 C   0  0  0  0  0  0  0  0  0  0  0  0
   -5.4600   -1.8710    0.1870 C   0  0  0  0  0  0  0  0  0  0  0  0
   -4.5500   -0.8310    0.1390 C   0  0  0  0  0  0  0  0  0  0  0  0
   -3.2400   -1.1340   -0.1740 C   0  0  0  0  0  0  0  0  0  0  0  0
    0.1580   -0.5370   -0.7970 C   0  0  0  0  0  0  0  0  0  0  0  0
    0.3010    0.8360   -0.6400 C   0  0  0  0  0  0  0  0  0  0  0  0
    1.2260   -1.3730   -1.1330 O   0  0  0  0  0  0  0  0  0  0  0  0
  1  2  1  0
  2  3  1  0
  3  4  2  0
  5  3  1  1
  5  6  1  0
  5 25  1  0
  7  6  1  1
  7  8  1  0
  7 24  1  0
  8  9  1  0
  9 10  1  6
  9 11  1  0
 11 12  1  0
 12 13  1  0
 12 24  2  0
 13 14  2  0
 14 15  1  0
 14 22  1  0
 15 16  1  0
 15 23  2  0
 16 17  1  0
 17 18  2  0
 17 22  1  0
 18 19  1  0
 19 20  2  0
 20 21  1  0
 21 22  2  0
 23 24  1  0
 23 25  1  0
M  CHG  1   9   1
M  END
