
     RDKit          3D

 20 21  0  0  0  0  0  0  0  0999 V2000
   -0.7290    0.9820    2.1990 C   0  0  0  0  0  0  0  0  0  0  0  0
   -0.6050    0.2330    0.8510 C   0  0  2  0  0  0  0  0  0  0  0  0
    0.6810    0.6130    0.3130 N   0  0  0  0  0  0  0  0  0  0  0  0
    1.6660   -0.4410    0.4490 C   0  0  2  0  0  0  0  0  0  0  0  0
    1.8730   -0.8820    1.8510 C   0  0  0  0  0  0  0  0  0  0  0  0
    2.8200   -1.8980    1.8790 O   0  0  0  0  0  0  0  0  0  0  0  0
    2.9940    0.0460   -0.0890 C   0  0  2  0  0  0  0  0  0  0  0  0
    2.8900    0.4350   -1.5520 C   0  0  0  0  0  0  0  0  0  0  0  0
    4.3250    0.2380   -1.9930 C   0  0  0  0  0  0  0  0  0  0  0  0
    4.8470   -0.7880   -1.2630 O   0  0  0  0  0  0  0  0  0  0  0  0
    4.0530   -1.0160   -0.1470 C   0  0  0  0  0  0  0  0  0  0  0  0
   -1.7300    0.7130    0.0200 C   0  0  0  0  0  0  0  0  0  0  0  0
   -2.6160   -0.0620   -0.5570 C   0  0  0  0  0  0  0  0  0  0  0  0
   -2.5670   -1.5180   -0.4270 C   0  0  0  0  0  0  0  0  0  0  0  0
   -3.8110   -1.9690    0.2200 N   0  0  0  0  0  0  0  0  0  0  0  0
   -3.6870    0.4630   -1.3510 N   0  0  0  0  0  0  0  0  0  0  0  0
   -4.1260    1.8170   -1.1750 C   0  0  0  0  0  0  0  0  0  0  0  0
   -2.9140    2.6380   -0.9570 C   0  0  0  0  0  0  0  0  0  0  0  0
   -2.8780    3.7850   -1.4780 O   0  0  0  0  0  0  0  0  0  0  0  0
   -1.9000    2.1020   -0.1980 O   0  0  0  0  0  0  0  0  0  0  0  0
  2  1  1  1
  2  3  1  0
  2 12  1  0
  3  4  1  0
  4  5  1  1
  4  7  1  0
  5  6  1  0
  7  8  1  6
  7 11  1  0
  8  9  1  0
  9 10  1  0
 10 11  1  0
 12 13  2  0
 12 20  1  0
 13 14  1  0
 13 16  1  0
 14 15  1  0
 16 17  1  0
 17 18  1  0
 18 19  2  0
 18 20  1  0
M  CHG  2   3   1  15   1
M  END
