
     RDKit          3D

 25 27  0  0  0  0  0  0  0  0999 V2000
   -5.5900    2.4700    1.5080 C   0  0  0  0  0  0  0  0  0  0  0  0
   -5.0260    1.5180    0.8180 C   0  0  0  0  0  0  0  0  0  0  0  0
   -5.5280    0.8870   -0.3950 C   0  0  0  0  0  0  0  0  0  0  0  0
   -4.4760   -0.0230   -0.8280 C   0  0  0  0  0  0  0  0  0  0  0  0
   -4.5670   -0.7290   -2.0390 O   0  0  0  0  0  0  0  0  0  0  0  0
   -5.0130   -2.0570   -2.0120 C   0  0  0  0  0  0  0  0  0  0  0  0
   -3.4480   -0.0830    0.0680 C   0  0  0  0  0  0  0  0  0  0  0  0
   -2.3090   -0.9150   -0.1550 C   0  0  0  0  0  0  0  0  0  0  0  0
   -1.2460   -1.1880    0.5200 C   0  0  0  0  0  0  0  0  0  0  0  0
   -0.2070   -2.1590   -0.1000 C   0  0  0  0  0  0  0  0  0  0  0  0
    0.9200   -2.0790    0.6440 O   0  0  0  0  0  0  0  0  0  0  0  0
    1.4010   -0.8060    0.9300 C   0  0  1  0  0  0  0  0  0  0  0  0
    2.7600   -0.8440    1.5170 C   0  0  0  0  0  0  0  0  0  0  0  0
    3.8830   -0.9530    0.5540 C   0  0  0  0  0  0  0  0  0  0  0  0
    3.7290   -0.1140   -0.6830 C   0  0  2  0  0  0  0  0  0  0  0  0
    4.0250    1.2610   -0.4430 N   0  0  2  0  0  0  0  0  0  0  0  0
    3.7290    2.1150   -1.5620 C   0  0  0  0  0  0  0  0  0  0  0  0
    5.4750    1.3560   -0.2210 C   0  0  0  0  0  0  0  0  0  0  0  0
    2.3760   -0.3790   -1.2590 C   0  0  0  0  0  0  0  0  0  0  0  0
    1.3500    0.1160   -0.2650 C   0  0  0  0  0  0  0  0  0  0  0  0
    0.4730   -0.1550    2.0000 C   0  0  0  0  0  0  0  0  0  0  0  0
   -0.8600   -0.8000    1.8580 C   0  0  0  0  0  0  0  0  0  0  0  0
   -1.5800   -0.9910    2.8330 O   0  0  0  0  0  0  0  0  0  0  0  0
   -3.7350    0.8520    1.1050 C   0  0  0  0  0  0  0  0  0  0  0  0
   -3.0940    1.1470    2.1150 O   0  0  0  0  0  0  0  0  0  0  0  0
  1  2  2  0
  2  3  1  0
  2 24  1  0
  3  4  1  0
  4  5  1  0
  4  7  2  0
  5  6  1  0
  7  8  1  0
  7 24  1  0
  8  9  2  3
  9 10  1  0
  9 22  1  0
 10 11  1  0
 11 12  1  0
 12 13  1  1
 12 20  1  0
 12 21  1  0
 13 14  1  0
 15 14  1  1
 15 16  1  0
 15 19  1  0
 16 17  1  6
 16 18  1  0
 19 20  1  0
 21 22  1  0
 22 23  2  0
 24 25  2  0
M  CHG  1  16   1
M  END
