
     RDKit          3D

 20 21  0  0  0  0  0  0  0  0999 V2000
    4.8620   -2.6800    0.9080 C   0  0  0  0  0  0  0  0  0  0  0  0
    3.5300   -2.2790    1.0580 O   0  0  0  0  0  0  0  0  0  0  0  0
    3.1280   -0.9580    0.8120 C   0  0  0  0  0  0  0  0  0  0  0  0
    4.0790   -0.0520    0.4160 C   0  0  0  0  0  0  0  0  0  0  0  0
    3.6590    1.2420    0.1800 C   0  0  0  0  0  0  0  0  0  0  0  0
    4.6380    2.2080   -0.2350 N   0  0  0  0  0  0  0  0  0  0  0  0
    2.3700    1.5970    0.3330 N   0  0  0  0  0  0  0  0  0  0  0  0
    1.4110    0.7370    0.7180 C   0  0  0  0  0  0  0  0  0  0  0  0
   -0.0110    1.0900    0.8830 C   0  0  0  0  0  0  0  0  0  0  0  0
   -0.7570    0.8010   -0.3760 C   0  0  2  0  0  0  0  0  0  0  0  0
   -0.1960    1.5720   -1.4570 N   0  0  0  0  0  0  0  0  0  0  0  0
   -2.2400    1.0560   -0.2380 C   0  0  1  0  0  0  0  0  0  0  0  0
   -2.9440    0.8230   -1.5270 C   0  0  0  0  0  0  0  0  0  0  0  0
   -2.9670   -0.4990   -1.9220 O   0  0  0  0  0  0  0  0  0  0  0  0
   -3.0230   -1.4000   -0.8970 C   0  0  0  0  0  0  0  0  0  0  0  0
   -3.3870   -0.8550    0.4420 C   0  0  2  0  0  0  0  0  0  0  0  0
   -4.8950   -0.8450    0.5610 C   0  0  0  0  0  0  0  0  0  0  0  0
   -5.3230   -2.1260    0.1410 O   0  0  0  0  0  0  0  0  0  0  0  0
   -2.7900    0.3150    0.8100 O   0  0  0  0  0  0  0  0  0  0  0  0
    1.8170   -0.5690    0.9600 C   0  0  0  0  0  0  0  0  0  0  0  0
  1  2  1  0
  2  3  1  0
  3  4  2  0
  3 20  1  0
  4  5  1  0
  5  6  1  0
  5  7  2  0
  7  8  1  0
  8  9  1  0
  8 20  2  0
  9 10  1  0
 10 11  1  6
 10 12  1  0
 12 13  1  6
 12 19  1  0
 13 14  1  0
 14 15  1  0
 15 16  1  0
 16 17  1  6
 16 19  1  0
 17 18  1  0
M  CHG  2   7   1  11   1
M  END
