
     RDKit          3D

 24 27  0  0  0  0  0  0  0  0999 V2000
   -6.4050   -0.4000   -1.1320 C   0  0  0  0  0  0  0  0  0  0  0  0
   -5.4720   -1.5610   -0.8910 C   0  0  0  0  0  0  0  0  0  0  0  0
   -4.0810   -1.0720   -0.5720 C   0  0  0  0  0  0  0  0  0  0  0  0
   -3.0930   -1.4420   -1.3670 C   0  0  0  0  0  0  0  0  0  0  0  0
   -1.7870   -1.0390   -1.1470 O   0  0  0  0  0  0  0  0  0  0  0  0
   -1.5400   -0.2140   -0.0410 C   0  0  0  0  0  0  0  0  0  0  0  0
   -2.4850    0.1780    0.7720 C   0  0  0  0  0  0  0  0  0  0  0  0
   -2.1560    1.0570    1.9320 C   0  0  0  0  0  0  0  0  0  0  0  0
   -0.7280    1.2460    2.2340 C   0  0  0  0  0  0  0  0  0  0  0  0
    0.0480    1.4530    0.9430 C   0  0  0  0  0  0  0  0  0  0  0  0
   -0.1530    0.2020    0.1780 C   0  0  0  0  0  0  0  0  0  0  0  0
    0.7810   -0.5240   -0.2890 N   0  0  0  0  0  0  0  0  0  0  0  0
    2.1760   -0.2410   -0.1500 C   0  0  0  0  0  0  0  0  0  0  0  0
    2.6470   -0.1070    1.1470 C   0  0  0  0  0  0  0  0  0  0  0  0
    3.9940    0.1630    1.2990 C   0  0  0  0  0  0  0  0  0  0  0  0
    4.8150    0.2890    0.2020 C   0  0  0  0  0  0  0  0  0  0  0  0
    4.3710    0.1600   -1.1040 C   0  0  0  0  0  0  0  0  0  0  0  0
    3.0080   -0.1120   -1.2390 C   0  0  0  0  0  0  0  0  0  0  0  0
    5.2070    0.2900   -2.1860 O   0  0  0  0  0  0  0  0  0  0  0  0
    6.5970    0.3830   -2.0430 C   0  0  0  0  0  0  0  0  0  0  0  0
    7.0130   -0.0730   -0.6720 C   0  0  0  0  0  0  0  0  0  0  0  0
    6.1960    0.5630    0.3030 O   0  0  0  0  0  0  0  0  0  0  0  0
   -3.9280   -0.2270    0.5910 C   0  0  2  0  0  0  0  0  0  0  0  0
   -4.2650   -0.8460    1.7940 O   0  0  0  0  0  0  0  0  0  0  0  0
  1  2  1  0
  2  3  1  0
  3  4  2  0
  3 23  1  0
  4  5  1  0
  5  6  1  0
  6  7  2  0
  6 11  1  0
  7  8  1  0
  7 23  1  0
  8  9  1  0
  9 10  1  0
 10 11  1  0
 11 12  2  3
 12 13  1  0
 13 14  2  0
 13 18  1  0
 14 15  1  0
 15 16  2  0
 16 17  1  0
 16 22  1  0
 17 18  2  0
 17 19  1  0
 19 20  1  0
 20 21  1  0
 21 22  1  0
 23 24  1  1
M  CHG  1  12   1
M  END
