
     RDKit          3D

 21 24  0  0  0  0  0  0  0  0999 V2000
   -1.3110   -2.3330   -1.3890 O   0  0  0  0  0  0  0  0  0  0  0  0
   -1.7560   -1.2780   -0.6070 C   0  0  0  0  0  0  0  0  0  0  0  0
   -3.1000   -1.1290   -0.3370 C   0  0  0  0  0  0  0  0  0  0  0  0
   -3.4910   -0.0510    0.4540 C   0  0  0  0  0  0  0  0  0  0  0  0
   -2.5720    0.8410    0.9540 C   0  0  0  0  0  0  0  0  0  0  0  0
   -1.2350    0.6520    0.6580 C   0  0  0  0  0  0  0  0  0  0  0  0
   -0.7890   -0.3920   -0.1160 C   0  0  0  0  0  0  0  0  0  0  0  0
    0.5580   -0.6420   -0.4500 N   0  0  0  0  0  0  0  0  0  0  0  0
    1.1850   -0.7700   -1.7530 C   0  0  0  0  0  0  0  0  0  0  0  0
    2.3470   -1.7430   -1.5400 C   0  0  0  0  0  0  0  0  0  0  0  0
    2.1730   -2.1830   -0.0820 C   0  0  0  0  0  0  0  0  0  0  0  0
    1.6490   -0.8490    0.5180 C   0  0  1  0  0  0  0  0  0  0  0  0
    2.7300    0.1240    0.3600 C   0  0  0  0  0  0  0  0  0  0  0  0
    2.5240    1.4520    0.1400 C   0  0  0  0  0  0  0  0  0  0  0  0
    3.5950    2.3270    0.0030 C   0  0  0  0  0  0  0  0  0  0  0  0
    4.8770    1.8340    0.0930 C   0  0  0  0  0  0  0  0  0  0  0  0
    5.0440    0.5230    0.3100 N   0  0  0  0  0  0  0  0  0  0  0  0
    4.0120   -0.2900    0.4370 N   0  0  0  0  0  0  0  0  0  0  0  0
   -3.3060    1.8770    1.7550 C   0  0  0  0  0  0  0  0  0  0  0  0
   -4.6470    1.8020    1.1490 N   0  0  0  0  0  0  0  0  0  0  0  0
   -4.8190    0.3960    0.9300 C   0  0  0  0  0  0  0  0  0  0  0  0
  1  2  1  0
  2  3  2  0
  2  7  1  0
  3  4  1  0
  4  5  2  0
  4 21  1  0
  5  6  1  0
  5 19  1  0
  6  7  2  0
  7  8  1  0
  8  9  1  0
  8 12  1  0
  9 10  1  0
 10 11  1  0
 11 12  1  0
 12 13  1  6
 13 14  2  0
 13 18  1  0
 14 15  1  0
 15 16  2  0
 16 17  1  0
 17 18  2  0
 19 20  1  0
 20 21  1  0
M  END
