
     RDKit          3D

 21 24  0  0  0  0  0  0  0  0999 V2000
   -6.5820    0.4350   -0.2730 C   0  0  0  0  0  0  0  0  0  0  0  0
   -5.6620   -0.3700   -0.7650 C   0  0  0  0  0  0  0  0  0  0  0  0
   -4.4570   -0.1490    0.0340 C   0  0  0  0  0  0  0  0  0  0  0  0
   -3.1910   -0.8120   -0.1390 N   0  0  0  0  0  0  0  0  0  0  0  0
   -2.6370   -0.8790   -1.4720 C   0  0  0  0  0  0  0  0  0  0  0  0
   -1.2680   -0.2350   -1.4350 C   0  0  0  0  0  0  0  0  0  0  0  0
   -0.4110   -0.9230   -0.3750 C   0  0  1  0  0  0  0  0  0  0  0  0
    0.8740   -0.1380   -0.3300 C   0  0  0  0  0  0  0  0  0  0  0  0
    0.9390    1.1570    0.0360 N   0  0  0  0  0  0  0  0  0  0  0  0
    2.2310    1.5140   -0.0440 N   0  0  0  0  0  0  0  0  0  0  0  0
    2.9280    0.4540   -0.4500 C   0  0  0  0  0  0  0  0  0  0  0  0
    4.3770    0.4230   -0.6650 C   0  0  1  0  0  0  0  0  0  0  0  0
    5.1230    1.5120    0.0540 C   0  0  0  0  0  0  0  0  0  0  0  0
    6.5350    0.9260    0.1210 C   0  0  0  0  0  0  0  0  0  0  0  0
    6.4090   -0.4910   -0.4030 C   0  0  0  0  0  0  0  0  0  0  0  0
    5.0000   -0.7780   -0.0910 N   0  0  0  0  0  0  0  0  0  0  0  0
    2.0780   -0.5150   -0.6100 O   0  0  0  0  0  0  0  0  0  0  0  0
   -1.0690   -0.7980    0.9710 C   0  0  0  0  0  0  0  0  0  0  0  0
   -2.4510   -1.4120    0.9460 C   0  0  0  0  0  0  0  0  0  0  0  0
   -4.6600    0.7600    0.9710 C   0  0  0  0  0  0  0  0  0  0  0  0
   -6.0620    1.2200    0.8520 C   0  0  0  0  0  0  0  0  0  0  0  0
  1  2  2  0
  1 21  1  0
  2  3  1  0
  3  4  1  0
  3 20  2  0
  4  5  1  0
  4 19  1  0
  5  6  1  0
  6  7  1  0
  7  8  1  1
  7 18  1  0
  8  9  2  0
  8 17  1  0
  9 10  1  0
 10 11  2  0
 12 11  1  1
 11 17  1  0
 12 13  1  0
 12 16  1  0
 13 14  1  0
 14 15  1  0
 15 16  1  0
 18 19  1  0
 20 21  1  0
M  END
