
     RDKit          3D

 25 27  0  0  0  0  0  0  0  0999 V2000
    6.7160    0.4020   -1.5560 N   0  0  0  0  0  0  0  0  0  0  0  0
    5.9670    0.0620   -0.3440 C   0  0  0  0  0  0  0  0  0  0  0  0
    6.5870   -0.2460    0.7100 N   0  0  0  0  0  0  0  0  0  0  0  0
    4.5610    0.0900   -0.3990 N   0  0  0  0  0  0  0  0  0  0  0  0
    3.7330   -0.2160    0.6950 C   0  0  0  0  0  0  0  0  0  0  0  0
    4.2040   -0.5350    1.7940 O   0  0  0  0  0  0  0  0  0  0  0  0
    2.2560   -0.1640    0.5610 C   0  0  0  0  0  0  0  0  0  0  0  0
    1.6880    0.1720   -0.5960 N   0  0  0  0  0  0  0  0  0  0  0  0
    0.3090    0.2240   -0.7340 C   0  0  0  0  0  0  0  0  0  0  0  0
   -0.2300    0.5340   -2.0440 C   0  0  0  0  0  0  0  0  0  0  0  0
   -1.0990    1.4710   -2.4960 C   0  0  0  0  0  0  0  0  0  0  0  0
   -1.2930    1.2880   -3.8790 C   0  0  0  0  0  0  0  0  0  0  0  0
   -0.5540    0.2670   -4.2270 O   0  0  0  0  0  0  0  0  0  0  0  0
    0.0900   -0.2130   -3.1930 C   0  0  0  0  0  0  0  0  0  0  0  0
   -0.5010   -0.0700    0.3160 C   0  0  0  0  0  0  0  0  0  0  0  0
   -1.9120   -0.0440    0.2530 N   0  0  0  0  0  0  0  0  0  0  0  0
   -2.6730    1.1540    0.2960 C   0  0  0  0  0  0  0  0  0  0  0  0
   -3.6210    1.1920    1.5020 C   0  0  0  0  0  0  0  0  0  0  0  0
   -4.9010    0.4190    1.1720 C   0  0  0  0  0  0  0  0  0  0  0  0
   -4.6640   -1.0580    1.1430 C   0  0  0  0  0  0  0  0  0  0  0  0
   -3.9370   -1.3870   -0.1400 C   0  0  0  0  0  0  0  0  0  0  0  0
   -2.4730   -1.3930    0.1410 C   0  0  0  0  0  0  0  0  0  0  0  0
    0.1070   -0.4160    1.5050 N   0  0  0  0  0  0  0  0  0  0  0  0
    1.4400   -0.4630    1.6280 C   0  0  0  0  0  0  0  0  0  0  0  0
    2.0880   -0.8180    2.8480 N   0  0  0  0  0  0  0  0  0  0  0  0
  1  2  1  0
  2  3  2  0
  2  4  1  0
  4  5  1  0
  5  6  2  0
  5  7  1  0
  7  8  2  0
  7 24  1  0
  8  9  1  0
  9 10  1  0
  9 15  2  0
 10 11  1  0
 10 14  2  0
 11 12  2  0
 12 13  1  0
 13 14  1  0
 15 16  1  0
 15 23  1  0
 16 17  1  0
 16 22  1  0
 17 18  1  0
 18 19  1  0
 19 20  1  0
 20 21  1  0
 21 22  1  0
 23 24  2  0
 24 25  1  0
M  CHG  1   3   1
M  END
