
     RDKit          3D

  8  8  0  0  0  0  0  0  0  0999 V2000
    3.0820    0.5390    0.0080 C   0  0  0  0  0  0  0  0  0  0  0  0
    1.6060    0.5230    0.2560 C   0  0  0  0  0  0  0  0  0  0  0  0
    0.8170   -0.2830   -0.4170 C   0  0  0  0  0  0  0  0  0  0  0  0
   -0.6150   -0.3040   -0.1820 C   0  0  0  0  0  0  0  0  0  0  0  0
   -1.5750   -1.0820   -0.7960 C   0  0  0  0  0  0  0  0  0  0  0  0
   -2.8120   -0.7780   -0.2680 C   0  0  0  0  0  0  0  0  0  0  0  0
   -2.6180    0.1630    0.6480 N   0  0  0  0  0  0  0  0  0  0  0  0
   -1.3150    0.4830    0.7380 C   0  0  0  0  0  0  0  0  0  0  0  0
  1  2  1  0
  2  3  2  3
  3  4  1  0
  4  5  1  0
  4  8  2  0
  5  6  2  0
  6  7  1  0
  7  8  1  0
M  END
