
     RDKit          3D

  9  8  0  0  0  0  0  0  0  0999 V2000
   -1.8640   -1.8180    0.4780 C   0  0  0  0  0  0  0  0  0  0  0  0
   -1.9010   -0.4230   -0.0260 C   0  0  0  0  0  0  0  0  0  0  0  0
   -0.7950    0.2040   -0.4150 C   0  0  0  0  0  0  0  0  0  0  0  0
   -0.8680    1.6050   -0.9160 C   0  0  0  0  0  0  0  0  0  0  0  0
   -2.2480    2.0500   -0.8790 N   0  0  0  0  0  0  0  0  0  0  0  0
    0.5210   -0.5220   -0.3410 C   0  0  0  0  0  0  0  0  0  0  0  0
    1.4390    0.2480    0.5790 C   0  0  0  0  0  0  0  0  0  0  0  0
    2.7880   -0.3920    0.7260 C   0  0  0  0  0  0  0  0  0  0  0  0
    3.4750   -0.5130   -0.4590 O   0  0  0  0  0  0  0  0  0  0  0  0
  1  2  1  0
  2  3  2  3
  3  4  1  0
  3  6  1  0
  4  5  1  0
  6  7  1  0
  7  8  1  0
  8  9  1  0
M  END
