
     RDKit          3D

  9  8  0  0  0  0  0  0  0  0999 V2000
   -2.4550   -1.1380   -0.4030 C   0  0  0  0  0  0  0  0  0  0  0  0
   -2.2480   -0.0020    0.2340 C   0  0  0  0  0  0  0  0  0  0  0  0
   -3.1520    0.3530    1.2430 O   0  0  0  0  0  0  0  0  0  0  0  0
   -1.1180    0.8500   -0.1050 C   0  0  0  0  0  0  0  0  0  0  0  0
   -0.9490    1.9720    0.5540 C   0  0  0  0  0  0  0  0  0  0  0  0
   -0.2220    0.4740   -1.1250 N   0  0  0  0  0  0  0  0  0  0  0  0
    1.1890    0.3270   -0.9170 C   0  0  0  0  0  0  0  0  0  0  0  0
    1.5390   -0.8550   -0.0200 C   0  0  0  0  0  0  0  0  0  0  0  0
    3.0720   -0.8400    0.0770 C   0  0  0  0  0  0  0  0  0  0  0  0
  1  2  2  0
  2  3  1  0
  2  4  1  0
  4  5  2  0
  4  6  1  0
  6  7  1  0
  7  8  1  0
  8  9  1  0
M  END
