
     RDKit          3D

  9  8  0  0  0  0  0  0  0  0999 V2000
   -1.6030    1.2150   -0.0100 C   0  0  0  0  0  0  0  0  0  0  0  0
   -0.9190   -0.0850    0.2930 C   0  0  1  0  0  0  0  0  0  0  0  0
   -1.1540   -0.3800    1.7610 C   0  0  0  0  0  0  0  0  0  0  0  0
   -1.5540   -1.2030   -0.4930 C   0  0  0  0  0  0  0  0  0  0  0  0
    0.5570   -0.0220    0.0630 C   0  0  0  0  0  0  0  0  0  0  0  0
    1.0870   -0.2160   -1.1250 C   0  0  0  0  0  0  0  0  0  0  0  0
    2.5150   -0.1510   -1.3260 C   0  0  0  0  0  0  0  0  0  0  0  0
    3.3580    0.1260   -0.2230 N   0  0  0  0  0  0  0  0  0  0  0  0
    3.0440   -0.3320   -2.4460 O   0  0  0  0  0  0  0  0  0  0  0  0
  2  1  1  6
  2  3  1  0
  2  4  1  0
  2  5  1  0
  5  6  2  3
  6  7  1  0
  7  8  1  0
  7  9  2  0
M  END
