
     RDKit          3D

 21 23  0  0  0  0  0  0  0  0999 V2000
    4.7220   -1.9310   -1.2670 C   0  0  0  0  0  0  0  0  0  0  0  0
    3.2460   -2.0530   -0.9410 C   0  0  0  0  0  0  0  0  0  0  0  0
    2.8220   -0.8050   -0.2820 C   0  0  0  0  0  0  0  0  0  0  0  0
    3.5340    0.2480    0.0010 O   0  0  0  0  0  0  0  0  0  0  0  0
    2.8450    1.1830    0.5900 C   0  0  0  0  0  0  0  0  0  0  0  0
    3.3790    2.4850    1.0290 C   0  0  0  0  0  0  0  0  0  0  0  0
    2.3320    3.2130    1.6070 O   0  0  0  0  0  0  0  0  0  0  0  0
    1.5650    0.6980    0.7050 C   0  0  0  0  0  0  0  0  0  0  0  0
    1.5430   -0.5690    0.1510 C   0  0  0  0  0  0  0  0  0  0  0  0
    0.3450   -1.4220    0.1060 C   0  0  1  0  0  0  0  0  0  0  0  0
    0.4940   -2.6030    0.8150 O   0  0  0  0  0  0  0  0  0  0  0  0
   -0.8930   -0.6650    0.4800 C   0  0  2  0  0  0  0  0  0  0  0  0
   -2.1260   -1.5100    0.4760 C   0  0  0  0  0  0  0  0  0  0  0  0
   -3.4180   -0.7710    0.5840 C   0  0  1  0  0  0  0  0  0  0  0  0
   -4.3670   -1.3970    1.5770 C   0  0  0  0  0  0  0  0  0  0  0  0
   -3.1380    0.6800    0.9120 C   0  0  0  0  0  0  0  0  0  0  0  0
   -2.3020    1.1430   -0.2540 C   0  0  0  0  0  0  0  0  0  0  0  0
   -1.1520    0.4640   -0.4870 C   0  0  0  0  0  0  0  0  0  0  0  0
   -0.4720    1.0280   -1.6660 C   0  0  0  0  0  0  0  0  0  0  0  0
   -1.6530    1.6510   -2.4420 C   0  0  0  0  0  0  0  0  0  0  0  0
   -2.4400    2.2020   -1.2490 C   0  0  0  0  0  0  0  0  0  0  0  0
  1  2  1  0
  2  3  1  0
  3  4  1  0
  3  9  2  0
  4  5  1  0
  5  6  1  0
  5  8  2  0
  6  7  1  0
  8  9  1  0
  9 10  1  0
 10 11  1  1
 10 12  1  0
 12 13  1  6
 12 18  1  0
 13 14  1  0
 14 15  1  1
 14 16  1  0
 16 17  1  0
 17 18  2  0
 17 21  1  0
 18 19  1  0
 19 20  1  0
 20 21  1  0
M  END
