
     RDKit          3D

 26 28  0  0  0  0  0  0  0  0999 V2000
    6.5050    0.0270    0.2970 N   0  0  0  0  0  0  0  0  0  0  0  0
    5.4350   -0.5400   -0.4470 C   0  0  0  0  0  0  0  0  0  0  0  0
    5.6380   -0.8170   -1.8170 N   0  0  0  0  0  0  0  0  0  0  0  0
    4.3080   -0.7910    0.1270 N   0  0  0  0  0  0  0  0  0  0  0  0
    3.2610   -1.3510   -0.6240 C   0  0  0  0  0  0  0  0  0  0  0  0
    3.4680   -2.2290   -1.5030 O   0  0  0  0  0  0  0  0  0  0  0  0
    1.8930   -0.9120   -0.3860 C   0  0  0  0  0  0  0  0  0  0  0  0
    1.6190    0.0150    0.5340 N   0  0  0  0  0  0  0  0  0  0  0  0
    0.3420    0.4550    0.7860 C   0  0  0  0  0  0  0  0  0  0  0  0
    0.1650    1.4020    1.8560 C   0  0  0  0  0  0  0  0  0  0  0  0
    0.5350    1.0520    3.1600 C   0  0  0  0  0  0  0  0  0  0  0  0
    0.4080    1.9760    4.1090 N   0  0  0  0  0  0  0  0  0  0  0  0
   -0.0560    3.1970    3.8280 C   0  0  0  0  0  0  0  0  0  0  0  0
   -0.4210    3.5780    2.5990 N   0  0  0  0  0  0  0  0  0  0  0  0
   -0.3020    2.6570    1.6110 C   0  0  0  0  0  0  0  0  0  0  0  0
   -0.6750   -0.0740    0.0750 C   0  0  0  0  0  0  0  0  0  0  0  0
   -2.0210    0.3090    0.2930 N   0  0  0  0  0  0  0  0  0  0  0  0
   -2.5980    1.4750   -0.3000 C   0  0  0  0  0  0  0  0  0  0  0  0
   -3.8350    1.0940   -1.0890 C   0  0  0  0  0  0  0  0  0  0  0  0
   -3.6990   -0.2070   -1.7990 C   0  0  0  0  0  0  0  0  0  0  0  0
   -3.8100   -1.4310   -0.9660 C   0  0  0  0  0  0  0  0  0  0  0  0
   -3.9780   -1.1770    0.4950 C   0  0  0  0  0  0  0  0  0  0  0  0
   -2.7820   -0.5980    1.1850 C   0  0  0  0  0  0  0  0  0  0  0  0
   -0.4170   -1.0400   -0.8880 N   0  0  0  0  0  0  0  0  0  0  0  0
    0.8410   -1.4360   -1.0980 C   0  0  0  0  0  0  0  0  0  0  0  0
    1.0960   -2.4410   -2.1020 N   0  0  0  0  0  0  0  0  0  0  0  0
  1  2  1  0
  2  3  1  0
  2  4  2  3
  4  5  1  0
  5  6  2  0
  5  7  1  0
  7  8  2  0
  7 25  1  0
  8  9  1  0
  9 10  1  0
  9 16  2  0
 10 11  2  0
 10 15  1  0
 11 12  1  0
 12 13  2  0
 13 14  1  0
 14 15  2  0
 16 17  1  0
 16 24  1  0
 17 18  1  0
 17 23  1  0
 18 19  1  0
 19 20  1  0
 20 21  1  0
 21 22  1  0
 22 23  1  0
 24 25  2  0
 25 26  1  0
M  CHG  1   4   1
M  END
