
     RDKit          3D

 13 14  0  0  0  0  0  0  0  0999 V2000
    3.2870    0.9050   -0.0570 C   0  0  0  0  0  0  0  0  0  0  0  0
    2.7210   -0.3680   -0.3940 N   0  0  0  0  0  0  0  0  0  0  0  0
    1.3290   -0.5770   -0.3120 C   0  0  0  0  0  0  0  0  0  0  0  0
    0.7340   -1.7850   -0.6250 C   0  0  0  0  0  0  0  0  0  0  0  0
   -0.6280   -1.9610   -0.5360 C   0  0  0  0  0  0  0  0  0  0  0  0
   -1.4580   -0.9100   -0.1220 C   0  0  0  0  0  0  0  0  0  0  0  0
   -2.7540   -1.0680   -0.0350 O   0  0  0  0  0  0  0  0  0  0  0  0
   -3.5430   -0.0980    0.3500 C   0  0  0  0  0  0  0  0  0  0  0  0
   -4.7930   -0.2540    0.4330 O   0  0  0  0  0  0  0  0  0  0  0  0
   -3.0010    1.1190    0.6710 C   0  0  0  0  0  0  0  0  0  0  0  0
   -1.6540    1.3230    0.5920 C   0  0  0  0  0  0  0  0  0  0  0  0
   -0.8470    0.2830    0.1840 C   0  0  0  0  0  0  0  0  0  0  0  0
    0.5280    0.4630    0.0950 C   0  0  0  0  0  0  0  0  0  0  0  0
  1  2  1  0
  2  3  1  0
  3  4  2  0
  3 13  1  0
  4  5  1  0
  5  6  2  0
  6  7  1  0
  6 12  1  0
  7  8  1  0
  8  9  2  0
  8 10  1  0
 10 11  2  0
 11 12  1  0
 12 13  2  0
M  END
