
     RDKit          3D

 13 14  0  0  0  0  0  0  0  0999 V2000
    4.4840    0.4990   -0.0770 C   0  0  0  0  0  0  0  0  0  0  0  0
    3.1890    0.1120   -0.6980 C   0  0  0  0  0  0  0  0  0  0  0  0
    2.4100   -0.7380   -0.0820 C   0  0  0  0  0  0  0  0  0  0  0  0
    1.1710   -1.1270   -0.6460 N   0  0  0  0  0  0  0  0  0  0  0  0
   -0.0760   -0.6210   -0.1670 C   0  0  0  0  0  0  0  0  0  0  0  0
   -0.1260    0.2790    0.8770 C   0  0  0  0  0  0  0  0  0  0  0  0
   -1.3600    0.7580    1.3250 C   0  0  0  0  0  0  0  0  0  0  0  0
   -2.5180    0.3220    0.7140 C   0  0  0  0  0  0  0  0  0  0  0  0
   -2.4800   -0.5780   -0.3300 C   0  0  0  0  0  0  0  0  0  0  0  0
   -1.2480   -1.0370   -0.7560 C   0  0  0  0  0  0  0  0  0  0  0  0
   -3.7920   -0.8450   -0.7580 O   0  0  0  0  0  0  0  0  0  0  0  0
   -4.6700   -0.0170   -0.0230 C   0  0  0  0  0  0  0  0  0  0  0  0
   -3.8600    0.6210    0.9440 O   0  0  0  0  0  0  0  0  0  0  0  0
  1  2  1  0
  2  3  2  3
  3  4  1  0
  4  5  1  0
  5  6  2  0
  5 10  1  0
  6  7  1  0
  7  8  2  0
  8  9  1  0
  8 13  1  0
  9 10  2  0
  9 11  1  0
 11 12  1  0
 12 13  1  0
M  END
