
     RDKit          3D

 13 13  0  0  0  0  0  0  0  0999 V2000
    4.1310   -0.3600    0.8760 C   0  0  0  0  0  0  0  0  0  0  0  0
    2.9500   -0.6050    0.2980 C   0  0  0  0  0  0  0  0  0  0  0  0
    2.8770   -1.7460   -0.4460 O   0  0  0  0  0  0  0  0  0  0  0  0
    1.8380    0.2880    0.4650 C   0  0  0  0  0  0  0  0  0  0  0  0
    0.6280    0.2300   -0.0170 C   0  0  0  0  0  0  0  0  0  0  0  0
   -0.2550    1.3600    0.3970 C   0  0  0  0  0  0  0  0  0  0  0  0
   -1.6330    1.0450    0.3800 N   0  0  0  0  0  0  0  0  0  0  0  0
   -2.5110    2.1300    0.6750 C   0  0  0  0  0  0  0  0  0  0  0  0
   -2.0920    0.1870   -0.6580 C   0  0  0  0  0  0  0  0  0  0  0  0
   -2.0090   -1.2540   -0.1310 C   0  0  0  0  0  0  0  0  0  0  0  0
   -0.7810   -1.8430   -0.7990 C   0  0  0  0  0  0  0  0  0  0  0  0
    0.3180   -0.8660   -0.8940 C   0  0  0  0  0  0  0  0  0  0  0  0
    1.0710   -1.0480   -1.9000 O   0  0  0  0  0  0  0  0  0  0  0  0
  1  2  2  0
  2  3  1  0
  2  4  1  0
  4  5  2  3
  5  6  1  0
  5 12  1  0
  6  7  1  0
  7  8  1  0
  7  9  1  0
  9 10  1  0
 10 11  1  0
 11 12  1  0
 12 13  2  0
M  END
