
     RDKit          3D

 13 14  0  0  0  0  0  0  0  0999 V2000
   -3.0400    1.7180    0.5290 C   0  0  0  0  0  0  0  0  0  0  0  0
   -2.0780    0.5800    0.3920 C   0  0  0  0  0  0  0  0  0  0  0  0
   -2.5890   -0.6790    0.4100 C   0  0  0  0  0  0  0  0  0  0  0  0
   -1.7400   -1.7350    0.2890 C   0  0  0  0  0  0  0  0  0  0  0  0
   -0.3480   -1.5170    0.1460 C   0  0  0  0  0  0  0  0  0  0  0  0
    0.4380   -2.6220    0.0450 O   0  0  0  0  0  0  0  0  0  0  0  0
    0.1540   -0.2570    0.1260 C   0  0  0  0  0  0  0  0  0  0  0  0
    1.5420    0.1320   -0.1230 C   0  0  0  0  0  0  0  0  0  0  0  0
    2.5960   -0.4980   -0.6590 C   0  0  0  0  0  0  0  0  0  0  0  0
    3.6840    0.3960   -0.6410 C   0  0  0  0  0  0  0  0  0  0  0  0
    3.1960    1.5460   -0.0770 C   0  0  0  0  0  0  0  0  0  0  0  0
    1.9560    1.3570    0.2100 O   0  0  0  0  0  0  0  0  0  0  0  0
   -0.7740    0.7580    0.2560 N   0  0  0  0  0  0  0  0  0  0  0  0
  1  2  1  0
  2  3  2  0
  2 13  1  0
  3  4  1  0
  4  5  2  0
  5  6  1  0
  5  7  1  0
  7  8  1  0
  7 13  2  0
  8  9  2  0
  8 12  1  0
  9 10  1  0
 10 11  2  0
 11 12  1  0
M  END
