
     RDKit          3D

 13 14  0  0  0  0  0  0  0  0999 V2000
    3.4080   -0.6100   -0.0630 C   0  0  0  0  0  0  0  0  0  0  0  0
    2.6120    0.5500   -0.0560 O   0  0  0  0  0  0  0  0  0  0  0  0
    1.2260    0.5210   -0.0050 C   0  0  0  0  0  0  0  0  0  0  0  0
    0.5090   -0.6530    0.0430 C   0  0  0  0  0  0  0  0  0  0  0  0
   -0.8790   -0.6550    0.0940 C   0  0  0  0  0  0  0  0  0  0  0  0
   -1.6170   -1.8020    0.1430 C   0  0  0  0  0  0  0  0  0  0  0  0
   -2.9920   -1.7500    0.1920 C   0  0  0  0  0  0  0  0  0  0  0  0
   -3.5780   -0.5470    0.1900 N   0  0  0  0  0  0  0  0  0  0  0  0
   -2.9260    0.6100    0.1440 C   0  0  0  0  0  0  0  0  0  0  0  0
   -1.5470    0.5590    0.0950 C   0  0  0  0  0  0  0  0  0  0  0  0
   -0.8430    1.7450    0.0470 C   0  0  0  0  0  0  0  0  0  0  0  0
    0.5310    1.7010   -0.0020 C   0  0  0  0  0  0  0  0  0  0  0  0
    1.2620    2.8930   -0.0520 O   0  0  0  0  0  0  0  0  0  0  0  0
  1  2  1  0
  2  3  1  0
  3  4  2  0
  3 12  1  0
  4  5  1  0
  5  6  2  0
  5 10  1  0
  6  7  1  0
  7  8  2  0
  8  9  1  0
  9 10  2  0
 10 11  1  0
 11 12  2  0
 12 13  1  0
M  END
