
     RDKit          3D

 31 33  0  0  0  0  0  0  0  0999 V2000
    1.7810   -3.6350    2.0100 C   0  0  0  0  0  0  0  0  0  0  0  0
    1.3380   -2.5400    1.4170 C   0  0  0  0  0  0  0  0  0  0  0  0
   -0.0700   -2.1810    1.4050 C   0  0  0  0  0  0  0  0  0  0  0  0
   -0.5230   -1.0720    0.8040 C   0  0  0  0  0  0  0  0  0  0  0  0
   -1.9220   -0.7510    0.8140 C   0  0  0  0  0  0  0  0  0  0  0  0
   -2.5250    0.2780    0.2840 C   0  0  0  0  0  0  0  0  0  0  0  0
   -1.7470    1.3030   -0.4440 C   0  0  0  0  0  0  0  0  0  0  0  0
   -1.9710    2.6180    0.2770 C   0  0  0  0  0  0  0  0  0  0  0  0
   -4.0050    0.4090    0.4150 C   0  0  0  0  0  0  0  0  0  0  0  0
   -4.6640    0.4370   -0.8630 N   0  0  2  0  0  0  0  0  0  0  0  0
   -5.1150    1.7240   -1.2840 C   0  0  0  0  0  0  0  0  0  0  0  0
   -6.0150    2.4360   -0.3340 C   0  0  0  0  0  0  0  0  0  0  0  0
   -7.2480    1.6780   -0.1520 N   0  0  0  0  0  0  0  0  0  0  0  0
   -7.1090    0.5930    0.7630 C   0  0  1  0  0  0  0  0  0  0  0  0
   -8.4990    0.3310    1.3600 C   0  0  0  0  0  0  0  0  0  0  0  0
   -6.6100   -0.6750    0.1660 C   0  0  0  0  0  0  0  0  0  0  0  0
   -5.7150   -0.5270   -1.0030 C   0  0  0  0  0  0  0  0  0  0  0  0
    2.3100   -1.6510    0.7410 C   0  0  0  0  0  0  0  0  0  0  0  0
    3.5920   -2.1820    0.8740 O   0  0  0  0  0  0  0  0  0  0  0  0
    4.6840   -1.5370    0.3270 C   0  0  0  0  0  0  0  0  0  0  0  0
    4.5350   -0.3540   -0.3620 C   0  0  0  0  0  0  0  0  0  0  0  0
    5.6080    0.3040   -0.9140 C   0  0  0  0  0  0  0  0  0  0  0  0
    6.8530   -0.2260   -0.7770 C   0  0  0  0  0  0  0  0  0  0  0  0
    7.0580   -1.4040   -0.0980 C   0  0  0  0  0  0  0  0  0  0  0  0
    5.9660   -2.0410    0.4440 C   0  0  0  0  0  0  0  0  0  0  0  0
    6.1640   -3.2360    1.1330 O   0  0  0  0  0  0  0  0  0  0  0  0
    7.4430   -3.7870    1.2790 C   0  0  0  0  0  0  0  0  0  0  0  0
    7.9920    0.5270   -1.3950 C   0  0  0  0  0  0  0  0  0  0  0  0
    7.7400    1.9910   -1.0830 C   0  0  0  0  0  0  0  0  0  0  0  0
    6.5280    2.4110   -1.8830 C   0  0  0  0  0  0  0  0  0  0  0  0
    5.3210    1.5720   -1.6340 C   0  0  0  0  0  0  0  0  0  0  0  0
  1  2  2  0
  2  3  1  0
  2 18  1  0
  3  4  2  3
  4  5  1  0
  5  6  2  3
  6  7  1  0
  6  9  1  0
  7  8  1  0
 10  9  1  1
 10 11  1  0
 10 17  1  0
 11 12  1  0
 12 13  1  0
 13 14  1  0
 14 15  1  6
 14 16  1  0
 16 17  1  0
 18 19  1  0
 19 20  1  0
 20 21  2  0
 20 25  1  0
 21 22  1  0
 22 23  2  0
 22 31  1  0
 23 24  1  0
 23 28  1  0
 24 25  2  0
 25 26  1  0
 26 27  1  0
 28 29  1  0
 29 30  1  0
 30 31  1  0
M  CHG  2  10   1  13   1
M  END
