
     RDKit          3D

 31 33  0  0  0  0  0  0  0  0999 V2000
    7.9110   -1.5840    1.6800 C   0  0  0  0  0  0  0  0  0  0  0  0
    7.2300   -1.6520    0.5990 C   0  0  0  0  0  0  0  0  0  0  0  0
    6.6810   -2.8930    0.2180 O   0  0  0  0  0  0  0  0  0  0  0  0
    5.9420   -3.1240   -1.0150 C   0  0  0  0  0  0  0  0  0  0  0  0
    4.6830   -2.3200   -0.9270 C   0  0  0  0  0  0  0  0  0  0  0  0
    4.7760   -0.9010   -0.9030 N   0  0  1  0  0  0  0  0  0  0  0  0
    4.3160   -0.4210    0.3980 C   0  0  0  0  0  0  0  0  0  0  0  0
    3.6760    0.9130    0.3770 C   0  0  0  0  0  0  0  0  0  0  0  0
    2.4530    1.0970   -0.4330 C   0  0  0  0  0  0  0  0  0  0  0  0
    1.2870    0.3310    0.0160 C   0  0  0  0  0  0  0  0  0  0  0  0
    1.0960   -0.4590    1.0400 C   0  0  0  0  0  0  0  0  0  0  0  0
   -0.2870   -0.9890    1.0240 C   0  0  0  0  0  0  0  0  0  0  0  0
   -0.9250   -0.5050   -0.0240 C   0  0  0  0  0  0  0  0  0  0  0  0
   -2.3550   -0.7840   -0.4230 C   0  0  0  0  0  0  0  0  0  0  0  0
   -3.1320    0.4410   -0.4560 N   0  0  0  0  0  0  0  0  0  0  0  0
   -4.2190    0.3190    0.4950 C   0  0  1  0  0  0  0  0  0  0  0  0
   -4.5800    1.6310    1.1220 C   0  0  1  0  0  0  0  0  0  0  0  0
   -3.3520    2.1870    1.8660 C   0  0  0  0  0  0  0  0  0  0  0  0
   -4.8830    2.6640    0.0580 C   0  0  0  0  0  0  0  0  0  0  0  0
   -5.3280   -0.4950   -0.0500 C   0  0  1  0  0  0  0  0  0  0  0  0
   -6.4540   -0.6210    0.9220 C   0  0  0  0  0  0  0  0  0  0  0  0
   -7.6650    0.2090    0.5810 C   0  0  0  0  0  0  0  0  0  0  0  0
   -8.1560    0.0460   -0.8170 C   0  0  0  0  0  0  0  0  0  0  0  0
   -7.1720   -0.7330   -1.6230 C   0  0  0  0  0  0  0  0  0  0  0  0
   -5.7680   -0.1720   -1.4460 C   0  0  0  0  0  0  0  0  0  0  0  0
    0.0070    0.3520   -0.7300 C   0  0  0  0  0  0  0  0  0  0  0  0
   -0.2420    0.9830   -1.7720 O   0  0  0  0  0  0  0  0  0  0  0  0
    6.0070   -0.2920   -1.2800 C   0  0  0  0  0  0  0  0  0  0  0  0
    7.0420   -0.4410   -0.2060 C   0  0  0  0  0  0  0  0  0  0  0  0
    7.8250    0.5800    0.0060 C   0  0  0  0  0  0  0  0  0  0  0  0
    7.6680    1.8150   -0.7800 C   0  0  0  0  0  0  0  0  0  0  0  0
  1  2  2  0
  2  3  1  0
  2 29  1  0
  3  4  1  0
  4  5  1  0
  5  6  1  0
  6  7  1  1
  6 28  1  0
  7  8  1  0
  8  9  1  0
  9 10  1  0
 10 11  2  0
 10 26  1  0
 11 12  1  0
 12 13  2  0
 13 14  1  0
 13 26  1  0
 14 15  1  0
 16 15  1  6
 16 17  1  0
 16 20  1  0
 17 18  1  6
 17 19  1  0
 20 21  1  1
 20 25  1  0
 21 22  1  0
 22 23  1  0
 23 24  1  0
 24 25  1  0
 26 27  2  0
 28 29  1  0
 29 30  2  3
 30 31  1  0
M  CHG  2   6   1  15   1
M  END
