
     RDKit          3D

 30 33  0  0  0  0  0  0  0  0999 V2000
    6.5960    3.2150   -0.9160 C   0  0  0  0  0  0  0  0  0  0  0  0
    6.0240    2.1210   -0.4600 C   0  0  0  0  0  0  0  0  0  0  0  0
    6.2460    1.7020    0.9210 C   0  0  0  0  0  0  0  0  0  0  0  0
    5.6750    0.6160    1.3600 C   0  0  0  0  0  0  0  0  0  0  0  0
    4.7850   -0.2570    0.5360 C   0  0  0  0  0  0  0  0  0  0  0  0
    4.2000   -1.3630    1.2920 C   0  0  0  0  0  0  0  0  0  0  0  0
    3.2630   -2.1830    0.7360 O   0  0  0  0  0  0  0  0  0  0  0  0
    1.9700   -1.6990    0.4740 C   0  0  0  0  0  0  0  0  0  0  0  0
    1.6310   -0.3840    0.8160 C   0  0  0  0  0  0  0  0  0  0  0  0
    0.3830    0.1500    0.5950 C   0  0  0  0  0  0  0  0  0  0  0  0
    0.0360    1.8170    1.0590 Cl  0  0  0  0  0  0  0  0  0  0  0  0
   -0.5860   -0.6310    0.0130 C   0  0  0  0  0  0  0  0  0  0  0  0
   -1.8570   -0.0970   -0.2120 N   0  0  0  0  0  0  0  0  0  0  0  0
   -2.2900    1.1370   -0.8760 C   0  0  0  0  0  0  0  0  0  0  0  0
   -3.4680    0.6080   -1.6670 C   0  0  0  0  0  0  0  0  0  0  0  0
   -4.1240   -0.2380   -0.6940 N   0  0  0  0  0  0  0  0  0  0  0  0
   -5.5380   -0.5750   -0.6240 C   0  0  0  0  0  0  0  0  0  0  0  0
   -6.2440    0.4200    0.2160 C   0  0  0  0  0  0  0  0  0  0  0  0
   -6.8400    1.5770   -0.2760 C   0  0  0  0  0  0  0  0  0  0  0  0
   -7.3700    2.2180    0.7660 N   0  0  0  0  0  0  0  0  0  0  0  0
   -7.1590    1.5560    1.8980 N   0  0  0  0  0  0  0  0  0  0  0  0
   -6.4620    0.4380    1.5780 C   0  0  0  0  0  0  0  0  0  0  0  0
   -3.1070   -0.6890    0.1930 C   0  0  0  0  0  0  0  0  0  0  0  0
   -3.2750   -1.4780    1.1740 O   0  0  0  0  0  0  0  0  0  0  0  0
   -0.2600   -1.9400   -0.3320 C   0  0  0  0  0  0  0  0  0  0  0  0
    0.9910   -2.4730   -0.1110 C   0  0  0  0  0  0  0  0  0  0  0  0
    1.3100   -3.8670   -0.4880 C   0  0  0  0  0  0  0  0  0  0  0  0
    4.5790    0.1030   -0.6940 C   0  0  0  0  0  0  0  0  0  0  0  0
    3.5720   -0.8310   -1.7660 Cl  0  0  0  0  0  0  0  0  0  0  0  0
    5.1770    1.2760   -1.2200 N   0  0  0  0  0  0  0  0  0  0  0  0
  1  2  2  0
  2  3  1  0
  2 30  1  0
  3  4  2  0
  4  5  1  0
  5  6  1  0
  5 28  2  0
  6  7  1  0
  7  8  1  0
  8  9  2  0
  8 26  1  0
  9 10  1  0
 10 11  1  0
 10 12  2  0
 12 13  1  0
 12 25  1  0
 13 14  1  0
 13 23  1  0
 14 15  1  0
 15 16  1  0
 16 17  1  0
 16 23  1  0
 17 18  1  0
 18 19  1  0
 18 22  2  0
 19 20  2  0
 20 21  1  0
 21 22  1  0
 23 24  2  0
 25 26  2  0
 26 27  1  0
 28 29  1  0
 28 30  1  0
M  END
