
     RDKit          3D

 30 32  0  0  0  0  0  0  0  0999 V2000
   -4.5000   -3.5950   -0.5780 C   0  0  0  0  0  0  0  0  0  0  0  0
   -3.3160   -3.3260   -0.9960 C   0  0  0  0  0  0  0  0  0  0  0  0
   -2.5360   -4.4540   -1.6390 C   0  0  0  0  0  0  0  0  0  0  0  0
   -2.6760   -2.0840   -0.9140 N   0  0  0  0  0  0  0  0  0  0  0  0
   -3.2040   -0.8970   -0.3600 C   0  0  0  0  0  0  0  0  0  0  0  0
   -4.3710   -0.9250    0.1130 O   0  0  0  0  0  0  0  0  0  0  0  0
   -2.4310    0.3570   -0.3210 C   0  0  0  0  0  0  0  0  0  0  0  0
   -2.9570    1.3960    0.1790 N   0  0  0  0  0  0  0  0  0  0  0  0
   -2.3210    2.6790    0.2700 C   0  0  0  0  0  0  0  0  0  0  0  0
   -2.9460    3.7020    0.8200 C   0  0  0  0  0  0  0  0  0  0  0  0
   -4.2850    3.5180    1.3350 C   0  0  0  0  0  0  0  0  0  0  0  0
   -4.9480    4.5130    1.8940 C   0  0  0  0  0  0  0  0  0  0  0  0
   -6.5610    4.3300    2.5240 Cl  0  0  0  0  0  0  0  0  0  0  0  0
   -4.1850    6.0840    2.0120 Cl  0  0  0  0  0  0  0  0  0  0  0  0
   -0.9850    2.7570   -0.2720 C   0  0  0  0  0  0  0  0  0  0  0  0
   -0.3800    3.8800   -0.2060 O   0  0  0  0  0  0  0  0  0  0  0  0
   -0.3900    1.6210   -0.8490 N   0  0  0  0  0  0  0  0  0  0  0  0
    0.8720    1.7100   -1.5370 C   0  0  0  0  0  0  0  0  0  0  0  0
    2.0460    1.5000   -0.6610 C   0  0  0  0  0  0  0  0  0  0  0  0
    2.8080    0.3550   -0.5930 C   0  0  0  0  0  0  0  0  0  0  0  0
    3.8200    0.5370    0.3400 C   0  0  0  0  0  0  0  0  0  0  0  0
    4.8390   -0.4670    0.6920 C   0  0  0  0  0  0  0  0  0  0  0  0
    5.8030   -0.3340    1.5640 C   0  0  0  0  0  0  0  0  0  0  0  0
    6.6380   -1.5680    1.6480 C   0  0  0  0  0  0  0  0  0  0  0  0
    5.9730   -2.4540    0.6500 C   0  0  0  0  0  0  0  0  0  0  0  0
    4.9510   -1.8020    0.1200 C   0  0  0  0  0  0  0  0  0  0  0  0
    3.6530    1.7650    0.8110 N   0  0  0  0  0  0  0  0  0  0  0  0
    2.6000    2.3470    0.2210 N   0  0  0  0  0  0  0  0  0  0  0  0
   -1.0390    0.3350   -0.7800 C   0  0  1  0  0  0  0  0  0  0  0  0
   -0.2810   -0.5780    0.1880 C   0  0  0  0  0  0  0  0  0  0  0  0
  1  2  2  0
  2  3  1  0
  2  4  1  0
  4  5  1  0
  5  6  2  0
  5  7  1  0
  7  8  2  0
  7 29  1  0
  8  9  1  0
  9 10  2  3
  9 15  1  0
 10 11  1  0
 11 12  2  3
 12 13  1  0
 12 14  1  0
 15 16  2  0
 15 17  1  0
 17 18  1  0
 17 29  1  0
 18 19  1  0
 19 20  2  0
 19 28  1  0
 20 21  1  0
 21 22  1  0
 21 27  2  0
 22 23  2  0
 22 26  1  0
 23 24  1  0
 24 25  1  0
 25 26  2  0
 27 28  1  0
 29 30  1  1
M  END
