
     RDKit          3D

 30 33  0  0  0  0  0  0  0  0999 V2000
   -0.3580    0.8670    2.1370 O   0  0  0  0  0  0  0  0  0  0  0  0
    0.1440   -0.2620    1.9850 C   0  0  0  0  0  0  0  0  0  0  0  0
   -0.5350   -1.4700    2.5760 C   0  0  0  0  0  0  0  0  0  0  0  0
   -1.8420   -1.1630    3.2050 C   0  0  0  0  0  0  0  0  0  0  0  0
   -2.8660   -0.6310    2.2600 C   0  0  0  0  0  0  0  0  0  0  0  0
   -3.1400   -1.5660    1.2090 O   0  0  0  0  0  0  0  0  0  0  0  0
   -4.0780   -1.1870    0.2640 C   0  0  0  0  0  0  0  0  0  0  0  0
   -4.4170   -2.0200   -0.7950 C   0  0  0  0  0  0  0  0  0  0  0  0
   -5.3550   -1.6530   -1.7490 C   0  0  0  0  0  0  0  0  0  0  0  0
   -5.9860   -0.4340   -1.6700 C   0  0  0  0  0  0  0  0  0  0  0  0
   -6.9170    0.1870   -2.4250 N   0  0  0  0  0  0  0  0  0  0  0  0
   -7.1990    1.3850   -1.9060 N   0  0  0  0  0  0  0  0  0  0  0  0
   -6.4430    1.5310   -0.8100 C   0  0  0  0  0  0  0  0  0  0  0  0
   -5.6640    0.4140   -0.6210 C   0  0  0  0  0  0  0  0  0  0  0  0
   -4.7280    0.0250    0.3140 C   0  0  0  0  0  0  0  0  0  0  0  0
    1.3370   -0.3850    1.2620 N   0  0  0  0  0  0  0  0  0  0  0  0
    2.1060    0.6220    0.6420 C   0  0  0  0  0  0  0  0  0  0  0  0
    1.7390    1.9380    0.6850 C   0  0  0  0  0  0  0  0  0  0  0  0
    2.5170    2.8860    0.0670 N   0  0  0  0  0  0  0  0  0  0  0  0
    3.6370    2.5060   -0.5760 C   0  0  0  0  0  0  0  0  0  0  0  0
    4.0140    1.1870   -0.6250 C   0  0  0  0  0  0  0  0  0  0  0  0
    5.2380    0.7820   -1.3290 C   0  0  0  0  0  0  0  0  0  0  0  0
    6.0880    1.6290   -1.9780 C   0  0  0  0  0  0  0  0  0  0  0  0
    7.2220    1.1930   -2.6220 C   0  0  0  0  0  0  0  0  0  0  0  0
    7.5300   -0.1440   -2.6240 C   0  0  0  0  0  0  0  0  0  0  0  0
    8.9800   -0.7430   -3.4420 Cl  0  0  0  0  0  0  0  0  0  0  0  0
    6.7030   -1.0410   -1.9830 C   0  0  0  0  0  0  0  0  0  0  0  0
    5.5730   -0.5820   -1.3450 C   0  0  0  0  0  0  0  0  0  0  0  0
    4.5040   -1.7060   -0.5200 Cl  0  0  0  0  0  0  0  0  0  0  0  0
    3.2440    0.2810   -0.0170 N   0  0  0  0  0  0  0  0  0  0  0  0
  1  2  2  0
  2  3  1  0
  2 16  1  0
  3  4  1  0
  4  5  1  0
  5  6  1  0
  6  7  1  0
  7  8  2  0
  7 15  1  0
  8  9  1  0
  9 10  2  0
 10 11  1  0
 10 14  1  0
 11 12  1  0
 12 13  2  0
 13 14  1  0
 14 15  2  0
 16 17  1  0
 17 18  2  0
 17 30  1  0
 18 19  1  0
 19 20  2  0
 20 21  1  0
 21 22  1  0
 21 30  2  0
 22 23  2  0
 22 28  1  0
 23 24  1  0
 24 25  2  0
 25 26  1  0
 25 27  1  0
 27 28  2  0
 28 29  1  0
M  END
