
     RDKit          3D

 30 32  0  0  0  0  0  0  0  0999 V2000
   -5.0450    4.8960    1.5140 C   0  0  0  0  0  0  0  0  0  0  0  0
   -5.4810    3.7410    1.9380 C   0  0  0  0  0  0  0  0  0  0  0  0
   -4.5930    2.5770    1.8240 C   0  0  0  0  0  0  0  0  0  0  0  0
   -3.3640    2.6640    1.3140 N   0  0  0  0  0  0  0  0  0  0  0  0
   -2.5090    1.5980    1.1940 C   0  0  0  0  0  0  0  0  0  0  0  0
   -1.2260    1.8780    0.7240 N   0  0  0  0  0  0  0  0  0  0  0  0
   -0.2700    0.9870    0.2170 C   0  0  0  0  0  0  0  0  0  0  0  0
   -0.5870   -0.2750   -0.1920 C   0  0  0  0  0  0  0  0  0  0  0  0
    0.4460   -1.1270   -0.6050 C   0  0  0  0  0  0  0  0  0  0  0  0
    0.0850   -2.4690   -1.0320 C   0  0  0  0  0  0  0  0  0  0  0  0
   -1.1120   -2.8520   -1.0330 O   0  0  0  0  0  0  0  0  0  0  0  0
    1.0430   -3.3890   -1.4580 O   0  0  0  0  0  0  0  0  0  0  0  0
    0.6500   -4.6940   -1.8680 C   0  0  0  0  0  0  0  0  0  0  0  0
    1.7000   -0.6790   -0.5880 N   0  0  0  0  0  0  0  0  0  0  0  0
    2.0250    0.5630   -0.1900 C   0  0  0  0  0  0  0  0  0  0  0  0
    3.2570    0.9230   -0.2040 N   0  0  0  0  0  0  0  0  0  0  0  0
    4.2410    0.0090   -0.6350 C   0  0  0  0  0  0  0  0  0  0  0  0
    5.0280    0.2810   -1.6500 C   0  0  0  0  0  0  0  0  0  0  0  0
    6.0460   -0.6920   -2.0760 C   0  0  0  0  0  0  0  0  0  0  0  0
    6.9110   -0.5750   -3.0700 C   0  0  0  0  0  0  0  0  0  0  0  0
    7.0580    0.8000   -4.1450 Cl  0  0  0  0  0  0  0  0  0  0  0  0
    7.7320   -1.7800   -3.1340 C   0  0  0  0  0  0  0  0  0  0  0  0
    7.3640   -2.4810   -2.0910 C   0  0  0  0  0  0  0  0  0  0  0  0
    6.3050   -2.0070   -1.4710 C   0  0  0  0  0  0  0  0  0  0  0  0
    1.0540    1.3850    0.2060 N   0  0  0  0  0  0  0  0  0  0  0  0
   -2.9100    0.3660    1.6150 C   0  0  0  0  0  0  0  0  0  0  0  0
   -4.2000    0.2400    2.1560 C   0  0  0  0  0  0  0  0  0  0  0  0
   -4.7530   -1.3450    2.7080 Cl  0  0  0  0  0  0  0  0  0  0  0  0
   -5.0110    1.3350    2.2510 C   0  0  0  0  0  0  0  0  0  0  0  0
   -6.3770    1.2200    2.8200 C   0  0  0  0  0  0  0  0  0  0  0  0
  1  2  2  0
  2  3  1  0
  3  4  2  0
  3 29  1  0
  4  5  1  0
  5  6  1  0
  5 26  2  0
  6  7  1  0
  7  8  1  0
  7 25  2  0
  8  9  2  0
  9 10  1  0
  9 14  1  0
 10 11  2  0
 10 12  1  0
 12 13  1  0
 14 15  1  0
 15 16  2  3
 15 25  1  0
 16 17  1  0
 17 18  2  3
 18 19  1  0
 19 20  2  0
 19 24  1  0
 20 21  1  0
 20 22  1  0
 22 23  2  0
 23 24  2  0
 26 27  1  0
 27 28  1  0
 27 29  2  0
 29 30  1  0
M  END
