
     RDKit          3D

 30 32  0  0  0  0  0  0  0  0999 V2000
   -4.8950   -2.1030   -2.9730 C   0  0  0  0  0  0  0  0  0  0  0  0
   -4.2410   -0.8420   -2.7740 N   0  0  0  0  0  0  0  0  0  0  0  0
   -4.7610    0.3280   -3.4400 C   0  0  0  0  0  0  0  0  0  0  0  0
   -3.0990   -0.7090   -1.9430 C   0  0  0  0  0  0  0  0  0  0  0  0
   -2.2480   -1.6680   -1.8700 N   0  0  0  0  0  0  0  0  0  0  0  0
   -1.0810   -1.6480   -1.0790 C   0  0  0  0  0  0  0  0  0  0  0  0
   -0.2870   -2.6260   -1.0510 O   0  0  0  0  0  0  0  0  0  0  0  0
   -0.8100   -0.4140   -0.2620 C   0  0  0  0  0  0  0  0  0  0  0  0
    0.3060   -0.3630    0.3820 C   0  0  0  0  0  0  0  0  0  0  0  0
    0.9990    0.4810    1.2600 C   0  0  0  0  0  0  0  0  0  0  0  0
   -0.0810    1.5970    2.3280 Cl  0  0  0  0  0  0  0  0  0  0  0  0
    2.1720    0.5260    1.7410 C   0  0  0  0  0  0  0  0  0  0  0  0
    3.4610   -0.0580    1.7890 C   0  0  0  0  0  0  0  0  0  0  0  0
    4.3420    0.4200    2.7300 C   0  0  0  0  0  0  0  0  0  0  0  0
    5.6810   -0.0860    2.8890 C   0  0  0  0  0  0  0  0  0  0  0  0
    6.1770   -1.0340    2.1540 C   0  0  0  0  0  0  0  0  0  0  0  0
    5.3410   -1.6280    1.0910 C   0  0  0  0  0  0  0  0  0  0  0  0
    5.8880   -2.5670    0.3940 N   0  0  0  0  0  0  0  0  0  0  0  0
    3.9860   -1.1270    0.9120 C   0  0  0  0  0  0  0  0  0  0  0  0
    3.3910   -1.3690   -0.2160 C   0  0  0  0  0  0  0  0  0  0  0  0
    3.4570   -2.2370   -1.3490 C   0  0  0  0  0  0  0  0  0  0  0  0
    4.6130   -3.5010   -1.4230 Cl  0  0  0  0  0  0  0  0  0  0  0  0
   -1.8100    0.6070   -0.4180 C   0  0  0  0  0  0  0  0  0  0  0  0
   -1.5690    1.9430    0.0800 N   0  0  0  0  0  0  0  0  0  0  0  0
   -2.6180    2.7230    0.5920 C   0  0  0  0  0  0  0  0  0  0  0  0
   -2.5080    4.0130    1.0970 C   0  0  0  0  0  0  0  0  0  0  0  0
   -3.7550    4.4410    1.5020 C   0  0  0  0  0  0  0  0  0  0  0  0
   -4.5850    3.4590    1.2550 O   0  0  0  0  0  0  0  0  0  0  0  0
   -3.9580    2.4280    0.7190 C   0  0  0  0  0  0  0  0  0  0  0  0
   -2.8620    0.4650   -1.1890 N   0  0  0  0  0  0  0  0  0  0  0  0
  1  2  1  0
  2  3  1  0
  2  4  1  0
  4  5  2  0
  4 30  1  0
  5  6  1  0
  6  7  2  0
  6  8  1  0
  8  9  2  3
  8 23  1  0
  9 10  1  0
 10 11  1  0
 10 12  2  3
 12 13  1  0
 13 14  2  0
 13 19  1  0
 14 15  1  0
 15 16  2  0
 16 17  1  0
 17 18  2  0
 17 19  1  0
 19 20  2  3
 20 21  1  0
 21 22  1  0
 23 24  1  0
 23 30  2  0
 24 25  1  0
 25 26  1  0
 25 29  2  0
 26 27  2  0
 27 28  1  0
 28 29  1  0
M  END
