
     RDKit          3D

 30 33  0  0  0  0  0  0  0  0999 V2000
   -7.8380    1.2810    0.7570 C   0  0  0  0  0  0  0  0  0  0  0  0
   -6.4560    1.5070    0.6730 O   0  0  0  0  0  0  0  0  0  0  0  0
   -5.5230    0.5140    0.4540 C   0  0  0  0  0  0  0  0  0  0  0  0
   -5.8980   -0.8040    0.3000 C   0  0  0  0  0  0  0  0  0  0  0  0
   -4.9650   -1.7960    0.0820 C   0  0  0  0  0  0  0  0  0  0  0  0
   -5.3710   -3.2360   -0.0860 C   0  0  0  0  0  0  0  0  0  0  0  0
   -3.6330   -1.4310    0.0220 C   0  0  0  0  0  0  0  0  0  0  0  0
   -3.2070   -0.1180    0.1710 C   0  0  0  0  0  0  0  0  0  0  0  0
   -1.8080    0.2560    0.1060 C   0  0  0  0  0  0  0  0  0  0  0  0
   -1.3530    1.5100    0.2440 N   0  0  0  0  0  0  0  0  0  0  0  0
   -0.0300    1.4750    0.1280 N   0  0  0  0  0  0  0  0  0  0  0  0
    0.3330    0.2030   -0.0820 C   0  0  0  0  0  0  0  0  0  0  0  0
    1.7380   -0.2400   -0.2630 C   0  0  0  0  0  0  0  0  0  0  0  0
    2.6590    0.8820   -0.1950 N   0  0  0  0  0  0  0  0  0  0  0  0
    4.0570    0.6200   -0.3550 C   0  0  0  0  0  0  0  0  0  0  0  0
    4.5670    0.6720   -1.6880 C   0  0  0  0  0  0  0  0  0  0  0  0
    3.6690    1.0260   -2.7400 C   0  0  0  0  0  0  0  0  0  0  0  0
    3.6790    0.9770   -4.0010 C   0  0  0  0  0  0  0  0  0  0  0  0
    4.8760    0.4090   -5.0920 Cl  0  0  0  0  0  0  0  0  0  0  0  0
    5.9080    0.4060   -1.7590 C   0  0  0  0  0  0  0  0  0  0  0  0
    6.7480    0.4940   -3.2920 Cl  0  0  0  0  0  0  0  0  0  0  0  0
    6.6720    0.1180   -0.6630 N   0  0  0  0  0  0  0  0  0  0  0  0
    6.1530    0.0810    0.5560 C   0  0  0  0  0  0  0  0  0  0  0  0
    6.9110   -0.2080    1.6740 C   0  0  0  0  0  0  0  0  0  0  0  0
    6.3530   -0.2390    2.9040 N   0  0  0  0  0  0  0  0  0  0  0  0
    5.0380    0.0120    3.0820 C   0  0  0  0  0  0  0  0  0  0  0  0
    4.2340    0.3050    2.0040 C   0  0  0  0  0  0  0  0  0  0  0  0
    4.8260    0.3340    0.7340 C   0  0  0  0  0  0  0  0  0  0  0  0
   -0.7700   -0.5060   -0.0890 O   0  0  0  0  0  0  0  0  0  0  0  0
   -4.1830    0.8300    0.3860 C   0  0  0  0  0  0  0  0  0  0  0  0
  1  2  1  0
  2  3  1  0
  3  4  2  0
  3 30  1  0
  4  5  1  0
  5  6  1  0
  5  7  2  0
  7  8  1  0
  8  9  1  0
  8 30  2  0
  9 10  2  0
  9 29  1  0
 10 11  1  0
 11 12  2  0
 12 13  1  0
 12 29  1  0
 13 14  1  0
 14 15  1  0
 15 16  2  0
 15 28  1  0
 16 17  1  0
 16 20  1  0
 17 18  2  3
 18 19  1  0
 20 21  1  0
 20 22  2  0
 22 23  1  0
 23 24  2  0
 23 28  1  0
 24 25  1  0
 25 26  2  0
 26 27  1  0
 27 28  2  0
M  END
