
     RDKit          3D

 30 32  0  0  0  0  0  0  0  0999 V2000
   -4.0270    4.7960    0.3300 C   0  0  0  0  0  0  0  0  0  0  0  0
   -3.9070    3.8570   -0.7210 O   0  0  0  0  0  0  0  0  0  0  0  0
   -2.9060    2.9140   -0.6540 C   0  0  0  0  0  0  0  0  0  0  0  0
   -2.7870    2.0210   -1.6480 N   0  0  0  0  0  0  0  0  0  0  0  0
   -1.8180    1.0750   -1.6270 C   0  0  0  0  0  0  0  0  0  0  0  0
   -0.9530    1.0420   -0.5660 C   0  0  0  0  0  0  0  0  0  0  0  0
    0.1660    0.1160   -0.4060 C   0  0  0  0  0  0  0  0  0  0  0  0
    1.4420    0.6210   -0.3810 N   0  0  0  0  0  0  0  0  0  0  0  0
    2.5040   -0.1600   -0.1720 C   0  0  0  0  0  0  0  0  0  0  0  0
    3.8780    0.3830   -0.1450 C   0  0  0  0  0  0  0  0  0  0  0  0
    4.8670   -0.3660    0.0540 O   0  0  0  0  0  0  0  0  0  0  0  0
    4.0960    1.7670   -0.3460 N   0  0  0  0  0  0  0  0  0  0  0  0
    5.2900    2.2150   -0.4730 C   0  0  0  0  0  0  0  0  0  0  0  0
    6.4130    1.3550   -0.4170 N   0  0  0  0  0  0  0  0  0  0  0  0
    5.4810    3.6020   -0.6750 N   0  0  0  0  0  0  0  0  0  0  0  0
    2.3610   -1.5180    0.0280 C   0  0  0  0  0  0  0  0  0  0  0  0
    3.5190   -2.3100    0.2460 N   0  0  0  0  0  0  0  0  0  0  0  0
    1.1220   -2.0340    0.0070 N   0  0  0  0  0  0  0  0  0  0  0  0
    0.0310   -1.2290   -0.2070 C   0  0  0  0  0  0  0  0  0  0  0  0
   -1.2530   -1.8620   -0.2230 N   0  0  0  0  0  0  0  0  0  0  0  0
   -1.7050   -2.2540   -1.5280 C   0  0  0  0  0  0  0  0  0  0  0  0
   -1.5740   -3.7760   -1.5950 C   0  0  0  0  0  0  0  0  0  0  0  0
   -1.6730   -4.3890   -0.2210 C   0  0  0  0  0  0  0  0  0  0  0  0
   -3.0400   -4.1460    0.3330 C   0  0  0  0  0  0  0  0  0  0  0  0
   -3.1980   -2.7790    0.9460 C   0  0  0  0  0  0  0  0  0  0  0  0
   -1.9220   -2.0190    1.0450 C   0  0  0  0  0  0  0  0  0  0  0  0
   -1.0690    1.9730    0.4770 C   0  0  0  0  0  0  0  0  0  0  0  0
   -0.2120    1.9620    1.5550 O   0  0  0  0  0  0  0  0  0  0  0  0
   -0.3860    2.9290    2.5720 C   0  0  0  0  0  0  0  0  0  0  0  0
   -2.0550    2.8720    0.3740 N   0  0  0  0  0  0  0  0  0  0  0  0
  1  2  1  0
  2  3  1  0
  3  4  2  0
  3 30  1  0
  4  5  1  0
  5  6  2  0
  6  7  1  0
  6 27  1  0
  7  8  2  0
  7 19  1  0
  8  9  1  0
  9 10  1  0
  9 16  2  0
 10 11  2  0
 10 12  1  0
 12 13  2  3
 13 14  1  0
 13 15  1  0
 16 17  1  0
 16 18  1  0
 18 19  2  0
 19 20  1  0
 20 21  1  0
 20 26  1  0
 21 22  1  0
 22 23  1  0
 23 24  1  0
 24 25  1  0
 25 26  1  0
 27 28  1  0
 27 30  2  0
 28 29  1  0
M  CHG  1  12   1
M  END
