
     RDKit          3D

 30 32  0  0  0  0  0  0  0  0999 V2000
    4.9520   -2.7820    0.5740 C   0  0  0  0  0  0  0  0  0  0  0  0
    4.4150   -2.2330    1.6470 C   0  0  0  0  0  0  0  0  0  0  0  0
    4.6100   -0.7980    1.9900 C   0  0  0  0  0  0  0  0  0  0  0  0
    3.2110   -0.1560    2.0180 C   0  0  0  0  0  0  0  0  0  0  0  0
    2.6470   -0.3410    0.6550 C   0  0  0  0  0  0  0  0  0  0  0  0
    1.3430    0.1680    0.4100 N   0  0  1  0  0  0  0  0  0  0  0  0
    0.4070   -0.8810    0.7890 C   0  0  0  0  0  0  0  0  0  0  0  0
    0.3060   -2.0110   -0.1900 C   0  0  0  0  0  0  0  0  0  0  0  0
   -1.0710   -2.5380   -0.3040 C   0  0  0  0  0  0  0  0  0  0  0  0
   -1.3990   -3.7010    0.3430 C   0  0  0  0  0  0  0  0  0  0  0  0
   -2.6650   -4.2480    0.2850 C   0  0  0  0  0  0  0  0  0  0  0  0
   -3.6130   -3.5710   -0.4640 C   0  0  0  0  0  0  0  0  0  0  0  0
   -3.3320   -2.4010   -1.1310 C   0  0  0  0  0  0  0  0  0  0  0  0
   -4.2730   -1.7220   -1.8790 O   0  0  0  0  0  0  0  0  0  0  0  0
   -5.5730   -2.2800   -1.9420 C   0  0  0  0  0  0  0  0  0  0  0  0
   -2.0460   -1.8950   -1.0400 C   0  0  0  0  0  0  0  0  0  0  0  0
   -1.7370   -0.6450   -1.7540 C   0  0  0  0  0  0  0  0  0  0  0  0
   -2.4140    0.4460   -1.0410 N   0  0  0  0  0  0  0  0  0  0  0  0
   -1.7570    1.6940   -1.2370 C   0  0  0  0  0  0  0  0  0  0  0  0
   -2.0390    2.7520   -0.2340 C   0  0  0  0  0  0  0  0  0  0  0  0
   -3.4600    2.8670    0.1620 C   0  0  0  0  0  0  0  0  0  0  0  0
   -4.3630    2.1570   -0.2900 O   0  0  0  0  0  0  0  0  0  0  0  0
   -1.1360    3.5530    0.2950 C   0  0  0  0  0  0  0  0  0  0  0  0
    0.3000    3.6440    0.0900 C   0  0  0  0  0  0  0  0  0  0  0  0
    0.7900    4.8510   -0.4670 C   0  0  0  0  0  0  0  0  0  0  0  0
    2.1150    5.0820   -0.7160 C   0  0  0  0  0  0  0  0  0  0  0  0
    3.0320    4.1010   -0.4140 C   0  0  0  0  0  0  0  0  0  0  0  0
    2.5610    2.9180    0.1330 C   0  0  0  0  0  0  0  0  0  0  0  0
    1.2350    2.6520    0.3970 C   0  0  0  0  0  0  0  0  0  0  0  0
    0.9300    1.3580    1.0330 C   0  0  0  0  0  0  0  0  0  0  0  0
  1  2  2  0
  2  3  1  0
  3  4  1  0
  4  5  1  0
  6  5  1  1
  6  7  1  0
  6 30  1  0
  7  8  1  0
  8  9  1  0
  9 10  2  0
  9 16  1  0
 10 11  1  0
 11 12  2  0
 12 13  1  0
 13 14  1  0
 13 16  2  0
 14 15  1  0
 16 17  1  0
 17 18  1  0
 18 19  1  0
 19 20  1  0
 20 21  1  0
 20 23  2  0
 21 22  2  0
 23 24  1  0
 24 25  2  0
 24 29  1  0
 25 26  1  0
 26 27  2  0
 27 28  1  0
 28 29  2  0
 29 30  1  0
M  CHG  2   6   1  18   1
M  END
