
     RDKit          3D

 31 33  0  0  0  0  0  0  0  0999 V2000
    9.1430    1.3630    1.8430 C   0  0  0  0  0  0  0  0  0  0  0  0
    8.9230    0.4990    0.7340 O   0  0  0  0  0  0  0  0  0  0  0  0
    7.6380    0.1990    0.3230 C   0  0  0  0  0  0  0  0  0  0  0  0
    6.5150    0.6910    0.9290 C   0  0  0  0  0  0  0  0  0  0  0  0
    5.2350    0.3560    0.4740 C   0  0  0  0  0  0  0  0  0  0  0  0
    5.0130   -0.4760   -0.5900 C   0  0  0  0  0  0  0  0  0  0  0  0
    3.7560   -0.9550   -1.0810 C   0  0  0  0  0  0  0  0  0  0  0  0
    2.6040   -1.0220   -0.5410 C   0  0  0  0  0  0  0  0  0  0  0  0
    2.2040   -0.6230    0.8140 C   0  0  0  0  0  0  0  0  0  0  0  0
    1.2650    0.4680    0.8560 N   0  0  1  0  0  0  0  0  0  0  0  0
    0.9990    1.0820   -0.4050 C   0  0  0  0  0  0  0  0  0  0  0  0
   -0.3890    0.8060   -0.9490 C   0  0  0  0  0  0  0  0  0  0  0  0
   -1.3880    1.3210    0.0240 C   0  0  1  0  0  0  0  0  0  0  0  0
   -2.7560    1.0000   -0.2370 N   0  0  0  0  0  0  0  0  0  0  0  0
   -3.0180   -0.4030   -0.4950 C   0  0  2  0  0  0  0  0  0  0  0  0
   -3.2800   -0.5390   -1.9670 C   0  0  0  0  0  0  0  0  0  0  0  0
   -4.0120   -1.0270    0.4270 C   0  0  0  0  0  0  0  0  0  0  0  0
   -5.3570   -0.4690    0.4650 C   0  0  0  0  0  0  0  0  0  0  0  0
   -5.6180    0.4870    1.4650 C   0  0  0  0  0  0  0  0  0  0  0  0
   -6.8620    1.0530    1.4960 C   0  0  0  0  0  0  0  0  0  0  0  0
   -7.8690    0.7430    0.6080 C   0  0  0  0  0  0  0  0  0  0  0  0
   -9.2150    1.3900    0.6810 C   0  0  0  0  0  0  0  0  0  0  0  0
   -7.5660   -0.1940   -0.3470 C   0  0  0  0  0  0  0  0  0  0  0  0
   -6.3170   -0.8200   -0.4440 C   0  0  0  0  0  0  0  0  0  0  0  0
   -6.1080   -1.8710   -1.4860 C   0  0  0  0  0  0  0  0  0  0  0  0
   -1.0390    1.0370    1.4690 C   0  0  0  0  0  0  0  0  0  0  0  0
    0.0700    0.0440    1.5510 C   0  0  0  0  0  0  0  0  0  0  0  0
    6.1940   -0.9680   -1.1970 C   0  0  0  0  0  0  0  0  0  0  0  0
    7.4450   -0.6390   -0.7530 C   0  0  0  0  0  0  0  0  0  0  0  0
    8.5960   -1.1430   -1.3770 O   0  0  0  0  0  0  0  0  0  0  0  0
    8.4130   -2.0020   -2.4790 C   0  0  0  0  0  0  0  0  0  0  0  0
  1  2  1  0
  2  3  1  0
  3  4  2  0
  3 29  1  0
  4  5  1  0
  5  6  2  0
  6  7  1  0
  6 28  1  0
  7  8  2  3
  8  9  1  0
 10  9  1  6
 10 11  1  0
 10 27  1  0
 11 12  1  0
 12 13  1  0
 13 14  1  6
 13 26  1  0
 14 15  1  0
 15 16  1  6
 15 17  1  0
 17 18  1  0
 18 19  2  0
 18 24  1  0
 19 20  1  0
 20 21  2  0
 21 22  1  0
 21 23  1  0
 23 24  2  0
 24 25  1  0
 26 27  1  0
 28 29  2  0
 29 30  1  0
 30 31  1  0
M  CHG  2  10   1  14   1
M  END
