
     RDKit          3D

 25 28  0  0  0  0  0  0  0  0999 V2000
   -5.3510    0.7530   -1.5520 C   0  0  0  0  0  0  0  0  0  0  0  0
   -5.0310    0.6070   -0.2830 C   0  0  0  0  0  0  0  0  0  0  0  0
   -3.6210    0.3780    0.0730 C   0  0  0  0  0  0  0  0  0  0  0  0
   -3.3490    0.2400    1.3380 C   0  0  0  0  0  0  0  0  0  0  0  0
   -2.6570    0.3390   -1.0300 C   0  0  0  0  0  0  0  0  0  0  0  0
   -1.2830    0.1470   -0.6860 N   0  0  1  0  0  0  0  0  0  0  0  0
   -0.7580    1.2150    0.0620 C   0  0  0  0  0  0  0  0  0  0  0  0
   -1.5120    2.1920    0.2050 O   0  0  0  0  0  0  0  0  0  0  0  0
    0.4720    1.3780    0.6790 O   0  0  0  0  0  0  0  0  0  0  0  0
    1.6200    0.5710    0.4230 C   0  0  0  0  0  0  0  0  0  0  0  0
    1.5570   -0.7990    0.1450 C   0  0  0  0  0  0  0  0  0  0  0  0
    2.6730   -1.5540   -0.1080 C   0  0  0  0  0  0  0  0  0  0  0  0
    3.8950   -0.8910   -0.0720 C   0  0  0  0  0  0  0  0  0  0  0  0
    3.9650    0.4810    0.2090 C   0  0  0  0  0  0  0  0  0  0  0  0
    2.8080    1.1930    0.4540 C   0  0  0  0  0  0  0  0  0  0  0  0
    2.8710    2.5450    0.7300 O   0  0  0  0  0  0  0  0  0  0  0  0
    4.1020    3.2080    0.8580 C   0  0  0  0  0  0  0  0  0  0  0  0
    5.2030    2.5240    0.0760 C   0  0  0  0  0  0  0  0  0  0  0  0
    5.1720    1.1250    0.2430 O   0  0  0  0  0  0  0  0  0  0  0  0
    0.3520   -1.5930    0.1070 C   0  0  0  0  0  0  0  0  0  0  0  0
    0.5970   -2.8860    0.4970 C   0  0  0  0  0  0  0  0  0  0  0  0
   -0.4550   -3.7730    0.4820 C   0  0  0  0  0  0  0  0  0  0  0  0
   -1.7190   -3.3910    0.0930 C   0  0  0  0  0  0  0  0  0  0  0  0
   -1.9240   -2.0890   -0.2870 C   0  0  0  0  0  0  0  0  0  0  0  0
   -0.9200   -1.1560   -0.2950 C   0  0  0  0  0  0  0  0  0  0  0  0
  1  2  2  0
  2  3  1  0
  3  4  2  0
  3  5  1  0
  6  5  1  1
  6  7  1  0
  6 25  1  0
  7  8  2  0
  7  9  1  0
  9 10  1  0
 10 11  2  0
 10 15  1  0
 11 12  1  0
 11 20  1  0
 12 13  2  0
 13 14  1  0
 14 15  2  0
 14 19  1  0
 15 16  1  0
 16 17  1  0
 17 18  1  0
 18 19  1  0
 20 21  2  0
 20 25  1  0
 21 22  1  0
 22 23  2  0
 23 24  1  0
 24 25  2  0
M  CHG  1   6   1
M  END
