
     RDKit          3D

 25 29  0  0  0  0  0  0  0  0999 V2000
   -1.0930    3.5860    1.4100 O   0  0  0  0  0  0  0  0  0  0  0  0
   -1.0730    2.4310    0.9150 C   0  0  0  0  0  0  0  0  0  0  0  0
    0.1180    1.7300    0.6150 N   0  0  0  0  0  0  0  0  0  0  0  0
    0.1930    0.5520    0.1090 C   0  0  0  0  0  0  0  0  0  0  0  0
    1.5470   -0.0090   -0.1310 C   0  0  0  0  0  0  0  0  0  0  0  0
    1.7120   -1.2680   -0.6710 C   0  0  0  0  0  0  0  0  0  0  0  0
    2.9910   -1.7860   -0.8920 C   0  0  0  0  0  0  0  0  0  0  0  0
    4.1110   -1.0300   -0.5670 C   0  0  0  0  0  0  0  0  0  0  0  0
    3.9530    0.2290   -0.0270 C   0  0  0  0  0  0  0  0  0  0  0  0
    2.6780    0.7120    0.1800 C   0  0  0  0  0  0  0  0  0  0  0  0
    5.1040    0.9430    0.2810 O   0  0  0  0  0  0  0  0  0  0  0  0
    6.3640    0.3420    0.4540 C   0  0  0  0  0  0  0  0  0  0  0  0
    6.5520   -0.6940   -0.6330 C   0  0  0  0  0  0  0  0  0  0  0  0
    5.4050   -1.4820   -0.7600 O   0  0  0  0  0  0  0  0  0  0  0  0
   -1.0100   -0.2270   -0.2260 C   0  0  0  0  0  0  0  0  0  0  0  0
   -2.2800    0.4710    0.0730 C   0  0  0  0  0  0  0  0  0  0  0  0
   -2.3320    1.7380    0.6160 C   0  0  0  0  0  0  0  0  0  0  0  0
   -3.5250    2.3400    0.8740 C   0  0  0  0  0  0  0  0  0  0  0  0
   -4.6970    1.6870    0.5930 C   0  0  0  0  0  0  0  0  0  0  0  0
   -4.6420    0.3940    0.0380 C   0  0  0  0  0  0  0  0  0  0  0  0
   -3.4460   -0.2120   -0.2210 C   0  0  0  0  0  0  0  0  0  0  0  0
   -3.4250   -1.5550   -0.7970 C   0  0  0  0  0  0  0  0  0  0  0  0
   -4.5740   -2.1770   -1.0650 C   0  0  0  0  0  0  0  0  0  0  0  0
   -5.7620   -1.5380   -0.7910 O   0  0  0  0  0  0  0  0  0  0  0  0
   -5.9190   -0.2640   -0.2450 C   0  0  0  0  0  0  0  0  0  0  0  0
  1  2  2  0
  2  3  1  0
  2 17  1  0
  3  4  2  0
  4  5  1  0
  4 15  1  0
  5  6  2  0
  5 10  1  0
  6  7  1  0
  7  8  2  0
  8  9  1  0
  8 14  1  0
  9 10  2  0
  9 11  1  0
 11 12  1  0
 12 13  1  0
 13 14  1  0
 15 16  1  0
 16 17  2  0
 16 21  1  0
 17 18  1  0
 18 19  2  0
 19 20  1  0
 20 21  2  0
 20 25  1  0
 21 22  1  0
 22 23  2  0
 23 24  1  0
 24 25  1  0
M  END
