
     RDKit          3D

 25 29  0  0  0  0  0  0  0  0999 V2000
    7.0350    0.5050   -0.3620 C   0  0  0  0  0  0  0  0  0  0  0  0
    5.8140    0.4680    0.3500 O   0  0  0  0  0  0  0  0  0  0  0  0
    4.5840    0.4680   -0.2610 C   0  0  0  0  0  0  0  0  0  0  0  0
    4.5300    0.5050   -1.6280 C   0  0  0  0  0  0  0  0  0  0  0  0
    3.2970    0.5050   -2.2420 C   0  0  0  0  0  0  0  0  0  0  0  0
    2.1440    0.4680   -1.4890 C   0  0  0  0  0  0  0  0  0  0  0  0
    2.1700    0.4300   -0.1140 C   0  0  0  0  0  0  0  0  0  0  0  0
    3.4280    0.4300    0.4950 C   0  0  0  0  0  0  0  0  0  0  0  0
    3.2510    0.3880    1.8840 O   0  0  0  0  0  0  0  0  0  0  0  0
    1.9800   -0.2480    2.0930 C   0  0  0  0  0  0  0  0  0  0  0  0
    1.1690    0.3850    0.9840 C   0  0  2  0  0  0  0  0  0  0  0  0
   -0.0170   -0.3300    0.6530 N   0  0  1  0  0  0  0  0  0  0  0  0
   -0.5370   -1.1470    1.7310 C   0  0  0  0  0  0  0  0  0  0  0  0
   -1.2890   -2.2820    1.0650 C   0  0  0  0  0  0  0  0  0  0  0  0
   -2.3820   -1.6570    0.2820 C   0  0  0  0  0  0  0  0  0  0  0  0
   -3.5150   -2.3540   -0.0700 C   0  0  0  0  0  0  0  0  0  0  0  0
   -4.5270   -1.7370   -0.8090 C   0  0  0  0  0  0  0  0  0  0  0  0
   -4.4220   -0.4330   -1.2020 C   0  0  0  0  0  0  0  0  0  0  0  0
   -3.2920    0.2740   -0.8550 C   0  0  0  0  0  0  0  0  0  0  0  0
   -2.2760   -0.3410   -0.1140 C   0  0  0  0  0  0  0  0  0  0  0  0
   -1.1000    0.5070    0.2080 C   0  0  0  0  0  0  0  0  0  0  0  0
   -3.2240    1.5960   -1.2740 O   0  0  0  0  0  0  0  0  0  0  0  0
   -4.4370    2.2840   -1.6210 C   0  0  0  0  0  0  0  0  0  0  0  0
   -5.2090    1.4060   -2.5830 C   0  0  0  0  0  0  0  0  0  0  0  0
   -5.4430    0.1710   -1.9420 O   0  0  0  0  0  0  0  0  0  0  0  0
  1  2  1  0
  2  3  1  0
  3  4  2  0
  3  8  1  0
  4  5  1  0
  5  6  2  0
  6  7  1  0
  7  8  2  0
  7 11  1  0
  8  9  1  0
  9 10  1  0
 11 10  1  1
 11 12  1  0
 12 13  1  1
 12 21  1  0
 13 14  1  0
 14 15  1  0
 15 16  2  0
 15 20  1  0
 16 17  1  0
 17 18  2  0
 18 19  1  0
 18 25  1  0
 19 20  2  0
 19 22  1  0
 20 21  1  0
 22 23  1  0
 23 24  1  0
 24 25  1  0
M  CHG  1  12   1
M  END
