
     RDKit          3D

 25 29  0  0  0  0  0  0  0  0999 V2000
   -0.0650    1.4690   -1.2100 O   0  0  0  0  0  0  0  0  0  0  0  0
    0.1250    0.2280   -1.1460 C   0  0  0  0  0  0  0  0  0  0  0  0
    1.4160   -0.2330   -1.2000 O   0  0  0  0  0  0  0  0  0  0  0  0
    2.5470    0.6390   -1.3250 C   0  0  2  0  0  0  0  0  0  0  0  0
    3.2520    0.2320   -2.5670 C   0  0  0  0  0  0  0  0  0  0  0  0
    2.7900    0.2690   -3.7540 O   0  0  0  0  0  0  0  0  0  0  0  0
    4.5150   -0.2040   -2.2310 O   0  0  0  0  0  0  0  0  0  0  0  0
    4.6930   -0.1130   -0.8580 C   0  0  0  0  0  0  0  0  0  0  0  0
    5.8100   -0.4440   -0.0820 C   0  0  0  0  0  0  0  0  0  0  0  0
    5.7850   -0.2780    1.2840 C   0  0  0  0  0  0  0  0  0  0  0  0
    4.6420    0.2190    1.8710 C   0  0  0  0  0  0  0  0  0  0  0  0
    3.5330    0.5460    1.0920 C   0  0  0  0  0  0  0  0  0  0  0  0
    3.5460    0.3840   -0.2770 C   0  0  0  0  0  0  0  0  0  0  0  0
   -1.0700   -0.6470   -1.0170 C   0  0  1  0  0  0  0  0  0  0  0  0
   -1.0710   -1.4550    0.2300 C   0  0  0  0  0  0  0  0  0  0  0  0
   -2.3300   -1.0970    0.9130 C   0  0  0  0  0  0  0  0  0  0  0  0
   -2.9360   -1.4880    2.1110 C   0  0  0  0  0  0  0  0  0  0  0  0
   -4.1640   -0.9450    2.4790 C   0  0  0  0  0  0  0  0  0  0  0  0
   -4.8300   -0.0190    1.7060 C   0  0  0  0  0  0  0  0  0  0  0  0
   -4.2160    0.3600    0.5190 C   0  0  0  0  0  0  0  0  0  0  0  0
   -4.7780    1.2780   -0.3430 C   0  0  0  0  0  0  0  0  0  0  0  0
   -4.0900    1.5870   -1.4940 C   0  0  0  0  0  0  0  0  0  0  0  0
   -2.9070    1.0340   -1.8030 N   0  0  0  0  0  0  0  0  0  0  0  0
   -2.3100    0.1230   -0.9860 C   0  0  0  0  0  0  0  0  0  0  0  0
   -2.9980   -0.1850    0.1640 C   0  0  0  0  0  0  0  0  0  0  0  0
  1  2  2  0
  2  3  1  0
 14  2  1  1
  4  3  1  1
  4  5  1  0
  4 13  1  0
  5  6  2  0
  5  7  1  0
  7  8  1  0
  8  9  2  0
  8 13  1  0
  9 10  1  0
 10 11  2  0
 11 12  1  0
 12 13  2  0
 14 15  1  0
 14 24  1  0
 15 16  1  0
 16 17  1  0
 16 25  2  0
 17 18  2  0
 18 19  1  0
 19 20  2  0
 20 21  1  0
 20 25  1  0
 21 22  2  0
 22 23  1  0
 23 24  2  0
 24 25  1  0
M  CHG  1  23   1
M  END
