
     RDKit          3D

 25 29  0  0  0  0  0  0  0  0999 V2000
    1.3530   -0.7320   -1.8560 C   0  0  0  0  0  0  0  0  0  0  0  0
    2.6570   -1.2290   -1.9570 C   0  0  0  0  0  0  0  0  0  0  0  0
    3.4770   -1.1530   -0.8610 C   0  0  0  0  0  0  0  0  0  0  0  0
    3.0600   -0.6040    0.3350 C   0  0  0  0  0  0  0  0  0  0  0  0
    1.7670   -0.1240    0.3970 C   0  0  0  0  0  0  0  0  0  0  0  0
    0.9040   -0.1780   -0.6780 C   0  0  0  0  0  0  0  0  0  0  0  0
   -0.4700    0.3330   -0.6110 C   0  0  1  0  0  0  0  0  0  0  0  0
   -1.3750   -0.6280    0.0300 C   0  0  0  0  0  0  0  0  0  0  0  0
   -1.4430   -0.8240    1.3960 C   0  0  0  0  0  0  0  0  0  0  0  0
   -2.3110   -1.7420    1.9390 C   0  0  0  0  0  0  0  0  0  0  0  0
   -3.1480   -2.5040    1.1540 C   0  0  0  0  0  0  0  0  0  0  0  0
   -3.0830   -2.3110   -0.2090 C   0  0  0  0  0  0  0  0  0  0  0  0
   -2.2100   -1.3890   -0.7580 C   0  0  0  0  0  0  0  0  0  0  0  0
   -4.0070   -3.1830   -0.7660 O   0  0  0  0  0  0  0  0  0  0  0  0
   -4.4690   -4.0760    0.2260 C   0  0  0  0  0  0  0  0  0  0  0  0
   -4.1070   -3.4890    1.4430 O   0  0  0  0  0  0  0  0  0  0  0  0
   -0.4380    1.6180    0.0500 N   0  0  2  0  0  0  0  0  0  0  0  0
   -1.7400    2.2540    0.0830 C   0  0  0  0  0  0  0  0  0  0  0  0
   -1.5520    3.5880    0.7800 C   0  0  0  0  0  0  0  0  0  0  0  0
   -0.7540    4.4460    0.0190 O   0  0  0  0  0  0  0  0  0  0  0  0
   -0.2440    3.7880   -1.0810 C   0  0  0  0  0  0  0  0  0  0  0  0
    0.4400    2.4810   -0.7100 C   0  0  0  0  0  0  0  0  0  0  0  0
    4.1900   -0.6840    1.2920 C   0  0  0  0  0  0  0  0  0  0  0  0
    5.3740   -0.8960    0.3920 C   0  0  0  0  0  0  0  0  0  0  0  0
    4.8080   -1.5730   -0.7050 O   0  0  0  0  0  0  0  0  0  0  0  0
  1  2  2  0
  1  6  1  0
  2  3  1  0
  3  4  2  0
  3 25  1  0
  4  5  1  0
  4 23  1  0
  5  6  2  0
  7  6  1  1
  7  8  1  0
  7 17  1  0
  8  9  2  0
  8 13  1  0
  9 10  1  0
 10 11  2  0
 11 12  1  0
 11 16  1  0
 12 13  2  0
 12 14  1  0
 14 15  1  0
 15 16  1  0
 17 18  1  6
 17 22  1  0
 18 19  1  0
 19 20  1  0
 20 21  1  0
 21 22  1  0
 23 24  1  0
 24 25  1  0
M  CHG  1  17   1
M  END
