
     RDKit          3D

 25 30  0  0  0  0  0  0  0  0999 V2000
    0.5430   -1.5060    1.9190 C   0  0  0  0  0  0  0  0  0  0  0  0
   -0.1880   -0.7280    0.9910 N   0  0  0  0  0  0  0  0  0  0  0  0
   -1.5640   -0.7770    1.0620 C   0  0  0  0  0  0  0  0  0  0  0  0
   -2.4230   -0.1840    0.2100 C   0  0  0  0  0  0  0  0  0  0  0  0
   -3.8030   -0.3230    0.4100 C   0  0  0  0  0  0  0  0  0  0  0  0
   -4.6700    0.2820   -0.4590 C   0  0  0  0  0  0  0  0  0  0  0  0
   -4.1400    1.0020   -1.4950 C   0  0  0  0  0  0  0  0  0  0  0  0
   -2.7560    1.1400   -1.6940 C   0  0  0  0  0  0  0  0  0  0  0  0
   -1.8840    0.5360   -0.8260 C   0  0  0  0  0  0  0  0  0  0  0  0
   -0.5120    0.6280   -0.9550 C   0  0  0  0  0  0  0  0  0  0  0  0
   -0.0010    1.3420   -2.0110 C   0  0  0  0  0  0  0  0  0  0  0  0
    1.3590    1.4120   -2.1290 C   0  0  0  0  0  0  0  0  0  0  0  0
    2.2100    0.8050   -1.2380 C   0  0  0  0  0  0  0  0  0  0  0  0
    3.5740    0.9400   -1.3920 C   0  0  0  0  0  0  0  0  0  0  0  0
    4.4410    0.3720   -0.4950 C   0  0  0  0  0  0  0  0  0  0  0  0
    3.9500   -0.3370    0.5670 C   0  0  0  0  0  0  0  0  0  0  0  0
    2.5610   -0.4930    0.7490 C   0  0  0  0  0  0  0  0  0  0  0  0
    1.7230    0.0760   -0.1590 C   0  0  0  0  0  0  0  0  0  0  0  0
    0.3340   -0.0210   -0.0150 C   0  0  0  0  0  0  0  0  0  0  0  0
    5.0100   -0.7940    1.3060 O   0  0  0  0  0  0  0  0  0  0  0  0
    6.2100   -0.3770    0.6800 C   0  0  0  0  0  0  0  0  0  0  0  0
    5.8350    0.3750   -0.4510 O   0  0  0  0  0  0  0  0  0  0  0  0
   -5.9670   -0.0200   -0.0240 O   0  0  0  0  0  0  0  0  0  0  0  0
   -5.9160   -0.5760    1.2740 C   0  0  0  0  0  0  0  0  0  0  0  0
   -4.5620   -0.9870    1.3660 O   0  0  0  0  0  0  0  0  0  0  0  0
  1  2  1  0
  2  3  2  0
  2 19  1  0
  3  4  1  0
  4  5  2  0
  4  9  1  0
  5  6  1  0
  5 25  1  0
  6  7  2  0
  6 23  1  0
  7  8  1  0
  8  9  2  0
  9 10  1  0
 10 11  2  0
 10 19  1  0
 11 12  1  0
 12 13  2  0
 13 14  1  0
 13 18  1  0
 14 15  2  0
 15 16  1  0
 15 22  1  0
 16 17  2  0
 16 20  1  0
 17 18  1  0
 18 19  2  0
 20 21  1  0
 21 22  1  0
 23 24  1  0
 24 25  1  0
M  CHG  1   2   1
M  END
