
     RDKit          3D

 25 29  0  0  0  0  0  0  0  0999 V2000
   -6.2330    1.3820    0.9440 C   0  0  0  0  0  0  0  0  0  0  0  0
   -5.1020    2.1830    1.0410 C   0  0  0  0  0  0  0  0  0  0  0  0
   -3.8660    1.7290    0.6370 C   0  0  0  0  0  0  0  0  0  0  0  0
   -3.7360    0.4690    0.1310 C   0  0  0  0  0  0  0  0  0  0  0  0
   -4.8510   -0.3450    0.0260 C   0  0  0  0  0  0  0  0  0  0  0  0
   -6.0740    0.1140    0.4290 C   0  0  0  0  0  0  0  0  0  0  0  0
   -4.6760   -1.7120   -0.5220 C   0  0  0  0  0  0  0  0  0  0  0  0
   -3.5880   -1.7660   -1.3510 O   0  0  0  0  0  0  0  0  0  0  0  0
   -2.3920   -1.4560   -0.6930 C   0  0  0  0  0  0  0  0  0  0  0  0
   -2.4180   -0.0240   -0.3070 C   0  0  0  0  0  0  0  0  0  0  0  0
   -1.3690    0.7090   -0.3600 N   0  0  0  0  0  0  0  0  0  0  0  0
   -0.0790    0.2100   -0.7920 C   0  0  0  0  0  0  0  0  0  0  0  0
    0.5710   -0.6990    0.2510 C   0  0  2  0  0  0  0  0  0  0  0  0
    0.7840    0.0490    1.5500 C   0  0  0  0  0  0  0  0  0  0  0  0
    1.8430    0.9360    1.1560 O   0  0  0  0  0  0  0  0  0  0  0  0
    2.7030    0.1310    0.3790 C   0  0  0  0  0  0  0  0  0  0  0  0
    1.9790   -0.8850   -0.1970 C   0  0  0  0  0  0  0  0  0  0  0  0
    2.6380   -1.7870   -1.0000 C   0  0  0  0  0  0  0  0  0  0  0  0
    3.9970   -1.6930   -1.2360 C   0  0  0  0  0  0  0  0  0  0  0  0
    4.7340   -0.6800   -0.6640 C   0  0  0  0  0  0  0  0  0  0  0  0
    4.0630    0.2180    0.1380 C   0  0  0  0  0  0  0  0  0  0  0  0
    4.7940    1.2640    0.7340 O   0  0  0  0  0  0  0  0  0  0  0  0
    5.9600    1.7180    0.0310 C   0  0  0  0  0  0  0  0  0  0  0  0
    6.8320    0.5050   -0.2080 C   0  0  0  0  0  0  0  0  0  0  0  0
    6.0840   -0.5160   -0.8470 O   0  0  0  0  0  0  0  0  0  0  0  0
  1  2  2  0
  1  6  1  0
  2  3  1  0
  3  4  2  0
  4  5  1  0
  4 10  1  0
  5  6  2  0
  5  7  1  0
  7  8  1  0
  8  9  1  0
  9 10  1  0
 10 11  2  3
 11 12  1  0
 13 12  1  6
 13 14  1  0
 13 17  1  0
 14 15  1  0
 15 16  1  0
 16 17  2  0
 16 21  1  0
 17 18  1  0
 18 19  2  0
 19 20  1  0
 20 21  2  0
 20 25  1  0
 21 22  1  0
 22 23  1  0
 23 24  1  0
 24 25  1  0
M  CHG  1  11   1
M  END
