
     RDKit          3D

 29 31  0  0  0  0  0  0  0  0999 V2000
    7.6350    1.1880    0.3660 C   0  0  0  0  0  0  0  0  0  0  0  0
    6.7980    0.0550    0.0400 N   0  0  0  0  0  0  0  0  0  0  0  0
    5.3880    0.0970    0.1920 C   0  0  0  0  0  0  0  0  0  0  0  0
    4.7440    1.2410    0.6210 C   0  0  0  0  0  0  0  0  0  0  0  0
    3.3530    1.2970    0.7590 C   0  0  0  0  0  0  0  0  0  0  0  0
    2.7710    2.5620    1.2980 C   0  0  0  0  0  0  0  0  0  0  0  0
    2.5870    0.1960    0.4610 C   0  0  0  0  0  0  0  0  0  0  0  0
    1.1140    0.2270    0.4980 C   0  0  0  0  0  0  0  0  0  0  0  0
    0.4270    1.3290    0.0360 C   0  0  0  0  0  0  0  0  0  0  0  0
   -0.9780    1.3320   -0.0270 C   0  0  0  0  0  0  0  0  0  0  0  0
   -1.5760    2.3440   -0.4490 O   0  0  0  0  0  0  0  0  0  0  0  0
   -1.7090    0.2360    0.3690 C   0  0  0  0  0  0  0  0  0  0  0  0
   -3.1650    0.1730    0.3290 C   0  0  0  0  0  0  0  0  0  0  0  0
   -3.9060    0.5920   -0.7240 C   0  0  0  0  0  0  0  0  0  0  0  0
   -5.2980    0.4900   -0.6670 C   0  0  0  0  0  0  0  0  0  0  0  0
   -5.9680   -0.0260    0.4250 C   0  0  0  0  0  0  0  0  0  0  0  0
   -7.2860   -0.1800    0.5950 O   0  0  0  0  0  0  0  0  0  0  0  0
   -8.3770    0.0440   -0.1620 C   0  0  0  0  0  0  0  0  0  0  0  0
   -8.5970   -0.7600   -1.4020 C   0  0  2  0  0  0  0  0  0  0  0  0
   -7.6310   -0.6650   -2.3470 F   0  0  0  0  0  0  0  0  0  0  0  0
   -9.8240   -0.3190   -1.9310 F   0  0  0  0  0  0  0  0  0  0  0  0
   -5.1740   -0.4580    1.5160 C   0  0  0  0  0  0  0  0  0  0  0  0
   -3.8350   -0.3480    1.4360 C   0  0  0  0  0  0  0  0  0  0  0  0
   -0.9760   -0.8390    0.8220 C   0  0  0  0  0  0  0  0  0  0  0  0
    0.3670   -0.8290    0.8790 N   0  0  0  0  0  0  0  0  0  0  0  0
    3.2270   -0.9740    0.0210 C   0  0  0  0  0  0  0  0  0  0  0  0
    2.5000   -2.1870   -0.4010 C   0  0  0  0  0  0  0  0  0  0  0  0
    4.6210   -1.0070   -0.1050 C   0  0  0  0  0  0  0  0  0  0  0  0
    5.2960   -2.2560   -0.5390 C   0  0  0  0  0  0  0  0  0  0  0  0
  1  2  1  0
  2  3  1  0
  3  4  2  0
  3 28  1  0
  4  5  1  0
  5  6  1  0
  5  7  2  0
  7  8  1  0
  7 26  1  0
  8  9  2  0
  8 25  1  0
  9 10  1  0
 10 11  2  0
 10 12  1  0
 12 13  1  0
 12 24  2  0
 13 14  2  0
 13 23  1  0
 14 15  1  0
 15 16  2  0
 16 17  1  0
 16 22  1  0
 17 18  1  0
 18 19  1  0
 19 20  1  6
 19 21  1  0
 22 23  2  0
 24 25  1  0
 26 27  1  0
 26 28  2  0
 28 29  1  0
M  END
