
     RDKit          3D

 29 31  0  0  0  0  0  0  0  0999 V2000
   -1.4650   -2.0930   -1.7160 C   0  0  0  0  0  0  0  0  0  0  0  0
   -1.0240   -0.6560   -1.7310 C   0  0  0  0  0  0  0  0  0  0  0  0
   -0.9990   -0.0170   -0.3950 C   0  0  1  0  0  0  0  0  0  0  0  0
   -2.3850   -0.0230    0.2680 C   0  0  0  0  0  0  0  0  0  0  0  0
   -3.3080    0.7090   -0.5740 N   0  0  0  0  0  0  0  0  0  0  0  0
   -4.6560    0.8200   -0.1610 C   0  0  0  0  0  0  0  0  0  0  0  0
   -5.0740    0.2430    1.0130 C   0  0  0  0  0  0  0  0  0  0  0  0
   -6.3990    0.3360    1.4450 C   0  0  0  0  0  0  0  0  0  0  0  0
   -7.2700    1.0350    0.6400 C   0  0  0  0  0  0  0  0  0  0  0  0
   -8.6900    1.1440    1.0870 C   0  0  0  0  0  0  0  0  0  0  0  0
   -9.4230    0.0910    0.5910 F   0  0  0  0  0  0  0  0  0  0  0  0
   -6.8640    1.6220   -0.5450 C   0  0  0  0  0  0  0  0  0  0  0  0
   -5.5390    1.5150   -0.9550 C   0  0  0  0  0  0  0  0  0  0  0  0
   -5.1120    2.0870   -2.1220 F   0  0  0  0  0  0  0  0  0  0  0  0
   -0.0030   -0.4980    0.5850 C   0  0  0  0  0  0  0  0  0  0  0  0
    1.4140   -0.3810    0.2230 C   0  0  0  0  0  0  0  0  0  0  0  0
    2.2160    0.6530    0.5780 N   0  0  0  0  0  0  0  0  0  0  0  0
    3.4520    0.5140    0.0860 C   0  0  0  0  0  0  0  0  0  0  0  0
    3.4410   -0.6600   -0.6140 C   0  0  0  0  0  0  0  0  0  0  0  0
    2.1820   -1.2180   -0.5320 C   0  0  0  0  0  0  0  0  0  0  0  0
    1.7990   -2.5140   -1.1470 C   0  0  0  0  0  0  0  0  0  0  0  0
    1.9150   -3.6060   -0.5840 O   0  0  0  0  0  0  0  0  0  0  0  0
    4.6300   -1.1480   -1.3010 C   0  0  0  0  0  0  0  0  0  0  0  0
    4.7070   -2.2890   -1.7840 O   0  0  0  0  0  0  0  0  0  0  0  0
    5.7690   -0.1640   -1.3850 C   0  0  0  0  0  0  0  0  0  0  0  0
    5.8720    0.4680   -0.0180 C   0  0  1  0  0  0  0  0  0  0  0  0
    5.9210   -0.5470    1.0940 C   0  0  0  0  0  0  0  0  0  0  0  0
    7.1830    1.2290    0.0180 C   0  0  0  0  0  0  0  0  0  0  0  0
    4.6930    1.3650    0.1850 C   0  0  0  0  0  0  0  0  0  0  0  0
  1  2  1  0
  3  2  1  6
  3  4  1  0
  3 15  1  0
  4  5  1  0
  5  6  1  0
  6  7  2  0
  6 13  1  0
  7  8  1  0
  8  9  2  0
  9 10  1  0
  9 12  1  0
 10 11  1  0
 12 13  2  0
 13 14  1  0
 15 16  1  0
 16 17  1  0
 16 20  2  0
 17 18  1  0
 18 19  2  0
 18 29  1  0
 19 20  1  0
 19 23  1  0
 20 21  1  0
 21 22  2  0
 23 24  2  0
 23 25  1  0
 25 26  1  0
 26 27  1  1
 26 28  1  0
 26 29  1  0
M  END
