
     RDKit          3D

 29 31  0  0  0  0  0  0  0  0999 V2000
    6.3300    0.3790   -0.0480 C   0  0  0  0  0  0  0  0  0  0  0  0
    5.6900    1.6350   -0.6140 C   0  0  2  0  0  0  0  0  0  0  0  0
    6.6970    2.7580   -0.4000 C   0  0  0  0  0  0  0  0  0  0  0  0
    4.3870    1.9440    0.0900 C   0  0  0  0  0  0  0  0  0  0  0  0
    3.5100    0.7940   -0.1010 N   0  0  0  0  0  0  0  0  0  0  0  0
    2.1880    0.8080    0.4220 C   0  0  0  0  0  0  0  0  0  0  0  0
    1.7820    1.8180    1.0230 O   0  0  0  0  0  0  0  0  0  0  0  0
    1.2650   -0.3140    0.3030 C   0  0  0  0  0  0  0  0  0  0  0  0
    1.4950   -1.4950    1.0150 C   0  0  0  0  0  0  0  0  0  0  0  0
    0.6360   -2.5580    1.0000 C   0  0  0  0  0  0  0  0  0  0  0  0
   -0.5310   -2.4730    0.2430 C   0  0  0  0  0  0  0  0  0  0  0  0
   -0.8050   -1.3220   -0.4920 C   0  0  0  0  0  0  0  0  0  0  0  0
   -2.0760   -1.2270   -1.2020 C   0  0  2  0  0  0  0  0  0  0  0  0
   -1.5570   -0.7300   -2.6540 C   0  0  0  0  0  0  0  0  0  0  0  0
   -2.9280   -0.1120   -0.8380 N   0  0  0  0  0  0  0  0  0  0  0  0
   -3.3210    0.3850    0.3730 C   0  0  0  0  0  0  0  0  0  0  0  0
   -2.8580    0.0520    1.6080 C   0  0  0  0  0  0  0  0  0  0  0  0
   -3.2180    0.6380    2.8040 C   0  0  0  0  0  0  0  0  0  0  0  0
   -4.1250    1.6590    2.7920 C   0  0  0  0  0  0  0  0  0  0  0  0
   -4.4890    2.2490    3.9720 F   0  0  0  0  0  0  0  0  0  0  0  0
   -4.6420    2.0540    1.5700 C   0  0  0  0  0  0  0  0  0  0  0  0
   -4.2630    1.4480    0.3990 C   0  0  0  0  0  0  0  0  0  0  0  0
   -4.8510    1.8840   -0.8660 C   0  0  0  0  0  0  0  0  0  0  0  0
   -5.8720    0.8660   -1.3440 C   0  0  0  0  0  0  0  0  0  0  0  0
   -6.9120    0.7860   -0.3990 F   0  0  0  0  0  0  0  0  0  0  0  0
    0.1010   -0.2720   -0.4420 C   0  0  0  0  0  0  0  0  0  0  0  0
   -1.2450   -3.6800    0.4060 O   0  0  0  0  0  0  0  0  0  0  0  0
   -0.5470   -4.6030    1.1840 C   0  0  0  0  0  0  0  0  0  0  0  0
    0.7310   -3.9490    1.5950 C   0  0  0  0  0  0  0  0  0  0  0  0
  2  1  1  1
  2  3  1  0
  2  4  1  0
  4  5  1  0
  5  6  1  0
  6  7  2  0
  6  8  1  0
  8  9  2  0
  8 26  1  0
  9 10  1  0
 10 11  2  0
 10 29  1  0
 11 12  1  0
 11 27  1  0
 12 13  1  0
 12 26  2  0
 13 14  1  6
 13 15  1  0
 15 16  1  0
 16 17  2  0
 16 22  1  0
 17 18  1  0
 18 19  2  0
 19 20  1  0
 19 21  1  0
 21 22  2  0
 22 23  1  0
 23 24  1  0
 24 25  1  0
 27 28  1  0
 28 29  1  0
M  END
