
     RDKit          3D

 29 31  0  0  0  0  0  0  0  0999 V2000
   -5.0210    1.9470    1.6320 C   0  0  0  0  0  0  0  0  0  0  0  0
   -4.4640    0.5880    1.6300 C   0  0  0  0  0  0  0  0  0  0  0  0
   -4.6240   -0.2830    0.4470 C   0  0  2  0  0  0  0  0  0  0  0  0
   -6.0910   -0.4820    0.1310 C   0  0  0  0  0  0  0  0  0  0  0  0
   -4.1500   -1.6700    0.9620 C   0  0  0  0  0  0  0  0  0  0  0  0
   -4.2240   -2.7380   -0.0540 C   0  0  0  0  0  0  0  0  0  0  0  0
   -3.7900   -0.0100   -0.7620 C   0  0  2  0  0  0  0  0  0  0  0  0
   -2.3830   -0.0670   -0.5210 N   0  0  0  0  0  0  0  0  0  0  0  0
   -1.6550    0.9040   -1.2860 C   0  0  0  0  0  0  0  0  0  0  0  0
   -0.1840    0.8810   -1.0530 C   0  0  0  0  0  0  0  0  0  0  0  0
    0.5380    1.7550   -1.6800 O   0  0  0  0  0  0  0  0  0  0  0  0
    0.5270    0.0040   -0.2180 N   0  0  0  0  0  0  0  0  0  0  0  0
    1.9410    0.1030   -0.0770 C   0  0  0  0  0  0  0  0  0  0  0  0
    2.5430    1.3350   -0.0280 C   0  0  0  0  0  0  0  0  0  0  0  0
    3.9340    1.4350    0.0600 C   0  0  0  0  0  0  0  0  0  0  0  0
    4.6820    0.2930    0.0960 C   0  0  0  0  0  0  0  0  0  0  0  0
    4.0680   -0.9590    0.0480 C   0  0  0  0  0  0  0  0  0  0  0  0
    2.6910   -1.0540   -0.0390 C   0  0  0  0  0  0  0  0  0  0  0  0
    4.8380   -2.2080    0.0870 C   0  0  0  0  0  0  0  0  0  0  0  0
    6.2160   -2.0020    0.1040 O   0  0  0  0  0  0  0  0  0  0  0  0
    6.8510   -0.7920    0.1590 C   0  0  0  0  0  0  0  0  0  0  0  0
    8.2210   -0.7420    0.2190 C   0  0  0  0  0  0  0  0  0  0  0  0
    8.8780    0.4650    0.2770 C   0  0  0  0  0  0  0  0  0  0  0  0
    8.1500    1.6420    0.2750 C   0  0  0  0  0  0  0  0  0  0  0  0
    6.7760    1.6170    0.2160 C   0  0  0  0  0  0  0  0  0  0  0  0
    6.1350    0.3900    0.1570 C   0  0  0  0  0  0  0  0  0  0  0  0
   -4.2500    1.1350   -1.6120 C   0  0  2  0  0  0  0  0  0  0  0  0
   -4.2860    2.3520   -1.0310 F   0  0  0  0  0  0  0  0  0  0  0  0
   -5.4940    0.7990   -2.1650 F   0  0  0  0  0  0  0  0  0  0  0  0
  1  2  1  0
  2  3  1  0
  3  4  1  6
  3  5  1  0
  3  7  1  0
  5  6  1  0
  7  8  1  1
  7 27  1  0
  8  9  1  0
  9 10  1  0
 10 11  2  0
 10 12  1  0
 12 13  1  0
 13 14  2  0
 13 18  1  0
 14 15  1  0
 15 16  2  0
 16 17  1  0
 16 26  1  0
 17 18  2  0
 17 19  1  0
 19 20  1  0
 20 21  1  0
 21 22  2  0
 21 26  1  0
 22 23  1  0
 23 24  2  0
 24 25  1  0
 25 26  2  0
 27 28  1  1
 27 29  1  0
M  END
