
     RDKit          3D

 31 33  0  0  0  0  0  0  0  0999 V2000
    9.0000    1.8300    2.1140 O   0  0  0  0  0  0  0  0  0  0  0  0
    9.4760    0.7470    1.7130 C   0  0  0  0  0  0  0  0  0  0  0  0
    8.8410   -0.1700    0.8680 N   0  0  0  0  0  0  0  0  0  0  0  0
    7.5360    0.0230    0.3520 C   0  0  0  0  0  0  0  0  0  0  0  0
    7.1030   -0.7530   -0.7310 C   0  0  0  0  0  0  0  0  0  0  0  0
    5.8530   -0.6310   -1.2660 C   0  0  0  0  0  0  0  0  0  0  0  0
    4.9170    0.2810   -0.7640 C   0  0  0  0  0  0  0  0  0  0  0  0
    3.6560    0.3490   -1.4100 N   0  0  0  0  0  0  0  0  0  0  0  0
    2.4890    0.8790   -0.8450 C   0  0  0  0  0  0  0  0  0  0  0  0
    2.4830    1.3380    0.3190 O   0  0  0  0  0  0  0  0  0  0  0  0
    1.2440    0.8800   -1.6760 C   0  0  0  0  0  0  0  0  0  0  0  0
    0.1880   -0.0160   -1.1330 C   0  0  0  0  0  0  0  0  0  0  0  0
   -0.8870    0.2360   -0.3270 C   0  0  0  0  0  0  0  0  0  0  0  0
   -1.6970   -0.7780    0.0130 C   0  0  0  0  0  0  0  0  0  0  0  0
   -2.9100   -0.5710    0.8800 C   0  0  0  0  0  0  0  0  0  0  0  0
   -3.2420    0.5570    1.3000 O   0  0  0  0  0  0  0  0  0  0  0  0
   -3.6980   -1.6580    1.2360 O   0  0  0  0  0  0  0  0  0  0  0  0
   -4.8520   -1.5430    2.0280 C   0  0  0  0  0  0  0  0  0  0  0  0
   -5.9390   -0.7510    1.4190 C   0  0  0  0  0  0  0  0  0  0  0  0
   -5.8160   -0.2630    0.1400 C   0  0  0  0  0  0  0  0  0  0  0  0
   -6.8550    0.4630   -0.4600 C   0  0  0  0  0  0  0  0  0  0  0  0
   -6.7460    0.9640   -1.7550 O   0  0  0  0  0  0  0  0  0  0  0  0
   -8.0200    0.6980    0.2290 C   0  0  0  0  0  0  0  0  0  0  0  0
   -9.0770    1.4210   -0.3430 O   0  0  0  0  0  0  0  0  0  0  0  0
   -8.1530    0.2140    1.5090 C   0  0  0  0  0  0  0  0  0  0  0  0
   -7.1200   -0.4920    2.0680 C   0  0  0  0  0  0  0  0  0  0  0  0
   -7.2940   -1.1670    3.8540 Br  0  0  0  0  0  0  0  0  0  0  0  0
   -1.4160   -2.0260   -0.4580 C   0  0  0  0  0  0  0  0  0  0  0  0
    0.0780   -1.7440   -1.4360 S   0  0  0  0  0  0  0  0  0  0  0  0
    5.3260    1.0400    0.2890 C   0  0  0  0  0  0  0  0  0  0  0  0
    6.6120    0.9130    0.8360 C   0  0  0  0  0  0  0  0  0  0  0  0
  1  2  2  0
  2  3  1  0
  3  4  1  0
  4  5  2  0
  4 31  1  0
  5  6  1  0
  6  7  2  0
  7  8  1  0
  7 30  1  0
  8  9  1  0
  9 10  2  0
  9 11  1  0
 11 12  1  0
 12 13  2  0
 12 29  1  0
 13 14  1  0
 14 15  1  0
 14 28  2  0
 15 16  2  0
 15 17  1  0
 17 18  1  0
 18 19  1  0
 19 20  2  0
 19 26  1  0
 20 21  1  0
 21 22  1  0
 21 23  2  0
 23 24  1  0
 23 25  1  0
 25 26  2  0
 26 27  1  0
 28 29  1  0
 30 31  2  0
M  END
