
     RDKit          3D

 27 27  0  0  0  0  0  0  0  0999 V2000
    6.5130   -2.8190   -2.0110 C   0  0  0  0  0  0  0  0  0  0  0  0
    6.1120   -1.9890   -1.2570 C   0  0  0  0  0  0  0  0  0  0  0  0
    5.6470   -0.9790   -0.3570 C   0  0  0  0  0  0  0  0  0  0  0  0
    4.3780   -1.0540    0.1490 C   0  0  0  0  0  0  0  0  0  0  0  0
    3.9810   -0.0580    1.0200 C   0  0  0  0  0  0  0  0  0  0  0  0
    2.6390   -0.0480    1.6130 C   0  0  0  0  0  0  0  0  0  0  0  0
    1.6550   -0.3830    0.6680 O   0  0  0  0  0  0  0  0  0  0  0  0
    1.3830    0.3020   -0.4980 C   0  0  0  0  0  0  0  0  0  0  0  0
    2.0710    1.3190   -0.7520 O   0  0  0  0  0  0  0  0  0  0  0  0
    0.2870   -0.1910   -1.4110 C   0  0  0  0  0  0  0  0  0  0  0  0
   -0.9280    0.6700   -1.0260 C   0  0  0  0  0  0  0  0  0  0  0  0
   -2.0070    0.4750   -1.6010 O   0  0  0  0  0  0  0  0  0  0  0  0
   -3.0880    0.2810   -2.1860 C   0  0  0  0  0  0  0  0  0  0  0  0
   -4.2520   -0.0830   -1.2300 C   0  0  2  0  0  0  0  0  0  0  0  0
   -5.4700   -0.4510   -1.9950 C   0  0  0  0  0  0  0  0  0  0  0  0
   -6.5010   -0.9000   -1.1800 O   0  0  0  0  0  0  0  0  0  0  0  0
   -6.2310   -2.0570   -0.4870 C   0  0  0  0  0  0  0  0  0  0  0  0
   -7.4580   -2.3680    0.3690 C   0  0  0  0  0  0  0  0  0  0  0  0
   -4.4860    0.9140   -0.3400 O   0  0  0  0  0  0  0  0  0  0  0  0
   -4.2070    0.7110    0.9740 C   0  0  0  0  0  0  0  0  0  0  0  0
   -4.5140    1.9180    1.8480 C   0  0  0  0  0  0  0  0  0  0  0  0
    4.8370    0.9810    1.3720 C   0  0  0  0  0  0  0  0  0  0  0  0
    6.1120    1.0590    0.8670 C   0  0  0  0  0  0  0  0  0  0  0  0
    7.0220    2.1440    1.2180 C   0  0  0  0  0  0  0  0  0  0  0  0
    8.3750    2.1660    0.6290 C   0  0  0  0  0  0  0  0  0  0  0  0
    6.6110    3.0170    2.0080 O   0  0  0  0  0  0  0  0  0  0  0  0
    6.5020    0.0680   -0.0000 C   0  0  0  0  0  0  0  0  0  0  0  0
  1  2  3  0
  2  3  1  0
  3  4  2  0
  3 27  1  0
  4  5  1  0
  5  6  1  0
  5 22  2  0
  6  7  1  0
  7  8  1  0
  8  9  2  0
  8 10  1  0
 10 11  1  0
 11 12  1  0
 12 13  1  0
 14 13  1  6
 14 15  1  0
 14 19  1  0
 15 16  1  0
 16 17  1  0
 17 18  1  0
 19 20  1  0
 20 21  1  0
 22 23  1  0
 23 24  1  0
 23 27  2  0
 24 25  1  0
 24 26  2  0
M  END
