
     RDKit          3D

 27 27  0  0  0  0  0  0  0  0999 V2000
    3.0650    4.2120    0.8040 C   0  0  0  0  0  0  0  0  0  0  0  0
    4.1190    3.1370    0.9990 C   0  0  0  0  0  0  0  0  0  0  0  0
    3.5920    1.7720    0.7860 C   0  0  0  0  0  0  0  0  0  0  0  0
    3.8820    1.0630   -0.3770 C   0  0  0  0  0  0  0  0  0  0  0  0
    3.4120   -0.2010   -0.6050 C   0  0  0  0  0  0  0  0  0  0  0  0
    3.7190   -0.9300   -1.8190 C   0  0  0  0  0  0  0  0  0  0  0  0
    4.4380   -0.3780   -2.6840 O   0  0  0  0  0  0  0  0  0  0  0  0
    3.2550   -2.2110   -2.0720 O   0  0  0  0  0  0  0  0  0  0  0  0
    3.5630   -2.9150   -3.2680 C   0  0  0  0  0  0  0  0  0  0  0  0
    2.6140   -0.7990    0.3620 C   0  0  0  0  0  0  0  0  0  0  0  0
    2.1530   -2.0610    0.1230 O   0  0  0  0  0  0  0  0  0  0  0  0
    1.3350   -2.8120    0.9750 C   0  0  0  0  0  0  0  0  0  0  0  0
    0.0060   -2.1420    1.2140 C   0  0  0  0  0  0  0  0  0  0  0  0
   -0.7820   -2.7070    2.0100 O   0  0  0  0  0  0  0  0  0  0  0  0
   -0.3640   -0.9710    0.6100 O   0  0  0  0  0  0  0  0  0  0  0  0
   -1.5670   -0.2730    0.7560 C   0  0  0  0  0  0  0  0  0  0  0  0
   -2.7140   -1.1540    0.2690 C   0  0  2  0  0  0  0  0  0  0  0  0
   -2.5200   -1.5110   -1.1560 C   0  0  0  0  0  0  0  0  0  0  0  0
   -3.5630   -2.3800   -1.6990 C   0  0  0  0  0  0  0  0  0  0  0  0
   -4.5030   -2.8480   -1.1040 O   0  0  0  0  0  0  0  0  0  0  0  0
   -4.0330   -0.5730    0.6590 C   0  0  0  0  0  0  0  0  0  0  0  0
   -4.3550    0.7850    0.1650 C   0  0  1  0  0  0  0  0  0  0  0  0
   -4.4050    0.9910   -1.3050 C   0  0  0  0  0  0  0  0  0  0  0  0
   -5.7600    1.1160    0.7030 C   0  0  0  0  0  0  0  0  0  0  0  0
    2.3260   -0.1070    1.5080 C   0  0  0  0  0  0  0  0  0  0  0  0
    2.8040    1.1890    1.7500 C   0  0  0  0  0  0  0  0  0  0  0  0
    2.4500    1.8850    3.0140 C   0  0  0  0  0  0  0  0  0  0  0  0
  1  2  1  0
  2  3  1  0
  3  4  2  0
  3 26  1  0
  4  5  1  0
  5  6  1  0
  5 10  2  0
  6  7  2  0
  6  8  1  0
  8  9  1  0
 10 11  1  0
 10 25  1  0
 11 12  1  0
 12 13  1  0
 13 14  2  0
 13 15  1  0
 15 16  1  0
 17 16  1  6
 17 18  1  0
 17 21  1  0
 18 19  1  0
 19 20  2  0
 21 22  1  0
 22 23  1  6
 22 24  1  0
 25 26  2  0
 26 27  1  0
M  END
