
     RDKit          3D

 27 27  0  0  0  0  0  0  0  0999 V2000
   -6.3610   -2.9160    0.4550 C   0  0  0  0  0  0  0  0  0  0  0  0
   -5.0260   -2.8040   -0.1630 C   0  0  0  0  0  0  0  0  0  0  0  0
   -4.1630   -1.8710    0.1960 C   0  0  0  0  0  0  0  0  0  0  0  0
   -2.8760   -1.8080   -0.4410 C   0  0  0  0  0  0  0  0  0  0  0  0
   -1.8850   -0.9660   -0.2790 C   0  0  0  0  0  0  0  0  0  0  0  0
   -0.6970   -1.2270   -1.1030 C   0  0  0  0  0  0  0  0  0  0  0  0
   -0.6640   -2.2410   -1.8770 O   0  0  0  0  0  0  0  0  0  0  0  0
    0.4870   -0.3640   -1.0950 C   0  0  0  0  0  0  0  0  0  0  0  0
    1.6610   -1.0850   -0.4580 C   0  0  0  0  0  0  0  0  0  0  0  0
    2.8030   -0.1680   -0.4590 C   0  0  0  0  0  0  0  0  0  0  0  0
    2.8580    0.7780    0.3970 O   0  0  0  0  0  0  0  0  0  0  0  0
    3.8560   -0.2390   -1.3330 O   0  0  0  0  0  0  0  0  0  0  0  0
    4.9330    0.6990   -1.2760 C   0  0  0  0  0  0  0  0  0  0  0  0
    5.9120    0.3670   -2.3510 C   0  0  0  0  0  0  0  0  0  0  0  0
    6.4480   -0.8870   -2.2440 O   0  0  0  0  0  0  0  0  0  0  0  0
    7.1280   -1.0870   -1.0730 C   0  0  0  0  0  0  0  0  0  0  0  0
    8.2500   -0.0650   -0.9880 C   0  0  0  0  0  0  0  0  0  0  0  0
   -1.9620    0.2590    0.4750 C   0  0  0  0  0  0  0  0  0  0  0  0
   -0.9440    0.7660    1.2820 C   0  0  0  0  0  0  0  0  0  0  0  0
   -0.9800    2.0030    1.8830 C   0  0  0  0  0  0  0  0  0  0  0  0
   -2.0970    2.7840    1.6720 C   0  0  0  0  0  0  0  0  0  0  0  0
   -3.1370    2.3450    0.8880 C   0  0  0  0  0  0  0  0  0  0  0  0
   -4.2370    3.1850    0.7160 O   0  0  0  0  0  0  0  0  0  0  0  0
   -4.2960    4.4570    1.3240 C   0  0  0  0  0  0  0  0  0  0  0  0
   -3.0670    1.1050    0.3010 C   0  0  0  0  0  0  0  0  0  0  0  0
   -4.5420   -1.0030    1.1810 O   0  0  0  0  0  0  0  0  0  0  0  0
   -4.2070   -1.1540    2.5470 C   0  0  0  0  0  0  0  0  0  0  0  0
  1  2  1  0
  2  3  2  3
  3  4  1  0
  3 26  1  0
  4  5  2  3
  5  6  1  0
  5 18  1  0
  6  7  2  0
  6  8  1  0
  8  9  1  0
  9 10  1  0
 10 11  2  0
 10 12  1  0
 12 13  1  0
 13 14  1  0
 14 15  1  0
 15 16  1  0
 16 17  1  0
 18 19  2  0
 18 25  1  0
 19 20  1  0
 20 21  2  0
 21 22  1  0
 22 23  1  0
 22 25  2  0
 23 24  1  0
 26 27  1  0
M  END
