
     RDKit          3D

 27 28  0  0  0  0  0  0  0  0999 V2000
    4.0880    1.1850   -1.0780 C   0  0  0  0  0  0  0  0  0  0  0  0
    3.3430    1.7150   -2.0200 C   0  0  0  0  0  0  0  0  0  0  0  0
    3.2430    3.1140   -2.1460 O   0  0  0  0  0  0  0  0  0  0  0  0
    2.5040    3.4510   -3.2530 C   0  0  0  0  0  0  0  0  0  0  0  0
    2.0520    2.1730   -3.7890 C   0  0  0  0  0  0  0  0  0  0  0  0
    2.5390    1.1040   -3.0780 C   0  0  0  0  0  0  0  0  0  0  0  0
    2.5720   -0.2810   -3.5100 C   0  0  0  0  0  0  0  0  0  0  0  0
    2.8390   -1.3010   -2.8980 C   0  0  0  0  0  0  0  0  0  0  0  0
    2.9430   -2.7170   -3.2940 C   0  0  0  0  0  0  0  0  0  0  0  0
    2.7280   -3.1580   -4.4390 O   0  0  0  0  0  0  0  0  0  0  0  0
    2.4020   -1.2910   -1.4160 C   0  0  0  0  0  0  0  0  0  0  0  0
    2.7280   -2.1220   -0.4090 C   0  0  0  0  0  0  0  0  0  0  0  0
    2.0320   -1.6910    0.7220 C   0  0  0  0  0  0  0  0  0  0  0  0
    1.3160   -0.6090    0.3460 C   0  0  0  0  0  0  0  0  0  0  0  0
    0.3840    0.2610    1.0810 C   0  0  0  0  0  0  0  0  0  0  0  0
   -0.8250   -0.4920    1.1480 O   0  0  0  0  0  0  0  0  0  0  0  0
   -1.9470    0.0910    1.7660 C   0  0  0  0  0  0  0  0  0  0  0  0
   -1.8130    0.5030    2.9570 C   0  0  0  0  0  0  0  0  0  0  0  0
   -2.7840    1.1520    3.8750 C   0  0  0  0  0  0  0  0  0  0  0  0
   -3.9480    1.4250    3.5500 O   0  0  0  0  0  0  0  0  0  0  0  0
   -2.3750    1.4670    5.1480 O   0  0  0  0  0  0  0  0  0  0  0  0
   -2.9710    2.0460    6.2250 C   0  0  0  0  0  0  0  0  0  0  0  0
   -3.1600    0.1340    0.8720 C   0  0  0  0  0  0  0  0  0  0  0  0
   -3.6460   -1.2770    0.7040 C   0  0  0  0  0  0  0  0  0  0  0  0
   -2.7240   -2.2250    0.0260 C   0  0  0  0  0  0  0  0  0  0  0  0
   -2.4300   -1.7830   -1.4030 C   0  0  0  0  0  0  0  0  0  0  0  0
    1.5730   -0.4010   -0.9620 O   0  0  0  0  0  0  0  0  0  0  0  0
  1  2  2  0
  2  3  1  0
  2  6  1  0
  3  4  1  0
  4  5  1  0
  5  6  2  0
  6  7  1  0
  7  8  2  3
  8  9  1  0
  8 11  1  0
  9 10  2  0
 11 12  2  0
 11 27  1  0
 12 13  1  0
 13 14  2  0
 14 15  1  0
 14 27  1  0
 15 16  1  0
 16 17  1  0
 17 18  2  3
 17 23  1  0
 18 19  1  0
 19 20  2  0
 19 21  1  0
 21 22  1  0
 23 24  1  0
 24 25  1  0
 25 26  1  0
M  END
