
     RDKit          3D

 27 28  0  0  0  0  0  0  0  0999 V2000
   -7.0690   -0.1640    2.1030 C   0  0  0  0  0  0  0  0  0  0  0  0
   -5.9420   -1.0360    1.8800 C   0  0  0  0  0  0  0  0  0  0  0  0
   -4.8880   -0.9510    1.1260 C   0  0  0  0  0  0  0  0  0  0  0  0
   -3.9270   -1.9800    1.1100 O   0  0  0  0  0  0  0  0  0  0  0  0
   -2.8980   -1.7190    0.2660 C   0  0  0  0  0  0  0  0  0  0  0  0
   -1.9440   -2.4990    0.1060 O   0  0  0  0  0  0  0  0  0  0  0  0
   -3.1280   -0.4370   -0.3590 C   0  0  0  0  0  0  0  0  0  0  0  0
   -2.4000    0.1960   -1.2410 C   0  0  0  0  0  0  0  0  0  0  0  0
   -1.1920   -0.0810   -1.9000 C   0  0  0  0  0  0  0  0  0  0  0  0
   -0.7860    0.8870   -2.7340 O   0  0  0  0  0  0  0  0  0  0  0  0
   -0.2910   -1.1980   -1.8670 C   0  0  0  0  0  0  0  0  0  0  0  0
    0.7610   -1.1550   -0.7660 C   0  0  0  0  0  0  0  0  0  0  0  0
    1.5800   -2.4120   -0.9100 C   0  0  0  0  0  0  0  0  0  0  0  0
    2.6580   -2.4780    0.1410 C   0  0  0  0  0  0  0  0  0  0  0  0
    3.5880   -1.2990    0.0210 C   0  0  0  0  0  0  0  0  0  0  0  0
    4.6380   -1.4420    1.1010 C   0  0  0  0  0  0  0  0  0  0  0  0
    5.6400   -0.3410    1.1080 C   0  0  2  0  0  0  0  0  0  0  0  0
    5.1000    1.0300    1.3230 C   0  0  0  0  0  0  0  0  0  0  0  0
    6.0870    1.9160    0.5580 C   0  0  0  0  0  0  0  0  0  0  0  0
    7.1280    0.8860    0.1470 C   0  0  0  0  0  0  0  0  0  0  0  0
    6.3160   -0.2200   -0.1160 O   0  0  0  0  0  0  0  0  0  0  0  0
   -4.4210    0.0920    0.1820 C   0  0  0  0  0  0  0  0  0  0  0  0
   -5.0520    1.1870   -0.0620 C   0  0  0  0  0  0  0  0  0  0  0  0
   -4.9770    2.3690   -0.8290 C   0  0  0  0  0  0  0  0  0  0  0  0
   -5.9890    3.2420   -0.6850 O   0  0  0  0  0  0  0  0  0  0  0  0
   -4.0840    2.8460   -1.7130 O   0  0  0  0  0  0  0  0  0  0  0  0
   -4.1490    4.0680   -2.4110 C   0  0  0  0  0  0  0  0  0  0  0  0
  1  2  1  0
  2  3  2  3
  3  4  1  0
  3 22  1  0
  4  5  1  0
  5  6  2  0
  5  7  1  0
  7  8  2  3
  7 22  1  0
  8  9  1  0
  9 10  2  0
  9 11  1  0
 11 12  1  0
 12 13  1  0
 13 14  1  0
 14 15  1  0
 15 16  1  0
 17 16  1  6
 17 18  1  0
 17 21  1  0
 18 19  1  0
 19 20  1  0
 20 21  1  0
 22 23  2  3
 23 24  1  0
 24 25  2  0
 24 26  1  0
 26 27  1  0
M  END
