
     RDKit          3D

 26 27  0  0  0  0  0  0  0  0999 V2000
    5.6070    3.6000   -0.5010 C   0  0  0  0  0  0  0  0  0  0  0  0
    5.9840    2.4020   -0.0770 C   0  0  0  0  0  0  0  0  0  0  0  0
    5.0120    1.2840   -0.1090 C   0  0  0  0  0  0  0  0  0  0  0  0
    4.7590    0.7070    1.2590 C   0  0  0  0  0  0  0  0  0  0  0  0
    3.8360   -0.3460    1.1410 O   0  0  0  0  0  0  0  0  0  0  0  0
    2.5400   -0.2570    0.6880 C   0  0  0  0  0  0  0  0  0  0  0  0
    2.1080    0.8690    0.3400 O   0  0  0  0  0  0  0  0  0  0  0  0
    1.6470   -1.4020    0.5920 C   0  0  0  0  0  0  0  0  0  0  0  0
    2.0780   -2.6820    0.9670 C   0  0  0  0  0  0  0  0  0  0  0  0
    1.2300   -3.7510    0.8730 C   0  0  0  0  0  0  0  0  0  0  0  0
    1.6880   -5.0770    1.2660 C   0  0  0  0  0  0  0  0  0  0  0  0
    2.8600   -5.2640    1.6950 O   0  0  0  0  0  0  0  0  0  0  0  0
   -0.0360   -3.5720    0.4130 C   0  0  0  0  0  0  0  0  0  0  0  0
   -0.4690   -2.3060    0.0400 C   0  0  0  0  0  0  0  0  0  0  0  0
    0.3670   -1.2140    0.1260 C   0  0  0  0  0  0  0  0  0  0  0  0
   -0.3020   -0.0760   -0.3030 O   0  0  0  0  0  0  0  0  0  0  0  0
   -1.7160   -0.3440   -0.2610 C   0  0  1  0  0  0  0  0  0  0  0  0
   -2.2990   -0.0280    1.0660 C   0  0  0  0  0  0  0  0  0  0  0  0
   -1.6670   -0.8380    2.1880 C   0  0  0  0  0  0  0  0  0  0  0  0
   -2.3500    0.2880   -1.4440 C   0  0  0  0  0  0  0  0  0  0  0  0
   -3.8150    0.1380   -1.6020 C   0  0  0  0  0  0  0  0  0  0  0  0
   -4.5860    0.6750   -0.5950 O   0  0  0  0  0  0  0  0  0  0  0  0
   -4.4160    2.0440   -0.4770 C   0  0  0  0  0  0  0  0  0  0  0  0
   -4.7970    2.7490   -1.7420 C   0  0  0  0  0  0  0  0  0  0  0  0
   -3.9430    3.4840   -2.4250 C   0  0  0  0  0  0  0  0  0  0  0  0
   -1.7540   -1.8410   -0.4830 C   0  0  0  0  0  0  0  0  0  0  0  0
  1  2  2  0
  2  3  1  0
  3  4  1  0
  4  5  1  0
  5  6  1  0
  6  7  2  0
  6  8  1  0
  8  9  2  0
  8 15  1  0
  9 10  1  0
 10 11  1  0
 10 13  2  0
 11 12  2  0
 13 14  1  0
 14 15  2  0
 14 26  1  0
 15 16  1  0
 16 17  1  0
 17 18  1  1
 17 20  1  0
 17 26  1  0
 18 19  1  0
 20 21  1  0
 21 22  1  0
 22 23  1  0
 23 24  1  0
 24 25  2  0
M  END
