
     RDKit          3D

 27 27  0  0  0  0  0  0  0  0999 V2000
   -4.4950    4.5820   -0.5260 C   0  0  0  0  0  0  0  0  0  0  0  0
   -3.7880    4.0830   -1.7160 C   0  0  0  0  0  0  0  0  0  0  0  0
   -3.2210    2.9040   -1.7150 C   0  0  0  0  0  0  0  0  0  0  0  0
   -3.2780    2.0630   -0.5390 C   0  0  0  0  0  0  0  0  0  0  0  0
   -3.8510    2.3790    0.5350 O   0  0  0  0  0  0  0  0  0  0  0  0
   -2.6770    0.7890   -0.5100 O   0  0  0  0  0  0  0  0  0  0  0  0
   -2.7270   -0.0390    0.6350 C   0  0  2  0  0  0  0  0  0  0  0  0
   -1.2990   -0.2190    1.1080 C   0  0  0  0  0  0  0  0  0  0  0  0
   -0.4470   -0.8720    0.0210 C   0  0  0  0  0  0  0  0  0  0  0  0
    0.9520   -1.0070    0.5870 C   0  0  0  0  0  0  0  0  0  0  0  0
    1.7990   -1.6600   -0.5030 C   0  0  0  0  0  0  0  0  0  0  0  0
    3.2160   -1.8150    0.0270 C   0  0  0  0  0  0  0  0  0  0  0  0
    3.6790   -0.5190    0.3320 O   0  0  0  0  0  0  0  0  0  0  0  0
    4.9440   -0.2790    0.8420 C   0  0  0  0  0  0  0  0  0  0  0  0
    5.7990   -1.3330    1.0680 C   0  0  0  0  0  0  0  0  0  0  0  0
    7.0460   -1.0700    1.5740 C   0  0  0  0  0  0  0  0  0  0  0  0
    7.4490    0.2260    1.8560 C   0  0  0  0  0  0  0  0  0  0  0  0
    6.5790    1.2730    1.6240 C   0  0  0  0  0  0  0  0  0  0  0  0
    5.3140    1.0220    1.1120 C   0  0  0  0  0  0  0  0  0  0  0  0
    4.4070    2.0330    0.8620 O   0  0  0  0  0  0  0  0  0  0  0  0
    4.7010    3.3910    1.1080 C   0  0  0  0  0  0  0  0  0  0  0  0
   -3.3760   -1.3420    0.3440 C   0  0  0  0  0  0  0  0  0  0  0  0
   -3.5190   -2.2200    1.2290 O   0  0  0  0  0  0  0  0  0  0  0  0
   -3.8260   -1.5860   -0.9220 O   0  0  0  0  0  0  0  0  0  0  0  0
   -4.4590   -2.7720   -1.3420 C   0  0  2  0  0  0  0  0  0  0  0  0
   -3.6710   -3.5000   -2.4060 C   0  0  0  0  0  0  0  0  0  0  0  0
   -5.8340   -2.4660   -1.8370 C   0  0  0  0  0  0  0  0  0  0  0  0
  1  2  1  0
  2  3  2  3
  3  4  1  0
  4  5  2  0
  4  6  1  0
  6  7  1  0
  7  8  1  6
  7 22  1  0
  8  9  1  0
  9 10  1  0
 10 11  1  0
 11 12  1  0
 12 13  1  0
 13 14  1  0
 14 15  2  0
 14 19  1  0
 15 16  1  0
 16 17  2  0
 17 18  1  0
 18 19  2  0
 19 20  1  0
 20 21  1  0
 22 23  2  0
 22 24  1  0
 24 25  1  0
 25 26  1  6
 25 27  1  0
M  END
