
     RDKit          3D

 36 40  0  0  0  0  0  0  0  0999 V2000
   -2.2770    3.3510   -2.3600 C   0  0  0  0  0  0  0  0  0  0  0  0
   -2.4740    2.3710   -1.2760 C   0  0  0  0  0  0  0  0  0  0  0  0
   -2.0890    1.0340   -1.3750 C   0  0  0  0  0  0  0  0  0  0  0  0
   -2.2970    0.1600   -0.3310 C   0  0  0  0  0  0  0  0  0  0  0  0
   -2.0350   -1.1970   -0.1160 C   0  0  0  0  0  0  0  0  0  0  0  0
   -1.3950   -2.0260   -1.1280 C   0  0  0  0  0  0  0  0  0  0  0  0
   -2.1240   -2.6230   -1.9560 O   0  0  0  0  0  0  0  0  0  0  0  0
    0.0020   -2.1850   -1.2200 N   0  0  0  0  0  0  0  0  0  0  0  0
    0.6030   -3.0070   -2.2330 C   0  0  0  0  0  0  0  0  0  0  0  0
    1.6880   -3.9200   -1.7740 C   0  0  0  0  0  0  0  0  0  0  0  0
    2.6220   -3.2920   -0.7450 C   0  0  0  0  0  0  0  0  0  0  0  0
    1.7430   -2.6260    0.2980 C   0  0  1  0  0  0  0  0  0  0  0  0
    2.4740   -2.3620    1.4760 N   0  0  0  0  0  0  0  0  0  0  0  0
    0.9330   -1.5150   -0.2850 C   0  0  1  0  0  0  0  0  0  0  0  0
    1.7200   -0.4890   -1.0390 C   0  0  0  0  0  0  0  0  0  0  0  0
    2.6990    0.2680   -0.1920 C   0  0  0  0  0  0  0  0  0  0  0  0
    3.4210    1.3000   -1.0230 C   0  0  0  0  0  0  0  0  0  0  0  0
    3.1400    1.3770   -2.2220 O   0  0  0  0  0  0  0  0  0  0  0  0
    4.3790    2.1290   -0.4090 N   0  0  0  0  0  0  0  0  0  0  0  0
    5.1350    3.1480   -1.0540 C   0  0  0  0  0  0  0  0  0  0  0  0
    4.3570    4.2810   -1.6520 C   0  0  0  0  0  0  0  0  0  0  0  0
    3.4280    3.9030   -2.6770 N   0  0  0  0  0  0  0  0  0  0  0  0
   -2.4540   -1.5800    1.1310 C   0  0  0  0  0  0  0  0  0  0  0  0
   -2.3950   -2.8860    1.8020 C   0  0  0  0  0  0  0  0  0  0  0  0
   -1.8670   -4.0150    1.2470 C   0  0  0  0  0  0  0  0  0  0  0  0
   -1.8410   -5.2330    1.9340 C   0  0  0  0  0  0  0  0  0  0  0  0
   -2.3560   -5.3020    3.1970 C   0  0  0  0  0  0  0  0  0  0  0  0
   -2.8960   -4.1810    3.7850 C   0  0  0  0  0  0  0  0  0  0  0  0
   -2.9080   -2.9820    3.0750 C   0  0  0  0  0  0  0  0  0  0  0  0
   -2.9760   -0.4480    1.6840 N   0  0  0  0  0  0  0  0  0  0  0  0
   -2.8880    0.5780    0.8330 C   0  0  0  0  0  0  0  0  0  0  0  0
   -3.2580    1.9070    0.9000 C   0  0  0  0  0  0  0  0  0  0  0  0
   -3.0710    2.8220   -0.1180 C   0  0  0  0  0  0  0  0  0  0  0  0
   -3.4940    4.2280    0.0310 C   0  0  1  0  0  0  0  0  0  0  0  0
   -4.0820    4.7220    1.3110 C   0  0  0  0  0  0  0  0  0  0  0  0
   -2.8050    5.3000    0.6640 C   0  0  0  0  0  0  0  0  0  0  0  0
  1  2  1  0
  2  3  2  0
  2 33  1  0
  3  4  1  0
  4  5  1  0
  4 31  2  0
  5  6  1  0
  5 23  2  0
  6  7  2  0
  6  8  1  0
  8  9  1  0
  8 14  1  0
  9 10  1  0
 10 11  1  0
 11 12  1  0
 12 13  1  1
 12 14  1  0
 14 15  1  6
 15 16  1  0
 16 17  1  0
 17 18  2  0
 17 19  1  0
 19 20  1  0
 20 21  1  0
 21 22  1  0
 23 24  1  0
 23 30  1  0
 24 25  2  0
 24 29  1  0
 25 26  1  0
 26 27  2  0
 27 28  1  0
 28 29  2  0
 30 31  1  0
 31 32  1  0
 32 33  2  0
 34 33  1  1
 34 35  1  0
 34 36  1  0
 35 36  1  0
M  CHG  1  13   1
M  END
