
     RDKit          3D

 36 38  0  0  0  0  0  0  0  0999 V2000
   -7.1850    0.9500    0.7030 C   0  0  0  0  0  0  0  0  0  0  0  0
   -7.5200    0.3370   -0.6230 C   0  0  0  0  0  0  0  0  0  0  0  0
   -8.8010    0.4430   -1.0960 C   0  0  0  0  0  0  0  0  0  0  0  0
   -9.7850    1.0710   -0.3990 F   0  0  0  0  0  0  0  0  0  0  0  0
   -9.1090   -0.0730   -2.3760 C   0  0  0  0  0  0  0  0  0  0  0  0
   -8.1080   -0.6630   -3.1060 C   0  0  0  0  0  0  0  0  0  0  0  0
   -8.5090   -1.2800   -4.7210 Cl  0  0  0  0  0  0  0  0  0  0  0  0
   -6.8040   -0.7640   -2.5950 C   0  0  0  0  0  0  0  0  0  0  0  0
   -6.4820   -0.2740   -1.3560 C   0  0  0  0  0  0  0  0  0  0  0  0
   -5.2400   -0.3750   -0.7350 N   0  0  0  0  0  0  0  0  0  0  0  0
   -3.9540   -0.5190   -1.3540 C   0  0  0  0  0  0  0  0  0  0  0  0
   -3.8750   -0.5580   -2.5590 O   0  0  0  0  0  0  0  0  0  0  0  0
   -2.8000   -0.5840   -0.4590 C   0  0  0  0  0  0  0  0  0  0  0  0
   -1.9180    0.4550   -0.3400 C   0  0  0  0  0  0  0  0  0  0  0  0
   -0.9350    0.4150    0.6710 C   0  0  0  0  0  0  0  0  0  0  0  0
   -0.0210    1.4580    0.8190 O   0  0  0  0  0  0  0  0  0  0  0  0
    1.2920    1.1380    0.9600 C   0  0  0  0  0  0  0  0  0  0  0  0
    1.9240    1.4620    2.1790 C   0  0  0  0  0  0  0  0  0  0  0  0
    3.2650    1.1470    2.3860 C   0  0  0  0  0  0  0  0  0  0  0  0
    3.9940    0.5190    1.4430 C   0  0  0  0  0  0  0  0  0  0  0  0
    5.3180   -0.0570    1.6670 C   0  0  0  0  0  0  0  0  0  0  0  0
    6.3260    0.6280    0.8990 N   0  0  0  0  0  0  0  0  0  0  0  0
    7.6350    0.1560    0.8630 C   0  0  0  0  0  0  0  0  0  0  0  0
    7.9700   -0.8290    1.5750 O   0  0  0  0  0  0  0  0  0  0  0  0
    8.6910    0.7450   -0.0250 C   0  0  2  0  0  0  0  0  0  0  0  0
    8.3020    1.8270   -0.7480 O   0  0  0  0  0  0  0  0  0  0  0  0
    9.1180   -0.4200   -0.9770 C   0  0  0  0  0  0  0  0  0  0  0  0
   10.0540    0.0610   -1.8140 F   0  0  0  0  0  0  0  0  0  0  0  0
    3.3790    0.1980    0.2390 C   0  0  0  0  0  0  0  0  0  0  0  0
    4.2250   -0.4320   -0.6620 O   0  0  0  0  0  0  0  0  0  0  0  0
    2.0580    0.4980   -0.0010 C   0  0  0  0  0  0  0  0  0  0  0  0
   -0.8460   -0.6360    1.5270 C   0  0  0  0  0  0  0  0  0  0  0  0
    0.1330   -0.6480    2.4750 F   0  0  0  0  0  0  0  0  0  0  0  0
   -1.7320   -1.6850    1.4150 C   0  0  0  0  0  0  0  0  0  0  0  0
   -2.6890   -1.6290    0.4170 C   0  0  0  0  0  0  0  0  0  0  0  0
   -3.5660   -2.6800    0.3040 F   0  0  0  0  0  0  0  0  0  0  0  0
  1  2  1  0
  2  3  2  0
  2  9  1  0
  3  4  1  0
  3  5  1  0
  5  6  2  0
  6  7  1  0
  6  8  1  0
  8  9  2  0
  9 10  1  0
 10 11  1  0
 11 12  2  0
 11 13  1  0
 13 14  2  0
 13 35  1  0
 14 15  1  0
 15 16  1  0
 15 32  2  0
 16 17  1  0
 17 18  2  0
 17 31  1  0
 18 19  1  0
 19 20  2  0
 20 21  1  0
 20 29  1  0
 21 22  1  0
 22 23  1  0
 23 24  2  0
 23 25  1  0
 25 26  1  6
 25 27  1  0
 27 28  1  0
 29 30  1  0
 29 31  2  0
 32 33  1  0
 32 34  1  0
 34 35  2  0
 35 36  1  0
M  END
