
     RDKit          3D

 36 38  0  0  0  0  0  0  0  0999 V2000
   -7.1460   -0.7040   -2.6010 C   0  0  0  0  0  0  0  0  0  0  0  0
   -6.2690   -1.4470   -1.6500 C   0  0  0  0  0  0  0  0  0  0  0  0
   -5.9810   -0.6260   -0.3760 C   0  0  1  0  0  0  0  0  0  0  0  0
   -7.3290   -0.3280    0.3070 C   0  0  0  0  0  0  0  0  0  0  0  0
   -5.1820   -1.4940    0.4710 C   0  0  0  0  0  0  0  0  0  0  0  0
   -5.6800   -2.7390    0.8260 F   0  0  0  0  0  0  0  0  0  0  0  0
   -4.0070   -1.1990    0.9400 C   0  0  0  0  0  0  0  0  0  0  0  0
   -3.1200   -2.3310    1.9640 Cl  0  0  0  0  0  0  0  0  0  0  0  0
   -3.3520    0.0780    0.6500 C   0  0  0  0  0  0  0  0  0  0  0  0
   -2.0360    0.3790    1.1900 C   0  0  0  0  0  0  0  0  0  0  0  0
   -1.4690   -0.4910    1.9180 O   0  0  0  0  0  0  0  0  0  0  0  0
   -1.3160    1.5680    0.9780 N   0  0  0  0  0  0  0  0  0  0  0  0
   -0.0120    1.7890    1.5510 C   0  0  0  0  0  0  0  0  0  0  0  0
    0.0380    2.3790    2.7980 C   0  0  0  0  0  0  0  0  0  0  0  0
   -1.1150    2.7210    3.4210 F   0  0  0  0  0  0  0  0  0  0  0  0
    1.2840    2.6000    3.3650 C   0  0  0  0  0  0  0  0  0  0  0  0
    2.4210    2.2270    2.6730 C   0  0  0  0  0  0  0  0  0  0  0  0
    2.3830    1.6360    1.4270 C   0  0  0  0  0  0  0  0  0  0  0  0
    3.5300    1.2610    0.7300 O   0  0  0  0  0  0  0  0  0  0  0  0
    4.0980    0.0010    0.8610 C   0  0  0  0  0  0  0  0  0  0  0  0
    3.5240   -0.7950    1.6470 O   0  0  0  0  0  0  0  0  0  0  0  0
    5.2940   -0.4000    0.1380 C   0  0  0  0  0  0  0  0  0  0  0  0
    5.7970   -1.6670    0.3210 C   0  0  0  0  0  0  0  0  0  0  0  0
    6.9450   -2.1000   -0.3520 C   0  0  0  0  0  0  0  0  0  0  0  0
    7.5810   -1.2460   -1.2090 C   0  0  0  0  0  0  0  0  0  0  0  0
    8.7770   -1.6630   -1.9250 C   0  0  0  0  0  0  0  0  0  0  0  0
    9.4680   -0.8090   -2.8220 N   0  0  0  0  0  0  0  0  0  0  0  0
    9.1900   -2.8530   -1.7100 O   0  0  0  0  0  0  0  0  0  0  0  0
    7.0980    0.0310   -1.4110 C   0  0  0  0  0  0  0  0  0  0  0  0
    5.9500    0.4310   -0.7240 C   0  0  0  0  0  0  0  0  0  0  0  0
    1.1390    1.4210    0.8710 C   0  0  0  0  0  0  0  0  0  0  0  0
    1.0200    0.8310   -0.3810 O   0  0  0  0  0  0  0  0  0  0  0  0
   -4.0370    0.8910   -0.1110 C   0  0  0  0  0  0  0  0  0  0  0  0
   -5.3640    0.6740   -0.6990 C   0  0  1  0  0  0  0  0  0  0  0  0
   -5.2960    0.7560   -2.1040 F   0  0  0  0  0  0  0  0  0  0  0  0
   -6.2310    1.7340   -0.3130 F   0  0  0  0  0  0  0  0  0  0  0  0
  1  2  1  0
  2  3  1  0
  3  4  1  1
  3  5  1  0
  3 34  1  0
  5  6  1  0
  5  7  2  0
  7  8  1  0
  7  9  1  0
  9 10  1  0
  9 33  2  0
 10 11  2  0
 10 12  1  0
 12 13  1  0
 13 14  2  0
 13 31  1  0
 14 15  1  0
 14 16  1  0
 16 17  2  0
 17 18  1  0
 18 19  1  0
 18 31  2  0
 19 20  1  0
 20 21  2  0
 20 22  1  0
 22 23  2  0
 22 30  1  0
 23 24  1  0
 24 25  2  0
 25 26  1  0
 25 29  1  0
 26 27  1  0
 26 28  2  0
 29 30  2  0
 31 32  1  0
 33 34  1  0
 34 35  1  6
 34 36  1  0
M  END
