
     RDKit          3D

 36 38  0  0  0  0  0  0  0  0999 V2000
   -9.4450    1.8020   -0.3080 C   0  0  0  0  0  0  0  0  0  0  0  0
   -8.0820    2.2440   -0.1540 N   0  0  0  0  0  0  0  0  0  0  0  0
   -6.9920    1.3460   -0.2380 C   0  0  0  0  0  0  0  0  0  0  0  0
   -7.1930   -0.0200   -0.4680 C   0  0  0  0  0  0  0  0  0  0  0  0
   -6.1010   -0.8580   -0.5430 C   0  0  0  0  0  0  0  0  0  0  0  0
   -6.3140   -2.1910   -0.7680 F   0  0  0  0  0  0  0  0  0  0  0  0
   -4.8000   -0.3890   -0.3970 C   0  0  0  0  0  0  0  0  0  0  0  0
   -3.7080   -1.3390   -0.5110 C   0  0  1  0  0  0  0  0  0  0  0  0
   -3.6890   -1.7830   -1.8530 O   0  0  0  0  0  0  0  0  0  0  0  0
   -2.3610   -0.8760   -0.0950 C   0  0  1  0  0  0  0  0  0  0  0  0
   -2.2420   -0.4710    1.3550 C   0  0  0  0  0  0  0  0  0  0  0  0
   -1.0230    0.4270    1.4560 C   0  0  0  0  0  0  0  0  0  0  0  0
    0.1780   -0.3430    0.9510 C   0  0  2  0  0  0  0  0  0  0  0  0
    1.1140   -0.3230    2.0060 O   0  0  0  0  0  0  0  0  0  0  0  0
    0.8360    0.3460   -0.2070 C   0  0  0  0  0  0  0  0  0  0  0  0
    2.0060   -0.4120   -0.6860 C   0  0  0  0  0  0  0  0  0  0  0  0
    1.9600   -1.3600   -1.5030 O   0  0  0  0  0  0  0  0  0  0  0  0
    3.3430   -0.0390   -0.1750 C   0  0  0  0  0  0  0  0  0  0  0  0
    3.3590    0.9100    0.6430 O   0  0  0  0  0  0  0  0  0  0  0  0
    4.4930   -0.7190   -0.5990 N   0  0  0  0  0  0  0  0  0  0  0  0
    5.7890   -0.4190   -0.1580 C   0  0  0  0  0  0  0  0  0  0  0  0
    6.0940    0.4270    0.8600 C   0  0  0  0  0  0  0  0  0  0  0  0
    7.4370    0.6710    1.2060 C   0  0  0  0  0  0  0  0  0  0  0  0
    8.4760    0.0700    0.5380 C   0  0  0  0  0  0  0  0  0  0  0  0
    9.8020    0.3380    0.9100 O   0  0  0  0  0  0  0  0  0  0  0  0
   10.4910    1.4240    0.2900 C   0  0  1  0  0  0  0  0  0  0  0  0
   11.7500    1.4740    0.8190 F   0  0  0  0  0  0  0  0  0  0  0  0
   10.4720    1.3310   -1.0820 F   0  0  0  0  0  0  0  0  0  0  0  0
    9.8320    2.6100    0.6160 F   0  0  0  0  0  0  0  0  0  0  0  0
    8.1770   -0.7890   -0.4950 C   0  0  0  0  0  0  0  0  0  0  0  0
    6.8650   -1.0270   -0.8330 C   0  0  0  0  0  0  0  0  0  0  0  0
   -0.1400   -1.7570    0.6150 C   0  0  0  0  0  0  0  0  0  0  0  0
   -1.2510   -1.8180   -0.4300 C   0  0  0  0  0  0  0  0  0  0  0  0
   -4.6310    0.9380   -0.1750 C   0  0  0  0  0  0  0  0  0  0  0  0
   -5.7060    1.8170   -0.0920 C   0  0  0  0  0  0  0  0  0  0  0  0
   -5.4150    3.5250    0.1970 Cl  0  0  0  0  0  0  0  0  0  0  0  0
  1  2  1  0
  2  3  1  0
  3  4  2  0
  3 35  1  0
  4  5  1  0
  5  6  1  0
  5  7  2  0
  7  8  1  0
  7 34  1  0
  8  9  1  6
  8 10  1  0
 10 11  1  1
 10 33  1  0
 11 12  1  0
 12 13  1  0
 13 14  1  1
 13 15  1  0
 13 32  1  0
 15 16  1  0
 16 17  2  0
 16 18  1  0
 18 19  2  0
 18 20  1  0
 20 21  1  0
 21 22  2  0
 21 31  1  0
 22 23  1  0
 23 24  2  0
 24 25  1  0
 24 30  1  0
 25 26  1  0
 26 27  1  1
 26 28  1  0
 26 29  1  0
 30 31  2  0
 32 33  1  0
 34 35  2  0
 35 36  1  0
M  END
