
     RDKit          3D

 36 41  0  0  0  0  0  0  0  0999 V2000
   -1.9400    1.3990   -2.5240 N   0  0  0  0  0  0  0  0  0  0  0  0
   -1.7370    0.0210   -2.5180 C   0  0  0  0  0  0  0  0  0  0  0  0
   -0.9790   -0.4560   -3.4170 O   0  0  0  0  0  0  0  0  0  0  0  0
   -2.3730   -0.8430   -1.5270 C   0  0  0  0  0  0  0  0  0  0  0  0
   -2.1710   -2.1720   -1.6230 C   0  0  0  0  0  0  0  0  0  0  0  0
   -2.7370   -3.1110   -0.7510 N   0  0  0  0  0  0  0  0  0  0  0  0
   -3.5890   -2.6660    0.3070 C   0  0  0  0  0  0  0  0  0  0  0  0
   -3.8050   -1.3850    0.4290 C   0  0  0  0  0  0  0  0  0  0  0  0
   -4.6850   -0.9200    1.4960 C   0  0  0  0  0  0  0  0  0  0  0  0
   -5.2880    0.1490    1.4360 O   0  0  0  0  0  0  0  0  0  0  0  0
   -4.8340   -1.8190    2.6980 C   0  0  0  0  0  0  0  0  0  0  0  0
   -5.2190   -3.1680    2.1000 C   0  0  0  0  0  0  0  0  0  0  0  0
   -4.1690   -3.7130    1.2070 C   0  0  0  0  0  0  0  0  0  0  0  0
   -3.1110   -0.3100   -0.3930 C   0  0  1  0  0  0  0  0  0  0  0  0
   -2.2630    0.4330    0.5350 N   0  0  0  0  0  0  0  0  0  0  0  0
   -1.4460    1.5260    0.3080 C   0  0  0  0  0  0  0  0  0  0  0  0
   -0.0830    1.3750    0.0770 C   0  0  0  0  0  0  0  0  0  0  0  0
    0.5900    0.0730    0.1100 C   0  0  0  0  0  0  0  0  0  0  0  0
    2.0350    0.2080   -0.1700 N   0  0  0  0  0  0  0  0  0  0  0  0
    2.6190   -1.1260   -0.0950 C   0  0  0  0  0  0  0  0  0  0  0  0
    4.0870   -0.9950   -0.3790 C   0  0  0  0  0  0  0  0  0  0  0  0
    4.5740   -1.0910   -1.6660 C   0  0  0  0  0  0  0  0  0  0  0  0
    5.9290   -0.9660   -1.9030 C   0  0  0  0  0  0  0  0  0  0  0  0
    6.8390   -0.7440   -0.8900 C   0  0  0  0  0  0  0  0  0  0  0  0
    6.3570   -0.6460    0.4070 C   0  0  0  0  0  0  0  0  0  0  0  0
    4.9990   -0.7730    0.6310 C   0  0  0  0  0  0  0  0  0  0  0  0
    7.4800   -0.4210    1.2440 N   0  0  0  0  0  0  0  0  0  0  0  0
    8.7190   -0.7270    0.5670 C   0  0  0  0  0  0  0  0  0  0  0  0
    8.3310   -0.5760   -0.8880 C   0  0  0  0  0  0  0  0  0  0  0  0
    0.7340    2.4830   -0.1500 C   0  0  0  0  0  0  0  0  0  0  0  0
    0.2280    3.7570   -0.1540 C   0  0  0  0  0  0  0  0  0  0  0  0
   -1.1190    3.9120    0.0750 C   0  0  0  0  0  0  0  0  0  0  0  0
   -1.9520    2.8400    0.3030 C   0  0  0  0  0  0  0  0  0  0  0  0
   -3.3890    3.0000    0.5810 C   0  0  1  0  0  0  0  0  0  0  0  0
   -4.0170    4.3780    0.6070 C   0  0  0  0  0  0  0  0  0  0  0  0
   -4.3790    3.3760   -0.4590 C   0  0  0  0  0  0  0  0  0  0  0  0
  1  2  1  0
  2  3  2  0
  2  4  1  0
  4  5  2  0
  4 14  1  0
  5  6  1  0
  6  7  1  0
  7  8  2  0
  7 13  1  0
  8  9  1  0
  8 14  1  0
  9 10  2  0
  9 11  1  0
 11 12  1  0
 12 13  1  0
 14 15  1  1
 15 16  1  0
 16 17  1  0
 16 33  2  0
 17 18  1  0
 17 30  2  0
 18 19  1  0
 19 20  1  0
 20 21  1  0
 21 22  2  0
 21 26  1  0
 22 23  1  0
 23 24  2  0
 24 25  1  0
 24 29  1  0
 25 26  2  0
 25 27  1  0
 27 28  1  0
 28 29  1  0
 30 31  1  0
 31 32  2  0
 32 33  1  0
 34 33  1  6
 34 35  1  0
 34 36  1  0
 35 36  1  0
M  END
