
     RDKit          3D

 36 39  0  0  0  0  0  0  0  0999 V2000
    6.1510   -1.3340   -0.6220 O   0  0  0  0  0  0  0  0  0  0  0  0
    5.1810   -0.6930   -1.1200 C   0  0  0  0  0  0  0  0  0  0  0  0
    5.3800    0.1350   -2.2060 O   0  0  0  0  0  0  0  0  0  0  0  0
    6.7290    0.2040   -2.7130 C   0  0  0  0  0  0  0  0  0  0  0  0
    7.5840    0.5820   -1.5700 C   0  0  0  0  0  0  0  0  0  0  0  0
    8.5990   -0.1660   -1.0930 C   0  0  0  0  0  0  0  0  0  0  0  0
    9.1750    0.5720    0.0370 C   0  0  0  0  0  0  0  0  0  0  0  0
   10.0610    0.0580    0.9500 O   0  0  0  0  0  0  0  0  0  0  0  0
    8.6440    1.7690   -0.0660 C   0  0  0  0  0  0  0  0  0  0  0  0
    7.5160    1.7880   -0.7720 C   0  0  0  0  0  0  0  0  0  0  0  0
    3.8610   -0.8210   -0.5470 C   0  0  0  0  0  0  0  0  0  0  0  0
    2.6790   -0.2740   -0.9940 C   0  0  0  0  0  0  0  0  0  0  0  0
    1.7110   -0.6840   -0.1220 C   0  0  0  0  0  0  0  0  0  0  0  0
    0.3060   -0.2900   -0.1810 C   0  0  0  0  0  0  0  0  0  0  0  0
   -0.4350   -0.8890   -0.9970 O   0  0  0  0  0  0  0  0  0  0  0  0
   -0.2450    0.7240    0.6200 N   0  0  0  0  0  0  0  0  0  0  0  0
   -1.5950    1.1590    0.6200 C   0  0  0  0  0  0  0  0  0  0  0  0
   -1.8730    2.5090    0.8840 C   0  0  0  0  0  0  0  0  0  0  0  0
   -3.1620    2.9590    0.9130 C   0  0  0  0  0  0  0  0  0  0  0  0
   -3.4900    4.6400    1.2390 Cl  0  0  0  0  0  0  0  0  0  0  0  0
   -4.2490    2.0870    0.6800 C   0  0  0  0  0  0  0  0  0  0  0  0
   -5.4720    2.5990    0.7230 F   0  0  0  0  0  0  0  0  0  0  0  0
   -4.0040    0.7620    0.4210 C   0  0  0  0  0  0  0  0  0  0  0  0
   -4.9640   -0.1670    0.1880 O   0  0  0  0  0  0  0  0  0  0  0  0
   -6.3070   -0.0200    0.1710 C   0  0  2  0  0  0  0  0  0  0  0  0
   -7.0420   -0.9380    1.1570 C   0  0  0  0  0  0  0  0  0  0  0  0
   -8.4860   -0.7240    0.6920 C   0  0  0  0  0  0  0  0  0  0  0  0
   -8.4180   -0.2740   -0.7460 C   0  0  0  0  0  0  0  0  0  0  0  0
   -6.9570   -0.5670   -1.1300 C   0  0  0  0  0  0  0  0  0  0  0  0
   -2.6750    0.3520    0.4010 C   0  0  0  0  0  0  0  0  0  0  0  0
    2.2810   -1.4710    0.8470 C   0  0  0  0  0  0  0  0  0  0  0  0
    1.5890   -2.1420    2.0080 C   0  0  2  0  0  0  0  0  0  0  0  0
    0.6170   -3.0240    1.5910 F   0  0  0  0  0  0  0  0  0  0  0  0
    1.1260   -1.2440    2.9320 F   0  0  0  0  0  0  0  0  0  0  0  0
    2.5560   -2.9290    2.6490 F   0  0  0  0  0  0  0  0  0  0  0  0
    3.5920   -1.5350    0.5570 N   0  0  0  0  0  0  0  0  0  0  0  0
  1  2  2  0
  2  3  1  0
  2 11  1  0
  3  4  1  0
  4  5  1  0
  5  6  2  0
  5 10  1  0
  6  7  1  0
  7  8  1  0
  7  9  2  0
  9 10  2  0
 11 12  2  0
 11 36  1  0
 12 13  1  0
 13 14  1  0
 13 31  2  0
 14 15  2  0
 14 16  1  0
 16 17  1  0
 17 18  2  0
 17 30  1  0
 18 19  1  0
 19 20  1  0
 19 21  2  0
 21 22  1  0
 21 23  1  0
 23 24  1  0
 23 30  2  0
 25 24  1  6
 25 26  1  0
 25 29  1  0
 26 27  1  0
 27 28  1  0
 28 29  1  0
 31 32  1  0
 31 36  1  0
 32 33  1  6
 32 34  1  0
 32 35  1  0
M  END
