
     RDKit          3D

 23 25  0  0  0  0  0  0  0  0999 V2000
    6.2460   -1.0770    1.1750 C   0  0  0  0  0  0  0  0  0  0  0  0
    5.2000   -0.1150    0.6390 C   0  0  0  0  0  0  0  0  0  0  0  0
    4.0140   -0.8580    0.0690 C   0  0  0  0  0  0  0  0  0  0  0  0
    3.0820    0.0830   -0.4040 O   0  0  0  0  0  0  0  0  0  0  0  0
    3.3030    1.0030   -1.4000 C   0  0  0  0  0  0  0  0  0  0  0  0
    4.4290    1.0180   -1.9500 O   0  0  0  0  0  0  0  0  0  0  0  0
    2.2700    1.9840   -1.8600 C   0  0  0  0  0  0  0  0  0  0  0  0
    1.0680    1.8570   -1.1680 O   0  0  0  0  0  0  0  0  0  0  0  0
    0.2920    0.7040   -1.1420 C   0  0  0  0  0  0  0  0  0  0  0  0
    0.7280   -0.2740   -1.7970 O   0  0  0  0  0  0  0  0  0  0  0  0
   -0.9530    0.6010   -0.4130 C   0  0  0  0  0  0  0  0  0  0  0  0
   -1.4430    1.6070    0.2880 C   0  0  0  0  0  0  0  0  0  0  0  0
   -0.9700    2.9870    0.5370 C   0  0  0  0  0  0  0  0  0  0  0  0
   -2.0060    3.7390    0.8540 C   0  0  0  0  0  0  0  0  0  0  0  0
   -3.2630    2.9000    0.8380 C   0  0  0  0  0  0  0  0  0  0  0  0
   -2.6870    1.5000    1.0510 C   0  0  1  0  0  0  0  0  0  0  0  0
   -3.6020    0.3960    0.7200 C   0  0  0  0  0  0  0  0  0  0  0  0
   -3.2290   -0.4900   -0.4090 C   0  0  2  0  0  0  0  0  0  0  0  0
   -3.7500   -1.8730   -0.2510 C   0  0  0  0  0  0  0  0  0  0  0  0
   -2.5790   -2.7840   -0.5270 C   0  0  2  0  0  0  0  0  0  0  0  0
   -2.5190   -3.7490    0.5570 N   0  0  0  0  0  0  0  0  0  0  0  0
   -1.3790   -1.8900   -0.5220 C   0  0  0  0  0  0  0  0  0  0  0  0
   -1.7280   -0.6240   -0.4480 C   0  0  0  0  0  0  0  0  0  0  0  0
  1  2  1  0
  2  3  1  0
  3  4  1  0
  4  5  1  0
  5  6  2  0
  5  7  1  0
  7  8  1  0
  8  9  1  0
  9 10  2  0
  9 11  1  0
 11 12  2  0
 11 23  1  0
 12 13  1  0
 12 16  1  0
 13 14  2  0
 14 15  1  0
 16 15  1  6
 16 17  1  0
 18 17  1  1
 18 19  1  0
 18 23  1  0
 19 20  1  0
 20 21  1  1
 20 22  1  0
 22 23  2  0
M  CHG  1  21   1
M  END
