
     RDKit          3D

 23 26  0  0  0  0  0  0  0  0999 V2000
   -1.4550    4.4330    0.0860 C   0  0  0  0  0  0  0  0  0  0  0  0
   -0.4170    4.3380    1.1600 C   0  0  0  0  0  0  0  0  0  0  0  0
    0.6260    3.2790    0.8300 C   0  0  0  0  0  0  0  0  0  0  0  0
   -0.0150    2.0400    0.7090 O   0  0  0  0  0  0  0  0  0  0  0  0
    0.6570    0.8580    0.4120 C   0  0  0  0  0  0  0  0  0  0  0  0
    2.0210    0.8840    0.2220 C   0  0  0  0  0  0  0  0  0  0  0  0
    2.7080   -0.2990   -0.0770 C   0  0  0  0  0  0  0  0  0  0  0  0
    2.0070   -1.4760   -0.1770 C   0  0  0  0  0  0  0  0  0  0  0  0
    0.6290   -1.4770    0.0190 C   0  0  0  0  0  0  0  0  0  0  0  0
   -0.0460   -0.3280    0.3100 C   0  0  0  0  0  0  0  0  0  0  0  0
   -1.4860   -0.3170    0.5150 C   0  0  1  0  0  0  0  0  0  0  0  0
   -2.1700    0.4850   -0.4830 N   0  0  0  0  0  0  0  0  0  0  0  0
   -2.9630   -0.3840   -1.2990 C   0  0  0  0  0  0  0  0  0  0  0  0
   -2.5280   -1.8130   -0.9460 C   0  0  2  0  0  0  0  0  0  0  0  0
   -3.7180   -2.7350   -0.8900 C   0  0  0  0  0  0  0  0  0  0  0  0
   -4.3200   -2.3770    0.4190 C   0  0  0  0  0  0  0  0  0  0  0  0
   -5.4420   -2.7680    0.8060 O   0  0  0  0  0  0  0  0  0  0  0  0
   -3.4450   -1.5590    1.1120 O   0  0  0  0  0  0  0  0  0  0  0  0
   -2.1680   -1.6340    0.4970 C   0  0  2  0  0  0  0  0  0  0  0  0
    2.8850   -2.5330   -0.4820 O   0  0  0  0  0  0  0  0  0  0  0  0
    4.0370   -1.9340   -1.0750 C   0  0  2  0  0  0  0  0  0  0  0  0
    5.2710   -2.7830   -0.8340 C   0  0  0  0  0  0  0  0  0  0  0  0
    4.1200   -0.6250   -0.3290 C   0  0  0  0  0  0  0  0  0  0  0  0
  1  2  1  0
  2  3  1  0
  3  4  1  0
  4  5  1  0
  5  6  2  0
  5 10  1  0
  6  7  1  0
  7  8  2  0
  7 23  1  0
  8  9  1  0
  8 20  1  0
  9 10  2  0
 11 10  1  6
 11 12  1  0
 11 19  1  0
 12 13  1  0
 14 13  1  1
 14 15  1  0
 14 19  1  0
 15 16  1  0
 16 17  2  0
 16 18  1  0
 19 18  1  1
 20 21  1  0
 21 22  1  1
 21 23  1  0
M  CHG  1  12   1
M  END
