
     RDKit          3D

 23 25  0  0  0  0  0  0  0  0999 V2000
   -4.6560    2.8940    1.1360 C   0  0  0  0  0  0  0  0  0  0  0  0
   -5.2400    2.0430    0.0310 C   0  0  0  0  0  0  0  0  0  0  0  0
   -4.2100    1.3070   -0.7550 C   0  0  0  0  0  0  0  0  0  0  0  0
   -3.3560    0.3550   -0.0140 C   0  0  2  0  0  0  0  0  0  0  0  0
   -2.4670    0.6680    1.0950 C   0  0  0  0  0  0  0  0  0  0  0  0
   -1.8330    0.4460   -0.2200 C   0  0  1  0  0  0  0  0  0  0  0  0
   -1.1490   -0.7350   -0.6040 N   0  0  0  0  0  0  0  0  0  0  0  0
   -0.8110   -1.6470    0.4610 C   0  0  0  0  0  0  0  0  0  0  0  0
    0.4120   -2.4230    0.0620 C   0  0  1  0  0  0  0  0  0  0  0  0
    0.1730   -3.1180   -1.0910 O   0  0  0  0  0  0  0  0  0  0  0  0
    1.2070   -3.8420   -1.6040 C   0  0  0  0  0  0  0  0  0  0  0  0
    2.5040   -3.6990   -0.8870 C   0  0  0  0  0  0  0  0  0  0  0  0
    2.7060   -2.2690   -0.5120 C   0  0  0  0  0  0  0  0  0  0  0  0
    1.6400   -1.6380   -0.0330 C   0  0  0  0  0  0  0  0  0  0  0  0
    1.7510   -0.2390    0.3650 C   0  0  0  0  0  0  0  0  0  0  0  0
    2.8880    0.4190    0.2610 C   0  0  0  0  0  0  0  0  0  0  0  0
    2.9930    1.8370    0.6660 C   0  0  0  0  0  0  0  0  0  0  0  0
    2.0090    2.4670    1.1220 O   0  0  0  0  0  0  0  0  0  0  0  0
    4.1940    2.5170    0.5530 O   0  0  0  0  0  0  0  0  0  0  0  0
    4.3220    3.8740    0.9330 C   0  0  0  0  0  0  0  0  0  0  0  0
    4.0610   -0.2670   -0.2610 C   0  0  0  0  0  0  0  0  0  0  0  0
    5.1700    0.3450   -0.3610 O   0  0  0  0  0  0  0  0  0  0  0  0
    4.0220   -1.6660   -0.6880 C   0  0  0  0  0  0  0  0  0  0  0  0
  1  2  1  0
  2  3  1  0
  4  3  1  6
  4  5  1  0
  4  6  1  0
  5  6  1  0
  6  7  1  1
  7  8  1  0
  9  8  1  6
  9 10  1  0
  9 14  1  0
 10 11  1  0
 11 12  1  0
 12 13  1  0
 13 14  2  0
 13 23  1  0
 14 15  1  0
 15 16  2  0
 16 17  1  0
 16 21  1  0
 17 18  2  0
 17 19  1  0
 19 20  1  0
 21 22  2  0
 21 23  1  0
M  CHG  1   7   1
M  END
