
     RDKit          3D

 23 25  0  0  0  0  0  0  0  0999 V2000
   -2.0950   -1.0010   -2.5300 C   0  0  0  0  0  0  0  0  0  0  0  0
   -0.8930   -1.1340   -1.5900 C   0  0  2  0  0  0  0  0  0  0  0  0
   -1.2730   -0.7370   -0.2530 N   0  0  0  0  0  0  0  0  0  0  0  0
   -1.7850   -1.8440    0.5330 C   0  0  1  0  0  0  0  0  0  0  0  0
   -1.7230   -1.3740    1.9950 C   0  0  0  0  0  0  0  0  0  0  0  0
   -2.8010   -0.3300    1.9560 C   0  0  0  0  0  0  0  0  0  0  0  0
   -3.2280    0.8080    2.4770 C   0  0  0  0  0  0  0  0  0  0  0  0
   -4.5010    1.2340    1.8350 C   0  0  0  0  0  0  0  0  0  0  0  0
   -4.7430    0.1640    0.8630 C   0  0  0  0  0  0  0  0  0  0  0  0
   -3.7820   -0.7220    0.9300 C   0  0  0  0  0  0  0  0  0  0  0  0
   -3.2750   -2.0100    0.3600 C   0  0  0  0  0  0  0  0  0  0  0  0
    0.1290   -0.1260   -2.0780 C   0  0  2  0  0  0  0  0  0  0  0  0
    0.5960   -0.5800   -3.4450 C   0  0  0  0  0  0  0  0  0  0  0  0
    1.2760   -0.1040   -1.2370 O   0  0  0  0  0  0  0  0  0  0  0  0
    1.7010    1.0170   -0.5630 C   0  0  0  0  0  0  0  0  0  0  0  0
    1.0310    2.0720   -0.7080 O   0  0  0  0  0  0  0  0  0  0  0  0
    2.8840    1.0700    0.3150 C   0  0  2  0  0  0  0  0  0  0  0  0
    4.0970    0.7530   -0.5650 C   0  0  0  0  0  0  0  0  0  0  0  0
    2.7970    0.0610    1.4580 C   0  0  0  0  0  0  0  0  0  0  0  0
    4.0970   -0.0890    1.9350 O   0  0  0  0  0  0  0  0  0  0  0  0
    4.5250    1.1160    2.4300 C   0  0  0  0  0  0  0  0  0  0  0  0
    4.3240    2.2800    1.5230 C   0  0  0  0  0  0  0  0  0  0  0  0
    3.1050    2.3010    0.8760 O   0  0  0  0  0  0  0  0  0  0  0  0
  2  1  1  6
  2  3  1  0
  2 12  1  0
  4  3  1  6
  4  5  1  0
  4 11  1  0
  5  6  1  0
  6  7  2  0
  6 10  1  0
  7  8  1  0
  8  9  1  0
  9 10  2  0
 10 11  1  0
 12 13  1  6
 12 14  1  0
 14 15  1  0
 15 16  2  0
 15 17  1  0
 17 18  1  6
 17 19  1  0
 17 23  1  0
 19 20  1  0
 20 21  1  0
 21 22  1  0
 22 23  1  0
M  CHG  1   3   1
M  END
