
     RDKit          3D

 23 25  0  0  0  0  0  0  0  0999 V2000
    4.8680   -2.0400   -0.7930 C   0  0  0  0  0  0  0  0  0  0  0  0
    5.5040   -1.1170   -0.1170 C   0  0  0  0  0  0  0  0  0  0  0  0
    5.1480    0.2770   -0.0420 C   0  0  0  0  0  0  0  0  0  0  0  0
    5.9240    1.0840    0.6850 C   0  0  0  0  0  0  0  0  0  0  0  0
    3.9780    0.8380   -0.6890 C   0  0  1  0  0  0  0  0  0  0  0  0
    2.6390    0.3670   -0.1810 C   0  0  0  0  0  0  0  0  0  0  0  0
    1.6720    1.3720   -0.5920 N   0  0  0  0  0  0  0  0  0  0  0  0
    0.3680    0.8820   -0.8330 C   0  0  0  0  0  0  0  0  0  0  0  0
   -0.3860    0.3940    0.3590 C   0  0  2  0  0  0  0  0  0  0  0  0
    0.3210   -0.6550    0.9470 O   0  0  0  0  0  0  0  0  0  0  0  0
   -1.7610   -0.0650   -0.1020 C   0  0  1  0  0  0  0  0  0  0  0  0
   -1.7130   -1.1670   -1.1030 C   0  0  0  0  0  0  0  0  0  0  0  0
   -2.6370   -2.3150   -0.7690 C   0  0  0  0  0  0  0  0  0  0  0  0
   -3.9020   -1.9350   -0.4090 O   0  0  0  0  0  0  0  0  0  0  0  0
   -3.9820   -0.8680    0.4440 C   0  0  2  0  0  0  0  0  0  0  0  0
   -5.0380   -1.0910    1.5080 C   0  0  0  0  0  0  0  0  0  0  0  0
   -6.2840   -0.6490    0.7980 C   0  0  0  0  0  0  0  0  0  0  0  0
   -5.9470    0.1740   -0.2370 O   0  0  0  0  0  0  0  0  0  0  0  0
   -4.5890    0.2930   -0.3240 C   0  0  0  0  0  0  0  0  0  0  0  0
   -2.6480   -0.4780    1.0390 C   0  0  0  0  0  0  0  0  0  0  0  0
    1.8010    2.6260    0.0560 C   0  0  0  0  0  0  0  0  0  0  0  0
    3.2830    2.7490    0.4480 C   0  0  0  0  0  0  0  0  0  0  0  0
    3.9910    2.2570   -0.6400 O   0  0  0  0  0  0  0  0  0  0  0  0
  1  2  2  0
  2  3  1  0
  3  4  2  0
  5  3  1  1
  5  6  1  0
  5 23  1  0
  6  7  1  0
  7  8  1  0
  7 21  1  0
  8  9  1  0
  9 10  1  6
  9 11  1  0
 11 12  1  6
 11 20  1  0
 12 13  1  0
 13 14  1  0
 14 15  1  0
 15 16  1  1
 15 19  1  0
 15 20  1  0
 16 17  1  0
 17 18  1  0
 18 19  1  0
 21 22  1  0
 22 23  1  0
M  END
