
     RDKit          3D

 23 26  0  0  0  0  0  0  0  0999 V2000
    5.1540    0.3690   -0.5460 C   0  0  0  0  0  0  0  0  0  0  0  0
    3.7370    0.4500   -0.3870 N   0  0  2  0  0  0  0  0  0  0  0  0
    3.3050    1.7740   -0.7500 C   0  0  0  0  0  0  0  0  0  0  0  0
    3.3310    0.0910    0.9720 C   0  0  1  0  0  0  0  0  0  0  0  0
    1.8860    0.3530    1.2120 C   0  0  0  0  0  0  0  0  0  0  0  0
    1.0040    0.1990    0.0280 C   0  0  2  0  0  0  0  0  0  0  0  0
   -0.2410   -0.4140    0.3330 O   0  0  0  0  0  0  0  0  0  0  0  0
   -1.4610    0.1860    0.2000 C   0  0  0  0  0  0  0  0  0  0  0  0
   -1.5090    1.3630   -0.2180 O   0  0  0  0  0  0  0  0  0  0  0  0
   -2.6720   -0.6000    0.5640 C   0  0  2  0  0  0  0  0  0  0  0  0
   -2.7360   -1.9100   -0.1840 C   0  0  0  0  0  0  0  0  0  0  0  0
   -3.9000   -2.5600    0.2300 O   0  0  0  0  0  0  0  0  0  0  0  0
   -3.8950    0.1780    0.3690 C   0  0  0  0  0  0  0  0  0  0  0  0
   -4.7020    0.4830    1.4430 C   0  0  0  0  0  0  0  0  0  0  0  0
   -5.8540    1.2120    1.2790 C   0  0  0  0  0  0  0  0  0  0  0  0
   -6.2500    1.6690    0.0360 C   0  0  0  0  0  0  0  0  0  0  0  0
   -5.4440    1.3670   -1.0530 C   0  0  0  0  0  0  0  0  0  0  0  0
   -4.3040    0.6440   -0.8800 C   0  0  0  0  0  0  0  0  0  0  0  0
    1.5970   -0.5130   -1.1310 C   0  0  0  0  0  0  0  0  0  0  0  0
    3.0810   -0.5900   -1.1490 C   0  0  2  0  0  0  0  0  0  0  0  0
    3.4860   -1.8570   -0.4060 C   0  0  1  0  0  0  0  0  0  0  0  0
    4.6690   -1.8990    0.2830 O   0  0  0  0  0  0  0  0  0  0  0  0
    3.6270   -1.3920    1.0210 C   0  0  1  0  0  0  0  0  0  0  0  0
  2  1  1  1
  2  3  1  0
  2  4  1  0
  2 20  1  0
  4  5  1  6
  4 23  1  0
  5  6  1  0
  6  7  1  1
  6 19  1  0
  7  8  1  0
  8  9  2  0
  8 10  1  0
 10 11  1  6
 10 13  1  0
 11 12  1  0
 13 14  2  0
 13 18  1  0
 14 15  1  0
 15 16  2  0
 16 17  1  0
 17 18  2  0
 20 19  1  1
 20 21  1  0
 21 22  1  6
 21 23  1  0
 23 22  1  6
M  CHG  1   2   1
M  END
