
     RDKit          3D

 22 24  0  0  0  0  0  0  0  0999 V2000
   -4.3140    2.0440    0.3180 C   0  0  0  0  0  0  0  0  0  0  0  0
   -3.2630    2.8480    0.6450 O   0  0  0  0  0  0  0  0  0  0  0  0
   -2.0890    2.2590    0.9950 C   0  0  0  0  0  0  0  0  0  0  0  0
   -1.4480    1.3770   -0.0510 C   0  0  1  0  0  0  0  0  0  0  0  0
   -1.2860    2.2890   -1.2860 C   0  0  0  0  0  0  0  0  0  0  0  0
   -0.0170    1.0700    0.3680 C   0  0  0  0  0  0  0  0  0  0  0  0
    0.4540   -0.0670   -0.4610 C   0  0  1  0  0  0  0  0  0  0  0  0
    1.8220   -0.4530   -0.2450 N   0  0  0  0  0  0  0  0  0  0  0  0
    2.7870    0.5140   -0.6760 C   0  0  0  0  0  0  0  0  0  0  0  0
    3.8440    0.6210    0.4130 C   0  0  1  0  0  0  0  0  0  0  0  0
    4.5510   -0.6890    0.6290 C   0  0  0  0  0  0  0  0  0  0  0  0
    5.9980   -0.3150    0.3710 C   0  0  0  0  0  0  0  0  0  0  0  0
    5.8100    0.8420   -0.6040 C   0  0  0  0  0  0  0  0  0  0  0  0
    4.7750    1.5460    0.0090 O   0  0  0  0  0  0  0  0  0  0  0  0
   -0.3850   -1.2560    0.0270 C   0  0  0  0  0  0  0  0  0  0  0  0
   -1.8320   -0.9380   -0.1250 C   0  0  2  0  0  0  0  0  0  0  0  0
   -2.5330   -1.4220    1.1510 C   0  0  0  0  0  0  0  0  0  0  0  0
   -3.9640   -1.7790    0.8850 C   0  0  0  0  0  0  0  0  0  0  0  0
   -4.0810   -2.9270    0.1010 O   0  0  0  0  0  0  0  0  0  0  0  0
   -2.9120   -3.1410   -0.6310 C   0  0  0  0  0  0  0  0  0  0  0  0
   -2.3690   -1.8630   -1.2300 C   0  0  0  0  0  0  0  0  0  0  0  0
   -2.1640    0.3200   -0.4520 O   0  0  0  0  0  0  0  0  0  0  0  0
  1  2  1  0
  2  3  1  0
  3  4  1  0
  4  5  1  6
  4  6  1  0
  4 22  1  0
  6  7  1  0
  7  8  1  1
  7 15  1  0
  8  9  1  0
 10  9  1  6
 10 11  1  0
 10 14  1  0
 11 12  1  0
 12 13  1  0
 13 14  1  0
 16 15  1  1
 16 17  1  0
 16 21  1  0
 16 22  1  0
 17 18  1  0
 18 19  1  0
 19 20  1  0
 20 21  1  0
M  CHG  1   8   1
M  END
