
     RDKit          3D

 23 24  0  0  0  0  0  0  0  0999 V2000
   -2.6800    3.6110   -0.8890 C   0  0  0  0  0  0  0  0  0  0  0  0
   -3.2530    2.5440   -0.0330 C   0  0  0  0  0  0  0  0  0  0  0  0
   -2.6070    1.4520    0.3060 C   0  0  0  0  0  0  0  0  0  0  0  0
   -1.1800    1.4380   -0.3040 C   0  0  0  0  0  0  0  0  0  0  0  0
   -0.2080    0.7680    0.5680 C   0  0  1  0  0  0  0  0  0  0  0  0
   -0.6110    0.0290    1.7610 C   0  0  0  0  0  0  0  0  0  0  0  0
   -1.9050    0.3510    2.2130 O   0  0  0  0  0  0  0  0  0  0  0  0
   -2.8620    0.2820    1.1150 C   0  0  0  0  0  0  0  0  0  0  0  0
   -3.6700   -0.7170    1.0670 C   0  0  0  0  0  0  0  0  0  0  0  0
   -4.7060   -0.9160   -0.0530 C   0  0  0  0  0  0  0  0  0  0  0  0
   -4.3300   -2.0210   -0.8130 O   0  0  0  0  0  0  0  0  0  0  0  0
   -3.1690   -1.7400   -1.5100 C   0  0  0  0  0  0  0  0  0  0  0  0
   -1.9150   -2.2970   -0.8930 C   0  0  0  0  0  0  0  0  0  0  0  0
   -0.7380   -1.8280   -1.3850 O   0  0  0  0  0  0  0  0  0  0  0  0
   -0.0070   -0.7190   -1.4620 C   0  0  0  0  0  0  0  0  0  0  0  0
    0.0960   -0.1540   -2.6190 O   0  0  0  0  0  0  0  0  0  0  0  0
    0.7170   -0.0450   -0.3610 C   0  0  1  0  0  0  0  0  0  0  0  0
    1.6730    1.0230   -0.9180 C   0  0  0  0  0  0  0  0  0  0  0  0
    1.4210   -0.9880    0.4830 N   0  0  0  0  0  0  0  0  0  0  0  0
    2.7470   -1.3130    0.0680 C   0  0  0  0  0  0  0  0  0  0  0  0
    3.7940   -0.5000    0.8330 C   0  0  0  0  0  0  0  0  0  0  0  0
    5.1800   -0.8810    0.3580 C   0  0  0  0  0  0  0  0  0  0  0  0
    6.1700   -0.0490    1.1450 C   0  0  0  0  0  0  0  0  0  0  0  0
  1  2  1  0
  2  3  2  3
  3  4  1  0
  3  8  1  0
  4  5  1  0
  5  6  1  1
  5 17  1  0
  6  7  1  0
  7  8  1  0
  8  9  2  0
  9 10  1  0
 10 11  1  0
 11 12  1  0
 12 13  1  0
 13 14  1  0
 14 15  1  0
 15 16  2  0
 15 17  1  0
 17 18  1  6
 17 19  1  0
 19 20  1  0
 20 21  1  0
 21 22  1  0
 22 23  1  0
M  CHG  1  19   1
M  END
