
     RDKit          3D

 16 18  0  0  0  0  0  0  0  0999 V2000
   -1.6160    2.5890   -0.6860 C   0  0  0  0  0  0  0  0  0  0  0  0
   -1.6650    1.2480   -0.1390 N   0  0  0  0  0  0  0  0  0  0  0  0
   -0.6170    0.5370    0.3080 C   0  0  0  0  0  0  0  0  0  0  0  0
    0.7650    0.9630    0.3350 C   0  0  0  0  0  0  0  0  0  0  0  0
    1.7420    0.0930    0.0900 C   0  0  0  0  0  0  0  0  0  0  0  0
    1.6220   -1.3510   -0.2300 C   0  0  0  0  0  0  0  0  0  0  0  0
    2.9930   -1.7840   -0.3930 N   0  0  0  0  0  0  0  0  0  0  0  0
    3.8380   -0.8480   -0.2240 C   0  0  0  0  0  0  0  0  0  0  0  0
    5.2700   -0.9700   -0.3210 N   0  0  0  0  0  0  0  0  0  0  0  0
    3.1380    0.3540    0.0800 N   0  0  0  0  0  0  0  0  0  0  0  0
   -1.0400   -0.6820    0.7510 N   0  0  0  0  0  0  0  0  0  0  0  0
   -2.3720   -0.6980    0.5620 C   0  0  0  0  0  0  0  0  0  0  0  0
   -3.5330   -1.4310    0.6950 C   0  0  0  0  0  0  0  0  0  0  0  0
   -4.5780   -0.7110    0.2450 N   0  0  0  0  0  0  0  0  0  0  0  0
   -4.1460    0.4940   -0.1910 C   0  0  0  0  0  0  0  0  0  0  0  0
   -2.7680    0.5030    0.0070 C   0  0  0  0  0  0  0  0  0  0  0  0
  1  2  1  0
  2  3  1  0
  2 16  1  0
  3  4  1  0
  3 11  2  0
  4  5  2  3
  5  6  1  0
  5 10  1  0
  6  7  1  0
  7  8  2  0
  8  9  1  0
  8 10  1  0
 11 12  1  0
 12 13  2  0
 12 16  1  0
 13 14  1  0
 14 15  1  0
 15 16  2  0
M  CHG  1   7   1
M  END
