
     RDKit          3D

 16 17  0  0  0  0  0  0  0  0999 V2000
   -2.8670   -2.0550   -0.1030 C   0  0  0  0  0  0  0  0  0  0  0  0
   -1.4970   -1.5920   -0.1680 C   0  0  0  0  0  0  0  0  0  0  0  0
   -0.4770   -2.4280   -0.2670 N   0  0  0  0  0  0  0  0  0  0  0  0
    0.8270   -2.0350   -0.3310 O   0  0  0  0  0  0  0  0  0  0  0  0
    1.2350   -0.7300   -0.3000 C   0  0  0  0  0  0  0  0  0  0  0  0
    2.6650   -0.3160   -0.3710 C   0  0  0  0  0  0  0  0  0  0  0  0
    3.4750   -0.8770    0.7610 C   0  0  0  0  0  0  0  0  0  0  0  0
    4.8400   -0.4140    0.5930 N   0  0  0  0  0  0  0  0  0  0  0  0
    0.3060    0.2050   -0.2020 C   0  0  0  0  0  0  0  0  0  0  0  0
    0.6930    1.5520   -0.1690 N   0  0  0  0  0  0  0  0  0  0  0  0
   -0.2080    2.4620   -0.0730 C   0  0  0  0  0  0  0  0  0  0  0  0
    0.2100    3.8230   -0.0410 N   0  0  0  0  0  0  0  0  0  0  0  0
   -1.5860    2.1250   -0.0020 N   0  0  0  0  0  0  0  0  0  0  0  0
   -2.0560    0.7500   -0.0310 C   0  0  0  0  0  0  0  0  0  0  0  0
   -3.4620    0.4120    0.0420 C   0  0  0  0  0  0  0  0  0  0  0  0
   -1.1410   -0.1860   -0.1300 C   0  0  0  0  0  0  0  0  0  0  0  0
  1  2  1  0
  2  3  2  0
  2 16  1  0
  3  4  1  0
  4  5  1  0
  5  6  1  0
  5  9  2  0
  6  7  1  0
  7  8  1  0
  9 10  1  0
  9 16  1  0
 10 11  2  0
 11 12  1  0
 11 13  1  0
 13 14  1  0
 14 15  1  0
 14 16  2  0
M  CHG  1   3   1
M  END
