
     RDKit          3D

 28 30  0  0  0  0  0  0  0  0999 V2000
    5.2950   -2.7990   -1.2820 C   0  0  0  0  0  0  0  0  0  0  0  0
    4.8770   -1.4670   -1.5110 O   0  0  0  0  0  0  0  0  0  0  0  0
    3.6700   -1.0260   -0.9950 C   0  0  0  0  0  0  0  0  0  0  0  0
    3.2510    0.2640   -1.2100 C   0  0  0  0  0  0  0  0  0  0  0  0
    2.0420    0.7060   -0.6930 C   0  0  0  0  0  0  0  0  0  0  0  0
    1.2200   -0.1100    0.0460 C   0  0  0  0  0  0  0  0  0  0  0  0
   -0.0920    0.3790    0.6100 C   0  0  1  0  0  0  0  0  0  0  0  0
   -1.0450   -0.9920    1.2110 S   0  0  0  0  0  0  0  0  0  0  0  0
   -1.6330   -2.1700    0.0330 C   0  0  0  0  0  0  0  0  0  0  0  0
   -2.6930   -1.6950   -0.9140 C   0  0  2  0  0  0  0  0  0  0  0  0
   -3.8890   -1.2490   -0.2660 N   0  0  0  0  0  0  0  0  0  0  0  0
   -3.1000   -2.8640   -1.7800 C   0  0  0  0  0  0  0  0  0  0  0  0
   -2.2530   -3.4870   -2.4630 O   0  0  0  0  0  0  0  0  0  0  0  0
   -4.4150   -3.3010   -1.8610 O   0  0  0  0  0  0  0  0  0  0  0  0
    0.3030    1.1910    1.8400 C   0  0  0  0  0  0  0  0  0  0  0  0
    0.6670    2.5120    1.7330 C   0  0  0  0  0  0  0  0  0  0  0  0
    1.0320    3.2540    2.8540 C   0  0  0  0  0  0  0  0  0  0  0  0
    1.0290    2.6610    4.0940 C   0  0  0  0  0  0  0  0  0  0  0  0
    0.6630    1.3280    4.2200 C   0  0  0  0  0  0  0  0  0  0  0  0
    0.3070    0.6200    3.0870 C   0  0  0  0  0  0  0  0  0  0  0  0
   -0.7740    1.3320   -0.2600 C   0  0  0  0  0  0  0  0  0  0  0  0
   -0.5990    1.2810   -1.6210 C   0  0  0  0  0  0  0  0  0  0  0  0
   -1.2580    2.1910   -2.4480 C   0  0  0  0  0  0  0  0  0  0  0  0
   -2.0920    3.1500   -1.9160 C   0  0  0  0  0  0  0  0  0  0  0  0
   -2.2650    3.2000   -0.5630 C   0  0  0  0  0  0  0  0  0  0  0  0
   -1.6140    2.3020    0.2470 C   0  0  0  0  0  0  0  0  0  0  0  0
    1.6310   -1.4040    0.2660 C   0  0  0  0  0  0  0  0  0  0  0  0
    2.8270   -1.8310   -0.2500 C   0  0  0  0  0  0  0  0  0  0  0  0
  1  2  1  0
  2  3  1  0
  3  4  2  0
  3 28  1  0
  4  5  1  0
  5  6  2  0
  6  7  1  0
  6 27  1  0
  7  8  1  1
  7 15  1  0
  7 21  1  0
  8  9  1  0
  9 10  1  0
 10 11  1  1
 10 12  1  0
 12 13  2  0
 12 14  1  0
 15 16  2  0
 15 20  1  0
 16 17  1  0
 17 18  2  0
 18 19  1  0
 19 20  2  0
 21 22  2  0
 21 26  1  0
 22 23  1  0
 23 24  2  0
 24 25  1  0
 25 26  2  0
 27 28  2  0
M  CHG  1  11   1
M  END
