
     RDKit          3D

 17 18  0  0  0  0  0  0  0  0999 V2000
   -3.4900    2.0920   -0.3510 C   0  0  0  0  0  0  0  0  0  0  0  0
   -2.3300    1.4640   -0.4000 C   0  0  0  0  0  0  0  0  0  0  0  0
   -1.1560    2.1100   -1.0290 C   0  0  0  0  0  0  0  0  0  0  0  0
    0.0410    1.3560   -0.9600 N   0  0  0  0  0  0  0  0  0  0  0  0
    0.2270    0.1890   -0.4500 C   0  0  0  0  0  0  0  0  0  0  0  0
   -0.9180   -0.5080    0.1640 C   0  0  0  0  0  0  0  0  0  0  0  0
   -0.7040   -1.7040    0.6870 C   0  0  0  0  0  0  0  0  0  0  0  0
   -1.7480   -2.4150    1.2860 N   0  0  0  0  0  0  0  0  0  0  0  0
    0.6050   -2.2880    0.6470 N   0  0  0  0  0  0  0  0  0  0  0  0
    1.6380   -1.7520    0.1360 C   0  0  0  0  0  0  0  0  0  0  0  0
    2.9070   -2.4220    0.1460 N   0  0  0  0  0  0  0  0  0  0  0  0
    1.5100   -0.4390   -0.4620 N   0  0  0  0  0  0  0  0  0  0  0  0
    2.6670    0.1800   -1.0200 C   0  0  0  0  0  0  0  0  0  0  0  0
    3.6510    0.6100    0.0860 C   0  0  0  0  0  0  0  0  0  0  0  0
    3.0290    1.5280    0.9360 O   0  0  0  0  0  0  0  0  0  0  0  0
   -2.1700    0.1650    0.1600 N   0  0  0  0  0  0  0  0  0  0  0  0
   -3.3300   -0.5000    0.7210 C   0  0  0  0  0  0  0  0  0  0  0  0
  1  2  2  0
  2  3  1  0
  2 16  1  0
  3  4  1  0
  4  5  2  0
  5  6  1  0
  5 12  1  0
  6  7  2  0
  6 16  1  0
  7  8  1  0
  7  9  1  0
  9 10  2  0
 10 11  1  0
 10 12  1  0
 12 13  1  0
 13 14  1  0
 14 15  1  0
 16 17  1  0
M  CHG  1   4   1
M  END
