
     RDKit          3D

 17 19  0  0  0  0  0  0  0  0999 V2000
    1.6330    2.0650    3.3310 N   0  0  0  0  0  0  0  0  0  0  0  0
    0.9090    0.8590    3.1710 C   0  0  0  0  0  0  0  0  0  0  0  0
    1.3680   -0.1310    2.4440 C   0  0  0  0  0  0  0  0  0  0  0  0
    0.6240   -1.3130    2.3070 N   0  0  0  0  0  0  0  0  0  0  0  0
   -0.0770   -1.6210    1.2410 C   0  0  0  0  0  0  0  0  0  0  0  0
   -0.8510   -2.8420    1.0870 C   0  0  0  0  0  0  0  0  0  0  0  0
   -0.9840   -3.7910    1.9190 O   0  0  0  0  0  0  0  0  0  0  0  0
   -1.4620   -2.8100   -0.1890 N   0  0  0  0  0  0  0  0  0  0  0  0
   -1.0720   -1.5870   -0.8180 C   0  0  0  0  0  0  0  0  0  0  0  0
   -1.3880   -1.0590   -2.0720 C   0  0  0  0  0  0  0  0  0  0  0  0
   -0.9080    0.1570   -2.5060 C   0  0  0  0  0  0  0  0  0  0  0  0
   -1.0660    0.8740   -3.6560 N   0  0  0  0  0  0  0  0  0  0  0  0
   -0.3590    1.9700   -3.4930 N   0  0  0  0  0  0  0  0  0  0  0  0
    0.2360    1.9920   -2.3140 N   0  0  0  0  0  0  0  0  0  0  0  0
   -0.0850    0.8540   -1.6460 C   0  0  0  0  0  0  0  0  0  0  0  0
    0.2430    0.3480   -0.3950 C   0  0  0  0  0  0  0  0  0  0  0  0
   -0.2480   -0.8640    0.0140 C   0  0  0  0  0  0  0  0  0  0  0  0
  1  2  1  0
  2  3  2  3
  3  4  1  0
  4  5  2  3
  5  6  1  0
  5 17  1  0
  6  7  2  0
  6  8  1  0
  8  9  1  0
  9 10  2  0
  9 17  1  0
 10 11  1  0
 11 12  1  0
 11 15  2  0
 12 13  2  0
 13 14  1  0
 14 15  1  0
 15 16  1  0
 16 17  2  0
M  CHG  1  13   1
M  END
