
     RDKit          3D

 17 18  0  0  0  0  0  0  0  0999 V2000
    4.7420   -0.4630    0.1110 N   0  0  0  0  0  0  0  0  0  0  0  0
    3.6790    0.2930    0.0290 C   0  0  0  0  0  0  0  0  0  0  0  0
    3.6610    1.6830    0.1960 N   0  0  0  0  0  0  0  0  0  0  0  0
    2.3610    2.1450    0.0390 C   0  0  0  0  0  0  0  0  0  0  0  0
    1.5090    1.1090   -0.2290 C   0  0  0  0  0  0  0  0  0  0  0  0
    0.1700    1.3040   -0.4260 N   0  0  0  0  0  0  0  0  0  0  0  0
   -0.7860    1.0780   -1.1020 N   0  0  0  0  0  0  0  0  0  0  0  0
   -2.1210    1.4620   -1.0280 C   0  0  0  0  0  0  0  0  0  0  0  0
   -2.9400    0.9290   -0.1570 C   0  0  0  0  0  0  0  0  0  0  0  0
   -4.3200    1.4230   -0.1800 N   0  0  0  0  0  0  0  0  0  0  0  0
   -2.6270   -0.0820    0.7990 N   0  0  0  0  0  0  0  0  0  0  0  0
   -2.0890   -1.3850    0.5010 C   0  0  0  0  0  0  0  0  0  0  0  0
   -0.7460   -1.6450    1.1670 C   0  0  0  0  0  0  0  0  0  0  0  0
    0.0090   -2.4820    0.4010 O   0  0  0  0  0  0  0  0  0  0  0  0
    0.5760   -1.9230   -0.7410 C   0  0  0  0  0  0  0  0  0  0  0  0
    1.8920   -1.3430   -0.4550 C   0  0  0  0  0  0  0  0  0  0  0  0
    2.2780   -0.1200   -0.2520 C   0  0  0  0  0  0  0  0  0  0  0  0
  1  2  2  0
  2  3  1  0
  2 17  1  0
  3  4  1  0
  4  5  2  0
  5  6  1  0
  5 17  1  0
  6  7  2  0
  7  8  1  0
  8  9  2  0
  9 10  1  0
  9 11  1  0
 11 12  1  0
 12 13  1  0
 13 14  1  0
 14 15  1  0
 15 16  1  0
 16 17  2  0
M  END
