
     RDKit          3D

 30 32  0  0  0  0  0  0  0  0999 V2000
    1.2330    3.7930    1.9710 O   0  0  0  0  0  0  0  0  0  0  0  0
    1.6800    2.6790    1.6110 C   0  0  0  0  0  0  0  0  0  0  0  0
    1.5470    1.5200    2.4300 N   0  0  0  0  0  0  0  0  0  0  0  0
    1.7840    0.2400    1.8500 C   0  0  0  0  0  0  0  0  0  0  0  0
    2.0450   -0.7130    2.5960 O   0  0  0  0  0  0  0  0  0  0  0  0
    1.6840    0.2250    0.3680 C   0  0  2  0  0  0  0  0  0  0  0  0
    1.7080   -1.0410   -0.2950 C   0  0  0  0  0  0  0  0  0  0  0  0
    2.8150   -1.2610   -0.9430 O   0  0  0  0  0  0  0  0  0  0  0  0
    0.7770   -2.0900   -0.3890 N   0  0  0  0  0  0  0  0  0  0  0  0
    1.2270   -3.2440   -1.1970 C   0  0  0  0  0  0  0  0  0  0  0  0
    0.6180   -4.5400   -0.8640 C   0  0  0  0  0  0  0  0  0  0  0  0
   -0.6550   -4.4780   -0.3260 O   0  0  0  0  0  0  0  0  0  0  0  0
   -1.2820   -3.2650   -0.7000 C   0  0  0  0  0  0  0  0  0  0  0  0
   -0.5380   -2.2000    0.1390 C   0  0  1  0  0  0  0  0  0  0  0  0
   -0.6200   -2.7590    1.5580 C   0  0  0  0  0  0  0  0  0  0  0  0
   -0.0940   -4.0050    1.7180 O   0  0  0  0  0  0  0  0  0  0  0  0
   -1.3630   -0.9270    0.1150 C   0  0  0  0  0  0  0  0  0  0  0  0
   -1.5310   -0.4000   -1.2140 N   0  0  0  0  0  0  0  0  0  0  0  0
   -2.3080    0.8140   -1.2360 C   0  0  0  0  0  0  0  0  0  0  0  0
   -3.7600    0.5900   -0.8710 C   0  0  0  0  0  0  0  0  0  0  0  0
   -4.5470    1.8750   -0.9030 C   0  0  0  0  0  0  0  0  0  0  0  0
   -3.8560    3.1200    0.2990 P   0  0  0  0  0  0  0  0  0  0  0  0
   -2.8120    4.2310   -0.5080 O   0  0  0  0  0  0  0  0  0  0  0  0
   -2.9390    2.2860    1.5250 O   0  0  0  0  0  0  0  0  0  0  0  0
    2.7240    1.1860   -0.0280 N   0  0  0  0  0  0  0  0  0  0  0  0
    3.9850    1.2330   -0.6110 C   0  0  0  0  0  0  0  0  0  0  0  0
    4.7470    0.3100   -0.9730 O   0  0  0  0  0  0  0  0  0  0  0  0
    4.4190    2.6700   -0.7960 C   0  0  0  0  0  0  0  0  0  0  0  0
    3.6750    3.2960    0.3740 C   0  0  0  0  0  0  0  0  0  0  0  0
    2.3610    2.5770    0.2990 C   0  0  2  0  0  0  0  0  0  0  0  0
  1  2  2  0
  2  3  1  0
  2 30  1  0
  3  4  1  0
  4  5  2  0
  4  6  1  0
  6  7  1  6
  6 25  1  0
  7  8  2  0
  7  9  1  0
  9 10  1  0
  9 14  1  0
 10 11  1  0
 11 12  1  0
 12 13  1  0
 13 14  1  0
 14 15  1  1
 14 17  1  0
 15 16  1  0
 17 18  1  0
 18 19  1  0
 19 20  1  0
 20 21  1  0
 21 22  1  0
 22 23  1  0
 22 24  1  0
 25 26  1  0
 25 30  1  0
 26 27  2  0
 26 28  1  0
 28 29  1  0
 30 29  1  1
M  END
