
     RDKit          3D

 31 33  0  0  0  0  0  0  0  0999 V2000
   -5.7580    3.1720    0.1240 C   0  0  0  0  0  0  0  0  0  0  0  0
   -5.0780    2.2580   -0.8840 C   0  0  1  0  0  0  0  0  0  0  0  0
   -3.6870    1.9160   -0.4080 C   0  0  0  0  0  0  0  0  0  0  0  0
   -2.8430    2.8060   -0.3090 O   0  0  0  0  0  0  0  0  0  0  0  0
   -3.6600    0.5260   -0.1580 N   0  0  0  0  0  0  0  0  0  0  0  0
   -2.8380   -0.5700    0.2790 C   0  0  0  0  0  0  0  0  0  0  0  0
   -1.4470   -0.4820    0.6800 C   0  0  0  0  0  0  0  0  0  0  0  0
   -0.7630   -1.4630    1.0510 O   0  0  0  0  0  0  0  0  0  0  0  0
   -0.6620    0.7260    0.7090 N   0  0  0  0  0  0  0  0  0  0  0  0
    0.7330    0.7150    1.1240 C   0  0  0  0  0  0  0  0  0  0  0  0
    1.6210   -0.1330    0.2840 C   0  0  0  0  0  0  0  0  0  0  0  0
    2.9190   -0.0170    0.8350 O   0  0  0  0  0  0  0  0  0  0  0  0
    4.0640   -0.9470   -0.0350 P   0  0  0  0  0  0  0  0  0  0  0  0
    4.2560   -2.5450    0.5520 O   0  0  0  0  0  0  0  0  0  0  0  0
    5.6900   -0.0740   -0.2200 C   0  0  1  0  0  0  0  0  0  0  0  0
    5.5510    1.2830    0.4590 C   0  0  0  0  0  0  0  0  0  0  0  0
    6.8280    2.0650    0.2470 C   0  0  0  0  0  0  0  0  0  0  0  0
    7.9640    1.0520    0.1420 C   0  0  0  0  0  0  0  0  0  0  0  0
    7.6960   -0.0180    1.0150 O   0  0  0  0  0  0  0  0  0  0  0  0
    6.8160   -0.8840    0.3930 C   0  0  0  0  0  0  0  0  0  0  0  0
   -3.5570   -1.7010    0.2600 C   0  0  0  0  0  0  0  0  0  0  0  0
   -3.1840   -3.0520    0.6060 C   0  0  0  0  0  0  0  0  0  0  0  0
   -1.9480   -3.5170    1.0600 N   0  0  0  0  0  0  0  0  0  0  0  0
   -4.0660   -4.0120    0.5070 O   0  0  0  0  0  0  0  0  0  0  0  0
   -4.9100   -1.3970   -0.2000 N   0  0  0  0  0  0  0  0  0  0  0  0
   -6.0010   -2.2510   -0.3790 C   0  0  0  0  0  0  0  0  0  0  0  0
   -7.1060   -1.7240   -0.8030 O   0  0  0  0  0  0  0  0  0  0  0  0
   -6.0700   -3.5780   -0.1700 O   0  0  0  0  0  0  0  0  0  0  0  0
   -4.9330    0.0140   -0.4520 C   0  0  0  0  0  0  0  0  0  0  0  0
   -5.7710    0.9750   -0.8710 C   0  0  0  0  0  0  0  0  0  0  0  0
   -7.1000    0.8250   -1.2450 O   0  0  0  0  0  0  0  0  0  0  0  0
  2  1  1  1
  2  3  1  0
  2 30  1  0
  3  4  2  0
  3  5  1  0
  5  6  1  0
  5 29  1  0
  6  7  1  0
  6 21  2  0
  7  8  2  0
  7  9  1  0
  9 10  1  0
 10 11  1  0
 11 12  1  0
 12 13  1  0
 13 14  1  0
 15 13  1  1
 15 16  1  0
 15 20  1  0
 16 17  1  0
 17 18  1  0
 18 19  1  0
 19 20  1  0
 21 22  1  0
 21 25  1  0
 22 23  1  0
 22 24  2  0
 25 26  1  0
 25 29  1  0
 26 27  2  0
 26 28  1  0
 29 30  2  0
 30 31  1  0
M  END
