
     RDKit          3D

 31 32  0  0  0  0  0  0  0  0999 V2000
    7.2190    3.5650   -0.0680 C   0  0  0  0  0  0  0  0  0  0  0  0
    5.9230    2.9400    0.1030 C   0  0  0  0  0  0  0  0  0  0  0  0
    5.7190    1.7140   -0.4330 C   0  0  0  0  0  0  0  0  0  0  0  0
    6.7740    1.1000   -1.1340 C   0  0  0  0  0  0  0  0  0  0  0  0
    6.9040   -0.0350   -1.7600 C   0  0  0  0  0  0  0  0  0  0  0  0
    8.1540   -0.3290   -2.3690 O   0  0  0  0  0  0  0  0  0  0  0  0
    9.3740   -1.0610   -1.3580 P   0  0  0  0  0  0  0  0  0  0  0  0
    9.4930   -2.7320   -1.7590 O   0  0  0  0  0  0  0  0  0  0  0  0
    8.9870   -0.8680    0.3080 O   0  0  0  0  0  0  0  0  0  0  0  0
    4.4020    1.2810   -0.1790 C   0  0  0  0  0  0  0  0  0  0  0  0
    3.5650    2.0590    0.4830 O   0  0  0  0  0  0  0  0  0  0  0  0
    3.8630    0.1090   -0.5450 N   0  0  0  0  0  0  0  0  0  0  0  0
    2.5570   -0.2420   -0.2950 C   0  0  0  0  0  0  0  0  0  0  0  0
    2.8020   -1.5300   -0.9130 O   0  0  0  0  0  0  0  0  0  0  0  0
    1.2970   -0.5860   -0.0570 N   0  0  0  0  0  0  0  0  0  0  0  0
    0.2610    0.1550    0.4690 C   0  0  0  0  0  0  0  0  0  0  0  0
    0.6250    1.2860    0.8460 O   0  0  0  0  0  0  0  0  0  0  0  0
   -1.0630   -0.4100    0.5340 C   0  0  0  0  0  0  0  0  0  0  0  0
   -1.3440   -1.5060    0.0460 O   0  0  0  0  0  0  0  0  0  0  0  0
   -1.9570    0.3900    1.1880 O   0  0  0  0  0  0  0  0  0  0  0  0
   -3.2990    0.0270    1.3460 C   0  0  0  0  0  0  0  0  0  0  0  0
   -3.9470    0.0140   -0.0150 C   0  0  0  0  0  0  0  0  0  0  0  0
   -5.3280   -0.3440   -0.0180 N   0  0  0  0  0  0  0  0  0  0  0  0
   -5.7280   -1.7230   -0.2300 C   0  0  0  0  0  0  0  0  0  0  0  0
   -7.1500   -1.8910    0.2270 C   0  0  1  0  0  0  0  0  0  0  0  0
   -7.2690   -1.5900    1.6970 C   0  0  0  0  0  0  0  0  0  0  0  0
   -7.9310   -0.2340    1.7330 C   0  0  0  0  0  0  0  0  0  0  0  0
   -7.7290    0.2760    0.3230 C   0  0  2  0  0  0  0  0  0  0  0  0
   -7.9920   -0.9440   -0.4610 N   0  0  0  0  0  0  0  0  0  0  0  0
   -6.3060    0.6580    0.1680 C   0  0  0  0  0  0  0  0  0  0  0  0
   -5.9910    1.8560    0.2030 O   0  0  0  0  0  0  0  0  0  0  0  0
  1  2  1  0
  2  3  2  3
  3  4  1  0
  3 10  1  0
  4  5  2  3
  5  6  1  0
  6  7  1  0
  7  8  1  0
  7  9  1  0
 10 11  2  0
 10 12  1  0
 12 13  1  0
 13 14  2  0
 13 15  1  0
 15 16  1  0
 16 17  2  0
 16 18  1  0
 18 19  2  0
 18 20  1  0
 20 21  1  0
 21 22  1  0
 22 23  1  0
 23 24  1  0
 23 30  1  0
 25 24  1  6
 25 26  1  0
 25 29  1  0
 26 27  1  0
 28 27  1  1
 28 29  1  0
 28 30  1  0
 30 31  2  0
M  END
