
     RDKit          3D

 31 33  0  0  0  0  0  0  0  0999 V2000
   -4.0630    3.7360   -0.3810 C   0  0  0  0  0  0  0  0  0  0  0  0
   -3.3070    2.4550   -0.4460 C   0  0  0  0  0  0  0  0  0  0  0  0
   -3.8950    1.2640   -0.8070 C   0  0  0  0  0  0  0  0  0  0  0  0
   -3.1780    0.0820   -0.8620 C   0  0  0  0  0  0  0  0  0  0  0  0
   -3.8210   -1.0410   -1.2270 N   0  0  0  0  0  0  0  0  0  0  0  0
   -3.0980   -2.1790   -1.2750 C   0  0  0  0  0  0  0  0  0  0  0  0
   -3.6900   -3.3690   -1.6410 C   0  0  0  0  0  0  0  0  0  0  0  0
   -4.9200   -3.4040   -1.9360 O   0  0  0  0  0  0  0  0  0  0  0  0
   -2.9300   -4.4810   -1.6760 N   0  0  0  0  0  0  0  0  0  0  0  0
   -1.6220   -4.4500   -1.3640 C   0  0  0  0  0  0  0  0  0  0  0  0
   -0.9990   -5.5550   -1.4290 O   0  0  0  0  0  0  0  0  0  0  0  0
   -1.0050   -3.3140   -1.0030 N   0  0  0  0  0  0  0  0  0  0  0  0
   -1.6790   -2.1520   -0.9380 C   0  0  0  0  0  0  0  0  0  0  0  0
   -1.0760   -1.0050   -0.5780 N   0  0  0  0  0  0  0  0  0  0  0  0
    0.3510   -1.0320   -0.2500 C   0  0  0  0  0  0  0  0  0  0  0  0
    0.5770   -1.3260    1.1950 C   0  0  2  0  0  0  0  0  0  0  0  0
    0.0410   -0.4460    2.0970 O   0  0  0  0  0  0  0  0  0  0  0  0
    1.9920   -1.6410    1.5830 C   0  0  2  0  0  0  0  0  0  0  0  0
    1.9200   -2.2720    2.8740 O   0  0  0  0  0  0  0  0  0  0  0  0
    2.8730   -0.4590    1.8320 C   0  0  2  0  0  0  0  0  0  0  0  0
    2.3580    0.4370    2.7750 O   0  0  0  0  0  0  0  0  0  0  0  0
    3.4790    0.1970    0.6440 C   0  0  0  0  0  0  0  0  0  0  0  0
    4.5720    1.0020    1.0760 O   0  0  0  0  0  0  0  0  0  0  0  0
    5.2860    1.7640   -0.2500 P   0  0  2  0  0  0  0  0  0  0  0  0
    5.7340    3.1460    0.2020 O   0  0  0  0  0  0  0  0  0  0  0  0
    4.1490    2.0090   -1.4930 O   0  0  0  0  0  0  0  0  0  0  0  0
    6.6160    0.8720   -0.8310 O   0  0  0  0  0  0  0  0  0  0  0  0
   -1.8230    0.0990   -0.5420 C   0  0  0  0  0  0  0  0  0  0  0  0
   -1.2490    1.2980   -0.1830 C   0  0  0  0  0  0  0  0  0  0  0  0
   -1.9670    2.4860   -0.1270 C   0  0  0  0  0  0  0  0  0  0  0  0
   -1.2810    3.7500    0.2720 C   0  0  0  0  0  0  0  0  0  0  0  0
  1  2  1  0
  2  3  2  0
  2 30  1  0
  3  4  1  0
  4  5  1  0
  4 28  2  0
  5  6  2  0
  6  7  1  0
  6 13  1  0
  7  8  2  0
  7  9  1  0
  9 10  1  0
 10 11  2  0
 10 12  1  0
 12 13  2  0
 13 14  1  0
 14 15  1  0
 14 28  1  0
 15 16  1  0
 16 17  1  1
 16 18  1  0
 18 19  1  1
 18 20  1  0
 20 21  1  6
 20 22  1  0
 22 23  1  0
 23 24  1  0
 24 25  2  0
 24 26  1  6
 24 27  1  0
 28 29  1  0
 29 30  2  0
 30 31  1  0
M  END
