
     RDKit          3D

 31 33  0  0  0  0  0  0  0  0999 V2000
    3.5080    1.7110   -2.6160 C   0  0  0  0  0  0  0  0  0  0  0  0
    4.3390    0.7910   -1.9120 C   0  0  0  0  0  0  0  0  0  0  0  0
    3.8970   -0.0940   -0.9620 C   0  0  0  0  0  0  0  0  0  0  0  0
    2.5040   -0.0680   -0.6820 C   0  0  0  0  0  0  0  0  0  0  0  0
    1.8170    0.7960   -1.3640 O   0  0  0  0  0  0  0  0  0  0  0  0
    1.7360   -0.8160    0.2080 N   0  0  0  0  0  0  0  0  0  0  0  0
    0.3490   -0.7450    0.4440 C   0  0  0  0  0  0  0  0  0  0  0  0
   -0.5730    0.0050   -0.0770 C   0  0  0  0  0  0  0  0  0  0  0  0
   -0.5130    1.0140   -1.0600 O   0  0  0  0  0  0  0  0  0  0  0  0
   -1.8490    1.4240   -1.4240 C   0  0  0  0  0  0  0  0  0  0  0  0
   -2.7100    0.2840   -0.9980 C   0  0  2  0  0  0  0  0  0  0  0  0
   -4.1280    0.4810   -0.8460 C   0  0  0  0  0  0  0  0  0  0  0  0
   -4.7790    1.0130   -1.7830 O   0  0  0  0  0  0  0  0  0  0  0  0
   -4.8480    0.0920    0.3490 N   0  0  0  0  0  0  0  0  0  0  0  0
   -6.2930    0.1670    0.3360 C   0  0  1  0  0  0  0  0  0  0  0  0
   -6.9440   -1.0900    0.6760 C   0  0  0  0  0  0  0  0  0  0  0  0
   -7.7070   -0.9150    1.6890 N   0  0  0  0  0  0  0  0  0  0  0  0
   -7.6970    0.3910    2.1640 N   0  0  0  0  0  0  0  0  0  0  0  0
   -6.8100    1.1270    1.3360 C   0  0  0  0  0  0  0  0  0  0  0  0
   -6.5520    2.3540    1.4740 O   0  0  0  0  0  0  0  0  0  0  0  0
   -4.1300   -0.3440    1.4750 C   0  0  0  0  0  0  0  0  0  0  0  0
   -4.6810   -0.6850    2.5280 O   0  0  0  0  0  0  0  0  0  0  0  0
   -2.6510   -0.3930    1.3850 C   0  0  0  0  0  0  0  0  0  0  0  0
   -2.0160   -0.0600    0.3030 C   0  0  0  0  0  0  0  0  0  0  0  0
    4.9440   -0.9010   -0.4150 C   0  0  0  0  0  0  0  0  0  0  0  0
    5.0660   -1.8120    0.4360 C   0  0  0  0  0  0  0  0  0  0  0  0
    4.2090   -2.4590    1.2470 O   0  0  0  0  0  0  0  0  0  0  0  0
    6.2800   -0.5810   -1.0160 O   0  0  0  0  0  0  0  0  0  0  0  0
    7.5110   -0.1800    0.1660 P   0  0  0  0  0  0  0  0  0  0  0  0
    8.4330   -1.6060    0.5120 O   0  0  0  0  0  0  0  0  0  0  0  0
    6.7890    0.4870    1.5960 O   0  0  0  0  0  0  0  0  0  0  0  0
  1  2  1  0
  2  3  2  3
  3  4  1  0
  3 25  1  0
  4  5  2  0
  4  6  1  0
  6  7  1  0
  7  8  2  3
  8  9  1  0
  8 24  1  0
  9 10  1  0
 11 10  1  1
 11 12  1  0
 11 24  1  0
 12 13  2  0
 12 14  1  0
 15 14  1  1
 14 21  1  0
 15 16  1  0
 15 19  1  0
 16 17  2  0
 17 18  1  0
 18 19  1  0
 19 20  2  0
 21 22  2  0
 21 23  1  0
 23 24  2  0
 25 26  2  3
 25 28  1  0
 26 27  1  0
 28 29  1  0
 29 30  1  0
 29 31  1  0
M  END
