
     RDKit          3D

 30 32  0  0  0  0  0  0  0  0999 V2000
   -4.9360    4.2510   -0.9000 O   0  0  0  0  0  0  0  0  0  0  0  0
   -4.7350    3.0750   -1.2900 C   0  0  0  0  0  0  0  0  0  0  0  0
   -5.6220    2.5580   -2.2240 O   0  0  0  0  0  0  0  0  0  0  0  0
   -3.6570    2.2690   -0.8240 N   0  0  0  0  0  0  0  0  0  0  0  0
   -2.5390    2.8600   -0.5800 C   0  0  0  0  0  0  0  0  0  0  0  0
   -2.3480    4.2090   -0.7480 O   0  0  0  0  0  0  0  0  0  0  0  0
   -1.1150    4.8320   -0.5540 C   0  0  0  0  0  0  0  0  0  0  0  0
    0.0200    3.8580   -0.7840 C   0  0  0  0  0  0  0  0  0  0  0  0
   -0.2270    2.7560    0.1470 N   0  0  0  0  0  0  0  0  0  0  0  0
   -1.4080    1.9980   -0.0880 C   0  0  0  0  0  0  0  0  0  0  0  0
   -1.5780    0.7410    0.0900 C   0  0  0  0  0  0  0  0  0  0  0  0
   -0.6550   -0.2460    0.5380 C   0  0  0  0  0  0  0  0  0  0  0  0
   -1.1040   -1.4900    0.6420 N   0  0  0  0  0  0  0  0  0  0  0  0
   -2.3860   -1.8280    0.3400 O   0  0  0  0  0  0  0  0  0  0  0  0
   -2.7080   -3.0960   -0.2470 C   0  0  0  0  0  0  0  0  0  0  0  0
   -4.2040   -3.1770   -0.4650 C   0  0  1  0  0  0  0  0  0  0  0  0
   -4.7080   -4.4270   -1.0670 C   0  0  0  0  0  0  0  0  0  0  0  0
   -5.0400   -4.0770    0.3760 C   0  0  0  0  0  0  0  0  0  0  0  0
    0.7550   -0.0590    0.8900 C   0  0  1  0  0  0  0  0  0  0  0  0
    1.3870   -1.4240    1.2870 C   0  0  0  0  0  0  0  0  0  0  0  0
    2.5090   -1.1440    2.0170 O   0  0  0  0  0  0  0  0  0  0  0  0
    3.6980   -1.2150    1.3440 C   0  0  0  0  0  0  0  0  0  0  0  0
    4.0590    0.0170    0.5850 C   0  0  1  0  0  0  0  0  0  0  0  0
    5.2070   -0.3380   -0.3680 C   0  0  0  0  0  0  0  0  0  0  0  0
    6.6890   -0.9430    0.5300 P   0  0  0  0  0  0  0  0  0  0  0  0
    7.4920    0.2780    1.4190 O   0  0  0  0  0  0  0  0  0  0  0  0
    6.4440   -2.4050    1.3850 O   0  0  0  0  0  0  0  0  0  0  0  0
    2.9730    0.5980   -0.2060 C   0  0  0  0  0  0  0  0  0  0  0  0
    3.3560    1.4540   -1.0670 O   0  0  0  0  0  0  0  0  0  0  0  0
    1.5720    0.3990   -0.2050 N   0  0  0  0  0  0  0  0  0  0  0  0
  1  2  2  0
  2  3  1  0
  2  4  1  0
  4  5  2  3
  5  6  1  0
  5 10  1  0
  6  7  1  0
  7  8  1  0
  8  9  1  0
  9 10  1  0
 10 11  2  3
 11 12  1  0
 12 13  2  3
 19 12  1  6
 13 14  1  0
 14 15  1  0
 16 15  1  1
 16 17  1  0
 16 18  1  0
 17 18  1  0
 19 20  1  0
 19 30  1  0
 20 21  1  0
 21 22  1  0
 22 23  1  0
 23 24  1  6
 23 28  1  0
 24 25  1  0
 25 26  1  0
 25 27  1  0
 28 29  2  0
 28 30  1  0
M  END
