
     RDKit          3D

 31 33  0  0  0  0  0  0  0  0999 V2000
    8.5390    1.9180   -0.6430 N   0  0  0  0  0  0  0  0  0  0  0  0
    8.0850    0.5930   -0.4400 C   0  0  0  0  0  0  0  0  0  0  0  0
    8.9010   -0.3680   -0.3520 O   0  0  0  0  0  0  0  0  0  0  0  0
    6.7080    0.2690   -0.3260 N   0  0  0  0  0  0  0  0  0  0  0  0
    6.2220   -1.0830   -0.1180 C   0  0  1  0  0  0  0  0  0  0  0  0
    5.1850   -1.0920    1.0090 C   0  0  0  0  0  0  0  0  0  0  0  0
    4.2090   -0.6740    0.0240 N   0  0  0  0  0  0  0  0  0  0  0  0
    3.0110    0.0950    0.0010 C   0  0  0  0  0  0  0  0  0  0  0  0
    2.3540    0.2930   -1.0460 O   0  0  0  0  0  0  0  0  0  0  0  0
    2.5710    0.6360    1.1920 O   0  0  0  0  0  0  0  0  0  0  0  0
    1.3970    1.4170    1.2990 C   0  0  0  0  0  0  0  0  0  0  0  0
    0.3100    0.6200    0.8800 O   0  0  0  0  0  0  0  0  0  0  0  0
    0.0030   -0.5550    1.5260 C   0  0  0  0  0  0  0  0  0  0  0  0
    0.7390   -0.8820    2.5050 O   0  0  0  0  0  0  0  0  0  0  0  0
   -1.1350   -1.3750    1.0780 C   0  0  2  0  0  0  0  0  0  0  0  0
   -0.9210   -1.8420   -0.3310 C   0  0  0  0  0  0  0  0  0  0  0  0
   -1.4580   -0.6830   -1.1040 C   0  0  0  0  0  0  0  0  0  0  0  0
   -2.7220   -0.3680   -0.3650 N   0  0  0  0  0  0  0  0  0  0  0  0
   -3.9180   -0.0450   -1.0060 C   0  0  0  0  0  0  0  0  0  0  0  0
   -3.8950   -0.1660   -2.2920 O   0  0  0  0  0  0  0  0  0  0  0  0
   -5.1530    0.3990   -0.4130 C   0  0  0  0  0  0  0  0  0  0  0  0
   -6.2200    0.5960   -1.2170 C   0  0  0  0  0  0  0  0  0  0  0  0
   -7.5100    1.0440   -0.7100 C   0  0  1  0  0  0  0  0  0  0  0  0
   -7.8580    2.2070   -1.4210 O   0  0  0  0  0  0  0  0  0  0  0  0
   -8.8340   -0.2230   -1.0650 P   0  0  0  0  0  0  0  0  0  0  0  0
  -10.0210   -0.3440   -0.1040 O   0  0  0  0  0  0  0  0  0  0  0  0
   -7.5210    1.3440    0.6490 O   0  0  0  0  0  0  0  0  0  0  0  0
   -6.4440    1.1510    1.4740 C   0  0  0  0  0  0  0  0  0  0  0  0
   -5.3090    0.7040    0.9970 C   0  0  0  0  0  0  0  0  0  0  0  0
   -2.4060   -0.5280    1.0220 C   0  0  0  0  0  0  0  0  0  0  0  0
    5.0110   -1.4060   -0.9680 C   0  0  0  0  0  0  0  0  0  0  0  0
  1  2  1  0
  2  3  2  0
  2  4  1  0
  5  4  1  6
  5  6  1  0
  5 31  1  0
  6  7  1  0
  7  8  1  0
  7 31  1  0
  8  9  2  0
  8 10  1  0
 10 11  1  0
 11 12  1  0
 12 13  1  0
 13 14  2  0
 15 13  1  6
 15 16  1  0
 15 30  1  0
 16 17  1  0
 17 18  1  0
 18 19  1  0
 18 30  1  0
 19 20  2  0
 19 21  1  0
 21 22  2  0
 21 29  1  0
 22 23  1  0
 23 24  1  6
 23 25  1  0
 23 27  1  0
 25 26  2  0
 27 28  1  0
 28 29  2  0
M  END
