
     RDKit          3D

 31 33  0  0  0  0  0  0  0  0999 V2000
   -1.2350   -2.4360   -0.7030 O   0  0  0  0  0  0  0  0  0  0  0  0
   -1.9090   -1.4820   -0.2530 C   0  0  0  0  0  0  0  0  0  0  0  0
   -3.1270   -1.7490    0.4270 N   0  0  0  0  0  0  0  0  0  0  0  0
   -3.6410   -3.0770    0.6330 C   0  0  0  0  0  0  0  0  0  0  0  0
   -4.9480   -3.0030    1.3880 C   0  0  0  0  0  0  0  0  0  0  0  0
   -5.4980   -4.2400    1.6210 O   0  0  0  0  0  0  0  0  0  0  0  0
   -1.4450   -0.1030   -0.4280 C   0  0  0  0  0  0  0  0  0  0  0  0
   -0.2830    0.0860   -1.0820 C   0  0  0  0  0  0  0  0  0  0  0  0
    0.3890   -1.0010   -1.5400 N   0  0  0  0  0  0  0  0  0  0  0  0
    1.4410   -1.6470   -1.4000 C   0  0  0  0  0  0  0  0  0  0  0  0
    1.6460   -2.7730   -2.1880 N   0  0  0  0  0  0  0  0  0  0  0  0
    2.7350   -3.5210   -2.1440 C   0  0  0  0  0  0  0  0  0  0  0  0
    3.7020   -3.1700   -1.2820 N   0  0  0  0  0  0  0  0  0  0  0  0
    3.5740   -2.0960   -0.4880 C   0  0  0  0  0  0  0  0  0  0  0  0
    2.4280   -1.2870   -0.5180 C   0  0  0  0  0  0  0  0  0  0  0  0
    2.3240   -0.1890    0.4280 C   0  0  0  0  0  0  0  0  0  0  0  0
    1.3030   -0.0530    1.1550 O   0  0  0  0  0  0  0  0  0  0  0  0
    3.3730    0.7890    0.5800 C   0  0  0  0  0  0  0  0  0  0  0  0
    3.2760    1.7530    1.4680 C   0  0  0  0  0  0  0  0  0  0  0  0
    4.3150    2.7940    1.6800 C   0  0  0  0  0  0  0  0  0  0  0  0
    5.3820    2.6700    0.7850 O   0  0  0  0  0  0  0  0  0  0  0  0
    5.5200    1.6860   -0.1520 C   0  0  0  0  0  0  0  0  0  0  0  0
    4.5450    0.7610   -0.2620 C   0  0  0  0  0  0  0  0  0  0  0  0
    0.1310    1.4170   -1.2340 O   0  0  0  0  0  0  0  0  0  0  0  0
   -0.3930    2.4180   -0.4050 C   0  0  0  0  0  0  0  0  0  0  0  0
   -1.8880    2.3030   -0.1940 C   0  0  1  0  0  0  0  0  0  0  0  0
   -2.6280    2.7800   -1.2450 O   0  0  0  0  0  0  0  0  0  0  0  0
   -3.6770    4.0830   -0.7940 P   0  0  0  0  0  0  0  0  0  0  0  0
   -4.4470    4.6780   -2.2410 O   0  0  0  0  0  0  0  0  0  0  0  0
   -4.9180    3.5520    0.3040 O   0  0  0  0  0  0  0  0  0  0  0  0
   -2.1890    0.9560    0.0680 O   0  0  0  0  0  0  0  0  0  0  0  0
  1  2  2  0
  2  3  1  0
  2  7  1  0
  3  4  1  0
  4  5  1  0
  5  6  1  0
  7  8  2  0
  7 31  1  0
  8  9  1  0
  8 24  1  0
  9 10  2  3
 10 11  1  0
 10 15  1  0
 11 12  2  0
 12 13  1  0
 13 14  1  0
 14 15  2  0
 15 16  1  0
 16 17  2  0
 16 18  1  0
 18 19  2  0
 18 23  1  0
 19 20  1  0
 20 21  1  0
 21 22  1  0
 22 23  2  0
 24 25  1  0
 25 26  1  0
 26 27  1  6
 26 31  1  0
 27 28  1  0
 28 29  1  0
 28 30  1  0
M  END
