
     RDKit          3D

 23 26  0  0  0  0  0  0  0  0999 V2000
   -1.0000   -2.8630   -2.5730 Br  0  0  0  0  0  0  0  0  0  0  0  0
   -1.8970   -1.5020   -1.5660 C   0  0  0  0  0  0  0  0  0  0  0  0
   -1.6880   -1.3170   -0.2780 C   0  0  0  0  0  0  0  0  0  0  0  0
   -2.3740   -0.2660    0.5290 C   0  0  1  0  0  0  0  0  0  0  0  0
   -1.4520    0.6400    1.2610 C   0  0  1  0  0  0  0  0  0  0  0  0
   -0.0710    0.1860    1.3380 C   0  0  0  0  0  0  0  0  0  0  0  0
    0.7260   -0.0510    0.2880 N   0  0  0  0  0  0  0  0  0  0  0  0
    1.9210   -0.4530    0.7560 C   0  0  0  0  0  0  0  0  0  0  0  0
    3.0460   -0.8020   -0.1010 C   0  0  0  0  0  0  0  0  0  0  0  0
    2.9600   -0.7430   -1.4730 C   0  0  0  0  0  0  0  0  0  0  0  0
    4.0340   -1.0760   -2.2780 C   0  0  0  0  0  0  0  0  0  0  0  0
    5.1980   -1.4720   -1.6320 C   0  0  0  0  0  0  0  0  0  0  0  0
    6.7170   -1.9450   -2.6930 Br  0  0  0  0  0  0  0  0  0  0  0  0
    5.3230   -1.5440   -0.2740 C   0  0  0  0  0  0  0  0  0  0  0  0
    4.2170   -1.1990    0.5020 C   0  0  0  0  0  0  0  0  0  0  0  0
    1.8600   -0.4630    2.0910 N   0  0  0  0  0  0  0  0  0  0  0  0
    0.6380   -0.0710    2.4340 N   0  0  0  0  0  0  0  0  0  0  0  0
   -1.5180    2.0180    0.5870 C   0  0  0  0  0  0  0  0  0  0  0  0
   -2.8930    2.5780    0.9980 C   0  0  0  0  0  0  0  0  0  0  0  0
   -3.9250    1.6690    0.2940 C   0  0  0  0  0  0  0  0  0  0  0  0
   -3.2370    0.5440   -0.3070 N   0  0  0  0  0  0  0  0  0  0  0  0
   -3.4250    0.2920   -1.6870 C   0  0  0  0  0  0  0  0  0  0  0  0
   -2.7960   -0.6670   -2.2820 N   0  0  0  0  0  0  0  0  0  0  0  0
  1  2  1  0
  2  3  2  0
  2 23  1  0
  4  3  1  6
  4  5  1  0
  4 21  1  0
  5  6  1  6
  5 18  1  0
  6  7  2  0
  6 17  1  0
  7  8  1  0
  8  9  1  0
  8 16  2  0
  9 10  2  0
  9 15  1  0
 10 11  1  0
 11 12  2  0
 12 13  1  0
 12 14  1  0
 14 15  2  0
 16 17  1  0
 18 19  1  0
 19 20  1  0
 20 21  1  0
 21 22  1  0
 22 23  2  0
M  END
