
     RDKit          3D

 23 25  0  0  0  0  0  0  0  0999 V2000
    0.1350    1.3660   -0.7820 C   0  0  0  0  0  0  0  0  0  0  0  0
   -0.6250    0.7480    0.3330 C   0  0  1  0  0  0  0  0  0  0  0  0
   -0.5650    1.7390    1.3870 O   0  0  0  0  0  0  0  0  0  0  0  0
   -2.0630    0.5450    0.0700 C   0  0  0  0  0  0  0  0  0  0  0  0
   -2.5840    0.3740   -1.1790 C   0  0  0  0  0  0  0  0  0  0  0  0
   -3.9500    0.1970   -1.4220 C   0  0  0  0  0  0  0  0  0  0  0  0
   -4.8080    0.1920   -0.3670 C   0  0  0  0  0  0  0  0  0  0  0  0
   -4.3170    0.3600    0.9060 C   0  0  0  0  0  0  0  0  0  0  0  0
   -2.9720    0.5350    1.1320 C   0  0  0  0  0  0  0  0  0  0  0  0
   -0.0360   -0.4670    0.9650 C   0  0  2  0  0  0  0  0  0  0  0  0
    1.2930   -0.3240    1.6030 C   0  0  0  0  0  0  0  0  0  0  0  0
    2.4190    0.1230    0.8150 C   0  0  0  0  0  0  0  0  0  0  0  0
    3.1960   -0.7240    0.0810 C   0  0  0  0  0  0  0  0  0  0  0  0
    4.3000   -0.2690   -0.6510 C   0  0  0  0  0  0  0  0  0  0  0  0
    4.6240    1.0650   -0.6410 C   0  0  0  0  0  0  0  0  0  0  0  0
    6.0170    1.6780   -1.5470 Cl  0  0  0  0  0  0  0  0  0  0  0  0
    3.8480    1.9400    0.0980 C   0  0  0  0  0  0  0  0  0  0  0  0
    2.7740    1.4550    0.8020 C   0  0  0  0  0  0  0  0  0  0  0  0
   -0.2460   -1.6970    0.2380 N   0  0  0  0  0  0  0  0  0  0  0  0
    0.4130   -2.8410    0.4160 C   0  0  0  0  0  0  0  0  0  0  0  0
   -0.0970   -3.7390   -0.4420 N   0  0  0  0  0  0  0  0  0  0  0  0
   -1.0670   -3.1260   -1.1360 C   0  0  0  0  0  0  0  0  0  0  0  0
   -1.1260   -1.8780   -0.6890 N   0  0  0  0  0  0  0  0  0  0  0  0
  2  1  1  6
  2  3  1  0
  2  4  1  0
  2 10  1  0
  4  5  2  0
  4  9  1  0
  5  6  1  0
  6  7  2  0
  7  8  1  0
  8  9  2  0
 10 11  1  6
 10 19  1  0
 11 12  1  0
 12 13  2  0
 12 18  1  0
 13 14  1  0
 14 15  2  0
 15 16  1  0
 15 17  1  0
 17 18  2  0
 19 20  1  0
 19 23  1  0
 20 21  2  0
 21 22  1  0
 22 23  2  0
M  END
