
     RDKit          3D

 23 25  0  0  0  0  0  0  0  0999 V2000
    4.0230    1.5230   -0.5390 C   0  0  0  0  0  0  0  0  0  0  0  0
    5.1820    0.6170   -0.5630 C   0  0  0  0  0  0  0  0  0  0  0  0
    6.7440    1.2370   -1.1390 Cl  0  0  0  0  0  0  0  0  0  0  0  0
    5.0780   -0.6210   -0.1730 C   0  0  0  0  0  0  0  0  0  0  0  0
    6.2920   -1.4840   -0.2200 C   0  0  0  0  0  0  0  0  0  0  0  0
    3.8130   -1.1810    0.2700 C   0  0  0  0  0  0  0  0  0  0  0  0
    3.6330   -1.9660    1.4170 C   0  0  0  0  0  0  0  0  0  0  0  0
    2.3090   -2.3310    1.4840 C   0  0  0  0  0  0  0  0  0  0  0  0
    1.6500   -1.8030    0.4190 N   0  0  0  0  0  0  0  0  0  0  0  0
    0.2540   -1.9260    0.0800 C   0  0  0  0  0  0  0  0  0  0  0  0
   -0.6010   -0.8460    0.6480 C   0  0  0  0  0  0  0  0  0  0  0  0
   -0.1600    0.4220    0.1520 N   0  0  0  0  0  0  0  0  0  0  0  0
   -1.0390    1.4780    0.6210 C   0  0  1  0  0  0  0  0  0  0  0  0
   -0.7130    2.8010    0.0160 C   0  0  0  0  0  0  0  0  0  0  0  0
   -2.4590    1.0870    0.2780 C   0  0  0  0  0  0  0  0  0  0  0  0
   -2.8700    0.5360   -0.8810 N   0  0  0  0  0  0  0  0  0  0  0  0
   -4.1930    0.3250   -0.8250 C   0  0  0  0  0  0  0  0  0  0  0  0
   -4.6010    0.7640    0.4140 C   0  0  0  0  0  0  0  0  0  0  0  0
   -3.5040    1.2100    1.0260 O   0  0  0  0  0  0  0  0  0  0  0  0
   -6.0700    0.5590    0.5450 C   0  0  0  0  0  0  0  0  0  0  0  0
   -6.5150    0.5350   -0.9000 C   0  0  0  0  0  0  0  0  0  0  0  0
   -5.3810   -0.2030   -1.5720 C   0  0  0  0  0  0  0  0  0  0  0  0
    2.5560   -1.1240   -0.2910 C   0  0  0  0  0  0  0  0  0  0  0  0
  1  2  1  0
  2  3  1  0
  2  4  2  3
  4  5  1  0
  4  6  1  0
  6  7  1  0
  6 23  2  0
  7  8  2  0
  8  9  1  0
  9 10  1  0
  9 23  1  0
 10 11  1  0
 11 12  1  0
 12 13  1  0
 13 14  1  6
 13 15  1  0
 15 16  2  0
 15 19  1  0
 16 17  1  0
 17 18  2  0
 17 22  1  0
 18 19  1  0
 18 20  1  0
 20 21  1  0
 21 22  1  0
M  END
