
     RDKit          3D

 23 24  0  0  0  0  0  0  0  0999 V2000
   -1.5150    3.5090   -1.5920 C   0  0  0  0  0  0  0  0  0  0  0  0
   -2.4360    3.2310   -0.5200 C   0  0  0  0  0  0  0  0  0  0  0  0
   -2.6620    2.2330    0.2330 C   0  0  0  0  0  0  0  0  0  0  0  0
   -2.1970    0.8920    0.4770 C   0  0  0  0  0  0  0  0  0  0  0  0
   -2.8850    0.2630    1.4520 C   0  0  0  0  0  0  0  0  0  0  0  0
   -2.6170   -1.0810    1.8930 C   0  0  0  0  0  0  0  0  0  0  0  0
   -1.6990   -1.8430    1.0470 C   0  0  0  0  0  0  0  0  0  0  0  0
   -0.9350   -1.1710   -0.0060 C   0  0  0  0  0  0  0  0  0  0  0  0
   -1.1840    0.1610   -0.2690 C   0  0  0  0  0  0  0  0  0  0  0  0
   -0.4050    0.7840   -1.2170 N   0  0  0  0  0  0  0  0  0  0  0  0
    0.7310    1.2930   -1.3530 C   0  0  0  0  0  0  0  0  0  0  0  0
    1.8100    1.4610   -0.4550 N   0  0  0  0  0  0  0  0  0  0  0  0
    3.1620    1.4620   -1.0250 C   0  0  0  0  0  0  0  0  0  0  0  0
    1.6730    1.7040    0.9590 C   0  0  0  0  0  0  0  0  0  0  0  0
    1.3910    0.5850    1.8710 C   0  0  0  0  0  0  0  0  0  0  0  0
    2.1330   -0.6220    1.7390 N   0  0  0  0  0  0  0  0  0  0  0  0
    2.8680   -1.1690    0.6600 C   0  0  0  0  0  0  0  0  0  0  0  0
    4.7060   -1.1520    0.8750 Cl  0  0  0  0  0  0  0  0  0  0  0  0
    2.4690   -1.8070   -0.4100 C   0  0  0  0  0  0  0  0  0  0  0  0
    1.2100   -2.2230   -0.9320 C   0  0  0  0  0  0  0  0  0  0  0  0
   -0.0580   -2.0190   -0.8080 C   0  0  0  0  0  0  0  0  0  0  0  0
   -0.8530   -2.9180   -1.7340 O   0  0  0  0  0  0  0  0  0  0  0  0
   -0.8210   -4.3070   -1.4070 C   0  0  0  0  0  0  0  0  0  0  0  0
  1  2  1  0
  2  3  2  3
  3  4  1  0
  4  5  2  0
  4  9  1  0
  5  6  1  0
  6  7  1  0
  7  8  1  0
  8  9  2  0
  8 21  1  0
  9 10  1  0
 10 11  2  0
 11 12  1  0
 12 13  1  0
 12 14  1  0
 14 15  1  0
 15 16  1  0
 16 17  1  0
 17 18  1  0
 17 19  2  0
 19 20  1  0
 20 21  2  0
 21 22  1  0
 22 23  1  0
M  END
