
     RDKit          3D

 23 25  0  0  0  0  0  0  0  0999 V2000
   -6.2200   -0.0170   -0.1190 C   0  0  0  0  0  0  0  0  0  0  0  0
   -5.2990   -0.1760    0.8070 C   0  0  0  0  0  0  0  0  0  0  0  0
   -4.0560    0.6420    0.8380 C   0  0  0  0  0  0  0  0  0  0  0  0
   -2.8870   -0.1730    0.7330 N   0  0  0  0  0  0  0  0  0  0  0  0
   -1.7200    0.6850    0.7700 C   0  0  0  0  0  0  0  0  0  0  0  0
   -0.6820    0.0490   -0.0960 C   0  0  1  0  0  0  0  0  0  0  0  0
    0.5370   -0.2430    0.6440 N   0  0  0  0  0  0  0  0  0  0  0  0
    0.4380   -1.1400    1.7800 C   0  0  0  0  0  0  0  0  0  0  0  0
    1.7680    0.3460    0.2440 C   0  0  0  0  0  0  0  0  0  0  0  0
    2.8720   -0.3950   -0.1370 C   0  0  0  0  0  0  0  0  0  0  0  0
    4.0580    0.1920   -0.5220 C   0  0  0  0  0  0  0  0  0  0  0  0
    5.1640   -0.5380   -0.9040 C   0  0  0  0  0  0  0  0  0  0  0  0
    5.0510   -2.2750   -0.8980 Cl  0  0  0  0  0  0  0  0  0  0  0  0
    6.3480    0.0670   -1.2880 C   0  0  0  0  0  0  0  0  0  0  0  0
    6.4600    1.4400   -1.3010 C   0  0  0  0  0  0  0  0  0  0  0  0
    5.3610    2.1770   -0.9210 C   0  0  0  0  0  0  0  0  0  0  0  0
    4.1850    1.5660   -0.5400 C   0  0  0  0  0  0  0  0  0  0  0  0
    3.0960    2.2800   -0.1630 N   0  0  0  0  0  0  0  0  0  0  0  0
    1.9330    1.7230    0.2150 C   0  0  0  0  0  0  0  0  0  0  0  0
    0.9940    2.5010    0.5420 O   0  0  0  0  0  0  0  0  0  0  0  0
   -1.3340   -1.1890   -0.6170 C   0  0  0  0  0  0  0  0  0  0  0  0
   -2.8050   -0.9250   -0.4970 C   0  0  1  0  0  0  0  0  0  0  0  0
   -3.5420   -2.2470   -0.2500 C   0  0  0  0  0  0  0  0  0  0  0  0
  1  2  2  0
  2  3  1  0
  3  4  1  0
  4  5  1  0
  4 22  1  0
  5  6  1  0
  6  7  1  1
  6 21  1  0
  7  8  1  0
  7  9  1  0
  9 10  2  0
  9 19  1  0
 10 11  1  0
 11 12  2  0
 11 17  1  0
 12 13  1  0
 12 14  1  0
 14 15  2  0
 15 16  1  0
 16 17  2  0
 17 18  1  0
 18 19  1  0
 19 20  2  0
 21 22  1  0
 22 23  1  1
M  END
