
     RDKit          3D

 22 24  0  0  0  0  0  0  0  0999 V2000
   -3.0070    1.6410    2.9640 C   0  0  0  0  0  0  0  0  0  0  0  0
   -3.4530    0.8020    2.0100 C   0  0  0  0  0  0  0  0  0  0  0  0
   -3.1850    1.0550    0.5700 C   0  0  0  0  0  0  0  0  0  0  0  0
   -2.4060   -0.1120   -0.0090 N   0  0  0  0  0  0  0  0  0  0  0  0
   -1.0300   -0.0070    0.1220 C   0  0  0  0  0  0  0  0  0  0  0  0
   -0.6920    1.0980    0.7870 O   0  0  0  0  0  0  0  0  0  0  0  0
    0.0930   -0.7740   -0.2720 C   0  0  0  0  0  0  0  0  0  0  0  0
    0.0450   -1.9470   -0.9140 C   0  0  0  0  0  0  0  0  0  0  0  0
    1.3600   -2.6150   -1.2420 C   0  0  0  0  0  0  0  0  0  0  0  0
    2.1880   -2.6720    0.0320 C   0  0  0  0  0  0  0  0  0  0  0  0
    2.4860   -1.2530    0.5230 C   0  0  0  0  0  0  0  0  0  0  0  0
    1.4880   -0.2670   -0.0250 C   0  0  0  0  0  0  0  0  0  0  0  0
    1.7890    0.9510   -0.4170 C   0  0  0  0  0  0  0  0  0  0  0  0
    1.0330    1.9880   -1.1000 C   0  0  0  0  0  0  0  0  0  0  0  0
    1.7780    3.0830   -1.1680 C   0  0  0  0  0  0  0  0  0  0  0  0
    3.0300    2.8470   -0.5550 N   0  0  0  0  0  0  0  0  0  0  0  0
    3.0650    1.6100   -0.1060 C   0  0  0  0  0  0  0  0  0  0  0  0
    4.1880    1.1020    0.6020 N   0  0  0  0  0  0  0  0  0  0  0  0
    5.5380    1.2890    0.1410 C   0  0  0  0  0  0  0  0  0  0  0  0
   -3.2180   -1.1460   -0.5460 C   0  0  2  0  0  0  0  0  0  0  0  0
   -4.2980   -0.6690   -1.5780 C   0  0  0  0  0  0  0  0  0  0  0  0
   -4.6660   -1.2250   -0.2830 C   0  0  0  0  0  0  0  0  0  0  0  0
  1  2  2  0
  2  3  1  0
  3  4  1  0
  4  5  1  0
 20  4  1  1
  5  6  2  0
  5  7  1  0
  7  8  2  0
  7 12  1  0
  8  9  1  0
  9 10  1  0
 10 11  1  0
 11 12  1  0
 12 13  2  3
 13 14  1  0
 13 17  1  0
 14 15  2  0
 15 16  1  0
 16 17  2  0
 17 18  1  0
 18 19  1  0
 20 21  1  0
 20 22  1  0
 21 22  1  0
M  END
