
     RDKit          3D

 22 22  0  0  0  0  0  0  0  0999 V2000
    6.5870    0.6630   -1.1790 C   0  0  0  0  0  0  0  0  0  0  0  0
    5.1740    1.1560   -1.4400 C   0  0  0  0  0  0  0  0  0  0  0  0
    4.3410    0.4480   -0.5120 O   0  0  0  0  0  0  0  0  0  0  0  0
    2.9860    0.6320   -0.4490 C   0  0  0  0  0  0  0  0  0  0  0  0
    2.4090    1.4270   -1.2000 O   0  0  0  0  0  0  0  0  0  0  0  0
    2.2090   -0.1580    0.5580 C   0  0  2  0  0  0  0  0  0  0  0  0
    0.8370    0.1460    0.4940 O   0  0  0  0  0  0  0  0  0  0  0  0
   -0.1420   -0.7410    0.1280 C   0  0  0  0  0  0  0  0  0  0  0  0
    0.1670   -1.9170   -0.1790 O   0  0  0  0  0  0  0  0  0  0  0  0
   -1.5390   -0.3300    0.0920 C   0  0  0  0  0  0  0  0  0  0  0  0
   -2.4370   -1.2310   -0.2690 C   0  0  0  0  0  0  0  0  0  0  0  0
   -3.8860   -1.1480   -0.4060 C   0  0  0  0  0  0  0  0  0  0  0  0
   -4.5230   -2.1580   -0.9630 C   0  0  0  0  0  0  0  0  0  0  0  0
   -5.9950   -2.1180   -1.1230 C   0  0  0  0  0  0  0  0  0  0  0  0
   -6.4600   -2.2370   -2.8420 Cl  0  0  0  0  0  0  0  0  0  0  0  0
   -4.6720   -0.0690    0.0120 O   0  0  0  0  0  0  0  0  0  0  0  0
   -4.2660    1.2700    0.3310 C   0  0  0  0  0  0  0  0  0  0  0  0
   -2.9650    1.5590   -0.4170 C   0  0  0  0  0  0  0  0  0  0  0  0
   -1.8380    1.0770    0.4670 C   0  0  0  0  0  0  0  0  0  0  0  0
    2.7090    0.0660    1.9110 C   0  0  0  0  0  0  0  0  0  0  0  0
    4.0900   -0.1850    2.1900 N   0  0  0  0  0  0  0  0  0  0  0  0
    1.9350    0.4730    2.8100 O   0  0  0  0  0  0  0  0  0  0  0  0
  1  2  1  0
  2  3  1  0
  3  4  1  0
  4  5  2  0
  4  6  1  0
  6  7  1  1
  6 20  1  0
  7  8  1  0
  8  9  2  0
  8 10  1  0
 10 11  2  0
 10 19  1  0
 11 12  1  0
 12 13  2  3
 12 16  1  0
 13 14  1  0
 14 15  1  0
 16 17  1  0
 17 18  1  0
 18 19  1  0
 20 21  1  0
 20 22  2  0
M  END
