
     RDKit          3D

 22 22  0  0  0  0  0  0  0  0999 V2000
    3.8730   -0.4780    2.7760 N   0  0  0  0  0  0  0  0  0  0  0  0
    2.4990   -0.6050    2.2700 C   0  0  2  0  0  0  0  0  0  0  0  0
    2.2100   -1.9130    1.9690 O   0  0  0  0  0  0  0  0  0  0  0  0
    2.2400    0.2930    1.1380 C   0  0  0  0  0  0  0  0  0  0  0  0
    2.8180    0.2680   -0.0280 C   0  0  0  0  0  0  0  0  0  0  0  0
    3.8400   -0.6320   -0.4960 C   0  0  0  0  0  0  0  0  0  0  0  0
    4.5040   -1.9090    0.4790 Cl  0  0  0  0  0  0  0  0  0  0  0  0
    4.3110   -0.4870   -1.7550 C   0  0  0  0  0  0  0  0  0  0  0  0
    5.3360   -1.3760   -2.2500 C   0  0  0  0  0  0  0  0  0  0  0  0
    5.8020   -1.2880   -3.3930 O   0  0  0  0  0  0  0  0  0  0  0  0
    1.2710    1.2890    1.3260 O   0  0  0  0  0  0  0  0  0  0  0  0
    0.2790    1.3220    2.2440 C   0  0  0  0  0  0  0  0  0  0  0  0
   -0.7810    0.2990    2.1910 C   0  0  0  0  0  0  0  0  0  0  0  0
   -1.5680    0.2630    1.0740 O   0  0  0  0  0  0  0  0  0  0  0  0
   -1.3690    0.0280   -0.2160 C   0  0  0  0  0  0  0  0  0  0  0  0
   -0.2390   -0.2440   -0.6550 O   0  0  0  0  0  0  0  0  0  0  0  0
   -2.5370    0.0950   -1.1550 C   0  0  2  0  0  0  0  0  0  0  0  0
   -3.1200    1.5040   -1.0830 C   0  0  0  0  0  0  0  0  0  0  0  0
   -4.3970    1.6070   -1.8480 C   0  0  0  0  0  0  0  0  0  0  0  0
   -5.2880    0.5750   -1.5830 O   0  0  0  0  0  0  0  0  0  0  0  0
   -4.7510   -0.6800   -1.7580 C   0  0  0  0  0  0  0  0  0  0  0  0
   -3.6460   -0.8400   -0.7180 C   0  0  0  0  0  0  0  0  0  0  0  0
  2  1  1  6
  2  3  1  0
  2  4  1  0
  4  5  2  3
  4 11  1  0
  5  6  1  0
  6  7  1  0
  6  8  2  3
  8  9  1  0
  9 10  2  0
 11 12  1  0
 12 13  1  0
 13 14  1  0
 14 15  1  0
 15 16  2  0
 17 15  1  1
 17 18  1  0
 17 22  1  0
 18 19  1  0
 19 20  1  0
 20 21  1  0
 21 22  1  0
M  END
