
     RDKit          3D

 18 18  0  0  0  0  0  0  0  0999 V2000
   -2.8640    2.3570    1.7680 C   0  0  0  0  0  0  0  0  0  0  0  0
   -2.6040    2.1050    0.2970 C   0  0  0  0  0  0  0  0  0  0  0  0
   -2.7400    0.6720    0.0040 C   0  0  0  0  0  0  0  0  0  0  0  0
   -4.0140    0.1370   -0.0800 C   0  0  0  0  0  0  0  0  0  0  0  0
   -5.2340    0.9590    0.1190 C   0  0  0  0  0  0  0  0  0  0  0  0
   -4.1550   -1.1890   -0.3540 C   0  0  0  0  0  0  0  0  0  0  0  0
   -3.0380   -2.0010   -0.5470 C   0  0  0  0  0  0  0  0  0  0  0  0
   -3.1510   -3.4370   -0.8440 C   0  0  0  0  0  0  0  0  0  0  0  0
   -1.7810   -1.4450   -0.4580 C   0  0  0  0  0  0  0  0  0  0  0  0
   -1.6070   -0.0890   -0.1790 C   0  0  0  0  0  0  0  0  0  0  0  0
   -0.3520    0.4720   -0.0890 O   0  0  0  0  0  0  0  0  0  0  0  0
    0.7880   -0.3790   -0.2920 C   0  0  0  0  0  0  0  0  0  0  0  0
    1.9880    0.4940   -0.1380 C   0  0  0  0  0  0  0  0  0  0  0  0
    3.2920   -0.2490   -0.3170 C   0  0  0  0  0  0  0  0  0  0  0  0
    4.3890    0.7840   -0.1270 C   0  0  2  0  0  0  0  0  0  0  0  0
    4.1850    1.7630   -1.1130 O   0  0  0  0  0  0  0  0  0  0  0  0
    5.7610    0.1910   -0.3300 C   0  0  0  0  0  0  0  0  0  0  0  0
    6.0440   -0.8930    0.6000 C   0  0  0  0  0  0  0  0  0  0  0  0
  1  2  1  0
  2  3  1  0
  3  4  2  0
  3 10  1  0
  4  5  1  0
  4  6  1  0
  6  7  2  0
  7  8  1  0
  7  9  1  0
  9 10  2  0
 10 11  1  0
 11 12  1  0
 12 13  1  0
 13 14  1  0
 14 15  1  0
 15 16  1  6
 15 17  1  0
 17 18  1  0
M  END
