
     RDKit          3D

 25 28  0  0  0  0  0  0  0  0999 V2000
    2.6650    1.6940    1.7260 C   0  0  0  0  0  0  0  0  0  0  0  0
    2.5080    0.5600    1.0860 C   0  0  0  0  0  0  0  0  0  0  0  0
    1.1650    0.0480    0.7700 C   0  0  0  0  0  0  0  0  0  0  0  0
    1.0490   -1.2450    0.3120 C   0  0  0  0  0  0  0  0  0  0  0  0
   -0.1890   -1.8050   -0.0240 C   0  0  0  0  0  0  0  0  0  0  0  0
   -1.3200   -1.0320    0.1100 C   0  0  0  0  0  0  0  0  0  0  0  0
   -1.2220    0.2450    0.5620 C   0  0  0  0  0  0  0  0  0  0  0  0
    0.0290    0.8080    0.9000 C   0  0  0  0  0  0  0  0  0  0  0  0
   -2.3910    1.1010    0.7970 C   0  0  0  0  0  0  0  0  0  0  0  0
   -3.6590    0.7210    0.1400 C   0  0  2  0  0  0  0  0  0  0  0  0
   -3.8140    1.5520   -1.1400 C   0  0  0  0  0  0  0  0  0  0  0  0
   -4.7910    1.1830    1.0530 C   0  0  0  0  0  0  0  0  0  0  0  0
   -3.7600   -0.6920   -0.1970 C   0  0  0  0  0  0  0  0  0  0  0  0
   -4.9810   -1.2840   -0.5220 C   0  0  0  0  0  0  0  0  0  0  0  0
   -6.1340   -0.4920   -0.4540 N   0  0  0  0  0  0  0  0  0  0  0  0
   -4.9840   -2.5740   -0.8820 N   0  0  0  0  0  0  0  0  0  0  0  0
   -3.8900   -3.3450   -0.9530 C   0  0  0  0  0  0  0  0  0  0  0  0
   -2.7160   -2.8000   -0.6460 N   0  0  0  0  0  0  0  0  0  0  0  0
   -2.6580   -1.4930   -0.2740 C   0  0  0  0  0  0  0  0  0  0  0  0
    3.7110   -0.2140    0.6640 C   0  0  1  0  0  0  0  0  0  0  0  0
    3.7560   -0.4250   -0.8350 C   0  0  0  0  0  0  0  0  0  0  0  0
    4.9800    0.2390   -1.4390 C   0  0  0  0  0  0  0  0  0  0  0  0
    6.2120   -0.2510   -0.8670 N   0  0  0  0  0  0  0  0  0  0  0  0
    6.2010   -0.2520    0.5870 C   0  0  0  0  0  0  0  0  0  0  0  0
    4.9700    0.5200    1.0890 C   0  0  0  0  0  0  0  0  0  0  0  0
  1  2  2  0
  2  3  1  0
 20  2  1  6
  3  4  2  0
  3  8  1  0
  4  5  1  0
  5  6  2  0
  6  7  1  0
  6 19  1  0
  7  8  2  0
  7  9  1  0
  9 10  1  0
 10 11  1  6
 10 12  1  0
 10 13  1  0
 13 14  2  0
 13 19  1  0
 14 15  1  0
 14 16  1  0
 16 17  2  0
 17 18  1  0
 18 19  2  0
 20 21  1  0
 20 25  1  0
 21 22  1  0
 22 23  1  0
 23 24  1  0
 24 25  1  0
M  END
