
     RDKit          3D

 22 22  0  0  0  0  0  0  0  0999 V2000
    4.5820    2.0320   -0.9990 C   0  0  0  0  0  0  0  0  0  0  0  0
    3.7550    1.5660    0.1860 C   0  0  2  0  0  0  0  0  0  0  0  0
    4.4690    1.7760    1.4990 C   0  0  0  0  0  0  0  0  0  0  0  0
    3.3900    0.1390    0.0720 C   0  0  0  0  0  0  0  0  0  0  0  0
    3.7720   -0.6590    0.9620 O   0  0  0  0  0  0  0  0  0  0  0  0
    2.6420   -0.3700   -0.9730 O   0  0  0  0  0  0  0  0  0  0  0  0
    2.2570   -1.7100   -1.1420 C   0  0  0  0  0  0  0  0  0  0  0  0
    1.3900   -2.1250    0.0020 C   0  0  2  0  0  0  0  0  0  0  0  0
    0.9980   -3.4680   -0.0960 O   0  0  0  0  0  0  0  0  0  0  0  0
    0.1840   -1.2410    0.0340 C   0  0  0  0  0  0  0  0  0  0  0  0
    0.4260    0.1090    0.1590 O   0  0  0  0  0  0  0  0  0  0  0  0
   -1.0050   -1.8000   -0.0560 C   0  0  0  0  0  0  0  0  0  0  0  0
   -2.2600   -1.0640   -0.0370 C   0  0  0  0  0  0  0  0  0  0  0  0
   -3.3740   -1.7530   -0.1340 C   0  0  0  0  0  0  0  0  0  0  0  0
   -4.6500   -1.0510   -0.1180 C   0  0  0  0  0  0  0  0  0  0  0  0
   -6.1380   -1.9570   -0.2480 Cl  0  0  0  0  0  0  0  0  0  0  0  0
   -4.7020    0.2600   -0.0050 C   0  0  0  0  0  0  0  0  0  0  0  0
   -5.9950    0.9490    0.0090 C   0  0  0  0  0  0  0  0  0  0  0  0
   -6.0410    2.3530    0.1290 N   0  0  0  0  0  0  0  0  0  0  0  0
   -7.0420    0.2890   -0.0860 O   0  0  0  0  0  0  0  0  0  0  0  0
   -3.5190    0.9470    0.0970 O   0  0  0  0  0  0  0  0  0  0  0  0
   -2.2560    0.3930    0.0780 C   0  0  0  0  0  0  0  0  0  0  0  0
  2  1  1  6
  2  3  1  0
  2  4  1  0
  4  5  2  0
  4  6  1  0
  6  7  1  0
  7  8  1  0
  8  9  1  6
  8 10  1  0
 10 11  1  0
 10 12  2  3
 12 13  1  0
 13 14  2  0
 13 22  1  0
 14 15  1  0
 15 16  1  0
 15 17  2  0
 17 18  1  0
 17 21  1  0
 18 19  1  0
 18 20  2  0
 21 22  1  0
M  END
