
     RDKit          3D

 22 22  0  0  0  0  0  0  0  0999 V2000
    7.0980   -0.4210    0.8480 C   0  0  0  0  0  0  0  0  0  0  0  0
    6.2270    0.3170    0.0230 O   0  0  0  0  0  0  0  0  0  0  0  0
    4.8470    0.2170    0.0900 C   0  0  0  0  0  0  0  0  0  0  0  0
    4.3660   -0.5780    0.9370 O   0  0  0  0  0  0  0  0  0  0  0  0
    3.9370    0.9930   -0.7780 C   0  0  0  0  0  0  0  0  0  0  0  0
    2.5820    0.7160   -0.5210 O   0  0  0  0  0  0  0  0  0  0  0  0
    2.0860   -0.5670   -0.6720 C   0  0  0  0  0  0  0  0  0  0  0  0
    2.8730   -1.4680   -1.0410 O   0  0  0  0  0  0  0  0  0  0  0  0
    0.6530   -0.8840   -0.4050 C   0  0  0  0  0  0  0  0  0  0  0  0
   -0.1450    0.0890   -0.0190 C   0  0  0  0  0  0  0  0  0  0  0  0
   -1.5830   -0.2980    0.2360 C   0  0  0  0  0  0  0  0  0  0  0  0
   -2.4820    0.6310    0.1100 C   0  0  0  0  0  0  0  0  0  0  0  0
   -3.8910    0.7680    0.2290 C   0  0  0  0  0  0  0  0  0  0  0  0
   -4.4330    2.0070    0.0160 C   0  0  0  0  0  0  0  0  0  0  0  0
   -3.7290    3.2220   -0.3230 C   0  0  0  0  0  0  0  0  0  0  0  0
   -4.3180    3.8040   -1.9240 Cl  0  0  0  0  0  0  0  0  0  0  0  0
   -4.9280   -0.2100    0.5070 C   0  0  0  0  0  0  0  0  0  0  0  0
   -4.8240   -1.5840    0.7200 N   0  0  0  0  0  0  0  0  0  0  0  0
   -6.1470    0.2870    0.5620 O   0  0  0  0  0  0  0  0  0  0  0  0
   -1.6700   -1.7010    0.6150 C   0  0  0  0  0  0  0  0  0  0  0  0
   -1.1260   -2.4970   -0.4190 O   0  0  0  0  0  0  0  0  0  0  0  0
    0.2000   -2.2540   -0.5990 C   0  0  0  0  0  0  0  0  0  0  0  0
  1  2  1  0
  2  3  1  0
  3  4  2  0
  3  5  1  0
  5  6  1  0
  6  7  1  0
  7  8  2  0
  7  9  1  0
  9 10  2  0
  9 22  1  0
 10 11  1  0
 11 12  2  3
 11 20  1  0
 12 13  1  0
 13 14  2  3
 13 17  1  0
 14 15  1  0
 15 16  1  0
 17 18  1  0
 17 19  2  0
 20 21  1  0
 21 22  1  0
M  END
