
     RDKit          3D

 18 18  0  0  0  0  0  0  0  0999 V2000
   -7.1810    0.4400   -0.6060 C   0  0  0  0  0  0  0  0  0  0  0  0
   -5.8240   -0.1120   -0.1640 C   0  0  0  0  0  0  0  0  0  0  0  0
   -5.0270    1.0410    0.3430 C   0  0  0  0  0  0  0  0  0  0  0  0
   -3.6810    0.6020    0.8070 C   0  0  0  0  0  0  0  0  0  0  0  0
   -2.8890   -0.0340   -0.2910 C   0  0  0  0  0  0  0  0  0  0  0  0
   -1.5410   -0.4680    0.1610 C   0  0  0  0  0  0  0  0  0  0  0  0
   -1.4780   -1.3990    1.1880 O   0  0  0  0  0  0  0  0  0  0  0  0
   -0.4550    0.0210   -0.4010 C   0  0  0  0  0  0  0  0  0  0  0  0
    0.8690   -0.3900    0.0250 C   0  0  0  0  0  0  0  0  0  0  0  0
    1.9720    0.0810   -0.5170 C   0  0  0  0  0  0  0  0  0  0  0  0
    3.3180   -0.3030   -0.1200 C   0  0  0  0  0  0  0  0  0  0  0  0
    3.6130   -1.2060    0.8700 C   0  0  0  0  0  0  0  0  0  0  0  0
    4.9390   -1.5250    1.1950 C   0  0  0  0  0  0  0  0  0  0  0  0
    5.9760   -0.9280    0.5150 C   0  0  0  0  0  0  0  0  0  0  0  0
    5.7070   -0.0210   -0.4810 C   0  0  0  0  0  0  0  0  0  0  0  0
    6.8190    0.6500   -1.2440 C   0  0  0  0  0  0  0  0  0  0  0  0
    7.1690    1.8280   -0.5860 O   0  0  0  0  0  0  0  0  0  0  0  0
    4.3900    0.2670   -0.7720 C   0  0  0  0  0  0  0  0  0  0  0  0
  1  2  1  0
  2  3  1  0
  3  4  1  0
  4  5  1  0
  5  6  1  0
  6  7  1  0
  6  8  2  3
  8  9  1  0
  9 10  2  3
 10 11  1  0
 11 12  2  0
 11 18  1  0
 12 13  1  0
 13 14  2  0
 14 15  1  0
 15 16  1  0
 15 18  2  0
 16 17  1  0
M  END
