
     RDKit          3D

 15 15  0  0  0  0  0  0  0  0999 V2000
    5.1180    0.0970    0.1570 C   0  0  0  0  0  0  0  0  0  0  0  0
    3.9530   -0.6400    0.6500 N   0  0  0  0  0  0  0  0  0  0  0  0
    2.8770   -0.0860    0.0110 O   0  0  0  0  0  0  0  0  0  0  0  0
    1.5760   -0.4070    0.4040 C   0  0  0  0  0  0  0  0  0  0  0  0
    1.3970   -1.2140    1.3540 O   0  0  0  0  0  0  0  0  0  0  0  0
    0.4450    0.1540   -0.2460 N   0  0  0  0  0  0  0  0  0  0  0  0
   -0.8600   -0.1920    0.1690 C   0  0  1  0  0  0  0  0  0  0  0  0
   -1.5400    0.8840    0.7610 O   0  0  0  0  0  0  0  0  0  0  0  0
   -1.4380    1.9800   -0.0880 C   0  0  0  0  0  0  0  0  0  0  0  0
   -2.3440    3.4330    0.5360 S   0  0  0  0  0  0  0  0  0  0  0  0
   -4.0470    3.0930    0.5190 O   0  0  0  0  0  0  0  0  0  0  0  0
   -1.7290   -0.5160   -1.0020 N   0  0  0  0  0  0  0  0  0  0  0  0
   -2.8390   -1.0630   -0.1880 C   0  0  0  0  0  0  0  0  0  0  0  0
   -2.0130   -2.0880    0.5910 C   0  0  0  0  0  0  0  0  0  0  0  0
   -0.8970   -1.3200    0.9540 O   0  0  0  0  0  0  0  0  0  0  0  0
  1  2  1  0
  2  3  1  0
  3  4  1  0
  4  5  2  0
  4  6  1  0
  7  6  1  6
  7  8  1  0
  7 12  1  0
  7 15  1  0
  8  9  1  0
  9 10  1  0
 10 11  1  0
 12 13  1  0
 13 14  1  0
 14 15  1  0
M  END
