
     RDKit          3D

 16 16  0  0  0  0  0  0  0  0999 V2000
   -2.7990    2.2230    0.3410 N   0  0  0  0  0  0  0  0  0  0  0  0
   -2.0760    1.1640    0.2320 C   0  0  0  0  0  0  0  0  0  0  0  0
   -2.5010    0.0210    0.8850 O   0  0  0  0  0  0  0  0  0  0  0  0
   -3.8330   -0.1070    1.1150 O   0  0  0  0  0  0  0  0  0  0  0  0
   -4.2050   -1.1380    0.3530 O   0  0  0  0  0  0  0  0  0  0  0  0
   -0.8470    1.1260   -0.5420 C   0  0  0  0  0  0  0  0  0  0  0  0
   -0.3790    2.4960   -1.2990 S   0  0  0  0  0  0  0  0  0  0  0  0
   -0.1100   -0.0450   -0.6220 O   0  0  0  0  0  0  0  0  0  0  0  0
    1.1730   -0.1310   -0.1160 C   0  0  0  0  0  0  0  0  0  0  0  0
    1.7510    0.9620    0.4870 C   0  0  0  0  0  0  0  0  0  0  0  0
    3.0230    0.7990    0.9640 N   0  0  0  0  0  0  0  0  0  0  0  0
    3.6660   -0.3860    0.8400 C   0  0  0  0  0  0  0  0  0  0  0  0
    4.8370   -0.4510    1.3070 O   0  0  0  0  0  0  0  0  0  0  0  0
    3.0970   -1.4110    0.2630 O   0  0  0  0  0  0  0  0  0  0  0  0
    1.8580   -1.3200   -0.2240 C   0  0  0  0  0  0  0  0  0  0  0  0
    1.2080   -2.4120   -0.8570 N   0  0  0  0  0  0  0  0  0  0  0  0
  1  2  2  0
  2  3  1  0
  2  6  1  0
  3  4  1  0
  4  5  1  0
  6  7  2  0
  6  8  1  0
  8  9  1  0
  9 10  1  0
  9 15  2  0
 10 11  2  0
 11 12  1  0
 12 13  2  0
 12 14  1  0
 14 15  1  0
 15 16  1  0
M  END
