
     RDKit          3D

 20 21  0  0  0  0  0  0  0  0999 V2000
   -5.2170    2.6390   -0.2340 O   0  0  0  0  0  0  0  0  0  0  0  0
   -4.2510    1.8120   -0.0960 C   0  0  0  0  0  0  0  0  0  0  0  0
   -2.9790    2.2970    0.1400 C   0  0  0  0  0  0  0  0  0  0  0  0
   -1.9350    1.3790    0.2760 C   0  0  0  0  0  0  0  0  0  0  0  0
   -2.1510    0.0710    0.1920 N   0  0  0  0  0  0  0  0  0  0  0  0
   -1.0910   -0.8190    0.4830 C   0  0  1  0  0  0  0  0  0  0  0  0
   -0.7950   -1.9920   -0.3270 C   0  0  0  0  0  0  0  0  0  0  0  0
    0.3980   -1.5100   -1.1940 C   0  0  2  0  0  0  0  0  0  0  0  0
    1.2840   -2.5180   -1.4690 O   0  0  0  0  0  0  0  0  0  0  0  0
    0.9570   -0.4900   -0.2440 C   0  0  1  0  0  0  0  0  0  0  0  0
    1.9230    0.4880   -0.9010 C   0  0  0  0  0  0  0  0  0  0  0  0
    2.4750    1.0620    0.2970 O   0  0  0  0  0  0  0  0  0  0  0  0
    4.1220    1.0460    0.1520 P   0  0  2  0  0  0  0  0  0  0  0  0
    4.6890    0.8500    1.6040 O   0  0  0  0  0  0  0  0  0  0  0  0
    4.9550    2.2170   -0.5850 O   0  0  0  0  0  0  0  0  0  0  0  0
    4.4770   -0.4750   -0.6660 O   0  0  0  0  0  0  0  0  0  0  0  0
    0.0770   -0.0480    0.6340 O   0  0  0  0  0  0  0  0  0  0  0  0
   -3.4180   -0.4110   -0.0370 C   0  0  0  0  0  0  0  0  0  0  0  0
   -3.6750   -1.5880   -0.1630 O   0  0  0  0  0  0  0  0  0  0  0  0
   -4.4570    0.5140   -0.1810 N   0  0  0  0  0  0  0  0  0  0  0  0
  1  2  2  0
  2  3  1  0
  2 20  1  0
  3  4  2  0
  4  5  1  0
  6  5  1  6
  5 18  1  0
  6  7  1  0
  6 17  1  0
  7  8  1  0
  8  9  1  1
  8 10  1  0
 10 11  1  6
 10 17  1  0
 11 12  1  0
 12 13  1  0
 13 14  2  0
 13 15  1  6
 13 16  1  0
 18 19  2  0
 18 20  1  0
M  END
