
     RDKit          3D

 16 15  0  0  0  0  0  0  0  0999 V2000
    4.9010    1.8790    0.9450 C   0  0  0  0  0  0  0  0  0  0  0  0
    4.2920    0.8740   -0.1330 S   0  0  0  0  0  0  0  0  0  0  0  0
    4.8110   -0.7090    0.0980 O   0  0  0  0  0  0  0  0  0  0  0  0
    4.0800   -1.2450    1.0520 O   0  0  0  0  0  0  0  0  0  0  0  0
    2.5710    1.0040   -0.1580 O   0  0  0  0  0  0  0  0  0  0  0  0
    1.8010   -0.0460   -0.5620 C   0  0  0  0  0  0  0  0  0  0  0  0
    2.3330   -1.1260   -0.9220 O   0  0  0  0  0  0  0  0  0  0  0  0
    0.3480    0.0380   -0.5930 C   0  0  0  0  0  0  0  0  0  0  0  0
   -0.2400    1.1050   -0.2400 O   0  0  0  0  0  0  0  0  0  0  0  0
   -0.4670   -1.0060   -0.9960 O   0  0  0  0  0  0  0  0  0  0  0  0
   -1.8570   -0.9030   -1.0180 C   0  0  0  0  0  0  0  0  0  0  0  0
   -2.6830   -1.9930   -1.4380 N   0  0  0  0  0  0  0  0  0  0  0  0
   -2.3540    0.2250   -0.6390 N   0  0  0  0  0  0  0  0  0  0  0  0
   -3.7140    0.5380   -0.5850 C   0  0  0  0  0  0  0  0  0  0  0  0
   -4.3460    0.7410    0.5330 N   0  0  0  0  0  0  0  0  0  0  0  0
   -3.5910    0.6330    1.7570 C   0  0  0  0  0  0  0  0  0  0  0  0
  1  2  2  0
  2  3  1  1
  2  5  1  0
  3  4  1  0
  5  6  1  0
  6  7  2  0
  6  8  1  0
  8  9  2  0
  8 10  1  0
 10 11  1  0
 11 12  1  0
 11 13  2  3
 13 14  1  0
 14 15  2  3
 15 16  1  0
M  END
