
     RDKit          3D

 15 16  0  0  0  0  0  0  0  0999 V2000
   -1.8340   -1.2780   -1.6880 C   0  0  0  0  0  0  0  0  0  0  0  0
   -1.4400   -0.1610   -0.8860 N   0  0  0  0  0  0  0  0  0  0  0  0
   -0.5930   -0.4830    0.2200 C   0  0  2  0  0  0  0  0  0  0  0  0
    0.5950   -1.0960   -0.1760 O   0  0  0  0  0  0  0  0  0  0  0  0
    1.4390   -0.0460   -1.2130 S   0  0  0  0  0  0  0  0  0  0  0  0
    2.0000   -1.0680   -2.1870 O   0  0  0  0  0  0  0  0  0  0  0  0
    1.8090    0.9060   -0.1180 O   0  0  0  0  0  0  0  0  0  0  0  0
    2.9210    0.5050   -0.6100 C   0  0  0  0  0  0  0  0  0  0  0  0
    4.2490    0.6350   -0.4920 C   0  0  0  0  0  0  0  0  0  0  0  0
    5.0950   -0.0660   -1.3240 O   0  0  0  0  0  0  0  0  0  0  0  0
   -1.2950   -1.4020    1.2260 C   0  0  0  0  0  0  0  0  0  0  0  0
   -2.0230   -0.4710    1.9470 O   0  0  0  0  0  0  0  0  0  0  0  0
   -1.2960    0.6350    2.0820 N   0  0  0  0  0  0  0  0  0  0  0  0
   -2.1480    1.8080    2.1260 C   0  0  0  0  0  0  0  0  0  0  0  0
   -0.3930    0.7000    1.0220 N   0  0  0  0  0  0  0  0  0  0  0  0
  1  2  1  0
  3  2  1  6
  3  4  1  0
  3 11  1  0
  3 15  1  0
  4  5  1  0
  5  6  2  0
  5  7  1  0
  5  8  1  0
  7  8  1  0
  8  9  2  3
  9 10  1  0
 11 12  1  0
 12 13  1  0
 13 14  1  0
 13 15  1  0
M  END
