
     RDKit          3D

 16 16  0  0  0  0  0  0  0  0999 V2000
    3.8040    1.7920    0.9590 C   0  0  0  0  0  0  0  0  0  0  0  0
    3.2940    0.9040    0.1140 C   0  0  0  0  0  0  0  0  0  0  0  0
    1.8360    0.8540   -0.1600 C   0  0  0  0  0  0  0  0  0  0  0  0
    1.2910   -0.4340    0.1990 N   0  0  0  0  0  0  0  0  0  0  0  0
   -0.1070   -0.7400    0.0300 C   0  0  0  0  0  0  0  0  0  0  0  0
   -0.4550   -0.6200   -1.3050 O   0  0  0  0  0  0  0  0  0  0  0  0
   -1.6070   -0.7980   -1.9380 S   0  0  0  0  0  0  0  0  0  0  0  0
   -1.1580   -1.0650   -3.3690 O   0  0  0  0  0  0  0  0  0  0  0  0
   -1.9540   -2.2690   -0.9360 O   0  0  0  0  0  0  0  0  0  0  0  0
   -2.3600    0.5180   -1.3550 O   0  0  0  0  0  0  0  0  0  0  0  0
   -3.0290    0.2030   -0.2720 O   0  0  0  0  0  0  0  0  0  0  0  0
   -3.1130    1.3380    0.4630 N   0  0  0  0  0  0  0  0  0  0  0  0
   -4.3640    1.4730    1.0740 N   0  0  0  0  0  0  0  0  0  0  0  0
    2.1700   -1.4090    0.7280 C   0  0  0  0  0  0  0  0  0  0  0  0
    2.9120   -2.5180    0.6910 C   0  0  0  0  0  0  0  0  0  0  0  0
    2.9040   -1.8270    1.8460 O   0  0  0  0  0  0  0  0  0  0  0  0
  1  2  2  0
  2  3  1  0
  3  4  1  0
  4  5  1  0
  4 14  1  0
  5  6  1  0
  6  7  1  0
  7  8  2  0
  7  9  1  0
  7 10  1  0
 10 11  1  0
 11 12  1  0
 12 13  1  0
 14 15  2  0
 14 16  1  0
 15 16  1  0
M  END
