
     RDKit          3D

 16 15  0  0  0  0  0  0  0  0999 V2000
    5.8830    0.1560    1.4740 C   0  0  0  0  0  0  0  0  0  0  0  0
    5.0150   -0.3290    2.3230 C   0  0  0  0  0  0  0  0  0  0  0  0
    3.6580   -0.3300    2.2360 O   0  0  0  0  0  0  0  0  0  0  0  0
    2.8880    0.1700    1.2220 C   0  0  0  0  0  0  0  0  0  0  0  0
    3.4170    0.6970    0.2420 O   0  0  0  0  0  0  0  0  0  0  0  0
    1.4860    0.0570    1.3480 O   0  0  0  0  0  0  0  0  0  0  0  0
    0.7410    0.5610    0.3280 N   0  0  0  0  0  0  0  0  0  0  0  0
   -0.3140   -0.2340   -0.2460 C   0  0  0  0  0  0  0  0  0  0  0  0
   -0.5700   -1.3910    0.1800 O   0  0  0  0  0  0  0  0  0  0  0  0
   -1.0860    0.2450   -1.2910 O   0  0  0  0  0  0  0  0  0  0  0  0
   -2.1110   -0.5990   -1.8080 C   0  0  0  0  0  0  0  0  0  0  0  0
   -2.7330    0.1460   -2.8690 N   0  0  0  0  0  0  0  0  0  0  0  0
   -3.7550    0.8820   -2.8470 C   0  0  0  0  0  0  0  0  0  0  0  0
   -4.4870    1.0920   -1.6920 O   0  0  0  0  0  0  0  0  0  0  0  0
   -3.7110    1.2100   -0.1270 S   0  0  0  0  0  0  0  0  0  0  0  0
   -4.5330    0.1340    1.0270 N   0  0  0  0  0  0  0  0  0  0  0  0
  1  2  2  0
  2  3  1  0
  3  4  1  0
  4  5  2  0
  4  6  1  0
  6  7  1  0
  7  8  1  0
  8  9  2  0
  8 10  1  0
 10 11  1  0
 11 12  1  0
 12 13  2  3
 13 14  1  0
 14 15  1  0
 15 16  1  0
M  END
