
     RDKit          3D

 16 16  0  0  0  0  0  0  0  0999 V2000
    3.4490    0.7850   -1.6980 C   0  0  0  0  0  0  0  0  0  0  0  0
    2.1420    0.8040   -1.1290 O   0  0  0  0  0  0  0  0  0  0  0  0
    1.8660    0.3650    0.1510 C   0  0  0  0  0  0  0  0  0  0  0  0
    2.8120   -0.0740    0.8470 O   0  0  0  0  0  0  0  0  0  0  0  0
    0.5470    0.4150    0.6460 C   0  0  2  0  0  0  0  0  0  0  0  0
    0.4800   -0.0960    2.0120 N   0  0  0  0  0  0  0  0  0  0  0  0
    0.9910   -1.3690    2.0410 O   0  0  0  0  0  0  0  0  0  0  0  0
    0.2020   -2.3080    1.4530 C   0  0  0  0  0  0  0  0  0  0  0  0
   -0.2460   -3.4100    1.5190 O   0  0  0  0  0  0  0  0  0  0  0  0
   -0.3120   -1.1560   -0.1680 S   0  0  0  0  0  0  0  0  0  0  0  0
   -0.2440   -1.5710   -1.3320 O   0  0  0  0  0  0  0  0  0  0  0  0
   -2.0790   -0.6990    0.7090 N   0  0  0  0  0  0  0  0  0  0  0  0
   -2.6560    0.1880    0.0320 C   0  0  0  0  0  0  0  0  0  0  0  0
   -3.9110    0.6200    0.5150 N   0  0  0  0  0  0  0  0  0  0  0  0
   -2.1310    0.7720   -1.1680 C   0  0  0  0  0  0  0  0  0  0  0  0
   -2.7790    1.6650   -1.7920 O   0  0  0  0  0  0  0  0  0  0  0  0
  1  2  1  0
  2  3  1  0
  3  4  2  0
  5  3  1  6
  5  6  1  0
  5 10  1  0
  6  7  1  0
  7  8  1  0
  8  9  2  0
  8 10  1  0
 10 11  2  0
 10 12  1  0
 12 13  2  3
 13 14  1  0
 13 15  1  0
 15 16  2  0
M  END
