
     RDKit          3D

 23 23  0  0  0  0  0  0  0  0999 V2000
   -1.5740    0.3360    1.8730 C   0  0  0  0  0  0  0  0  0  0  0  0
   -1.7890   -0.1200    0.4210 C   0  0  1  0  0  0  0  0  0  0  0  0
   -2.2640   -1.4320    0.5110 O   0  0  0  0  0  0  0  0  0  0  0  0
   -2.8210    0.7420   -0.1380 C   0  0  1  0  0  0  0  0  0  0  0  0
   -3.2780    0.5810   -1.5330 C   0  0  0  0  0  0  0  0  0  0  0  0
   -2.3180    0.7450   -2.5170 O   0  0  0  0  0  0  0  0  0  0  0  0
   -4.0880    0.6150    0.7290 C   0  0  0  0  0  0  0  0  0  0  0  0
   -4.5330   -0.7060    0.7340 O   0  0  0  0  0  0  0  0  0  0  0  0
   -0.4480   -0.1850   -0.2230 C   0  0  2  0  0  0  0  0  0  0  0  0
   -0.4740   -0.7460   -1.4990 O   0  0  0  0  0  0  0  0  0  0  0  0
    0.4570   -1.0900    0.5840 C   0  0  0  0  0  0  0  0  0  0  0  0
    1.6550   -0.2760    0.9120 C   0  0  1  0  0  0  0  0  0  0  0  0
    2.0770   -0.5090    2.2350 O   0  0  0  0  0  0  0  0  0  0  0  0
    2.8310   -0.5410    0.0710 C   0  0  0  0  0  0  0  0  0  0  0  0
    2.7100   -0.4250   -1.1720 O   0  0  0  0  0  0  0  0  0  0  0  0
    4.0790   -0.9130    0.5500 O   0  0  0  0  0  0  0  0  0  0  0  0
    5.1950   -1.1620   -0.2830 C   0  0  0  0  0  0  0  0  0  0  0  0
    5.5450    0.0450   -1.0770 C   0  0  0  0  0  0  0  0  0  0  0  0
    6.4810    0.0960   -1.8850 O   0  0  0  0  0  0  0  0  0  0  0  0
    4.7760    1.1860   -0.9030 O   0  0  0  0  0  0  0  0  0  0  0  0
    1.2530    1.0280    0.7300 O   0  0  0  0  0  0  0  0  0  0  0  0
    0.2950    1.1080   -0.2270 C   0  0  1  0  0  0  0  0  0  0  0  0
    0.8020    1.3050   -1.5270 O   0  0  0  0  0  0  0  0  0  0  0  0
  2  1  1  1
  2  3  1  0
  2  4  1  0
  2  9  1  0
  4  5  1  6
  4  7  1  0
  5  6  1  0
  7  8  1  0
  9 10  1  6
  9 11  1  0
  9 22  1  0
 11 12  1  0
 12 13  1  1
 12 14  1  0
 12 21  1  0
 14 15  2  0
 14 16  1  0
 16 17  1  0
 17 18  1  0
 18 19  2  0
 18 20  1  0
 21 22  1  0
 22 23  1  6
M  END
