
     RDKit          3D

 22 22  0  0  0  0  0  0  0  0999 V2000
   -1.0160   -3.2220    1.8690 O   0  0  0  0  0  0  0  0  0  0  0  0
   -1.2880   -1.9970    1.9120 C   0  0  0  0  0  0  0  0  0  0  0  0
   -1.8340   -1.5160    3.0910 O   0  0  0  0  0  0  0  0  0  0  0  0
   -1.0270   -1.1310    0.7390 C   0  0  2  0  0  0  0  0  0  0  0  0
   -0.4870   -1.8740   -0.2800 O   0  0  0  0  0  0  0  0  0  0  0  0
   -0.0220   -0.0250    1.0980 C   0  0  0  0  0  0  0  0  0  0  0  0
    0.4190    0.5090   -0.2370 C   0  0  2  0  0  0  0  0  0  0  0  0
    1.4070    1.4740   -0.0270 O   0  0  0  0  0  0  0  0  0  0  0  0
    2.6420    1.0710   -0.5260 C   0  0  1  0  0  0  0  0  0  0  0  0
    3.1380    1.9630   -1.4740 O   0  0  0  0  0  0  0  0  0  0  0  0
    3.5340    1.0710    0.5390 O   0  0  0  0  0  0  0  0  0  0  0  0
    4.1090   -0.1680    0.7690 C   0  0  0  0  0  0  0  0  0  0  0  0
    4.9080   -0.6990   -0.3890 C   0  0  0  0  0  0  0  0  0  0  0  0
    5.4140   -1.9530    0.0170 O   0  0  0  0  0  0  0  0  0  0  0  0
   -0.7130    1.0560   -1.0130 C   0  0  0  0  0  0  0  0  0  0  0  0
   -2.0820    0.7310   -0.5790 C   0  0  2  0  0  0  0  0  0  0  0  0
   -2.8410    0.4600   -1.7460 O   0  0  0  0  0  0  0  0  0  0  0  0
   -2.7520    1.9920   -0.0090 C   0  0  0  0  0  0  0  0  0  0  0  0
   -4.0890    1.7590    0.2880 O   0  0  0  0  0  0  0  0  0  0  0  0
   -2.2840   -0.3920    0.3510 C   0  0  1  0  0  0  0  0  0  0  0  0
   -3.3170   -1.4000   -0.1140 C   0  0  0  0  0  0  0  0  0  0  0  0
   -2.9290   -2.1450   -1.1940 O   0  0  0  0  0  0  0  0  0  0  0  0
  1  2  2  0
  2  3  1  0
  2  4  1  0
  4  5  1  6
  4  6  1  0
  4 20  1  0
  6  7  1  0
  7  8  1  1
  7 15  1  0
  8  9  1  0
  9 10  1  6
  9 11  1  0
 11 12  1  0
 12 13  1  0
 13 14  1  0
 15 16  1  0
 16 17  1  6
 16 18  1  0
 16 20  1  0
 18 19  1  0
 20 21  1  6
 21 22  1  0
M  END
