
     RDKit          3D

 22 23  0  0  0  0  0  0  0  0999 V2000
   -5.0170    0.1400   -0.5700 O   0  0  0  0  0  0  0  0  0  0  0  0
   -4.4170   -0.3110    0.4340 C   0  0  0  0  0  0  0  0  0  0  0  0
   -5.0840   -1.0560    1.4190 O   0  0  0  0  0  0  0  0  0  0  0  0
   -4.1530   -1.8150    2.1630 C   0  0  0  0  0  0  0  0  0  0  0  0
   -2.8000   -1.5710    1.5170 C   0  0  0  0  0  0  0  0  0  0  0  0
   -3.0140   -0.2270    0.8630 C   0  0  1  0  0  0  0  0  0  0  0  0
   -2.1060   -0.0480   -0.1510 O   0  0  0  0  0  0  0  0  0  0  0  0
   -1.2830    1.0820    0.0320 C   0  0  1  0  0  0  0  0  0  0  0  0
   -0.0140    0.6510    0.2470 O   0  0  0  0  0  0  0  0  0  0  0  0
    0.8540    0.6810   -0.7860 C   0  0  2  0  0  0  0  0  0  0  0  0
    0.4340   -0.0890   -1.8820 O   0  0  0  0  0  0  0  0  0  0  0  0
    2.2520    0.3750   -0.3790 C   0  0  0  0  0  0  0  0  0  0  0  0
    2.4200   -0.8760    0.1940 O   0  0  0  0  0  0  0  0  0  0  0  0
    3.7760   -0.9810    0.5050 C   0  0  0  0  0  0  0  0  0  0  0  0
    4.1120   -2.3080    1.1450 C   0  0  1  0  0  0  0  0  0  0  0  0
    3.8240   -3.3910    0.3500 O   0  0  0  0  0  0  0  0  0  0  0  0
    5.4910   -2.2520    1.4470 O   0  0  0  0  0  0  0  0  0  0  0  0
    0.8990    2.1260   -1.3100 C   0  0  1  0  0  0  0  0  0  0  0  0
    1.9720    2.1500   -2.2150 O   0  0  0  0  0  0  0  0  0  0  0  0
   -0.4130    2.3350   -1.9790 C   0  0  0  0  0  0  0  0  0  0  0  0
   -1.5240    2.0640   -1.0300 C   0  0  1  0  0  0  0  0  0  0  0  0
   -2.6260    1.6580   -1.8240 O   0  0  0  0  0  0  0  0  0  0  0  0
  1  2  2  0
  2  3  1  0
  2  6  1  0
  3  4  1  0
  4  5  1  0
  5  6  1  0
  6  7  1  6
  8  7  1  6
  8  9  1  0
  8 21  1  0
  9 10  1  0
 10 11  1  6
 10 12  1  0
 10 18  1  0
 12 13  1  0
 13 14  1  0
 14 15  1  0
 15 16  1  6
 15 17  1  0
 18 19  1  6
 18 20  1  0
 20 21  1  0
 21 22  1  6
M  END
