
     RDKit          3D

 22 24  0  0  0  0  0  0  0  0999 V2000
    3.7960    2.3490   -1.7160 O   0  0  0  0  0  0  0  0  0  0  0  0
    3.2380    1.5300   -0.9340 C   0  0  0  0  0  0  0  0  0  0  0  0
    2.7740    1.8940    0.3250 O   0  0  0  0  0  0  0  0  0  0  0  0
    2.0920    0.9900    1.1750 C   0  0  2  0  0  0  0  0  0  0  0  0
    2.9970    0.3120    1.9840 O   0  0  0  0  0  0  0  0  0  0  0  0
    1.3490    0.0130    0.2520 C   0  0  1  0  0  0  0  0  0  0  0  0
    0.7340   -1.0280    1.1120 C   0  0  2  0  0  0  0  0  0  0  0  0
    1.5590   -2.1460    1.3130 O   0  0  0  0  0  0  0  0  0  0  0  0
   -0.5750   -1.4610    0.4880 C   0  0  1  0  0  0  0  0  0  0  0  0
   -1.1310   -2.5610    1.1220 O   0  0  0  0  0  0  0  0  0  0  0  0
   -1.4660   -0.2230    0.6470 C   0  0  2  0  0  0  0  0  0  0  0  0
   -2.9010   -0.6010    0.5380 C   0  0  0  0  0  0  0  0  0  0  0  0
   -3.7280    0.3700   -0.2590 C   0  0  0  0  0  0  0  0  0  0  0  0
   -3.0190    0.9120   -1.4600 C   0  0  0  0  0  0  0  0  0  0  0  0
   -1.6960    0.5130   -1.5580 O   0  0  0  0  0  0  0  0  0  0  0  0
   -0.9930    0.7600   -0.3610 C   0  0  1  0  0  0  0  0  0  0  0  0
   -1.4260    2.0380    0.0630 O   0  0  0  0  0  0  0  0  0  0  0  0
    0.4510    0.7400   -0.6630 C   0  0  2  0  0  0  0  0  0  0  0  0
    0.7000    0.2720   -1.9770 O   0  0  0  0  0  0  0  0  0  0  0  0
    2.4730   -0.6940   -0.5250 C   0  0  2  0  0  0  0  0  0  0  0  0
    3.3570   -1.2070    0.4000 O   0  0  0  0  0  0  0  0  0  0  0  0
    3.1030    0.2210   -1.3950 O   0  0  0  0  0  0  0  0  0  0  0  0
  1  2  2  0
  2  3  1  0
  2 22  1  0
  3  4  1  0
  4  5  1  6
  6  4  1  1
  6  7  1  0
  6 18  1  0
  6 20  1  0
  7  8  1  6
  7  9  1  0
  9 10  1  1
  9 11  1  0
 11 12  1  6
 11 16  1  0
 12 13  1  0
 13 14  1  0
 14 15  1  0
 15 16  1  0
 16 17  1  1
 16 18  1  0
 18 19  1  6
 20 21  1  1
 20 22  1  0
M  END
