
     RDKit          3D

 22 23  0  0  0  0  0  0  0  0999 V2000
    5.0210   -0.9150   -1.0010 C   0  0  0  0  0  0  0  0  0  0  0  0
    3.7410   -0.9820   -0.4070 O   0  0  0  0  0  0  0  0  0  0  0  0
    3.0750    0.2000   -0.1410 C   0  0  0  0  0  0  0  0  0  0  0  0
    3.6540    1.2730   -0.4480 O   0  0  0  0  0  0  0  0  0  0  0  0
    1.7290    0.1690    0.4820 C   0  0  2  0  0  0  0  0  0  0  0  0
    1.3700   -1.1260    0.6950 O   0  0  0  0  0  0  0  0  0  0  0  0
    0.0740   -1.3180    1.1340 C   0  0  2  0  0  0  0  0  0  0  0  0
   -0.1700   -2.7780    1.1920 C   0  0  0  0  0  0  0  0  0  0  0  0
   -1.3000   -3.1710    1.5700 O   0  0  0  0  0  0  0  0  0  0  0  0
    0.7820   -3.7290    0.8500 O   0  0  0  0  0  0  0  0  0  0  0  0
   -0.8120   -0.6640    0.0770 C   0  0  1  0  0  0  0  0  0  0  0  0
   -0.5060   -1.3130   -1.2260 C   0  0  0  0  0  0  0  0  0  0  0  0
   -2.2330   -0.5840    0.4410 C   0  0  1  0  0  0  0  0  0  0  0  0
   -2.4930   -0.8060    1.7900 O   0  0  0  0  0  0  0  0  0  0  0  0
   -2.7060    0.7970    0.0050 C   0  0  0  0  0  0  0  0  0  0  0  0
   -1.4650    1.4880   -0.5750 C   0  0  1  0  0  0  0  0  0  0  0  0
   -1.4450    1.4790   -1.9400 O   0  0  0  0  0  0  0  0  0  0  0  0
   -1.4960    2.9550   -0.1310 C   0  0  0  0  0  0  0  0  0  0  0  0
   -2.6600    3.5200   -0.6720 O   0  0  0  0  0  0  0  0  0  0  0  0
   -0.3780    0.8060    0.1220 C   0  0  1  0  0  0  0  0  0  0  0  0
   -0.3760    1.1620    1.4700 O   0  0  0  0  0  0  0  0  0  0  0  0
    0.8710    0.8540   -0.4060 O   0  0  0  0  0  0  0  0  0  0  0  0
  1  2  1  0
  2  3  1  0
  3  4  2  0
  5  3  1  6
  5  6  1  0
  5 22  1  0
  6  7  1  0
  7  8  1  6
  7 11  1  0
  8  9  2  0
  8 10  1  0
 11 12  1  6
 11 13  1  0
 11 20  1  0
 13 14  1  1
 13 15  1  0
 15 16  1  0
 16 17  1  6
 16 18  1  0
 16 20  1  0
 18 19  1  0
 20 21  1  1
 20 22  1  0
M  END
