
     RDKit          3D

 22 22  0  0  0  0  0  0  0  0999 V2000
    6.0090   -0.5220   -0.8370 O   0  0  0  0  0  0  0  0  0  0  0  0
    5.7420    0.5180   -1.4750 C   0  0  0  0  0  0  0  0  0  0  0  0
    6.5920    0.8220   -2.5550 O   0  0  0  0  0  0  0  0  0  0  0  0
    4.6750    1.3230   -1.1410 O   0  0  0  0  0  0  0  0  0  0  0  0
    3.8130    1.0600   -0.0880 C   0  0  0  0  0  0  0  0  0  0  0  0
    3.0980   -0.2750   -0.3100 C   0  0  2  0  0  0  0  0  0  0  0  0
    2.3730   -0.2370   -1.4860 O   0  0  0  0  0  0  0  0  0  0  0  0
    2.1720   -0.4370    0.8670 C   0  0  1  0  0  0  0  0  0  0  0  0
    3.0040   -0.4810    2.0460 O   0  0  0  0  0  0  0  0  0  0  0  0
    1.3290    0.6400    0.9690 O   0  0  0  0  0  0  0  0  0  0  0  0
    0.0420    0.3060    1.1510 C   0  0  0  0  0  0  0  0  0  0  0  0
   -0.7220   -0.3850    0.0610 C   0  0  2  0  0  0  0  0  0  0  0  0
   -0.1580   -1.5840   -0.3640 O   0  0  0  0  0  0  0  0  0  0  0  0
   -0.9590    0.5670   -1.0570 C   0  0  0  0  0  0  0  0  0  0  0  0
   -2.2690    0.4160   -1.7840 C   0  0  0  0  0  0  0  0  0  0  0  0
   -3.4720    0.3250   -0.8980 C   0  0  0  0  0  0  0  0  0  0  0  0
   -2.9470    0.4750    0.5270 C   0  0  1  0  0  0  0  0  0  0  0  0
   -4.0740    0.5790    1.5200 C   0  0  1  0  0  0  0  0  0  0  0  0
   -4.8270    1.7030    1.1750 O   0  0  0  0  0  0  0  0  0  0  0  0
   -4.8190   -0.5720    1.5780 O   0  0  0  0  0  0  0  0  0  0  0  0
   -2.0770   -0.7310    0.7650 C   0  0  1  0  0  0  0  0  0  0  0  0
   -2.5480   -1.8550    0.0700 O   0  0  0  0  0  0  0  0  0  0  0  0
  1  2  2  0
  2  3  1  0
  2  4  1  0
  4  5  1  0
  5  6  1  0
  6  7  1  6
  6  8  1  0
  8  9  1  1
  8 10  1  0
 10 11  1  0
 11 12  1  0
 12 13  1  6
 12 14  1  0
 12 21  1  0
 14 15  1  0
 15 16  1  0
 17 16  1  6
 17 18  1  0
 17 21  1  0
 18 19  1  6
 18 20  1  0
 21 22  1  6
M  END
