
     RDKit          3D

 23 24  0  0  0  0  0  0  0  0999 V2000
   -2.8390    2.7360   -0.6610 O   0  0  0  0  0  0  0  0  0  0  0  0
   -3.3850    1.5760   -1.1720 C   0  0  0  0  0  0  0  0  0  0  0  0
   -2.8300    0.3370   -0.5210 C   0  0  1  0  0  0  0  0  0  0  0  0
   -1.4890    0.1810   -0.6540 O   0  0  0  0  0  0  0  0  0  0  0  0
   -0.8150   -0.2600    0.4670 C   0  0  2  0  0  0  0  0  0  0  0  0
    0.4540   -0.5500    0.0710 O   0  0  0  0  0  0  0  0  0  0  0  0
    1.4620    0.2030    0.5620 C   0  0  2  0  0  0  0  0  0  0  0  0
    2.1770    0.8690   -0.5960 C   0  0  1  0  0  0  0  0  0  0  0  0
    1.5420    2.2330   -0.8680 C   0  0  0  0  0  0  0  0  0  0  0  0
    2.1920    2.8190   -1.9310 O   0  0  0  0  0  0  0  0  0  0  0  0
    3.5150    1.1190   -0.3000 O   0  0  0  0  0  0  0  0  0  0  0  0
    4.2730   -0.0450   -0.3750 C   0  0  2  0  0  0  0  0  0  0  0  0
    4.6670   -0.3520   -1.6560 O   0  0  0  0  0  0  0  0  0  0  0  0
    3.4910   -1.2200    0.1640 C   0  0  1  0  0  0  0  0  0  0  0  0
    4.3510   -2.0980    0.7890 O   0  0  0  0  0  0  0  0  0  0  0  0
    2.4890   -0.7390    1.2010 C   0  0  2  0  0  0  0  0  0  0  0  0
    1.8730   -1.8980    1.6800 O   0  0  0  0  0  0  0  0  0  0  0  0
   -1.5090   -1.3680    1.2010 C   0  0  2  0  0  0  0  0  0  0  0  0
   -1.3190   -2.6120    0.6510 O   0  0  0  0  0  0  0  0  0  0  0  0
   -2.9710   -1.1380    1.3810 C   0  0  2  0  0  0  0  0  0  0  0  0
   -3.6820   -1.9920    0.5390 O   0  0  0  0  0  0  0  0  0  0  0  0
   -3.3200    0.2810    0.9120 C   0  0  2  0  0  0  0  0  0  0  0  0
   -4.7100    0.3710    0.8650 O   0  0  0  0  0  0  0  0  0  0  0  0
  1  2  1  0
  3  2  1  1
  3  4  1  0
  3 22  1  0
  4  5  1  0
  5  6  1  6
  5 18  1  0
  7  6  1  6
  7  8  1  0
  7 16  1  0
  8  9  1  1
  8 11  1  0
  9 10  1  0
 11 12  1  0
 12 13  1  6
 12 14  1  0
 14 15  1  1
 14 16  1  0
 16 17  1  6
 18 19  1  6
 18 20  1  0
 20 21  1  6
 20 22  1  0
 22 23  1  6
M  END
