
     RDKit          3D

 23 23  0  0  0  0  0  0  0  0999 V2000
    2.5710   -1.0390   -1.3150 O   0  0  0  0  0  0  0  0  0  0  0  0
    2.6100   -0.6860   -0.1140 C   0  0  0  0  0  0  0  0  0  0  0  0
    3.8340   -0.2590    0.3750 O   0  0  0  0  0  0  0  0  0  0  0  0
    5.0120   -0.1930   -0.3540 C   0  0  0  0  0  0  0  0  0  0  0  0
    4.9530    0.7130   -1.5530 C   0  0  2  0  0  0  0  0  0  0  0  0
    6.2280    0.6530   -2.1620 O   0  0  0  0  0  0  0  0  0  0  0  0
    4.7540    2.0440   -1.2080 O   0  0  0  0  0  0  0  0  0  0  0  0
    1.4000   -0.7260    0.7300 C   0  0  1  0  0  0  0  0  0  0  0  0
    1.6150   -0.3060    2.0180 O   0  0  0  0  0  0  0  0  0  0  0  0
    0.2790    0.1580    0.1420 C   0  0  0  0  0  0  0  0  0  0  0  0
   -0.8430   -0.2820    1.0380 C   0  0  1  0  0  0  0  0  0  0  0  0
   -0.8110    0.5380    2.1730 O   0  0  0  0  0  0  0  0  0  0  0  0
   -2.2300   -0.1720    0.3770 C   0  0  1  0  0  0  0  0  0  0  0  0
   -2.2190   -1.0650   -0.8230 C   0  0  0  0  0  0  0  0  0  0  0  0
   -3.4950   -1.0320   -1.4210 O   0  0  0  0  0  0  0  0  0  0  0  0
   -3.2300   -0.6890    1.3750 C   0  0  0  0  0  0  0  0  0  0  0  0
   -3.2180    0.0460    2.5600 O   0  0  0  0  0  0  0  0  0  0  0  0
   -2.3680    1.2780    0.0830 C   0  0  0  0  0  0  0  0  0  0  0  0
   -3.5670    1.8180   -0.5540 C   0  0  0  0  0  0  0  0  0  0  0  0
   -3.8240    1.3590   -1.8220 O   0  0  0  0  0  0  0  0  0  0  0  0
   -0.4480   -1.6680    1.3840 C   0  0  2  0  0  0  0  0  0  0  0  0
   -0.1350   -1.7460    2.7470 O   0  0  0  0  0  0  0  0  0  0  0  0
    0.7570   -1.9610    0.7060 O   0  0  0  0  0  0  0  0  0  0  0  0
  1  2  2  0
  2  3  1  0
  2  8  1  0
  3  4  1  0
  4  5  1  0
  5  6  1  1
  5  7  1  0
  8  9  1  1
  8 10  1  0
  8 23  1  0
 10 11  1  0
 11 12  1  1
 11 13  1  0
 11 21  1  0
 13 14  1  6
 13 16  1  0
 13 18  1  0
 14 15  1  0
 16 17  1  0
 18 19  1  0
 19 20  1  0
 21 22  1  1
 21 23  1  0
M  END
