
     RDKit          3D

 26 29  0  0  0  0  0  0  0  0999 V2000
   -5.0180   -3.2020    0.3140 C   0  0  0  0  0  0  0  0  0  0  0  0
   -4.6340   -1.7650    0.2590 C   0  0  0  0  0  0  0  0  0  0  0  0
   -3.3430   -1.3740   -0.0260 C   0  0  0  0  0  0  0  0  0  0  0  0
   -3.0340   -0.0140   -0.0660 C   0  0  0  0  0  0  0  0  0  0  0  0
   -4.0110    0.9560    0.1770 C   0  0  0  0  0  0  0  0  0  0  0  0
   -5.2800    0.5620    0.4560 C   0  0  0  0  0  0  0  0  0  0  0  0
   -5.5760   -0.7910    0.4940 C   0  0  0  0  0  0  0  0  0  0  0  0
   -7.2250   -1.2430    0.8590 Cl  0  0  0  0  0  0  0  0  0  0  0  0
   -3.5340    2.3570    0.0960 C   0  0  0  0  0  0  0  0  0  0  0  0
   -2.7430    2.4570   -1.2010 C   0  0  0  0  0  0  0  0  0  0  0  0
   -1.4870    1.6390   -1.1600 C   0  0  0  0  0  0  0  0  0  0  0  0
   -1.7140    0.4210   -0.3580 N   0  0  0  0  0  0  0  0  0  0  0  0
   -0.6180   -0.3110    0.1250 C   0  0  0  0  0  0  0  0  0  0  0  0
   -0.7740   -1.3100    0.8520 O   0  0  0  0  0  0  0  0  0  0  0  0
    0.7710    0.1260   -0.2480 C   0  0  0  0  0  0  0  0  0  0  0  0
    1.7470   -0.5680    0.2130 C   0  0  0  0  0  0  0  0  0  0  0  0
    3.1820   -0.4900    0.0950 C   0  0  0  0  0  0  0  0  0  0  0  0
    3.9780   -1.3640    0.8590 C   0  0  0  0  0  0  0  0  0  0  0  0
    5.3470   -1.3620    0.7920 C   0  0  0  0  0  0  0  0  0  0  0  0
    6.0110   -0.4930   -0.0370 C   0  0  0  0  0  0  0  0  0  0  0  0
    7.4330   -0.4690   -0.1250 N   0  0  0  0  0  0  0  0  0  0  0  0
    5.2230    0.3580   -0.7810 C   0  0  0  0  0  0  0  0  0  0  0  0
    5.6450    1.3070   -1.6890 C   0  0  0  0  0  0  0  0  0  0  0  0
    4.5420    1.8760   -2.1710 N   0  0  0  0  0  0  0  0  0  0  0  0
    3.4640    1.2880   -1.5700 C   0  0  0  0  0  0  0  0  0  0  0  0
    3.8580    0.3440   -0.7030 N   0  0  0  0  0  0  0  0  0  0  0  0
  1  2  1  0
  2  3  2  0
  2  7  1  0
  3  4  1  0
  4  5  2  0
  4 12  1  0
  5  6  1  0
  5  9  1  0
  6  7  2  0
  7  8  1  0
  9 10  1  0
 10 11  1  0
 11 12  1  0
 12 13  1  0
 13 14  2  0
 13 15  1  0
 15 16  2  3
 16 17  1  0
 17 18  2  0
 17 26  1  0
 18 19  1  0
 19 20  2  0
 20 21  1  0
 20 22  1  0
 22 23  2  0
 22 26  1  0
 23 24  1  0
 24 25  2  0
 25 26  1  0
M  END
