
     RDKit          3D

 26 29  0  0  0  0  0  0  0  0999 V2000
    0.0240    2.6360    2.9290 C   0  0  0  0  0  0  0  0  0  0  0  0
   -1.2440    1.9840    2.7780 C   0  0  0  0  0  0  0  0  0  0  0  0
   -1.8260    1.0400    2.1210 C   0  0  0  0  0  0  0  0  0  0  0  0
   -3.2050    0.8240    2.3930 C   0  0  0  0  0  0  0  0  0  0  0  0
   -3.8930   -0.0950    1.6590 C   0  0  0  0  0  0  0  0  0  0  0  0
   -5.3100   -0.3080    1.9520 C   0  0  0  0  0  0  0  0  0  0  0  0
   -6.4380   -0.4610    2.1760 N   0  0  0  0  0  0  0  0  0  0  0  0
   -3.3160   -0.8250    0.6670 C   0  0  0  0  0  0  0  0  0  0  0  0
   -4.0650   -1.8160   -0.1260 C   0  0  0  0  0  0  0  0  0  0  0  0
   -1.9850   -0.6120    0.4150 C   0  0  0  0  0  0  0  0  0  0  0  0
   -1.2390    0.3000    1.1250 C   0  0  0  0  0  0  0  0  0  0  0  0
    0.0680    0.4360    1.0530 C   0  0  0  0  0  0  0  0  0  0  0  0
    1.1940   -0.0420    0.2560 C   0  0  2  0  0  0  0  0  0  0  0  0
    1.7020    1.0910   -0.4790 O   0  0  0  0  0  0  0  0  0  0  0  0
    2.7600    0.8550   -1.3400 C   0  0  0  0  0  0  0  0  0  0  0  0
    3.6630    1.8510   -1.7120 C   0  0  0  0  0  0  0  0  0  0  0  0
    4.7160    1.6270   -2.5660 C   0  0  0  0  0  0  0  0  0  0  0  0
    4.9210    0.3710   -3.1000 C   0  0  0  0  0  0  0  0  0  0  0  0
    6.2470    0.0260   -4.1950 Cl  0  0  0  0  0  0  0  0  0  0  0  0
    4.0360   -0.6170   -2.7390 C   0  0  0  0  0  0  0  0  0  0  0  0
    2.9630   -0.4010   -1.8720 C   0  0  0  0  0  0  0  0  0  0  0  0
    2.0440   -1.5000   -1.5160 C   0  0  0  0  0  0  0  0  0  0  0  0
    0.9620   -1.0780   -0.6640 N   0  0  0  0  0  0  0  0  0  0  0  0
   -0.2180   -1.8550   -0.9460 C   0  0  0  0  0  0  0  0  0  0  0  0
   -0.0610   -2.9880   -1.4890 N   0  0  0  0  0  0  0  0  0  0  0  0
   -1.5480   -1.4570   -0.6670 N   0  0  0  0  0  0  0  0  0  0  0  0
  1  2  1  0
  2  3  2  3
  3  4  1  0
  3 11  1  0
  4  5  2  0
  5  6  1  0
  5  8  1  0
  6  7  3  0
  8  9  1  0
  8 10  2  0
 10 11  1  0
 10 26  1  0
 11 12  2  0
 12 13  1  0
 13 14  1  6
 13 23  1  0
 14 15  1  0
 15 16  2  0
 15 21  1  0
 16 17  1  0
 17 18  2  0
 18 19  1  0
 18 20  1  0
 20 21  2  0
 21 22  1  0
 22 23  1  0
 23 24  1  0
 24 25  2  0
 24 26  1  0
M  END
