
     RDKit          3D

 26 29  0  0  0  0  0  0  0  0999 V2000
    8.8190    0.8630    0.3070 N   0  0  0  0  0  0  0  0  0  0  0  0
    7.6300    0.5600    0.4600 C   0  0  0  0  0  0  0  0  0  0  0  0
    6.2740    0.2120    0.6390 C   0  0  0  0  0  0  0  0  0  0  0  0
    5.9290   -0.8080    1.5140 C   0  0  0  0  0  0  0  0  0  0  0  0
    4.6030   -1.1140    1.7080 C   0  0  0  0  0  0  0  0  0  0  0  0
    3.6070   -0.4260    1.0450 C   0  0  0  0  0  0  0  0  0  0  0  0
    2.2230   -0.6910    1.2210 N   0  0  0  0  0  0  0  0  0  0  0  0
    1.2560   -0.5690    0.2070 C   0  0  0  0  0  0  0  0  0  0  0  0
    1.5710   -0.2150   -0.9310 O   0  0  0  0  0  0  0  0  0  0  0  0
   -0.1610   -0.8870    0.5440 C   0  0  0  0  0  0  0  0  0  0  0  0
   -0.9990   -0.7400   -0.6310 N   0  0  0  0  0  0  0  0  0  0  0  0
   -0.6940   -1.7380   -1.5480 C   0  0  0  0  0  0  0  0  0  0  0  0
   -1.7640   -2.4370   -2.2680 C   0  0  0  0  0  0  0  0  0  0  0  0
   -3.0980   -1.9250   -2.0390 N   0  0  0  0  0  0  0  0  0  0  0  0
   -3.3730   -0.8870   -1.1150 C   0  0  0  0  0  0  0  0  0  0  0  0
   -4.5910   -0.3790   -0.9820 C   0  0  0  0  0  0  0  0  0  0  0  0
   -5.8370   -1.0570   -2.0040 Cl  0  0  0  0  0  0  0  0  0  0  0  0
   -4.8990    0.7070   -0.0140 C   0  0  0  0  0  0  0  0  0  0  0  0
   -3.6800    1.5990   -0.0860 C   0  0  0  0  0  0  0  0  0  0  0  0
   -2.4690    1.1300   -0.2100 C   0  0  0  0  0  0  0  0  0  0  0  0
   -1.5510    2.2740   -0.2440 C   0  0  0  0  0  0  0  0  0  0  0  0
   -2.2190    3.4020   -0.1480 C   0  0  0  0  0  0  0  0  0  0  0  0
   -3.6470    3.0780   -0.0430 C   0  0  0  0  0  0  0  0  0  0  0  0
   -2.2840   -0.3470   -0.2890 C   0  0  2  0  0  0  0  0  0  0  0  0
    3.9750    0.5920    0.1720 C   0  0  0  0  0  0  0  0  0  0  0  0
    5.3120    0.9140   -0.0320 C   0  0  0  0  0  0  0  0  0  0  0  0
  1  2  3  0
  2  3  1  0
  3  4  2  0
  3 26  1  0
  4  5  1  0
  5  6  2  0
  6  7  1  0
  6 25  1  0
  7  8  1  0
  8  9  2  0
  8 10  1  0
 10 11  1  0
 11 12  1  0
 24 11  1  6
 12 13  1  0
 13 14  1  0
 14 15  1  0
 15 16  2  0
 15 24  1  0
 16 17  1  0
 16 18  1  0
 18 19  1  0
 19 20  2  0
 19 23  1  0
 20 21  1  0
 20 24  1  0
 21 22  2  0
 22 23  1  0
 25 26  2  0
M  END
