
     RDKit          3D

 25 29  0  0  0  0  0  0  0  0999 V2000
   -5.2080    3.1470   -0.0690 O   0  0  0  0  0  0  0  0  0  0  0  0
   -5.4960    1.9200   -0.0650 C   0  0  0  0  0  0  0  0  0  0  0  0
   -6.9110    1.5110   -0.2000 C   0  0  0  0  0  0  0  0  0  0  0  0
   -7.0900    0.1840    0.5000 C   0  0  0  0  0  0  0  0  0  0  0  0
   -6.2400   -0.8450   -0.1940 C   0  0  0  0  0  0  0  0  0  0  0  0
   -4.8180   -0.4710    0.0100 C   0  0  0  0  0  0  0  0  0  0  0  0
   -3.8550   -1.4470    0.1370 C   0  0  0  0  0  0  0  0  0  0  0  0
   -2.5570   -1.0550    0.3240 C   0  0  0  0  0  0  0  0  0  0  0  0
   -1.4460   -1.7940    0.4750 N   0  0  0  0  0  0  0  0  0  0  0  0
   -0.3970   -0.9690    0.6320 C   0  0  0  0  0  0  0  0  0  0  0  0
    0.9950   -1.4240    0.8240 C   0  0  0  0  0  0  0  0  0  0  0  0
    1.6410   -1.4700   -0.4590 N   0  0  0  0  0  0  0  0  0  0  0  0
    2.9860   -1.9400   -0.3030 C   0  0  0  0  0  0  0  0  0  0  0  0
    3.9310   -0.9920    0.3240 C   0  0  0  0  0  0  0  0  0  0  0  0
    3.5710    0.3700    0.3710 N   0  0  0  0  0  0  0  0  0  0  0  0
    4.6560    1.2620    0.1130 C   0  0  2  0  0  0  0  0  0  0  0  0
    5.2100    1.0820   -1.2740 C   0  0  0  0  0  0  0  0  0  0  0  0
    6.5780    0.9140   -0.6870 C   0  0  0  0  0  0  0  0  0  0  0  0
    5.9840    0.9190    0.7060 C   0  0  0  0  0  0  0  0  0  0  0  0
    2.4330    0.7990   -0.3570 C   0  0  0  0  0  0  0  0  0  0  0  0
    1.6850   -0.2120   -1.1340 C   0  0  0  0  0  0  0  0  0  0  0  0
   -0.8400    0.2940    0.5810 N   0  0  0  0  0  0  0  0  0  0  0  0
   -2.1840    0.2750    0.3900 C   0  0  0  0  0  0  0  0  0  0  0  0
   -3.1690    1.2260    0.2590 C   0  0  0  0  0  0  0  0  0  0  0  0
   -4.4890    0.8660    0.0690 C   0  0  0  0  0  0  0  0  0  0  0  0
  1  2  2  0
  2  3  1  0
  2 25  1  0
  3  4  1  0
  4  5  1  0
  5  6  1  0
  6  7  2  0
  6 25  1  0
  7  8  1  0
  8  9  1  0
  8 23  2  0
  9 10  1  0
 10 11  1  0
 10 22  2  0
 11 12  1  0
 12 13  1  0
 12 21  1  0
 13 14  1  0
 14 15  1  0
 16 15  1  1
 15 20  1  0
 16 17  1  0
 16 19  1  0
 17 18  1  0
 18 19  1  0
 20 21  1  0
 22 23  1  0
 23 24  1  0
 24 25  2  0
M  END
