
     RDKit          3D

 26 29  0  0  0  0  0  0  0  0999 V2000
    0.6500    3.8180   -0.2260 C   0  0  0  0  0  0  0  0  0  0  0  0
    0.6680    2.3910   -0.8080 C   0  0  0  0  0  0  0  0  0  0  0  0
   -0.6550    1.7640   -0.4280 C   0  0  0  0  0  0  0  0  0  0  0  0
   -0.7710    0.6570    0.2790 C   0  0  0  0  0  0  0  0  0  0  0  0
    0.5220    0.0430    0.6750 C   0  0  0  0  0  0  0  0  0  0  0  0
    0.9470   -0.1380    1.9190 N   0  0  0  0  0  0  0  0  0  0  0  0
    2.1410   -0.7580    1.9220 N   0  0  0  0  0  0  0  0  0  0  0  0
    2.4820   -0.9760    0.6570 C   0  0  0  0  0  0  0  0  0  0  0  0
    1.4660   -0.4760   -0.1510 C   0  0  0  0  0  0  0  0  0  0  0  0
    1.4210   -0.5550   -1.4700 C   0  0  0  0  0  0  0  0  0  0  0  0
    2.4290   -1.1080   -2.3660 C   0  0  0  0  0  0  0  0  0  0  0  0
    2.4160   -2.8960   -2.4180 Cl  0  0  0  0  0  0  0  0  0  0  0  0
    3.6780   -1.6000    0.6050 C   0  0  0  0  0  0  0  0  0  0  0  0
    4.1990   -1.8280    1.9710 C   0  0  0  0  0  0  0  0  0  0  0  0
    3.1490   -1.2490    2.8480 C   0  0  0  0  0  0  0  0  0  0  0  0
   -2.0380    0.1140    0.6950 C   0  0  2  0  0  0  0  0  0  0  0  0
   -2.2940   -1.3230    0.4590 C   0  0  0  0  0  0  0  0  0  0  0  0
   -1.6400   -2.2960   -0.0990 C   0  0  0  0  0  0  0  0  0  0  0  0
   -2.4030   -3.5600   -0.0480 C   0  0  0  0  0  0  0  0  0  0  0  0
   -3.6360   -3.1780    0.6340 C   0  0  0  0  0  0  0  0  0  0  0  0
   -3.5820   -1.8960    0.9300 C   0  0  0  0  0  0  0  0  0  0  0  0
   -3.1710    0.8110    0.1480 N   0  0  0  0  0  0  0  0  0  0  0  0
   -3.0670    1.9880   -0.6090 C   0  0  0  0  0  0  0  0  0  0  0  0
   -4.1270    2.5680   -1.0000 O   0  0  0  0  0  0  0  0  0  0  0  0
   -1.7830    2.4980   -0.9180 N   0  0  0  0  0  0  0  0  0  0  0  0
   -1.7150    3.6860   -1.7120 C   0  0  0  0  0  0  0  0  0  0  0  0
  1  2  1  0
  2  3  1  0
  3  4  2  0
  3 25  1  0
  4  5  1  0
  4 16  1  0
  5  6  2  0
  5  9  1  0
  6  7  1  0
  7  8  1  0
  7 15  1  0
  8  9  1  0
  8 13  2  0
  9 10  2  3
 10 11  1  0
 11 12  1  0
 13 14  1  0
 14 15  1  0
 16 17  1  6
 16 22  1  0
 17 18  2  0
 17 21  1  0
 18 19  1  0
 19 20  1  0
 20 21  2  0
 22 23  1  0
 23 24  2  0
 23 25  1  0
 25 26  1  0
M  END
