
     RDKit          3D

 26 30  0  0  0  0  0  0  0  0999 V2000
    3.9990    1.4850   -2.6510 O   0  0  0  0  0  0  0  0  0  0  0  0
    3.4360    0.9360   -1.6600 C   0  0  0  0  0  0  0  0  0  0  0  0
    2.1150    1.0170   -1.4380 N   0  0  0  0  0  0  0  0  0  0  0  0
    1.5040    0.4410   -0.3950 C   0  0  0  0  0  0  0  0  0  0  0  0
    0.1000    0.5920   -0.2510 N   0  0  0  0  0  0  0  0  0  0  0  0
   -0.7100    0.0430   -1.3330 C   0  0  0  0  0  0  0  0  0  0  0  0
   -2.1440    0.3730   -1.1040 C   0  0  0  0  0  0  0  0  0  0  0  0
   -2.6040   -0.0820    0.2360 C   0  0  2  0  0  0  0  0  0  0  0  0
   -1.7490    0.4600    1.3490 C   0  0  0  0  0  0  0  0  0  0  0  0
   -0.5490    1.2180    0.8560 C   0  0  0  0  0  0  0  0  0  0  0  0
   -2.5560   -1.6020    0.2890 C   0  0  0  0  0  0  0  0  0  0  0  0
   -3.8780   -2.0290   -0.1180 N   0  0  0  0  0  0  0  0  0  0  0  0
   -4.7800   -1.0050    0.2440 C   0  0  0  0  0  0  0  0  0  0  0  0
   -6.1710   -1.0440    0.3920 C   0  0  0  0  0  0  0  0  0  0  0  0
   -6.8640    0.0920    0.7480 C   0  0  0  0  0  0  0  0  0  0  0  0
   -6.1470    1.2500    0.9500 C   0  0  0  0  0  0  0  0  0  0  0  0
   -4.7660    1.2830    0.8030 C   0  0  0  0  0  0  0  0  0  0  0  0
   -3.9690    2.7990    1.0760 Cl  0  0  0  0  0  0  0  0  0  0  0  0
   -4.0590    0.1630    0.4490 C   0  0  0  0  0  0  0  0  0  0  0  0
    2.2300   -0.2630    0.4950 N   0  0  0  0  0  0  0  0  0  0  0  0
    3.5740   -0.3960    0.3470 C   0  0  0  0  0  0  0  0  0  0  0  0
    4.1960    0.1960   -0.7240 C   0  0  0  0  0  0  0  0  0  0  0  0
    5.6450    0.0910   -0.9620 C   0  0  0  0  0  0  0  0  0  0  0  0
    6.3980   -0.3980    0.2170 C   0  0  0  0  0  0  0  0  0  0  0  0
    5.6540   -0.3220    1.5160 C   0  0  0  0  0  0  0  0  0  0  0  0
    4.3800   -1.1600    1.3250 C   0  0  0  0  0  0  0  0  0  0  0  0
  1  2  2  0
  2  3  1  0
  2 22  1  0
  3  4  1  0
  4  5  1  0
  4 20  2  0
  5  6  1  0
  5 10  1  0
  6  7  1  0
  8  7  1  6
  8  9  1  0
  8 11  1  0
  8 19  1  0
  9 10  1  0
 11 12  1  0
 12 13  1  0
 13 14  2  0
 13 19  1  0
 14 15  1  0
 15 16  2  0
 16 17  1  0
 17 18  1  0
 17 19  2  0
 20 21  1  0
 21 22  2  0
 21 26  1  0
 22 23  1  0
 23 24  1  0
 24 25  1  0
 25 26  1  0
M  END
