
     RDKit          3D

 25 28  0  0  0  0  0  0  0  0999 V2000
    5.1500   -0.1540   -1.1960 C   0  0  0  0  0  0  0  0  0  0  0  0
    3.9990   -0.2920   -0.2090 C   0  0  0  0  0  0  0  0  0  0  0  0
    3.1620   -1.3000   -0.3630 C   0  0  0  0  0  0  0  0  0  0  0  0
    1.9870   -1.5810    0.5130 C   0  0  0  0  0  0  0  0  0  0  0  0
    0.9080   -2.1280   -0.2770 N   0  0  0  0  0  0  0  0  0  0  0  0
   -0.4870   -2.1370   -0.0500 C   0  0  0  0  0  0  0  0  0  0  0  0
   -0.9970   -3.3950    0.2420 N   0  0  0  0  0  0  0  0  0  0  0  0
   -2.2720   -3.6600    0.4870 C   0  0  0  0  0  0  0  0  0  0  0  0
   -3.1540   -2.5990    0.4470 C   0  0  0  0  0  0  0  0  0  0  0  0
   -2.7450   -1.3200    0.1670 C   0  0  0  0  0  0  0  0  0  0  0  0
   -3.4410   -0.1530    0.0670 C   0  0  0  0  0  0  0  0  0  0  0  0
   -4.7620    0.2240    0.2050 C   0  0  0  0  0  0  0  0  0  0  0  0
   -5.1660    1.5280    0.0340 C   0  0  0  0  0  0  0  0  0  0  0  0
   -6.8480    1.9320    0.2230 Cl  0  0  0  0  0  0  0  0  0  0  0  0
   -4.2460    2.4880   -0.2830 C   0  0  0  0  0  0  0  0  0  0  0  0
   -2.9120    2.1040   -0.4220 C   0  0  0  0  0  0  0  0  0  0  0  0
   -2.4970    0.7980   -0.2510 C   0  0  0  0  0  0  0  0  0  0  0  0
   -1.2760    0.1680   -0.3290 N   0  0  0  0  0  0  0  0  0  0  0  0
   -1.3790   -1.1070   -0.0840 C   0  0  0  0  0  0  0  0  0  0  0  0
   -0.0480    0.8970   -0.6630 C   0  0  0  0  0  0  0  0  0  0  0  0
    0.4320    1.7380    0.4720 C   0  0  0  0  0  0  0  0  0  0  0  0
    1.8700    2.1180    0.2260 C   0  0  0  0  0  0  0  0  0  0  0  0
    2.8000    1.4520    1.1720 C   0  0  0  0  0  0  0  0  0  0  0  0
    2.5450    1.5940    2.4170 O   0  0  0  0  0  0  0  0  0  0  0  0
    3.9280    0.6870    0.7990 N   0  0  0  0  0  0  0  0  0  0  0  0
  1  2  1  0
  2  3  2  0
  2 25  1  0
  3  4  1  0
  4  5  1  0
  5  6  1  0
  6  7  1  0
  6 19  2  0
  7  8  2  0
  8  9  1  0
  9 10  2  0
 10 11  1  0
 10 19  1  0
 11 12  2  0
 11 17  1  0
 12 13  1  0
 13 14  1  0
 13 15  2  0
 15 16  1  0
 16 17  2  0
 17 18  1  0
 18 19  1  0
 18 20  1  0
 20 21  1  0
 21 22  1  0
 22 23  1  0
 23 24  2  0
 23 25  1  0
M  END
