
     RDKit          3D

 13 12  0  0  0  0  0  0  0  0999 V2000
    4.0140    0.8090   -0.7150 O   0  0  0  0  0  0  0  0  0  0  0  0
    2.9110    1.0340   -0.2270 C   0  0  0  0  0  0  0  0  0  0  0  0
    1.9220   -0.0520   -0.2500 C   0  0  0  0  0  0  0  0  0  0  0  0
    0.6980    0.3700    0.3530 O   0  0  0  0  0  0  0  0  0  0  0  0
   -0.3720   -0.5080    0.4350 C   0  0  0  0  0  0  0  0  0  0  0  0
   -0.2080   -1.6730    1.1700 O   0  0  0  0  0  0  0  0  0  0  0  0
   -1.5300   -0.2760   -0.1580 C   0  0  0  0  0  0  0  0  0  0  0  0
   -2.6340   -1.2140   -0.0550 C   0  0  0  0  0  0  0  0  0  0  0  0
   -2.4630   -2.2630    0.6160 O   0  0  0  0  0  0  0  0  0  0  0  0
   -3.8450   -0.9830   -0.6680 O   0  0  0  0  0  0  0  0  0  0  0  0
   -1.6950    0.9470   -0.9280 C   0  0  0  0  0  0  0  0  0  0  0  0
   -2.7900    1.2010   -1.5070 O   0  0  0  0  0  0  0  0  0  0  0  0
   -0.6680    1.8680   -1.0510 O   0  0  0  0  0  0  0  0  0  0  0  0
  1  2  2  0
  2  3  1  0
  3  4  1  0
  4  5  1  0
  5  6  1  0
  5  7  2  3
  7  8  1  0
  7 11  1  0
  8  9  2  0
  8 10  1  0
 11 12  2  0
 11 13  1  0
M  CHG  3   6  -1  10  -1  13  -1
M  END
