
     RDKit          3D

 13 12  0  0  0  0  0  0  0  0999 V2000
   -2.6650    0.8000    0.6350 O   0  0  0  0  0  0  0  0  0  0  0  0
   -2.4290   -0.4060    0.5420 C   0  0  0  0  0  0  0  0  0  0  0  0
   -3.5900   -1.2460    0.7800 O   0  0  0  0  0  0  0  0  0  0  0  0
   -1.2390   -1.0560    0.2490 C   0  0  0  0  0  0  0  0  0  0  0  0
   -1.3770   -2.3940    0.2380 O   0  0  0  0  0  0  0  0  0  0  0  0
    0.0820   -0.6590   -0.0400 C   0  0  0  0  0  0  0  0  0  0  0  0
    0.8440    0.3600   -0.1810 C   0  0  0  0  0  0  0  0  0  0  0  0
    2.2760   -0.0070   -0.5200 C   0  0  0  0  0  0  0  0  0  0  0  0
    3.0750    0.9080   -0.6740 O   0  0  0  0  0  0  0  0  0  0  0  0
    2.6220   -1.3190   -0.6420 O   0  0  0  0  0  0  0  0  0  0  0  0
    0.6040    1.7540   -0.0810 C   0  0  0  0  0  0  0  0  0  0  0  0
    1.6020    2.5680   -0.2830 O   0  0  0  0  0  0  0  0  0  0  0  0
   -0.5810    2.3410    0.2080 O   0  0  0  0  0  0  0  0  0  0  0  0
  1  2  2  0
  2  3  1  0
  2  4  1  0
  4  5  2  0
  4  6  1  0
  6  7  2  3
  7  8  1  0
  7 11  1  0
  8  9  2  0
  8 10  1  0
 11 12  2  0
 11 13  1  0
M  CHG  3   3  -1  10  -1  13  -1
M  END
