
     RDKit          3D

 13 12  0  0  0  0  0  0  0  0999 V2000
    3.1650   -0.3010    1.2270 O   0  0  0  0  0  0  0  0  0  0  0  0
    2.7410   -1.0500    0.3150 C   0  0  0  0  0  0  0  0  0  0  0  0
    3.6200   -1.9600   -0.2440 O   0  0  0  0  0  0  0  0  0  0  0  0
    1.3590   -0.9560   -0.1360 C   0  0  0  0  0  0  0  0  0  0  0  0
    0.5280   -0.1020    0.3860 C   0  0  0  0  0  0  0  0  0  0  0  0
    1.0530    0.7270    1.4170 O   0  0  0  0  0  0  0  0  0  0  0  0
   -0.8580    0.0860    0.0270 C   0  0  0  0  0  0  0  0  0  0  0  0
   -1.5820   -0.6410   -0.9820 C   0  0  0  0  0  0  0  0  0  0  0  0
   -2.7940   -0.4000   -1.2200 O   0  0  0  0  0  0  0  0  0  0  0  0
   -0.9910   -1.6270   -1.7300 O   0  0  0  0  0  0  0  0  0  0  0  0
   -1.5820    1.0280    0.6780 C   0  0  0  0  0  0  0  0  0  0  0  0
   -0.9290    1.7520    1.6560 O   0  0  0  0  0  0  0  0  0  0  0  0
   -2.9050    1.2820    0.4090 O   0  0  0  0  0  0  0  0  0  0  0  0
  1  2  2  0
  2  3  1  0
  2  4  1  0
  4  5  2  3
  5  6  1  0
  5  7  1  0
  7  8  1  0
  7 11  2  3
  8  9  2  0
  8 10  1  0
 11 12  1  0
 11 13  1  0
M  CHG  3   3  -1  10  -1  12  -1
M  END
