
     RDKit          3D

 13 12  0  0  0  0  0  0  0  0999 V2000
   -3.9630    0.0190   -1.6710 O   0  0  0  0  0  0  0  0  0  0  0  0
   -2.9580    0.5590   -1.1150 C   0  0  0  0  0  0  0  0  0  0  0  0
   -3.0760    1.9100   -0.7870 O   0  0  0  0  0  0  0  0  0  0  0  0
   -1.7640   -0.2090   -0.8460 C   0  0  0  0  0  0  0  0  0  0  0  0
   -0.7320    0.3550   -0.2710 C   0  0  0  0  0  0  0  0  0  0  0  0
   -0.8110    1.6980    0.0700 O   0  0  0  0  0  0  0  0  0  0  0  0
    0.4730   -0.3970    0.0060 C   0  0  0  0  0  0  0  0  0  0  0  0
    0.5250   -1.7440   -0.3470 O   0  0  0  0  0  0  0  0  0  0  0  0
    1.4960    0.1930    0.5840 C   0  0  0  0  0  0  0  0  0  0  0  0
    1.4230    1.5250    0.9250 O   0  0  0  0  0  0  0  0  0  0  0  0
    2.6920   -0.5730    0.8550 C   0  0  0  0  0  0  0  0  0  0  0  0
    3.6670   -0.0080    1.4060 O   0  0  0  0  0  0  0  0  0  0  0  0
    2.7880   -1.9050    0.5230 O   0  0  0  0  0  0  0  0  0  0  0  0
  1  2  2  0
  2  3  1  0
  2  4  1  0
  4  5  2  3
  5  6  1  0
  5  7  1  0
  7  8  1  0
  7  9  2  3
  9 10  1  0
  9 11  1  0
 11 12  2  0
 11 13  1  0
M  CHG  3   3  -1   6  -1  13  -1
M  END
