
     RDKit          3D

 13 12  0  0  0  0  0  0  0  0999 V2000
   -1.0090   -1.4020   -0.4120 C   0  0  0  0  0  0  0  0  0  0  0  0
    0.1460   -0.4470   -0.0860 C   0  0  2  0  0  0  0  0  0  0  0  0
   -0.3850    0.4800    0.9860 C   0  0  0  0  0  0  0  0  0  0  0  0
   -1.5690    1.2300    0.4660 C   0  0  0  0  0  0  0  0  0  0  0  0
   -1.5460    1.9530   -0.5640 O   0  0  0  0  0  0  0  0  0  0  0  0
   -2.7870    1.1330    1.1520 O   0  0  0  0  0  0  0  0  0  0  0  0
    0.4910    0.3030   -1.2250 O   0  0  0  0  0  0  0  0  0  0  0  0
    1.5180    1.2170   -1.1400 C   0  0  0  0  0  0  0  0  0  0  0  0
    2.2000    1.4380   -0.0960 O   0  0  0  0  0  0  0  0  0  0  0  0
    1.9040    1.9980   -2.2430 O   0  0  0  0  0  0  0  0  0  0  0  0
    1.3360   -1.2100    0.3410 C   0  0  0  0  0  0  0  0  0  0  0  0
    1.2810   -1.9620    1.3580 O   0  0  0  0  0  0  0  0  0  0  0  0
    2.5560   -1.1440   -0.3430 O   0  0  0  0  0  0  0  0  0  0  0  0
  2  1  1  6
  2  3  1  0
  2  7  1  0
  2 11  1  0
  3  4  1  0
  4  5  2  0
  4  6  1  0
  7  8  1  0
  8  9  2  0
  8 10  1  0
 11 12  2  0
 11 13  1  0
M  CHG  3   6  -1  10  -1  13  -1
M  END
