
     RDKit          3D

 13 12  0  0  0  0  0  0  0  0999 V2000
    3.0800    0.8760    0.6510 O   0  0  0  0  0  0  0  0  0  0  0  0
    2.0190    0.6500   -0.0280 C   0  0  0  0  0  0  0  0  0  0  0  0
    1.8580    1.3680   -1.1700 O   0  0  0  0  0  0  0  0  0  0  0  0
    1.1260   -0.3620    0.5330 C   0  0  0  0  0  0  0  0  0  0  0  0
   -0.1910   -0.5370   -0.1420 C   0  0  2  0  0  0  0  0  0  0  0  0
    0.0270   -0.8840   -1.4730 O   0  0  0  0  0  0  0  0  0  0  0  0
   -1.1870    0.5430    0.0470 C   0  0  0  0  0  0  0  0  0  0  0  0
   -0.8540    1.8800   -0.3960 C   0  0  0  0  0  0  0  0  0  0  0  0
   -1.0520    2.2170   -1.5880 O   0  0  0  0  0  0  0  0  0  0  0  0
   -0.3150    2.8260    0.4560 O   0  0  0  0  0  0  0  0  0  0  0  0
   -0.7910   -1.7600    0.5120 C   0  0  0  0  0  0  0  0  0  0  0  0
   -0.9800   -2.7760   -0.1530 O   0  0  0  0  0  0  0  0  0  0  0  0
   -1.1160   -1.7110    1.8460 O   0  0  0  0  0  0  0  0  0  0  0  0
  1  2  2  0
  2  3  1  0
  2  4  1  0
  4  5  1  0
  5  6  1  6
  5  7  1  0
  5 11  1  0
  7  8  1  0
  8  9  2  0
  8 10  1  0
 11 12  2  0
 11 13  1  0
M  CHG  3   3  -1  10  -1  13  -1
M  END
