
     RDKit          3D

 23 26  0  0  0  0  0  0  0  0999 V2000
    5.6600    2.5270    0.5970 C   0  0  0  0  0  0  0  0  0  0  0  0
    5.6480    1.0340    0.3060 C   0  0  0  0  0  0  0  0  0  0  0  0
    4.3940    0.7470   -0.4770 C   0  0  1  0  0  0  0  0  0  0  0  0
    4.2330   -0.6910   -0.8440 C   0  0  0  0  0  0  0  0  0  0  0  0
    2.7380   -0.9970   -0.7740 C   0  0  1  0  0  0  0  0  0  0  0  0
    2.4200   -1.9580    0.3490 C   0  0  0  0  0  0  0  0  0  0  0  0
    0.9140   -2.1470    0.2920 C   0  0  0  0  0  0  0  0  0  0  0  0
    0.2270   -0.8770    0.6630 C   0  0  2  0  0  0  0  0  0  0  0  0
   -1.2790   -1.0420    0.3970 C   0  0  2  0  0  0  0  0  0  0  0  0
   -1.7070   -2.2140    1.2880 C   0  0  0  0  0  0  0  0  0  0  0  0
   -1.4280   -1.4800   -1.0140 C   0  0  0  0  0  0  0  0  0  0  0  0
   -2.8100   -1.2200   -1.5880 C   0  0  0  0  0  0  0  0  0  0  0  0
   -3.1060    0.0990   -1.3910 O   0  0  0  0  0  0  0  0  0  0  0  0
   -3.2020    0.5050   -0.0930 C   0  0  1  0  0  0  0  0  0  0  0  0
   -3.3970    2.0200   -0.1010 C   0  0  0  0  0  0  0  0  0  0  0  0
   -4.6810    2.4080    0.5820 C   0  0  0  0  0  0  0  0  0  0  0  0
   -5.8020    1.8250    0.0040 O   0  0  0  0  0  0  0  0  0  0  0  0
   -5.6200    0.5120   -0.3620 C   0  0  0  0  0  0  0  0  0  0  0  0
   -4.5060   -0.0740    0.4730 C   0  0  0  0  0  0  0  0  0  0  0  0
   -2.0460    0.1690    0.7790 C   0  0  0  0  0  0  0  0  0  0  0  0
    0.7610    0.3470    0.0250 C   0  0  0  0  0  0  0  0  0  0  0  0
    2.1090    0.3240   -0.5260 C   0  0  1  0  0  0  0  0  0  0  0  0
    3.1570    1.0160    0.3570 C   0  0  0  0  0  0  0  0  0  0  0  0
  1  2  1  0
  3  2  1  1
  3  4  1  0
  3 23  1  0
  5  4  1  1
  5  6  1  0
  5 22  1  0
  6  7  1  0
  8  7  1  6
  8  9  1  0
  8 21  1  0
  9 10  1  1
  9 11  1  0
  9 20  1  0
 11 12  1  0
 12 13  1  0
 13 14  1  0
 14 15  1  6
 14 19  1  0
 14 20  1  0
 15 16  1  0
 16 17  1  0
 17 18  1  0
 18 19  1  0
 22 21  1  1
 22 23  1  0
M  END
