
     RDKit          3D

 21 23  0  0  0  0  0  0  0  0999 V2000
    0.0290    0.7880   -1.1650 O   0  0  0  0  0  0  0  0  0  0  0  0
    0.5250   -0.2510   -0.6030 C   0  0  0  0  0  0  0  0  0  0  0  0
   -0.3200   -1.3490   -0.3890 N   0  0  0  0  0  0  0  0  0  0  0  0
   -1.6940   -1.4750   -0.6960 C   0  0  0  0  0  0  0  0  0  0  0  0
   -2.7060   -0.6520   -0.0110 C   0  0  1  0  0  0  0  0  0  0  0  0
   -2.6670    0.8280   -0.1150 C   0  0  0  0  0  0  0  0  0  0  0  0
   -4.0160    1.3890    0.3230 C   0  0  0  0  0  0  0  0  0  0  0  0
   -4.7730    0.4600    1.2400 C   0  0  0  0  0  0  0  0  0  0  0  0
   -5.1000   -0.8470    0.5400 C   0  0  0  0  0  0  0  0  0  0  0  0
   -4.0870   -1.1040   -0.5660 C   0  0  0  0  0  0  0  0  0  0  0  0
    1.9520   -0.2030   -0.2260 C   0  0  0  0  0  0  0  0  0  0  0  0
    2.5130   -1.2820    0.3750 C   0  0  0  0  0  0  0  0  0  0  0  0
    3.8720   -1.2060    0.7210 C   0  0  0  0  0  0  0  0  0  0  0  0
    4.4440   -2.1790    1.2820 O   0  0  0  0  0  0  0  0  0  0  0  0
    4.5780   -0.0710    0.4490 C   0  0  0  0  0  0  0  0  0  0  0  0
    5.9300    0.0180    0.7880 C   0  0  0  0  0  0  0  0  0  0  0  0
    6.6100    1.1820    0.4970 C   0  0  0  0  0  0  0  0  0  0  0  0
    5.9230    2.2100   -0.1180 C   0  0  0  0  0  0  0  0  0  0  0  0
    4.6000    2.1130   -0.4460 C   0  0  0  0  0  0  0  0  0  0  0  0
    3.9060    0.9630   -0.1640 C   0  0  0  0  0  0  0  0  0  0  0  0
    2.6410    0.8840   -0.4830 O   0  0  0  0  0  0  0  0  0  0  0  0
  1  2  2  0
  2  3  1  0
  2 11  1  0
  3  4  1  0
  5  4  1  6
  5  6  1  0
  5 10  1  0
  6  7  1  0
  7  8  1  0
  8  9  1  0
  9 10  1  0
 11 12  2  0
 11 21  1  0
 12 13  1  0
 13 14  2  0
 13 15  1  0
 15 16  2  0
 15 20  1  0
 16 17  1  0
 17 18  2  0
 18 19  1  0
 19 20  2  0
 20 21  1  0
M  END
