
     RDKit          3D

 23 26  0  0  0  0  0  0  0  0999 V2000
    2.5270    2.1700    0.6230 C   0  0  0  0  0  0  0  0  0  0  0  0
    1.8710    1.0070   -0.0920 C   0  0  2  0  0  0  0  0  0  0  0  0
    0.6490    0.5110    0.6440 C   0  0  1  0  0  0  0  0  0  0  0  0
   -0.4170    1.4970    0.8280 C   0  0  0  0  0  0  0  0  0  0  0  0
   -1.6760    1.0370    0.0950 C   0  0  1  0  0  0  0  0  0  0  0  0
   -1.7100    1.8350   -1.1830 C   0  0  0  0  0  0  0  0  0  0  0  0
   -2.2520    1.1410   -2.3710 C   0  0  0  0  0  0  0  0  0  0  0  0
   -1.6540   -0.2350   -2.5630 C   0  0  0  0  0  0  0  0  0  0  0  0
   -1.9890   -1.0240   -1.3500 C   0  0  0  0  0  0  0  0  0  0  0  0
   -1.4890   -0.4170   -0.0470 C   0  0  1  0  0  0  0  0  0  0  0  0
    0.0070   -0.6500   -0.0280 C   0  0  0  0  0  0  0  0  0  0  0  0
   -2.2200   -1.2350    1.0110 C   0  0  2  0  0  0  0  0  0  0  0  0
   -1.6350   -1.1560    2.3720 C   0  0  0  0  0  0  0  0  0  0  0  0
   -2.1680   -2.7130    0.5930 C   0  0  0  0  0  0  0  0  0  0  0  0
   -3.5360   -0.8830    0.9460 O   0  0  0  0  0  0  0  0  0  0  0  0
   -3.8690    0.4100    1.1800 C   0  0  0  0  0  0  0  0  0  0  0  0
   -2.8530    1.4480    0.9400 C   0  0  0  0  0  0  0  0  0  0  0  0
    2.8470   -0.0780   -0.3980 C   0  0  2  0  0  0  0  0  0  0  0  0
    3.5230   -0.6800    0.8040 C   0  0  0  0  0  0  0  0  0  0  0  0
    4.6110   -1.5210    0.1130 C   0  0  0  0  0  0  0  0  0  0  0  0
    4.9240   -0.8070   -1.1680 C   0  0  0  0  0  0  0  0  0  0  0  0
    4.0090    0.3480   -1.1920 C   0  0  0  0  0  0  0  0  0  0  0  0
    4.2070    1.3870   -1.7490 O   0  0  0  0  0  0  0  0  0  0  0  0
  2  1  1  1
  2  3  1  0
  2 18  1  0
  3  4  1  6
  3 11  1  0
  5  4  1  1
  5  6  1  0
  5 10  1  0
  5 17  1  0
  6  7  1  0
  7  8  1  0
  8  9  1  0
 10  9  1  6
 10 11  1  0
 10 12  1  0
 12 13  1  1
 12 14  1  0
 12 15  1  0
 15 16  1  0
 16 17  1  0
 18 19  1  1
 18 22  1  0
 19 20  1  0
 20 21  1  0
 21 22  1  0
 22 23  2  0
M  END
