
     RDKit          3D

 23 26  0  0  0  0  0  0  0  0999 V2000
   -0.9980    3.6780    0.4750 C   0  0  0  0  0  0  0  0  0  0  0  0
   -0.7500    2.4450   -0.3440 C   0  0  0  0  0  0  0  0  0  0  0  0
   -0.9570    1.1760    0.4900 C   0  0  1  0  0  0  0  0  0  0  0  0
   -2.3960    1.1380    1.0070 C   0  0  0  0  0  0  0  0  0  0  0  0
   -2.7400   -0.3600    1.0830 C   0  0  1  0  0  0  0  0  0  0  0  0
   -4.0920   -0.4290    1.1440 O   0  0  0  0  0  0  0  0  0  0  0  0
   -4.7510   -1.2950    0.3310 C   0  0  0  0  0  0  0  0  0  0  0  0
   -4.2900   -1.3280   -1.0940 C   0  0  0  0  0  0  0  0  0  0  0  0
   -3.0300   -0.5590   -1.3160 C   0  0  0  0  0  0  0  0  0  0  0  0
   -2.0810   -0.8540   -0.1570 C   0  0  2  0  0  0  0  0  0  0  0  0
   -1.7840   -2.3090   -0.1910 C   0  0  0  0  0  0  0  0  0  0  0  0
   -0.7920   -2.8040    0.7990 C   0  0  0  0  0  0  0  0  0  0  0  0
    0.3160   -1.8180    1.1060 C   0  0  0  0  0  0  0  0  0  0  0  0
    0.4030   -0.8890   -0.0820 C   0  0  2  0  0  0  0  0  0  0  0  0
    1.7030   -0.1980   -0.2310 C   0  0  1  0  0  0  0  0  0  0  0  0
    2.1800    0.6350    0.9080 C   0  0  0  0  0  0  0  0  0  0  0  0
    3.6730    0.5260    1.1390 C   0  0  0  0  0  0  0  0  0  0  0  0
    4.5130    0.4960   -0.0780 C   0  0  2  0  0  0  0  0  0  0  0  0
    5.0710    1.8580   -0.4480 C   0  0  0  0  0  0  0  0  0  0  0  0
    3.8950   -0.2000   -1.2480 C   0  0  0  0  0  0  0  0  0  0  0  0
    2.8300   -1.1320   -0.7140 C   0  0  0  0  0  0  0  0  0  0  0  0
   -0.8130   -0.0570   -0.3110 C   0  0  2  0  0  0  0  0  0  0  0  0
   -0.7620    0.3490   -1.6690 O   0  0  0  0  0  0  0  0  0  0  0  0
  1  2  1  0
  3  2  1  6
  3  4  1  0
  3 22  1  0
  5  4  1  6
  5  6  1  0
  5 10  1  0
  6  7  1  0
  7  8  1  0
  8  9  1  0
 10  9  1  6
 10 11  1  0
 10 22  1  0
 11 12  1  0
 12 13  1  0
 14 13  1  1
 14 15  1  0
 14 22  1  0
 15 16  1  1
 15 21  1  0
 16 17  1  0
 17 18  1  0
 18 19  1  6
 18 20  1  0
 20 21  1  0
 22 23  1  6
M  END
