
     RDKit          3D

 23 26  0  0  0  0  0  0  0  0999 V2000
    4.8550   -1.7120    0.3420 C   0  0  0  0  0  0  0  0  0  0  0  0
    4.9180   -0.2960   -0.1730 C   0  0  0  0  0  0  0  0  0  0  0  0
    6.0470    0.3400   -0.4790 C   0  0  0  0  0  0  0  0  0  0  0  0
    5.7610    1.7090   -0.9530 C   0  0  0  0  0  0  0  0  0  0  0  0
    4.2960    1.7660   -0.8740 C   0  0  0  0  0  0  0  0  0  0  0  0
    3.8050    0.5940   -0.4180 C   0  0  0  0  0  0  0  0  0  0  0  0
    2.3630    0.3290   -0.2200 C   0  0  1  0  0  0  0  0  0  0  0  0
    1.7840   -0.6930   -1.1420 C   0  0  0  0  0  0  0  0  0  0  0  0
    0.2990   -0.4490   -1.1450 C   0  0  0  0  0  0  0  0  0  0  0  0
   -0.2690   -0.2930    0.0230 C   0  0  0  0  0  0  0  0  0  0  0  0
   -1.7310   -0.0510    0.0990 C   0  0  1  0  0  0  0  0  0  0  0  0
   -1.8860    1.3350    0.6540 C   0  0  0  0  0  0  0  0  0  0  0  0
   -3.2790    1.8310    0.7870 C   0  0  0  0  0  0  0  0  0  0  0  0
   -4.0410    1.8310   -0.5200 C   0  0  0  0  0  0  0  0  0  0  0  0
   -4.6930    0.5220   -0.8080 C   0  0  0  0  0  0  0  0  0  0  0  0
   -3.7680   -0.6340   -0.8690 C   0  0  1  0  0  0  0  0  0  0  0  0
   -2.3380   -0.2940   -1.2310 C   0  0  0  0  0  0  0  0  0  0  0  0
   -3.6050   -1.2480    0.4750 C   0  0  1  0  0  0  0  0  0  0  0  0
   -3.8580   -2.7510    0.3130 C   0  0  0  0  0  0  0  0  0  0  0  0
   -2.3190   -1.0090    0.9320 O   0  0  0  0  0  0  0  0  0  0  0  0
    0.5580   -0.3340    1.2470 C   0  0  0  0  0  0  0  0  0  0  0  0
   -0.0390   -0.6420    2.3090 O   0  0  0  0  0  0  0  0  0  0  0  0
    2.0220   -0.0270    1.2190 C   0  0  0  0  0  0  0  0  0  0  0  0
  1  2  1  0
  2  3  2  0
  2  6  1  0
  3  4  1  0
  4  5  1  0
  5  6  2  0
  7  6  1  1
  7  8  1  0
  7 23  1  0
  8  9  1  0
  9 10  2  0
 11 10  1  6
 10 21  1  0
 11 12  1  0
 11 17  1  0
 11 20  1  0
 12 13  1  0
 13 14  1  0
 14 15  1  0
 16 15  1  1
 16 17  1  0
 16 18  1  0
 18 19  1  6
 18 20  1  0
 21 22  2  0
 21 23  1  0
M  END
