
     RDKit          3D

 23 25  0  0  0  0  0  0  0  0999 V2000
    3.4040   -1.0050   -1.4520 C   0  0  0  0  0  0  0  0  0  0  0  0
    3.6080   -0.7660   -0.0120 C   0  0  1  0  0  0  0  0  0  0  0  0
    4.5980    0.4000    0.1190 C   0  0  0  0  0  0  0  0  0  0  0  0
    4.0860    1.6350   -0.5940 C   0  0  0  0  0  0  0  0  0  0  0  0
    2.5680    1.6730   -0.5270 C   0  0  0  0  0  0  0  0  0  0  0  0
    2.1730    1.0400    0.7820 C   0  0  1  0  0  0  0  0  0  0  0  0
    0.9100    1.4930    1.3550 C   0  0  0  0  0  0  0  0  0  0  0  0
   -0.2180    1.8360    0.8230 C   0  0  0  0  0  0  0  0  0  0  0  0
   -0.6510    1.8970   -0.5890 C   0  0  0  0  0  0  0  0  0  0  0  0
   -2.1450    1.8690   -0.7470 C   0  0  0  0  0  0  0  0  0  0  0  0
   -2.8400    0.8040    0.0660 C   0  0  1  0  0  0  0  0  0  0  0  0
   -4.3380    1.1980   -0.0530 C   0  0  0  0  0  0  0  0  0  0  0  0
   -4.8290    0.8190   -1.2800 O   0  0  0  0  0  0  0  0  0  0  0  0
   -5.1530   -0.5470   -1.1870 C   0  0  0  0  0  0  0  0  0  0  0  0
   -4.1620   -1.1790   -0.2680 C   0  0  0  0  0  0  0  0  0  0  0  0
   -2.7520   -0.5710   -0.4420 C   0  0  2  0  0  0  0  0  0  0  0  0
   -1.7440   -1.5240    0.0360 C   0  0  0  0  0  0  0  0  0  0  0  0
   -1.1870   -1.3940    1.3900 C   0  0  0  0  0  0  0  0  0  0  0  0
    0.2760   -1.5280    1.5840 C   0  0  0  0  0  0  0  0  0  0  0  0
    1.1870   -1.2770    0.4410 C   0  0  2  0  0  0  0  0  0  0  0  0
    1.7080   -2.6400    0.0230 C   0  0  0  0  0  0  0  0  0  0  0  0
    2.4790   -3.2020    0.7600 O   0  0  0  0  0  0  0  0  0  0  0  0
    2.4220   -0.4450    0.8130 C   0  0  1  0  0  0  0  0  0  0  0  0
  2  1  1  6
  2  3  1  0
 23  2  1  6
  3  4  1  0
  4  5  1  0
  6  5  1  6
  6  7  1  0
  6 23  1  0
  7  8  2  0
  8  9  1  0
  9 10  1  0
 11 10  1  6
 11 12  1  0
 11 16  1  0
 12 13  1  0
 13 14  1  0
 14 15  1  0
 16 15  1  1
 16 17  1  0
 17 18  1  0
 18 19  1  0
 19 20  1  0
 20 21  1  1
 20 23  1  0
 21 22  2  0
M  END
