
     RDKit          3D

 15 16  0  0  0  0  0  0  0  0999 V2000
   -2.5900   -2.6380   -0.2460 O   0  0  0  0  0  0  0  0  0  0  0  0
   -2.4730   -1.3980   -0.1190 C   0  0  0  0  0  0  0  0  0  0  0  0
   -3.6080   -0.4590    0.0740 C   0  0  0  0  0  0  0  0  0  0  0  0
   -3.3870    0.6430   -0.7260 O   0  0  0  0  0  0  0  0  0  0  0  0
   -2.3330    1.4120   -0.2420 C   0  0  0  0  0  0  0  0  0  0  0  0
   -1.0580    0.6530   -0.2140 C   0  0  0  0  0  0  0  0  0  0  0  0
   -0.0130    1.4540   -0.2460 C   0  0  0  0  0  0  0  0  0  0  0  0
    1.4130    1.0650   -0.2330 C   0  0  0  0  0  0  0  0  0  0  0  0
    2.3230    2.1120   -0.2600 O   0  0  0  0  0  0  0  0  0  0  0  0
    1.9180   -0.1720   -0.1980 C   0  0  0  0  0  0  0  0  0  0  0  0
    3.3960   -0.2550   -0.1930 C   0  0  0  0  0  0  0  0  0  0  0  0
    3.8330   -0.9070    0.9650 O   0  0  0  0  0  0  0  0  0  0  0  0
    1.2680   -1.4290   -0.1650 N   0  0  0  0  0  0  0  0  0  0  0  0
   -0.1350   -1.6570   -0.1390 C   0  0  0  0  0  0  0  0  0  0  0  0
   -1.1470   -0.7990   -0.1580 C   0  0  0  0  0  0  0  0  0  0  0  0
  1  2  2  0
  2  3  1  0
  2 15  1  0
  3  4  1  0
  4  5  1  0
  5  6  1  0
  6  7  2  0
  6 15  1  0
  7  8  1  0
  8  9  1  0
  8 10  2  0
 10 11  1  0
 10 13  1  0
 11 12  1  0
 13 14  1  0
 14 15  2  0
M  END
