
     RDKit          3D

 16 17  0  0  0  0  0  0  0  0999 V2000
   -3.5970    0.4140    0.7970 C   0  0  0  0  0  0  0  0  0  0  0  0
   -2.1830    0.0360    0.4490 C   0  0  0  0  0  0  0  0  0  0  0  0
   -1.8680   -1.2390    0.0550 C   0  0  0  0  0  0  0  0  0  0  0  0
   -0.5610   -1.5020   -0.2440 C   0  0  0  0  0  0  0  0  0  0  0  0
    0.4640   -0.5360   -0.1670 C   0  0  0  0  0  0  0  0  0  0  0  0
    0.0830    0.7080    0.2300 C   0  0  0  0  0  0  0  0  0  0  0  0
   -1.2250    1.0150    0.5410 C   0  0  0  0  0  0  0  0  0  0  0  0
   -1.5180    2.3490    0.9460 N   0  0  0  0  0  0  0  0  0  0  0  0
    1.8360   -0.8030   -0.4700 C   0  0  0  0  0  0  0  0  0  0  0  0
    2.8430   -0.0090   -0.4360 C   0  0  0  0  0  0  0  0  0  0  0  0
    3.3320    1.2750   -0.1870 C   0  0  0  0  0  0  0  0  0  0  0  0
    4.6360    1.5170   -0.3450 O   0  0  0  0  0  0  0  0  0  0  0  0
    2.6870    2.4050    0.2150 O   0  0  0  0  0  0  0  0  0  0  0  0
    2.0570   -2.1760   -0.8660 O   0  0  0  0  0  0  0  0  0  0  0  0
    1.0220   -2.9940   -1.3450 C   0  0  0  0  0  0  0  0  0  0  0  0
   -0.1880   -2.7730   -0.6470 O   0  0  0  0  0  0  0  0  0  0  0  0
  1  2  1  0
  2  3  2  0
  2  7  1  0
  3  4  1  0
  4  5  2  0
  4 16  1  0
  5  6  1  0
  5  9  1  0
  6  7  2  0
  7  8  1  0
  9 10  2  3
  9 14  1  0
 10 11  1  0
 11 12  2  0
 11 13  1  0
 14 15  1  0
 15 16  1  0
M  END
