
     RDKit          3D

 16 17  0  0  0  0  0  0  0  0999 V2000
    3.9990    0.1790    1.0130 C   0  0  0  0  0  0  0  0  0  0  0  0
    2.9070    0.3530    0.2520 C   0  0  0  0  0  0  0  0  0  0  0  0
    2.8670    0.9300   -1.0840 C   0  0  0  0  0  0  0  0  0  0  0  0
    3.8270    1.3660   -1.7680 O   0  0  0  0  0  0  0  0  0  0  0  0
    1.4580    0.8880   -1.4550 C   0  0  0  0  0  0  0  0  0  0  0  0
    0.9590    1.2920   -2.5470 O   0  0  0  0  0  0  0  0  0  0  0  0
    0.6760    0.2920   -0.3470 C   0  0  0  0  0  0  0  0  0  0  0  0
   -0.7850    0.1030   -0.3970 C   0  0  0  0  0  0  0  0  0  0  0  0
   -1.6000    0.4160   -1.3870 C   0  0  0  0  0  0  0  0  0  0  0  0
   -2.9720    0.0680   -1.0420 C   0  0  0  0  0  0  0  0  0  0  0  0
   -3.0280   -0.4630    0.1580 C   0  0  0  0  0  0  0  0  0  0  0  0
   -4.1590   -0.9410    0.8780 N   0  0  0  0  0  0  0  0  0  0  0  0
   -1.6250   -0.4690    0.6370 C   0  0  0  0  0  0  0  0  0  0  0  0
   -1.3000   -0.9110    1.7570 O   0  0  0  0  0  0  0  0  0  0  0  0
    1.5430    0.0100    0.5870 C   0  0  0  0  0  0  0  0  0  0  0  0
    1.2310   -0.5740    1.8230 O   0  0  0  0  0  0  0  0  0  0  0  0
  1  2  2  0
  2  3  1  0
  2 15  1  0
  3  4  2  0
  3  5  1  0
  5  6  2  0
  5  7  1  0
  7  8  1  0
  7 15  2  0
  8  9  2  0
  8 13  1  0
  9 10  1  0
 10 11  2  0
 11 12  1  0
 11 13  1  0
 13 14  2  0
 15 16  1  0
M  END
