
     RDKit          3D

 16 17  0  0  0  0  0  0  0  0999 V2000
   -3.4980   -0.4730   -1.6840 C   0  0  0  0  0  0  0  0  0  0  0  0
   -2.2320   -0.4020   -0.9060 C   0  0  0  0  0  0  0  0  0  0  0  0
   -1.1250   -0.7600   -1.5210 C   0  0  0  0  0  0  0  0  0  0  0  0
    0.1870   -0.7810   -1.0050 O   0  0  0  0  0  0  0  0  0  0  0  0
    0.6870   -0.0380    0.0620 C   0  0  0  0  0  0  0  0  0  0  0  0
    0.0440    0.5140    1.0970 C   0  0  0  0  0  0  0  0  0  0  0  0
   -1.3910    0.4480    1.3350 C   0  0  0  0  0  0  0  0  0  0  0  0
   -2.3280    0.0620    0.4840 C   0  0  0  0  0  0  0  0  0  0  0  0
   -3.6600    0.0920    0.9690 N   0  0  0  0  0  0  0  0  0  0  0  0
    1.0210    1.1890    1.9410 C   0  0  0  0  0  0  0  0  0  0  0  0
    0.7250    1.8060    2.9970 O   0  0  0  0  0  0  0  0  0  0  0  0
    2.2480    0.9940    1.3380 O   0  0  0  0  0  0  0  0  0  0  0  0
    2.1120    0.2480    0.1780 C   0  0  0  0  0  0  0  0  0  0  0  0
    3.0840   -0.1180   -0.6370 C   0  0  0  0  0  0  0  0  0  0  0  0
    4.4790    0.2850   -0.3270 C   0  0  0  0  0  0  0  0  0  0  0  0
    5.2100   -0.9150   -0.1850 O   0  0  0  0  0  0  0  0  0  0  0  0
  1  2  1  0
  2  3  2  0
  2  8  1  0
  3  4  1  0
  4  5  1  0
  5  6  2  0
  5 13  1  0
  6  7  1  0
  6 10  1  0
  7  8  2  0
  8  9  1  0
 10 11  2  0
 10 12  1  0
 12 13  1  0
 13 14  2  3
 14 15  1  0
 15 16  1  0
M  END
