
     RDKit          3D

 19 20  0  0  0  0  0  0  0  0999 V2000
   -4.5710    0.2110   -0.4450 C   0  0  0  0  0  0  0  0  0  0  0  0
   -3.4570    0.4550    0.4950 C   0  0  0  0  0  0  0  0  0  0  0  0
   -3.5660    0.3460    1.7700 N   0  0  0  0  0  0  0  0  0  0  0  0
   -2.3460    0.6370    2.4160 N   0  0  0  0  0  0  0  0  0  0  0  0
   -1.3800    0.9600    1.4280 C   0  0  0  0  0  0  0  0  0  0  0  0
   -0.1990    1.2660    1.6400 O   0  0  0  0  0  0  0  0  0  0  0  0
   -2.0770    0.8540    0.1210 C   0  0  1  0  0  0  0  0  0  0  0  0
   -1.3920   -0.2720   -0.6390 C   0  0  2  0  0  0  0  0  0  0  0  0
   -1.3340   -1.4070    0.2280 N   0  0  0  0  0  0  0  0  0  0  0  0
   -0.5100   -2.4260   -0.2510 N   0  0  0  0  0  0  0  0  0  0  0  0
    0.7930   -2.0060   -0.7170 C   0  0  0  0  0  0  0  0  0  0  0  0
    1.7100   -2.8640   -0.7110 O   0  0  0  0  0  0  0  0  0  0  0  0
    0.9890   -0.6340   -1.1660 C   0  0  0  0  0  0  0  0  0  0  0  0
    2.2190   -0.2520   -1.6020 O   0  0  0  0  0  0  0  0  0  0  0  0
    3.2590    0.2910   -0.8730 C   0  0  0  0  0  0  0  0  0  0  0  0
    3.7580   -0.5930    0.2440 C   0  0  0  0  0  0  0  0  0  0  0  0
    4.8460    0.0380    0.9630 N   0  0  0  0  0  0  0  0  0  0  0  0
   -0.0670    0.1620   -1.1160 C   0  0  0  0  0  0  0  0  0  0  0  0
    0.1880    1.5580   -1.6010 C   0  0  0  0  0  0  0  0  0  0  0  0
  1  2  1  0
  2  3  2  0
  7  2  1  1
  3  4  1  0
  4  5  1  0
  5  6  2  0
  5  7  1  0
  7  8  1  0
  8  9  1  1
  8 18  1  0
  9 10  1  0
 10 11  1  0
 11 12  2  0
 11 13  1  0
 13 14  1  0
 13 18  2  0
 14 15  1  0
 15 16  1  0
 16 17  1  0
 18 19  1  0
M  CHG  2   3   1  17   1
M  END
