
     RDKit          3D

 20 21  0  0  0  0  0  0  0  0999 V2000
   -0.6170   -2.6710   -0.3050 C   0  0  0  0  0  0  0  0  0  0  0  0
   -0.2820   -1.4240    0.3560 N   0  0  0  0  0  0  0  0  0  0  0  0
    0.0980   -1.2290    1.7170 C   0  0  0  0  0  0  0  0  0  0  0  0
   -0.0170   -2.2690    2.6960 N   0  0  0  0  0  0  0  0  0  0  0  0
    0.5380   -0.0370    1.9240 N   0  0  0  0  0  0  0  0  0  0  0  0
    0.5050    0.7320    0.6880 C   0  0  1  0  0  0  0  0  0  0  0  0
    1.8500    1.1810    0.2560 C   0  0  0  0  0  0  0  0  0  0  0  0
    2.8560    0.1140    0.0040 C   0  0  0  0  0  0  0  0  0  0  0  0
    4.1770    0.7600   -0.4280 C   0  0  0  0  0  0  0  0  0  0  0  0
    3.9620    1.4880   -1.5870 O   0  0  0  0  0  0  0  0  0  0  0  0
   -0.2680   -0.1260   -0.2340 C   0  0  1  0  0  0  0  0  0  0  0  0
    0.1620   -0.1820   -1.5920 N   0  0  0  0  0  0  0  0  0  0  0  0
   -0.0830    0.9700   -2.3890 C   0  0  0  0  0  0  0  0  0  0  0  0
    0.6450    1.2440   -3.3990 O   0  0  0  0  0  0  0  0  0  0  0  0
   -1.1960    1.8300   -2.0150 C   0  0  0  0  0  0  0  0  0  0  0  0
   -1.9690    1.5890   -0.9910 N   0  0  0  0  0  0  0  0  0  0  0  0
   -1.7010    0.4280   -0.2170 C   0  0  0  0  0  0  0  0  0  0  0  0
   -2.5920   -0.1820    0.4920 C   0  0  0  0  0  0  0  0  0  0  0  0
   -4.0060    0.1150    0.6900 C   0  0  0  0  0  0  0  0  0  0  0  0
   -4.5360    1.1930    0.0540 O   0  0  0  0  0  0  0  0  0  0  0  0
  1  2  1  0
  2  3  1  0
  2 11  1  0
  3  4  1  0
  3  5  2  0
  5  6  1  0
  6  7  1  6
  6 11  1  0
  7  8  1  0
  8  9  1  0
  9 10  1  0
 11 12  1  6
 11 17  1  0
 12 13  1  0
 13 14  2  0
 13 15  1  0
 15 16  2  0
 16 17  1  0
 17 18  2  3
 18 19  1  0
 19 20  1  0
M  CHG  2   5   1  16   1
M  END
