
     RDKit          3D

 43 46  0  0  0  0  0  0  0  0999 V2000
   -7.4450    4.9550   -1.6710 O   0  0  0  0  0  0  0  0  0  0  0  0
   -8.4750    3.7940   -1.6160 P   0  0  0  0  0  0  0  0  0  0  0  0
   -8.0430    2.1760   -1.1870 O   0  0  0  0  0  0  0  0  0  0  0  0
   -6.6820    1.9590   -1.3920 C   0  0  0  0  0  0  0  0  0  0  0  0
   -6.2660    0.5630   -1.0300 C   0  0  2  0  0  0  0  0  0  0  0  0
   -6.5570    0.3550    0.3390 O   0  0  0  0  0  0  0  0  0  0  0  0
   -7.3220   -0.7060    0.7920 C   0  0  0  0  0  0  0  0  0  0  0  0
   -7.7800   -1.5240   -0.0410 O   0  0  0  0  0  0  0  0  0  0  0  0
   -7.5760   -0.8620    2.1470 O   0  0  0  0  0  0  0  0  0  0  0  0
   -4.7570    0.5140   -1.1310 C   0  0  0  0  0  0  0  0  0  0  0  0
   -4.0510   -0.1230   -2.0320 N   0  0  0  0  0  0  0  0  0  0  0  0
   -2.6870    0.0620   -1.8060 C   0  0  0  0  0  0  0  0  0  0  0  0
   -2.6360    0.8450   -0.7170 C   0  0  0  0  0  0  0  0  0  0  0  0
   -3.9220    1.1010   -0.3340 O   0  0  0  0  0  0  0  0  0  0  0  0
   -1.5340    1.4160    0.0550 C   0  0  0  0  0  0  0  0  0  0  0  0
   -0.9080    1.0630    1.0660 N   0  0  0  0  0  0  0  0  0  0  0  0
   -0.8470    0.0330    2.0030 C   0  0  0  0  0  0  0  0  0  0  0  0
   -1.6760   -0.7380    2.7540 N   0  0  0  0  0  0  0  0  0  0  0  0
   -1.0450   -1.6050    3.5110 C   0  0  0  0  0  0  0  0  0  0  0  0
    0.2930   -1.4170    3.2640 C   0  0  0  0  0  0  0  0  0  0  0  0
    0.4000   -0.4430    2.3690 N   0  0  0  0  0  0  0  0  0  0  0  0
    1.5920    0.1420    1.7860 C   0  0  0  0  0  0  0  0  0  0  0  0
    2.6350   -0.7430    1.2850 C   0  0  1  0  0  0  0  0  0  0  0  0
    3.1640   -0.2570    0.0880 O   0  0  0  0  0  0  0  0  0  0  0  0
    3.7370    0.9720    0.1350 C   0  0  0  0  0  0  0  0  0  0  0  0
    4.2820    1.3390   -1.2550 C   0  0  0  0  0  0  0  0  0  0  0  0
    4.8710    2.6170   -1.1810 O   0  0  0  0  0  0  0  0  0  0  0  0
    5.5010    3.0780   -2.7240 P   0  0  0  0  0  0  0  0  0  0  0  0
    7.1430    2.5490   -2.9140 O   0  0  0  0  0  0  0  0  0  0  0  0
    5.4880    4.8120   -2.9080 O   0  0  0  0  0  0  0  0  0  0  0  0
    3.8020   -0.5600    2.2980 C   0  0  0  0  0  0  0  0  0  0  0  0
    5.0050   -0.9740    1.6660 N   0  0  0  0  0  0  0  0  0  0  0  0
    4.9350   -2.0580    0.7580 C   0  0  0  0  0  0  0  0  0  0  0  0
    6.0080   -2.5290    0.2980 O   0  0  0  0  0  0  0  0  0  0  0  0
    3.6860   -2.6760    0.3130 C   0  0  0  0  0  0  0  0  0  0  0  0
    2.4730   -2.1820    1.1470 C   0  0  2  0  0  0  0  0  0  0  0  0
    1.3710   -2.8330    0.5810 N   0  0  0  0  0  0  0  0  0  0  0  0
    0.5860   -2.6210   -0.5570 C   0  0  0  0  0  0  0  0  0  0  0  0
    0.4330   -3.5700   -1.4160 O   0  0  0  0  0  0  0  0  0  0  0  0
   -0.1400   -1.3930   -0.9440 C   0  0  0  0  0  0  0  0  0  0  0  0
   -0.6020   -1.3640   -2.3220 N   0  0  0  0  0  0  0  0  0  0  0  0
   -1.6720   -0.5050   -2.6760 C   0  0  0  0  0  0  0  0  0  0  0  0
   -1.6760   -0.2400   -3.9440 O   0  0  0  0  0  0  0  0  0  0  0  0
  1  2  2  0
  2  3  1  0
  3  4  1  0
  5  4  1  1
  5  6  1  0
  5 10  1  0
  6  7  1  0
  7  8  2  0
  7  9  1  0
 10 11  2  0
 10 14  1  0
 11 12  1  0
 12 13  2  0
 12 42  1  0
 13 14  1  0
 13 15  1  0
 15 16  2  0
 16 17  1  0
 17 18  2  0
 17 21  1  0
 18 19  1  0
 19 20  2  0
 20 21  1  0
 21 22  1  0
 22 23  1  0
 23 24  1  6
 23 31  1  0
 23 36  1  0
 24 25  1  0
 25 26  1  0
 26 27  1  0
 27 28  1  0
 28 29  1  0
 28 30  1  0
 31 32  1  0
 32 33  1  0
 33 34  2  0
 33 35  1  0
 36 35  1  6
 36 37  1  0
 37 38  1  0
 38 39  2  0
 38 40  1  0
 40 41  1  0
 41 42  1  0
 42 43  2  0
M  END
