
     RDKit          3D

 28 29  0  0  0  0  0  0  0  0999 V2000
    6.0320    0.9330   -0.2190 N   0  0  0  0  0  0  0  0  0  0  0  0
    5.2850   -0.3010   -0.1330 C   0  0  0  0  0  0  0  0  0  0  0  0
    3.9690   -0.3330    0.1230 N   0  0  0  0  0  0  0  0  0  0  0  0
    3.2610   -1.4820    0.1950 C   0  0  0  0  0  0  0  0  0  0  0  0
    3.9070   -2.6940    0.0010 C   0  0  0  0  0  0  0  0  0  0  0  0
    2.9840   -3.6420    0.1170 N   0  0  0  0  0  0  0  0  0  0  0  0
    1.7740   -3.1060    0.3750 C   0  0  0  0  0  0  0  0  0  0  0  0
    1.9790   -1.7750    0.4170 N   0  0  0  0  0  0  0  0  0  0  0  0
    0.8890   -0.8100    0.6950 C   0  0  0  0  0  0  0  0  0  0  0  0
    0.3930   -0.3810   -0.6300 C   0  0  0  0  0  0  0  0  0  0  0  0
   -0.6920    0.5240   -0.7160 N   0  0  0  0  0  0  0  0  0  0  0  0
   -0.4330    1.8810   -1.1010 C   0  0  0  0  0  0  0  0  0  0  0  0
   -0.5270    2.8090   -0.1960 C   0  0  0  0  0  0  0  0  0  0  0  0
   -0.2290    4.5470   -0.5420 P   0  0  2  0  0  0  0  0  0  0  0  0
   -1.5120    5.2820   -0.1790 O   0  0  0  0  0  0  0  0  0  0  0  0
    0.1970    4.8020   -2.1390 O   0  0  0  0  0  0  0  0  0  0  0  0
    1.0380    5.0200    0.4920 O   0  0  0  0  0  0  0  0  0  0  0  0
   -2.0860    0.2520   -0.4300 C   0  0  0  0  0  0  0  0  0  0  0  0
   -2.4760    0.0340    0.9680 C   0  0  0  0  0  0  0  0  0  0  0  0
   -3.8620   -0.1980    1.0300 O   0  0  0  0  0  0  0  0  0  0  0  0
   -4.3050   -1.2950    0.3620 C   0  0  0  0  0  0  0  0  0  0  0  0
   -6.1250   -1.3750    0.6240 P   0  0  1  0  0  0  0  0  0  0  0  0
   -6.7560   -0.0670    0.2140 O   0  0  0  0  0  0  0  0  0  0  0  0
   -6.7510   -2.6430   -0.2980 O   0  0  0  0  0  0  0  0  0  0  0  0
   -6.4840   -1.6620    2.2480 O   0  0  0  0  0  0  0  0  0  0  0  0
    5.2590   -2.6510   -0.2610 C   0  0  0  0  0  0  0  0  0  0  0  0
    5.8390   -3.7590   -0.4350 O   0  0  0  0  0  0  0  0  0  0  0  0
    5.9070   -1.4870   -0.3220 N   0  0  0  0  0  0  0  0  0  0  0  0
  1  2  1  0
  2  3  2  0
  2 28  1  0
  3  4  1  0
  4  5  2  0
  4  8  1  0
  5  6  1  0
  5 26  1  0
  6  7  2  0
  7  8  1  0
  8  9  1  0
  9 10  1  0
 10 11  1  0
 11 12  1  0
 11 18  1  0
 12 13  2  3
 13 14  1  0
 14 15  2  0
 14 16  1  6
 14 17  1  0
 18 19  1  0
 19 20  1  0
 20 21  1  0
 21 22  1  0
 22 23  2  0
 22 24  1  6
 22 25  1  0
 26 27  2  0
 26 28  1  0
M  END
