
     RDKit          3D

 44 46  0  0  0  0  0  0  0  0999 V2000
   -9.1220   -0.7600    0.9020 C   0  0  0  0  0  0  0  0  0  0  0  0
   -8.9550    0.4400    0.2780 O   0  0  0  0  0  0  0  0  0  0  0  0
   -8.3740    1.3840    1.1390 C   0  0  2  0  0  0  0  0  0  0  0  0
   -9.3290    2.3160    1.5020 O   0  0  0  0  0  0  0  0  0  0  0  0
   -9.0230    3.6120    1.3150 C   0  0  0  0  0  0  0  0  0  0  0  0
   -8.5340    3.8110   -0.1270 C   0  0  2  0  0  0  0  0  0  0  0  0
   -9.4750    3.1520   -1.0880 C   0  0  0  0  0  0  0  0  0  0  0  0
   -7.2270    3.1170   -0.1680 C   0  0  0  0  0  0  0  0  0  0  0  0
   -7.1790    1.9350    0.4610 C   0  0  0  0  0  0  0  0  0  0  0  0
   -5.9420    1.1700    0.5010 C   0  0  0  0  0  0  0  0  0  0  0  0
   -5.9250    0.0780    1.1080 O   0  0  0  0  0  0  0  0  0  0  0  0
   -4.7630    1.6040   -0.1150 N   0  0  0  0  0  0  0  0  0  0  0  0
   -3.5110    0.8860   -0.0850 C   0  0  0  0  0  0  0  0  0  0  0  0
   -3.1570   -0.1820    0.6910 C   0  0  0  0  0  0  0  0  0  0  0  0
   -1.8750   -0.5230    0.3780 N   0  0  0  0  0  0  0  0  0  0  0  0
   -1.3900    0.2650   -0.5550 C   0  0  0  0  0  0  0  0  0  0  0  0
   -0.1080    0.2830   -1.1690 N   0  0  0  0  0  0  0  0  0  0  0  0
    0.2300   -0.7930   -2.0670 C   0  0  0  0  0  0  0  0  0  0  0  0
    0.0770   -2.1580   -1.5640 C   0  0  0  0  0  0  0  0  0  0  0  0
   -1.1440   -2.5510   -1.4540 O   0  0  0  0  0  0  0  0  0  0  0  0
    1.1410   -3.0330   -1.2120 N   0  0  0  0  0  0  0  0  0  0  0  0
    0.9240   -3.9550   -0.1300 C   0  0  1  0  0  0  0  0  0  0  0  0
    0.6390   -3.2360    1.1790 C   0  0  0  0  0  0  0  0  0  0  0  0
   -0.2850   -4.8540   -0.4150 C   0  0  0  0  0  0  0  0  0  0  0  0
    2.0910   -4.8630    0.1410 C   0  0  0  0  0  0  0  0  0  0  0  0
    2.4000   -3.0270   -1.9090 C   0  0  0  0  0  0  0  0  0  0  0  0
    3.6010   -2.7170   -1.0910 C   0  0  0  0  0  0  0  0  0  0  0  0
    4.4610   -1.8170   -1.6770 O   0  0  0  0  0  0  0  0  0  0  0  0
    4.7390   -0.6850   -0.8830 C   0  0  0  0  0  0  0  0  0  0  0  0
    3.5190   -0.0450   -0.3520 C   0  0  1  0  0  0  0  0  0  0  0  0
    3.4470    0.3530    1.0520 C   0  0  0  0  0  0  0  0  0  0  0  0
    4.2630    1.3380    1.7220 C   0  0  0  0  0  0  0  0  0  0  0  0
    5.7320    1.1540    1.7900 C   0  0  0  0  0  0  0  0  0  0  0  0
    6.3280    1.2060    0.5820 O   0  0  0  0  0  0  0  0  0  0  0  0
    7.6800    1.0340    0.6440 C   0  0  0  0  0  0  0  0  0  0  0  0
    8.4230    2.0550    1.4390 C   0  0  0  0  0  0  0  0  0  0  0  0
   10.2460    1.6100    1.3490 P   0  0  0  0  0  0  0  0  0  0  0  0
   11.1410    3.0990    1.4000 O   0  0  0  0  0  0  0  0  0  0  0  0
   10.5450    0.7460   -0.1310 O   0  0  0  0  0  0  0  0  0  0  0  0
    3.2390    1.1190   -1.2840 C   0  0  0  0  0  0  0  0  0  0  0  0
    2.0650    1.6690   -1.4630 C   0  0  0  0  0  0  0  0  0  0  0  0
    0.7880    1.3930   -0.9110 C   0  0  0  0  0  0  0  0  0  0  0  0
    0.3080    2.2250   -0.0520 O   0  0  0  0  0  0  0  0  0  0  0  0
   -2.3940    1.1570   -0.8640 C   0  0  0  0  0  0  0  0  0  0  0  0
  1  2  1  0
  3  2  1  6
  3  4  1  0
  3  9  1  0
  4  5  1  0
  5  6  1  0
  6  7  1  6
  6  8  1  0
  8  9  2  0
  9 10  1  0
 10 11  2  0
 10 12  1  0
 12 13  1  0
 13 14  2  0
 13 44  1  0
 14 15  1  0
 15 16  1  0
 16 17  1  0
 16 44  2  0
 17 18  1  0
 17 42  1  0
 18 19  1  0
 19 20  2  0
 19 21  1  0
 21 22  1  0
 21 26  1  0
 22 23  1  1
 22 24  1  0
 22 25  1  0
 26 27  1  0
 27 28  1  0
 28 29  1  0
 29 30  1  0
 30 31  1  1
 30 40  1  0
 31 32  1  0
 32 33  1  0
 33 34  1  0
 34 35  1  0
 35 36  1  0
 36 37  1  0
 37 38  1  0
 37 39  1  0
 40 41  2  0
 41 42  1  0
 42 43  2  0
M  END
