
     RDKit          3D

 44 45  0  0  0  0  0  0  0  0999 V2000
    2.4820    5.9700    3.0980 C   0  0  0  0  0  0  0  0  0  0  0  0
    1.0870    5.7600    2.8850 C   0  0  0  0  0  0  0  0  0  0  0  0
    0.6750    5.0710    1.7450 C   0  0  0  0  0  0  0  0  0  0  0  0
   -0.3630    4.6490    1.1220 C   0  0  0  0  0  0  0  0  0  0  0  0
   -0.1460    3.8920   -0.1580 C   0  0  0  0  0  0  0  0  0  0  0  0
   -1.1720    3.6380   -0.9950 C   0  0  0  0  0  0  0  0  0  0  0  0
   -1.1950    2.9580   -2.2420 C   0  0  0  0  0  0  0  0  0  0  0  0
   -1.7060    1.9090   -2.8040 C   0  0  0  0  0  0  0  0  0  0  0  0
   -2.5340    0.8870   -2.4310 O   0  0  0  0  0  0  0  0  0  0  0  0
   -2.9820    0.6340   -1.0830 C   0  0  0  0  0  0  0  0  0  0  0  0
   -4.0000    0.8960   -0.5440 N   0  0  0  0  0  0  0  0  0  0  0  0
   -5.1060    1.1220    0.2220 C   0  0  0  0  0  0  0  0  0  0  0  0
   -5.2780    2.1000    1.0050 O   0  0  0  0  0  0  0  0  0  0  0  0
   -6.2710    0.1090    0.1800 C   0  0  0  0  0  0  0  0  0  0  0  0
   -7.4120    0.7130   -0.1100 C   0  0  0  0  0  0  0  0  0  0  0  0
   -8.6080    0.1080   -0.2410 O   0  0  0  0  0  0  0  0  0  0  0  0
   -6.0860   -1.2860    0.4260 C   0  0  0  0  0  0  0  0  0  0  0  0
   -5.9660   -2.5160    0.7290 C   0  0  0  0  0  0  0  0  0  0  0  0
   -5.3610   -3.6450   -0.0140 C   0  0  0  0  0  0  0  0  0  0  0  0
   -6.1780   -4.9720   -0.0740 C   0  0  0  0  0  0  0  0  0  0  0  0
   -4.1780   -3.7770   -0.5660 C   0  0  0  0  0  0  0  0  0  0  0  0
   -3.0390   -2.8750   -0.6310 C   0  0  0  0  0  0  0  0  0  0  0  0
   -2.8730   -2.4730   -1.9030 O   0  0  0  0  0  0  0  0  0  0  0  0
   -2.0960   -2.3090    0.1950 N   0  0  0  0  0  0  0  0  0  0  0  0
   -2.1960   -1.3830    1.3180 C   0  0  0  0  0  0  0  0  0  0  0  0
   -1.6130   -0.0190    0.8430 C   0  0  1  0  0  0  0  0  0  0  0  0
   -0.1950    0.2860    1.2200 C   0  0  0  0  0  0  0  0  0  0  0  0
    0.8200    0.5510    0.2310 C   0  0  2  0  0  0  0  0  0  0  0  0
    0.8020   -0.4380   -0.9640 C   0  0  0  0  0  0  0  0  0  0  0  0
    1.9860   -0.0790    0.9360 O   0  0  0  0  0  0  0  0  0  0  0  0
    3.3160   -0.1530    0.0860 P   0  0  0  0  0  0  0  0  0  0  0  0
    4.7330    0.6290    0.3720 O   0  0  0  0  0  0  0  0  0  0  0  0
    4.8040    1.9820    0.3520 C   0  0  0  0  0  0  0  0  0  0  0  0
    5.8920    2.3740   -0.6840 C   0  0  0  0  0  0  0  0  0  0  0  0
    3.7530   -1.8900   -0.5020 C   0  0  1  0  0  0  0  0  0  0  0  0
    3.8250   -1.9300   -1.9010 O   0  0  0  0  0  0  0  0  0  0  0  0
    5.0360   -2.2850    0.1220 C   0  0  0  0  0  0  0  0  0  0  0  0
    5.5500   -3.5550   -0.0920 N   0  0  0  0  0  0  0  0  0  0  0  0
    6.7390   -3.8640    0.6290 C   0  0  0  0  0  0  0  0  0  0  0  0
    5.2270   -4.3970   -1.1440 C   0  0  0  0  0  0  0  0  0  0  0  0
    1.2640    1.8020   -0.3240 C   0  0  0  0  0  0  0  0  0  0  0  0
    2.2180    1.5360   -1.2770 O   0  0  0  0  0  0  0  0  0  0  0  0
    1.1010    3.1980   -0.2740 N   0  0  0  0  0  0  0  0  0  0  0  0
   -1.8790   -0.0290   -0.4840 O   0  0  0  0  0  0  0  0  0  0  0  0
  1  2  2  0
  2  3  1  0
  3  4  2  3
  4  5  1  0
  5  6  2  0
  5 43  1  0
  6  7  1  0
  7  8  2  0
  8  9  1  0
  9 10  1  0
 10 11  2  0
 10 44  1  0
 11 12  1  0
 12 13  2  0
 12 14  1  0
 14 15  2  3
 14 17  1  0
 15 16  1  0
 17 18  2  0
 18 19  1  0
 19 20  1  0
 19 21  2  0
 21 22  1  0
 22 23  2  0
 22 24  1  0
 24 25  1  0
 26 25  1  6
 26 27  1  0
 26 44  1  0
 27 28  1  0
 28 29  1  6
 28 30  1  0
 28 41  1  0
 30 31  1  0
 31 32  1  0
 31 35  1  0
 32 33  1  0
 33 34  1  0
 35 36  1  6
 35 37  1  0
 37 38  1  0
 38 39  1  0
 38 40  1  0
 41 42  2  0
 41 43  1  0
M  END
