
     RDKit          3D

 44 46  0  0  0  0  0  0  0  0999 V2000
    8.2070   -2.7800   -0.5820 C   0  0  0  0  0  0  0  0  0  0  0  0
    7.8220   -1.5260   -0.8750 C   0  0  0  0  0  0  0  0  0  0  0  0
    7.8870   -1.1950   -2.2020 O   0  0  0  0  0  0  0  0  0  0  0  0
    7.3840   -0.6320    0.1520 C   0  0  0  0  0  0  0  0  0  0  0  0
    6.9860    0.5880    0.0450 C   0  0  0  0  0  0  0  0  0  0  0  0
    6.5730    1.3170    1.3060 C   0  0  0  0  0  0  0  0  0  0  0  0
    5.2380    1.7280    1.2230 O   0  0  0  0  0  0  0  0  0  0  0  0
    4.2320    0.7850    1.0560 C   0  0  0  0  0  0  0  0  0  0  0  0
    4.5730   -0.4140    0.9870 O   0  0  0  0  0  0  0  0  0  0  0  0
    2.8030    1.1350    0.9580 C   0  0  0  0  0  0  0  0  0  0  0  0
    2.0200   -0.0380    0.7980 N   0  0  0  0  0  0  0  0  0  0  0  0
    1.5140   -0.7250    1.9940 C   0  0  0  0  0  0  0  0  0  0  0  0
   -0.0080   -0.8560    1.7500 C   0  0  0  0  0  0  0  0  0  0  0  0
   -0.7170   -0.2540    2.6940 C   0  0  0  0  0  0  0  0  0  0  0  0
   -2.1390   -0.1700    2.7740 C   0  0  0  0  0  0  0  0  0  0  0  0
   -2.9800    0.4270    1.8940 C   0  0  0  0  0  0  0  0  0  0  0  0
   -2.6590    1.1250    0.6720 C   0  0  0  0  0  0  0  0  0  0  0  0
   -2.8800    2.3200    0.2100 C   0  0  0  0  0  0  0  0  0  0  0  0
   -2.3350    2.6710   -1.1630 C   0  0  0  0  0  0  0  0  0  0  0  0
   -3.7400    3.3970    0.7930 C   0  0  0  0  0  0  0  0  0  0  0  0
   -5.1180    3.1510    0.2700 N   0  0  0  0  0  0  0  0  0  0  0  0
   -5.4200    2.5000   -0.9250 C   0  0  0  0  0  0  0  0  0  0  0  0
   -6.1420    3.2030   -1.7640 O   0  0  0  0  0  0  0  0  0  0  0  0
   -5.0930    1.2120   -1.4110 N   0  0  0  0  0  0  0  0  0  0  0  0
   -5.4030   -0.0700   -0.8590 C   0  0  1  0  0  0  0  0  0  0  0  0
   -6.8340   -0.4830   -1.1500 C   0  0  0  0  0  0  0  0  0  0  0  0
   -6.7680   -1.9770   -1.1770 C   0  0  0  0  0  0  0  0  0  0  0  0
   -5.4570   -2.2360   -1.8060 C   0  0  0  0  0  0  0  0  0  0  0  0
   -4.4980   -1.2080   -1.1410 C   0  0  1  0  0  0  0  0  0  0  0  0
   -3.4370   -1.0110   -2.1570 C   0  0  0  0  0  0  0  0  0  0  0  0
   -4.0840   -1.8980    0.1080 C   0  0  0  0  0  0  0  0  0  0  0  0
   -5.0550   -1.8700    0.9870 O   0  0  0  0  0  0  0  0  0  0  0  0
   -2.9360   -2.5500    0.5460 N   0  0  0  0  0  0  0  0  0  0  0  0
   -3.2550   -3.6710    1.5080 C   0  0  0  0  0  0  0  0  0  0  0  0
   -1.5610   -2.4420    0.2810 C   0  0  0  0  0  0  0  0  0  0  0  0
   -1.2150   -3.5320   -0.4740 O   0  0  0  0  0  0  0  0  0  0  0  0
   -0.4530   -1.5550    0.5640 C   0  0  0  0  0  0  0  0  0  0  0  0
    0.4020   -1.4190   -0.4900 C   0  0  0  0  0  0  0  0  0  0  0  0
    1.6440   -0.6650   -0.4170 C   0  0  0  0  0  0  0  0  0  0  0  0
    2.4280   -0.5290   -1.3990 O   0  0  0  0  0  0  0  0  0  0  0  0
    6.8810    1.3660   -1.2010 C   0  0  0  0  0  0  0  0  0  0  0  0
    7.9930    2.8630   -1.0550 P   0  0  0  0  0  0  0  0  0  0  0  0
    7.5730    4.0610   -2.2190 O   0  0  0  0  0  0  0  0  0  0  0  0
    9.6130    2.3440   -1.3080 O   0  0  0  0  0  0  0  0  0  0  0  0
  1  2  2  0
  2  3  1  0
  2  4  1  0
  4  5  2  3
  5  6  1  0
  5 41  1  0
  6  7  1  0
  7  8  1  0
  8  9  2  0
  8 10  1  0
 10 11  1  0
 11 12  1  0
 11 39  1  0
 12 13  1  0
 13 14  2  0
 13 37  1  0
 14 15  1  0
 15 16  2  0
 16 17  1  0
 17 18  2  0
 18 19  1  0
 18 20  1  0
 20 21  1  0
 21 22  1  0
 22 23  2  0
 22 24  1  0
 24 25  1  0
 25 26  1  6
 25 29  1  0
 26 27  1  0
 27 28  1  0
 28 29  1  0
 29 30  1  6
 29 31  1  0
 31 32  2  0
 31 33  1  0
 33 34  1  0
 33 35  1  0
 35 36  2  0
 35 37  1  0
 37 38  2  0
 38 39  1  0
 39 40  2  0
 41 42  1  0
 42 43  1  0
 42 44  1  0
M  END
