
     RDKit          3D

 21 21  0  0  0  0  0  0  0  0999 V2000
   -1.8540    2.9730   -2.9340 C   0  0  0  0  0  0  0  0  0  0  0  0
   -1.4360    2.3690   -1.7500 O   0  0  0  0  0  0  0  0  0  0  0  0
   -2.2170    1.2590   -1.4320 C   0  0  0  0  0  0  0  0  0  0  0  0
   -1.6770    0.6920   -0.1430 C   0  0  2  0  0  0  0  0  0  0  0  0
   -0.3440    0.2990   -0.2500 O   0  0  0  0  0  0  0  0  0  0  0  0
    0.7090    0.8420    0.4230 C   0  0  0  0  0  0  0  0  0  0  0  0
    0.4980    1.7850    1.2220 O   0  0  0  0  0  0  0  0  0  0  0  0
    2.0790    0.3170    0.2050 C   0  0  0  0  0  0  0  0  0  0  0  0
    2.3690   -0.6700   -0.6180 C   0  0  0  0  0  0  0  0  0  0  0  0
    3.8200   -0.9210   -0.5780 C   0  0  1  0  0  0  0  0  0  0  0  0
    4.3700   -0.5880   -1.8170 O   0  0  0  0  0  0  0  0  0  0  0  0
    4.3290    0.0700    0.3940 C   0  0  0  0  0  0  0  0  0  0  0  0
    5.6030    0.2280    0.7650 C   0  0  0  0  0  0  0  0  0  0  0  0
    6.5970   -0.6050    0.2060 N   0  0  0  0  0  0  0  0  0  0  0  0
    3.2310    0.7910    0.8350 O   0  0  0  0  0  0  0  0  0  0  0  0
   -2.5210   -0.3780    0.4120 C   0  0  0  0  0  0  0  0  0  0  0  0
   -1.9690   -1.4650    0.7080 O   0  0  0  0  0  0  0  0  0  0  0  0
   -3.8610   -0.2940    0.6350 O   0  0  0  0  0  0  0  0  0  0  0  0
   -4.7490   -1.2060    1.1410 C   0  0  0  0  0  0  0  0  0  0  0  0
   -4.5630   -1.7220    2.5120 C   0  0  0  0  0  0  0  0  0  0  0  0
   -3.3560   -2.3830    2.7110 O   0  0  0  0  0  0  0  0  0  0  0  0
  1  2  1  0
  2  3  1  0
  4  3  1  6
  4  5  1  0
  4 16  1  0
  5  6  1  0
  6  7  2  0
  6  8  1  0
  8  9  2  0
  8 15  1  0
  9 10  1  0
 10 11  1  6
 10 12  1  0
 12 13  2  3
 12 15  1  0
 13 14  1  0
 16 17  2  0
 16 18  1  0
 18 19  1  0
 19 20  1  0
 20 21  1  0
M  CHG  2  11  -1  14   1
M  END
