
     RDKit          3D

 21 21  0  0  0  0  0  0  0  0999 V2000
   -5.6560    3.0750   -1.0160 C   0  0  0  0  0  0  0  0  0  0  0  0
   -5.5690    1.5840   -1.3600 C   0  0  0  0  0  0  0  0  0  0  0  0
   -4.3140    1.1460   -0.8790 O   0  0  0  0  0  0  0  0  0  0  0  0
   -3.8900   -0.1680   -1.0180 C   0  0  0  0  0  0  0  0  0  0  0  0
   -4.6470   -0.9680   -1.5830 O   0  0  0  0  0  0  0  0  0  0  0  0
   -2.5500   -0.5010   -0.4700 C   0  0  0  0  0  0  0  0  0  0  0  0
   -2.2050   -1.9610   -0.6830 C   0  0  2  0  0  0  0  0  0  0  0  0
   -3.2300   -2.7320    0.0070 N   0  0  0  0  0  0  0  0  0  0  0  0
   -0.9190   -2.2400    0.0140 C   0  0  1  0  0  0  0  0  0  0  0  0
   -0.7020   -3.6330   -0.0460 O   0  0  0  0  0  0  0  0  0  0  0  0
    0.2110   -1.6150   -0.4650 O   0  0  0  0  0  0  0  0  0  0  0  0
    1.0700   -0.8120    0.2640 C   0  0  0  0  0  0  0  0  0  0  0  0
    0.7500   -0.6690    1.4620 O   0  0  0  0  0  0  0  0  0  0  0  0
    2.1880   -0.1980   -0.2220 O   0  0  0  0  0  0  0  0  0  0  0  0
    3.0200    0.6210    0.6150 C   0  0  0  0  0  0  0  0  0  0  0  0
    4.1400    1.1460   -0.1700 C   0  0  0  0  0  0  0  0  0  0  0  0
    5.3940    0.8530    0.1880 C   0  0  0  0  0  0  0  0  0  0  0  0
    5.8040    0.0170    1.3440 C   0  0  0  0  0  0  0  0  0  0  0  0
    7.1460   -0.2400    1.0820 O   0  0  0  0  0  0  0  0  0  0  0  0
    7.6120    0.9450    0.5270 C   0  0  0  0  0  0  0  0  0  0  0  0
    6.5770    1.2490   -0.4190 O   0  0  0  0  0  0  0  0  0  0  0  0
  1  2  1  0
  2  3  1  0
  3  4  1  0
  4  5  2  0
  4  6  1  0
  6  7  1  0
  7  8  1  1
  7  9  1  0
  9 10  1  6
  9 11  1  0
 11 12  1  0
 12 13  2  0
 12 14  1  0
 14 15  1  0
 15 16  1  0
 16 17  2  3
 17 18  1  0
 17 21  1  0
 18 19  1  0
 19 20  1  0
 20 21  1  0
M  CHG  2   8   1  10  -1
M  END
