
     RDKit          3D

 21 21  0  0  0  0  0  0  0  0999 V2000
    3.7440   -0.0600    2.4170 C   0  0  0  0  0  0  0  0  0  0  0  0
    2.9890    1.1040    1.8550 C   0  0  0  0  0  0  0  0  0  0  0  0
    2.1110    0.7390    0.8110 O   0  0  0  0  0  0  0  0  0  0  0  0
    2.5980    0.1450   -0.3400 C   0  0  0  0  0  0  0  0  0  0  0  0
    3.8420   -0.0370   -0.3800 O   0  0  0  0  0  0  0  0  0  0  0  0
    1.7330   -0.2630   -1.4710 C   0  0  1  0  0  0  0  0  0  0  0  0
    2.6760   -0.8760   -2.4250 O   0  0  0  0  0  0  0  0  0  0  0  0
    0.8370   -1.3370   -1.1270 C   0  0  0  0  0  0  0  0  0  0  0  0
    1.4240   -2.6690   -1.2850 O   0  0  0  0  0  0  0  0  0  0  0  0
   -0.3930   -1.3420   -0.6940 C   0  0  0  0  0  0  0  0  0  0  0  0
   -1.0390   -2.6050   -0.4450 O   0  0  0  0  0  0  0  0  0  0  0  0
   -2.4010   -2.7070   -0.8840 C   0  0  0  0  0  0  0  0  0  0  0  0
   -3.2310   -1.6060   -0.3210 C   0  0  0  0  0  0  0  0  0  0  0  0
   -2.5110   -0.4780    0.0440 O   0  0  0  0  0  0  0  0  0  0  0  0
   -1.1910   -0.1840   -0.4260 C   0  0  0  0  0  0  0  0  0  0  0  0
   -0.8470    1.0710   -0.5540 C   0  0  0  0  0  0  0  0  0  0  0  0
   -1.8180    2.1670   -0.2300 C   0  0  1  0  0  0  0  0  0  0  0  0
   -3.1830    1.8240   -0.4640 N   0  0  0  0  0  0  0  0  0  0  0  0
   -1.6140    2.6490    1.1390 C   0  0  0  0  0  0  0  0  0  0  0  0
   -2.0320    3.7660    1.5390 O   0  0  0  0  0  0  0  0  0  0  0  0
   -0.9350    1.8600    2.0510 O   0  0  0  0  0  0  0  0  0  0  0  0
  1  2  1  0
  2  3  1  0
  3  4  1  0
  4  5  2  0
  4  6  1  0
  6  7  1  6
  6  8  1  0
  8  9  1  0
  8 10  2  3
 10 11  1  0
 10 15  1  0
 11 12  1  0
 12 13  1  0
 13 14  1  0
 14 15  1  0
 15 16  2  3
 16 17  1  0
 17 18  1  1
 17 19  1  0
 19 20  2  0
 19 21  1  0
M  CHG  2  18   1  21  -1
M  END
