
     RDKit          3D

 21 22  0  0  0  0  0  0  0  0999 V2000
   -6.1130    0.1310    0.6150 O   0  0  0  0  0  0  0  0  0  0  0  0
   -4.9440   -0.2220    0.8490 C   0  0  0  0  0  0  0  0  0  0  0  0
   -4.1570    0.5840    1.8430 C   0  0  0  0  0  0  0  0  0  0  0  0
   -2.8930    0.7800    1.2340 O   0  0  0  0  0  0  0  0  0  0  0  0
   -2.2040   -0.3110    0.6570 C   0  0  0  0  0  0  0  0  0  0  0  0
   -0.7510   -0.2220    0.6210 C   0  0  0  0  0  0  0  0  0  0  0  0
    0.0930   -1.1950    0.0930 O   0  0  0  0  0  0  0  0  0  0  0  0
   -0.1970    0.8750    1.1310 C   0  0  0  0  0  0  0  0  0  0  0  0
    1.2610    1.0190    1.1220 C   0  0  2  0  0  0  0  0  0  0  0  0
    1.7100    1.9140   -0.0240 C   0  0  0  0  0  0  0  0  0  0  0  0
    3.0680    1.3110   -0.3250 C   0  0  2  0  0  0  0  0  0  0  0  0
    3.1410    0.8370   -1.7620 C   0  0  0  0  0  0  0  0  0  0  0  0
    4.4620    0.2750   -1.9750 N   0  0  0  0  0  0  0  0  0  0  0  0
    4.6190   -0.9130   -2.3180 O   0  0  0  0  0  0  0  0  0  0  0  0
    5.5650    1.0490   -1.8020 O   0  0  0  0  0  0  0  0  0  0  0  0
    3.1840    0.1680    0.6320 C   0  0  0  0  0  0  0  0  0  0  0  0
    1.8810   -0.1980    0.8920 O   0  0  0  0  0  0  0  0  0  0  0  0
   -2.8690   -1.3210    0.1950 C   0  0  0  0  0  0  0  0  0  0  0  0
   -2.3040   -2.5190   -0.4270 C   0  0  0  0  0  0  0  0  0  0  0  0
   -2.6710   -3.6840    0.3110 O   0  0  0  0  0  0  0  0  0  0  0  0
   -4.2830   -1.2840    0.2890 O   0  0  0  0  0  0  0  0  0  0  0  0
  1  2  2  0
  2  3  1  0
  2 21  1  0
  3  4  1  0
  4  5  1  0
  5  6  1  0
  5 18  2  0
  6  7  1  0
  6  8  2  3
  9  8  1  6
  9 10  1  0
  9 17  1  0
 10 11  1  0
 11 12  1  6
 11 16  1  0
 12 13  1  0
 13 14  2  0
 13 15  1  0
 16 17  1  0
 18 19  1  0
 18 21  1  0
 19 20  1  0
M  CHG  2  13   1  15  -1
M  END
