
     RDKit          3D

 22 22  0  0  0  0  0  0  0  0999 V2000
   -0.6080    1.5910    3.4000 C   0  0  0  0  0  0  0  0  0  0  0  0
   -0.9190    1.1980    1.9610 C   0  0  0  0  0  0  0  0  0  0  0  0
   -0.1010    1.8380    1.0780 C   0  0  0  0  0  0  0  0  0  0  0  0
    0.8650    2.7340    1.6810 O   0  0  0  0  0  0  0  0  0  0  0  0
   -0.0840    1.7440   -0.2410 O   0  0  0  0  0  0  0  0  0  0  0  0
    0.2940    1.2270   -1.3870 C   0  0  0  0  0  0  0  0  0  0  0  0
   -0.6010    0.8830   -2.2460 O   0  0  0  0  0  0  0  0  0  0  0  0
    1.6830    0.9590   -1.8760 C   0  0  2  0  0  0  0  0  0  0  0  0
    1.9550    1.3310   -3.2740 C   0  0  0  0  0  0  0  0  0  0  0  0
    1.2070    0.7140   -4.2430 O   0  0  0  0  0  0  0  0  0  0  0  0
    2.0140   -0.4650   -1.5150 C   0  0  0  0  0  0  0  0  0  0  0  0
    2.0170   -0.5250   -0.0420 C   0  0  0  0  0  0  0  0  0  0  0  0
    2.9950   -0.0070    0.5480 O   0  0  0  0  0  0  0  0  0  0  0  0
    0.9630   -1.1350    0.5930 O   0  0  0  0  0  0  0  0  0  0  0  0
   -0.0800   -1.8500    0.0410 C   0  0  0  0  0  0  0  0  0  0  0  0
   -1.1310   -2.0590    1.0820 C   0  0  2  0  0  0  0  0  0  0  0  0
   -1.7670   -3.2540    0.6970 O   0  0  0  0  0  0  0  0  0  0  0  0
   -2.0940   -0.9930    1.3230 C   0  0  0  0  0  0  0  0  0  0  0  0
   -3.4350   -1.5570    1.1100 N   0  0  0  0  0  0  0  0  0  0  0  0
   -3.9510   -1.5540   -0.0130 O   0  0  0  0  0  0  0  0  0  0  0  0
   -4.1160   -2.0890    2.1700 O   0  0  0  0  0  0  0  0  0  0  0  0
   -1.9780    0.2650    1.6650 C   0  0  0  0  0  0  0  0  0  0  0  0
  1  2  1  0
  2  3  2  0
  2 22  1  0
  3  4  1  0
  3  5  1  0
  5  6  1  0
  6  7  2  0
  6  8  1  0
  8  9  1  6
  8 11  1  0
  9 10  1  0
 11 12  1  0
 12 13  2  0
 12 14  1  0
 14 15  1  0
 15 16  1  0
 16 17  1  6
 16 18  1  0
 18 19  1  0
 18 22  2  0
 19 20  2  0
 19 21  1  0
M  CHG  2  19   1  21  -1
M  END
