
     RDKit          3D

 22 23  0  0  0  0  0  0  0  0999 V2000
   -3.7610    2.7570   -0.8090 O   0  0  0  0  0  0  0  0  0  0  0  0
   -2.9010    2.3700    0.0130 C   0  0  0  0  0  0  0  0  0  0  0  0
   -2.4950    3.1580    1.0780 O   0  0  0  0  0  0  0  0  0  0  0  0
   -2.3070    1.0420   -0.1610 C   0  0  1  0  0  0  0  0  0  0  0  0
   -1.3660    0.7590    0.8350 O   0  0  0  0  0  0  0  0  0  0  0  0
   -0.5510   -0.2590    0.3070 C   0  0  1  0  0  0  0  0  0  0  0  0
    0.5260   -0.3820    1.1390 O   0  0  0  0  0  0  0  0  0  0  0  0
    1.8240   -0.1770    0.8050 C   0  0  0  0  0  0  0  0  0  0  0  0
    2.7920   -0.3520    1.7960 C   0  0  0  0  0  0  0  0  0  0  0  0
    4.1030   -0.1640    1.5330 C   0  0  0  0  0  0  0  0  0  0  0  0
    4.4810    0.2080    0.2520 C   0  0  0  0  0  0  0  0  0  0  0  0
    5.8520    0.4110   -0.0530 N   0  0  0  0  0  0  0  0  0  0  0  0
    6.6970    0.2550    0.8260 O   0  0  0  0  0  0  0  0  0  0  0  0
    6.2480    0.7820   -1.3200 O   0  0  0  0  0  0  0  0  0  0  0  0
    3.5510    0.3860   -0.7380 C   0  0  0  0  0  0  0  0  0  0  0  0
    2.1950    0.1880   -0.4520 C   0  0  0  0  0  0  0  0  0  0  0  0
   -1.3330   -1.5560    0.1850 C   0  0  2  0  0  0  0  0  0  0  0  0
   -0.5970   -2.3760   -0.6960 O   0  0  0  0  0  0  0  0  0  0  0  0
   -2.6900   -1.3770   -0.3930 C   0  0  1  0  0  0  0  0  0  0  0  0
   -3.5270   -2.4170    0.0710 O   0  0  0  0  0  0  0  0  0  0  0  0
   -3.3420   -0.0710   -0.0870 C   0  0  2  0  0  0  0  0  0  0  0  0
   -4.3230    0.2280   -1.0230 O   0  0  0  0  0  0  0  0  0  0  0  0
  1  2  2  0
  2  3  1  0
  4  2  1  1
  4  5  1  0
  4 21  1  0
  5  6  1  0
  6  7  1  1
  6 17  1  0
  7  8  1  0
  8  9  2  0
  8 16  1  0
  9 10  1  0
 10 11  2  0
 11 12  1  0
 11 15  1  0
 12 13  2  0
 12 14  1  0
 15 16  2  0
 17 18  1  6
 17 19  1  0
 19 20  1  1
 19 21  1  0
 21 22  1  6
M  CHG  2  12   1  14  -1
M  END
