
     RDKit          3D

 21 22  0  0  0  0  0  0  0  0999 V2000
   -1.5100   -2.3770   -0.6630 C   0  0  0  0  0  0  0  0  0  0  0  0
   -1.6740   -0.8790   -0.4830 C   0  0  2  0  0  0  0  0  0  0  0  0
   -0.3460   -0.1850   -0.6900 C   0  0  0  0  0  0  0  0  0  0  0  0
   -0.2990    0.6290   -1.6180 O   0  0  0  0  0  0  0  0  0  0  0  0
    0.7540   -0.4700    0.1430 N   0  0  0  0  0  0  0  0  0  0  0  0
    2.0400    0.0740    0.0930 C   0  0  0  0  0  0  0  0  0  0  0  0
    2.4930    0.9640   -0.7390 C   0  0  0  0  0  0  0  0  0  0  0  0
    1.7360    1.5330   -1.7480 O   0  0  0  0  0  0  0  0  0  0  0  0
    3.9120    1.4910   -0.7100 C   0  0  0  0  0  0  0  0  0  0  0  0
    4.6850    0.9300    0.2970 O   0  0  0  0  0  0  0  0  0  0  0  0
    4.2340   -0.0100    1.1890 C   0  0  0  0  0  0  0  0  0  0  0  0
    5.0760   -0.5140    2.1600 O   0  0  0  0  0  0  0  0  0  0  0  0
    3.0120   -0.4190    1.1110 C   0  0  0  0  0  0  0  0  0  0  0  0
    2.6080   -1.3840    2.0530 O   0  0  0  0  0  0  0  0  0  0  0  0
   -2.1390   -0.6360    0.9430 C   0  0  0  0  0  0  0  0  0  0  0  0
   -3.4760    0.0790    0.9020 C   0  0  0  0  0  0  0  0  0  0  0  0
   -3.2260    1.4120    0.6570 O   0  0  0  0  0  0  0  0  0  0  0  0
   -3.4940    1.8190   -0.6280 C   0  0  0  0  0  0  0  0  0  0  0  0
   -3.2760    0.7540   -1.6270 C   0  0  0  0  0  0  0  0  0  0  0  0
   -3.7590    0.9260   -2.7650 O   0  0  0  0  0  0  0  0  0  0  0  0
   -2.5860   -0.4260   -1.4270 O   0  0  0  0  0  0  0  0  0  0  0  0
  2  1  1  1
  2  3  1  0
  2 15  1  0
  2 21  1  0
  3  4  2  0
  3  5  1  0
  5  6  1  0
  6  7  2  0
  6 13  1  0
  7  8  1  0
  7  9  1  0
  9 10  1  0
 10 11  1  0
 11 12  1  0
 11 13  2  0
 13 14  1  0
 15 16  1  0
 16 17  1  0
 17 18  1  0
 18 19  1  0
 19 20  2  0
 19 21  1  0
M  END
