
     RDKit          3D

 21 22  0  0  0  0  0  0  0  0999 V2000
    2.0570   -0.6470   -3.0530 C   0  0  0  0  0  0  0  0  0  0  0  0
    2.5470   -1.0270   -1.8090 O   0  0  0  0  0  0  0  0  0  0  0  0
    2.3410   -0.0900   -0.8290 C   0  0  1  0  0  0  0  0  0  0  0  0
    1.5320   -0.6970    0.1590 O   0  0  0  0  0  0  0  0  0  0  0  0
    0.4310    0.0070    0.3660 O   0  0  0  0  0  0  0  0  0  0  0  0
   -0.8540   -0.4630    0.2700 C   0  0  0  0  0  0  0  0  0  0  0  0
   -1.1580   -1.7760   -0.0680 C   0  0  0  0  0  0  0  0  0  0  0  0
   -2.4840   -2.1490   -0.1380 C   0  0  0  0  0  0  0  0  0  0  0  0
   -2.7800   -3.4500   -0.4730 O   0  0  0  0  0  0  0  0  0  0  0  0
   -3.4780   -1.2520    0.1180 C   0  0  0  0  0  0  0  0  0  0  0  0
   -4.8110   -1.6160    0.0500 O   0  0  0  0  0  0  0  0  0  0  0  0
   -3.1880    0.0710    0.4580 C   0  0  0  0  0  0  0  0  0  0  0  0
   -1.8770    0.4530    0.5310 C   0  0  0  0  0  0  0  0  0  0  0  0
   -1.5910    1.7690    0.8700 O   0  0  0  0  0  0  0  0  0  0  0  0
   -2.5620    2.6710    1.3720 C   0  0  0  0  0  0  0  0  0  0  0  0
   -3.9460    2.3790    0.8440 C   0  0  0  0  0  0  0  0  0  0  0  0
   -4.1780    0.9880    0.7190 O   0  0  0  0  0  0  0  0  0  0  0  0
    3.6310    0.2930   -0.1150 C   0  0  2  0  0  0  0  0  0  0  0  0
    4.2970   -0.9210    0.4840 C   0  0  0  0  0  0  0  0  0  0  0  0
    3.4110    1.2690    0.9060 N   0  0  0  0  0  0  0  0  0  0  0  0
    3.9150    2.4920    0.5890 O   0  0  0  0  0  0  0  0  0  0  0  0
  1  2  1  0
  3  2  1  6
  3  4  1  0
  3 18  1  0
  4  5  1  0
  5  6  1  0
  6  7  2  0
  6 13  1  0
  7  8  1  0
  8  9  1  0
  8 10  2  0
 10 11  1  0
 10 12  1  0
 12 13  2  0
 12 17  1  0
 13 14  1  0
 14 15  1  0
 15 16  1  0
 16 17  1  0
 18 19  1  1
 18 20  1  0
 20 21  1  0
M  CHG  2  20   1  21  -1
M  END
