
     RDKit          3D

 10 10  0  0  0  0  0  0  0  0999 V2000
    1.6390   -0.6790   -0.4480 N   0  0  0  0  0  0  0  0  0  0  0  0
    1.3660    0.0170    0.6460 O   0  0  0  0  0  0  0  0  0  0  0  0
    0.0970    0.6350    0.6050 C   0  0  1  0  0  0  0  0  0  0  0  0
   -0.0010    1.3170    1.8430 O   0  0  0  0  0  0  0  0  0  0  0  0
   -0.0100    1.5810   -0.4090 N   0  0  0  0  0  0  0  0  0  0  0  0
   -0.7220    1.6250   -1.3890 N   0  0  0  0  0  0  0  0  0  0  0  0
   -1.8940    0.3650   -1.7690 S   0  0  0  0  0  0  0  0  0  0  0  0
   -1.7130   -0.8150   -0.4090 C   0  0  0  0  0  0  0  0  0  0  0  0
   -2.4960   -2.2490   -0.4430 S   0  0  0  0  0  0  0  0  0  0  0  0
   -0.8750   -0.4030    0.6380 N   0  0  0  0  0  0  0  0  0  0  0  0
  1  2  1  0
  2  3  1  0
  3  4  1  1
  3  5  1  0
  3 10  1  0
  5  6  2  0
  6  7  1  0
  7  8  1  0
  8  9  2  0
  8 10  1  0
M  CHG  1   1   1
M  END
