
     RDKit          3D

 21 21  0  0  0  0  0  0  0  0999 V2000
   -2.2560    1.1400   -1.4840 C   0  0  0  0  0  0  0  0  0  0  0  0
   -2.3950    0.2090   -0.2900 C   0  0  1  0  0  0  0  0  0  0  0  0
   -1.0290   -0.0680    0.2080 C   0  0  0  0  0  0  0  0  0  0  0  0
   -0.3470    0.9070    0.6680 O   0  0  0  0  0  0  0  0  0  0  0  0
   -0.4320   -1.3030    0.2130 O   0  0  0  0  0  0  0  0  0  0  0  0
    0.8600   -1.5740    0.6820 C   0  0  0  0  0  0  0  0  0  0  0  0
    1.8600   -0.8000   -0.0780 C   0  0  0  0  0  0  0  0  0  0  0  0
    1.4660   -0.0370   -0.9950 O   0  0  0  0  0  0  0  0  0  0  0  0
    3.2210   -0.8640    0.1630 O   0  0  0  0  0  0  0  0  0  0  0  0
    4.1080   -0.0690   -0.6330 C   0  0  0  0  0  0  0  0  0  0  0  0
    5.5360   -0.2710   -0.2280 C   0  0  0  0  0  0  0  0  0  0  0  0
    5.7610    0.0940    1.1630 N   0  0  1  0  0  0  0  0  0  0  0  0
    5.0500   -0.6870    1.9820 O   0  0  0  0  0  0  0  0  0  0  0  0
    7.0890   -0.1270    1.3950 O   0  0  0  0  0  0  0  0  0  0  0  0
    5.4990    1.3920    1.3720 O   0  0  0  0  0  0  0  0  0  0  0  0
   -3.2120    0.8210    0.8110 C   0  0  0  0  0  0  0  0  0  0  0  0
   -4.3640   -0.1150    1.1210 C   0  0  0  0  0  0  0  0  0  0  0  0
   -5.1800   -0.2170   -0.1740 C   0  0  1  0  0  0  0  0  0  0  0  0
   -5.5640    1.0970   -0.4760 O   0  0  0  0  0  0  0  0  0  0  0  0
   -4.2500   -0.7780   -1.2200 C   0  0  0  0  0  0  0  0  0  0  0  0
   -2.9600   -0.9800   -0.7440 O   0  0  0  0  0  0  0  0  0  0  0  0
  2  1  1  6
  2  3  1  0
  2 16  1  0
  2 21  1  0
  3  4  2  0
  3  5  1  0
  5  6  1  0
  6  7  1  0
  7  8  2  0
  7  9  1  0
  9 10  1  0
 10 11  1  0
 11 12  1  0
 12 13  1  1
 12 14  1  0
 12 15  1  0
 16 17  1  0
 17 18  1  0
 18 19  1  6
 18 20  1  0
 20 21  1  0
M  CHG  2  12   1  13  -1
M  END
