
     RDKit          3D

 21 22  0  0  0  0  0  0  0  0999 V2000
   -2.7540   -0.1510   -2.6010 C   0  0  0  0  0  0  0  0  0  0  0  0
   -2.9150    0.4770   -1.3750 O   0  0  0  0  0  0  0  0  0  0  0  0
   -2.3040   -0.2190   -0.3400 C   0  0  1  0  0  0  0  0  0  0  0  0
   -1.3230    0.6060    0.2100 O   0  0  0  0  0  0  0  0  0  0  0  0
   -0.1400    0.0590    0.0210 O   0  0  0  0  0  0  0  0  0  0  0  0
    1.0650    0.6260    0.3280 C   0  0  0  0  0  0  0  0  0  0  0  0
    1.0860    1.8860    0.8900 C   0  0  0  0  0  0  0  0  0  0  0  0
    2.2960    2.4660    1.2040 C   0  0  0  0  0  0  0  0  0  0  0  0
    2.4190    3.7260    1.7700 O   0  0  0  0  0  0  0  0  0  0  0  0
    3.4640    1.7510    0.9380 C   0  0  0  0  0  0  0  0  0  0  0  0
    4.6840    2.3250    1.2500 O   0  0  0  0  0  0  0  0  0  0  0  0
    3.4240    0.4920    0.3760 C   0  0  0  0  0  0  0  0  0  0  0  0
    2.2200   -0.0950    0.0590 C   0  0  0  0  0  0  0  0  0  0  0  0
    2.1730   -1.3670   -0.5090 O   0  0  0  0  0  0  0  0  0  0  0  0
    3.3370   -2.1750   -0.4940 C   0  0  0  0  0  0  0  0  0  0  0  0
    4.5090   -1.2830   -0.8530 C   0  0  0  0  0  0  0  0  0  0  0  0
    4.5910   -0.2280    0.1080 O   0  0  0  0  0  0  0  0  0  0  0  0
   -3.2900   -0.6870    0.6980 C   0  0  2  0  0  0  0  0  0  0  0  0
   -4.1720   -1.7330    0.0990 C   0  0  0  0  0  0  0  0  0  0  0  0
   -4.0080    0.3970    1.3140 N   0  0  0  0  0  0  0  0  0  0  0  0
   -3.1130    1.3020    1.7590 O   0  0  0  0  0  0  0  0  0  0  0  0
  1  2  1  0
  3  2  1  6
  3  4  1  0
  3 18  1  0
  4  5  1  0
  5  6  1  0
  6  7  2  0
  6 13  1  0
  7  8  1  0
  8  9  1  0
  8 10  2  0
 10 11  1  0
 10 12  1  0
 12 13  2  0
 12 17  1  0
 13 14  1  0
 14 15  1  0
 15 16  1  0
 16 17  1  0
 18 19  1  6
 18 20  1  0
 20 21  1  0
M  CHG  2  20   1  21  -1
M  END
