
     RDKit          3D

 21 21  0  0  0  0  0  0  0  0999 V2000
    5.8980    0.5470   -1.4620 C   0  0  0  0  0  0  0  0  0  0  0  0
    4.9410   -0.3140   -0.6580 C   0  0  0  0  0  0  0  0  0  0  0  0
    3.6330    0.2390   -0.6790 O   0  0  0  0  0  0  0  0  0  0  0  0
    2.6280   -0.4060   -0.0020 C   0  0  0  0  0  0  0  0  0  0  0  0
    2.8330   -1.4590    0.6260 O   0  0  0  0  0  0  0  0  0  0  0  0
    1.1890    0.1450    0.0130 C   0  0  1  0  0  0  0  0  0  0  0  0
    1.2070    1.3090   -0.7430 O   0  0  0  0  0  0  0  0  0  0  0  0
    0.3020   -0.8930   -0.5020 C   0  0  0  0  0  0  0  0  0  0  0  0
    1.0020   -1.9040   -1.2720 O   0  0  0  0  0  0  0  0  0  0  0  0
   -0.9620   -1.0960   -0.4240 C   0  0  0  0  0  0  0  0  0  0  0  0
   -1.5250   -2.2720   -1.0680 O   0  0  0  0  0  0  0  0  0  0  0  0
   -2.5560   -2.9370   -0.3830 C   0  0  0  0  0  0  0  0  0  0  0  0
   -3.6360   -2.0420    0.1040 C   0  0  0  0  0  0  0  0  0  0  0  0
   -3.2570   -0.6990    0.1880 O   0  0  0  0  0  0  0  0  0  0  0  0
   -1.9110   -0.2580    0.2460 C   0  0  0  0  0  0  0  0  0  0  0  0
   -1.6260    0.8490    0.8800 C   0  0  0  0  0  0  0  0  0  0  0  0
   -2.7690    1.6130    1.5390 C   0  0  1  0  0  0  0  0  0  0  0  0
   -2.2580    2.8830    1.9920 N   0  0  0  0  0  0  0  0  0  0  0  0
   -3.7700    1.8570    0.4800 C   0  0  0  0  0  0  0  0  0  0  0  0
   -4.9590    2.1940    0.7120 O   0  0  0  0  0  0  0  0  0  0  0  0
   -3.4020    1.7150   -0.8440 O   0  0  0  0  0  0  0  0  0  0  0  0
  1  2  1  0
  2  3  1  0
  3  4  1  0
  4  5  2  0
  4  6  1  0
  6  7  1  6
  6  8  1  0
  8  9  1  0
  8 10  2  3
 10 11  1  0
 10 15  1  0
 11 12  1  0
 12 13  1  0
 13 14  1  0
 14 15  1  0
 15 16  2  3
 16 17  1  0
 17 18  1  6
 17 19  1  0
 19 20  2  0
 19 21  1  0
M  CHG  2  18   1  21  -1
M  END
