
     RDKit          3D

 22 22  0  0  0  0  0  0  0  0999 V2000
   -1.0060   -1.5840   -0.8620 C   0  0  0  0  0  0  0  0  0  0  0  0
   -0.6890   -0.1220   -0.6010 C   0  0  1  0  0  0  0  0  0  0  0  0
    0.6990    0.1910   -1.1230 C   0  0  2  0  0  0  0  0  0  0  0  0
    0.8820   -0.0500   -2.4560 O   0  0  0  0  0  0  0  0  0  0  0  0
    1.7980   -0.1880   -0.2190 C   0  0  0  0  0  0  0  0  0  0  0  0
    2.0720    0.6400    0.9940 C   0  0  0  0  0  0  0  0  0  0  0  0
    1.4410    1.7380    1.2590 C   0  0  0  0  0  0  0  0  0  0  0  0
    1.7930    2.4520    2.4690 N   0  0  0  0  0  0  0  0  0  0  0  0
    0.8770    2.8870    3.1650 O   0  0  0  0  0  0  0  0  0  0  0  0
    3.1220    2.5850    2.7410 O   0  0  0  0  0  0  0  0  0  0  0  0
    2.5700   -1.2470   -0.3170 C   0  0  0  0  0  0  0  0  0  0  0  0
    3.5660   -1.3930    0.6820 O   0  0  0  0  0  0  0  0  0  0  0  0
    2.5000   -2.2470   -1.3180 C   0  0  0  0  0  0  0  0  0  0  0  0
    1.7250   -2.3490   -2.2930 O   0  0  0  0  0  0  0  0  0  0  0  0
    3.4330   -3.3140   -1.2410 O   0  0  0  0  0  0  0  0  0  0  0  0
   -1.6760    0.6750   -1.4060 C   0  0  0  0  0  0  0  0  0  0  0  0
   -2.3300    1.6430   -0.6540 O   0  0  0  0  0  0  0  0  0  0  0  0
   -3.3910    1.0190   -0.0010 C   0  0  0  0  0  0  0  0  0  0  0  0
   -3.0280    0.9260    1.4430 C   0  0  0  0  0  0  0  0  0  0  0  0
   -1.6730    0.4510    1.6930 C   0  0  0  0  0  0  0  0  0  0  0  0
   -1.3180    0.3710    2.8820 O   0  0  0  0  0  0  0  0  0  0  0  0
   -0.7360    0.0770    0.7550 O   0  0  0  0  0  0  0  0  0  0  0  0
  2  1  1  1
  2  3  1  0
  2 16  1  0
  2 22  1  0
  3  4  1  6
  3  5  1  0
  5  6  1  0
  5 11  2  3
  6  7  2  3
  7  8  1  0
  8  9  2  0
  8 10  1  0
 11 12  1  0
 11 13  1  0
 13 14  2  0
 13 15  1  0
 16 17  1  0
 17 18  1  0
 18 19  1  0
 19 20  1  0
 20 21  2  0
 20 22  1  0
M  CHG  2   8   1  10  -1
M  END
