
     RDKit          3D

 22 22  0  0  0  0  0  0  0  0999 V2000
    2.5280    3.0870    0.8490 C   0  0  0  0  0  0  0  0  0  0  0  0
    1.4540    2.0390    0.4790 C   0  0  0  0  0  0  0  0  0  0  0  0
    0.4030    2.4900   -0.2180 C   0  0  0  0  0  0  0  0  0  0  0  0
    0.4420    3.8790   -0.5240 O   0  0  0  0  0  0  0  0  0  0  0  0
   -0.6740    1.7810   -0.6500 O   0  0  0  0  0  0  0  0  0  0  0  0
   -1.5210    0.8340   -0.3030 C   0  0  0  0  0  0  0  0  0  0  0  0
   -2.1220    0.6150    0.8150 O   0  0  0  0  0  0  0  0  0  0  0  0
   -1.9430   -0.2420   -1.2940 C   0  0  2  0  0  0  0  0  0  0  0  0
   -3.3540    0.1750   -1.7250 C   0  0  0  0  0  0  0  0  0  0  0  0
   -4.1460    0.1970   -0.5700 O   0  0  0  0  0  0  0  0  0  0  0  0
   -1.9250   -1.6080   -0.7140 C   0  0  0  0  0  0  0  0  0  0  0  0
   -1.6190   -1.7040    0.7230 C   0  0  0  0  0  0  0  0  0  0  0  0
   -2.6060   -1.8120    1.5210 O   0  0  0  0  0  0  0  0  0  0  0  0
   -0.3590   -1.6810    1.2020 O   0  0  0  0  0  0  0  0  0  0  0  0
    0.7040   -2.5580    1.0200 C   0  0  0  0  0  0  0  0  0  0  0  0
    2.0750   -1.9010    1.0500 C   0  0  2  0  0  0  0  0  0  0  0  0
    2.8080   -2.0700    2.1560 O   0  0  0  0  0  0  0  0  0  0  0  0
    1.8970   -0.5280    0.4320 C   0  0  0  0  0  0  0  0  0  0  0  0
    2.0830   -0.8560   -1.0020 N   0  0  0  0  0  0  0  0  0  0  0  0
    1.1550   -1.0950   -1.7380 O   0  0  0  0  0  0  0  0  0  0  0  0
    3.4140   -0.8800   -1.3700 O   0  0  0  0  0  0  0  0  0  0  0  0
    1.6580    0.6310    0.9070 C   0  0  0  0  0  0  0  0  0  0  0  0
  1  2  1  0
  2  3  2  0
  2 22  1  0
  3  4  1  0
  3  5  1  0
  5  6  1  0
  6  7  2  0
  6  8  1  0
  8  9  1  1
  8 11  1  0
  9 10  1  0
 11 12  1  0
 12 13  2  0
 12 14  1  0
 14 15  1  0
 15 16  1  0
 16 17  1  1
 16 18  1  0
 18 19  1  0
 18 22  2  0
 19 20  2  0
 19 21  1  0
M  CHG  2  19   1  21  -1
M  END
