
     RDKit          3D

 21 21  0  0  0  0  0  0  0  0999 V2000
    5.5320    2.3770    0.2460 C   0  0  0  0  0  0  0  0  0  0  0  0
    5.1690    1.1770   -0.6340 C   0  0  0  0  0  0  0  0  0  0  0  0
    3.8480    0.8350   -0.3150 O   0  0  0  0  0  0  0  0  0  0  0  0
    3.1340   -0.2000   -0.8860 C   0  0  0  0  0  0  0  0  0  0  0  0
    3.6850   -0.8930   -1.7500 O   0  0  0  0  0  0  0  0  0  0  0  0
    1.7380   -0.4200   -0.4250 C   0  0  0  0  0  0  0  0  0  0  0  0
    1.7700   -1.5790    0.5590 C   0  0  2  0  0  0  0  0  0  0  0  0
    2.2660   -2.7980   -0.0220 N   0  0  0  0  0  0  0  0  0  0  0  0
    0.3480   -1.7990    1.0320 C   0  0  1  0  0  0  0  0  0  0  0  0
    0.3920   -2.7710    2.0490 O   0  0  0  0  0  0  0  0  0  0  0  0
   -0.0710   -0.5430    1.5930 O   0  0  0  0  0  0  0  0  0  0  0  0
   -1.1840    0.1240    1.1080 C   0  0  0  0  0  0  0  0  0  0  0  0
   -1.8060   -0.4080    0.1690 O   0  0  0  0  0  0  0  0  0  0  0  0
   -1.6420    1.3310    1.5960 O   0  0  0  0  0  0  0  0  0  0  0  0
   -2.8050    1.9720    1.0480 C   0  0  0  0  0  0  0  0  0  0  0  0
   -3.9460    1.0530    1.2210 C   0  0  0  0  0  0  0  0  0  0  0  0
   -4.6450    0.5870    0.1930 C   0  0  0  0  0  0  0  0  0  0  0  0
   -4.4580    0.8580   -1.2420 C   0  0  0  0  0  0  0  0  0  0  0  0
   -4.9830   -0.2520   -1.8640 O   0  0  0  0  0  0  0  0  0  0  0  0
   -5.7870   -0.9380   -0.9870 C   0  0  0  0  0  0  0  0  0  0  0  0
   -5.7270   -0.2780    0.2720 O   0  0  0  0  0  0  0  0  0  0  0  0
  1  2  1  0
  2  3  1  0
  3  4  1  0
  4  5  2  0
  4  6  1  0
  6  7  1  0
  7  8  1  6
  7  9  1  0
  9 10  1  1
  9 11  1  0
 11 12  1  0
 12 13  2  0
 12 14  1  0
 14 15  1  0
 15 16  1  0
 16 17  2  3
 17 18  1  0
 17 21  1  0
 18 19  1  0
 19 20  1  0
 20 21  1  0
M  CHG  2   8   1  10  -1
M  END
