
     RDKit          3D

 21 22  0  0  0  0  0  0  0  0999 V2000
   -5.6210    1.7720   -1.8950 O   0  0  0  0  0  0  0  0  0  0  0  0
   -4.8100    1.2610   -1.0940 C   0  0  0  0  0  0  0  0  0  0  0  0
   -3.8300    2.1770   -0.4100 C   0  0  0  0  0  0  0  0  0  0  0  0
   -2.5750    1.5510   -0.5470 O   0  0  0  0  0  0  0  0  0  0  0  0
   -2.4670    0.1800   -0.2140 C   0  0  0  0  0  0  0  0  0  0  0  0
   -1.1190   -0.2060    0.2320 C   0  0  0  0  0  0  0  0  0  0  0  0
   -0.8660   -1.5130    0.5830 O   0  0  0  0  0  0  0  0  0  0  0  0
   -0.1340    0.7070    0.2990 C   0  0  0  0  0  0  0  0  0  0  0  0
    1.1780    0.2950    0.7410 C   0  0  2  0  0  0  0  0  0  0  0  0
    2.3210    0.9550   -0.0160 C   0  0  0  0  0  0  0  0  0  0  0  0
    3.4670    0.0660    0.4210 C   0  0  2  0  0  0  0  0  0  0  0  0
    4.4790   -0.1310   -0.6810 C   0  0  0  0  0  0  0  0  0  0  0  0
    4.9970    1.1750   -1.0390 N   0  0  0  0  0  0  0  0  0  0  0  0
    6.1960    1.4960   -0.9560 O   0  0  0  0  0  0  0  0  0  0  0  0
    4.1120    2.1180   -1.4980 O   0  0  0  0  0  0  0  0  0  0  0  0
    2.7520   -1.2040    0.7970 C   0  0  0  0  0  0  0  0  0  0  0  0
    1.4240   -1.0570    0.4180 O   0  0  0  0  0  0  0  0  0  0  0  0
   -3.4970   -0.6060   -0.3170 C   0  0  0  0  0  0  0  0  0  0  0  0
   -3.4600   -2.0340    0.0130 C   0  0  0  0  0  0  0  0  0  0  0  0
   -3.7860   -2.8090   -1.1140 O   0  0  0  0  0  0  0  0  0  0  0  0
   -4.7200   -0.0550   -0.7740 O   0  0  0  0  0  0  0  0  0  0  0  0
  1  2  2  0
  2  3  1  0
  2 21  1  0
  3  4  1  0
  4  5  1  0
  5  6  1  0
  5 18  2  0
  6  7  1  0
  6  8  2  3
  9  8  1  6
  9 10  1  0
  9 17  1  0
 10 11  1  0
 11 12  1  6
 11 16  1  0
 12 13  1  0
 13 14  2  0
 13 15  1  0
 16 17  1  0
 18 19  1  0
 18 21  1  0
 19 20  1  0
M  CHG  2  13   1  15  -1
M  END
