
     RDKit          3D

 22 23  0  0  0  0  0  0  0  0999 V2000
   -3.2240    0.9000    3.5460 O   0  0  0  0  0  0  0  0  0  0  0  0
   -2.3190    0.2250    3.0440 C   0  0  0  0  0  0  0  0  0  0  0  0
   -1.4250   -0.4100    3.9070 O   0  0  0  0  0  0  0  0  0  0  0  0
   -2.1160    0.0400    1.5880 C   0  0  1  0  0  0  0  0  0  0  0  0
   -1.0180   -0.7720    1.3160 O   0  0  0  0  0  0  0  0  0  0  0  0
   -0.5980   -0.4390    0.0140 C   0  0  1  0  0  0  0  0  0  0  0  0
    0.6890   -0.8200   -0.2650 O   0  0  0  0  0  0  0  0  0  0  0  0
    1.7880   -0.0810   -0.5730 C   0  0  0  0  0  0  0  0  0  0  0  0
    2.9770   -0.7610   -0.8090 C   0  0  0  0  0  0  0  0  0  0  0  0
    4.1490   -0.1080   -1.1280 C   0  0  0  0  0  0  0  0  0  0  0  0
    4.1880    1.2530   -1.2260 C   0  0  0  0  0  0  0  0  0  0  0  0
    5.3750    1.9610   -1.5520 N   0  0  0  0  0  0  0  0  0  0  0  0
    5.3890    3.2010   -1.6360 O   0  0  0  0  0  0  0  0  0  0  0  0
    6.5390    1.2730   -1.7820 O   0  0  0  0  0  0  0  0  0  0  0  0
    3.0330    1.9630   -0.9990 C   0  0  0  0  0  0  0  0  0  0  0  0
    1.8490    1.2930   -0.6760 C   0  0  0  0  0  0  0  0  0  0  0  0
   -1.6450   -0.9860   -0.9230 C   0  0  2  0  0  0  0  0  0  0  0  0
   -2.0680   -0.0210   -1.8370 O   0  0  0  0  0  0  0  0  0  0  0  0
   -2.8680   -1.4930   -0.2050 C   0  0  1  0  0  0  0  0  0  0  0  0
   -2.6020   -2.7420    0.3200 O   0  0  0  0  0  0  0  0  0  0  0  0
   -3.3150   -0.5800    0.9110 C   0  0  2  0  0  0  0  0  0  0  0  0
   -4.1300    0.4120    0.3690 O   0  0  0  0  0  0  0  0  0  0  0  0
  1  2  2  0
  2  3  1  0
  4  2  1  1
  4  5  1  0
  4 21  1  0
  5  6  1  0
  6  7  1  6
  6 17  1  0
  7  8  1  0
  8  9  2  0
  8 16  1  0
  9 10  1  0
 10 11  2  0
 11 12  1  0
 11 15  1  0
 12 13  2  0
 12 14  1  0
 15 16  2  0
 17 18  1  6
 17 19  1  0
 19 20  1  1
 19 21  1  0
 21 22  1  6
M  CHG  2  12   1  14  -1
M  END
