
     RDKit          3D

 21 23  0  0  0  0  0  0  0  0999 V2000
    6.8890    0.6190   -1.0510 C   0  0  0  0  0  0  0  0  0  0  0  0
    6.1310    0.9030    0.1990 C   0  0  0  0  0  0  0  0  0  0  0  0
    6.7220    1.4820    1.1430 O   0  0  0  0  0  0  0  0  0  0  0  0
    4.7220    0.5040    0.2980 C   0  0  0  0  0  0  0  0  0  0  0  0
    4.0840   -0.1300   -0.7450 C   0  0  0  0  0  0  0  0  0  0  0  0
    2.7400   -0.5060   -0.6390 C   0  0  0  0  0  0  0  0  0  0  0  0
    2.0200   -0.2510    0.5110 C   0  0  0  0  0  0  0  0  0  0  0  0
    0.6890   -0.6390    0.5800 O   0  0  0  0  0  0  0  0  0  0  0  0
   -0.3230    0.2250    0.1720 C   0  0  0  0  0  0  0  0  0  0  0  0
    0.0470    1.3500   -0.2520 O   0  0  0  0  0  0  0  0  0  0  0  0
   -1.7270   -0.1650    0.2360 C   0  0  0  0  0  0  0  0  0  0  0  0
   -2.1110   -1.4020    0.7030 C   0  0  0  0  0  0  0  0  0  0  0  0
   -3.4430   -1.7500    0.7550 C   0  0  0  0  0  0  0  0  0  0  0  0
   -4.4200   -0.8860    0.3490 C   0  0  0  0  0  0  0  0  0  0  0  0
   -4.0460    0.3560   -0.1200 C   0  0  0  0  0  0  0  0  0  0  0  0
   -2.7110    0.7060   -0.1730 C   0  0  0  0  0  0  0  0  0  0  0  0
   -5.2600    1.0450   -0.4720 N   0  0  0  0  0  0  0  0  0  0  0  0
   -6.3430    0.0910   -0.6120 C   0  0  0  0  0  0  0  0  0  0  0  0
   -5.9170   -1.0140    0.3040 C   0  0  0  0  0  0  0  0  0  0  0  0
    2.6790    0.3850    1.5430 C   0  0  0  0  0  0  0  0  0  0  0  0
    4.0130    0.7640    1.4520 C   0  0  0  0  0  0  0  0  0  0  0  0
  1  2  1  0
  2  3  2  0
  2  4  1  0
  4  5  2  0
  4 21  1  0
  5  6  1  0
  6  7  2  0
  7  8  1  0
  7 20  1  0
  8  9  1  0
  9 10  2  0
  9 11  1  0
 11 12  2  0
 11 16  1  0
 12 13  1  0
 13 14  2  0
 14 15  1  0
 14 19  1  0
 15 16  2  0
 15 17  1  0
 17 18  1  0
 18 19  1  0
 20 21  2  0
M  END
