
     RDKit          3D

 21 23  0  0  0  0  0  0  0  0999 V2000
    0.5650   -2.1110   -1.2780 C   0  0  0  0  0  0  0  0  0  0  0  0
    0.4830   -1.0540   -0.1730 C   0  0  1  0  0  0  0  0  0  0  0  0
    0.4920   -1.8380    1.1330 C   0  0  0  0  0  0  0  0  0  0  0  0
    1.6490   -0.1810   -0.1800 C   0  0  0  0  0  0  0  0  0  0  0  0
    1.5190    1.0510   -0.3310 O   0  0  0  0  0  0  0  0  0  0  0  0
    2.9140   -0.7010   -0.0190 O   0  0  0  0  0  0  0  0  0  0  0  0
    4.0390    0.1370   -0.0250 C   0  0  0  0  0  0  0  0  0  0  0  0
    4.6040    0.7390    1.0100 C   0  0  0  0  0  0  0  0  0  0  0  0
    5.7770    1.5360    0.5680 C   0  0  0  0  0  0  0  0  0  0  0  0
    5.8050    1.3050   -0.8830 C   0  0  0  0  0  0  0  0  0  0  0  0
    4.8030    0.5030   -1.1930 C   0  0  0  0  0  0  0  0  0  0  0  0
   -0.7950   -0.3560   -0.3550 C   0  0  0  0  0  0  0  0  0  0  0  0
   -0.9970    0.6210   -1.2980 C   0  0  0  0  0  0  0  0  0  0  0  0
   -2.2390    1.2090   -1.3810 C   0  0  0  0  0  0  0  0  0  0  0  0
   -3.2810    0.8400   -0.5420 C   0  0  0  0  0  0  0  0  0  0  0  0
   -3.0800   -0.1320    0.3970 C   0  0  0  0  0  0  0  0  0  0  0  0
   -1.8470   -0.7240    0.4880 C   0  0  0  0  0  0  0  0  0  0  0  0
   -4.1660   -0.5040    1.2580 N   0  0  0  0  0  0  0  0  0  0  0  0
   -5.4880    0.0370    1.0890 C   0  0  0  0  0  0  0  0  0  0  0  0
   -5.3930    1.4350    0.5010 C   0  0  0  0  0  0  0  0  0  0  0  0
   -4.5360    1.4350   -0.6270 O   0  0  0  0  0  0  0  0  0  0  0  0
  2  1  1  6
  2  3  1  0
  2  4  1  0
  2 12  1  0
  4  5  2  0
  4  6  1  0
  6  7  1  0
  7  8  2  0
  7 11  1  0
  8  9  1  0
  9 10  1  0
 10 11  2  0
 12 13  2  0
 12 17  1  0
 13 14  1  0
 14 15  2  0
 15 16  1  0
 15 21  1  0
 16 17  2  0
 16 18  1  0
 18 19  1  0
 19 20  1  0
 20 21  1  0
M  END
