
     RDKit          3D

 21 23  0  0  0  0  0  0  0  0999 V2000
    4.9720    1.5390   -1.1550 C   0  0  0  0  0  0  0  0  0  0  0  0
    4.0320    0.6430   -0.4200 C   0  0  0  0  0  0  0  0  0  0  0  0
    4.0590    0.5580    0.9590 C   0  0  0  0  0  0  0  0  0  0  0  0
    3.1860   -0.2740    1.6360 C   0  0  0  0  0  0  0  0  0  0  0  0
    2.2560   -1.0490    0.9750 C   0  0  0  0  0  0  0  0  0  0  0  0
    1.3690   -1.9100    1.6930 N   0  0  0  0  0  0  0  0  0  0  0  0
    0.3330   -2.6690    1.0630 C   0  0  0  0  0  0  0  0  0  0  0  0
   -0.7720   -1.8000    0.5220 C   0  0  0  0  0  0  0  0  0  0  0  0
   -0.7710   -0.5090    0.6650 C   0  0  0  0  0  0  0  0  0  0  0  0
   -1.8160    0.3530    0.1560 C   0  0  0  0  0  0  0  0  0  0  0  0
   -1.7150    1.7290    0.3660 C   0  0  0  0  0  0  0  0  0  0  0  0
   -2.7040    2.5320   -0.1170 C   0  0  0  0  0  0  0  0  0  0  0  0
   -3.8030    2.0460   -0.8050 C   0  0  0  0  0  0  0  0  0  0  0  0
   -4.7870    2.8770   -1.2820 O   0  0  0  0  0  0  0  0  0  0  0  0
   -3.8950    0.6910   -1.0070 C   0  0  0  0  0  0  0  0  0  0  0  0
   -2.9020   -0.1640   -0.5280 C   0  0  0  0  0  0  0  0  0  0  0  0
   -3.3130   -1.4270   -0.9050 O   0  0  0  0  0  0  0  0  0  0  0  0
   -4.6910   -1.4280   -1.2070 C   0  0  0  0  0  0  0  0  0  0  0  0
   -4.8530   -0.0740   -1.6430 O   0  0  0  0  0  0  0  0  0  0  0  0
    2.2360   -0.9570   -0.4010 C   0  0  0  0  0  0  0  0  0  0  0  0
    3.1040   -0.1290   -1.0850 C   0  0  0  0  0  0  0  0  0  0  0  0
  1  2  1  0
  2  3  2  0
  2 21  1  0
  3  4  1  0
  4  5  2  0
  5  6  1  0
  5 20  1  0
  6  7  1  0
  7  8  1  0
  8  9  2  3
  9 10  1  0
 10 11  2  0
 10 16  1  0
 11 12  1  0
 12 13  2  0
 13 14  1  0
 13 15  1  0
 15 16  2  0
 15 19  1  0
 16 17  1  0
 17 18  1  0
 18 19  1  0
 20 21  2  0
M  END
