
     RDKit          3D

 21 23  0  0  0  0  0  0  0  0999 V2000
   -1.3970   -2.8690    0.8270 C   0  0  0  0  0  0  0  0  0  0  0  0
   -0.7860   -1.5390    0.7740 C   0  0  0  0  0  0  0  0  0  0  0  0
    0.5920   -1.3630    0.6880 C   0  0  0  0  0  0  0  0  0  0  0  0
    1.1870   -0.1230    0.6350 C   0  0  0  0  0  0  0  0  0  0  0  0
    2.5710   -0.0760    0.5500 O   0  0  0  0  0  0  0  0  0  0  0  0
    3.2650   -0.0650   -0.6390 C   0  0  0  0  0  0  0  0  0  0  0  0
    2.6510   -0.0990   -1.7150 O   0  0  0  0  0  0  0  0  0  0  0  0
    4.7180   -0.0140   -0.6370 C   0  0  0  0  0  0  0  0  0  0  0  0
    5.5590    0.0030   -1.7180 C   0  0  0  0  0  0  0  0  0  0  0  0
    6.8440    0.0540   -1.2270 C   0  0  0  0  0  0  0  0  0  0  0  0
    6.7760    0.0660    0.0700 O   0  0  0  0  0  0  0  0  0  0  0  0
    5.5320    0.0270    0.4730 C   0  0  0  0  0  0  0  0  0  0  0  0
    0.3820    1.0020    0.6680 C   0  0  0  0  0  0  0  0  0  0  0  0
   -0.9840    0.8570    0.7530 C   0  0  0  0  0  0  0  0  0  0  0  0
   -1.5730   -0.4090    0.8070 C   0  0  0  0  0  0  0  0  0  0  0  0
   -2.9510   -0.9060    0.8980 C   0  0  0  0  0  0  0  0  0  0  0  0
   -3.6590   -0.8560   -0.4560 C   0  0  0  0  0  0  0  0  0  0  0  0
   -4.1380    0.5140   -0.7000 N   0  0  0  0  0  0  0  0  0  0  0  0
   -3.0220    1.3910   -0.9940 C   0  0  0  0  0  0  0  0  0  0  0  0
   -2.8570    2.3730    0.1600 C   0  0  0  0  0  0  0  0  0  0  0  0
   -1.4740    2.2490    0.7600 C   0  0  0  0  0  0  0  0  0  0  0  0
  1  2  1  0
  2  3  2  0
  2 15  1  0
  3  4  1  0
  4  5  1  0
  4 13  2  0
  5  6  1  0
  6  7  2  0
  6  8  1  0
  8  9  1  0
  8 12  2  0
  9 10  2  0
 10 11  1  0
 11 12  1  0
 13 14  1  0
 14 15  2  0
 14 21  1  0
 15 16  1  0
 16 17  1  0
 17 18  1  0
 18 19  1  0
 19 20  1  0
 20 21  1  0
M  END
