
     RDKit          3D

 21 22  0  0  0  0  0  0  0  0999 V2000
   -4.5730    1.8230    1.0560 C   0  0  0  0  0  0  0  0  0  0  0  0
   -3.5390    0.7420    1.1060 C   0  0  0  0  0  0  0  0  0  0  0  0
   -3.8850   -0.4510    1.7350 O   0  0  0  0  0  0  0  0  0  0  0  0
   -2.3610    0.9010    0.5920 C   0  0  0  0  0  0  0  0  0  0  0  0
   -1.9050    2.1340   -0.0900 C   0  0  0  0  0  0  0  0  0  0  0  0
   -1.3380   -0.2280    0.6270 C   0  0  0  0  0  0  0  0  0  0  0  0
   -1.0540   -0.6320   -0.6710 N   0  0  0  0  0  0  0  0  0  0  0  0
   -2.1580   -1.2340   -1.3390 C   0  0  0  0  0  0  0  0  0  0  0  0
   -1.8870   -2.4060   -2.1700 C   0  0  0  0  0  0  0  0  0  0  0  0
   -0.5820   -2.5550   -2.5930 O   0  0  0  0  0  0  0  0  0  0  0  0
    0.2950   -2.3160   -1.5130 C   0  0  0  0  0  0  0  0  0  0  0  0
    0.1430   -0.7490   -1.3520 C   0  0  2  0  0  0  0  0  0  0  0  0
    1.4100   -0.2980   -0.7250 C   0  0  0  0  0  0  0  0  0  0  0  0
    1.7800   -0.7340    0.5280 C   0  0  0  0  0  0  0  0  0  0  0  0
    2.9180   -0.2080    1.1270 C   0  0  0  0  0  0  0  0  0  0  0  0
    3.3090   -0.6010    2.5110 C   0  0  0  0  0  0  0  0  0  0  0  0
    3.6950    0.7360    0.4960 C   0  0  0  0  0  0  0  0  0  0  0  0
    4.9820    1.1790    1.1410 C   0  0  0  0  0  0  0  0  0  0  0  0
    3.3430    1.1820   -0.7370 C   0  0  0  0  0  0  0  0  0  0  0  0
    2.1800    0.6480   -1.3430 C   0  0  0  0  0  0  0  0  0  0  0  0
    1.9320    1.1750   -2.6030 O   0  0  0  0  0  0  0  0  0  0  0  0
  1  2  1  0
  2  3  1  0
  2  4  2  3
  4  5  1  0
  4  6  1  0
  6  7  1  0
  7  8  1  0
  7 12  1  0
  8  9  1  0
  9 10  1  0
 10 11  1  0
 11 12  1  0
 12 13  1  1
 13 14  2  0
 13 20  1  0
 14 15  1  0
 15 16  1  0
 15 17  2  0
 17 18  1  0
 17 19  1  0
 19 20  2  0
 20 21  1  0
M  END
