
     RDKit          3D

 21 23  0  0  0  0  0  0  0  0999 V2000
   -5.2430    2.6820   -0.6960 C   0  0  0  0  0  0  0  0  0  0  0  0
   -4.5710    1.3800   -0.3530 C   0  0  0  0  0  0  0  0  0  0  0  0
   -5.2240    0.4240    0.4040 C   0  0  0  0  0  0  0  0  0  0  0  0
   -4.5910   -0.7650    0.7120 C   0  0  0  0  0  0  0  0  0  0  0  0
   -3.3090   -1.0490    0.2910 C   0  0  0  0  0  0  0  0  0  0  0  0
   -2.6570   -0.1100   -0.4590 C   0  0  0  0  0  0  0  0  0  0  0  0
   -3.2920    1.0920   -0.7730 C   0  0  0  0  0  0  0  0  0  0  0  0
   -1.3130   -0.1510   -1.0330 C   0  0  0  0  0  0  0  0  0  0  0  0
   -0.3690   -0.8870   -0.1650 N   0  0  0  0  0  0  0  0  0  0  0  0
    0.9170   -0.5070   -0.7180 C   0  0  0  0  0  0  0  0  0  0  0  0
    2.0910   -0.9840   -0.0180 C   0  0  0  0  0  0  0  0  0  0  0  0
    2.2620   -2.3690    0.1220 O   0  0  0  0  0  0  0  0  0  0  0  0
    3.0220   -0.2170    0.5050 C   0  0  0  0  0  0  0  0  0  0  0  0
    3.0750    1.2480    0.4930 C   0  0  0  0  0  0  0  0  0  0  0  0
    4.4260    1.7790    0.0720 C   0  0  0  0  0  0  0  0  0  0  0  0
    5.5650    0.9350    0.5330 C   0  0  0  0  0  0  0  0  0  0  0  0
    5.1460    0.0510    1.6910 C   0  0  0  0  0  0  0  0  0  0  0  0
    4.1270   -0.8120    1.1700 O   0  0  0  0  0  0  0  0  0  0  0  0
   -0.6980   -2.2750   -0.3690 C   0  0  0  0  0  0  0  0  0  0  0  0
   -1.4750   -2.7220    0.8530 C   0  0  0  0  0  0  0  0  0  0  0  0
   -2.8460   -2.3050    0.7090 O   0  0  0  0  0  0  0  0  0  0  0  0
  1  2  1  0
  2  3  2  0
  2  7  1  0
  3  4  1  0
  4  5  2  0
  5  6  1  0
  5 21  1  0
  6  7  2  0
  6  8  1  0
  8  9  1  0
  9 10  1  0
  9 19  1  0
 10 11  1  0
 11 12  1  0
 11 13  2  3
 13 14  1  0
 13 18  1  0
 14 15  1  0
 15 16  1  0
 16 17  1  0
 17 18  1  0
 19 20  1  0
 20 21  1  0
M  END
