
     RDKit          3D

 20 22  0  0  0  0  0  0  0  0999 V2000
    4.0430   -1.1810    1.3850 C   0  0  0  0  0  0  0  0  0  0  0  0
    4.3290   -1.0160   -0.0810 C   0  0  0  0  0  0  0  0  0  0  0  0
    4.0360    0.3430   -0.5770 C   0  0  0  0  0  0  0  0  0  0  0  0
    2.6790    0.8660   -0.5080 C   0  0  1  0  0  0  0  0  0  0  0  0
    1.6460    0.0370   -1.2730 C   0  0  0  0  0  0  0  0  0  0  0  0
    0.3680    0.5230   -0.7580 N   0  0  1  0  0  0  0  0  0  0  0  0
   -0.4320   -0.5350   -0.2110 C   0  0  0  0  0  0  0  0  0  0  0  0
   -1.8530   -0.1320   -0.1380 C   0  0  0  0  0  0  0  0  0  0  0  0
   -2.3490    1.0870   -0.5370 C   0  0  0  0  0  0  0  0  0  0  0  0
   -3.6890    1.0880   -0.3190 N   0  0  0  0  0  0  0  0  0  0  0  0
   -4.0440   -0.1020    0.2060 C   0  0  0  0  0  0  0  0  0  0  0  0
   -5.2790   -0.5960    0.6020 C   0  0  0  0  0  0  0  0  0  0  0  0
   -6.4420    0.1940    0.4810 N   0  0  0  0  0  0  0  0  0  0  0  0
   -5.3370   -1.8370    1.0990 N   0  0  0  0  0  0  0  0  0  0  0  0
   -4.2330   -2.5790    1.2100 C   0  0  0  0  0  0  0  0  0  0  0  0
   -3.0320   -2.1170    0.8330 N   0  0  0  0  0  0  0  0  0  0  0  0
   -2.9060   -0.8650    0.3210 C   0  0  0  0  0  0  0  0  0  0  0  0
    0.6300    1.5220    0.2330 C   0  0  0  0  0  0  0  0  0  0  0  0
    1.9950    1.0370    0.7890 C   0  0  2  0  0  0  0  0  0  0  0  0
    2.5400    2.0130    1.6090 O   0  0  0  0  0  0  0  0  0  0  0  0
  1  2  1  0
  2  3  1  0
  4  3  1  1
  4  5  1  0
  4 19  1  0
  5  6  1  0
  6  7  1  1
  6 18  1  0
  7  8  1  0
  8  9  2  0
  8 17  1  0
  9 10  1  0
 10 11  1  0
 11 12  2  0
 11 17  1  0
 12 13  1  0
 12 14  1  0
 14 15  2  0
 15 16  1  0
 16 17  2  0
 18 19  1  0
 19 20  1  1
M  CHG  1   6   1
M  END
