
     RDKit          3D

 25 26  0  0  0  0  0  0  0  0999 V2000
    2.9770    1.0270    3.5290 C   0  0  0  0  0  0  0  0  0  0  0  0
    4.0350    0.3270    2.8750 N   0  0  0  0  0  0  0  0  0  0  0  0
    3.6290   -0.9920    2.4120 C   0  0  0  0  0  0  0  0  0  0  0  0
    2.5630   -0.8320    1.3610 C   0  0  0  0  0  0  0  0  0  0  0  0
    1.8190   -1.8720    0.8730 C   0  0  0  0  0  0  0  0  0  0  0  0
    0.9450   -1.3240   -0.0770 C   0  0  0  0  0  0  0  0  0  0  0  0
    1.1980    0.0190   -0.1230 C   0  0  0  0  0  0  0  0  0  0  0  0
    0.6140    1.0760   -0.9080 C   0  0  0  0  0  0  0  0  0  0  0  0
    1.1120    2.2540   -0.6570 O   0  0  0  0  0  0  0  0  0  0  0  0
   -0.3670    1.0540   -1.8670 N   0  0  0  0  0  0  0  0  0  0  0  0
   -1.0500   -0.1070   -2.3110 C   0  0  0  0  0  0  0  0  0  0  0  0
   -2.3110   -0.4870   -1.6500 C   0  0  0  0  0  0  0  0  0  0  0  0
   -2.2700   -0.7240   -0.2350 N   0  0  0  0  0  0  0  0  0  0  0  0
   -2.0590    0.3200    0.7130 C   0  0  0  0  0  0  0  0  0  0  0  0
   -2.0170    0.1670    2.0080 C   0  0  0  0  0  0  0  0  0  0  0  0
   -2.1920   -1.1550    2.6280 C   0  0  0  0  0  0  0  0  0  0  0  0
   -2.4050   -2.1840    1.6210 C   0  0  0  0  0  0  0  0  0  0  0  0
   -2.4470   -2.0280    0.3250 C   0  0  0  0  0  0  0  0  0  0  0  0
   -2.6710   -3.1550   -0.6270 C   0  0  0  0  0  0  0  0  0  0  0  0
   -0.7310    2.3710   -2.4730 C   0  0  0  0  0  0  0  0  0  0  0  0
    0.1770    2.5460   -3.6650 C   0  0  0  0  0  0  0  0  0  0  0  0
   -0.0820    3.7990   -4.3470 N   0  0  0  0  0  0  0  0  0  0  0  0
   -0.9650    4.5830   -3.9400 O   0  0  0  0  0  0  0  0  0  0  0  0
    0.6450    4.1480   -5.4590 O   0  0  0  0  0  0  0  0  0  0  0  0
    2.1790    0.2320    0.7680 O   0  0  0  0  0  0  0  0  0  0  0  0
  1  2  1  0
  2  3  1  0
  3  4  1  0
  4  5  2  0
  4 25  1  0
  5  6  1  0
  6  7  2  0
  7  8  1  0
  7 25  1  0
  8  9  2  0
  8 10  1  0
 10 11  1  0
 10 20  1  0
 11 12  1  0
 12 13  1  0
 13 14  1  0
 13 18  1  0
 14 15  2  0
 15 16  1  0
 16 17  1  0
 17 18  2  0
 18 19  1  0
 20 21  1  0
 21 22  1  0
 22 23  2  0
 22 24  1  0
M  CHG  3   2   1  22   1  24  -1
M  END
