
     RDKit          3D

 25 26  0  0  0  0  0  0  0  0999 V2000
   -5.5500    0.7850   -2.3180 C   0  0  0  0  0  0  0  0  0  0  0  0
   -5.4220   -0.6920   -2.0160 C   0  0  0  0  0  0  0  0  0  0  0  0
   -5.7410   -0.9130   -0.5910 C   0  0  0  0  0  0  0  0  0  0  0  0
   -6.8330   -1.4080   -0.0820 O   0  0  0  0  0  0  0  0  0  0  0  0
   -6.7710   -1.4590    1.2120 N   0  0  0  0  0  0  0  0  0  0  0  0
   -7.7540   -1.9290    2.0790 O   0  0  0  0  0  0  0  0  0  0  0  0
   -5.5970   -0.9840    1.6260 C   0  0  0  0  0  0  0  0  0  0  0  0
   -5.0520   -0.8350    3.0070 C   0  0  0  0  0  0  0  0  0  0  0  0
   -4.9110   -0.6230    0.4710 C   0  0  0  0  0  0  0  0  0  0  0  0
   -3.5870   -0.0570    0.4510 N   0  0  0  0  0  0  0  0  0  0  0  0
   -2.4700   -0.9180    0.3720 C   0  0  0  0  0  0  0  0  0  0  0  0
   -2.7070   -2.1600    0.3210 O   0  0  0  0  0  0  0  0  0  0  0  0
   -1.1280   -0.4590    0.3480 N   0  0  0  0  0  0  0  0  0  0  0  0
   -0.0400   -1.4450    0.2620 C   0  0  0  0  0  0  0  0  0  0  0  0
    1.2420   -0.7730   -0.1770 C   0  0  0  0  0  0  0  0  0  0  0  0
    1.6810    0.3120    0.7900 C   0  0  1  0  0  0  0  0  0  0  0  0
    2.5520    1.2960    0.0640 C   0  0  0  0  0  0  0  0  0  0  0  0
    3.7430    0.7260   -0.5020 N   0  0  1  0  0  0  0  0  0  0  0  0
    4.4370    1.8150   -1.1730 C   0  0  0  0  0  0  0  0  0  0  0  0
    4.5570    0.0280    0.4400 C   0  0  0  0  0  0  0  0  0  0  0  0
    6.0140    0.0240    0.0990 C   0  0  0  0  0  0  0  0  0  0  0  0
    6.2040   -0.5760   -1.1180 O   0  0  0  0  0  0  0  0  0  0  0  0
    7.5370   -0.6210   -1.5120 C   0  0  0  0  0  0  0  0  0  0  0  0
    0.4520    0.9900    1.3590 C   0  0  0  0  0  0  0  0  0  0  0  0
   -0.7190    0.9130    0.4030 C   0  0  0  0  0  0  0  0  0  0  0  0
  1  2  1  0
  2  3  1  0
  3  4  1  0
  3  9  2  0
  4  5  1  0
  5  6  1  0
  5  7  2  0
  7  8  1  0
  7  9  1  0
  9 10  1  0
 10 11  1  0
 11 12  2  0
 11 13  1  0
 13 14  1  0
 13 25  1  0
 14 15  1  0
 15 16  1  0
 16 17  1  6
 16 24  1  0
 17 18  1  0
 18 19  1  1
 18 20  1  0
 20 21  1  0
 21 22  1  0
 22 23  1  0
 24 25  1  0
M  CHG  3   5   1   6  -1  18   1
M  END
