
     RDKit          3D

 25 26  0  0  0  0  0  0  0  0999 V2000
    6.7030    2.4500   -1.5890 C   0  0  0  0  0  0  0  0  0  0  0  0
    7.3400    1.0920   -1.7550 C   0  0  0  0  0  0  0  0  0  0  0  0
    6.8120    0.1040   -0.7250 C   0  0  1  0  0  0  0  0  0  0  0  0
    7.1180    0.6150    0.5350 O   0  0  0  0  0  0  0  0  0  0  0  0
    5.3260   -0.1140   -0.9140 C   0  0  0  0  0  0  0  0  0  0  0  0
    4.7730   -1.0810    0.0850 C   0  0  0  0  0  0  0  0  0  0  0  0
    3.3300   -1.2880   -0.1050 N   0  0  0  0  0  0  0  0  0  0  0  0
    2.9760   -2.3490   -1.0040 C   0  0  0  0  0  0  0  0  0  0  0  0
    2.3930   -0.4820    0.5610 C   0  0  0  0  0  0  0  0  0  0  0  0
    2.9280    0.4310    1.3320 O   0  0  0  0  0  0  0  0  0  0  0  0
    0.9650   -0.4730    0.5530 C   0  0  0  0  0  0  0  0  0  0  0  0
    0.1180   -1.2340   -0.0930 C   0  0  0  0  0  0  0  0  0  0  0  0
   -1.3310   -0.9670    0.1150 C   0  0  0  0  0  0  0  0  0  0  0  0
   -1.8980   -0.0350    0.8880 N   0  0  0  0  0  0  0  0  0  0  0  0
   -3.2430   -0.1130    0.8100 C   0  0  0  0  0  0  0  0  0  0  0  0
   -4.1840    0.7710    1.5400 C   0  0  0  0  0  0  0  0  0  0  0  0
   -5.5490    0.4880    1.2550 N   0  0  1  0  0  0  0  0  0  0  0  0
   -6.3130    1.7160    1.5290 C   0  0  0  0  0  0  0  0  0  0  0  0
   -6.4950    2.5010    0.2350 C   0  0  0  0  0  0  0  0  0  0  0  0
   -7.3670    1.8180   -0.6020 O   0  0  0  0  0  0  0  0  0  0  0  0
   -7.2650    0.4470   -0.4060 C   0  0  0  0  0  0  0  0  0  0  0  0
   -5.8310    0.0310   -0.0680 C   0  0  0  0  0  0  0  0  0  0  0  0
   -3.4950   -1.1250   -0.0390 N   0  0  0  0  0  0  0  0  0  0  0  0
   -2.3320   -1.6460   -0.4620 N   0  0  0  0  0  0  0  0  0  0  0  0
   -2.2010   -2.7420   -1.3770 C   0  0  0  0  0  0  0  0  0  0  0  0
  1  2  1  0
  2  3  1  0
  3  4  1  1
  3  5  1  0
  5  6  1  0
  6  7  1  0
  7  8  1  0
  7  9  1  0
  9 10  2  0
  9 11  1  0
 11 12  2  3
 12 13  1  0
 13 14  2  0
 13 24  1  0
 14 15  1  0
 15 16  1  0
 15 23  2  0
 17 16  1  6
 17 18  1  0
 17 22  1  0
 18 19  1  0
 19 20  1  0
 20 21  1  0
 21 22  1  0
 23 24  1  0
 24 25  1  0
M  CHG  1  17   1
M  END
