
     RDKit          3D

 20 22  0  0  0  0  0  0  0  0999 V2000
    4.5780    2.9340   -0.5050 C   0  0  0  0  0  0  0  0  0  0  0  0
    3.7260    1.6530    0.4450 S   0  0  0  0  0  0  0  0  0  0  0  0
    3.3850    0.2680   -0.6860 C   0  0  0  0  0  0  0  0  0  0  0  0
    2.6800   -0.7940    0.0980 C   0  0  1  0  0  0  0  0  0  0  0  0
    1.3700   -0.3070    0.6890 C   0  0  0  0  0  0  0  0  0  0  0  0
    0.5380   -1.4500    0.8130 N   0  0  1  0  0  0  0  0  0  0  0  0
   -0.6890   -1.4130    0.0920 C   0  0  0  0  0  0  0  0  0  0  0  0
   -1.6050   -0.3230    0.4630 C   0  0  0  0  0  0  0  0  0  0  0  0
   -1.5050    0.6740    1.3770 C   0  0  0  0  0  0  0  0  0  0  0  0
   -2.6330    1.4020    1.3080 N   0  0  0  0  0  0  0  0  0  0  0  0
   -3.4450    0.9040    0.3840 C   0  0  0  0  0  0  0  0  0  0  0  0
   -4.7100    1.2500   -0.0950 C   0  0  0  0  0  0  0  0  0  0  0  0
   -5.3590    2.3780    0.4720 N   0  0  0  0  0  0  0  0  0  0  0  0
   -5.2900    0.5390   -1.0580 N   0  0  0  0  0  0  0  0  0  0  0  0
   -4.6920   -0.5220   -1.5980 C   0  0  0  0  0  0  0  0  0  0  0  0
   -3.4730   -0.8650   -1.1450 N   0  0  0  0  0  0  0  0  0  0  0  0
   -2.8300   -0.1770   -0.1630 C   0  0  0  0  0  0  0  0  0  0  0  0
    1.2830   -2.6000    0.2980 C   0  0  0  0  0  0  0  0  0  0  0  0
    2.1330   -1.9080   -0.7750 C   0  0  2  0  0  0  0  0  0  0  0  0
    3.0920   -2.7210   -1.2980 O   0  0  0  0  0  0  0  0  0  0  0  0
  1  2  1  0
  2  3  1  0
  4  3  1  6
  4  5  1  0
  4 19  1  0
  5  6  1  0
  6  7  1  6
  6 18  1  0
  7  8  1  0
  8  9  2  0
  8 17  1  0
  9 10  1  0
 10 11  1  0
 11 12  2  0
 11 17  1  0
 12 13  1  0
 12 14  1  0
 14 15  2  0
 15 16  1  0
 16 17  2  0
 18 19  1  0
 19 20  1  1
M  CHG  1   6   1
M  END
