
     RDKit          3D

 25 25  0  0  0  0  0  0  0  0999 V2000
    3.5120    0.4400   -1.9000 C   0  0  0  0  0  0  0  0  0  0  0  0
    4.1410   -0.6310   -2.7170 C   0  0  0  0  0  0  0  0  0  0  0  0
    3.3550   -1.8740   -2.7800 C   0  0  0  0  0  0  0  0  0  0  0  0
    3.1500   -2.5590   -1.4920 C   0  0  0  0  0  0  0  0  0  0  0  0
    2.3930   -1.8180   -0.4390 C   0  0  0  0  0  0  0  0  0  0  0  0
    1.0040   -1.6270   -0.6940 N   0  0  0  0  0  0  0  0  0  0  0  0
    0.1090   -0.9330    0.1390 C   0  0  0  0  0  0  0  0  0  0  0  0
    0.4990   -0.4230    1.1900 O   0  0  0  0  0  0  0  0  0  0  0  0
   -1.3440   -0.7970   -0.2360 C   0  0  0  0  0  0  0  0  0  0  0  0
   -2.0320    0.1550    0.6740 C   0  0  1  0  0  0  0  0  0  0  0  0
   -1.4520    1.5300    0.6120 C   0  0  0  0  0  0  0  0  0  0  0  0
   -0.3870    1.6470   -0.0390 O   0  0  0  0  0  0  0  0  0  0  0  0
   -1.9410    2.7360    1.1910 N   0  0  0  0  0  0  0  0  0  0  0  0
   -1.0900    3.9060    1.2080 C   0  0  0  0  0  0  0  0  0  0  0  0
   -1.3930    4.6420   -0.1040 C   0  0  0  0  0  0  0  0  0  0  0  0
   -3.1680    2.8780    1.7360 O   0  0  0  0  0  0  0  0  0  0  0  0
   -3.5400    1.7300    2.3870 C   0  0  0  0  0  0  0  0  0  0  0  0
   -4.1510    0.6610    1.5550 C   0  0  0  0  0  0  0  0  0  0  0  0
   -3.4200    0.2790    0.3850 N   0  0  2  0  0  0  0  0  0  0  0  0
   -4.0210   -0.8880   -0.2080 C   0  0  0  0  0  0  0  0  0  0  0  0
   -5.5010   -0.6620   -0.2870 C   0  0  0  0  0  0  0  0  0  0  0  0
    2.9640   -1.3800    0.5850 N   0  0  0  0  0  0  0  0  0  0  0  0
    2.4260   -0.7030    1.6180 O   0  0  0  0  0  0  0  0  0  0  0  0
    4.4160   -1.5970    0.7590 C   0  0  0  0  0  0  0  0  0  0  0  0
    4.6760   -2.5310    1.9170 C   0  0  0  0  0  0  0  0  0  0  0  0
  1  2  1  0
  2  3  1  0
  3  4  1  0
  4  5  1  0
  5  6  1  0
  5 22  2  3
  6  7  1  0
  7  8  2  0
  7  9  1  0
 10  9  1  6
 10 11  1  0
 10 19  1  0
 11 12  2  0
 11 13  1  0
 13 14  1  0
 13 16  1  0
 14 15  1  0
 16 17  1  0
 17 18  1  0
 18 19  1  0
 19 20  1  1
 20 21  1  0
 22 23  1  0
 22 24  1  0
 24 25  1  0
M  CHG  3  19   1  22   1  23  -1
M  END
