
     RDKit          3D

 25 27  0  0  0  0  0  0  0  0999 V2000
    7.3420   -2.0910   -0.0230 C   0  0  0  0  0  0  0  0  0  0  0  0
    7.2480   -0.9530    0.7360 O   0  0  0  0  0  0  0  0  0  0  0  0
    5.9590   -0.5730    1.0460 C   0  0  0  0  0  0  0  0  0  0  0  0
    5.1080   -0.2870   -0.1530 C   0  0  0  0  0  0  0  0  0  0  0  0
    3.8160    0.0980    0.2010 O   0  0  0  0  0  0  0  0  0  0  0  0
    3.0420    0.3570   -0.8530 N   0  0  2  0  0  0  0  0  0  0  0  0
    3.5750   -0.0320   -2.0230 O   0  0  0  0  0  0  0  0  0  0  0  0
    2.7240    1.7730   -0.8320 C   0  0  0  0  0  0  0  0  0  0  0  0
    2.3480    2.0510    0.6250 C   0  0  0  0  0  0  0  0  0  0  0  0
    1.1310    1.4950    0.8520 O   0  0  0  0  0  0  0  0  0  0  0  0
    0.9810    0.1790    0.4820 C   0  0  1  0  0  0  0  0  0  0  0  0
   -0.5140   -0.0190    0.2900 C   0  0  0  0  0  0  0  0  0  0  0  0
   -0.9250    0.8980   -0.7100 N   0  0  0  0  0  0  0  0  0  0  0  0
   -2.2880    0.8370   -1.1190 C   0  0  2  0  0  0  0  0  0  0  0  0
   -3.0910    2.0720   -0.6930 C   0  0  0  0  0  0  0  0  0  0  0  0
   -3.2750    2.0130    0.7800 C   0  0  0  0  0  0  0  0  0  0  0  0
   -3.8910    0.7770    1.3060 C   0  0  0  0  0  0  0  0  0  0  0  0
   -3.5960   -0.4830    0.5900 C   0  0  1  0  0  0  0  0  0  0  0  0
   -4.8340   -1.2850    0.6220 N   0  0  0  0  0  0  0  0  0  0  0  0
   -5.4100   -2.0030   -0.3280 C   0  0  0  0  0  0  0  0  0  0  0  0
   -6.5500   -2.5600    0.2090 C   0  0  0  0  0  0  0  0  0  0  0  0
   -6.6260   -2.1460    1.5100 C   0  0  0  0  0  0  0  0  0  0  0  0
   -5.5590   -1.3680    1.7250 N   0  0  0  0  0  0  0  0  0  0  0  0
   -3.0580   -0.3660   -0.7790 C   0  0  0  0  0  0  0  0  0  0  0  0
    1.7740   -0.3320   -0.6410 C   0  0  0  0  0  0  0  0  0  0  0  0
  1  2  1  0
  2  3  1  0
  3  4  1  0
  4  5  1  0
  5  6  1  0
  6  7  1  6
  6  8  1  0
  6 25  1  0
  8  9  1  0
  9 10  1  0
 10 11  1  0
 11 12  1  6
 11 25  1  0
 12 13  1  0
 14 13  1  1
 14 15  1  0
 14 24  1  0
 15 16  1  0
 16 17  1  0
 17 18  1  0
 18 19  1  6
 18 24  1  0
 19 20  1  0
 19 23  1  0
 20 21  2  0
 21 22  1  0
 22 23  2  0
M  CHG  3   6   1   7  -1  13   1
M  END
