
     RDKit          3D

 25 26  0  0  0  0  0  0  0  0999 V2000
   -0.7450    2.7250   -0.0850 C   0  0  0  0  0  0  0  0  0  0  0  0
   -0.6310    1.4760    0.7320 C   0  0  0  0  0  0  0  0  0  0  0  0
   -1.3050    0.2800    0.1170 C   0  0  1  0  0  0  0  0  0  0  0  0
   -0.8240   -0.1050   -1.1500 N   0  0  0  0  0  0  0  0  0  0  0  0
    0.1880   -1.0950   -1.2310 C   0  0  0  0  0  0  0  0  0  0  0  0
    1.5510   -0.6810   -0.9010 C   0  0  0  0  0  0  0  0  0  0  0  0
    2.1860   -0.8440    0.3110 C   0  0  0  0  0  0  0  0  0  0  0  0
    3.3860   -0.3480    0.2140 O   0  0  0  0  0  0  0  0  0  0  0  0
    3.5960    0.1370   -0.9850 C   0  0  0  0  0  0  0  0  0  0  0  0
    4.8590    0.7680   -1.4110 C   0  0  0  0  0  0  0  0  0  0  0  0
    5.8710    0.7870   -0.2920 C   0  0  1  0  0  0  0  0  0  0  0  0
    5.3930    1.5470    0.9070 C   0  0  0  0  0  0  0  0  0  0  0  0
    6.3100   -0.5790    0.1220 C   0  0  0  0  0  0  0  0  0  0  0  0
    2.4630   -0.0670   -1.6760 N   0  0  0  0  0  0  0  0  0  0  0  0
   -1.4140   -0.7950    1.1420 C   0  0  0  0  0  0  0  0  0  0  0  0
   -2.7510   -1.4700    0.9240 C   0  0  2  0  0  0  0  0  0  0  0  0
   -2.6590   -2.8220    0.3050 C   0  0  0  0  0  0  0  0  0  0  0  0
   -3.4910   -0.5150    0.0790 N   0  0  0  0  0  0  0  0  0  0  0  0
   -4.7650   -0.8420   -0.4820 C   0  0  0  0  0  0  0  0  0  0  0  0
   -5.9500   -0.5210    0.3560 C   0  0  0  0  0  0  0  0  0  0  0  0
   -6.0490    0.8870    0.6320 N   0  0  0  0  0  0  0  0  0  0  0  0
   -5.9600    1.2770    1.8230 O   0  0  0  0  0  0  0  0  0  0  0  0
   -6.2370    1.8380   -0.3330 O   0  0  0  0  0  0  0  0  0  0  0  0
   -2.7510    0.6860   -0.0480 C   0  0  0  0  0  0  0  0  0  0  0  0
   -3.1830    1.8460   -0.2540 O   0  0  0  0  0  0  0  0  0  0  0  0
  1  2  1  0
  3  2  1  1
  3  4  1  0
  3 15  1  0
  3 24  1  0
  4  5  1  0
  5  6  1  0
  6  7  2  0
  6 14  1  0
  7  8  1  0
  8  9  1  0
  9 10  1  0
  9 14  2  0
 10 11  1  0
 11 12  1  1
 11 13  1  0
 15 16  1  0
 16 17  1  6
 16 18  1  0
 18 19  1  0
 18 24  1  0
 19 20  1  0
 20 21  1  0
 21 22  2  0
 21 23  1  0
 24 25  2  0
M  CHG  3   4   1  21   1  23  -1
M  END
