
     RDKit          3D

 22 24  0  0  0  0  0  0  0  0999 V2000
   -2.6820   -2.9310    3.8730 N   0  0  0  0  0  0  0  0  0  0  0  0
   -3.1040   -1.6130    3.5440 C   0  0  0  0  0  0  0  0  0  0  0  0
   -2.3570   -0.7870    2.7080 C   0  0  0  0  0  0  0  0  0  0  0  0
   -2.7790    0.4890    2.3990 C   0  0  0  0  0  0  0  0  0  0  0  0
   -2.0190    1.3760    1.5270 C   0  0  0  0  0  0  0  0  0  0  0  0
   -0.8210    1.1280    0.8880 C   0  0  0  0  0  0  0  0  0  0  0  0
   -0.4460    2.2370    0.1590 C   0  0  0  0  0  0  0  0  0  0  0  0
    0.7910    2.3830   -0.6820 C   0  0  0  0  0  0  0  0  0  0  0  0
    1.4790    1.1480   -0.6800 N   0  0  0  0  0  0  0  0  0  0  0  0
    2.6720    1.0180   -1.3900 C   0  0  2  0  0  0  0  0  0  0  0  0
    2.6330    1.1970   -2.8690 C   0  0  0  0  0  0  0  0  0  0  0  0
    1.9560    0.0250   -3.5740 C   0  0  0  0  0  0  0  0  0  0  0  0
    1.2330   -0.8630   -2.6000 C   0  0  0  0  0  0  0  0  0  0  0  0
    2.0650   -1.3480   -1.4650 C   0  0  1  0  0  0  0  0  0  0  0  0
    2.5620   -2.7620   -1.6630 C   0  0  0  0  0  0  0  0  0  0  0  0
    3.5450   -3.2600   -0.2640 Cl  0  0  0  0  0  0  0  0  0  0  0  0
    3.1960   -0.4110   -1.1520 C   0  0  0  0  0  0  0  0  0  0  0  0
   -1.4200    3.1390    0.3650 N   0  0  0  0  0  0  0  0  0  0  0  0
   -2.3520    2.6290    1.1760 N   0  0  0  0  0  0  0  0  0  0  0  0
   -3.9740    0.8950    2.9620 C   0  0  0  0  0  0  0  0  0  0  0  0
   -4.6960    0.0570    3.7880 C   0  0  0  0  0  0  0  0  0  0  0  0
   -4.2730   -1.1860    4.0820 N   0  0  0  0  0  0  0  0  0  0  0  0
  1  2  1  0
  2  3  2  0
  2 22  1  0
  3  4  1  0
  4  5  1  0
  4 20  2  0
  5  6  1  0
  5 19  2  0
  6  7  2  0
  7  8  1  0
  7 18  1  0
  8  9  1  0
 10  9  1  6
 10 11  1  0
 10 17  1  0
 11 12  1  0
 12 13  1  0
 13 14  1  0
 14 15  1  6
 14 17  1  0
 15 16  1  0
 18 19  1  0
 20 21  1  0
 21 22  2  0
M  CHG  1  22   1
M  END
