
     RDKit          3D

 22 24  0  0  0  0  0  0  0  0999 V2000
   -4.8800    3.1080   -0.8530 C   0  0  0  0  0  0  0  0  0  0  0  0
   -3.7620    2.1320   -0.7250 C   0  0  0  0  0  0  0  0  0  0  0  0
   -2.4310    2.3490   -0.9300 N   0  0  0  0  0  0  0  0  0  0  0  0
   -1.7590    1.2070   -0.7060 C   0  0  0  0  0  0  0  0  0  0  0  0
   -0.3460    1.0910   -0.8320 N   0  0  0  0  0  0  0  0  0  0  0  0
    0.3540   -0.1550   -0.5830 C   0  0  2  0  0  0  0  0  0  0  0  0
    0.1310   -0.6160    0.8100 C   0  0  0  0  0  0  0  0  0  0  0  0
    1.3710   -0.7070    1.6610 C   0  0  0  0  0  0  0  0  0  0  0  0
    2.5040   -1.3160    0.9060 C   0  0  0  0  0  0  0  0  0  0  0  0
    3.3370   -2.2320    1.4890 C   0  0  0  0  0  0  0  0  0  0  0  0
    4.3840   -2.7830    0.7500 C   0  0  0  0  0  0  0  0  0  0  0  0
    5.4720   -3.9510    1.4370 Cl  0  0  0  0  0  0  0  0  0  0  0  0
    4.5950   -2.4110   -0.5820 C   0  0  0  0  0  0  0  0  0  0  0  0
    5.6670   -2.9660   -1.3560 C   0  0  0  0  0  0  0  0  0  0  0  0
    6.5300   -3.4290   -1.9890 N   0  0  0  0  0  0  0  0  0  0  0  0
    3.7520   -1.4900   -1.1580 C   0  0  0  0  0  0  0  0  0  0  0  0
    2.7060   -0.9450   -0.4070 C   0  0  0  0  0  0  0  0  0  0  0  0
    1.7900    0.0440   -0.9850 C   0  0  2  0  0  0  0  0  0  0  0  0
    2.1730    1.3870   -0.5180 N   0  0  0  0  0  0  0  0  0  0  0  0
   -2.6260    0.2410   -0.3580 N   0  0  0  0  0  0  0  0  0  0  0  0
   -3.8540    0.8080   -0.3690 C   0  0  0  0  0  0  0  0  0  0  0  0
   -5.1540    0.1310   -0.0460 C   0  0  0  0  0  0  0  0  0  0  0  0
  1  2  1  0
  2  3  1  0
  2 21  2  0
  3  4  1  0
  4  5  1  0
  4 20  2  0
  6  5  1  1
  6  7  1  0
  6 18  1  0
  7  8  1  0
  8  9  1  0
  9 10  2  0
  9 17  1  0
 10 11  1  0
 11 12  1  0
 11 13  2  0
 13 14  1  0
 13 16  1  0
 14 15  3  0
 16 17  2  0
 17 18  1  0
 18 19  1  1
 20 21  1  0
 21 22  1  0
M  CHG  1  20   1
M  END
