
     RDKit          3D

 23 25  0  0  0  0  0  0  0  0999 V2000
    7.2230    1.2910    0.7200 C   0  0  0  0  0  0  0  0  0  0  0  0
    6.9130   -0.1380    0.2610 C   0  0  0  0  0  0  0  0  0  0  0  0
    5.3950   -0.3320    0.3370 C   0  0  0  0  0  0  0  0  0  0  0  0
    4.7860    0.6170   -0.6770 C   0  0  0  0  0  0  0  0  0  0  0  0
    3.0060    0.6790   -0.5710 S   0  0  0  0  0  0  0  0  0  0  0  0
    2.2500   -0.9750   -0.3610 C   0  0  0  0  0  0  0  0  0  0  0  0
    1.1410   -0.7280    0.6470 C   0  0  1  0  0  0  0  0  0  0  0  0
    0.1860    0.2560   -0.0650 C   0  0  0  0  0  0  0  0  0  0  0  0
   -1.0850   -0.3160    0.0150 N   0  0  1  0  0  0  0  0  0  0  0  0
   -2.1280   -0.1780   -0.9180 C   0  0  0  0  0  0  0  0  0  0  0  0
   -3.2740    0.6310   -0.4980 C   0  0  0  0  0  0  0  0  0  0  0  0
   -3.4520    1.9710   -0.3770 C   0  0  0  0  0  0  0  0  0  0  0  0
   -4.7580    2.1840   -0.1050 N   0  0  0  0  0  0  0  0  0  0  0  0
   -5.4350    1.0040   -0.0410 C   0  0  0  0  0  0  0  0  0  0  0  0
   -6.7340    0.6480    0.2400 C   0  0  0  0  0  0  0  0  0  0  0  0
   -7.7260    1.6370    0.4920 N   0  0  0  0  0  0  0  0  0  0  0  0
   -7.0850   -0.6520    0.2930 N   0  0  0  0  0  0  0  0  0  0  0  0
   -6.1550   -1.6130    0.0640 C   0  0  0  0  0  0  0  0  0  0  0  0
   -4.8960   -1.2720   -0.2250 N   0  0  0  0  0  0  0  0  0  0  0  0
   -4.5200    0.0120   -0.2800 C   0  0  0  0  0  0  0  0  0  0  0  0
   -0.7850   -1.7970   -0.0180 C   0  0  0  0  0  0  0  0  0  0  0  0
    0.3050   -1.8850    0.9890 C   0  0  2  0  0  0  0  0  0  0  0  0
   -0.2940   -1.6760    2.2510 O   0  0  0  0  0  0  0  0  0  0  0  0
  1  2  1  0
  2  3  1  0
  3  4  1  0
  4  5  1  0
  5  6  1  0
  7  6  1  6
  7  8  1  0
  7 22  1  0
  8  9  1  0
  9 10  1  6
  9 21  1  0
 10 11  1  0
 11 12  2  0
 11 20  1  0
 12 13  1  0
 13 14  1  0
 14 15  2  0
 14 20  1  0
 15 16  1  0
 15 17  1  0
 17 18  2  0
 18 19  1  0
 19 20  2  0
 21 22  1  0
 22 23  1  1
M  CHG  1   9   1
M  END
