
     RDKit          3D

 22 24  0  0  0  0  0  0  0  0999 V2000
    2.3860   -2.6110   -0.6090 N   0  0  0  0  0  0  0  0  0  0  0  0
    1.4980   -1.5430   -0.3260 C   0  0  0  0  0  0  0  0  0  0  0  0
    0.1180   -1.7310   -0.1910 C   0  0  0  0  0  0  0  0  0  0  0  0
   -0.3870   -0.4700    0.0850 C   0  0  0  0  0  0  0  0  0  0  0  0
   -1.7880   -0.0540    0.4020 C   0  0  2  0  0  0  0  0  0  0  0  0
   -1.7250    0.7810    1.6970 C   0  0  0  0  0  0  0  0  0  0  0  0
   -0.9120    1.9730    1.4810 N   0  0  0  0  0  0  0  0  0  0  0  0
   -2.5330   -1.3020    0.7530 C   0  0  0  0  0  0  0  0  0  0  0  0
   -4.0570   -1.1110    0.5950 C   0  0  0  0  0  0  0  0  0  0  0  0
   -4.3720   -0.8320   -0.8630 C   0  0  0  0  0  0  0  0  0  0  0  0
   -3.3800    0.0350   -1.5480 C   0  0  0  0  0  0  0  0  0  0  0  0
   -2.4470    0.7840   -0.6200 C   0  0  0  0  0  0  0  0  0  0  0  0
    0.6820    0.3790    0.0950 N   0  0  0  0  0  0  0  0  0  0  0  0
    1.8110   -0.2550   -0.1460 N   0  0  0  0  0  0  0  0  0  0  0  0
    3.1090    0.3450   -0.1370 C   0  0  0  0  0  0  0  0  0  0  0  0
    3.3230    1.3550    0.8090 C   0  0  0  0  0  0  0  0  0  0  0  0
    4.5300    1.9690    0.9760 C   0  0  0  0  0  0  0  0  0  0  0  0
    5.5700    1.5640    0.1630 C   0  0  0  0  0  0  0  0  0  0  0  0
    7.1450    2.3330    0.3990 Cl  0  0  0  0  0  0  0  0  0  0  0  0
    5.3750    0.5760   -0.7760 C   0  0  0  0  0  0  0  0  0  0  0  0
    6.7600    0.1620   -1.7580 Cl  0  0  0  0  0  0  0  0  0  0  0  0
    4.1420   -0.0610   -0.9490 C   0  0  0  0  0  0  0  0  0  0  0  0
  1  2  1  0
  2  3  2  0
  2 14  1  0
  3  4  1  0
  4  5  1  0
  4 13  2  0
  5  6  1  1
  5  8  1  0
  5 12  1  0
  6  7  1  0
  8  9  1  0
  9 10  1  0
 10 11  1  0
 11 12  1  0
 13 14  1  0
 14 15  1  0
 15 16  2  0
 15 22  1  0
 16 17  1  0
 17 18  2  0
 18 19  1  0
 18 20  1  0
 20 21  1  0
 20 22  2  0
M  CHG  1   7   1
M  END
