
     RDKit          3D

 18 19  0  0  0  0  0  0  0  0999 V2000
   -2.7370    1.2670    2.0760 C   0  0  0  0  0  0  0  0  0  0  0  0
   -1.7750    0.4290    1.2250 C   0  0  2  0  0  0  0  0  0  0  0  0
   -1.0110    1.3740    0.3650 C   0  0  0  0  0  0  0  0  0  0  0  0
   -0.1440    0.5770   -0.5810 C   0  0  1  0  0  0  0  0  0  0  0  0
    0.8920   -0.0970    0.1800 N   0  0  0  0  0  0  0  0  0  0  0  0
    2.2790    0.2420    0.0290 C   0  0  0  0  0  0  0  0  0  0  0  0
    2.5430    1.1410   -0.7870 O   0  0  0  0  0  0  0  0  0  0  0  0
    3.3030   -0.3880    0.7470 N   0  0  0  0  0  0  0  0  0  0  0  0
    4.6840   -0.0810    0.6240 C   0  0  0  0  0  0  0  0  0  0  0  0
    5.4530    0.7430   -0.0590 C   0  0  0  0  0  0  0  0  0  0  0  0
    5.2140    2.1030   -1.3710 Br  0  0  0  0  0  0  0  0  0  0  0  0
    6.6600    0.2280    0.5730 C   0  0  0  0  0  0  0  0  0  0  0  0
    5.8940   -0.5930    1.2550 C   0  0  0  0  0  0  0  0  0  0  0  0
   -0.8910   -0.3980   -1.4110 C   0  0  0  0  0  0  0  0  0  0  0  0
   -2.2700   -0.7070   -0.9610 C   0  0  1  0  0  0  0  0  0  0  0  0
   -3.2880    0.1550   -1.7200 C   0  0  0  0  0  0  0  0  0  0  0  0
   -2.5750   -2.1490   -1.4000 C   0  0  0  0  0  0  0  0  0  0  0  0
   -2.4930   -0.6510    0.5090 C   0  0  0  0  0  0  0  0  0  0  0  0
  2  1  1  6
  2  3  1  0
  2 18  1  0
  3  4  1  0
  4  5  1  1
  4 14  1  0
  5  6  1  0
  6  7  2  0
  6  8  1  0
  8  9  1  0
  9 10  2  0
  9 13  1  0
 10 11  1  0
 10 12  1  0
 12 13  2  0
 14 15  1  0
 15 16  1  6
 15 17  1  0
 15 18  1  0
M  END
