
     RDKit          3D

 18 19  0  0  0  0  0  0  0  0999 V2000
   -1.5870   -0.2410   -1.8890 C   0  0  0  0  0  0  0  0  0  0  0  0
   -1.0540    0.0930   -0.5140 C   0  0  1  0  0  0  0  0  0  0  0  0
   -0.5420    1.5030   -0.5560 C   0  0  0  0  0  0  0  0  0  0  0  0
   -2.1640    0.0240    0.5240 C   0  0  0  0  0  0  0  0  0  0  0  0
   -3.3050    0.9400    0.2930 C   0  0  0  0  0  0  0  0  0  0  0  0
   -2.9260    2.3350    0.2850 N   0  0  0  0  0  0  0  0  0  0  0  0
   -0.0360   -0.8800   -0.2410 N   0  0  0  0  0  0  0  0  0  0  0  0
   -0.6040   -2.2070   -0.1640 C   0  0  0  0  0  0  0  0  0  0  0  0
    0.5030   -3.1390   -0.6600 C   0  0  0  0  0  0  0  0  0  0  0  0
    1.6720   -2.7740   -0.0370 O   0  0  0  0  0  0  0  0  0  0  0  0
    1.5090   -2.0310    1.1270 C   0  0  0  0  0  0  0  0  0  0  0  0
    0.8170   -0.6850    0.8600 C   0  0  1  0  0  0  0  0  0  0  0  0
    1.9390    0.2650    0.6130 C   0  0  0  0  0  0  0  0  0  0  0  0
    2.2190    1.3340    1.3060 C   0  0  0  0  0  0  0  0  0  0  0  0
    1.2430    1.9810    2.8580 Br  0  0  0  0  0  0  0  0  0  0  0  0
    3.4040    1.9840    0.7300 C   0  0  0  0  0  0  0  0  0  0  0  0
    3.7770    1.1320   -0.4050 C   0  0  0  0  0  0  0  0  0  0  0  0
    2.9110    0.1440   -0.4500 C   0  0  0  0  0  0  0  0  0  0  0  0
  2  1  1  6
  2  3  1  0
  2  4  1  0
  2  7  1  0
  4  5  1  0
  5  6  1  0
  7  8  1  0
  7 12  1  0
  8  9  1  0
  9 10  1  0
 10 11  1  0
 11 12  1  0
 12 13  1  6
 13 14  2  0
 13 18  1  0
 14 15  1  0
 14 16  1  0
 16 17  1  0
 17 18  2  0
M  END
