
     RDKit          3D

 17 19  0  0  0  0  0  0  0  0999 V2000
   -0.4850   -2.4130   -0.3830 C   0  0  0  0  0  0  0  0  0  0  0  0
   -1.2750   -1.1450   -0.4100 C   0  0  0  0  0  0  0  0  0  0  0  0
   -0.7140   -0.0490    0.0600 C   0  0  0  0  0  0  0  0  0  0  0  0
   -1.4960    1.2180    0.0460 C   0  0  0  0  0  0  0  0  0  0  0  0
   -2.7210    1.2680   -0.4270 C   0  0  0  0  0  0  0  0  0  0  0  0
   -3.3740    0.0630   -0.9670 C   0  0  0  0  0  0  0  0  0  0  0  0
   -2.5930   -1.1210   -0.9290 N   0  0  0  0  0  0  0  0  0  0  0  0
   -0.6190    2.2460    0.7070 C   0  0  0  0  0  0  0  0  0  0  0  0
    0.3180    1.3850    1.5630 C   0  0  0  0  0  0  0  0  0  0  0  0
    0.6000    0.2420    0.5960 C   0  0  0  0  0  0  0  0  0  0  0  0
    1.7550   -0.2250    0.2850 C   0  0  0  0  0  0  0  0  0  0  0  0
    2.3220   -1.4280   -0.9390 S   0  0  0  0  0  0  0  0  0  0  0  0
    3.9460   -0.6730   -1.1310 C   0  0  0  0  0  0  0  0  0  0  0  0
    4.6230   -0.6820   -2.1630 O   0  0  0  0  0  0  0  0  0  0  0  0
    4.1790   -0.1180    0.1490 N   0  0  0  0  0  0  0  0  0  0  0  0
    3.0510    0.1320    0.9280 C   0  0  0  0  0  0  0  0  0  0  0  0
    3.1280    0.6310    2.1090 O   0  0  0  0  0  0  0  0  0  0  0  0
  1  2  1  0
  2  3  2  0
  2  7  1  0
  3  4  1  0
  3 10  1  0
  4  5  2  0
  4  8  1  0
  5  6  1  0
  6  7  1  0
  8  9  1  0
  9 10  1  0
 10 11  2  3
 11 12  1  0
 11 16  1  0
 12 13  1  0
 13 14  2  0
 13 15  1  0
 15 16  1  0
 16 17  2  0
M  END
