
     RDKit          3D

 21 21  0  0  0  0  0  0  0  0999 V2000
   -3.3600    0.0580   -2.3240 C   0  0  0  0  0  0  0  0  0  0  0  0
   -3.4090    0.0080   -1.0180 C   0  0  0  0  0  0  0  0  0  0  0  0
   -2.4000    0.2150   -0.0270 C   0  0  0  0  0  0  0  0  0  0  0  0
   -2.7820    0.1150    1.2620 C   0  0  0  0  0  0  0  0  0  0  0  0
   -1.7920    0.3170    2.3150 C   0  0  0  0  0  0  0  0  0  0  0  0
   -4.0850   -0.1740    1.5420 O   0  0  0  0  0  0  0  0  0  0  0  0
   -0.9840    0.4690   -0.3470 C   0  0  2  0  0  0  0  0  0  0  0  0
   -0.9380    1.2800   -1.4720 O   0  0  0  0  0  0  0  0  0  0  0  0
   -0.0860   -0.6540   -0.5230 C   0  0  0  0  0  0  0  0  0  0  0  0
    1.2380   -0.5200   -0.0380 C   0  0  0  0  0  0  0  0  0  0  0  0
    1.7260    0.7560    0.3860 C   0  0  0  0  0  0  0  0  0  0  0  0
    2.6900    0.9830    1.2250 C   0  0  0  0  0  0  0  0  0  0  0  0
    3.5240    0.0260    1.9620 C   0  0  0  0  0  0  0  0  0  0  0  0
    1.1310    1.9400   -0.1490 O   0  0  0  0  0  0  0  0  0  0  0  0
    1.9450    2.8280   -0.9150 C   0  0  0  0  0  0  0  0  0  0  0  0
    2.0800   -1.5620   -0.0940 N   0  0  0  0  0  0  0  0  0  0  0  0
    1.6960   -2.7590   -0.6110 C   0  0  0  0  0  0  0  0  0  0  0  0
    2.4950   -3.7470   -0.6630 O   0  0  0  0  0  0  0  0  0  0  0  0
    0.4700   -2.9230   -1.0740 N   0  0  0  0  0  0  0  0  0  0  0  0
   -0.4170   -1.8830   -1.0330 C   0  0  0  0  0  0  0  0  0  0  0  0
   -1.5540   -2.0880   -1.4770 O   0  0  0  0  0  0  0  0  0  0  0  0
  1  2  2  0
  2  3  1  0
  3  4  2  3
  3  7  1  0
  4  5  1  0
  4  6  1  0
  7  8  1  6
  7  9  1  0
  9 10  2  0
  9 20  1  0
 10 11  1  0
 10 16  1  0
 11 12  2  3
 11 14  1  0
 12 13  1  0
 14 15  1  0
 16 17  1  0
 17 18  2  0
 17 19  1  0
 19 20  1  0
 20 21  2  0
M  END
