
     RDKit          3D

 21 21  0  0  0  0  0  0  0  0999 V2000
    8.0340    0.0580    0.8090 C   0  0  0  0  0  0  0  0  0  0  0  0
    6.8860   -0.1930   -0.0770 C   0  0  0  0  0  0  0  0  0  0  0  0
    5.5890   -0.1120    0.5750 O   0  0  0  0  0  0  0  0  0  0  0  0
    4.4690   -0.2450   -0.3140 C   0  0  0  0  0  0  0  0  0  0  0  0
    4.6630   -0.4690   -1.4840 O   0  0  0  0  0  0  0  0  0  0  0  0
    3.1360   -0.0900    0.2230 N   0  0  0  0  0  0  0  0  0  0  0  0
    2.0140   -0.1370   -0.6670 C   0  0  2  0  0  0  0  0  0  0  0  0
    1.9750    1.1490   -1.5610 C   0  0  0  0  0  0  0  0  0  0  0  0
    0.6760   -0.5510   -0.3290 C   0  0  0  0  0  0  0  0  0  0  0  0
    0.2530   -1.6490   -0.6660 O   0  0  0  0  0  0  0  0  0  0  0  0
   -0.2020    0.3370    0.3950 N   0  0  0  0  0  0  0  0  0  0  0  0
   -1.5450    0.2590    0.7160 C   0  0  0  0  0  0  0  0  0  0  0  0
   -2.2500   -1.0340    0.9650 C   0  0  2  0  0  0  0  0  0  0  0  0
   -1.6680   -1.9300    1.7730 O   0  0  0  0  0  0  0  0  0  0  0  0
   -2.8720   -1.5410   -0.3050 C   0  0  0  0  0  0  0  0  0  0  0  0
   -3.6230   -0.5280   -0.9960 O   0  0  0  0  0  0  0  0  0  0  0  0
   -4.7970    0.0250   -0.5500 C   0  0  0  0  0  0  0  0  0  0  0  0
   -5.9340   -0.6910   -0.3700 C   0  0  0  0  0  0  0  0  0  0  0  0
   -7.0470    0.1390    0.1150 C   0  0  0  0  0  0  0  0  0  0  0  0
   -6.4400    1.4730    0.2110 C   0  0  0  0  0  0  0  0  0  0  0  0
   -5.1490    1.3770   -0.1830 C   0  0  0  0  0  0  0  0  0  0  0  0
  1  2  1  0
  2  3  1  0
  3  4  1  0
  4  5  2  0
  4  6  1  0
  6  7  1  0
  7  8  1  1
  7  9  1  0
  9 10  2  0
  9 11  1  0
 11 12  1  0
 12 13  1  0
 13 14  1  6
 13 15  1  0
 15 16  1  0
 16 17  1  0
 17 18  2  0
 17 21  1  0
 18 19  1  0
 19 20  1  0
 20 21  2  0
M  END
