
     RDKit          3D

 21 21  0  0  0  0  0  0  0  0999 V2000
   -4.5870    2.0390    0.8040 C   0  0  0  0  0  0  0  0  0  0  0  0
   -4.0380    0.9710   -0.1180 C   0  0  2  0  0  0  0  0  0  0  0  0
   -5.1800    0.0240   -0.4250 C   0  0  0  0  0  0  0  0  0  0  0  0
   -5.6050   -0.6440    0.7220 O   0  0  0  0  0  0  0  0  0  0  0  0
   -2.8940    0.2950    0.4200 N   0  0  0  0  0  0  0  0  0  0  0  0
   -1.6400    0.3400   -0.2520 C   0  0  0  0  0  0  0  0  0  0  0  0
   -1.5970    0.9930   -1.3210 O   0  0  0  0  0  0  0  0  0  0  0  0
   -0.4290   -0.3250    0.2370 C   0  0  1  0  0  0  0  0  0  0  0  0
   -0.1280    0.2740    1.6170 C   0  0  0  0  0  0  0  0  0  0  0  0
   -0.6610   -1.8060    0.4810 C   0  0  0  0  0  0  0  0  0  0  0  0
    0.6180   -2.4730    0.8540 C   0  0  0  0  0  0  0  0  0  0  0  0
    1.7420   -1.7170    0.5930 O   0  0  0  0  0  0  0  0  0  0  0  0
    1.7600   -1.1640   -0.6730 C   0  0  2  0  0  0  0  0  0  0  0  0
    1.4580   -2.2150   -1.7420 C   0  0  0  0  0  0  0  0  0  0  0  0
    3.1140   -0.6280   -0.9800 C   0  0  0  0  0  0  0  0  0  0  0  0
    3.6180    0.4100   -0.0910 C   0  0  0  0  0  0  0  0  0  0  0  0
    2.9860    0.8450    0.8960 O   0  0  0  0  0  0  0  0  0  0  0  0
    4.9040    0.9630   -0.3580 N   0  0  0  0  0  0  0  0  0  0  0  0
    5.5030    1.9830    0.4400 C   0  0  0  0  0  0  0  0  0  0  0  0
    4.6360    3.0990    0.3950 O   0  0  0  0  0  0  0  0  0  0  0  0
    0.6990   -0.0890   -0.7310 C   0  0  0  0  0  0  0  0  0  0  0  0
  2  1  1  1
  2  3  1  0
  2  5  1  0
  3  4  1  0
  5  6  1  0
  6  7  2  0
  6  8  1  0
  8  9  1  1
  8 10  1  0
  8 21  1  0
 10 11  1  0
 11 12  1  0
 12 13  1  0
 13 14  1  6
 13 15  1  0
 13 21  1  0
 15 16  1  0
 16 17  2  0
 16 18  1  0
 18 19  1  0
 19 20  1  0
M  END
