
     RDKit          3D

 21 21  0  0  0  0  0  0  0  0999 V2000
    7.4140   -1.2380    0.6220 C   0  0  0  0  0  0  0  0  0  0  0  0
    6.5110   -0.1740    0.8430 O   0  0  0  0  0  0  0  0  0  0  0  0
    5.3000   -0.1020    0.1150 C   0  0  0  0  0  0  0  0  0  0  0  0
    5.0280   -0.9820   -0.7270 O   0  0  0  0  0  0  0  0  0  0  0  0
    4.4000    0.9670    0.3410 N   0  0  0  0  0  0  0  0  0  0  0  0
    3.1640    1.0590   -0.3840 C   0  0  0  0  0  0  0  0  0  0  0  0
    2.2280   -0.1150   -0.1680 C   0  0  0  0  0  0  0  0  0  0  0  0
    1.8670   -0.2700    1.1410 O   0  0  0  0  0  0  0  0  0  0  0  0
    1.2020    0.7420    1.7480 C   0  0  0  0  0  0  0  0  0  0  0  0
   -0.1360    1.0860    1.3120 C   0  0  0  0  0  0  0  0  0  0  0  0
   -0.6170    2.1760    1.7870 O   0  0  0  0  0  0  0  0  0  0  0  0
   -1.0010    0.3930    0.4380 N   0  0  0  0  0  0  0  0  0  0  0  0
   -2.3260    0.9020    0.1050 C   0  0  1  0  0  0  0  0  0  0  0  0
   -2.4100    1.1990   -1.3560 C   0  0  0  0  0  0  0  0  0  0  0  0
   -1.9670   -0.0360   -2.0800 C   0  0  0  0  0  0  0  0  0  0  0  0
   -2.7460   -1.2360   -1.6930 C   0  0  0  0  0  0  0  0  0  0  0  0
   -3.7300   -1.0670   -0.5970 C   0  0  1  0  0  0  0  0  0  0  0  0
   -3.9190   -2.3140    0.0240 O   0  0  0  0  0  0  0  0  0  0  0  0
   -3.4110   -0.0730    0.4560 C   0  0  2  0  0  0  0  0  0  0  0  0
   -4.6390    0.7770    0.7920 C   0  0  0  0  0  0  0  0  0  0  0  0
   -3.0110   -0.7350    1.7610 C   0  0  0  0  0  0  0  0  0  0  0  0
  1  2  1  0
  2  3  1  0
  3  4  2  0
  3  5  1  0
  5  6  1  0
  6  7  1  0
  7  8  1  0
  8  9  1  0
  9 10  1  0
 10 11  2  0
 10 12  1  0
 13 12  1  6
 13 14  1  0
 13 19  1  0
 14 15  1  0
 15 16  1  0
 16 17  1  0
 17 18  1  1
 17 19  1  0
 19 20  1  1
 19 21  1  0
M  END
