
     RDKit          3D

 25 26  0  0  0  0  0  0  0  0999 V2000
    4.4190   -0.6370    3.0600 C   0  0  0  0  0  0  0  0  0  0  0  0
    3.5470   -0.8660    1.9720 O   0  0  0  0  0  0  0  0  0  0  0  0
    2.5700    0.0190    1.5750 C   0  0  0  0  0  0  0  0  0  0  0  0
    2.4600    1.0900    2.2300 O   0  0  0  0  0  0  0  0  0  0  0  0
    1.7210   -0.3230    0.4290 C   0  0  0  0  0  0  0  0  0  0  0  0
    1.9400   -1.4790   -0.1670 C   0  0  0  0  0  0  0  0  0  0  0  0
    1.2350   -2.0270   -1.3060 C   0  0  0  0  0  0  0  0  0  0  0  0
   -0.0710   -2.1730   -1.4460 C   0  0  0  0  0  0  0  0  0  0  0  0
   -0.9110   -1.7990   -0.4750 O   0  0  0  0  0  0  0  0  0  0  0  0
   -1.5420   -2.3420    0.6120 C   0  0  0  0  0  0  0  0  0  0  0  0
   -2.9320   -1.7510    0.6250 C   0  0  0  0  0  0  0  0  0  0  0  0
   -4.1190   -2.3700    0.5790 N   0  0  0  0  0  0  0  0  0  0  0  0
   -5.1000   -1.4620    0.6080 N   0  0  0  0  0  0  0  0  0  0  0  0
   -4.5490   -0.2390    0.6740 C   0  0  0  0  0  0  0  0  0  0  0  0
   -5.2820    0.9350    0.7190 O   0  0  0  0  0  0  0  0  0  0  0  0
   -3.1700   -0.4110    0.6860 C   0  0  0  0  0  0  0  0  0  0  0  0
   -2.1300    0.6420    0.7560 C   0  0  0  0  0  0  0  0  0  0  0  0
   -2.0280    1.3510   -0.4810 N   0  0  0  0  0  0  0  0  0  0  0  0
   -1.0470    1.2400   -1.4740 C   0  0  0  0  0  0  0  0  0  0  0  0
   -1.4770    1.3410   -2.6810 O   0  0  0  0  0  0  0  0  0  0  0  0
    0.4080    1.0220   -1.2520 C   0  0  1  0  0  0  0  0  0  0  0  0
    1.0390    2.4230   -1.3240 C   0  0  1  0  0  0  0  0  0  0  0  0
    2.5160    2.3750   -1.1060 C   0  0  0  0  0  0  0  0  0  0  0  0
    0.7100    2.9870   -2.5710 O   0  0  0  0  0  0  0  0  0  0  0  0
    0.7330    0.4850   -0.0400 O   0  0  0  0  0  0  0  0  0  0  0  0
  1  2  1  0
  2  3  1  0
  3  4  2  0
  3  5  1  0
  5  6  2  0
  5 25  1  0
  6  7  1  0
  7  8  2  0
  8  9  1  0
  9 10  1  0
 10 11  1  0
 11 12  1  0
 11 16  2  0
 12 13  1  0
 13 14  2  0
 14 15  1  0
 14 16  1  0
 16 17  1  0
 17 18  1  0
 18 19  1  0
 19 20  2  0
 19 21  1  0
 21 22  1  0
 21 25  1  1
 22 23  1  6
 22 24  1  0
M  END
