
     RDKit          3D

 25 26  0  0  0  0  0  0  0  0999 V2000
   -4.5360    2.2370    2.3370 C   0  0  0  0  0  0  0  0  0  0  0  0
   -4.1580    1.2170    1.4340 O   0  0  0  0  0  0  0  0  0  0  0  0
   -3.3110    1.5020    0.3360 C   0  0  0  0  0  0  0  0  0  0  0  0
   -3.6940    2.6100   -0.4070 N   0  0  0  0  0  0  0  0  0  0  0  0
   -2.2340    0.6880    0.1500 C   0  0  0  0  0  0  0  0  0  0  0  0
   -2.1890   -0.3300    1.1910 C   0  0  0  0  0  0  0  0  0  0  0  0
   -1.3850   -1.4980    1.3920 C   0  0  0  0  0  0  0  0  0  0  0  0
   -3.1080   -0.1330    2.1480 O   0  0  0  0  0  0  0  0  0  0  0  0
   -1.5350    0.6810   -1.1440 C   0  0  0  0  0  0  0  0  0  0  0  0
   -0.3520    0.2160   -1.5150 C   0  0  0  0  0  0  0  0  0  0  0  0
    0.6060   -0.3950   -0.6730 N   0  0  0  0  0  0  0  0  0  0  0  0
    1.8490   -0.9330   -1.0550 C   0  0  0  0  0  0  0  0  0  0  0  0
    2.2140   -0.9060   -2.2460 O   0  0  0  0  0  0  0  0  0  0  0  0
    2.7640   -1.5560   -0.0180 C   0  0  2  0  0  0  0  0  0  0  0  0
    2.9940   -3.0010   -0.4440 C   0  0  0  0  0  0  0  0  0  0  0  0
    2.1810   -1.4420    1.1900 O   0  0  0  0  0  0  0  0  0  0  0  0
    2.6680   -0.3770    1.8690 C   0  0  0  0  0  0  0  0  0  0  0  0
    3.6120    0.3750    0.9490 C   0  0  0  0  0  0  0  0  0  0  0  0
    4.0490   -0.7930    0.0540 C   0  0  2  0  0  0  0  0  0  0  0  0
    4.5160   -0.3610   -1.1660 O   0  0  0  0  0  0  0  0  0  0  0  0
   -0.1920    0.3740   -2.9710 C   0  0  0  0  0  0  0  0  0  0  0  0
    0.7670    0.0750   -3.7240 O   0  0  0  0  0  0  0  0  0  0  0  0
   -1.3590    0.9630   -3.4830 N   0  0  0  0  0  0  0  0  0  0  0  0
   -2.2230    1.1680   -2.3800 C   0  0  0  0  0  0  0  0  0  0  0  0
   -3.3470    1.6760   -2.5790 O   0  0  0  0  0  0  0  0  0  0  0  0
  1  2  1  0
  2  3  1  0
  3  4  1  0
  3  5  2  3
  5  6  1  0
  5  9  1  0
  6  7  1  0
  6  8  2  0
  9 10  2  0
  9 24  1  0
 10 11  1  0
 10 21  1  0
 11 12  1  0
 12 13  2  0
 12 14  1  0
 14 15  1  6
 14 16  1  0
 14 19  1  0
 16 17  1  0
 17 18  1  0
 18 19  1  0
 19 20  1  6
 21 22  2  0
 21 23  1  0
 23 24  1  0
 24 25  2  0
M  END
