
     RDKit          3D

 10 10  0  0  0  0  0  0  0  0999 V2000
   -1.3140   -0.0740   -1.8340 O   0  0  0  0  0  0  0  0  0  0  0  0
   -1.8750   -0.4050   -0.6220 C   0  0  0  0  0  0  0  0  0  0  0  0
   -0.8350   -0.3460    0.5040 C   0  0  1  0  0  0  0  0  0  0  0  0
   -1.5350   -0.7020    1.6680 O   0  0  0  0  0  0  0  0  0  0  0  0
    0.2230   -1.3470    0.1700 C   0  0  0  0  0  0  0  0  0  0  0  0
    1.6180   -0.8580    0.3440 C   0  0  0  0  0  0  0  0  0  0  0  0
    1.9070    0.4210   -0.1740 N   0  0  0  0  0  0  0  0  0  0  0  0
    0.8630    1.3710   -0.1920 C   0  0  0  0  0  0  0  0  0  0  0  0
   -0.3280    1.0430    0.6540 C   0  0  1  0  0  0  0  0  0  0  0  0
   -1.3580    1.9310    0.2650 O   0  0  0  0  0  0  0  0  0  0  0  0
  1  2  1  0
  2  3  1  0
  3  4  1  1
  3  5  1  0
  3  9  1  0
  5  6  1  0
  6  7  1  0
  7  8  1  0
  8  9  1  0
  9 10  1  6
M  CHG  1   7   1
M  END
