
     RDKit          3D

 25 27  0  0  0  0  0  0  0  0999 V2000
    3.2890   -1.6660    1.5980 O   0  0  0  0  0  0  0  0  0  0  0  0
    3.0280   -0.9120    0.6350 C   0  0  0  0  0  0  0  0  0  0  0  0
    4.1020   -0.5380   -0.2190 N   0  0  0  0  0  0  0  0  0  0  0  0
    5.4650   -1.0120    0.0150 C   0  0  0  0  0  0  0  0  0  0  0  0
    6.3350   -0.4400   -1.0480 C   0  0  0  0  0  0  0  0  0  0  0  0
    7.0300   -1.1420   -1.9030 C   0  0  0  0  0  0  0  0  0  0  0  0
    7.7410   -0.3080   -2.7690 O   0  0  0  0  0  0  0  0  0  0  0  0
    7.6730    1.0100   -2.2210 C   0  0  0  0  0  0  0  0  0  0  0  0
    6.5810    0.8850   -1.3400 O   0  0  0  0  0  0  0  0  0  0  0  0
    1.6560   -0.4240    0.3850 C   0  0  0  0  0  0  0  0  0  0  0  0
    1.3960    0.3280   -0.5760 O   0  0  0  0  0  0  0  0  0  0  0  0
    0.6070   -0.8070    1.2430 N   0  0  0  0  0  0  0  0  0  0  0  0
   -0.7640   -0.3920    1.0950 C   0  0  2  0  0  0  0  0  0  0  0  0
   -1.4370   -0.0550    2.4300 C   0  0  0  0  0  0  0  0  0  0  0  0
   -1.8850   -1.2400    1.5440 C   0  0  1  0  0  0  0  0  0  0  0  0
   -3.2220   -1.0210    0.9350 C   0  0  0  0  0  0  0  0  0  0  0  0
   -4.0330   -1.9680    0.9590 O   0  0  0  0  0  0  0  0  0  0  0  0
   -3.6100    0.1910    0.3390 N   0  0  0  0  0  0  0  0  0  0  0  0
   -4.8320    0.5190   -0.2650 C   0  0  0  0  0  0  0  0  0  0  0  0
   -5.8650   -0.2470   -0.3940 C   0  0  0  0  0  0  0  0  0  0  0  0
   -7.1540    0.1480   -1.0490 C   0  0  0  0  0  0  0  0  0  0  0  0
   -7.1800    1.4450   -1.5330 O   0  0  0  0  0  0  0  0  0  0  0  0
   -6.0890    2.2730   -1.4020 C   0  0  0  0  0  0  0  0  0  0  0  0
   -4.9690    1.8860   -0.8180 C   0  0  0  0  0  0  0  0  0  0  0  0
   -3.9360    2.8090   -0.7450 O   0  0  0  0  0  0  0  0  0  0  0  0
  1  2  2  0
  2  3  1  0
  2 10  1  0
  3  4  1  0
  4  5  1  0
  5  6  2  0
  5  9  1  0
  6  7  1  0
  7  8  1  0
  8  9  1  0
 10 11  2  0
 10 12  1  0
 13 12  1  1
 13 14  1  0
 13 15  1  0
 14 15  1  0
 15 16  1  6
 16 17  2  0
 16 18  1  0
 18 19  1  0
 19 20  2  0
 19 24  1  0
 20 21  1  0
 21 22  1  0
 22 23  1  0
 23 24  2  0
 24 25  1  0
M  END
