
     RDKit          3D

 10 10  0  0  0  0  0  0  0  0999 V2000
    2.5810   -1.0450   -0.8680 O   0  0  0  0  0  0  0  0  0  0  0  0
    1.7560    0.0650   -0.8110 C   0  0  0  0  0  0  0  0  0  0  0  0
    0.6580   -0.2750    0.2260 C   0  0  2  0  0  0  0  0  0  0  0  0
   -0.1090   -1.4590   -0.1730 C   0  0  0  0  0  0  0  0  0  0  0  0
   -1.5210   -1.2630   -0.2300 N   0  0  0  0  0  0  0  0  0  0  0  0
   -2.1480   -0.1720    0.0320 C   0  0  0  0  0  0  0  0  0  0  0  0
   -1.4170    1.0010    0.4250 C   0  0  0  0  0  0  0  0  0  0  0  0
   -2.0660    2.2030    0.7160 O   0  0  0  0  0  0  0  0  0  0  0  0
   -0.1190    0.9170    0.5040 C   0  0  0  0  0  0  0  0  0  0  0  0
    0.5870    2.0820    0.8930 O   0  0  0  0  0  0  0  0  0  0  0  0
  1  2  1  0
  3  2  1  6
  3  4  1  0
  3  9  1  0
  4  5  1  0
  5  6  2  0
  6  7  1  0
  7  8  1  0
  7  9  2  0
  9 10  1  0
M  CHG  1   5   1
M  END
