
     RDKit          3D

 20 22  0  0  0  0  0  0  0  0999 V2000
   -4.0600   -1.9130   -1.0470 C   0  0  0  0  0  0  0  0  0  0  0  0
   -3.3820   -0.7330   -1.7070 C   0  0  0  0  0  0  0  0  0  0  0  0
   -2.2800   -0.2260   -0.9320 N   0  0  0  0  0  0  0  0  0  0  0  0
   -1.0080   -0.6450   -1.0450 C   0  0  0  0  0  0  0  0  0  0  0  0
   -0.2230    0.0530   -0.1540 C   0  0  0  0  0  0  0  0  0  0  0  0
    1.2160   -0.1280    0.0110 C   0  0  0  0  0  0  0  0  0  0  0  0
    2.0590   -0.9910   -0.6520 C   0  0  0  0  0  0  0  0  0  0  0  0
    3.3470   -0.8390   -0.1890 C   0  0  0  0  0  0  0  0  0  0  0  0
    4.5510   -1.5470   -0.6080 C   0  0  0  0  0  0  0  0  0  0  0  0
    4.5400   -2.4290   -1.4980 O   0  0  0  0  0  0  0  0  0  0  0  0
    5.7620   -1.2520   -0.0200 O   0  0  0  0  0  0  0  0  0  0  0  0
    3.2760    0.1160    0.7550 N   0  0  0  0  0  0  0  0  0  0  0  0
    4.4390    0.5780    1.4990 C   0  0  0  0  0  0  0  0  0  0  0  0
    2.0160    0.5390    0.8760 N   0  0  0  0  0  0  0  0  0  0  0  0
   -1.0670    0.9130    0.5060 C   0  0  0  0  0  0  0  0  0  0  0  0
   -0.8240    1.8520    1.5080 C   0  0  0  0  0  0  0  0  0  0  0  0
   -1.8510    2.6130    2.0240 C   0  0  0  0  0  0  0  0  0  0  0  0
   -3.1460    2.4330    1.5300 C   0  0  0  0  0  0  0  0  0  0  0  0
   -3.3700    1.5010    0.5400 C   0  0  0  0  0  0  0  0  0  0  0  0
   -2.3520    0.7290    0.0110 C   0  0  0  0  0  0  0  0  0  0  0  0
  1  2  1  0
  2  3  1  0
  3  4  1  0
  3 20  1  0
  4  5  2  0
  5  6  1  0
  5 15  1  0
  6  7  1  0
  6 14  2  0
  7  8  2  0
  8  9  1  0
  8 12  1  0
  9 10  2  0
  9 11  1  0
 12 13  1  0
 12 14  1  0
 15 16  2  0
 15 20  1  0
 16 17  1  0
 17 18  2  0
 18 19  1  0
 19 20  2  0
M  END
