
     RDKit          3D

 25 25  0  0  0  0  0  0  0  0999 V2000
    4.8510   -2.4920   -1.4950 C   0  0  0  0  0  0  0  0  0  0  0  0
    4.3030   -1.3830   -0.8350 O   0  0  0  0  0  0  0  0  0  0  0  0
    2.9170   -1.2120   -0.7450 C   0  0  0  0  0  0  0  0  0  0  0  0
    2.2640   -2.1340   -1.3040 O   0  0  0  0  0  0  0  0  0  0  0  0
    2.2410   -0.1350   -0.1030 C   0  0  0  0  0  0  0  0  0  0  0  0
    0.9460   -0.0170   -0.0450 C   0  0  0  0  0  0  0  0  0  0  0  0
    0.0060   -0.9340   -0.6100 C   0  0  0  0  0  0  0  0  0  0  0  0
   -1.3080   -0.6860   -0.4770 C   0  0  0  0  0  0  0  0  0  0  0  0
   -1.8230    0.4110    0.1720 O   0  0  0  0  0  0  0  0  0  0  0  0
   -3.0860    0.5140    0.7760 C   0  0  1  0  0  0  0  0  0  0  0  0
   -3.8540    1.6260    0.0840 C   0  0  0  0  0  0  0  0  0  0  0  0
   -5.1950    1.8160    0.6410 C   0  0  0  0  0  0  0  0  0  0  0  0
   -6.3760    1.8290   -0.1450 N   0  0  0  0  0  0  0  0  0  0  0  0
   -5.3260    1.9780    1.8880 O   0  0  0  0  0  0  0  0  0  0  0  0
   -3.7890   -0.8010    0.7260 C   0  0  2  0  0  0  0  0  0  0  0  0
   -3.1450   -1.6980    1.7010 N   0  0  0  0  0  0  0  0  0  0  0  0
   -3.7240   -1.5060   -0.6030 C   0  0  0  0  0  0  0  0  0  0  0  0
   -2.2860   -1.6180   -1.0450 C   0  0  0  0  0  0  0  0  0  0  0  0
   -1.9210   -2.4790   -1.8780 O   0  0  0  0  0  0  0  0  0  0  0  0
    2.9980    0.9250    0.5510 C   0  0  0  0  0  0  0  0  0  0  0  0
    2.3380    1.8720    1.1200 O   0  0  0  0  0  0  0  0  0  0  0  0
    4.3930    1.0480    0.6430 N   0  0  0  0  0  0  0  0  0  0  0  0
    5.0010    2.1560    1.3420 C   0  0  0  0  0  0  0  0  0  0  0  0
    6.4750    2.2680    1.4530 C   0  0  0  0  0  0  0  0  0  0  0  0
    4.2810    3.0340    1.8610 O   0  0  0  0  0  0  0  0  0  0  0  0
  1  2  1  0
  2  3  1  0
  3  4  2  0
  3  5  1  0
  5  6  2  3
  5 20  1  0
  6  7  1  0
  7  8  2  3
  8  9  1  0
  8 18  1  0
  9 10  1  0
 10 11  1  6
 10 15  1  0
 11 12  1  0
 12 13  1  0
 12 14  2  0
 15 16  1  1
 15 17  1  0
 17 18  1  0
 18 19  2  0
 20 21  2  0
 20 22  1  0
 22 23  1  0
 23 24  1  0
 23 25  2  0
M  END
