
     RDKit          3D

 17 17  0  0  0  0  0  0  0  0999 V2000
   -2.0520   -1.4690    0.8340 C   0  0  0  0  0  0  0  0  0  0  0  0
   -1.0470   -0.4680    0.2360 C   0  0  1  0  0  0  0  0  0  0  0  0
    0.2030   -1.2470   -0.0090 C   0  0  2  0  0  0  0  0  0  0  0  0
   -0.1940   -2.3410   -0.8190 O   0  0  0  0  0  0  0  0  0  0  0  0
    0.7240   -1.7920    1.2850 C   0  0  0  0  0  0  0  0  0  0  0  0
    1.8190   -2.6390    1.0360 O   0  0  0  0  0  0  0  0  0  0  0  0
    1.2590   -0.5330   -0.7930 C   0  0  0  0  0  0  0  0  0  0  0  0
    1.7910    0.5880   -0.0820 N   0  0  0  0  0  0  0  0  0  0  0  0
    2.8110    1.4250   -0.6590 C   0  0  0  0  0  0  0  0  0  0  0  0
    3.3260    2.5340    0.0660 N   0  0  0  0  0  0  0  0  0  0  0  0
    3.2320    1.1650   -1.7930 O   0  0  0  0  0  0  0  0  0  0  0  0
   -1.6250    0.0030   -0.9410 O   0  0  0  0  0  0  0  0  0  0  0  0
   -2.5520    0.9940   -0.7390 C   0  0  0  0  0  0  0  0  0  0  0  0
   -1.9250    2.2860   -0.2350 C   0  0  0  0  0  0  0  0  0  0  0  0
   -1.0160    1.9150    0.7860 O   0  0  0  0  0  0  0  0  0  0  0  0
   -0.9010    0.5930    1.2480 C   0  0  0  0  0  0  0  0  0  0  0  0
   -0.6860    0.3440    2.4620 O   0  0  0  0  0  0  0  0  0  0  0  0
  2  1  1  1
  2  3  1  0
  2 12  1  0
  2 16  1  0
  3  4  1  6
  3  5  1  0
  3  7  1  0
  5  6  1  0
  7  8  1  0
  8  9  1  0
  9 10  1  0
  9 11  2  0
 12 13  1  0
 13 14  1  0
 14 15  1  0
 15 16  1  0
 16 17  2  0
M  END
