
     RDKit          3D

 21 23  0  0  0  0  0  0  0  0999 V2000
    4.3290   -2.4920   -0.0750 N   0  0  0  0  0  0  0  0  0  0  0  0
    4.3980   -1.1210    0.3840 C   0  0  1  0  0  0  0  0  0  0  0  0
    5.7010   -0.6290    0.2110 O   0  0  0  0  0  0  0  0  0  0  0  0
    3.5090   -0.2270   -0.4030 C   0  0  0  0  0  0  0  0  0  0  0  0
    2.6390    0.3780    0.3890 C   0  0  0  0  0  0  0  0  0  0  0  0
    1.6870    1.2690   -0.0700 O   0  0  0  0  0  0  0  0  0  0  0  0
    0.3870    1.3840    0.4040 C   0  0  1  0  0  0  0  0  0  0  0  0
   -0.2780    2.5010   -0.4110 C   0  0  0  0  0  0  0  0  0  0  0  0
   -1.6660    2.7940    0.0730 C   0  0  0  0  0  0  0  0  0  0  0  0
   -2.4260    1.5590    0.4660 C   0  0  0  0  0  0  0  0  0  0  0  0
   -1.7910    0.3650   -0.2250 C   0  0  2  0  0  0  0  0  0  0  0  0
   -2.6610   -0.7630   -0.0150 N   0  0  0  0  0  0  0  0  0  0  0  0
   -3.6720   -0.8700    0.8460 N   0  0  0  0  0  0  0  0  0  0  0  0
   -4.2500   -2.0720    0.7540 C   0  0  0  0  0  0  0  0  0  0  0  0
   -5.2390   -2.4700    1.4470 O   0  0  0  0  0  0  0  0  0  0  0  0
   -3.5940   -2.7580   -0.1920 N   0  0  0  0  0  0  0  0  0  0  0  0
   -2.6230   -1.9560   -0.6610 C   0  0  0  0  0  0  0  0  0  0  0  0
   -1.8170   -2.2880   -1.5610 O   0  0  0  0  0  0  0  0  0  0  0  0
   -0.4130    0.1240    0.3660 C   0  0  0  0  0  0  0  0  0  0  0  0
    2.9380   -0.1080    1.7240 C   0  0  0  0  0  0  0  0  0  0  0  0
    3.9140   -0.9370    1.7110 N   0  0  0  0  0  0  0  0  0  0  0  0
  2  1  1  6
  2  3  1  0
  2  4  1  0
  2 21  1  0
  4  5  2  0
  5  6  1  0
  5 20  1  0
  7  6  1  6
  7  8  1  0
  7 19  1  0
  8  9  1  0
  9 10  1  0
 10 11  1  0
 11 12  1  1
 11 19  1  0
 12 13  1  0
 12 17  1  0
 13 14  1  0
 14 15  2  0
 14 16  1  0
 16 17  1  0
 17 18  2  0
 20 21  2  0
M  END
