
     RDKit          3D

 17 17  0  0  0  0  0  0  0  0999 V2000
    4.4960    0.4190   -1.5510 C   0  0  0  0  0  0  0  0  0  0  0  0
    4.6520   -0.6140   -0.5530 C   0  0  0  0  0  0  0  0  0  0  0  0
    3.7440   -1.1570    0.1860 C   0  0  0  0  0  0  0  0  0  0  0  0
    4.2290   -2.1590    1.0870 O   0  0  0  0  0  0  0  0  0  0  0  0
    2.3450   -0.8740    0.1920 C   0  0  0  0  0  0  0  0  0  0  0  0
    1.5970   -1.5520    1.0310 O   0  0  0  0  0  0  0  0  0  0  0  0
    1.5930    0.0320   -0.5720 N   0  0  0  0  0  0  0  0  0  0  0  0
    0.2110    0.1820   -0.4690 N   0  0  0  0  0  0  0  0  0  0  0  0
   -0.4890    0.7880    0.6040 C   0  0  0  0  0  0  0  0  0  0  0  0
    0.1840    1.2390    1.5620 O   0  0  0  0  0  0  0  0  0  0  0  0
   -1.9550    0.8340    0.4920 C   0  0  2  0  0  0  0  0  0  0  0  0
   -2.6180    1.4530    1.5260 O   0  0  0  0  0  0  0  0  0  0  0  0
   -3.9370    1.6580    1.0930 C   0  0  0  0  0  0  0  0  0  0  0  0
   -4.6060    0.5010    0.7610 O   0  0  0  0  0  0  0  0  0  0  0  0
   -3.9760   -0.2890   -0.1910 C   0  0  0  0  0  0  0  0  0  0  0  0
   -2.5810   -0.5670    0.3880 C   0  0  2  0  0  0  0  0  0  0  0  0
   -2.7830   -0.9830    1.7120 O   0  0  0  0  0  0  0  0  0  0  0  0
  1  2  1  0
  2  3  2  3
  3  4  1  0
  3  5  1  0
  5  6  2  0
  5  7  1  0
  7  8  1  0
  8  9  1  0
  9 10  2  0
 11  9  1  1
 11 12  1  0
 11 16  1  0
 12 13  1  0
 13 14  1  0
 14 15  1  0
 15 16  1  0
 16 17  1  1
M  END
