
     RDKit          3D

 17 17  0  0  0  0  0  0  0  0999 V2000
   -5.4750    0.1010    0.1890 C   0  0  0  0  0  0  0  0  0  0  0  0
   -4.4700   -0.1700   -0.7410 O   0  0  0  0  0  0  0  0  0  0  0  0
   -3.3660    0.5650   -0.3930 C   0  0  2  0  0  0  0  0  0  0  0  0
   -2.9300    1.5440   -1.4650 C   0  0  0  0  0  0  0  0  0  0  0  0
   -2.2400   -0.3470   -0.0470 C   0  0  0  0  0  0  0  0  0  0  0  0
   -2.3980   -1.5890   -0.1040 O   0  0  0  0  0  0  0  0  0  0  0  0
   -0.9650    0.1320    0.3520 N   0  0  0  0  0  0  0  0  0  0  0  0
    0.1250   -0.7180    0.6870 C   0  0  0  0  0  0  0  0  0  0  0  0
   -0.0820   -1.9600    0.6150 O   0  0  0  0  0  0  0  0  0  0  0  0
    1.4510   -0.1790    1.1030 C   0  0  1  0  0  0  0  0  0  0  0  0
    2.2920   -1.2390    1.3590 O   0  0  0  0  0  0  0  0  0  0  0  0
    3.5630   -0.7070    1.6410 C   0  0  0  0  0  0  0  0  0  0  0  0
    4.1370   -0.2900    0.2840 C   0  0  1  0  0  0  0  0  0  0  0  0
    4.8230   -1.3540   -0.2570 O   0  0  0  0  0  0  0  0  0  0  0  0
    2.9330    0.0460   -0.5850 C   0  0  2  0  0  0  0  0  0  0  0  0
    3.3160    0.9070   -1.6870 N   0  0  0  0  0  0  0  0  0  0  0  0
    1.9610    0.7100    0.1650 O   0  0  0  0  0  0  0  0  0  0  0  0
  1  2  1  0
  2  3  1  0
  3  4  1  6
  3  5  1  0
  5  6  2  0
  5  7  1  0
  7  8  1  0
  8  9  2  0
 10  8  1  6
 10 11  1  0
 10 17  1  0
 11 12  1  0
 12 13  1  0
 13 14  1  6
 13 15  1  0
 15 16  1  6
 15 17  1  0
M  END
