
     RDKit          3D

 16 17  0  0  0  0  0  0  0  0999 V2000
   -4.4070    0.9930   -0.5750 C   0  0  0  0  0  0  0  0  0  0  0  0
   -3.0830    0.6360   -0.2210 O   0  0  0  0  0  0  0  0  0  0  0  0
   -2.7200   -0.5660    0.3300 C   0  0  0  0  0  0  0  0  0  0  0  0
   -3.6180   -1.4210    0.5430 O   0  0  0  0  0  0  0  0  0  0  0  0
   -1.3140   -0.8600    0.6710 C   0  0  2  0  0  0  0  0  0  0  0  0
   -0.5250    0.2620    0.3320 O   0  0  0  0  0  0  0  0  0  0  0  0
    0.8660    0.2260    0.3770 C   0  0  0  0  0  0  0  0  0  0  0  0
    1.5930    1.3110    0.5590 C   0  0  0  0  0  0  0  0  0  0  0  0
    3.0720    1.2620    0.6050 C   0  0  2  0  0  0  0  0  0  0  0  0
    3.5740    2.1990   -0.3820 N   0  0  0  0  0  0  0  0  0  0  0  0
    3.5680   -0.0240    0.4360 O   0  0  0  0  0  0  0  0  0  0  0  0
    2.8070   -1.1550    0.2460 C   0  0  0  0  0  0  0  0  0  0  0  0
    1.5070   -1.0700    0.2130 C   0  0  0  0  0  0  0  0  0  0  0  0
    0.6490   -2.2110    0.0180 N   0  0  0  0  0  0  0  0  0  0  0  0
   -0.7570   -2.0210   -0.0030 C   0  0  0  0  0  0  0  0  0  0  0  0
   -1.4750   -2.8450   -0.5930 O   0  0  0  0  0  0  0  0  0  0  0  0
  1  2  1  0
  2  3  1  0
  3  4  2  0
  5  3  1  6
  5  6  1  0
  5 15  1  0
  6  7  1  0
  7  8  2  0
  7 13  1  0
  8  9  1  0
  9 10  1  6
  9 11  1  0
 11 12  1  0
 12 13  2  0
 13 14  1  0
 14 15  1  0
 15 16  2  0
M  END
