
     RDKit          3D

 17 17  0  0  0  0  0  0  0  0999 V2000
    4.7730    0.2670    0.3310 C   0  0  0  0  0  0  0  0  0  0  0  0
    3.4850   -0.3100    0.4340 O   0  0  0  0  0  0  0  0  0  0  0  0
    2.4010    0.0940   -0.3240 C   0  0  0  0  0  0  0  0  0  0  0  0
    2.5460    1.0230   -1.1550 O   0  0  0  0  0  0  0  0  0  0  0  0
    1.1020   -0.5250   -0.1850 N   0  0  0  0  0  0  0  0  0  0  0  0
    0.0030   -0.1000   -0.9680 C   0  0  0  0  0  0  0  0  0  0  0  0
    0.1700    0.8390   -1.8040 O   0  0  0  0  0  0  0  0  0  0  0  0
   -1.3280   -0.7290   -0.8270 C   0  0  2  0  0  0  0  0  0  0  0  0
   -2.2510   -0.1250   -1.7530 O   0  0  0  0  0  0  0  0  0  0  0  0
   -3.0120    0.8370   -1.1120 C   0  0  0  0  0  0  0  0  0  0  0  0
   -4.0230    1.4590   -1.5450 O   0  0  0  0  0  0  0  0  0  0  0  0
   -2.4180    1.0320    0.2400 C   0  0  2  0  0  0  0  0  0  0  0  0
   -1.3390    1.9710    0.1030 N   0  0  0  0  0  0  0  0  0  0  0  0
   -1.8780   -0.3270    0.4950 C   0  0  0  0  0  0  0  0  0  0  0  0
   -1.8900   -1.0210    1.5940 C   0  0  0  0  0  0  0  0  0  0  0  0
   -1.3300   -2.3700    1.6700 C   0  0  0  0  0  0  0  0  0  0  0  0
   -1.3390   -3.0410    2.7250 O   0  0  0  0  0  0  0  0  0  0  0  0
  1  2  1  0
  2  3  1  0
  3  4  2  0
  3  5  1  0
  5  6  1  0
  6  7  2  0
  8  6  1  6
  8  9  1  0
  8 14  1  0
  9 10  1  0
 10 11  2  0
 10 12  1  0
 12 13  1  6
 12 14  1  0
 14 15  2  3
 15 16  1  0
 16 17  2  0
M  END
