
     RDKit          3D

 26 29  0  0  0  0  0  0  0  0999 V2000
   -2.4570    2.9560   -2.4400 O   0  0  0  0  0  0  0  0  0  0  0  0
   -2.0220    1.9950   -1.6980 C   0  0  0  0  0  0  0  0  0  0  0  0
   -0.6880    1.7690   -1.8460 O   0  0  0  0  0  0  0  0  0  0  0  0
   -2.9910    1.3370   -0.8580 C   0  0  0  0  0  0  0  0  0  0  0  0
   -4.3110    1.6850   -0.8250 N   0  0  0  0  0  0  0  0  0  0  0  0
   -4.9700    0.9040    0.0410 C   0  0  0  0  0  0  0  0  0  0  0  0
   -6.3110    0.8930    0.3980 C   0  0  0  0  0  0  0  0  0  0  0  0
   -6.7700   -0.0170    1.3250 C   0  0  0  0  0  0  0  0  0  0  0  0
   -5.8860   -0.9100    1.8890 C   0  0  0  0  0  0  0  0  0  0  0  0
   -4.5400   -0.8820    1.5160 C   0  0  0  0  0  0  0  0  0  0  0  0
   -4.0880    0.0230    0.5940 C   0  0  0  0  0  0  0  0  0  0  0  0
   -2.8160    0.3130    0.0060 C   0  0  0  0  0  0  0  0  0  0  0  0
   -1.6990   -0.4930    0.4370 C   0  0  0  0  0  0  0  0  0  0  0  0
   -0.3300   -0.2970   -0.0040 C   0  0  0  0  0  0  0  0  0  0  0  0
    0.5130   -1.3940    0.7280 C   0  0  0  0  0  0  0  0  0  0  0  0
    1.8150   -1.2600    0.3530 O   0  0  0  0  0  0  0  0  0  0  0  0
    2.7960   -0.3570    0.4730 C   0  0  0  0  0  0  0  0  0  0  0  0
    2.7610    0.8380    1.1180 C   0  0  0  0  0  0  0  0  0  0  0  0
    3.8650    1.6900    1.1690 C   0  0  0  0  0  0  0  0  0  0  0  0
    5.0290    1.3270    0.5570 C   0  0  0  0  0  0  0  0  0  0  0  0
    5.1040    0.1120   -0.1110 C   0  0  0  0  0  0  0  0  0  0  0  0
    6.3060   -0.2220   -0.7220 C   0  0  0  0  0  0  0  0  0  0  0  0
    6.4050   -1.4160   -1.3900 C   0  0  0  0  0  0  0  0  0  0  0  0
    5.3260   -2.2660   -1.4500 C   0  0  0  0  0  0  0  0  0  0  0  0
    4.1490   -1.9010   -0.8310 C   0  0  0  0  0  0  0  0  0  0  0  0
    4.0120   -0.7050   -0.1490 C   0  0  0  0  0  0  0  0  0  0  0  0
  1  2  2  0
  2  3  1  0
  2  4  1  0
  4  5  1  0
  4 12  2  0
  5  6  1  0
  6  7  2  0
  6 11  1  0
  7  8  1  0
  8  9  2  0
  9 10  1  0
 10 11  2  0
 11 12  1  0
 12 13  1  0
 13 14  1  0
 14 15  1  0
 15 16  1  0
 16 17  1  0
 17 18  2  0
 17 26  1  0
 18 19  1  0
 19 20  2  0
 20 21  1  0
 21 22  2  0
 21 26  1  0
 22 23  1  0
 23 24  2  0
 24 25  1  0
 25 26  2  0
M  END
