
     RDKit          3D

 33 36  0  0  0  0  0  0  0  0999 V2000
   -6.6570   -2.2580    2.3590 C   0  0  0  0  0  0  0  0  0  0  0  0
   -5.5610   -1.6000    1.6100 C   0  0  0  0  0  0  0  0  0  0  0  0
   -4.2500   -2.0250    1.6680 C   0  0  0  0  0  0  0  0  0  0  0  0
   -3.2050   -1.3980    0.9530 C   0  0  0  0  0  0  0  0  0  0  0  0
   -1.6150   -2.0750    1.1050 Cl  0  0  0  0  0  0  0  0  0  0  0  0
   -3.4480   -0.3140    0.1550 C   0  0  0  0  0  0  0  0  0  0  0  0
   -4.7690    0.0800    0.1260 C   0  0  0  0  0  0  0  0  0  0  0  0
   -5.8050   -0.5000    0.7970 C   0  0  0  0  0  0  0  0  0  0  0  0
   -6.9360    0.2510    0.4340 O   0  0  0  0  0  0  0  0  0  0  0  0
   -6.6540    0.8330   -0.8090 O   0  0  0  0  0  0  0  0  0  0  0  0
   -5.3110    1.2130   -0.6420 C   0  0  1  0  0  0  0  0  0  0  0  0
   -5.3420    2.4840    0.1740 C   0  0  0  0  0  0  0  0  0  0  0  0
   -4.5180    1.4310   -1.8810 C   0  0  0  0  0  0  0  0  0  0  0  0
   -3.2700    0.6310   -2.0130 C   0  0  0  0  0  0  0  0  0  0  0  0
   -2.5010    0.4190   -0.6910 C   0  0  1  0  0  0  0  0  0  0  0  0
   -2.2860    1.8170   -0.1260 C   0  0  0  0  0  0  0  0  0  0  0  0
   -1.9890    2.0330    1.2400 N   0  0  0  0  0  0  0  0  0  0  0  0
   -2.3710    2.8060   -0.8790 O   0  0  0  0  0  0  0  0  0  0  0  0
   -1.2110   -0.1880   -0.9710 C   0  0  0  0  0  0  0  0  0  0  0  0
   -1.0190   -0.8520   -2.0220 O   0  0  0  0  0  0  0  0  0  0  0  0
   -0.1250   -0.0510   -0.0820 N   0  0  0  0  0  0  0  0  0  0  0  0
    1.1870   -0.6410   -0.3340 C   0  0  0  0  0  0  0  0  0  0  0  0
    2.1430   -0.3220    0.7960 C   0  0  2  0  0  0  0  0  0  0  0  0
    2.2950    1.1260    0.9180 N   0  0  0  0  0  0  0  0  0  0  0  0
    3.4980   -0.8640    0.5290 C   0  0  0  0  0  0  0  0  0  0  0  0
    4.0140   -1.9440    1.1380 N   0  0  0  0  0  0  0  0  0  0  0  0
    5.2260   -2.0860    0.6210 N   0  0  0  0  0  0  0  0  0  0  0  0
    5.4360   -1.1120   -0.2790 C   0  0  0  0  0  0  0  0  0  0  0  0
    6.6910   -0.9580   -1.0580 C   0  0  0  0  0  0  0  0  0  0  0  0
    7.6170   -0.0700   -0.2630 C   0  0  1  0  0  0  0  0  0  0  0  0
    7.9490   -0.6430    1.0860 C   0  0  0  0  0  0  0  0  0  0  0  0
    8.8360    0.2360   -1.0880 C   0  0  0  0  0  0  0  0  0  0  0  0
    4.3540   -0.3590   -0.3270 O   0  0  0  0  0  0  0  0  0  0  0  0
  1  2  1  0
  2  3  2  0
  2  8  1  0
  3  4  1  0
  4  5  1  0
  4  6  2  0
  6  7  1  0
  6 15  1  0
  7  8  2  0
  7 11  1  0
  8  9  1  0
  9 10  1  0
 10 11  1  0
 11 12  1  1
 11 13  1  0
 13 14  1  0
 14 15  1  0
 15 16  1  1
 15 19  1  0
 16 17  1  0
 16 18  2  0
 19 20  2  0
 19 21  1  0
 21 22  1  0
 22 23  1  0
 23 24  1  6
 23 25  1  0
 25 26  2  0
 25 33  1  0
 26 27  1  0
 27 28  2  0
 28 29  1  0
 28 33  1  0
 29 30  1  0
 30 31  1  1
 30 32  1  0
M  END
