
     RDKit          3D

 35 39  0  0  0  0  0  0  0  0999 V2000
    4.5410    0.8080    1.4210 C   0  0  0  0  0  0  0  0  0  0  0  0
    3.8990    0.5330    0.0550 C   0  0  0  0  0  0  0  0  0  0  0  0
    3.9970   -0.8950   -0.1440 C   0  0  0  0  0  0  0  0  0  0  0  0
    3.5240   -1.5800   -1.2330 C   0  0  0  0  0  0  0  0  0  0  0  0
    2.9440   -0.8220   -2.2010 C   0  0  0  0  0  0  0  0  0  0  0  0
    2.8310    0.5920   -2.0340 C   0  0  0  0  0  0  0  0  0  0  0  0
    3.2850    1.3100   -0.9240 C   0  0  0  0  0  0  0  0  0  0  0  0
    2.9420    2.7980   -0.8190 C   0  0  0  0  0  0  0  0  0  0  0  0
    3.7710    3.7670   -1.2790 O   0  0  0  0  0  0  0  0  0  0  0  0
    1.7610    3.3370   -0.2450 N   0  0  0  0  0  0  0  0  0  0  0  0
    0.3900    3.0600    0.0070 C   0  0  0  0  0  0  0  0  0  0  0  0
   -0.5150    4.0250   -0.5840 C   0  0  0  0  0  0  0  0  0  0  0  0
   -1.8520    3.8580   -0.2960 C   0  0  0  0  0  0  0  0  0  0  0  0
   -2.3700    2.8640    0.5110 C   0  0  0  0  0  0  0  0  0  0  0  0
   -1.5670    1.9680    1.1010 C   0  0  0  0  0  0  0  0  0  0  0  0
   -0.1710    2.0670    0.8090 C   0  0  0  0  0  0  0  0  0  0  0  0
    0.4420    0.6510    0.8690 C   0  0  0  0  0  0  0  0  0  0  0  0
    0.5050   -0.2540   -0.2630 N   0  0  0  0  0  0  0  0  0  0  0  0
    0.9950   -1.2730    0.1550 N   0  0  0  0  0  0  0  0  0  0  0  0
    1.3030   -1.1960    1.4880 C   0  0  0  0  0  0  0  0  0  0  0  0
    0.9420   -0.0130    1.8020 O   0  0  0  0  0  0  0  0  0  0  0  0
    1.8860   -2.3430    2.1620 C   0  0  0  0  0  0  0  0  0  0  0  0
    1.4800   -3.6230    1.3650 C   0  0  0  0  0  0  0  0  0  0  0  0
    1.7190   -4.6230    2.0910 O   0  0  0  0  0  0  0  0  0  0  0  0
    0.9310   -3.4760    0.0090 C   0  0  0  0  0  0  0  0  0  0  0  0
    1.7260   -3.2620   -1.0650 C   0  0  0  0  0  0  0  0  0  0  0  0
    3.2310   -3.1080   -1.1870 C   0  0  0  0  0  0  0  0  0  0  0  0
   -0.5160   -3.4460   -0.3670 C   0  0  0  0  0  0  0  0  0  0  0  0
   -1.6280   -2.8710   -0.1360 C   0  0  0  0  0  0  0  0  0  0  0  0
   -2.2190   -1.8040    0.7050 C   0  0  0  0  0  0  0  0  0  0  0  0
   -3.4150   -1.0820    0.1700 C   0  0  0  0  0  0  0  0  0  0  0  0
   -3.3470    0.2830   -0.4000 C   0  0  0  0  0  0  0  0  0  0  0  0
   -4.2570    1.2660    0.1040 N   0  0  2  0  0  0  0  0  0  0  0  0
   -5.4510    1.2210   -0.7570 C   0  0  0  0  0  0  0  0  0  0  0  0
   -3.8640    2.6320    0.2700 C   0  0  0  0  0  0  0  0  0  0  0  0
  1  2  1  0
  2  3  1  0
  2  7  2  0
  3  4  2  0
  4  5  1  0
  4 27  1  0
  5  6  2  0
  6  7  1  0
  7  8  1  0
  8  9  2  0
  8 10  1  0
 10 11  1  0
 11 12  2  0
 11 16  1  0
 12 13  1  0
 13 14  2  0
 14 15  1  0
 14 35  1  0
 15 16  2  0
 16 17  1  0
 17 18  2  0
 17 21  1  0
 18 19  1  0
 19 20  2  0
 20 21  1  0
 20 22  1  0
 22 23  1  0
 23 24  2  0
 23 25  1  0
 25 26  2  0
 25 28  1  0
 26 27  1  0
 28 29  2  0
 29 30  1  0
 30 31  1  0
 31 32  1  0
 32 33  1  0
 33 34  1  6
 33 35  1  0
M  CHG  1  33   1
M  END
