
     RDKit          3D

 34 36  0  0  0  0  0  0  0  0999 V2000
   -5.0780    1.2990   -0.7760 C   0  0  0  0  0  0  0  0  0  0  0  0
   -4.8860   -0.1630   -0.9850 C   0  0  2  0  0  0  0  0  0  0  0  0
   -6.1600   -0.8290   -1.4840 C   0  0  0  0  0  0  0  0  0  0  0  0
   -7.5090   -0.6060   -0.3510 Cl  0  0  0  0  0  0  0  0  0  0  0  0
   -4.4470   -0.8590    0.2740 C   0  0  2  0  0  0  0  0  0  0  0  0
   -3.1820   -0.4840    0.8100 N   0  0  0  0  0  0  0  0  0  0  0  0
   -2.2280    0.3950    0.2780 C   0  0  0  0  0  0  0  0  0  0  0  0
   -2.4100    0.9380   -0.8350 O   0  0  0  0  0  0  0  0  0  0  0  0
   -1.0060    0.6890    1.0170 N   0  0  0  0  0  0  0  0  0  0  0  0
   -0.0470    1.6070    0.4340 C   0  0  2  0  0  0  0  0  0  0  0  0
    1.1790    0.8060    0.0820 C   0  0  0  0  0  0  0  0  0  0  0  0
    1.2700    0.3000   -1.0420 O   0  0  0  0  0  0  0  0  0  0  0  0
    2.2300    0.6280    1.0310 N   0  0  0  0  0  0  0  0  0  0  0  0
    3.1930   -0.4280    0.8380 C   0  0  0  0  0  0  0  0  0  0  0  0
    4.3810    0.0220    0.0310 C   0  0  0  0  0  0  0  0  0  0  0  0
    5.3310   -1.0900   -0.1360 C   0  0  0  0  0  0  0  0  0  0  0  0
    5.0750   -2.2120    0.3700 O   0  0  0  0  0  0  0  0  0  0  0  0
    6.5480   -0.9270   -0.8650 N   0  0  0  0  0  0  0  0  0  0  0  0
    7.4370   -2.0390   -0.9980 C   0  0  2  0  0  0  0  0  0  0  0  0
    8.8450   -1.6340   -0.5710 C   0  0  0  0  0  0  0  0  0  0  0  0
    9.2270   -1.7290   -1.9030 O   0  0  0  0  0  0  0  0  0  0  0  0
    8.0080   -2.1880   -2.3980 C   0  0  0  0  0  0  0  0  0  0  0  0
    2.2970    1.4850    2.1250 N   0  0  0  0  0  0  0  0  0  0  0  0
    1.4340    2.4500    2.3220 C   0  0  0  0  0  0  0  0  0  0  0  0
    0.3350    2.6760    1.3770 C   0  0  0  0  0  0  0  0  0  0  0  0
   -0.2820    3.8310    1.3960 C   0  0  0  0  0  0  0  0  0  0  0  0
   -1.3880    4.1960    0.5160 C   0  0  0  0  0  0  0  0  0  0  0  0
   -1.9450    5.3920    0.6150 C   0  0  0  0  0  0  0  0  0  0  0  0
   -1.4780    6.3020    1.5560 O   0  0  0  0  0  0  0  0  0  0  0  0
   -4.6160   -2.3220    0.1680 C   0  0  0  0  0  0  0  0  0  0  0  0
   -3.7560   -3.1710   -0.4950 C   0  0  0  0  0  0  0  0  0  0  0  0
   -4.2450   -4.4490   -0.3420 C   0  0  0  0  0  0  0  0  0  0  0  0
   -5.3920   -4.3830    0.4080 C   0  0  0  0  0  0  0  0  0  0  0  0
   -5.5810   -3.0800    0.6960 N   0  0  0  0  0  0  0  0  0  0  0  0
  2  1  1  1
  2  3  1  0
  2  5  1  0
  3  4  1  0
  5  6  1  6
  5 30  1  0
  6  7  1  0
  7  8  2  0
  7  9  1  0
 10  9  1  1
 10 11  1  0
 10 25  1  0
 11 12  2  0
 11 13  1  0
 13 14  1  0
 13 23  1  0
 14 15  1  0
 15 16  1  0
 16 17  2  0
 16 18  1  0
 19 18  1  6
 19 20  1  0
 19 22  1  0
 20 21  1  0
 21 22  1  0
 23 24  2  0
 24 25  1  0
 25 26  2  3
 26 27  1  0
 27 28  2  3
 28 29  1  0
 30 31  2  0
 30 34  1  0
 31 32  1  0
 32 33  2  0
 33 34  1  0
M  END
