
     RDKit          3D

 33 36  0  0  0  0  0  0  0  0999 V2000
   10.2010    0.7040    0.8240 C   0  0  0  0  0  0  0  0  0  0  0  0
    9.3110   -0.4550    1.0000 C   0  0  0  0  0  0  0  0  0  0  0  0
    9.5690   -1.6850    1.0560 O   0  0  0  0  0  0  0  0  0  0  0  0
    8.4720   -2.4030    1.2140 N   0  0  0  0  0  0  0  0  0  0  0  0
    7.4070   -1.5380    1.2620 N   0  0  0  0  0  0  0  0  0  0  0  0
    7.9100   -0.3250    1.1360 C   0  0  0  0  0  0  0  0  0  0  0  0
    7.1550    1.0050    1.2310 C   0  0  0  0  0  0  0  0  0  0  0  0
    6.3750    1.1070    0.0250 N   0  0  0  0  0  0  0  0  0  0  0  0
    5.2460    0.3480   -0.3940 C   0  0  0  0  0  0  0  0  0  0  0  0
    4.7850   -0.5150    0.3650 O   0  0  0  0  0  0  0  0  0  0  0  0
    4.6580    0.6150   -1.7310 C   0  0  2  0  0  0  0  0  0  0  0  0
    3.6160    1.7350   -1.7770 C   0  0  0  0  0  0  0  0  0  0  0  0
    3.3960    0.2380   -2.2580 C   0  0  2  0  0  0  0  0  0  0  0  0
    2.1880   -0.2870   -1.5870 C   0  0  0  0  0  0  0  0  0  0  0  0
    1.7580   -1.5710   -1.4390 C   0  0  0  0  0  0  0  0  0  0  0  0
    0.5280   -1.5230   -0.7310 C   0  0  0  0  0  0  0  0  0  0  0  0
    0.2710   -0.2080   -0.4840 C   0  0  0  0  0  0  0  0  0  0  0  0
   -0.8540    0.4720    0.2150 C   0  0  0  0  0  0  0  0  0  0  0  0
   -2.0000   -0.3900    0.3230 N   0  0  0  0  0  0  0  0  0  0  0  0
   -3.2960    0.1330    0.0340 C   0  0  0  0  0  0  0  0  0  0  0  0
   -3.5510    1.3210   -0.4910 O   0  0  0  0  0  0  0  0  0  0  0  0
   -4.7940    1.5220   -0.6280 N   0  0  0  0  0  0  0  0  0  0  0  0
   -5.5170    0.4350   -0.1870 C   0  0  0  0  0  0  0  0  0  0  0  0
   -6.9520    0.3790   -0.1010 C   0  0  1  0  0  0  0  0  0  0  0  0
   -7.6740   -0.8270   -0.6370 C   0  0  0  0  0  0  0  0  0  0  0  0
   -7.5570    0.8940    1.1700 C   0  0  0  0  0  0  0  0  0  0  0  0
   -7.4200    1.4690   -1.1670 C   0  0  0  0  0  0  0  0  0  0  0  0
   -4.5370   -0.4330    0.2260 C   0  0  0  0  0  0  0  0  0  0  0  0
   -4.8300   -1.7560    0.7690 C   0  0  0  0  0  0  0  0  0  0  0  0
   -4.7680   -2.0350    2.1650 C   0  0  0  0  0  0  0  0  0  0  0  0
   -4.3420   -1.2130    3.1890 N   0  0  0  0  0  0  0  0  0  0  0  0
   -5.1580   -3.2140    2.5210 O   0  0  0  0  0  0  0  0  0  0  0  0
    1.2690    0.4640   -1.0060 O   0  0  0  0  0  0  0  0  0  0  0  0
  1  2  1  0
  2  3  1  0
  2  6  2  0
  3  4  1  0
  4  5  2  0
  5  6  1  0
  6  7  1  0
  7  8  1  0
  8  9  1  0
  9 10  2  0
 11  9  1  1
 11 12  1  0
 11 13  1  0
 12 13  1  0
 13 14  1  1
 14 15  2  0
 14 33  1  0
 15 16  1  0
 16 17  2  0
 17 18  1  0
 17 33  1  0
 18 19  1  0
 19 20  1  0
 20 21  1  0
 20 28  2  0
 21 22  1  0
 22 23  2  0
 23 24  1  0
 23 28  1  0
 24 25  1  6
 24 26  1  0
 24 27  1  0
 28 29  1  0
 29 30  1  0
 30 31  1  0
 30 32  2  0
M  END
