
     RDKit          3D

 34 36  0  0  0  0  0  0  0  0999 V2000
    3.6670    5.4140    0.3030 C   0  0  0  0  0  0  0  0  0  0  0  0
    2.4910    4.5690   -0.0590 C   0  0  0  0  0  0  0  0  0  0  0  0
    1.3670    5.1070   -0.0820 O   0  0  0  0  0  0  0  0  0  0  0  0
    2.6970    3.1630   -0.3690 N   0  0  0  0  0  0  0  0  0  0  0  0
    1.6060    2.3840   -0.7030 C   0  0  0  0  0  0  0  0  0  0  0  0
    1.4390    1.1460   -1.0230 C   0  0  0  0  0  0  0  0  0  0  0  0
    2.3670    0.0640   -1.1570 C   0  0  0  0  0  0  0  0  0  0  0  0
    1.8850   -1.0980   -1.5010 O   0  0  0  0  0  0  0  0  0  0  0  0
    3.7580    0.0470   -0.9730 N   0  0  0  0  0  0  0  0  0  0  0  0
    4.5580   -1.2090   -1.1660 C   0  0  1  0  0  0  0  0  0  0  0  0
    5.5060   -0.9530   -2.2660 C   0  0  0  0  0  0  0  0  0  0  0  0
    6.9210   -1.0130   -1.9240 C   0  0  0  0  0  0  0  0  0  0  0  0
    8.0990   -0.7090   -3.2140 Cl  0  0  0  0  0  0  0  0  0  0  0  0
    7.3620   -1.2780   -0.7180 C   0  0  0  0  0  0  0  0  0  0  0  0
    6.4180   -1.5220    0.3200 N   0  0  0  0  0  0  0  0  0  0  0  0
    5.1630   -1.4930    0.1270 C   0  0  0  0  0  0  0  0  0  0  0  0
    4.3210   -1.7630    1.2820 N   0  0  0  0  0  0  0  0  0  0  0  0
    0.0030    0.7590   -1.3100 C   0  0  0  0  0  0  0  0  0  0  0  0
   -0.8550    1.6610   -1.2100 O   0  0  0  0  0  0  0  0  0  0  0  0
   -0.3920   -0.4630   -1.6570 O   0  0  0  0  0  0  0  0  0  0  0  0
   -1.5010   -1.1580   -1.9640 C   0  0  0  0  0  0  0  0  0  0  0  0
   -2.5630   -1.4020   -0.9730 C   0  0  0  0  0  0  0  0  0  0  0  0
   -2.8090   -2.7040   -0.6940 C   0  0  0  0  0  0  0  0  0  0  0  0
   -3.7510   -3.3470    0.2040 C   0  0  0  0  0  0  0  0  0  0  0  0
   -4.6500   -2.8040    0.9940 C   0  0  0  0  0  0  0  0  0  0  0  0
   -5.4880   -3.7150    1.8130 C   0  0  0  0  0  0  0  0  0  0  0  0
   -4.9480   -1.4240    1.1720 N   0  0  0  0  0  0  0  0  0  0  0  0
   -5.9720   -1.1820    2.0760 N   0  0  0  0  0  0  0  0  0  0  0  0
   -6.3640   -0.0020    2.3290 C   0  0  0  0  0  0  0  0  0  0  0  0
   -5.7920    1.1960    1.7100 C   0  0  1  0  0  0  0  0  0  0  0  0
   -5.2280    2.0430    2.8570 C   0  0  0  0  0  0  0  0  0  0  0  0
   -4.7770    0.9310    0.8140 O   0  0  0  0  0  0  0  0  0  0  0  0
   -4.3300   -0.3320    0.5220 C   0  0  0  0  0  0  0  0  0  0  0  0
   -3.3270   -0.3290   -0.3830 C   0  0  0  0  0  0  0  0  0  0  0  0
  1  2  1  0
  2  3  2  0
  2  4  1  0
  4  5  1  0
  5  6  2  3
  6  7  1  0
  6 18  1  0
  7  8  2  0
  7  9  1  0
 10  9  1  1
 10 11  1  0
 10 16  1  0
 11 12  1  0
 12 13  1  0
 12 14  2  0
 14 15  1  0
 15 16  2  0
 16 17  1  0
 18 19  2  0
 18 20  1  0
 20 21  1  0
 21 22  1  0
 22 23  2  0
 22 34  1  0
 23 24  1  0
 24 25  2  0
 25 26  1  0
 25 27  1  0
 27 28  1  0
 27 33  1  0
 28 29  2  0
 29 30  1  0
 30 31  1  1
 30 32  1  0
 32 33  1  0
 33 34  2  0
M  END
