
     RDKit          3D

 34 37  0  0  0  0  0  0  0  0999 V2000
   -6.0970    3.6980   -2.7040 C   0  0  0  0  0  0  0  0  0  0  0  0
   -4.9740    2.9710   -2.2460 N   0  0  0  0  0  0  0  0  0  0  0  0
   -5.1740    1.4860   -1.9780 C   0  0  0  0  0  0  0  0  0  0  0  0
   -6.2580    1.0660   -2.2200 O   0  0  0  0  0  0  0  0  0  0  0  0
   -3.9880    0.9770   -1.4880 N   0  0  0  0  0  0  0  0  0  0  0  0
   -4.4190   -0.7110   -1.6740 C   0  0  0  0  0  0  0  0  0  0  0  0
   -5.4630   -0.8630   -2.1590 O   0  0  0  0  0  0  0  0  0  0  0  0
   -3.3450   -1.5410   -1.1690 C   0  0  0  0  0  0  0  0  0  0  0  0
   -2.8790   -1.2190    0.1700 N   0  0  0  0  0  0  0  0  0  0  0  0
   -3.5140   -1.6620    1.2920 C   0  0  0  0  0  0  0  0  0  0  0  0
   -4.7330   -2.5340    1.3480 C   0  0  2  0  0  0  0  0  0  0  0  0
   -4.5410   -3.7190    2.3280 C   0  0  0  0  0  0  0  0  0  0  0  0
   -4.7490   -3.9190    0.8890 C   0  0  0  0  0  0  0  0  0  0  0  0
   -2.8460   -1.2370    2.3660 N   0  0  0  0  0  0  0  0  0  0  0  0
   -1.7580   -0.5050    1.9590 C   0  0  0  0  0  0  0  0  0  0  0  0
   -1.8150   -0.5200    0.5830 C   0  0  0  0  0  0  0  0  0  0  0  0
   -0.6820    0.1240   -0.2180 C   0  0  0  0  0  0  0  0  0  0  0  0
    0.4960   -0.0150    0.7400 C   0  0  1  0  0  0  0  0  0  0  0  0
    1.7890    0.1070    0.1540 N   0  0  0  0  0  0  0  0  0  0  0  0
    2.3860   -0.7780   -0.7390 C   0  0  0  0  0  0  0  0  0  0  0  0
    1.7360   -1.7740   -1.1460 O   0  0  0  0  0  0  0  0  0  0  0  0
    3.7410   -0.6340   -1.2510 C   0  0  0  0  0  0  0  0  0  0  0  0
    4.1990   -0.7880   -2.4630 O   0  0  0  0  0  0  0  0  0  0  0  0
    5.5070   -0.5780   -2.5090 N   0  0  0  0  0  0  0  0  0  0  0  0
    5.9560   -0.2680   -1.2730 C   0  0  0  0  0  0  0  0  0  0  0  0
    7.3130   -0.0120   -0.7890 C   0  0  0  0  0  0  0  0  0  0  0  0
    7.5010    1.4390   -0.4150 C   0  0  0  0  0  0  0  0  0  0  0  0
    7.1840    2.3030   -1.6010 C   0  0  0  0  0  0  0  0  0  0  0  0
    8.2760    1.8710   -2.9320 Cl  0  0  0  0  0  0  0  0  0  0  0  0
    4.8380   -0.2990   -0.4560 C   0  0  0  0  0  0  0  0  0  0  0  0
    4.7760   -0.0480    1.0040 C   0  0  0  0  0  0  0  0  0  0  0  0
    0.3050    0.8080    1.9600 C   0  0  0  0  0  0  0  0  0  0  0  0
   -0.7440    0.1500    2.8130 C   0  0  1  0  0  0  0  0  0  0  0  0
   -1.3410    1.0610    3.6930 O   0  0  0  0  0  0  0  0  0  0  0  0
  1  2  1  0
  2  3  1  0
  3  4  2  0
  3  5  1  0
  5  6  1  0
  6  7  2  0
  6  8  1  0
  8  9  1  0
  9 10  1  0
  9 16  1  0
 11 10  1  6
 10 14  2  0
 11 12  1  0
 11 13  1  0
 12 13  1  0
 14 15  1  0
 15 16  2  0
 15 33  1  0
 16 17  1  0
 17 18  1  0
 18 19  1  6
 18 32  1  0
 19 20  1  0
 20 21  2  0
 20 22  1  0
 22 23  1  0
 22 30  2  0
 23 24  1  0
 24 25  2  0
 25 26  1  0
 25 30  1  0
 26 27  1  0
 27 28  1  0
 28 29  1  0
 30 31  1  0
 32 33  1  0
 33 34  1  6
M  END
