
     RDKit          3D

 34 36  0  0  0  0  0  0  0  0999 V2000
   -7.4950    3.0400   -0.1200 C   0  0  0  0  0  0  0  0  0  0  0  0
   -6.5920    2.2930   -1.0350 C   0  0  0  0  0  0  0  0  0  0  0  0
   -5.8390    1.1700   -0.5120 C   0  0  0  0  0  0  0  0  0  0  0  0
   -5.7730    0.5570    0.6160 C   0  0  0  0  0  0  0  0  0  0  0  0
   -6.8160    1.1380    1.8950 Cl  0  0  0  0  0  0  0  0  0  0  0  0
   -4.6850   -0.4440    0.9770 C   0  0  0  0  0  0  0  0  0  0  0  0
   -3.6580   -0.4920    0.0420 N   0  0  0  0  0  0  0  0  0  0  0  0
   -2.4480   -1.1950   -0.1140 C   0  0  0  0  0  0  0  0  0  0  0  0
   -2.0270   -2.0260    0.6540 O   0  0  0  0  0  0  0  0  0  0  0  0
   -1.6690   -0.8560   -1.3140 C   0  0  0  0  0  0  0  0  0  0  0  0
   -0.4440   -1.4750   -1.6190 N   0  0  0  0  0  0  0  0  0  0  0  0
   -0.3860   -2.5310   -2.4930 C   0  0  0  0  0  0  0  0  0  0  0  0
   -1.4840   -2.9970   -2.8570 O   0  0  0  0  0  0  0  0  0  0  0  0
    0.7840   -3.0210   -2.9290 N   0  0  0  0  0  0  0  0  0  0  0  0
    1.9660   -2.5090   -2.5310 C   0  0  0  0  0  0  0  0  0  0  0  0
    3.2650   -2.6880   -2.8600 N   0  0  0  0  0  0  0  0  0  0  0  0
    4.0400   -1.8190   -2.2390 N   0  0  0  0  0  0  0  0  0  0  0  0
    3.2790   -1.0160   -1.4580 C   0  0  0  0  0  0  0  0  0  0  0  0
    3.6760   -0.0520   -0.4050 C   0  0  2  0  0  0  0  0  0  0  0  0
    4.4300    1.1400   -0.9060 C   0  0  0  0  0  0  0  0  0  0  0  0
    4.1850    2.2370    0.1550 C   0  0  0  0  0  0  0  0  0  0  0  0
    4.5220    1.8020    1.4150 O   0  0  0  0  0  0  0  0  0  0  0  0
    5.7260    1.1670    1.5330 C   0  0  2  0  0  0  0  0  0  0  0  0
    6.8200    2.1640    1.2600 C   0  0  0  0  0  0  0  0  0  0  0  0
    8.1430    1.7850    0.9600 N   0  0  0  0  0  0  0  0  0  0  0  0
    6.5300    3.3890    1.2940 O   0  0  0  0  0  0  0  0  0  0  0  0
    5.9550   -0.0440    0.7160 C   0  0  0  0  0  0  0  0  0  0  0  0
    4.7560   -0.8720    0.4010 C   0  0  0  0  0  0  0  0  0  0  0  0
    1.9770   -1.4570   -1.6490 C   0  0  0  0  0  0  0  0  0  0  0  0
    0.7540   -0.9720   -1.2150 C   0  0  0  0  0  0  0  0  0  0  0  0
    0.7390   -0.0220   -0.4050 O   0  0  0  0  0  0  0  0  0  0  0  0
   -4.8140   -1.0890    2.0780 C   0  0  0  0  0  0  0  0  0  0  0  0
   -6.0200   -0.8730    2.9860 C   0  0  0  0  0  0  0  0  0  0  0  0
   -3.8160   -2.0670    2.6090 C   0  0  0  0  0  0  0  0  0  0  0  0
  1  2  1  0
  2  3  1  0
  3  4  2  3
  4  5  1  0
  4  6  1  0
  6  7  1  0
  6 32  2  3
  7  8  1  0
  8  9  2  0
  8 10  1  0
 10 11  1  0
 11 12  1  0
 11 30  1  0
 12 13  2  0
 12 14  1  0
 14 15  1  0
 15 16  2  0
 15 29  1  0
 16 17  1  0
 17 18  1  0
 19 18  1  6
 18 29  2  0
 19 20  1  0
 19 28  1  0
 20 21  1  0
 21 22  1  0
 22 23  1  0
 23 24  1  6
 23 27  1  0
 24 25  1  0
 24 26  2  0
 27 28  1  0
 29 30  1  0
 30 31  2  0
 32 33  1  0
 32 34  1  0
M  END
