
     RDKit          3D

 40 45  0  0  0  0  0  0  0  0999 V2000
   -6.5680   -3.1240    1.5220 C   0  0  0  0  0  0  0  0  0  0  0  0
   -5.4730   -2.4350    0.7260 C   0  0  0  0  0  0  0  0  0  0  0  0
   -5.4980   -0.9300    1.0510 C   0  0  1  0  0  0  0  0  0  0  0  0
   -5.2470   -0.8340    2.5410 C   0  0  0  0  0  0  0  0  0  0  0  0
   -4.4990    0.3460    2.8890 N   0  0  0  0  0  0  0  0  0  0  0  0
   -3.1230    0.6200    2.5350 C   0  0  0  0  0  0  0  0  0  0  0  0
   -2.4560    0.2460    1.4580 C   0  0  0  0  0  0  0  0  0  0  0  0
   -1.1020    0.6690    1.3790 N   0  0  0  0  0  0  0  0  0  0  0  0
   -0.5190    1.6120    2.1710 C   0  0  0  0  0  0  0  0  0  0  0  0
   -1.0520    2.3050    3.0640 O   0  0  0  0  0  0  0  0  0  0  0  0
    0.8260    1.7150    1.8380 C   0  0  0  0  0  0  0  0  0  0  0  0
    1.0150    0.8190    0.8400 C   0  0  0  0  0  0  0  0  0  0  0  0
    2.2730    0.5000    0.0920 C   0  0  0  0  0  0  0  0  0  0  0  0
    3.3550    1.3740    0.4440 N   0  0  1  0  0  0  0  0  0  0  0  0
    4.2110    0.7420    1.3880 C   0  0  0  0  0  0  0  0  0  0  0  0
    5.0840   -0.2870    0.7620 C   0  0  0  0  0  0  0  0  0  0  0  0
    5.9110    0.3440   -0.3210 C   0  0  2  0  0  0  0  0  0  0  0  0
    6.6300   -0.7430   -1.1250 C   0  0  0  0  0  0  0  0  0  0  0  0
    7.9520   -0.9010   -0.4480 C   0  0  0  0  0  0  0  0  0  0  0  0
    8.0270    0.0730    0.6010 N   0  0  0  0  0  0  0  0  0  0  0  0
    7.0490    1.1120    0.2610 C   0  0  0  0  0  0  0  0  0  0  0  0
    5.0760    1.1160   -1.3020 C   0  0  0  0  0  0  0  0  0  0  0  0
    4.0190    1.9500   -0.6950 C   0  0  0  0  0  0  0  0  0  0  0  0
   -0.1760    0.1810    0.5660 N   0  0  0  0  0  0  0  0  0  0  0  0
   -0.2490   -0.8220   -0.4230 C   0  0  0  0  0  0  0  0  0  0  0  0
   -0.1650   -0.5670   -1.8010 C   0  0  0  0  0  0  0  0  0  0  0  0
   -0.1980   -1.5940   -2.7170 C   0  0  0  0  0  0  0  0  0  0  0  0
   -0.3130   -2.9070   -2.3270 C   0  0  0  0  0  0  0  0  0  0  0  0
   -0.3960   -3.1730   -0.9740 C   0  0  0  0  0  0  0  0  0  0  0  0
   -0.3630   -2.1360   -0.0600 C   0  0  0  0  0  0  0  0  0  0  0  0
   -3.0660   -0.5360    0.3400 C   0  0  0  0  0  0  0  0  0  0  0  0
   -4.5080   -0.2000    0.3000 N   0  0  0  0  0  0  0  0  0  0  0  0
   -4.9280    0.8810   -0.5160 C   0  0  0  0  0  0  0  0  0  0  0  0
   -4.2800    1.3280   -1.6360 C   0  0  0  0  0  0  0  0  0  0  0  0
   -4.7010    2.4060   -2.4090 C   0  0  0  0  0  0  0  0  0  0  0  0
   -3.9750    2.7550   -3.4970 F   0  0  0  0  0  0  0  0  0  0  0  0
   -5.8450    3.0810   -2.0360 C   0  0  0  0  0  0  0  0  0  0  0  0
   -6.5200    2.6660   -0.9240 C   0  0  0  0  0  0  0  0  0  0  0  0
   -7.6490    3.3550   -0.5820 F   0  0  0  0  0  0  0  0  0  0  0  0
   -6.0820    1.5830   -0.1630 C   0  0  0  0  0  0  0  0  0  0  0  0
  1  2  1  0
  3  2  1  6
  3  4  1  0
  3 32  1  0
  4  5  1  0
  5  6  1  0
  6  7  2  0
  7  8  1  0
  7 31  1  0
  8  9  1  0
  8 24  1  0
  9 10  2  0
  9 11  1  0
 11 12  2  0
 12 13  1  0
 12 24  1  0
 14 13  1  6
 14 15  1  0
 14 23  1  0
 15 16  1  0
 17 16  1  1
 17 18  1  0
 17 21  1  0
 17 22  1  0
 18 19  1  0
 19 20  1  0
 20 21  1  0
 22 23  1  0
 24 25  1  0
 25 26  2  0
 25 30  1  0
 26 27  1  0
 27 28  2  0
 28 29  1  0
 29 30  2  0
 31 32  1  0
 32 33  1  0
 33 34  2  0
 33 40  1  0
 34 35  1  0
 35 36  1  0
 35 37  2  0
 37 38  1  0
 38 39  1  0
 38 40  2  0
M  CHG  2  14   1  20   1
M  END
