
     RDKit          3D

 41 45  0  0  0  0  0  0  0  0999 V2000
    0.9280    3.8960   -0.9670 C   0  0  0  0  0  0  0  0  0  0  0  0
    0.4180    3.2720    0.3430 C   0  0  0  0  0  0  0  0  0  0  0  0
    0.5850    1.8160    0.2100 N   0  0  0  0  0  0  0  0  0  0  0  0
   -0.4460    1.0060   -0.3400 C   0  0  0  0  0  0  0  0  0  0  0  0
   -0.0530   -0.2490   -0.6590 C   0  0  0  0  0  0  0  0  0  0  0  0
    1.2960   -0.7310   -0.4740 C   0  0  0  0  0  0  0  0  0  0  0  0
    2.2280    0.1050    0.0910 C   0  0  0  0  0  0  0  0  0  0  0  0
    3.5600   -0.3160    0.6130 C   0  0  0  0  0  0  0  0  0  0  0  0
    4.5120   -0.7600   -0.3550 N   0  0  2  0  0  0  0  0  0  0  0  0
    5.4010   -1.7480    0.1650 C   0  0  0  0  0  0  0  0  0  0  0  0
    6.2920   -2.2920   -0.9460 C   0  0  0  0  0  0  0  0  0  0  0  0
    7.6640   -1.6990   -0.9090 C   0  0  0  0  0  0  0  0  0  0  0  0
    7.6500   -0.2830   -0.6200 N   0  0  0  0  0  0  0  0  0  0  0  0
    6.4950    0.3310   -1.2810 C   0  0  0  0  0  0  0  0  0  0  0  0
    5.3790    0.5040   -0.3530 C   0  0  0  0  0  0  0  0  0  0  0  0
    1.7800    1.3440    0.4030 C   0  0  0  0  0  0  0  0  0  0  0  0
    2.6500    2.1350    0.9480 O   0  0  0  0  0  0  0  0  0  0  0  0
   -0.9310   -1.3600   -1.0440 C   0  0  0  0  0  0  0  0  0  0  0  0
   -1.7680   -2.0460   -0.4130 N   0  0  0  0  0  0  0  0  0  0  0  0
   -2.5360   -2.5430    0.5430 N   0  0  0  0  0  0  0  0  0  0  0  0
   -2.0320   -2.8480    1.9440 C   0  0  0  0  0  0  0  0  0  0  0  0
   -3.8920   -2.9870    0.3460 C   0  0  0  0  0  0  0  0  0  0  0  0
   -3.9370   -4.4380    0.4940 C   0  0  0  0  0  0  0  0  0  0  0  0
   -5.0690   -5.1720    0.3850 C   0  0  0  0  0  0  0  0  0  0  0  0
   -5.0240   -6.5440    0.5010 F   0  0  0  0  0  0  0  0  0  0  0  0
   -6.2660   -4.5320    0.1240 C   0  0  0  0  0  0  0  0  0  0  0  0
   -7.3970   -5.2440    0.0600 F   0  0  0  0  0  0  0  0  0  0  0  0
   -6.2380   -3.1550   -0.0220 C   0  0  0  0  0  0  0  0  0  0  0  0
   -5.0550   -2.3880    0.0860 C   0  0  0  0  0  0  0  0  0  0  0  0
   -5.4180   -0.9210   -0.0200 C   0  0  0  0  0  0  0  0  0  0  0  0
   -4.5810   -0.0020    0.4010 C   0  0  0  0  0  0  0  0  0  0  0  0
   -3.4600    0.5910    0.9470 C   0  0  0  0  0  0  0  0  0  0  0  0
   -2.8440    1.5650    0.0130 C   0  0  0  0  0  0  0  0  0  0  0  0
   -3.7290    2.6810   -0.3740 C   0  0  0  0  0  0  0  0  0  0  0  0
   -3.5390    3.4180   -1.4850 C   0  0  0  0  0  0  0  0  0  0  0  0
   -4.1290    4.6290   -1.6700 C   0  0  0  0  0  0  0  0  0  0  0  0
   -4.9630    5.1720   -0.7050 C   0  0  0  0  0  0  0  0  0  0  0  0
   -5.4780    6.4280   -0.8890 F   0  0  0  0  0  0  0  0  0  0  0  0
   -5.2080    4.4570    0.4480 C   0  0  0  0  0  0  0  0  0  0  0  0
   -4.6050    3.2070    0.6370 C   0  0  0  0  0  0  0  0  0  0  0  0
   -1.6710    1.6440   -0.4330 N   0  0  0  0  0  0  0  0  0  0  0  0
  1  2  1  0
  2  3  1  0
  3  4  1  0
  3 16  1  0
  4  5  2  0
  4 41  1  0
  5  6  1  0
  5 18  1  0
  6  7  2  0
  7  8  1  0
  7 16  1  0
  9  8  1  1
  9 10  1  0
  9 15  1  0
 10 11  1  0
 11 12  1  0
 12 13  1  0
 13 14  1  0
 14 15  1  0
 16 17  2  0
 18 19  2  0
 19 20  1  0
 20 21  1  0
 20 22  1  0
 22 23  2  0
 22 29  1  0
 23 24  1  0
 24 25  1  0
 24 26  2  0
 26 27  1  0
 26 28  1  0
 28 29  2  0
 29 30  1  0
 30 31  2  0
 31 32  1  0
 32 33  1  0
 33 34  1  0
 33 41  2  0
 34 35  2  0
 34 40  1  0
 35 36  1  0
 36 37  2  0
 37 38  1  0
 37 39  1  0
 39 40  2  0
M  CHG  2   9   1  13   1
M  END
