
     RDKit          3D

 41 44  0  0  0  0  0  0  0  0999 V2000
   -0.0710   -4.3670    2.5280 C   0  0  0  0  0  0  0  0  0  0  0  0
   -1.0550   -3.6600    1.5720 C   0  0  0  0  0  0  0  0  0  0  0  0
   -2.1390   -3.1840    2.1330 C   0  0  0  0  0  0  0  0  0  0  0  0
   -3.2190   -2.4830    1.4900 C   0  0  0  0  0  0  0  0  0  0  0  0
   -4.3050   -1.9920    1.7990 C   0  0  0  0  0  0  0  0  0  0  0  0
   -5.3920   -1.3000    1.1460 C   0  0  0  0  0  0  0  0  0  0  0  0
   -5.6440   -0.3140    0.3900 C   0  0  0  0  0  0  0  0  0  0  0  0
   -5.0910    0.7480   -0.3170 N   0  0  2  0  0  0  0  0  0  0  0  0
   -4.9480    0.3310   -1.6930 C   0  0  0  0  0  0  0  0  0  0  0  0
   -3.9910    1.4490    0.2660 C   0  0  0  0  0  0  0  0  0  0  0  0
   -3.0700    2.0510   -0.7130 C   0  0  0  0  0  0  0  0  0  0  0  0
   -3.7810    3.2360   -1.4060 C   0  0  0  0  0  0  0  0  0  0  0  0
   -4.1080    4.3070   -0.5380 N   0  0  2  0  0  0  0  0  0  0  0  0
   -5.2890    5.0080   -1.0440 C   0  0  0  0  0  0  0  0  0  0  0  0
   -3.0360    5.3390   -0.6030 C   0  0  0  0  0  0  0  0  0  0  0  0
   -1.8740    1.8290   -1.0950 C   0  0  0  0  0  0  0  0  0  0  0  0
   -0.7380    0.9520   -0.8620 C   0  0  0  0  0  0  0  0  0  0  0  0
    0.4570    1.4820   -1.3550 N   0  0  0  0  0  0  0  0  0  0  0  0
    1.6670    0.9820   -1.2670 C   0  0  0  0  0  0  0  0  0  0  0  0
    1.8140   -0.2020   -0.6180 C   0  0  0  0  0  0  0  0  0  0  0  0
    3.1210   -0.6860   -0.2740 N   0  0  0  0  0  0  0  0  0  0  0  0
    3.8980    0.2540    0.4760 C   0  0  0  0  0  0  0  0  0  0  0  0
    3.3260    1.3950    0.7030 O   0  0  0  0  0  0  0  0  0  0  0  0
    5.2220    0.0980    1.0200 C   0  0  0  0  0  0  0  0  0  0  0  0
    6.2050   -0.4530    0.1730 N   0  0  0  0  0  0  0  0  0  0  0  0
    6.9670    0.2840   -0.6940 C   0  0  0  0  0  0  0  0  0  0  0  0
    6.8090    1.7390   -0.9090 C   0  0  2  0  0  0  0  0  0  0  0  0
    5.5890    1.9600   -1.5300 F   0  0  0  0  0  0  0  0  0  0  0  0
    7.8250    2.2340   -1.6800 F   0  0  0  0  0  0  0  0  0  0  0  0
    6.8160    2.3800    0.3140 F   0  0  0  0  0  0  0  0  0  0  0  0
    7.8380   -0.5390   -1.2880 N   0  0  0  0  0  0  0  0  0  0  0  0
    7.6930   -1.8090   -0.8480 C   0  0  0  0  0  0  0  0  0  0  0  0
    8.3130   -3.0130   -1.0780 C   0  0  0  0  0  0  0  0  0  0  0  0
    7.9330   -4.1270   -0.4220 C   0  0  0  0  0  0  0  0  0  0  0  0
    6.9310   -4.0980    0.4830 C   0  0  0  0  0  0  0  0  0  0  0  0
    6.2930   -2.8870    0.7240 C   0  0  0  0  0  0  0  0  0  0  0  0
    6.6440   -1.7020    0.0790 C   0  0  0  0  0  0  0  0  0  0  0  0
    0.6960   -0.7990   -0.1090 C   0  0  0  0  0  0  0  0  0  0  0  0
   -0.6130   -0.2330   -0.2120 C   0  0  0  0  0  0  0  0  0  0  0  0
   -1.5610   -0.9600    0.6230 C   0  0  0  0  0  0  0  0  0  0  0  0
   -2.5560   -1.9010    0.1240 C   0  0  0  0  0  0  0  0  0  0  0  0
  1  2  1  0
  2  3  2  3
  3  4  1  0
  4  5  2  0
  4 41  1  0
  5  6  1  0
  6  7  2  0
  7  8  1  0
  8  9  1  6
  8 10  1  0
 10 11  1  0
 11 12  1  0
 11 16  2  0
 12 13  1  0
 13 14  1  6
 13 15  1  0
 16 17  1  0
 17 18  2  0
 17 39  1  0
 18 19  1  0
 19 20  2  0
 20 21  1  0
 20 38  1  0
 21 22  1  0
 22 23  2  0
 22 24  1  0
 24 25  1  0
 25 26  1  0
 25 37  1  0
 26 27  1  0
 26 31  2  0
 27 28  1  6
 27 29  1  0
 27 30  1  0
 31 32  1  0
 32 33  2  0
 32 37  1  0
 33 34  1  0
 34 35  2  0
 35 36  1  0
 36 37  2  0
 38 39  2  0
 39 40  1  0
 40 41  1  0
M  CHG  2   8   1  13   1
M  END
