
     RDKit          3D

 41 46  0  0  0  0  0  0  0  0999 V2000
   -5.1270   -2.0200   -1.6200 C   0  0  0  0  0  0  0  0  0  0  0  0
   -4.9770   -2.4240   -0.2040 C   0  0  0  0  0  0  0  0  0  0  0  0
   -6.1450   -2.5000    0.5660 C   0  0  0  0  0  0  0  0  0  0  0  0
   -6.1530   -2.8790    1.8880 C   0  0  0  0  0  0  0  0  0  0  0  0
   -4.9550   -3.1950    2.4680 C   0  0  0  0  0  0  0  0  0  0  0  0
   -3.7950   -3.1290    1.7370 C   0  0  0  0  0  0  0  0  0  0  0  0
   -3.8130   -2.7450    0.4130 C   0  0  0  0  0  0  0  0  0  0  0  0
   -2.5780   -2.8200   -0.3450 C   0  0  0  0  0  0  0  0  0  0  0  0
   -2.4930   -3.8050   -1.3240 C   0  0  0  0  0  0  0  0  0  0  0  0
   -1.2970   -4.0680   -1.8860 C   0  0  0  0  0  0  0  0  0  0  0  0
   -0.1770   -3.3640   -1.4890 C   0  0  0  0  0  0  0  0  0  0  0  0
   -0.2500   -2.3830   -0.5220 C   0  0  0  0  0  0  0  0  0  0  0  0
    0.7580   -1.5680    0.0540 C   0  0  0  0  0  0  0  0  0  0  0  0
    2.1160   -1.7260   -0.3990 C   0  0  0  0  0  0  0  0  0  0  0  0
    3.1930   -0.7780   -0.2800 C   0  0  0  0  0  0  0  0  0  0  0  0
    3.0480    0.5780   -0.9260 C   0  0  0  0  0  0  0  0  0  0  0  0
    4.1570    1.3800   -0.7350 O   0  0  0  0  0  0  0  0  0  0  0  0
    5.4430    1.3310   -1.1390 C   0  0  0  0  0  0  0  0  0  0  0  0
    6.0680    0.4180   -1.9390 C   0  0  0  0  0  0  0  0  0  0  0  0
    7.3940    0.4840   -2.2800 C   0  0  0  0  0  0  0  0  0  0  0  0
    8.1700    1.5150   -1.8110 C   0  0  0  0  0  0  0  0  0  0  0  0
    7.5960    2.4630   -1.0040 C   0  0  0  0  0  0  0  0  0  0  0  0
    8.4140    3.4770   -0.5560 C   0  0  0  0  0  0  0  0  0  0  0  0
    7.8940    4.4530    0.2590 C   0  0  0  0  0  0  0  0  0  0  0  0
    6.5440    4.4120    0.6260 C   0  0  0  0  0  0  0  0  0  0  0  0
    5.7490    3.3660    0.1480 C   0  0  0  0  0  0  0  0  0  0  0  0
    6.2640    2.3800   -0.6710 C   0  0  0  0  0  0  0  0  0  0  0  0
    0.0870   -0.8090    0.9660 C   0  0  0  0  0  0  0  0  0  0  0  0
    0.6700    0.1250    1.8960 C   0  0  0  0  0  0  0  0  0  0  0  0
    1.9350    0.3470    1.9650 O   0  0  0  0  0  0  0  0  0  0  0  0
   -0.0130    0.9010    2.8280 O   0  0  0  0  0  0  0  0  0  0  0  0
   -1.2580   -1.1080    0.9750 N   0  0  0  0  0  0  0  0  0  0  0  0
   -2.1970   -0.3820    1.7930 C   0  0  0  0  0  0  0  0  0  0  0  0
   -2.5410    0.9960    1.1590 C   0  0  0  0  0  0  0  0  0  0  0  0
   -3.1980    0.8860   -0.1230 N   0  0  2  0  0  0  0  0  0  0  0  0
   -2.4860    1.4600   -1.2190 C   0  0  0  0  0  0  0  0  0  0  0  0
   -2.8530    2.8410   -1.6050 C   0  0  0  0  0  0  0  0  0  0  0  0
   -4.2460    2.9670   -1.6130 O   0  0  0  0  0  0  0  0  0  0  0  0
   -4.6650    2.7940   -0.2820 C   0  0  0  0  0  0  0  0  0  0  0  0
   -4.5910    1.3250   -0.0140 C   0  0  0  0  0  0  0  0  0  0  0  0
   -1.4840   -2.0940    0.0670 C   0  0  0  0  0  0  0  0  0  0  0  0
  1  2  1  0
  2  3  2  0
  2  7  1  0
  3  4  1  0
  4  5  2  0
  5  6  1  0
  6  7  2  0
  7  8  1  0
  8  9  2  0
  8 41  1  0
  9 10  1  0
 10 11  2  0
 11 12  1  0
 12 13  1  0
 12 41  2  0
 13 14  1  0
 13 28  2  0
 14 15  1  0
 15 16  1  0
 16 17  1  0
 17 18  1  0
 18 19  2  0
 18 27  1  0
 19 20  1  0
 20 21  2  0
 21 22  1  0
 22 23  2  0
 22 27  1  0
 23 24  1  0
 24 25  2  0
 25 26  1  0
 26 27  2  0
 28 29  1  0
 28 32  1  0
 29 30  2  0
 29 31  1  0
 32 33  1  0
 32 41  1  0
 33 34  1  0
 35 34  1  1
 35 36  1  0
 35 40  1  0
 36 37  1  0
 37 38  1  0
 38 39  1  0
 39 40  1  0
M  CHG  1  35   1
M  END
