
     RDKit          3D

 41 45  0  0  0  0  0  0  0  0999 V2000
   -6.5400    0.3440    1.2570 C   0  0  0  0  0  0  0  0  0  0  0  0
   -5.8530   -0.9100    1.3030 C   0  0  0  0  0  0  0  0  0  0  0  0
   -4.9080   -1.6270    0.8690 C   0  0  0  0  0  0  0  0  0  0  0  0
   -3.9350   -1.2000   -0.1010 C   0  0  0  0  0  0  0  0  0  0  0  0
   -3.9780    0.0850   -0.7300 C   0  0  0  0  0  0  0  0  0  0  0  0
   -2.9590    1.0710   -0.6170 N   0  0  1  0  0  0  0  0  0  0  0  0
   -3.6660    2.1950    0.1130 C   0  0  0  0  0  0  0  0  0  0  0  0
   -3.1820    3.4920   -0.3480 C   0  0  0  0  0  0  0  0  0  0  0  0
   -4.2130    4.3060   -0.7970 C   0  0  0  0  0  0  0  0  0  0  0  0
   -3.8480    5.5720   -1.2380 C   0  0  0  0  0  0  0  0  0  0  0  0
   -2.5450    6.0050   -1.2290 C   0  0  0  0  0  0  0  0  0  0  0  0
   -2.2590    7.2350   -1.6750 F   0  0  0  0  0  0  0  0  0  0  0  0
   -1.5550    5.1510   -0.7770 C   0  0  0  0  0  0  0  0  0  0  0  0
   -1.8630    3.8990   -0.3350 C   0  0  0  0  0  0  0  0  0  0  0  0
   -0.6960    3.0760    0.1370 C   0  0  0  0  0  0  0  0  0  0  0  0
   -1.1430    1.8690    0.8860 C   0  0  0  0  0  0  0  0  0  0  0  0
   -1.7710    0.7340    0.0880 C   0  0  2  0  0  0  0  0  0  0  0  0
   -0.6670    0.3010   -0.8660 C   0  0  0  0  0  0  0  0  0  0  0  0
    0.5620   -0.0050   -0.1060 N   0  0  0  0  0  0  0  0  0  0  0  0
    1.6090    0.6760   -0.9070 C   0  0  0  0  0  0  0  0  0  0  0  0
    2.5870   -0.2590   -1.5260 C   0  0  0  0  0  0  0  0  0  0  0  0
    3.1860   -0.9870   -0.3830 N   0  0  0  0  0  0  0  0  0  0  0  0
    4.4950   -0.7620   -0.0480 C   0  0  0  0  0  0  0  0  0  0  0  0
    4.7400    0.4480    0.6430 C   0  0  0  0  0  0  0  0  0  0  0  0
    6.0100    0.7590    0.8990 N   0  0  0  0  0  0  0  0  0  0  0  0
    7.0440   -0.0150    0.5350 C   0  0  0  0  0  0  0  0  0  0  0  0
    6.8790   -1.2350   -0.1530 C   0  0  0  0  0  0  0  0  0  0  0  0
    8.0260   -1.9940   -0.5210 N   0  0  0  0  0  0  0  0  0  0  0  0
    9.2470   -1.9280    0.2390 C   0  0  0  0  0  0  0  0  0  0  0  0
   10.4340   -2.7270   -0.2400 C   0  0  0  0  0  0  0  0  0  0  0  0
    9.3640   -1.2530    1.2520 O   0  0  0  0  0  0  0  0  0  0  0  0
    5.5900   -1.5710   -0.4240 C   0  0  0  0  0  0  0  0  0  0  0  0
    2.2400   -1.8280    0.2870 C   0  0  0  0  0  0  0  0  0  0  0  0
    0.7960   -1.4280   -0.0090 C   0  0  0  0  0  0  0  0  0  0  0  0
   -3.1990   -2.2990   -0.3600 C   0  0  0  0  0  0  0  0  0  0  0  0
   -3.6250   -3.3570    0.3570 N   0  0  0  0  0  0  0  0  0  0  0  0
   -3.1050   -4.7070    0.1990 C   0  0  0  0  0  0  0  0  0  0  0  0
   -4.6520   -2.9700    1.1070 C   0  0  0  0  0  0  0  0  0  0  0  0
   -5.2780   -3.7520    2.0110 C   0  0  0  0  0  0  0  0  0  0  0  0
   -6.2730   -3.2100    2.8000 F   0  0  0  0  0  0  0  0  0  0  0  0
   -5.0050   -5.0750    2.1970 F   0  0  0  0  0  0  0  0  0  0  0  0
  1  2  1  0
  2  3  2  3
  3  4  1  0
  3 38  1  0
  4  5  1  0
  4 35  2  0
  6  5  1  1
  6  7  1  0
  6 17  1  0
  7  8  1  0
  8  9  2  0
  8 14  1  0
  9 10  1  0
 10 11  2  0
 11 12  1  0
 11 13  1  0
 13 14  2  0
 14 15  1  0
 15 16  1  0
 16 17  1  0
 17 18  1  6
 18 19  1  0
 19 20  1  0
 19 34  1  0
 20 21  1  0
 21 22  1  0
 22 23  1  0
 22 33  1  0
 23 24  2  0
 23 32  1  0
 24 25  1  0
 25 26  2  0
 26 27  1  0
 27 28  1  0
 27 32  2  0
 28 29  1  0
 29 30  1  0
 29 31  2  0
 33 34  1  0
 35 36  1  0
 36 37  1  0
 36 38  1  0
 38 39  2  3
 39 40  1  0
 39 41  1  0
M  CHG  2   6   1  25   1
M  END
