
     RDKit          3D

 41 45  0  0  0  0  0  0  0  0999 V2000
    6.1350   -4.1690   -0.5920 N   0  0  0  0  0  0  0  0  0  0  0  0
    6.4010   -3.0550   -0.2950 C   0  0  0  0  0  0  0  0  0  0  0  0
    6.7150   -1.7210    0.0870 C   0  0  0  0  0  0  0  0  0  0  0  0
    5.7850   -0.7560    0.1790 C   0  0  0  0  0  0  0  0  0  0  0  0
    6.1070    0.5660    0.5600 N   0  0  0  0  0  0  0  0  0  0  0  0
    7.4510    0.9070    0.8600 C   0  0  0  0  0  0  0  0  0  0  0  0
    7.7890    2.1390    1.2310 C   0  0  0  0  0  0  0  0  0  0  0  0
    6.8000    3.1810    1.3450 C   0  0  0  0  0  0  0  0  0  0  0  0
    5.5090    2.9450    1.0800 C   0  0  0  0  0  0  0  0  0  0  0  0
    5.1140    1.6090    0.6720 C   0  0  0  0  0  0  0  0  0  0  0  0
    3.8370    1.3170    0.3660 C   0  0  0  0  0  0  0  0  0  0  0  0
    2.7940    2.2780    0.4500 C   0  0  0  0  0  0  0  0  0  0  0  0
    1.5310    2.2860    0.2340 C   0  0  0  0  0  0  0  0  0  0  0  0
    0.5310    1.4140   -0.1740 C   0  0  0  0  0  0  0  0  0  0  0  0
   -0.6620    2.0980   -0.2920 O   0  0  0  0  0  0  0  0  0  0  0  0
    0.3570    0.0690   -0.5000 N   0  0  0  0  0  0  0  0  0  0  0  0
    1.3300   -0.9460   -0.3610 C   0  0  0  0  0  0  0  0  0  0  0  0
    0.7510   -2.3060   -0.3790 C   0  0  0  0  0  0  0  0  0  0  0  0
    1.3110   -3.2740    0.4690 C   0  0  0  0  0  0  0  0  0  0  0  0
    0.7830   -4.5550    0.4240 C   0  0  0  0  0  0  0  0  0  0  0  0
   -0.2700   -4.8510   -0.4410 C   0  0  0  0  0  0  0  0  0  0  0  0
   -0.8150   -3.8670   -1.2800 C   0  0  0  0  0  0  0  0  0  0  0  0
   -0.2780   -2.6110   -1.2190 C   0  0  0  0  0  0  0  0  0  0  0  0
   -0.8010   -1.4690   -2.0470 C   0  0  0  0  0  0  0  0  0  0  0  0
   -0.9650   -0.3370   -1.0740 C   0  0  1  0  0  0  0  0  0  0  0  0
   -1.8470   -0.6210    0.0890 C   0  0  0  0  0  0  0  0  0  0  0  0
   -3.1780   -1.0350   -0.2130 N   0  0  0  0  0  0  0  0  0  0  0  0
   -3.8630   -1.2580    1.0590 C   0  0  0  0  0  0  0  0  0  0  0  0
   -5.3550   -1.1320    0.9390 C   0  0  0  0  0  0  0  0  0  0  0  0
   -5.7640    0.2580    0.6810 N   0  0  2  0  0  0  0  0  0  0  0  0
   -7.0080    0.3290    0.0070 C   0  0  0  0  0  0  0  0  0  0  0  0
   -7.2060    1.5050   -0.8950 C   0  0  0  0  0  0  0  0  0  0  0  0
   -7.1240    2.7810   -0.2290 N   0  0  0  0  0  0  0  0  0  0  0  0
   -4.6630    0.9060    0.0500 C   0  0  0  0  0  0  0  0  0  0  0  0
   -3.9200   -0.0180   -0.9120 C   0  0  0  0  0  0  0  0  0  0  0  0
    0.9430    3.7330    0.5270 C   0  0  1  0  0  0  0  0  0  0  0  0
    1.9090    4.4970    1.0650 F   0  0  0  0  0  0  0  0  0  0  0  0
    0.5540    4.1790   -0.7190 F   0  0  0  0  0  0  0  0  0  0  0  0
   -0.1390    3.4810    1.3260 F   0  0  0  0  0  0  0  0  0  0  0  0
    8.4580   -0.1540    0.7550 C   0  0  0  0  0  0  0  0  0  0  0  0
    8.0960   -1.3630    0.3960 C   0  0  0  0  0  0  0  0  0  0  0  0
  1  2  3  0
  2  3  1  0
  3  4  2  0
  3 41  1  0
  4  5  1  0
  5  6  1  0
  5 10  1  0
  6  7  2  0
  6 40  1  0
  7  8  1  0
  8  9  2  0
  9 10  1  0
 10 11  2  3
 11 12  1  0
 12 13  2  3
 13 14  1  0
 13 36  1  0
 14 15  2  0
 14 16  1  0
 16 17  1  0
 16 25  1  0
 17 18  1  0
 18 19  2  0
 18 23  1  0
 19 20  1  0
 20 21  2  0
 21 22  1  0
 22 23  2  0
 23 24  1  0
 24 25  1  0
 25 26  1  1
 26 27  1  0
 27 28  1  0
 27 35  1  0
 28 29  1  0
 29 30  1  0
 30 31  1  6
 30 34  1  0
 31 32  1  0
 32 33  1  0
 34 35  1  0
 36 37  1  1
 36 38  1  0
 36 39  1  0
 40 41  2  0
M  CHG  2  30   1  33   1
M  END
