
     RDKit          3D

 26 28  0  0  0  0  0  0  0  0999 V2000
    7.2370    1.8070   -2.6230 O   0  0  0  0  0  0  0  0  0  0  0  0
    7.4220    1.3200   -1.1920 S   0  0  0  0  0  0  0  0  0  0  0  0
    6.3830   -0.0810   -0.8850 C   0  0  0  0  0  0  0  0  0  0  0  0
    5.0530    0.1140   -0.4940 C   0  0  0  0  0  0  0  0  0  0  0  0
    4.2420   -0.9670   -0.2550 C   0  0  0  0  0  0  0  0  0  0  0  0
    2.8510   -0.8260    0.1530 C   0  0  0  0  0  0  0  0  0  0  0  0
    2.2260    0.3650    0.3350 C   0  0  0  0  0  0  0  0  0  0  0  0
    0.8740    0.4550    0.7320 C   0  0  0  0  0  0  0  0  0  0  0  0
    0.1480   -0.6780    0.9460 C   0  0  0  0  0  0  0  0  0  0  0  0
   -1.2120   -0.7220    1.3380 N   0  0  0  0  0  0  0  0  0  0  0  0
   -2.0740    0.3860    1.4920 C   0  0  0  0  0  0  0  0  0  0  0  0
   -1.6830    1.5380    1.2790 O   0  0  0  0  0  0  0  0  0  0  0  0
   -3.4380    0.2120    1.9000 N   0  0  0  0  0  0  0  0  0  0  0  0
   -4.3490    1.3250    2.0650 C   0  0  0  0  0  0  0  0  0  0  0  0
   -4.5470    2.0980    0.7830 C   0  0  0  0  0  0  0  0  0  0  0  0
   -5.1070    1.2060   -0.2850 C   0  0  0  0  0  0  0  0  0  0  0  0
   -6.4030    1.0200   -0.5050 N   0  0  0  0  0  0  0  0  0  0  0  0
   -6.5540    0.1840   -1.5070 N   0  0  0  0  0  0  0  0  0  0  0  0
   -5.3420   -0.1780   -1.9420 C   0  0  0  0  0  0  0  0  0  0  0  0
   -5.0700   -0.9570   -2.8770 O   0  0  0  0  0  0  0  0  0  0  0  0
   -4.4500    0.4660   -1.1740 N   0  0  0  0  0  0  0  0  0  0  0  0
    0.8360   -1.8850    0.7460 C   0  0  0  0  0  0  0  0  0  0  0  0
    2.1160   -1.9350    0.3700 N   0  0  0  0  0  0  0  0  0  0  0  0
    4.8070   -2.2190   -0.4190 C   0  0  0  0  0  0  0  0  0  0  0  0
    6.1140   -2.4240   -0.8020 C   0  0  0  0  0  0  0  0  0  0  0  0
    6.8690   -1.3250   -1.0260 N   0  0  0  0  0  0  0  0  0  0  0  0
  1  2  2  0
  2  3  1  0
  3  4  2  0
  3 26  1  0
  4  5  1  0
  5  6  1  0
  5 24  2  0
  6  7  2  0
  6 23  1  0
  7  8  1  0
  8  9  2  0
  9 10  1  0
  9 22  1  0
 10 11  1  0
 11 12  2  0
 11 13  1  0
 13 14  1  0
 14 15  1  0
 15 16  1  0
 16 17  2  0
 16 21  1  0
 17 18  1  0
 18 19  1  0
 19 20  2  0
 19 21  1  0
 22 23  2  0
 24 25  1  0
 25 26  2  0
M  END
