
     RDKit          3D

 26 27  0  0  0  0  0  0  0  0999 V2000
   -7.7450   -1.1830    1.4030 C   0  0  0  0  0  0  0  0  0  0  0  0
   -6.9940   -0.2890    0.4540 C   0  0  0  0  0  0  0  0  0  0  0  0
   -7.6870    0.3340   -0.5250 N   0  0  0  0  0  0  0  0  0  0  0  0
   -7.0810    1.1500   -1.4120 C   0  0  0  0  0  0  0  0  0  0  0  0
   -8.1040    1.9130   -2.6580 S   0  0  0  0  0  0  0  0  0  0  0  0
   -5.7640    1.3430   -1.3130 N   0  0  0  0  0  0  0  0  0  0  0  0
   -5.0860    0.7170   -0.3340 C   0  0  0  0  0  0  0  0  0  0  0  0
   -3.6030    0.9230   -0.2100 C   0  0  0  0  0  0  0  0  0  0  0  0
   -2.9580   -0.1350   -1.0410 C   0  0  0  0  0  0  0  0  0  0  0  0
   -1.5100   -0.0180   -0.9920 N   0  0  0  0  0  0  0  0  0  0  0  0
   -0.8190   -0.1410    0.2280 C   0  0  0  0  0  0  0  0  0  0  0  0
   -1.4510   -0.3610    1.3170 O   0  0  0  0  0  0  0  0  0  0  0  0
    0.6220   -0.0270    0.3140 C   0  0  0  0  0  0  0  0  0  0  0  0
    1.3490    0.1980   -0.7500 C   0  0  0  0  0  0  0  0  0  0  0  0
    2.8240    0.3130   -0.6490 C   0  0  0  0  0  0  0  0  0  0  0  0
    3.4630    0.1960    0.4990 C   0  0  0  0  0  0  0  0  0  0  0  0
    4.9090    0.3140    0.5620 C   0  0  0  0  0  0  0  0  0  0  0  0
    5.4730    0.1930    1.6980 O   0  0  0  0  0  0  0  0  0  0  0  0
    5.7510    0.5560   -0.5480 N   0  0  0  0  0  0  0  0  0  0  0  0
    7.1770    0.6470   -0.3280 C   0  0  0  0  0  0  0  0  0  0  0  0
    7.7350   -0.5960    0.2400 C   0  0  0  0  0  0  0  0  0  0  0  0
    9.1110   -0.6900    0.5250 N   0  0  0  0  0  0  0  0  0  0  0  0
    6.9840   -1.5630    0.4680 O   0  0  0  0  0  0  0  0  0  0  0  0
    2.7180   -0.0600    1.7630 C   0  0  0  0  0  0  0  0  0  0  0  0
    1.3040   -0.1550    1.5640 N   0  0  0  0  0  0  0  0  0  0  0  0
   -5.6620   -0.1010    0.5630 N   0  0  0  0  0  0  0  0  0  0  0  0
  1  2  1  0
  2  3  2  0
  2 26  1  0
  3  4  1  0
  4  5  1  0
  4  6  2  0
  6  7  1  0
  7  8  1  0
  7 26  2  0
  8  9  1  0
  9 10  1  0
 10 11  1  0
 11 12  2  0
 11 13  1  0
 13 14  2  0
 13 25  1  0
 14 15  1  0
 15 16  2  0
 16 17  1  0
 16 24  1  0
 17 18  2  0
 17 19  1  0
 19 20  1  0
 20 21  1  0
 21 22  1  0
 21 23  2  0
 24 25  1  0
M  END
