
     RDKit          3D

 26 28  0  0  0  0  0  0  0  0999 V2000
    6.6660   -0.9680    1.4420 C   0  0  0  0  0  0  0  0  0  0  0  0
    5.2270   -1.0930    1.0970 C   0  0  0  0  0  0  0  0  0  0  0  0
    4.2970   -1.8850    1.6680 N   0  0  0  0  0  0  0  0  0  0  0  0
    3.1260   -1.7120    1.0800 N   0  0  0  0  0  0  0  0  0  0  0  0
    3.2550   -0.8050    0.1120 C   0  0  0  0  0  0  0  0  0  0  0  0
    2.4090   -0.2420   -0.8010 N   0  0  0  0  0  0  0  0  0  0  0  0
    2.8390    0.6710   -1.6730 C   0  0  0  0  0  0  0  0  0  0  0  0
    1.8950    1.2580   -2.6410 C   0  0  0  0  0  0  0  0  0  0  0  0
    1.1700    2.7250   -1.8420 S   0  0  0  0  0  0  0  0  0  0  0  0
    0.1360    2.2060   -0.4160 C   0  0  0  0  0  0  0  0  0  0  0  0
   -1.0280    1.4590   -0.9750 C   0  0  0  0  0  0  0  0  0  0  0  0
   -1.9530    0.9690    0.0880 C   0  0  0  0  0  0  0  0  0  0  0  0
   -1.6360    1.2110    1.2600 O   0  0  0  0  0  0  0  0  0  0  0  0
   -3.1390    0.2620   -0.1910 N   0  0  0  0  0  0  0  0  0  0  0  0
   -4.0680   -0.2400    0.7340 C   0  0  0  0  0  0  0  0  0  0  0  0
   -3.9470   -0.1350    2.0910 C   0  0  0  0  0  0  0  0  0  0  0  0
   -4.9030   -0.6610    2.9640 C   0  0  0  0  0  0  0  0  0  0  0  0
   -5.9640   -1.2840    2.4310 N   0  0  0  0  0  0  0  0  0  0  0  0
   -6.1120   -1.4040    1.0940 C   0  0  0  0  0  0  0  0  0  0  0  0
   -7.2370   -2.0620    0.5930 O   0  0  0  0  0  0  0  0  0  0  0  0
   -5.1890   -0.8970    0.2110 C   0  0  0  0  0  0  0  0  0  0  0  0
   -5.4190   -1.0620   -1.1760 N   0  0  0  0  0  0  0  0  0  0  0  0
    4.1140    1.0600   -1.6780 N   0  0  0  0  0  0  0  0  0  0  0  0
    5.0000    0.5460   -0.8060 C   0  0  0  0  0  0  0  0  0  0  0  0
    6.2150    0.8900   -0.7820 O   0  0  0  0  0  0  0  0  0  0  0  0
    4.5640   -0.3960    0.0960 C   0  0  0  0  0  0  0  0  0  0  0  0
  1  2  1  0
  2  3  2  0
  2 26  1  0
  3  4  1  0
  4  5  1  0
  5  6  1  0
  5 26  2  0
  6  7  2  0
  7  8  1  0
  7 23  1  0
  8  9  1  0
  9 10  1  0
 10 11  1  0
 11 12  1  0
 12 13  2  0
 12 14  1  0
 14 15  1  0
 15 16  2  0
 15 21  1  0
 16 17  1  0
 17 18  2  0
 18 19  1  0
 19 20  1  0
 19 21  2  0
 21 22  1  0
 23 24  1  0
 24 25  2  0
 24 26  1  0
M  END
