
     RDKit          3D

 26 28  0  0  0  0  0  0  0  0999 V2000
    5.9140    0.4730   -3.3520 N   0  0  0  0  0  0  0  0  0  0  0  0
    6.0760    0.5590   -1.9370 C   0  0  0  0  0  0  0  0  0  0  0  0
    7.0020    1.2030   -1.3950 O   0  0  0  0  0  0  0  0  0  0  0  0
    5.0570   -0.1740   -1.1250 C   0  0  0  0  0  0  0  0  0  0  0  0
    5.4030   -0.0080    0.3260 C   0  0  0  0  0  0  0  0  0  0  0  0
    4.4620   -0.6900    1.1890 N   0  0  0  0  0  0  0  0  0  0  0  0
    3.0670   -0.3910    1.2310 C   0  0  0  0  0  0  0  0  0  0  0  0
    2.6140    0.5140    0.4860 O   0  0  0  0  0  0  0  0  0  0  0  0
    2.1810   -1.0770    2.0770 N   0  0  0  0  0  0  0  0  0  0  0  0
    0.7950   -0.7790    2.1140 N   0  0  0  0  0  0  0  0  0  0  0  0
    0.0120   -0.7620    0.9440 C   0  0  0  0  0  0  0  0  0  0  0  0
    0.5870   -1.0200   -0.1430 O   0  0  0  0  0  0  0  0  0  0  0  0
   -1.4530   -0.4530    0.9280 C   0  0  0  0  0  0  0  0  0  0  0  0
   -2.1170   -0.2580    2.0830 C   0  0  0  0  0  0  0  0  0  0  0  0
   -3.4880    0.0460    2.1270 C   0  0  0  0  0  0  0  0  0  0  0  0
   -4.2240    0.2530    3.2060 C   0  0  0  0  0  0  0  0  0  0  0  0
   -5.5950    0.5490    3.0800 C   0  0  0  0  0  0  0  0  0  0  0  0
   -5.7540    0.5060    1.2530 S   0  0  0  0  0  0  0  0  0  0  0  0
   -4.0670    0.1190    0.8660 C   0  0  0  0  0  0  0  0  0  0  0  0
   -3.3730   -0.0840   -0.3040 C   0  0  0  0  0  0  0  0  0  0  0  0
   -4.0680    0.0240   -1.5800 C   0  0  0  0  0  0  0  0  0  0  0  0
   -3.4680   -0.1430   -2.7820 N   0  0  0  0  0  0  0  0  0  0  0  0
   -4.3370    0.0170   -3.7630 C   0  0  0  0  0  0  0  0  0  0  0  0
   -5.5550    0.2990   -3.1900 C   0  0  0  0  0  0  0  0  0  0  0  0
   -5.3490    0.2950   -1.8340 N   0  0  0  0  0  0  0  0  0  0  0  0
   -2.0560   -0.3720   -0.2690 N   0  0  0  0  0  0  0  0  0  0  0  0
  1  2  1  0
  2  3  2  0
  2  4  1  0
  4  5  1  0
  5  6  1  0
  6  7  1  0
  7  8  2  0
  7  9  1  0
  9 10  1  0
 10 11  1  0
 11 12  2  0
 11 13  1  0
 13 14  2  0
 13 26  1  0
 14 15  1  0
 15 16  1  0
 15 19  2  0
 16 17  2  0
 17 18  1  0
 18 19  1  0
 19 20  1  0
 20 21  1  0
 20 26  2  0
 21 22  2  0
 21 25  1  0
 22 23  1  0
 23 24  2  0
 24 25  1  0
M  END
