
     RDKit          3D

 25 26  0  0  0  0  0  0  0  0999 V2000
   -6.5920    1.5010   -2.3940 C   0  0  0  0  0  0  0  0  0  0  0  0
   -5.5970    1.0260   -1.4510 N   0  0  0  0  0  0  0  0  0  0  0  0
   -5.5020   -0.1600   -0.8400 C   0  0  0  0  0  0  0  0  0  0  0  0
   -4.3790   -0.1620   -0.0200 C   0  0  0  0  0  0  0  0  0  0  0  0
   -3.8340   -1.0890    0.8000 N   0  0  0  0  0  0  0  0  0  0  0  0
   -2.7160   -0.8290    1.4970 C   0  0  0  0  0  0  0  0  0  0  0  0
   -2.0820    0.3980    1.4000 C   0  0  0  0  0  0  0  0  0  0  0  0
   -0.8960    0.6430    2.1520 N   0  0  0  0  0  0  0  0  0  0  0  0
    0.2280    0.1740    1.6570 C   0  0  0  0  0  0  0  0  0  0  0  0
    0.1700   -0.5380    0.4140 C   0  0  0  0  0  0  0  0  0  0  0  0
    1.1760   -1.0690   -0.2200 C   0  0  0  0  0  0  0  0  0  0  0  0
    2.5550   -1.0350    0.2210 C   0  0  0  0  0  0  0  0  0  0  0  0
    2.8300   -0.4750    1.2650 O   0  0  0  0  0  0  0  0  0  0  0  0
    3.5620   -1.6430   -0.5480 N   0  0  0  0  0  0  0  0  0  0  0  0
    4.9190   -1.7530   -0.3780 C   0  0  0  0  0  0  0  0  0  0  0  0
    5.6570   -2.6550   -1.6730 S   0  0  0  0  0  0  0  0  0  0  0  0
    5.8530   -1.3050    0.5000 N   0  0  0  0  0  0  0  0  0  0  0  0
    5.7220   -0.4580    1.6450 C   0  0  0  0  0  0  0  0  0  0  0  0
    5.4290    0.9220    1.1810 C   0  0  0  0  0  0  0  0  0  0  0  0
    5.3220    1.2160   -0.2250 N   0  0  0  0  0  0  0  0  0  0  0  0
    5.2730    1.8400    2.0360 O   0  0  0  0  0  0  0  0  0  0  0  0
   -2.6290    1.3430    0.5700 C   0  0  0  0  0  0  0  0  0  0  0  0
   -2.0750    2.4690    0.4610 O   0  0  0  0  0  0  0  0  0  0  0  0
   -3.7690    1.0630   -0.1340 C   0  0  0  0  0  0  0  0  0  0  0  0
   -4.5630    1.7620   -1.0320 C   0  0  0  0  0  0  0  0  0  0  0  0
  1  2  1  0
  2  3  1  0
  2 25  1  0
  3  4  2  0
  4  5  1  0
  4 24  1  0
  5  6  1  0
  6  7  2  0
  7  8  1  0
  7 22  1  0
  8  9  2  3
  9 10  1  0
 10 11  2  3
 11 12  1  0
 12 13  2  0
 12 14  1  0
 14 15  1  0
 15 16  2  0
 15 17  1  0
 17 18  1  0
 18 19  1  0
 19 20  1  0
 19 21  2  0
 22 23  2  0
 22 24  1  0
 24 25  2  0
M  END
