
     RDKit          3D

 26 28  0  0  0  0  0  0  0  0999 V2000
    6.5810   -2.6820    1.3890 C   0  0  0  0  0  0  0  0  0  0  0  0
    5.4350   -1.8660    0.8870 C   0  0  0  0  0  0  0  0  0  0  0  0
    3.8930   -2.5390    0.2160 S   0  0  0  0  0  0  0  0  0  0  0  0
    3.2210   -0.7960   -0.0790 C   0  0  0  0  0  0  0  0  0  0  0  0
    1.9030   -0.6890   -0.6540 N   0  0  0  0  0  0  0  0  0  0  0  0
    1.3480    0.5830   -0.8950 C   0  0  0  0  0  0  0  0  0  0  0  0
    2.0370    1.5900   -0.5930 O   0  0  0  0  0  0  0  0  0  0  0  0
    0.0600    0.7750   -1.4580 N   0  0  0  0  0  0  0  0  0  0  0  0
   -0.4930    2.0930   -1.6980 C   0  0  0  0  0  0  0  0  0  0  0  0
   -1.8840    1.8890   -2.3080 C   0  0  0  0  0  0  0  0  0  0  0  0
   -2.7440    1.1300   -1.3720 C   0  0  0  0  0  0  0  0  0  0  0  0
   -3.0300   -0.2010   -1.5830 C   0  0  0  0  0  0  0  0  0  0  0  0
   -3.8380   -0.9090   -0.7040 C   0  0  0  0  0  0  0  0  0  0  0  0
   -4.3720   -0.2700    0.4110 C   0  0  0  0  0  0  0  0  0  0  0  0
   -4.0800    1.0270    0.5960 N   0  0  0  0  0  0  0  0  0  0  0  0
   -4.6550    1.6750    1.7780 C   0  0  0  0  0  0  0  0  0  0  0  0
   -3.2920    1.7250   -0.2570 C   0  0  0  0  0  0  0  0  0  0  0  0
   -3.0740    2.9380    0.0010 O   0  0  0  0  0  0  0  0  0  0  0  0
   -5.1580   -1.2110    1.1430 N   0  0  0  0  0  0  0  0  0  0  0  0
   -5.4560   -2.2520    0.2550 N   0  0  0  0  0  0  0  0  0  0  0  0
   -4.3220   -2.3150   -0.6540 C   0  0  0  0  0  0  0  0  0  0  0  0
    4.0730   -0.1690    0.2930 N   0  0  0  0  0  0  0  0  0  0  0  0
    5.2530   -0.5150    0.8070 C   0  0  0  0  0  0  0  0  0  0  0  0
    6.2530    0.4550    1.2420 C   0  0  0  0  0  0  0  0  0  0  0  0
    6.1050    1.8580    1.1780 N   0  0  0  0  0  0  0  0  0  0  0  0
    7.3560    0.0070    1.7200 O   0  0  0  0  0  0  0  0  0  0  0  0
  1  2  1  0
  2  3  1  0
  2 23  2  0
  3  4  1  0
  4  5  1  0
  4 22  2  0
  5  6  1  0
  6  7  2  0
  6  8  1  0
  8  9  1  0
  9 10  1  0
 10 11  1  0
 11 12  2  0
 11 17  1  0
 12 13  1  0
 13 14  2  0
 13 21  1  0
 14 15  1  0
 14 19  1  0
 15 16  1  0
 15 17  1  0
 17 18  2  0
 19 20  1  0
 20 21  1  0
 22 23  1  0
 23 24  1  0
 24 25  1  0
 24 26  2  0
M  END
