
     RDKit          3D

 26 27  0  0  0  0  0  0  0  0999 V2000
   -4.7480    1.5850    1.7210 C   0  0  0  0  0  0  0  0  0  0  0  0
   -5.0690    0.6870    0.5810 C   0  0  0  0  0  0  0  0  0  0  0  0
   -6.2300    0.1000    0.3100 N   0  0  0  0  0  0  0  0  0  0  0  0
   -6.1090   -0.6200   -0.7930 N   0  0  0  0  0  0  0  0  0  0  0  0
   -4.8350   -0.5020   -1.2570 C   0  0  0  0  0  0  0  0  0  0  0  0
   -4.2650   -1.1040   -2.4130 N   0  0  0  0  0  0  0  0  0  0  0  0
   -4.2020    0.3100   -0.3970 N   0  0  0  0  0  0  0  0  0  0  0  0
   -2.8340    0.7460   -0.4500 C   0  0  0  0  0  0  0  0  0  0  0  0
   -1.9170   -0.1610    0.2750 C   0  0  0  0  0  0  0  0  0  0  0  0
   -2.3810   -1.1720    0.8410 O   0  0  0  0  0  0  0  0  0  0  0  0
   -0.5400    0.1000    0.3350 N   0  0  0  0  0  0  0  0  0  0  0  0
    0.0600    1.2780   -0.3130 C   0  0  0  0  0  0  0  0  0  0  0  0
    1.4430    1.4750    0.2760 C   0  0  0  0  0  0  0  0  0  0  0  0
    2.2010    0.1780   -0.0870 C   0  0  0  0  0  0  0  0  0  0  0  0
    3.6670    0.3310   -0.2810 C   0  0  0  0  0  0  0  0  0  0  0  0
    4.0440    1.4190   -0.9450 C   0  0  0  0  0  0  0  0  0  0  0  0
    5.2580    1.9730   -1.3560 C   0  0  0  0  0  0  0  0  0  0  0  0
    6.4380    1.6580   -1.2680 O   0  0  0  0  0  0  0  0  0  0  0  0
    4.6350   -0.4640    0.4390 C   0  0  0  0  0  0  0  0  0  0  0  0
    4.3920   -1.5530    1.3170 N   0  0  0  0  0  0  0  0  0  0  0  0
    6.2460   -0.1050    0.2690 S   0  0  0  0  0  0  0  0  0  0  0  0
    1.6300   -0.9180    0.2900 C   0  0  0  0  0  0  0  0  0  0  0  0
    2.1930   -2.2470   -0.0250 C   0  0  0  0  0  0  0  0  0  0  0  0
    1.6370   -3.4230    0.5210 N   0  0  0  0  0  0  0  0  0  0  0  0
    3.1710   -2.4250   -0.8010 O   0  0  0  0  0  0  0  0  0  0  0  0
    0.3500   -0.8140    1.0600 C   0  0  0  0  0  0  0  0  0  0  0  0
  1  2  1  0
  2  3  2  0
  2  7  1  0
  3  4  1  0
  4  5  2  0
  5  6  1  0
  5  7  1  0
  7  8  1  0
  8  9  1  0
  9 10  2  0
  9 11  1  0
 11 12  1  0
 11 26  1  0
 12 13  1  0
 13 14  1  0
 14 15  1  0
 14 22  2  0
 15 16  2  3
 15 19  1  0
 16 17  1  0
 17 18  2  0
 19 20  1  0
 19 21  2  0
 22 23  1  0
 22 26  1  0
 23 24  1  0
 23 25  2  0
M  END
