
     RDKit          3D

 26 28  0  0  0  0  0  0  0  0999 V2000
    7.5160   -0.4780    0.3990 N   0  0  0  0  0  0  0  0  0  0  0  0
    6.1860   -0.3620   -0.0660 C   0  0  0  0  0  0  0  0  0  0  0  0
    5.6420   -1.3730   -0.5600 O   0  0  0  0  0  0  0  0  0  0  0  0
    5.4590    0.8960    0.0230 C   0  0  0  0  0  0  0  0  0  0  0  0
    4.1290    0.8560   -0.4870 N   0  0  0  0  0  0  0  0  0  0  0  0
    3.1300   -0.0340    0.0590 C   0  0  0  0  0  0  0  0  0  0  0  0
    3.5210   -0.7470    0.9910 O   0  0  0  0  0  0  0  0  0  0  0  0
    1.8100   -0.0550   -0.4670 N   0  0  0  0  0  0  0  0  0  0  0  0
    0.7670   -0.8730   -0.0170 C   0  0  0  0  0  0  0  0  0  0  0  0
    0.8990   -1.7710    1.0200 C   0  0  0  0  0  0  0  0  0  0  0  0
   -0.1900   -2.5320    1.3910 C   0  0  0  0  0  0  0  0  0  0  0  0
   -1.4030   -2.4330    0.7700 C   0  0  0  0  0  0  0  0  0  0  0  0
   -1.5220   -1.5680   -0.2260 N   0  0  0  0  0  0  0  0  0  0  0  0
   -0.4830   -0.7880   -0.6380 C   0  0  0  0  0  0  0  0  0  0  0  0
   -0.7140    0.0980   -1.7120 N   0  0  0  0  0  0  0  0  0  0  0  0
   -2.0270    0.1590   -2.3260 C   0  0  0  0  0  0  0  0  0  0  0  0
   -3.0560    0.5930   -1.3450 C   0  0  0  0  0  0  0  0  0  0  0  0
   -3.8380   -0.2690   -0.6940 N   0  0  0  0  0  0  0  0  0  0  0  0
   -4.7980    0.1300    0.2210 C   0  0  0  0  0  0  0  0  0  0  0  0
   -5.6380   -0.7910    0.9210 C   0  0  0  0  0  0  0  0  0  0  0  0
   -6.6380    0.2610    1.9230 S   0  0  0  0  0  0  0  0  0  0  0  0
   -5.9010    1.8620    1.3690 C   0  0  0  0  0  0  0  0  0  0  0  0
   -4.9690    1.4100    0.4770 C   0  0  0  0  0  0  0  0  0  0  0  0
   -4.1250    2.3320   -0.2270 C   0  0  0  0  0  0  0  0  0  0  0  0
   -4.2320    3.5640   -0.0330 O   0  0  0  0  0  0  0  0  0  0  0  0
   -3.2110    1.9190   -1.1000 N   0  0  0  0  0  0  0  0  0  0  0  0
  1  2  1  0
  2  3  2  0
  2  4  1  0
  4  5  1  0
  5  6  1  0
  6  7  2  0
  6  8  1  0
  8  9  1  0
  9 10  2  0
  9 14  1  0
 10 11  1  0
 11 12  2  0
 12 13  1  0
 13 14  2  0
 14 15  1  0
 15 16  1  0
 16 17  1  0
 17 18  2  0
 17 26  1  0
 18 19  1  0
 19 20  2  0
 19 23  1  0
 20 21  1  0
 21 22  1  0
 22 23  2  0
 23 24  1  0
 24 25  2  0
 24 26  1  0
M  END
