
     RDKit          3D

 43 46  0  0  0  0  0  0  0  0999 V2000
   -4.2020    6.1500   -1.5830 C   0  0  0  0  0  0  0  0  0  0  0  0
   -4.8220    4.9590   -2.0540 O   0  0  0  0  0  0  0  0  0  0  0  0
   -5.5170    4.1340   -1.2090 N   0  0  0  0  0  0  0  0  0  0  0  0
   -4.8390    3.1730   -0.6260 C   0  0  0  0  0  0  0  0  0  0  0  0
   -3.4200    3.0030   -0.8740 C   0  0  0  0  0  0  0  0  0  0  0  0
   -2.6330    2.0850   -0.3430 C   0  0  0  0  0  0  0  0  0  0  0  0
   -3.2270    1.1390    0.5870 C   0  0  0  0  0  0  0  0  0  0  0  0
   -3.0320   -0.1660    0.5830 C   0  0  0  0  0  0  0  0  0  0  0  0
   -2.1970   -0.7930   -0.3580 O   0  0  0  0  0  0  0  0  0  0  0  0
   -1.8630   -2.0810    0.1420 C   0  0  2  0  0  0  0  0  0  0  0  0
   -1.6390   -3.0830   -0.9450 C   0  0  0  0  0  0  0  0  0  0  0  0
   -0.1860   -2.9840   -1.3510 C   0  0  0  0  0  0  0  0  0  0  0  0
    0.6960   -4.0150   -0.7370 C   0  0  0  0  0  0  0  0  0  0  0  0
    1.8040   -3.5400    0.0230 N   0  0  0  0  0  0  0  0  0  0  0  0
    1.8860   -2.3820    0.8210 C   0  0  0  0  0  0  0  0  0  0  0  0
    2.2150   -2.5980    2.0590 O   0  0  0  0  0  0  0  0  0  0  0  0
    1.6700   -1.0900    0.4770 O   0  0  0  0  0  0  0  0  0  0  0  0
    2.3470   -0.2340   -0.3820 C   0  0  1  0  0  0  0  0  0  0  0  0
    1.5070    0.4070   -1.2380 O   0  0  0  0  0  0  0  0  0  0  0  0
    1.0520    1.6470   -0.9390 C   0  0  2  0  0  0  0  0  0  0  0  0
    2.1000    2.6560   -0.5340 C   0  0  0  0  0  0  0  0  0  0  0  0
    3.4240    1.9400   -0.3820 C   0  0  0  0  0  0  0  0  0  0  0  0
    3.2350    0.6600    0.4460 C   0  0  2  0  0  0  0  0  0  0  0  0
    4.5400    0.1250    0.6740 N   0  0  0  0  0  0  0  0  0  0  0  0
    5.1330    0.0000    1.9870 C   0  0  0  0  0  0  0  0  0  0  0  0
    6.5430   -0.4500    1.8540 C   0  0  0  0  0  0  0  0  0  0  0  0
    6.7090   -0.6750    0.4390 N   0  0  0  0  0  0  0  0  0  0  0  0
    7.8960   -1.1290   -0.1970 C   0  0  0  0  0  0  0  0  0  0  0  0
    8.5180   -0.4470   -1.1040 N   0  0  0  0  0  0  0  0  0  0  0  0
    5.5030   -0.3740   -0.2430 C   0  0  0  0  0  0  0  0  0  0  0  0
    5.3010   -0.5190   -1.4570 O   0  0  0  0  0  0  0  0  0  0  0  0
   -0.1640    1.6920   -0.0270 C   0  0  0  0  0  0  0  0  0  0  0  0
   -1.3250    2.0540   -0.6770 O   0  0  0  0  0  0  0  0  0  0  0  0
   -2.9790   -2.4750    0.9470 N   0  0  0  0  0  0  0  0  0  0  0  0
   -3.4100   -3.8260    1.1940 C   0  0  0  0  0  0  0  0  0  0  0  0
   -4.3280   -4.2200    0.2220 O   0  0  0  0  0  0  0  0  0  0  0  0
   -4.6870   -5.4460    0.4880 O   0  0  0  0  0  0  0  0  0  0  0  0
   -3.5380   -1.2560    1.4260 C   0  0  0  0  0  0  0  0  0  0  0  0
   -4.3210   -1.1970    2.4070 O   0  0  0  0  0  0  0  0  0  0  0  0
   -5.6040    2.3770    0.2140 O   0  0  0  0  0  0  0  0  0  0  0  0
   -6.9590    2.5960    0.4050 C   0  0  0  0  0  0  0  0  0  0  0  0
   -7.5380    3.5470   -0.1950 O   0  0  0  0  0  0  0  0  0  0  0  0
   -7.7260    1.7880    1.2550 O   0  0  0  0  0  0  0  0  0  0  0  0
  1  2  1  0
  2  3  1  0
  3  4  2  3
  4  5  1  0
  4 40  1  0
  5  6  2  3
  6  7  1  0
  6 33  1  0
  7  8  2  0
  8  9  1  0
  8 38  1  0
  9 10  1  0
 10 11  1  6
 10 34  1  0
 11 12  1  0
 12 13  1  0
 13 14  1  0
 14 15  1  0
 15 16  2  0
 15 17  1  0
 18 17  1  1
 18 19  1  0
 18 23  1  0
 19 20  1  0
 20 21  1  1
 20 32  1  0
 21 22  1  0
 22 23  1  0
 23 24  1  6
 24 25  1  0
 24 30  1  0
 25 26  1  0
 26 27  1  0
 27 28  1  0
 27 30  1  0
 28 29  2  0
 30 31  2  0
 32 33  1  0
 34 35  1  0
 34 38  1  0
 35 36  1  0
 36 37  1  0
 38 39  2  0
 40 41  1  0
 41 42  2  0
 41 43  1  0
M  END
