
     RDKit          3D

 44 48  0  0  0  0  0  0  0  0999 V2000
   -6.6900   -3.5150    0.5380 N   0  0  0  0  0  0  0  0  0  0  0  0
   -8.0330   -3.0280    0.4460 C   0  0  0  0  0  0  0  0  0  0  0  0
   -8.9600   -3.8600    0.5510 O   0  0  0  0  0  0  0  0  0  0  0  0
   -8.3250   -1.6180    0.2370 C   0  0  0  0  0  0  0  0  0  0  0  0
   -9.6450   -1.2350    0.1600 C   0  0  0  0  0  0  0  0  0  0  0  0
   -9.9360    0.0900   -0.0360 C   0  0  0  0  0  0  0  0  0  0  0  0
   -8.8970    1.0030   -0.1500 C   0  0  0  0  0  0  0  0  0  0  0  0
   -7.6030    0.6410   -0.0760 N   0  0  0  0  0  0  0  0  0  0  0  0
   -6.6160    1.6640   -0.2070 C   0  0  2  0  0  0  0  0  0  0  0  0
   -5.3260    1.1770   -0.3720 O   0  0  0  0  0  0  0  0  0  0  0  0
   -4.5820    2.3550   -0.3390 C   0  0  2  0  0  0  0  0  0  0  0  0
   -3.1160    2.0830   -0.0850 C   0  0  0  0  0  0  0  0  0  0  0  0
   -2.5780    1.2740   -1.0860 O   0  0  0  0  0  0  0  0  0  0  0  0
   -0.9590    0.9450   -0.8480 P   0  0  1  0  0  0  0  0  0  0  0  0
   -0.8350   -0.5540   -0.5660 O   0  0  0  0  0  0  0  0  0  0  0  0
   -0.0440    1.2210   -2.2570 O   0  0  0  0  0  0  0  0  0  0  0  0
   -0.3030    1.8500    0.3950 O   0  0  0  0  0  0  0  0  0  0  0  0
    0.9200    1.0350    1.2280 P   0  0  1  0  0  0  0  0  0  0  0  0
    1.7410    2.1080    1.9440 O   0  0  0  0  0  0  0  0  0  0  0  0
    0.2160    0.0370    2.3960 O   0  0  0  0  0  0  0  0  0  0  0  0
    1.9270    0.1790    0.1990 O   0  0  0  0  0  0  0  0  0  0  0  0
    3.2450    0.6230    0.2880 C   0  0  0  0  0  0  0  0  0  0  0  0
    4.1170   -0.1740   -0.6550 C   0  0  1  0  0  0  0  0  0  0  0  0
    5.4300    0.2120   -0.6190 O   0  0  0  0  0  0  0  0  0  0  0  0
    6.2070   -0.8370   -1.0740 C   0  0  1  0  0  0  0  0  0  0  0  0
    7.3930   -0.9560   -0.2190 N   0  0  0  0  0  0  0  0  0  0  0  0
    7.3950   -0.9910    1.1200 C   0  0  0  0  0  0  0  0  0  0  0  0
    8.6720   -1.1070    1.5730 N   0  0  0  0  0  0  0  0  0  0  0  0
    9.4820   -1.1440    0.5070 C   0  0  0  0  0  0  0  0  0  0  0  0
   10.8650   -1.2540    0.4010 C   0  0  0  0  0  0  0  0  0  0  0  0
   11.6800   -1.3510    1.5590 N   0  0  0  0  0  0  0  0  0  0  0  0
   11.3750   -1.2630   -0.8430 N   0  0  0  0  0  0  0  0  0  0  0  0
   10.5830   -1.1690   -1.9340 C   0  0  0  0  0  0  0  0  0  0  0  0
    9.2430   -1.0630   -1.8330 N   0  0  0  0  0  0  0  0  0  0  0  0
    8.6770   -1.0500   -0.6100 C   0  0  0  0  0  0  0  0  0  0  0  0
    5.4140   -2.0940   -0.9270 C   0  0  2  0  0  0  0  0  0  0  0  0
    4.9630   -2.5710   -2.1700 O   0  0  0  0  0  0  0  0  0  0  0  0
    4.1870   -1.6150   -0.1780 C   0  0  2  0  0  0  0  0  0  0  0  0
    3.0520   -2.3350   -0.5360 O   0  0  0  0  0  0  0  0  0  0  0  0
   -5.1390    3.1710    0.8080 C   0  0  1  0  0  0  0  0  0  0  0  0
   -5.4400    4.4700    0.4400 O   0  0  0  0  0  0  0  0  0  0  0  0
   -6.4470    2.4610    1.0940 C   0  0  1  0  0  0  0  0  0  0  0  0
   -7.4980    3.3200    1.3090 O   0  0  0  0  0  0  0  0  0  0  0  0
   -7.3390   -0.6640    0.1170 C   0  0  0  0  0  0  0  0  0  0  0  0
  1  2  1  0
  2  3  2  0
  2  4  1  0
  4  5  2  0
  4 44  1  0
  5  6  1  0
  6  7  2  0
  7  8  1  0
  9  8  1  1
  8 44  2  0
  9 10  1  0
  9 42  1  0
 10 11  1  0
 11 12  1  1
 11 40  1  0
 12 13  1  0
 13 14  1  0
 14 15  2  0
 14 16  1  6
 14 17  1  0
 17 18  1  0
 18 19  2  0
 18 20  1  1
 18 21  1  0
 21 22  1  0
 23 22  1  1
 23 24  1  0
 23 38  1  0
 24 25  1  0
 25 26  1  1
 25 36  1  0
 26 27  1  0
 26 35  1  0
 27 28  2  0
 28 29  1  0
 29 30  2  0
 29 35  1  0
 30 31  1  0
 30 32  1  0
 32 33  2  0
 33 34  1  0
 34 35  2  0
 36 37  1  6
 36 38  1  0
 38 39  1  6
 40 41  1  6
 40 42  1  0
 42 43  1  6
M  CHG  2   8   1  16  -1
M  END
