
     RDKit          3D

 43 46  0  0  0  0  0  0  0  0999 V2000
    7.9670    0.4460    0.4150 C   0  0  0  0  0  0  0  0  0  0  0  0
    7.3460   -0.7720    0.0520 O   0  0  0  0  0  0  0  0  0  0  0  0
    6.0230   -1.0520    0.2910 C   0  0  0  0  0  0  0  0  0  0  0  0
    5.5470   -2.2810   -0.1160 C   0  0  0  0  0  0  0  0  0  0  0  0
    4.2280   -2.6300    0.0920 C   0  0  0  0  0  0  0  0  0  0  0  0
    3.3750   -1.7220    0.7230 C   0  0  0  0  0  0  0  0  0  0  0  0
    3.8110   -0.4950    1.1410 C   0  0  0  0  0  0  0  0  0  0  0  0
    2.9140    0.4740    1.8100 C   0  0  0  0  0  0  0  0  0  0  0  0
    2.3210    1.4860    1.0040 C   0  0  2  0  0  0  0  0  0  0  0  0
    1.4530    2.4770    1.8110 C   0  0  0  0  0  0  0  0  0  0  0  0
    0.8950    2.2430    2.8560 N   0  0  0  0  0  0  0  0  0  0  0  0
    0.6640    1.2820    3.8010 C   0  0  0  0  0  0  0  0  0  0  0  0
   -0.0030    0.2080    3.7660 N   0  0  0  0  0  0  0  0  0  0  0  0
   -0.7710   -0.4840    2.8390 C   0  0  0  0  0  0  0  0  0  0  0  0
   -1.2470   -1.6040    3.3480 O   0  0  0  0  0  0  0  0  0  0  0  0
   -1.0030   -0.0870    1.6010 O   0  0  0  0  0  0  0  0  0  0  0  0
   -1.9150    0.3550    0.7220 C   0  0  0  0  0  0  0  0  0  0  0  0
   -2.6480   -0.6120   -0.2000 C   0  0  1  0  0  0  0  0  0  0  0  0
   -3.4370   -1.4700    0.5990 O   0  0  0  0  0  0  0  0  0  0  0  0
   -4.2170   -0.9410    1.5340 C   0  0  0  0  0  0  0  0  0  0  0  0
   -5.3730   -0.0620    1.2250 C   0  0  0  0  0  0  0  0  0  0  0  0
   -6.3810   -0.6370    0.4700 O   0  0  0  0  0  0  0  0  0  0  0  0
   -7.3310    0.2520    0.2770 O   0  0  0  0  0  0  0  0  0  0  0  0
   -7.6740    0.8810    1.3640 O   0  0  0  0  0  0  0  0  0  0  0  0
   -3.5720    0.2130   -0.8860 O   0  0  0  0  0  0  0  0  0  0  0  0
   -4.4110   -0.2940   -1.8430 C   0  0  0  0  0  0  0  0  0  0  0  0
   -4.3850   -1.5030   -2.1270 O   0  0  0  0  0  0  0  0  0  0  0  0
   -5.2960    0.5300   -2.5040 O   0  0  0  0  0  0  0  0  0  0  0  0
   -1.8290   -1.4250   -1.0920 C   0  0  0  0  0  0  0  0  0  0  0  0
   -1.4180   -2.5550   -0.5880 O   0  0  0  0  0  0  0  0  0  0  0  0
   -1.3670   -1.2630   -2.4270 N   0  0  0  0  0  0  0  0  0  0  0  0
   -1.6010   -2.2700   -3.4620 C   0  0  0  0  0  0  0  0  0  0  0  0
   -0.5940   -0.1120   -2.8960 C   0  0  0  0  0  0  0  0  0  0  0  0
   -0.6440    0.1670   -4.1260 O   0  0  0  0  0  0  0  0  0  0  0  0
    0.2520    0.7710   -2.0220 C   0  0  0  0  0  0  0  0  0  0  0  0
    1.0480    0.4140   -1.0330 C   0  0  0  0  0  0  0  0  0  0  0  0
    1.5110    1.4240   -0.1520 N   0  0  0  0  0  0  0  0  0  0  0  0
    1.1390    2.8380   -0.3320 C   0  0  0  0  0  0  0  0  0  0  0  0
    1.5800    3.5180    0.7510 N   0  0  0  0  0  0  0  0  0  0  0  0
    0.3130    3.2500   -1.4020 N   0  0  0  0  0  0  0  0  0  0  0  0
   -0.1330    2.2020   -2.2520 C   0  0  0  0  0  0  0  0  0  0  0  0
   -0.8840    2.5130   -3.2430 O   0  0  0  0  0  0  0  0  0  0  0  0
    5.1510   -0.1830    0.9100 C   0  0  0  0  0  0  0  0  0  0  0  0
  1  2  1  0
  2  3  1  0
  3  4  2  0
  3 43  1  0
  4  5  1  0
  5  6  2  0
  6  7  1  0
  7  8  1  0
  7 43  2  0
  9  8  1  1
  9 10  1  0
  9 37  1  0
 10 11  2  0
 10 39  1  0
 11 12  1  0
 12 13  2  0
 13 14  1  0
 14 15  2  0
 14 16  1  0
 16 17  1  0
 17 18  1  0
 18 19  1  1
 18 25  1  0
 18 29  1  0
 19 20  1  0
 20 21  1  0
 21 22  1  0
 22 23  1  0
 23 24  1  0
 25 26  1  0
 26 27  2  0
 26 28  1  0
 29 30  2  0
 29 31  1  0
 31 32  1  0
 31 33  1  0
 33 34  2  0
 33 35  1  0
 35 36  2  0
 35 41  1  0
 36 37  1  0
 37 38  1  0
 38 39  2  0
 38 40  1  0
 40 41  1  0
 41 42  2  0
M  END
