
     RDKit          3D

 43 45  0  0  0  0  0  0  0  0999 V2000
    4.0430   -3.4310   -3.9690 C   0  0  0  0  0  0  0  0  0  0  0  0
    2.9560   -4.0020   -3.0720 C   0  0  0  0  0  0  0  0  0  0  0  0
    2.6470   -3.1180   -1.9840 N   0  0  0  0  0  0  0  0  0  0  0  0
    3.2520   -3.0790   -0.6680 C   0  0  0  0  0  0  0  0  0  0  0  0
    2.0430   -2.7200    0.1940 C   0  0  0  0  0  0  0  0  0  0  0  0
    1.4390   -1.6680   -0.6190 N   0  0  0  0  0  0  0  0  0  0  0  0
    0.8230   -0.5820   -0.0830 O   0  0  0  0  0  0  0  0  0  0  0  0
    1.4120    0.5190    0.4690 C   0  0  0  0  0  0  0  0  0  0  0  0
    2.6950    0.5020    0.4690 O   0  0  0  0  0  0  0  0  0  0  0  0
    0.7770    1.6480    1.0270 N   0  0  0  0  0  0  0  0  0  0  0  0
    1.6160    2.7150    1.5460 C   0  0  0  0  0  0  0  0  0  0  0  0
    1.4790    2.7160    3.0650 C   0  0  0  0  0  0  0  0  0  0  0  0
    0.0610    2.5360    3.4030 N   0  0  0  0  0  0  0  0  0  0  0  0
   -0.9340    2.5470    2.3970 C   0  0  0  0  0  0  0  0  0  0  0  0
   -2.0460    3.1320    2.5720 O   0  0  0  0  0  0  0  0  0  0  0  0
   -0.6420    1.8510    1.1250 C   0  0  1  0  0  0  0  0  0  0  0  0
   -1.0230    2.8130    0.0420 C   0  0  0  0  0  0  0  0  0  0  0  0
   -2.1000    3.4370    0.0800 O   0  0  0  0  0  0  0  0  0  0  0  0
   -0.1140    2.9880   -1.0340 N   0  0  0  0  0  0  0  0  0  0  0  0
   -0.3240    3.8620   -2.1250 C   0  0  0  0  0  0  0  0  0  0  0  0
    0.4910    3.7200   -3.2480 C   0  0  0  0  0  0  0  0  0  0  0  0
    0.3800    4.5270   -4.3470 C   0  0  0  0  0  0  0  0  0  0  0  0
   -0.5550    5.5280   -4.3920 C   0  0  0  0  0  0  0  0  0  0  0  0
   -1.3800    5.6970   -3.2940 C   0  0  0  0  0  0  0  0  0  0  0  0
   -1.2540    4.8660   -2.1800 C   0  0  0  0  0  0  0  0  0  0  0  0
   -1.4330    0.5960    0.9620 C   0  0  2  0  0  0  0  0  0  0  0  0
   -2.8770    0.9030    1.0720 C   0  0  0  0  0  0  0  0  0  0  0  0
   -3.5320    0.7120    2.1350 O   0  0  0  0  0  0  0  0  0  0  0  0
   -3.5390    1.4150   -0.0160 O   0  0  0  0  0  0  0  0  0  0  0  0
   -4.8940    1.7370   -0.0190 C   0  0  0  0  0  0  0  0  0  0  0  0
   -1.0400   -0.4630    1.9220 C   0  0  0  0  0  0  0  0  0  0  0  0
   -0.1770   -0.2150    2.7830 O   0  0  0  0  0  0  0  0  0  0  0  0
   -1.6120   -1.7110    1.8810 O   0  0  0  0  0  0  0  0  0  0  0  0
   -1.3090   -2.7500    2.7320 C   0  0  0  0  0  0  0  0  0  0  0  0
   -0.4270   -2.5160    3.6180 O   0  0  0  0  0  0  0  0  0  0  0  0
   -1.9450   -4.0610    2.6500 C   0  0  0  0  0  0  0  0  0  0  0  0
   -2.8110   -4.2370    1.7590 O   0  0  0  0  0  0  0  0  0  0  0  0
   -1.6200   -5.1230    3.5330 N   0  0  0  0  0  0  0  0  0  0  0  0
   -2.2350   -6.4030    3.4570 C   0  0  0  0  0  0  0  0  0  0  0  0
   -3.1050   -6.6380    2.5890 O   0  0  0  0  0  0  0  0  0  0  0  0
   -1.8760   -7.4020    4.3470 O   0  0  0  0  0  0  0  0  0  0  0  0
    1.6630   -2.0750   -1.9610 C   0  0  0  0  0  0  0  0  0  0  0  0
    1.0620   -1.5640   -2.9460 O   0  0  0  0  0  0  0  0  0  0  0  0
  1  2  1  0
  2  3  1  0
  3  4  1  0
  3 42  1  0
  4  5  1  0
  5  6  1  0
  6  7  1  0
  6 42  1  0
  7  8  1  0
  8  9  2  0
  8 10  1  0
 10 11  1  0
 10 16  1  0
 11 12  1  0
 12 13  1  0
 13 14  1  0
 14 15  2  0
 14 16  1  0
 16 17  1  6
 16 26  1  0
 17 18  2  0
 17 19  1  0
 19 20  1  0
 20 21  2  0
 20 25  1  0
 21 22  1  0
 22 23  2  0
 23 24  1  0
 24 25  2  0
 26 27  1  1
 26 31  1  0
 27 28  2  0
 27 29  1  0
 29 30  1  0
 31 32  2  0
 31 33  1  0
 33 34  1  0
 34 35  2  0
 34 36  1  0
 36 37  2  0
 36 38  1  0
 38 39  1  0
 39 40  2  0
 39 41  1  0
 42 43  2  0
M  END
