
     RDKit          3D

 19 19  0  0  0  0  0  0  0  0999 V2000
   -3.0110    1.4300   -1.8360 N   0  0  0  0  0  0  0  0  0  0  0  0
   -3.3320    0.4530   -0.8500 C   0  0  0  0  0  0  0  0  0  0  0  0
   -4.6180    0.0040   -0.7890 N   0  0  0  0  0  0  0  0  0  0  0  0
   -4.9870   -0.9110    0.1150 C   0  0  0  0  0  0  0  0  0  0  0  0
   -6.1460   -1.3840    0.2460 O   0  0  0  0  0  0  0  0  0  0  0  0
   -3.9850   -1.3680    0.9780 C   0  0  0  0  0  0  0  0  0  0  0  0
   -4.2920   -2.2280    1.8440 O   0  0  0  0  0  0  0  0  0  0  0  0
   -2.7130   -0.9010    0.8920 N   0  0  0  0  0  0  0  0  0  0  0  0
   -2.3770    0.0110   -0.0220 N   0  0  0  0  0  0  0  0  0  0  0  0
   -1.0580    0.5240   -0.1390 C   0  0  0  0  0  0  0  0  0  0  0  0
   -0.1520    0.1660   -1.4760 S   0  0  0  0  0  0  0  0  0  0  0  0
   -0.3120    1.5580    1.0950 S   0  0  0  0  0  0  0  0  0  0  0  0
    1.2860    2.1890    0.6500 C   0  0  0  0  0  0  0  0  0  0  0  0
    2.3870    1.2140    0.5530 C   0  0  0  0  0  0  0  0  0  0  0  0
    3.2940    1.1740    1.4560 O   0  0  0  0  0  0  0  0  0  0  0  0
    2.5530    0.3050   -0.4500 O   0  0  0  0  0  0  0  0  0  0  0  0
    3.4970   -0.6420   -0.7120 C   0  0  0  0  0  0  0  0  0  0  0  0
    3.7820   -1.7430    0.2330 C   0  0  0  0  0  0  0  0  0  0  0  0
    4.3750   -1.2840    1.8520 S   0  0  0  0  0  0  0  0  0  0  0  0
  1  2  1  0
  2  3  2  0
  2  9  1  0
  3  4  1  0
  4  5  2  0
  4  6  1  0
  6  7  2  0
  6  8  1  0
  8  9  1  0
  9 10  1  0
 10 11  2  0
 10 12  1  0
 12 13  1  0
 13 14  1  0
 14 15  2  0
 14 16  1  0
 16 17  1  0
 17 18  1  0
 18 19  1  0
M  END
