
     RDKit          3D

 18 18  0  0  0  0  0  0  0  0999 V2000
   -6.8130   -0.0090   -0.4090 C   0  0  0  0  0  0  0  0  0  0  0  0
   -5.8640    0.6260    0.3660 O   0  0  0  0  0  0  0  0  0  0  0  0
   -4.8410   -0.2040    0.6650 N   0  0  0  0  0  0  0  0  0  0  0  0
   -3.5920    0.0740    0.0690 C   0  0  0  0  0  0  0  0  0  0  0  0
   -3.4480    1.0680   -0.7240 O   0  0  0  0  0  0  0  0  0  0  0  0
   -2.4210   -0.6940    0.2840 N   0  0  0  0  0  0  0  0  0  0  0  0
   -1.1970   -0.3320   -0.3460 N   0  0  0  0  0  0  0  0  0  0  0  0
   -0.6500    0.9430   -0.1400 C   0  0  0  0  0  0  0  0  0  0  0  0
   -1.2900    1.7220    0.6390 O   0  0  0  0  0  0  0  0  0  0  0  0
    0.5950    1.3730   -0.7900 C   0  0  0  0  0  0  0  0  0  0  0  0
    1.9860    1.5110    0.3180 S   0  0  0  0  0  0  0  0  0  0  0  0
    2.5960   -0.0510    0.9190 C   0  0  0  0  0  0  0  0  0  0  0  0
    3.8660   -0.4090    0.6390 C   0  0  0  0  0  0  0  0  0  0  0  0
    4.7980    0.3720   -0.1220 N   0  0  0  0  0  0  0  0  0  0  0  0
    6.1300    0.0300    0.1030 C   0  0  0  0  0  0  0  0  0  0  0  0
    7.1190    0.8250    0.2430 O   0  0  0  0  0  0  0  0  0  0  0  0
    6.3300   -1.4610    0.1700 C   0  0  0  0  0  0  0  0  0  0  0  0
    4.7760   -1.8770    1.0880 S   0  0  0  0  0  0  0  0  0  0  0  0
  1  2  1  0
  2  3  1  0
  3  4  1  0
  4  5  2  0
  4  6  1  0
  6  7  1  0
  7  8  1  0
  8  9  2  0
  8 10  1  0
 10 11  1  0
 11 12  1  0
 12 13  2  3
 13 14  1  0
 13 18  1  0
 14 15  1  0
 15 16  2  0
 15 17  1  0
 17 18  1  0
M  END
