
     RDKit          3D

 19 20  0  0  0  0  0  0  0  0999 V2000
   -3.2700    0.9480    3.0500 O   0  0  0  0  0  0  0  0  0  0  0  0
   -4.2650    0.4150    2.0650 S   0  0  2  0  0  0  0  0  0  0  0  0
   -4.9790   -0.7790    2.6410 O   0  0  0  0  0  0  0  0  0  0  0  0
   -3.3650   -0.0380    0.6100 C   0  0  0  0  0  0  0  0  0  0  0  0
   -2.0490   -0.4130    0.6900 C   0  0  0  0  0  0  0  0  0  0  0  0
   -1.2890   -0.7800   -0.4210 C   0  0  0  0  0  0  0  0  0  0  0  0
    0.0730   -1.1590   -0.2890 N   0  0  0  0  0  0  0  0  0  0  0  0
    1.2830   -0.5720   -1.3180 S   0  0  2  0  0  0  0  0  0  0  0  0
    0.7710   -0.3500   -2.7160 O   0  0  0  0  0  0  0  0  0  0  0  0
    2.4250   -1.5810   -1.3830 O   0  0  0  0  0  0  0  0  0  0  0  0
    1.9600    0.8710   -0.6870 N   0  0  0  0  0  0  0  0  0  0  0  0
    3.0920    0.9010    0.2010 C   0  0  0  0  0  0  0  0  0  0  0  0
    3.7850    1.6620    0.7970 N   0  0  0  0  0  0  0  0  0  0  0  0
    4.8050    1.3780    1.5740 C   0  0  0  0  0  0  0  0  0  0  0  0
    5.0860    0.0790    1.7020 C   0  0  0  0  0  0  0  0  0  0  0  0
    3.8820   -0.7190    0.7030 S   0  0  0  0  0  0  0  0  0  0  0  0
   -1.9450   -0.7460   -1.6330 C   0  0  0  0  0  0  0  0  0  0  0  0
   -3.2710   -0.3660   -1.6900 C   0  0  0  0  0  0  0  0  0  0  0  0
   -3.9670   -0.0190   -0.5940 N   0  0  0  0  0  0  0  0  0  0  0  0
  1  2  2  0
  2  3  2  0
  2  4  1  6
  4  5  2  0
  4 19  1  0
  5  6  1  0
  6  7  1  0
  6 17  2  0
  8  7  1  1
  8  9  2  0
  8 10  2  0
  8 11  1  0
 11 12  1  0
 12 13  2  0
 12 16  1  0
 13 14  1  0
 14 15  2  0
 15 16  1  0
 17 18  1  0
 18 19  2  0
M  END
