
     RDKit          3D

 19 20  0  0  0  0  0  0  0  0999 V2000
   -0.0330    1.1790    1.1930 O   0  0  0  0  0  0  0  0  0  0  0  0
   -0.2370    0.0220    0.7510 C   0  0  0  0  0  0  0  0  0  0  0  0
    0.8890   -0.8670    0.7940 N   0  0  0  0  0  0  0  0  0  0  0  0
    2.1240   -0.4300    1.3070 N   0  0  0  0  0  0  0  0  0  0  0  0
    3.1230    0.0650    0.4560 C   0  0  0  0  0  0  0  0  0  0  0  0
    3.4670    1.0470   -0.1520 N   0  0  0  0  0  0  0  0  0  0  0  0
    4.5410    1.1310   -0.8630 N   0  0  0  0  0  0  0  0  0  0  0  0
    5.3300    0.3260   -1.0420 C   0  0  0  0  0  0  0  0  0  0  0  0
    6.9150   -0.0590   -1.8890 S   0  0  0  0  0  0  0  0  0  0  0  0
    4.5850   -1.0870   -0.0110 S   0  0  0  0  0  0  0  0  0  0  0  0
   -1.5270   -0.3920    0.2310 C   0  0  0  0  0  0  0  0  0  0  0  0
   -1.9060   -1.6200   -0.2440 C   0  0  0  0  0  0  0  0  0  0  0  0
   -3.2250   -1.5140   -0.6240 C   0  0  0  0  0  0  0  0  0  0  0  0
   -3.6040   -0.2160   -0.3670 C   0  0  0  0  0  0  0  0  0  0  0  0
   -4.9040    0.3920   -0.5970 C   0  0  0  0  0  0  0  0  0  0  0  0
   -5.8150   -0.3180   -1.0820 O   0  0  0  0  0  0  0  0  0  0  0  0
   -5.2750    2.0820   -0.2300 S   0  0  0  0  0  0  0  0  0  0  0  0
   -3.8850    2.8380    0.4230 O   0  0  0  0  0  0  0  0  0  0  0  0
   -2.5760    0.3870    0.1290 O   0  0  0  0  0  0  0  0  0  0  0  0
  1  2  2  0
  2  3  1  0
  2 11  1  0
  3  4  1  0
  4  5  1  0
  5  6  2  0
  5 10  1  0
  6  7  1  0
  7  8  2  0
  8  9  1  0
  8 10  1  0
 11 12  2  0
 11 19  1  0
 12 13  1  0
 13 14  2  0
 14 15  1  0
 14 19  1  0
 15 16  2  0
 15 17  1  0
 17 18  1  0
M  END
