
     RDKit          3D

 11 12  0  0  0  0  0  0  0  0999 V2000
    4.2720   -0.2450   -0.6820 O   0  0  0  0  0  0  0  0  0  0  0  0
    3.1240   -0.1530   -0.1160 C   0  0  0  0  0  0  0  0  0  0  0  0
    1.8200   -0.1370   -0.7970 C   0  0  0  0  0  0  0  0  0  0  0  0
    0.8520   -0.0170    0.3040 C   0  0  0  0  0  0  0  0  0  0  0  0
   -0.6320    0.0410    0.1370 C   0  0  0  0  0  0  0  0  0  0  0  0
   -1.2850   -0.0050   -1.0070 C   0  0  0  0  0  0  0  0  0  0  0  0
   -2.7220    0.0780   -0.7680 C   0  0  0  0  0  0  0  0  0  0  0  0
   -2.8260    0.1820    0.7010 C   0  0  0  0  0  0  0  0  0  0  0  0
   -1.6170    0.1580    1.1890 C   0  0  0  0  0  0  0  0  0  0  0  0
    1.4740    0.0280    1.4210 N   0  0  0  0  0  0  0  0  0  0  0  0
    2.8490   -0.0470    1.2640 N   0  0  0  0  0  0  0  0  0  0  0  0
  1  2  2  0
  2  3  1  0
  2 11  1  0
  3  4  1  0
  4  5  1  0
  4 10  2  0
  5  6  2  0
  5  9  1  0
  6  7  1  0
  7  8  1  0
  8  9  2  0
 10 11  1  0
M  END
