
     RDKit          3D

 19 20  0  0  0  0  0  0  0  0999 V2000
    0.8760   -0.1010   -1.9580 O   0  0  0  0  0  0  0  0  0  0  0  0
    0.6590    0.3550   -0.8180 C   0  0  0  0  0  0  0  0  0  0  0  0
    1.6230    1.0860   -0.1390 N   0  0  0  0  0  0  0  0  0  0  0  0
    2.8960    1.4180   -0.5870 N   0  0  0  0  0  0  0  0  0  0  0  0
    3.9970    0.5330   -0.5840 C   0  0  0  0  0  0  0  0  0  0  0  0
    4.0690   -0.6460   -0.1250 N   0  0  0  0  0  0  0  0  0  0  0  0
    5.2360   -1.3350   -0.2240 N   0  0  0  0  0  0  0  0  0  0  0  0
    6.4390   -0.4690   -0.2290 C   0  0  0  0  0  0  0  0  0  0  0  0
    5.6580    0.8760   -1.2340 S   0  0  0  0  0  0  0  0  0  0  0  0
   -0.6430    0.1080   -0.1910 C   0  0  0  0  0  0  0  0  0  0  0  0
   -1.0920    0.5120    1.0170 C   0  0  0  0  0  0  0  0  0  0  0  0
   -2.3360    0.1800    1.4010 C   0  0  0  0  0  0  0  0  0  0  0  0
   -3.0970   -0.5530    0.5540 C   0  0  0  0  0  0  0  0  0  0  0  0
   -4.4800   -1.0540    0.6910 C   0  0  0  0  0  0  0  0  0  0  0  0
   -5.6640    0.1210    0.0700 S   0  0  1  0  0  0  0  0  0  0  0  0
   -7.0320   -0.4330    0.2750 O   0  0  0  0  0  0  0  0  0  0  0  0
   -5.5290    1.4650    0.7590 O   0  0  0  0  0  0  0  0  0  0  0  0
   -5.4370    0.4120   -1.5590 O   0  0  0  0  0  0  0  0  0  0  0  0
   -2.0020   -0.7970   -0.8700 S   0  0  0  0  0  0  0  0  0  0  0  0
  1  2  2  0
  2  3  1  0
  2 10  1  0
  3  4  1  0
  4  5  1  0
  5  6  2  0
  5  9  1  0
  6  7  1  0
  7  8  1  0
  8  9  1  0
 10 11  2  0
 10 19  1  0
 11 12  1  0
 12 13  2  0
 13 14  1  0
 13 19  1  0
 14 15  1  0
 15 16  2  0
 15 17  2  0
 15 18  1  6
M  END
