
     RDKit          3D

 26 28  0  0  0  0  0  0  0  0999 V2000
   -0.6450    2.7170   -0.5210 C   0  0  0  0  0  0  0  0  0  0  0  0
   -0.2900    1.3260   -0.0420 C   0  0  2  0  0  0  0  0  0  0  0  0
    0.9250    0.9010   -0.5340 O   0  0  0  0  0  0  0  0  0  0  0  0
    1.8480    0.6110    0.4430 C   0  0  0  0  0  0  0  0  0  0  0  0
    3.1080    0.1670   -0.1890 C   0  0  0  0  0  0  0  0  0  0  0  0
    3.2180    0.0960   -1.5520 C   0  0  0  0  0  0  0  0  0  0  0  0
    4.3900   -0.3170   -2.1460 C   0  0  0  0  0  0  0  0  0  0  0  0
    5.4670   -0.6620   -1.3340 C   0  0  0  0  0  0  0  0  0  0  0  0
    6.9500   -1.1840   -2.1040 Cl  0  0  0  0  0  0  0  0  0  0  0  0
    5.3810   -0.5980    0.0340 C   0  0  0  0  0  0  0  0  0  0  0  0
    6.5820   -0.9860    0.8180 C   0  0  0  0  0  0  0  0  0  0  0  0
    6.3150   -0.8600    2.2580 N   0  0  0  0  0  0  0  0  0  0  0  0
    4.2010   -0.1830    0.6100 C   0  0  0  0  0  0  0  0  0  0  0  0
   -1.3800    0.3570   -0.3950 C   0  0  0  0  0  0  0  0  0  0  0  0
   -1.0450   -0.6250   -1.0820 O   0  0  0  0  0  0  0  0  0  0  0  0
   -2.7060    0.5430    0.0240 N   0  0  0  0  0  0  0  0  0  0  0  0
   -3.1200    1.6020    0.9360 C   0  0  0  0  0  0  0  0  0  0  0  0
   -3.7860    0.9500    2.1120 C   0  0  0  0  0  0  0  0  0  0  0  0
   -4.8940    0.0160    1.7920 C   0  0  0  0  0  0  0  0  0  0  0  0
   -4.7990   -0.5960    0.4560 C   0  0  0  0  0  0  0  0  0  0  0  0
   -5.7880   -1.4510    0.0320 C   0  0  0  0  0  0  0  0  0  0  0  0
   -5.7320   -2.0160   -1.1790 N   0  0  0  0  0  0  0  0  0  0  0  0
   -4.7200   -1.7770   -2.0250 C   0  0  0  0  0  0  0  0  0  0  0  0
   -4.6270   -2.3580   -3.3170 N   0  0  0  0  0  0  0  0  0  0  0  0
   -3.7010   -0.9220   -1.6390 C   0  0  0  0  0  0  0  0  0  0  0  0
   -3.7420   -0.3370   -0.4070 C   0  0  0  0  0  0  0  0  0  0  0  0
  2  1  1  6
  2  3  1  0
  2 14  1  0
  3  4  1  0
  4  5  1  0
  5  6  2  0
  5 13  1  0
  6  7  1  0
  7  8  2  0
  8  9  1  0
  8 10  1  0
 10 11  1  0
 10 13  2  0
 11 12  1  0
 14 15  2  0
 14 16  1  0
 16 17  1  0
 16 26  1  0
 17 18  1  0
 18 19  1  0
 19 20  1  0
 20 21  2  0
 20 26  1  0
 21 22  1  0
 22 23  2  0
 23 24  1  0
 23 25  1  0
 25 26  2  0
M  CHG  1  12   1
M  END
