
     RDKit          3D

 26 28  0  0  0  0  0  0  0  0999 V2000
    3.9660    0.2400   -2.4820 C   0  0  0  0  0  0  0  0  0  0  0  0
    3.0300    0.4060   -1.4020 N   0  0  0  0  0  0  0  0  0  0  0  0
    1.7430   -0.0790   -1.5820 C   0  0  1  0  0  0  0  0  0  0  0  0
    1.4490   -1.4980   -1.6530 C   0  0  0  0  0  0  0  0  0  0  0  0
    0.1850   -1.8680   -2.1520 C   0  0  0  0  0  0  0  0  0  0  0  0
   -0.1960   -3.1770   -2.2540 C   0  0  0  0  0  0  0  0  0  0  0  0
    0.6340   -4.1690   -1.8790 N   0  0  0  0  0  0  0  0  0  0  0  0
    1.8500   -3.8660   -1.3970 C   0  0  0  0  0  0  0  0  0  0  0  0
    2.2440   -2.5350   -1.2900 C   0  0  0  0  0  0  0  0  0  0  0  0
    3.8170   -2.1980   -0.6790 Cl  0  0  0  0  0  0  0  0  0  0  0  0
    0.6020    0.6940   -1.0380 C   0  0  0  0  0  0  0  0  0  0  0  0
   -0.1290    1.6060   -1.7730 C   0  0  0  0  0  0  0  0  0  0  0  0
    0.2670    1.8190   -3.1210 N   0  0  0  0  0  0  0  0  0  0  0  0
   -1.1720    2.2680   -1.2410 N   0  0  0  0  0  0  0  0  0  0  0  0
   -1.5470    2.0690    0.0270 C   0  0  0  0  0  0  0  0  0  0  0  0
   -2.6150    2.7510    0.5800 C   0  0  0  0  0  0  0  0  0  0  0  0
   -3.0270    2.5770    1.8750 C   0  0  0  0  0  0  0  0  0  0  0  0
   -2.3300    1.6760    2.6430 C   0  0  0  0  0  0  0  0  0  0  0  0
   -2.7090    1.4580    3.9770 O   0  0  0  0  0  0  0  0  0  0  0  0
   -3.7980    2.1580    4.5310 C   0  0  0  0  0  0  0  0  0  0  0  0
   -1.2500    0.9640    2.1430 C   0  0  0  0  0  0  0  0  0  0  0  0
   -0.6270    0.0880    2.9850 O   0  0  0  0  0  0  0  0  0  0  0  0
   -1.1910   -1.2360    3.0610 C   0  0  0  0  0  0  0  0  0  0  0  0
   -0.8650    1.1620    0.8530 C   0  0  0  0  0  0  0  0  0  0  0  0
    0.2110    0.4940    0.2770 C   0  0  0  0  0  0  0  0  0  0  0  0
    1.0240   -0.4150    1.0690 C   0  0  0  0  0  0  0  0  0  0  0  0
  1  2  1  0
  3  2  1  1
  3  4  1  0
  3 11  1  0
  4  5  2  0
  4  9  1  0
  5  6  1  0
  6  7  2  0
  7  8  1  0
  8  9  2  0
  9 10  1  0
 11 12  2  0
 11 25  1  0
 12 13  1  0
 12 14  1  0
 14 15  2  0
 15 16  1  0
 15 24  1  0
 16 17  2  0
 17 18  1  0
 18 19  1  0
 18 21  2  0
 19 20  1  0
 21 22  1  0
 21 24  1  0
 22 23  1  0
 24 25  2  0
 25 26  1  0
M  CHG  1   7   1
M  END
