
     RDKit          3D

 26 28  0  0  0  0  0  0  0  0999 V2000
    6.5360   -0.6390    2.1620 C   0  0  0  0  0  0  0  0  0  0  0  0
    5.5600   -1.5360    1.4980 C   0  0  0  0  0  0  0  0  0  0  0  0
    5.6290   -2.7760    1.6520 O   0  0  0  0  0  0  0  0  0  0  0  0
    4.5120   -0.9750    0.6590 C   0  0  0  0  0  0  0  0  0  0  0  0
    4.4070    0.3840    0.4680 C   0  0  0  0  0  0  0  0  0  0  0  0
    3.3960    0.9060   -0.3390 C   0  0  0  0  0  0  0  0  0  0  0  0
    2.4810    0.1140   -0.9670 C   0  0  0  0  0  0  0  0  0  0  0  0
    1.4460    0.5850   -1.7880 N   0  0  0  0  0  0  0  0  0  0  0  0
    1.2300    1.9360   -2.0620 C   0  0  0  0  0  0  0  0  0  0  0  0
    1.9390    2.8590   -1.6100 O   0  0  0  0  0  0  0  0  0  0  0  0
    0.1020    2.3960   -2.9460 C   0  0  0  0  0  0  0  0  0  0  0  0
   -0.6530    1.2410   -3.3490 N   0  0  0  0  0  0  0  0  0  0  0  0
   -1.4380    0.5660   -2.3770 C   0  0  0  0  0  0  0  0  0  0  0  0
   -2.1300   -0.5890   -2.7130 C   0  0  0  0  0  0  0  0  0  0  0  0
   -2.8810   -1.1960   -1.7310 C   0  0  0  0  0  0  0  0  0  0  0  0
   -2.9520   -0.6790   -0.4450 C   0  0  0  0  0  0  0  0  0  0  0  0
   -2.2620    0.4700   -0.1160 C   0  0  0  0  0  0  0  0  0  0  0  0
   -1.5080    1.0770   -1.1040 C   0  0  0  0  0  0  0  0  0  0  0  0
   -2.3490    0.9810    1.2050 N   0  0  0  0  0  0  0  0  0  0  0  0
   -3.4880    0.7150    2.0700 C   0  0  0  0  0  0  0  0  0  0  0  0
   -4.4640   -0.2170    1.3880 C   0  0  2  0  0  0  0  0  0  0  0  0
   -5.3600   -0.8450    2.3400 N   0  0  0  0  0  0  0  0  0  0  0  0
   -3.7540   -1.3140    0.6320 C   0  0  0  0  0  0  0  0  0  0  0  0
    2.6290   -1.2620   -0.7410 C   0  0  0  0  0  0  0  0  0  0  0  0
    1.4930   -2.3350   -1.5120 Cl  0  0  0  0  0  0  0  0  0  0  0  0
    3.6050   -1.8020    0.0410 C   0  0  0  0  0  0  0  0  0  0  0  0
  1  2  1  0
  2  3  2  0
  2  4  1  0
  4  5  2  0
  4 26  1  0
  5  6  1  0
  6  7  2  0
  7  8  1  0
  7 24  1  0
  8  9  1  0
  9 10  2  0
  9 11  1  0
 11 12  1  0
 12 13  1  0
 13 14  2  0
 13 18  1  0
 14 15  1  0
 15 16  2  0
 16 17  1  0
 16 23  1  0
 17 18  2  0
 17 19  1  0
 19 20  1  0
 20 21  1  0
 21 22  1  1
 21 23  1  0
 24 25  1  0
 24 26  2  0
M  CHG  1  22   1
M  END
