
     RDKit          3D

 26 28  0  0  0  0  0  0  0  0999 V2000
    7.7140    0.8930   -1.4010 C   0  0  0  0  0  0  0  0  0  0  0  0
    6.2640    0.8940   -1.2490 N   0  0  0  0  0  0  0  0  0  0  0  0
    5.5470   -0.2530   -0.7950 C   0  0  0  0  0  0  0  0  0  0  0  0
    6.2050   -1.2730   -0.5270 O   0  0  0  0  0  0  0  0  0  0  0  0
    4.0670   -0.1930   -0.6580 C   0  0  0  0  0  0  0  0  0  0  0  0
    3.6010   -1.5380   -0.1650 C   0  0  0  0  0  0  0  0  0  0  0  0
    2.1950   -1.6320    0.0140 N   0  0  0  0  0  0  0  0  0  0  0  0
    1.6130   -1.2960    1.2640 C   0  0  0  0  0  0  0  0  0  0  0  0
    2.3930   -1.0660    2.2180 O   0  0  0  0  0  0  0  0  0  0  0  0
    0.1410   -1.2160    1.4480 C   0  0  1  0  0  0  0  0  0  0  0  0
   -0.2070    0.2560    1.5730 C   0  0  0  0  0  0  0  0  0  0  0  0
   -1.6510    0.4750    1.7610 C   0  0  0  0  0  0  0  0  0  0  0  0
   -2.2660    0.5250    2.9920 C   0  0  0  0  0  0  0  0  0  0  0  0
   -3.6150    0.7330    3.0610 C   0  0  0  0  0  0  0  0  0  0  0  0
   -4.3560    0.8900    1.9370 N   0  0  0  0  0  0  0  0  0  0  0  0
   -3.8090    0.8500    0.7110 C   0  0  0  0  0  0  0  0  0  0  0  0
   -4.6190    1.0210   -0.5010 C   0  0  0  0  0  0  0  0  0  0  0  0
   -4.2160    1.0040   -1.7590 C   0  0  0  0  0  0  0  0  0  0  0  0
   -5.3630    1.2170   -2.6780 C   0  0  0  0  0  0  0  0  0  0  0  0
   -6.5000    1.3600   -1.7480 C   0  0  0  0  0  0  0  0  0  0  0  0
   -6.0570    1.2450   -0.5070 C   0  0  0  0  0  0  0  0  0  0  0  0
   -2.4490    0.6410    0.6260 C   0  0  0  0  0  0  0  0  0  0  0  0
   -0.5690   -1.8230    0.3440 N   0  0  0  0  0  0  0  0  0  0  0  0
    0.0470   -2.1520   -0.8940 C   0  0  0  0  0  0  0  0  0  0  0  0
    1.3780   -2.0630   -1.0620 C   0  0  0  0  0  0  0  0  0  0  0  0
    2.1270   -2.4710   -2.5960 Cl  0  0  0  0  0  0  0  0  0  0  0  0
  1  2  1  0
  2  3  1  0
  3  4  2  0
  3  5  1  0
  5  6  1  0
  6  7  1  0
  7  8  1  0
  7 25  1  0
  8  9  2  0
  8 10  1  0
 10 11  1  6
 10 23  1  0
 11 12  1  0
 12 13  2  0
 12 22  1  0
 13 14  1  0
 14 15  2  0
 15 16  1  0
 16 17  1  0
 16 22  2  0
 17 18  2  0
 17 21  1  0
 18 19  1  0
 19 20  1  0
 20 21  2  0
 23 24  1  0
 24 25  2  0
 25 26  1  0
M  CHG  1  15   1
M  END
