
     RDKit          3D

 26 28  0  0  0  0  0  0  0  0999 V2000
   -2.8250   -0.3480    2.5390 C   0  0  0  0  0  0  0  0  0  0  0  0
   -3.9280   -0.2100    1.8900 C   0  0  0  0  0  0  0  0  0  0  0  0
   -5.3270    0.2270    2.9240 Cl  0  0  0  0  0  0  0  0  0  0  0  0
   -4.1460   -0.3540    0.5000 C   0  0  0  0  0  0  0  0  0  0  0  0
   -5.4560   -0.1420    0.1330 C   0  0  0  0  0  0  0  0  0  0  0  0
   -6.1130   -0.1860   -1.1640 C   0  0  0  0  0  0  0  0  0  0  0  0
   -5.5340   -0.1290   -2.3160 N   0  0  0  0  0  0  0  0  0  0  0  0
   -4.1330   -0.0080   -2.6740 C   0  0  0  0  0  0  0  0  0  0  0  0
   -3.3030    0.3550   -1.5790 N   0  0  0  0  0  0  0  0  0  0  0  0
   -3.1820   -0.6800   -0.5430 C   0  0  1  0  0  0  0  0  0  0  0  0
   -1.8160   -1.0060   -0.2600 C   0  0  0  0  0  0  0  0  0  0  0  0
   -1.4250   -2.3010   -0.0130 C   0  0  0  0  0  0  0  0  0  0  0  0
   -0.0680   -2.5420    0.1950 C   0  0  0  0  0  0  0  0  0  0  0  0
    0.8420   -1.5660    0.1610 N   0  0  0  0  0  0  0  0  0  0  0  0
    0.4920   -0.2930   -0.0780 C   0  0  0  0  0  0  0  0  0  0  0  0
    1.4460    0.7520   -0.1170 N   0  0  0  0  0  0  0  0  0  0  0  0
    2.8610    0.5490    0.0950 C   0  0  1  0  0  0  0  0  0  0  0  0
    3.5830    1.8360   -0.0280 C   0  0  0  0  0  0  0  0  0  0  0  0
    2.9790    2.9250   -0.2770 O   0  0  0  0  0  0  0  0  0  0  0  0
    4.9520    1.9150    0.1220 O   0  0  0  0  0  0  0  0  0  0  0  0
    5.6360    3.1430    0.0030 C   0  0  0  0  0  0  0  0  0  0  0  0
    3.1810   -0.0700    1.4070 C   0  0  0  0  0  0  0  0  0  0  0  0
    4.5740   -0.6140    1.2230 C   0  0  0  0  0  0  0  0  0  0  0  0
    4.7380   -0.8490   -0.2390 C   0  0  0  0  0  0  0  0  0  0  0  0
    3.4530   -0.4150   -0.9060 C   0  0  0  0  0  0  0  0  0  0  0  0
   -0.8470   -0.0270   -0.2870 C   0  0  0  0  0  0  0  0  0  0  0  0
  1  2  2  0
  2  3  1  0
  2  4  1  0
  4  5  2  0
  4 10  1  0
  5  6  1  0
  6  7  2  0
  7  8  1  0
  8  9  1  0
  9 10  1  0
 10 11  1  1
 11 12  2  0
 11 26  1  0
 12 13  1  0
 13 14  2  0
 14 15  1  0
 15 16  1  0
 15 26  2  0
 17 16  1  6
 17 18  1  0
 17 22  1  0
 17 25  1  0
 18 19  2  0
 18 20  1  0
 20 21  1  0
 22 23  1  0
 23 24  1  0
 24 25  1  0
M  CHG  1   7   1
M  END
