
     RDKit          3D

 12 13  0  0  0  0  0  0  0  0999 V2000
   -3.7250    1.1240   -0.6370 C   0  0  0  0  0  0  0  0  0  0  0  0
   -3.3440   -0.1760   -0.3020 O   0  0  0  0  0  0  0  0  0  0  0  0
   -1.9890   -0.4570   -0.0990 C   0  0  0  0  0  0  0  0  0  0  0  0
   -1.6050   -1.7410    0.2320 C   0  0  0  0  0  0  0  0  0  0  0  0
   -0.2800   -2.0130    0.4300 C   0  0  0  0  0  0  0  0  0  0  0  0
    0.6670   -1.0260    0.3020 C   0  0  0  0  0  0  0  0  0  0  0  0
    2.0030   -1.0780    0.4510 N   0  0  0  0  0  0  0  0  0  0  0  0
    2.4550    0.1670    0.2130 C   0  0  0  0  0  0  0  0  0  0  0  0
    3.8770    0.6150    0.2570 C   0  0  0  0  0  0  0  0  0  0  0  0
    1.4130    1.0190   -0.0880 C   0  0  0  0  0  0  0  0  0  0  0  0
    0.2700    0.2590   -0.0310 C   0  0  0  0  0  0  0  0  0  0  0  0
   -1.0620    0.5510   -0.2340 C   0  0  0  0  0  0  0  0  0  0  0  0
  1  2  1  0
  2  3  1  0
  3  4  2  0
  3 12  1  0
  4  5  1  0
  5  6  2  0
  6  7  1  0
  6 11  1  0
  7  8  1  0
  8  9  1  0
  8 10  2  0
 10 11  1  0
 11 12  2  0
M  END
