
     RDKit          3D

 26 28  0  0  0  0  0  0  0  0999 V2000
   -6.4910    1.8540   -1.0810 C   0  0  0  0  0  0  0  0  0  0  0  0
   -6.2220    0.6140   -0.2750 N   0  0  2  0  0  0  0  0  0  0  0  0
   -6.4390    0.9890    1.1250 C   0  0  0  0  0  0  0  0  0  0  0  0
   -4.8710    0.2890   -0.5250 C   0  0  0  0  0  0  0  0  0  0  0  0
   -4.1640   -0.5630    0.4680 C   0  0  0  0  0  0  0  0  0  0  0  0
   -4.6640   -1.5380    0.8930 O   0  0  0  0  0  0  0  0  0  0  0  0
   -2.7740   -0.0730    0.8640 C   0  0  0  0  0  0  0  0  0  0  0  0
   -1.8790   -0.4840   -0.1980 N   0  0  0  0  0  0  0  0  0  0  0  0
   -0.5290   -0.7770   -0.0400 C   0  0  0  0  0  0  0  0  0  0  0  0
    0.4170    0.0820   -0.5640 C   0  0  0  0  0  0  0  0  0  0  0  0
    1.7170   -0.1340   -0.4270 N   0  0  0  0  0  0  0  0  0  0  0  0
    2.1170   -1.2240    0.2390 C   0  0  0  0  0  0  0  0  0  0  0  0
    3.4850   -1.3900    0.3640 C   0  0  0  0  0  0  0  0  0  0  0  0
    4.3900   -0.3570   -0.0830 C   0  0  0  0  0  0  0  0  0  0  0  0
    5.6920   -0.4230   -0.0550 C   0  0  0  0  0  0  0  0  0  0  0  0
    6.5480    0.6800   -0.5150 C   0  0  0  0  0  0  0  0  0  0  0  0
    6.0550    1.7940   -0.9720 C   0  0  0  0  0  0  0  0  0  0  0  0
    6.8360    2.8760   -1.4200 N   0  0  0  0  0  0  0  0  0  0  0  0
    4.5590    1.9490   -1.0100 C   0  0  0  0  0  0  0  0  0  0  0  0
    3.8480    0.8340   -0.5930 O   0  0  0  0  0  0  0  0  0  0  0  0
    3.8930   -2.5330    1.0680 C   0  0  0  0  0  0  0  0  0  0  0  0
    3.0290   -3.4490    1.6140 C   0  0  0  0  0  0  0  0  0  0  0  0
    3.5430   -4.8510    2.4740 Cl  0  0  0  0  0  0  0  0  0  0  0  0
    1.6740   -3.2410    1.4670 C   0  0  0  0  0  0  0  0  0  0  0  0
    1.1790   -2.1250    0.7790 C   0  0  0  0  0  0  0  0  0  0  0  0
   -0.1630   -1.9010    0.6450 C   0  0  0  0  0  0  0  0  0  0  0  0
  2  1  1  6
  2  3  1  0
  2  4  1  0
  4  5  1  0
  5  6  2  0
  5  7  1  0
  7  8  1  0
  8  9  1  0
  9 10  2  0
  9 26  1  0
 10 11  1  0
 11 12  2  0
 12 13  1  0
 12 25  1  0
 13 14  1  0
 13 21  2  0
 14 15  2  0
 14 20  1  0
 15 16  1  0
 16 17  2  0
 17 18  1  0
 17 19  1  0
 19 20  1  0
 21 22  1  0
 22 23  1  0
 22 24  2  0
 24 25  1  0
 25 26  2  0
M  CHG  1   2   1
M  END
