
     RDKit          3D

 23 24  0  0  0  0  0  0  0  0999 V2000
   -5.5150    0.6490   -1.6940 C   0  0  0  0  0  0  0  0  0  0  0  0
   -5.4250   -0.2850   -0.7840 C   0  0  0  0  0  0  0  0  0  0  0  0
   -6.4680   -1.2140   -0.6570 O   0  0  0  0  0  0  0  0  0  0  0  0
   -6.4470   -2.2220    0.2720 C   0  0  0  0  0  0  0  0  0  0  0  0
   -5.4230   -2.3500    1.0920 C   0  0  0  0  0  0  0  0  0  0  0  0
   -4.3190   -1.3920    0.9810 C   0  0  0  0  0  0  0  0  0  0  0  0
   -4.2640   -0.4010    0.1190 C   0  0  0  0  0  0  0  0  0  0  0  0
   -3.1910    0.5200    0.0210 N   0  0  0  0  0  0  0  0  0  0  0  0
   -2.0340    0.5120    0.8240 C   0  0  0  0  0  0  0  0  0  0  0  0
   -1.8320   -0.3140    1.7120 O   0  0  0  0  0  0  0  0  0  0  0  0
   -1.0150    1.5740    0.5590 C   0  0  0  0  0  0  0  0  0  0  0  0
    0.1400    1.4120    1.5010 C   0  0  0  0  0  0  0  0  0  0  0  0
    1.2150    2.4220    1.3070 C   0  0  0  0  0  0  0  0  0  0  0  0
    1.8890    2.4090   -0.0310 C   0  0  0  0  0  0  0  0  0  0  0  0
    2.5860    1.1340   -0.3260 C   0  0  0  0  0  0  0  0  0  0  0  0
    1.9920    0.0810   -0.9830 C   0  0  0  0  0  0  0  0  0  0  0  0
    2.6650   -1.1110   -1.2470 C   0  0  0  0  0  0  0  0  0  0  0  0
    2.0390   -2.2530   -1.9520 C   0  0  0  0  0  0  0  0  0  0  0  0
    3.9710   -1.2190   -0.8260 C   0  0  0  0  0  0  0  0  0  0  0  0
    4.6560   -2.3800   -1.0730 O   0  0  0  0  0  0  0  0  0  0  0  0
    4.6100   -0.1890   -0.1630 C   0  0  0  0  0  0  0  0  0  0  0  0
    6.0210   -0.3380    0.2760 C   0  0  0  0  0  0  0  0  0  0  0  0
    3.9040    0.9690    0.0730 C   0  0  0  0  0  0  0  0  0  0  0  0
  1  2  2  0
  2  3  1  0
  2  7  1  0
  3  4  1  0
  4  5  2  0
  5  6  1  0
  6  7  2  0
  7  8  1  0
  8  9  1  0
  9 10  2  0
  9 11  1  0
 11 12  1  0
 12 13  1  0
 13 14  1  0
 14 15  1  0
 15 16  2  0
 15 23  1  0
 16 17  1  0
 17 18  1  0
 17 19  2  0
 19 20  1  0
 19 21  1  0
 21 22  1  0
 21 23  2  0
M  END
