
     RDKit          3D

 23 24  0  0  0  0  0  0  0  0999 V2000
   -6.1050    0.4370   -0.3770 C   0  0  0  0  0  0  0  0  0  0  0  0
   -4.6750    0.8750   -0.3460 C   0  0  0  0  0  0  0  0  0  0  0  0
   -4.3060    2.1550   -0.7260 C   0  0  0  0  0  0  0  0  0  0  0  0
   -2.9720    2.5330   -0.6860 C   0  0  0  0  0  0  0  0  0  0  0  0
   -1.9740    1.6730   -0.2780 C   0  0  0  0  0  0  0  0  0  0  0  0
   -0.5480    2.1310   -0.2540 C   0  0  0  0  0  0  0  0  0  0  0  0
   -2.3440    0.3990    0.0990 C   0  0  0  0  0  0  0  0  0  0  0  0
   -1.3540   -0.4950    0.5180 O   0  0  0  0  0  0  0  0  0  0  0  0
   -0.6890   -1.3480   -0.4070 C   0  0  0  0  0  0  0  0  0  0  0  0
    0.2970   -2.1630    0.3690 C   0  0  0  0  0  0  0  0  0  0  0  0
    1.0380   -3.0550   -0.3710 O   0  0  0  0  0  0  0  0  0  0  0  0
    1.7730   -2.3990   -1.3200 C   0  0  0  0  0  0  0  0  0  0  0  0
    2.7460   -1.4150   -0.7950 C   0  0  0  0  0  0  0  0  0  0  0  0
    3.0600   -0.2780   -1.5320 C   0  0  0  0  0  0  0  0  0  0  0  0
    3.9490    0.6690   -1.1170 C   0  0  0  0  0  0  0  0  0  0  0  0
    4.5880    0.5160    0.0970 C   0  0  0  0  0  0  0  0  0  0  0  0
    5.5510    1.5310    0.5580 C   0  0  0  0  0  0  0  0  0  0  0  0
    6.1790    1.3390    1.7970 N   0  0  0  0  0  0  0  0  0  0  0  0
    5.8170    2.5450   -0.1210 O   0  0  0  0  0  0  0  0  0  0  0  0
    4.3040   -0.5970    0.8580 C   0  0  0  0  0  0  0  0  0  0  0  0
    3.3980   -1.5450    0.4140 C   0  0  0  0  0  0  0  0  0  0  0  0
   -3.6700    0.0210    0.0610 C   0  0  0  0  0  0  0  0  0  0  0  0
   -4.0780   -1.3520    0.4670 C   0  0  0  0  0  0  0  0  0  0  0  0
  1  2  1  0
  2  3  2  0
  2 22  1  0
  3  4  1  0
  4  5  2  0
  5  6  1  0
  5  7  1  0
  7  8  1  0
  7 22  2  0
  8  9  1  0
  9 10  1  0
 10 11  1  0
 11 12  1  0
 12 13  1  0
 13 14  2  0
 13 21  1  0
 14 15  1  0
 15 16  2  0
 16 17  1  0
 16 20  1  0
 17 18  1  0
 17 19  2  0
 20 21  2  0
 22 23  1  0
M  END
