
     RDKit          3D

 22 23  0  0  0  0  0  0  0  0999 V2000
    7.6230    0.0810    0.2630 C   0  0  0  0  0  0  0  0  0  0  0  0
    6.4930    0.8970   -0.3770 C   0  0  0  0  0  0  0  0  0  0  0  0
    5.2900    0.8370    0.4460 C   0  0  0  0  0  0  0  0  0  0  0  0
    5.3840    1.3550    1.8650 C   0  0  0  0  0  0  0  0  0  0  0  0
    4.1360    0.3780    0.0770 C   0  0  0  0  0  0  0  0  0  0  0  0
    3.8660   -0.1690   -1.2810 C   0  0  0  0  0  0  0  0  0  0  0  0
    3.4270   -1.6060   -1.0610 C   0  0  0  0  0  0  0  0  0  0  0  0
    2.2980   -1.6780   -0.3010 O   0  0  0  0  0  0  0  0  0  0  0  0
    1.0200   -1.2860   -0.5000 C   0  0  0  0  0  0  0  0  0  0  0  0
    0.5490   -0.7070   -1.6440 C   0  0  0  0  0  0  0  0  0  0  0  0
   -0.7650   -0.3160   -1.8000 C   0  0  0  0  0  0  0  0  0  0  0  0
   -1.6850   -0.4990   -0.7810 C   0  0  0  0  0  0  0  0  0  0  0  0
   -2.9590   -0.0920   -1.0040 O   0  0  0  0  0  0  0  0  0  0  0  0
   -4.0020   -0.1900   -0.1190 C   0  0  2  0  0  0  0  0  0  0  0  0
   -5.1710   -0.9950   -0.6390 C   0  0  0  0  0  0  0  0  0  0  0  0
   -6.4800   -0.6530   -0.0700 C   0  0  0  0  0  0  0  0  0  0  0  0
   -6.5190    0.1270    1.1850 C   0  0  0  0  0  0  0  0  0  0  0  0
   -5.3590    1.0050    1.4600 C   0  0  0  0  0  0  0  0  0  0  0  0
   -4.5050    1.2150    0.2230 C   0  0  2  0  0  0  0  0  0  0  0  0
   -5.2780    1.7160   -0.8840 N   0  0  0  0  0  0  0  0  0  0  0  0
   -1.2280   -1.0790    0.3710 C   0  0  0  0  0  0  0  0  0  0  0  0
    0.0830   -1.4740    0.5410 C   0  0  0  0  0  0  0  0  0  0  0  0
  1  2  1  0
  2  3  1  0
  3  4  1  0
  3  5  2  3
  5  6  1  0
  6  7  1  0
  7  8  1  0
  8  9  1  0
  9 10  2  0
  9 22  1  0
 10 11  1  0
 11 12  2  0
 12 13  1  0
 12 21  1  0
 14 13  1  6
 14 15  1  0
 14 19  1  0
 15 16  1  0
 16 17  1  0
 17 18  1  0
 18 19  1  0
 19 20  1  6
 21 22  2  0
M  END
