
     RDKit          3D

 11 11  0  0  0  0  0  0  0  0999 V2000
   -2.5910   -1.6490    0.1250 C   0  0  0  0  0  0  0  0  0  0  0  0
   -1.2770   -1.1530   -0.3460 C   0  0  0  0  0  0  0  0  0  0  0  0
   -0.8420    0.0550   -0.0260 C   0  0  0  0  0  0  0  0  0  0  0  0
   -1.5080    1.0910    0.8000 C   0  0  0  0  0  0  0  0  0  0  0  0
   -0.5810    2.1960    0.8120 N   0  0  0  0  0  0  0  0  0  0  0  0
    0.4840    1.9490    0.1320 C   0  0  0  0  0  0  0  0  0  0  0  0
    0.3960    0.6410   -0.4180 N   0  0  0  0  0  0  0  0  0  0  0  0
    1.3940    0.0150   -1.2460 C   0  0  0  0  0  0  0  0  0  0  0  0
    2.6260   -0.2790   -0.5020 C   0  0  0  0  0  0  0  0  0  0  0  0
    2.6940    0.0660    0.8650 N   0  0  0  0  0  0  0  0  0  0  0  0
    3.6000   -0.8240   -1.0600 O   0  0  0  0  0  0  0  0  0  0  0  0
  1  2  1  0
  2  3  2  3
  3  4  1  0
  3  7  1  0
  4  5  1  0
  5  6  2  0
  6  7  1  0
  7  8  1  0
  8  9  1  0
  9 10  1  0
  9 11  2  0
M  END
