
     RDKit          3D

 34 37  0  0  0  0  0  0  0  0999 V2000
   -7.9740    1.5070   -0.9980 C   0  0  0  0  0  0  0  0  0  0  0  0
   -6.7450    1.4430   -0.1550 C   0  0  0  0  0  0  0  0  0  0  0  0
   -5.5930    1.1940   -0.9970 N   0  0  0  0  0  0  0  0  0  0  0  0
   -4.3170    1.0930   -0.4320 C   0  0  0  0  0  0  0  0  0  0  0  0
   -4.2460    1.2310    0.8390 O   0  0  0  0  0  0  0  0  0  0  0  0
   -3.1010    0.8460   -1.1860 C   0  0  0  0  0  0  0  0  0  0  0  0
   -2.9790    0.6790   -2.4820 C   0  0  0  0  0  0  0  0  0  0  0  0
   -3.9950    0.7060   -3.4050 O   0  0  0  0  0  0  0  0  0  0  0  0
   -1.5510    0.4500   -2.8210 C   0  0  0  0  0  0  0  0  0  0  0  0
   -0.6830    0.2130   -3.8190 N   0  0  0  0  0  0  0  0  0  0  0  0
    0.5140    0.1080   -3.3240 O   0  0  0  0  0  0  0  0  0  0  0  0
    0.5060    0.2630   -2.0270 C   0  0  0  0  0  0  0  0  0  0  0  0
    1.6650    0.2060   -1.1680 N   0  0  0  0  0  0  0  0  0  0  0  0
    2.9580   -0.0350   -1.7080 C   0  0  0  0  0  0  0  0  0  0  0  0
    3.0110   -0.1910   -2.9570 O   0  0  0  0  0  0  0  0  0  0  0  0
    4.1590   -0.1030   -0.8880 C   0  0  0  0  0  0  0  0  0  0  0  0
    4.1540    0.0590    0.4710 C   0  0  0  0  0  0  0  0  0  0  0  0
    5.3290   -0.0160    1.2120 C   0  0  0  0  0  0  0  0  0  0  0  0
    6.5310   -0.2580    0.5790 C   0  0  0  0  0  0  0  0  0  0  0  0
    7.8100   -0.3520    1.2830 C   0  0  0  0  0  0  0  0  0  0  0  0
    7.7020   -0.1870    2.7090 N   0  0  0  0  0  0  0  0  0  0  0  0
    6.5450   -0.4230   -0.7960 C   0  0  0  0  0  0  0  0  0  0  0  0
    5.3600   -0.3440   -1.5160 C   0  0  0  0  0  0  0  0  0  0  0  0
   -0.8010    0.4850   -1.6650 C   0  0  0  0  0  0  0  0  0  0  0  0
   -1.7260    0.7450   -0.5750 C   0  0  2  0  0  0  0  0  0  0  0  0
   -1.6570   -0.1040    0.5980 C   0  0  0  0  0  0  0  0  0  0  0  0
   -1.1770    0.4400    1.7910 C   0  0  0  0  0  0  0  0  0  0  0  0
   -1.0640   -0.2600    2.9650 C   0  0  0  0  0  0  0  0  0  0  0  0
   -0.5690    0.3550    4.1360 O   0  0  0  0  0  0  0  0  0  0  0  0
   -1.4480   -1.5820    2.9720 C   0  0  0  0  0  0  0  0  0  0  0  0
   -1.9270   -2.1500    1.8100 C   0  0  0  0  0  0  0  0  0  0  0  0
   -2.3170   -3.4590    1.7770 F   0  0  0  0  0  0  0  0  0  0  0  0
   -2.0370   -1.4370    0.6300 C   0  0  0  0  0  0  0  0  0  0  0  0
   -2.5480   -2.0310   -0.6230 C   0  0  0  0  0  0  0  0  0  0  0  0
  1  2  1  0
  2  3  1  0
  3  4  1  0
  4  5  2  0
  4  6  1  0
  6  7  2  0
  6 25  1  0
  7  8  1  0
  7  9  1  0
  9 10  2  0
  9 24  1  0
 10 11  1  0
 11 12  1  0
 12 13  1  0
 12 24  2  0
 13 14  1  0
 14 15  2  0
 14 16  1  0
 16 17  2  0
 16 23  1  0
 17 18  1  0
 18 19  2  0
 19 20  1  0
 19 22  1  0
 20 21  1  0
 22 23  2  0
 24 25  1  0
 25 26  1  1
 26 27  2  0
 26 33  1  0
 27 28  1  0
 28 29  1  0
 28 30  2  0
 30 31  1  0
 31 32  1  0
 31 33  2  0
 33 34  1  0
M  CHG  1  21   1
M  END
