
     RDKit          3D

 34 36  0  0  0  0  0  0  0  0999 V2000
   -5.6610    3.3390    0.9080 C   0  0  0  0  0  0  0  0  0  0  0  0
   -6.3310    2.2450    0.1520 C   0  0  0  0  0  0  0  0  0  0  0  0
   -7.5740    2.3350   -0.3260 C   0  0  0  0  0  0  0  0  0  0  0  0
   -8.3720    3.4050   -0.1910 F   0  0  0  0  0  0  0  0  0  0  0  0
   -7.9270    1.0880   -1.0160 C   0  0  1  0  0  0  0  0  0  0  0  0
   -8.2770    1.3060   -2.4090 N   0  0  0  0  0  0  0  0  0  0  0  0
   -6.7120    0.2830   -0.8610 C   0  0  0  0  0  0  0  0  0  0  0  0
   -5.7580    0.9650   -0.1670 C   0  0  0  0  0  0  0  0  0  0  0  0
   -4.5750    0.3410    0.0540 O   0  0  0  0  0  0  0  0  0  0  0  0
   -3.4360    0.6680    0.6720 C   0  0  0  0  0  0  0  0  0  0  0  0
   -3.3490    1.7950    1.2020 O   0  0  0  0  0  0  0  0  0  0  0  0
   -2.2960   -0.2790    0.7320 C   0  0  0  0  0  0  0  0  0  0  0  0
   -2.2870   -1.5380    0.1820 C   0  0  0  0  0  0  0  0  0  0  0  0
   -3.4200   -2.1610   -0.5650 C   0  0  0  0  0  0  0  0  0  0  0  0
   -1.0750   -2.0920    0.4440 N   0  0  0  0  0  0  0  0  0  0  0  0
   -0.3100   -1.2110    1.1520 C   0  0  0  0  0  0  0  0  0  0  0  0
    1.0460   -1.5250    1.5780 C   0  0  0  0  0  0  0  0  0  0  0  0
    1.6800   -0.6550    2.2220 O   0  0  0  0  0  0  0  0  0  0  0  0
    1.6840   -2.7470    1.3100 N   0  0  0  0  0  0  0  0  0  0  0  0
    3.0140   -3.1120    1.7030 C   0  0  0  0  0  0  0  0  0  0  0  0
    4.0610   -2.4770    0.8680 C   0  0  0  0  0  0  0  0  0  0  0  0
    4.6970   -1.3200    1.2500 C   0  0  0  0  0  0  0  0  0  0  0  0
    5.6730   -0.7410    0.4530 C   0  0  0  0  0  0  0  0  0  0  0  0
    6.0620   -1.2750   -0.7520 C   0  0  0  0  0  0  0  0  0  0  0  0
    7.0150   -0.7470   -1.5780 O   0  0  0  0  0  0  0  0  0  0  0  0
    7.7970    0.3750   -1.4890 C   0  0  0  0  0  0  0  0  0  0  0  0
    7.0380    1.6400   -1.4560 C   0  0  0  0  0  0  0  0  0  0  0  0
    7.1370    2.4560   -0.4410 C   0  0  0  0  0  0  0  0  0  0  0  0
    6.4140    3.6800   -0.3880 N   0  0  0  0  0  0  0  0  0  0  0  0
    5.4060   -2.4600   -1.1370 C   0  0  0  0  0  0  0  0  0  0  0  0
    5.7940   -3.0020   -2.3500 O   0  0  0  0  0  0  0  0  0  0  0  0
    4.4420   -3.0210   -0.3370 C   0  0  0  0  0  0  0  0  0  0  0  0
   -1.0720   -0.0800    1.3310 C   0  0  0  0  0  0  0  0  0  0  0  0
   -0.6310    1.1310    2.0500 C   0  0  0  0  0  0  0  0  0  0  0  0
  1  2  1  0
  2  3  2  0
  2  8  1  0
  3  4  1  0
  3  5  1  0
  5  6  1  6
  5  7  1  0
  7  8  2  0
  8  9  1  0
  9 10  1  0
 10 11  2  0
 10 12  1  0
 12 13  2  0
 12 33  1  0
 13 14  1  0
 13 15  1  0
 15 16  1  0
 16 17  1  0
 16 33  2  0
 17 18  2  0
 17 19  1  0
 19 20  1  0
 20 21  1  0
 21 22  2  0
 21 32  1  0
 22 23  1  0
 23 24  2  0
 24 25  1  0
 24 30  1  0
 25 26  1  0
 26 27  1  0
 27 28  2  3
 28 29  1  0
 30 31  1  0
 30 32  2  0
 33 34  1  0
M  CHG  1   6   1
M  END
