
     RDKit          3D

 34 36  0  0  0  0  0  0  0  0999 V2000
   -9.2080    1.3270   -1.3720 C   0  0  0  0  0  0  0  0  0  0  0  0
   -7.7850    1.1930   -0.8950 C   0  0  1  0  0  0  0  0  0  0  0  0
   -7.7520    1.5700    0.5060 N   0  0  0  0  0  0  0  0  0  0  0  0
   -7.3060   -0.2570   -1.0530 C   0  0  0  0  0  0  0  0  0  0  0  0
   -5.9100   -0.3930   -0.5870 C   0  0  0  0  0  0  0  0  0  0  0  0
   -5.5460   -0.9610    0.6060 C   0  0  0  0  0  0  0  0  0  0  0  0
   -4.2170   -1.0770    1.0230 C   0  0  0  0  0  0  0  0  0  0  0  0
   -3.2410   -0.6020    0.2040 C   0  0  0  0  0  0  0  0  0  0  0  0
   -1.8410   -0.6250    0.4760 N   0  0  0  0  0  0  0  0  0  0  0  0
   -1.2190   -0.9740    1.6760 C   0  0  0  0  0  0  0  0  0  0  0  0
   -1.9630   -1.3110    2.6520 O   0  0  0  0  0  0  0  0  0  0  0  0
    0.2340   -0.9930    1.9380 C   0  0  0  0  0  0  0  0  0  0  0  0
    1.0710   -0.6630    1.0030 C   0  0  0  0  0  0  0  0  0  0  0  0
    2.5150   -0.6090    1.0330 C   0  0  0  0  0  0  0  0  0  0  0  0
    3.2090   -0.2360   -0.0560 C   0  0  0  0  0  0  0  0  0  0  0  0
    2.5360    0.1030   -1.2260 O   0  0  0  0  0  0  0  0  0  0  0  0
    3.2560    0.4870   -2.3470 C   0  0  0  0  0  0  0  0  0  0  0  0
    4.5870    0.5410   -2.3310 C   0  0  0  0  0  0  0  0  0  0  0  0
    5.3540    0.2010   -1.1430 C   0  0  0  0  0  0  0  0  0  0  0  0
    6.7420    0.2630   -1.1440 C   0  0  0  0  0  0  0  0  0  0  0  0
    7.5000   -0.0440   -0.0600 C   0  0  0  0  0  0  0  0  0  0  0  0
    8.9040    0.0240   -0.0160 N   0  0  0  0  0  0  0  0  0  0  0  0
    9.6910    0.6800   -0.9690 C   0  0  0  0  0  0  0  0  0  0  0  0
   11.1270    0.6470   -0.7740 N   0  0  0  0  0  0  0  0  0  0  0  0
    9.2080    1.2720   -1.9470 O   0  0  0  0  0  0  0  0  0  0  0  0
    6.7690   -0.4340    1.0740 C   0  0  0  0  0  0  0  0  0  0  0  0
    5.3990   -0.5020    1.0970 C   0  0  0  0  0  0  0  0  0  0  0  0
    4.6450   -0.1870   -0.0110 C   0  0  0  0  0  0  0  0  0  0  0  0
    0.6720   -1.3890    3.2530 C   0  0  0  0  0  0  0  0  0  0  0  0
    1.8560   -1.4430    3.5830 O   0  0  0  0  0  0  0  0  0  0  0  0
   -0.2720   -1.7290    4.2100 O   0  0  0  0  0  0  0  0  0  0  0  0
   -3.6200   -0.0200   -1.0200 C   0  0  0  0  0  0  0  0  0  0  0  0
   -4.9220    0.0920   -1.4260 C   0  0  0  0  0  0  0  0  0  0  0  0
   -5.2080    0.6650   -2.6200 F   0  0  0  0  0  0  0  0  0  0  0  0
  2  1  1  1
  2  3  1  0
  2  4  1  0
  4  5  1  0
  5  6  2  0
  5 33  1  0
  6  7  1  0
  7  8  2  0
  8  9  1  0
  8 32  1  0
  9 10  1  0
 10 11  2  0
 10 12  1  0
 12 13  2  3
 12 29  1  0
 13 14  1  0
 14 15  2  3
 15 16  1  0
 15 28  1  0
 16 17  1  0
 17 18  2  0
 18 19  1  0
 19 20  2  0
 19 28  1  0
 20 21  1  0
 21 22  1  0
 21 26  2  0
 22 23  1  0
 23 24  1  0
 23 25  2  0
 26 27  1  0
 27 28  2  0
 29 30  2  0
 29 31  1  0
 32 33  2  0
 33 34  1  0
M  CHG  1   3   1
M  END
