
     RDKit          3D

 11 11  0  0  0  0  0  0  0  0999 V2000
   -0.1390   -2.0470    1.1490 N   0  0  0  0  0  0  0  0  0  0  0  0
    0.1390   -1.0900    0.3490 C   0  0  0  0  0  0  0  0  0  0  0  0
    1.3830   -1.0900   -0.3240 N   0  0  0  0  0  0  0  0  0  0  0  0
    2.4470   -0.5390    0.2090 C   0  0  0  0  0  0  0  0  0  0  0  0
    3.7370   -0.5590   -0.5280 C   0  0  0  0  0  0  0  0  0  0  0  0
    3.8790    0.5610   -1.3560 O   0  0  0  0  0  0  0  0  0  0  0  0
   -0.8170   -0.0570    0.1650 N   0  0  0  0  0  0  0  0  0  0  0  0
   -1.6410    0.6090    1.1820 C   0  0  0  0  0  0  0  0  0  0  0  0
   -2.9770    0.8270    0.4800 C   0  0  0  0  0  0  0  0  0  0  0  0
   -2.7310    0.5150   -0.9680 C   0  0  0  0  0  0  0  0  0  0  0  0
   -1.2190    0.6020   -1.0770 C   0  0  0  0  0  0  0  0  0  0  0  0
  1  2  2  0
  2  3  1  0
  2  7  1  0
  3  4  2  3
  4  5  1  0
  5  6  1  0
  7  8  1  0
  7 11  1  0
  8  9  1  0
  9 10  1  0
 10 11  1  0
M  END
