
     RDKit          3D

 34 36  0  0  0  0  0  0  0  0999 V2000
    6.4170   -4.8330   -1.4190 N   0  0  0  0  0  0  0  0  0  0  0  0
    5.5730   -3.7780   -0.9780 C   0  0  0  0  0  0  0  0  0  0  0  0
    5.1930   -2.7610   -1.8270 C   0  0  0  0  0  0  0  0  0  0  0  0
    4.3790   -1.7560   -1.3720 C   0  0  0  0  0  0  0  0  0  0  0  0
    3.8960   -1.7010   -0.0590 C   0  0  0  0  0  0  0  0  0  0  0  0
    3.0590   -0.6270    0.3170 N   0  0  0  0  0  0  0  0  0  0  0  0
    2.5210   -0.3580    1.5770 C   0  0  0  0  0  0  0  0  0  0  0  0
    2.7680   -1.1150    2.5410 O   0  0  0  0  0  0  0  0  0  0  0  0
    1.6400    0.8480    1.7820 C   0  0  0  0  0  0  0  0  0  0  0  0
    1.4960    1.5560    0.5630 O   0  0  0  0  0  0  0  0  0  0  0  0
    0.6990    2.7360    0.5300 C   0  0  0  0  0  0  0  0  0  0  0  0
    1.3150    3.8700    0.6580 C   0  0  0  0  0  0  0  0  0  0  0  0
    0.8470    5.2240    0.6720 C   0  0  0  0  0  0  0  0  0  0  0  0
   -0.3210    5.6260    0.5570 O   0  0  0  0  0  0  0  0  0  0  0  0
    1.8700    6.3270    0.8440 C   0  0  0  0  0  0  0  0  0  0  0  0
    1.2120    7.6090    0.8350 N   0  0  0  0  0  0  0  0  0  0  0  0
   -0.7250    2.5980    0.3600 C   0  0  0  0  0  0  0  0  0  0  0  0
   -1.5070    3.5520    0.3180 O   0  0  0  0  0  0  0  0  0  0  0  0
   -1.3340    1.2960    0.2250 N   0  0  0  0  0  0  0  0  0  0  0  0
   -2.7200    1.1050    0.0560 C   0  0  0  0  0  0  0  0  0  0  0  0
   -3.4680    2.1150    0.0220 O   0  0  0  0  0  0  0  0  0  0  0  0
   -3.2610   -0.2440   -0.0740 C   0  0  0  0  0  0  0  0  0  0  0  0
   -2.5860   -1.3910   -0.0550 C   0  0  0  0  0  0  0  0  0  0  0  0
   -3.5370   -2.4880   -0.2200 C   0  0  0  0  0  0  0  0  0  0  0  0
   -3.4920   -3.7870   -0.2810 C   0  0  0  0  0  0  0  0  0  0  0  0
   -4.6560   -4.6870   -0.4600 C   0  0  0  0  0  0  0  0  0  0  0  0
   -5.9390   -3.9970   -0.5710 C   0  0  0  0  0  0  0  0  0  0  0  0
   -6.0310   -2.6870   -0.5150 C   0  0  0  0  0  0  0  0  0  0  0  0
   -4.8520   -1.8550   -0.3380 C   0  0  0  0  0  0  0  0  0  0  0  0
   -4.6760   -0.5400   -0.2510 C   0  0  0  0  0  0  0  0  0  0  0  0
   -5.7970    0.4300   -0.3300 C   0  0  0  0  0  0  0  0  0  0  0  0
   -5.5350    1.2590   -1.4290 F   0  0  0  0  0  0  0  0  0  0  0  0
    4.2750   -2.7060    0.7690 C   0  0  0  0  0  0  0  0  0  0  0  0
    5.1090   -3.7360    0.3090 C   0  0  0  0  0  0  0  0  0  0  0  0
  1  2  1  0
  2  3  2  0
  2 34  1  0
  3  4  1  0
  4  5  2  0
  5  6  1  0
  5 33  1  0
  6  7  1  0
  7  8  2  0
  7  9  1  0
  9 10  1  0
 10 11  1  0
 11 12  2  3
 11 17  1  0
 12 13  1  0
 13 14  2  0
 13 15  1  0
 15 16  1  0
 17 18  2  0
 17 19  1  0
 19 20  1  0
 20 21  2  0
 20 22  1  0
 22 23  2  0
 22 30  1  0
 23 24  1  0
 24 25  2  0
 24 29  1  0
 25 26  1  0
 26 27  1  0
 27 28  2  0
 28 29  1  0
 29 30  2  0
 30 31  1  0
 31 32  1  0
 33 34  2  0
M  CHG  1  16   1
M  END
