
     RDKit          3D

 34 37  0  0  0  0  0  0  0  0999 V2000
    1.5940   -4.3340   -1.1250 C   0  0  0  0  0  0  0  0  0  0  0  0
    0.5480   -3.7080   -0.2410 C   0  0  2  0  0  0  0  0  0  0  0  0
    0.4370   -4.6950    0.9620 C   0  0  0  0  0  0  0  0  0  0  0  0
   -0.8310   -3.7860   -0.8870 C   0  0  0  0  0  0  0  0  0  0  0  0
   -1.6950   -3.0680    0.0620 C   0  0  0  0  0  0  0  0  0  0  0  0
   -1.3700   -1.8670    0.6130 C   0  0  0  0  0  0  0  0  0  0  0  0
   -2.3900   -1.3840    1.5410 C   0  0  0  0  0  0  0  0  0  0  0  0
   -3.6720   -1.3430    0.8160 N   0  0  0  0  0  0  0  0  0  0  0  0
   -4.0810   -2.7070    0.4920 C   0  0  0  0  0  0  0  0  0  0  0  0
   -2.9360   -3.5650    0.4740 O   0  0  0  0  0  0  0  0  0  0  0  0
   -0.1110   -1.2580    0.1570 C   0  0  2  0  0  0  0  0  0  0  0  0
    0.3670   -0.2250    1.0770 C   0  0  0  0  0  0  0  0  0  0  0  0
   -0.3580    0.9700    1.3880 C   0  0  0  0  0  0  0  0  0  0  0  0
   -1.3800    1.3280    0.7500 O   0  0  0  0  0  0  0  0  0  0  0  0
    0.0140    1.8610    2.4460 N   0  0  0  0  0  0  0  0  0  0  0  0
   -0.7140    3.0640    2.7590 C   0  0  0  0  0  0  0  0  0  0  0  0
   -0.0920    3.8020    3.8640 C   0  0  0  0  0  0  0  0  0  0  0  0
   -0.5760    5.0110    4.3700 N   0  0  0  0  0  0  0  0  0  0  0  0
    0.9630    3.3170    4.4060 O   0  0  0  0  0  0  0  0  0  0  0  0
   -0.1710   -0.7010   -1.2390 C   0  0  0  0  0  0  0  0  0  0  0  0
    0.9780   -0.0740   -1.8410 C   0  0  0  0  0  0  0  0  0  0  0  0
    1.9540   -0.8510   -2.4490 C   0  0  0  0  0  0  0  0  0  0  0  0
    3.0860   -0.2900   -2.9760 C   0  0  0  0  0  0  0  0  0  0  0  0
    4.0360   -1.0640   -3.5640 F   0  0  0  0  0  0  0  0  0  0  0  0
    3.2760    1.0810   -2.9120 C   0  0  0  0  0  0  0  0  0  0  0  0
    2.3490    1.8820   -2.3320 C   0  0  0  0  0  0  0  0  0  0  0  0
    1.1960    1.2840   -1.7960 C   0  0  0  0  0  0  0  0  0  0  0  0
    0.4600    2.3940   -1.2890 O   0  0  0  0  0  0  0  0  0  0  0  0
    0.7030    3.4680   -2.2280 C   0  0  1  0  0  0  0  0  0  0  0  0
    0.2740    4.7350   -1.6890 C   0  0  0  0  0  0  0  0  0  0  0  0
   -0.2560    4.9790   -0.5380 N   0  0  0  0  0  0  0  0  0  0  0  0
    0.4650    5.8560   -2.5510 O   0  0  0  0  0  0  0  0  0  0  0  0
    2.2410    3.3900   -2.1600 C   0  0  0  0  0  0  0  0  0  0  0  0
    0.9400   -2.3780    0.2410 C   0  0  0  0  0  0  0  0  0  0  0  0
  2  1  1  6
  2  3  1  0
  2  4  1  0
  2 34  1  0
  4  5  1  0
  5  6  2  0
  5 10  1  0
  6  7  1  0
  6 11  1  0
  7  8  1  0
  8  9  1  0
  9 10  1  0
 11 12  1  1
 11 20  1  0
 11 34  1  0
 12 13  1  0
 13 14  2  0
 13 15  1  0
 15 16  1  0
 16 17  1  0
 17 18  1  0
 17 19  2  0
 20 21  1  0
 21 22  2  0
 21 27  1  0
 22 23  1  0
 23 24  1  0
 23 25  2  0
 25 26  1  0
 26 27  2  0
 26 33  1  0
 27 28  1  0
 28 29  1  0
 29 30  1  1
 29 33  1  0
 30 31  2  0
 30 32  1  0
M  CHG  1   8   1
M  END
