
     RDKit          3D

 34 37  0  0  0  0  0  0  0  0999 V2000
    8.8460    1.6600    1.6250 C   0  0  0  0  0  0  0  0  0  0  0  0
    8.4290    0.3940    1.1620 O   0  0  0  0  0  0  0  0  0  0  0  0
    7.0760    0.0990    1.1150 C   0  0  0  0  0  0  0  0  0  0  0  0
    6.1440    1.0130    1.5090 C   0  0  0  0  0  0  0  0  0  0  0  0
    4.8010    0.7300    1.4640 C   0  0  0  0  0  0  0  0  0  0  0  0
    4.3110   -0.5200    1.0080 C   0  0  0  0  0  0  0  0  0  0  0  0
    2.8760   -0.6890    0.8910 C   0  0  1  0  0  0  0  0  0  0  0  0
    2.1680    0.2690    1.6830 N   0  0  0  0  0  0  0  0  0  0  0  0
    2.3160   -0.9000   -0.4680 C   0  0  0  0  0  0  0  0  0  0  0  0
    2.9480   -1.4810   -1.3550 O   0  0  0  0  0  0  0  0  0  0  0  0
    1.0010   -0.4280   -0.8010 N   0  0  0  0  0  0  0  0  0  0  0  0
    0.3440   -0.5370   -2.0280 C   0  0  0  0  0  0  0  0  0  0  0  0
    1.1100   -0.6950   -3.1960 C   0  0  0  0  0  0  0  0  0  0  0  0
    0.5100   -0.6930   -4.4540 C   0  0  0  0  0  0  0  0  0  0  0  0
   -0.8460   -0.5340   -4.5290 C   0  0  0  0  0  0  0  0  0  0  0  0
   -1.4600   -0.5260   -5.7290 F   0  0  0  0  0  0  0  0  0  0  0  0
   -1.6330   -0.3780   -3.4070 C   0  0  0  0  0  0  0  0  0  0  0  0
   -1.0190   -0.3820   -2.1420 C   0  0  0  0  0  0  0  0  0  0  0  0
   -1.8480   -0.3160   -0.9460 C   0  0  0  0  0  0  0  0  0  0  0  0
   -1.3330   -0.4640    0.1800 O   0  0  0  0  0  0  0  0  0  0  0  0
   -3.2600   -0.0840   -0.9620 N   0  0  0  0  0  0  0  0  0  0  0  0
   -4.1230   -0.0080    0.1360 C   0  0  0  0  0  0  0  0  0  0  0  0
   -3.8390   -0.1340    1.4620 C   0  0  0  0  0  0  0  0  0  0  0  0
   -4.7730   -0.0430    2.4890 C   0  0  0  0  0  0  0  0  0  0  0  0
   -6.0720    0.1890    2.1640 C   0  0  0  0  0  0  0  0  0  0  0  0
   -7.0480    0.2860    3.2010 N   0  0  0  0  0  0  0  0  0  0  0  0
   -6.4300    0.3260    0.8440 C   0  0  0  0  0  0  0  0  0  0  0  0
   -5.4780    0.2300   -0.1460 C   0  0  0  0  0  0  0  0  0  0  0  0
   -6.1750    0.4150   -1.3410 O   0  0  0  0  0  0  0  0  0  0  0  0
   -7.3990    1.0610   -1.1330 C   0  0  0  0  0  0  0  0  0  0  0  0
   -7.7620    0.5780    0.2610 C   0  0  0  0  0  0  0  0  0  0  0  0
    5.2860   -1.3990    0.6300 C   0  0  0  0  0  0  0  0  0  0  0  0
    4.9820   -2.6560    0.1850 O   0  0  0  0  0  0  0  0  0  0  0  0
    6.6580   -1.1120    0.6730 C   0  0  0  0  0  0  0  0  0  0  0  0
  1  2  1  0
  2  3  1  0
  3  4  2  0
  3 34  1  0
  4  5  1  0
  5  6  2  0
  6  7  1  0
  6 32  1  0
  7  8  1  6
  7  9  1  0
  9 10  2  0
  9 11  1  0
 11 12  1  0
 12 13  2  0
 12 18  1  0
 13 14  1  0
 14 15  2  0
 15 16  1  0
 15 17  1  0
 17 18  2  0
 18 19  1  0
 19 20  2  0
 19 21  1  0
 21 22  1  0
 22 23  2  0
 22 28  1  0
 23 24  1  0
 24 25  2  0
 25 26  1  0
 25 27  1  0
 27 28  2  0
 27 31  1  0
 28 29  1  0
 29 30  1  0
 30 31  1  0
 32 33  1  0
 32 34  2  0
M  CHG  1   8   1
M  END
