
     RDKit          3D

 21 22  0  0  0  0  0  0  0  0999 V2000
    6.2850   -0.2890   -2.1770 O   0  0  0  0  0  0  0  0  0  0  0  0
    5.1860   -0.9460   -1.6140 C   0  0  0  0  0  0  0  0  0  0  0  0
    4.4850   -0.3580   -0.6520 C   0  0  0  0  0  0  0  0  0  0  0  0
    4.6590    0.8710   -0.0680 O   0  0  0  0  0  0  0  0  0  0  0  0
    3.6230    1.1390    0.8880 C   0  0  0  0  0  0  0  0  0  0  0  0
    2.4910    0.2690    0.3480 C   0  0  2  0  0  0  0  0  0  0  0  0
    1.5790   -0.0670    1.2870 O   0  0  0  0  0  0  0  0  0  0  0  0
    0.2740    0.2170    1.1200 C   0  0  0  0  0  0  0  0  0  0  0  0
   -0.4270   -0.3900   -0.0680 C   0  0  2  0  0  0  0  0  0  0  0  0
    0.0960   -0.0150   -1.2840 O   0  0  0  0  0  0  0  0  0  0  0  0
   -1.8730    0.1260    0.0030 C   0  0  1  0  0  0  0  0  0  0  0  0
   -1.7830    1.5110   -0.1240 O   0  0  0  0  0  0  0  0  0  0  0  0
   -3.0330    2.1050    0.1310 C   0  0  2  0  0  0  0  0  0  0  0  0
   -3.3270    1.8330    1.4830 O   0  0  0  0  0  0  0  0  0  0  0  0
   -4.0260    1.4790   -0.8010 C   0  0  0  0  0  0  0  0  0  0  0  0
   -3.4420    0.6120   -1.7090 O   0  0  0  0  0  0  0  0  0  0  0  0
   -2.7150   -0.3980   -1.1060 C   0  0  2  0  0  0  0  0  0  0  0  0
   -3.6910   -1.4600   -0.6390 C   0  0  0  0  0  0  0  0  0  0  0  0
   -3.0050   -2.5170   -0.0150 O   0  0  0  0  0  0  0  0  0  0  0  0
    3.3100   -0.9680    0.0030 C   0  0  1  0  0  0  0  0  0  0  0  0
    2.5620   -1.7820   -0.7970 O   0  0  0  0  0  0  0  0  0  0  0  0
  1  2  1  0
  2  3  2  3
  3  4  1  0
  3 20  1  0
  4  5  1  0
  5  6  1  0
  6  7  1  1
  6 20  1  0
  7  8  1  0
  8  9  1  0
  9 10  1  6
  9 11  1  0
 11 12  1  6
 11 17  1  0
 12 13  1  0
 13 14  1  1
 13 15  1  0
 15 16  1  0
 16 17  1  0
 17 18  1  1
 18 19  1  0
 20 21  1  6
M  END
