
     RDKit          3D

 10 11  0  0  0  0  0  0  0  0999 V2000
    2.9110   -0.1850   -0.2440 C   0  0  0  0  0  0  0  0  0  0  0  0
    3.0400   -0.3510    1.1410 C   0  0  0  0  0  0  0  0  0  0  0  0
    1.3730   -0.2940    1.7100 S   0  0  0  0  0  0  0  0  0  0  0  0
    0.6190   -0.0600    0.1340 C   0  0  0  0  0  0  0  0  0  0  0  0
   -0.8130    0.0740   -0.1310 C   0  0  0  0  0  0  0  0  0  0  0  0
   -1.8240    0.0430    0.8010 C   0  0  0  0  0  0  0  0  0  0  0  0
   -3.0060    0.2040    0.1390 N   0  0  0  0  0  0  0  0  0  0  0  0
   -2.7480    0.3320   -1.1590 C   0  0  0  0  0  0  0  0  0  0  0  0
   -1.4030    0.2520   -1.3190 N   0  0  0  0  0  0  0  0  0  0  0  0
    1.6710   -0.0420   -0.7080 C   0  0  0  0  0  0  0  0  0  0  0  0
  1  2  2  0
  1 10  1  0
  2  3  1  0
  3  4  1  0
  4  5  1  0
  4 10  2  0
  5  6  2  0
  5  9  1  0
  6  7  1  0
  7  8  1  0
  8  9  2  0
M  END
