
     RDKit          3D

 10 11  0  0  0  0  0  0  0  0999 V2000
    3.6440    0.7800    0.3230 N   0  0  0  0  0  0  0  0  0  0  0  0
    2.3710    0.6730    0.2470 C   0  0  0  0  0  0  0  0  0  0  0  0
    1.5990   -0.3880   -0.0190 N   0  0  0  0  0  0  0  0  0  0  0  0
    0.3070   -0.2630   -0.0450 C   0  0  0  0  0  0  0  0  0  0  0  0
   -0.6350   -1.2790   -0.3080 C   0  0  0  0  0  0  0  0  0  0  0  0
   -1.9760   -1.0070   -0.3040 C   0  0  0  0  0  0  0  0  0  0  0  0
   -2.5320    0.2260   -0.0560 C   0  0  0  0  0  0  0  0  0  0  0  0
   -1.6110    1.2350    0.2050 C   0  0  0  0  0  0  0  0  0  0  0  0
   -0.2610    0.9590    0.2000 C   0  0  0  0  0  0  0  0  0  0  0  0
    1.2020    1.9620    0.4820 S   0  0  0  0  0  0  0  0  0  0  0  0
  1  2  2  0
  2  3  1  0
  2 10  1  0
  3  4  1  0
  4  5  2  0
  4  9  1  0
  5  6  1  0
  6  7  2  0
  7  8  1  0
  8  9  2  0
  9 10  1  0
M  END
