
     RDKit          3D

  9 10  0  0  0  0  0  0  0  0999 V2000
    2.7720   -0.2320    0.1970 C   0  0  0  0  0  0  0  0  0  0  0  0
    1.4970    0.4790   -0.0490 C   0  0  0  0  0  0  0  0  0  0  0  0
    1.3680    1.7870   -0.2990 N   0  0  0  0  0  0  0  0  0  0  0  0
    0.0860    2.0630   -0.4660 N   0  0  0  0  0  0  0  0  0  0  0  0
   -0.6270    0.9310   -0.3250 C   0  0  0  0  0  0  0  0  0  0  0  0
    0.2500   -0.0960   -0.0580 C   0  0  0  0  0  0  0  0  0  0  0  0
   -0.5150   -1.3800    0.1080 C   0  0  0  0  0  0  0  0  0  0  0  0
   -1.8580   -0.8130    0.5980 C   0  0  0  0  0  0  0  0  0  0  0  0
   -1.9940    0.3590   -0.3480 C   0  0  0  0  0  0  0  0  0  0  0  0
  1  2  1  0
  2  3  2  0
  2  6  1  0
  3  4  1  0
  4  5  1  0
  5  6  2  0
  5  9  1  0
  6  7  1  0
  7  8  1  0
  8  9  1  0
M  END
