
     RDKit          3D

 10 11  0  0  0  0  0  0  0  0999 V2000
   -3.2200    0.3730   -0.5350 N   0  0  0  0  0  0  0  0  0  0  0  0
   -1.8530    0.1780   -0.1990 C   0  0  0  0  0  0  0  0  0  0  0  0
   -1.4990   -0.5660    0.8900 C   0  0  0  0  0  0  0  0  0  0  0  0
   -0.1820   -0.7670    1.2320 C   0  0  0  0  0  0  0  0  0  0  0  0
    0.8510   -0.2060    0.4630 C   0  0  0  0  0  0  0  0  0  0  0  0
    0.4340    0.5190   -0.6010 C   0  0  0  0  0  0  0  0  0  0  0  0
   -0.8590    0.7410   -0.9730 C   0  0  0  0  0  0  0  0  0  0  0  0
    1.9370    1.1140   -1.4100 S   0  0  0  0  0  0  0  0  0  0  0  0
    3.0490    0.0520   -0.4380 C   0  0  0  0  0  0  0  0  0  0  0  0
    2.2130   -0.3170    0.6790 N   0  0  0  0  0  0  0  0  0  0  0  0
  1  2  1  0
  2  3  2  0
  2  7  1  0
  3  4  1  0
  4  5  2  0
  5  6  1  0
  5 10  1  0
  6  7  2  0
  6  8  1  0
  8  9  1  0
  9 10  1  0
M  END
