
     RDKit          3D

 10 11  0  0  0  0  0  0  0  0999 V2000
    2.6890   -1.1420    0.0300 C   0  0  0  0  0  0  0  0  0  0  0  0
    3.2560    0.0880    0.1200 C   0  0  0  0  0  0  0  0  0  0  0  0
    1.8600    1.1790    0.0660 S   0  0  0  0  0  0  0  0  0  0  0  0
    0.6220   -0.0930   -0.0730 C   0  0  0  0  0  0  0  0  0  0  0  0
   -0.8130    0.1270   -0.1650 C   0  0  0  0  0  0  0  0  0  0  0  0
   -1.7780   -0.7950   -0.2700 N   0  0  0  0  0  0  0  0  0  0  0  0
   -2.9900   -0.1970   -0.3310 C   0  0  0  0  0  0  0  0  0  0  0  0
   -2.7630    1.1610   -0.2600 C   0  0  0  0  0  0  0  0  0  0  0  0
   -1.4350    1.3170   -0.1610 N   0  0  0  0  0  0  0  0  0  0  0  0
    1.3520   -1.2340   -0.0680 C   0  0  0  0  0  0  0  0  0  0  0  0
  1  2  2  0
  1 10  1  0
  2  3  1  0
  3  4  1  0
  4  5  1  0
  4 10  2  0
  5  6  2  0
  5  9  1  0
  6  7  1  0
  7  8  2  0
  8  9  1  0
M  END
