
     RDKit          3D

 28 29  0  0  0  0  0  0  0  0999 V2000
    9.3600   -1.2970   -0.1560 C   0  0  0  0  0  0  0  0  0  0  0  0
    9.2400   -0.0620    0.4360 O   0  0  0  0  0  0  0  0  0  0  0  0
    8.1440   -0.0990    1.3180 C   0  0  0  0  0  0  0  0  0  0  0  0
    6.9630   -0.4360    0.4750 C   0  0  0  0  0  0  0  0  0  0  0  0
    6.3440    0.4960   -0.3150 C   0  0  0  0  0  0  0  0  0  0  0  0
    5.3140   -0.0910   -0.9570 N   0  0  0  0  0  0  0  0  0  0  0  0
    4.4040    0.5340   -1.8940 C   0  0  0  0  0  0  0  0  0  0  0  0
    3.2130    1.1040   -1.1640 C   0  0  0  0  0  0  0  0  0  0  0  0
    2.4260    0.0520   -0.4350 C   0  0  0  0  0  0  0  0  0  0  0  0
    1.2380    0.6530    0.2930 C   0  0  0  0  0  0  0  0  0  0  0  0
    0.3080    1.3630   -0.6650 C   0  0  0  0  0  0  0  0  0  0  0  0
   -0.2620    0.4980   -1.7310 C   0  0  0  0  0  0  0  0  0  0  0  0
   -1.0720   -0.6390   -1.2160 C   0  0  0  0  0  0  0  0  0  0  0  0
   -2.2660   -0.1600   -0.3830 C   0  0  0  0  0  0  0  0  0  0  0  0
   -3.0120   -1.3760    0.0540 C   0  0  0  0  0  0  0  0  0  0  0  0
   -4.1660   -1.1540    0.8410 N   0  0  0  0  0  0  0  0  0  0  0  0
   -3.9830   -0.6530    2.1370 C   0  0  0  0  0  0  0  0  0  0  0  0
   -4.7780    0.5070    2.5860 C   0  0  2  0  0  0  0  0  0  0  0  0
   -5.0480    0.3840    3.9490 O   0  0  0  0  0  0  0  0  0  0  0  0
   -6.0920    0.6920    1.8600 C   0  0  1  0  0  0  0  0  0  0  0  0
   -6.6160    1.9280    2.1700 O   0  0  0  0  0  0  0  0  0  0  0  0
   -5.7330    0.5800    0.3710 C   0  0  2  0  0  0  0  0  0  0  0  0
   -6.7550    1.0190   -0.4390 O   0  0  0  0  0  0  0  0  0  0  0  0
   -5.3780   -0.8740    0.1630 C   0  0  1  0  0  0  0  0  0  0  0  0
   -5.3310   -1.2610   -1.2750 C   0  0  0  0  0  0  0  0  0  0  0  0
   -6.5860   -0.9370   -1.8440 O   0  0  0  0  0  0  0  0  0  0  0  0
    5.3060   -1.3510   -0.5670 N   0  0  0  0  0  0  0  0  0  0  0  0
    6.2970   -1.5720    0.2970 N   0  0  0  0  0  0  0  0  0  0  0  0
  1  2  1  0
  2  3  1  0
  3  4  1  0
  4  5  2  0
  4 28  1  0
  5  6  1  0
  6  7  1  0
  6 27  1  0
  7  8  1  0
  8  9  1  0
  9 10  1  0
 10 11  1  0
 11 12  1  0
 12 13  1  0
 13 14  1  0
 14 15  1  0
 15 16  1  0
 16 17  1  0
 16 24  1  0
 17 18  1  0
 18 19  1  1
 18 20  1  0
 20 21  1  6
 20 22  1  0
 22 23  1  6
 22 24  1  0
 24 25  1  6
 25 26  1  0
 27 28  2  0
M  END
