
     RDKit          3D

 19 20  0  0  0  0  0  0  0  0999 V2000
   -2.7920    1.7250   -0.6340 C   0  0  0  0  0  0  0  0  0  0  0  0
   -3.4690    0.5400   -0.0510 C   0  0  0  0  0  0  0  0  0  0  0  0
   -4.9400    0.6930    0.2220 C   0  0  0  0  0  0  0  0  0  0  0  0
   -2.8340   -0.5900    0.2200 C   0  0  0  0  0  0  0  0  0  0  0  0
   -3.6370   -1.7070    0.8060 C   0  0  0  0  0  0  0  0  0  0  0  0
   -1.4120   -0.7970   -0.0160 C   0  0  0  0  0  0  0  0  0  0  0  0
   -0.9280   -1.9970   -0.4940 C   0  0  0  0  0  0  0  0  0  0  0  0
    0.4620   -1.8790   -0.6120 C   0  0  0  0  0  0  0  0  0  0  0  0
    0.7490   -0.6050   -0.1960 C   0  0  0  0  0  0  0  0  0  0  0  0
    2.0780    0.0030   -0.1350 C   0  0  0  0  0  0  0  0  0  0  0  0
    3.1100   -0.7010   -0.5330 C   0  0  0  0  0  0  0  0  0  0  0  0
    4.5410   -0.3500   -0.5820 C   0  0  0  0  0  0  0  0  0  0  0  0
    5.1420    0.5770    0.1740 C   0  0  0  0  0  0  0  0  0  0  0  0
    6.5000    0.7040   -0.0770 O   0  0  0  0  0  0  0  0  0  0  0  0
    4.5290    1.4170    1.1820 C   0  0  0  0  0  0  0  0  0  0  0  0
    5.3320    2.0050    1.9350 O   0  0  0  0  0  0  0  0  0  0  0  0
    3.1550    1.5900    1.3400 O   0  0  0  0  0  0  0  0  0  0  0  0
    2.1030    1.3990    0.3940 C   0  0  0  0  0  0  0  0  0  0  0  0
   -0.3850   -0.0330    0.1350 O   0  0  0  0  0  0  0  0  0  0  0  0
  1  2  1  0
  2  3  1  0
  2  4  2  3
  4  5  1  0
  4  6  1  0
  6  7  2  0
  6 19  1  0
  7  8  1  0
  8  9  2  0
  9 10  1  0
  9 19  1  0
 10 11  2  0
 10 18  1  0
 11 12  1  0
 12 13  2  0
 13 14  1  0
 13 15  1  0
 15 16  2  0
 15 17  1  0
 17 18  1  0
M  END
