
     RDKit          3D

 18 20  0  0  0  0  0  0  0  0999 V2000
    5.2210    0.8910    0.8420 C   0  0  0  0  0  0  0  0  0  0  0  0
    4.5490    0.2410   -0.2210 O   0  0  0  0  0  0  0  0  0  0  0  0
    3.1620    0.0940   -0.2020 C   0  0  0  0  0  0  0  0  0  0  0  0
    2.4170    0.5760    0.8480 C   0  0  0  0  0  0  0  0  0  0  0  0
    1.0350    0.4200    0.8500 C   0  0  0  0  0  0  0  0  0  0  0  0
    0.3740   -0.2100   -0.1810 C   0  0  0  0  0  0  0  0  0  0  0  0
   -1.0740   -0.3480   -0.1330 C   0  0  0  0  0  0  0  0  0  0  0  0
   -1.6680   -1.4440   -0.7250 C   0  0  0  0  0  0  0  0  0  0  0  0
   -3.0360   -1.6270   -0.7110 C   0  0  0  0  0  0  0  0  0  0  0  0
   -3.8330   -0.6860   -0.0860 C   0  0  0  0  0  0  0  0  0  0  0  0
   -3.2820    0.4320    0.5230 C   0  0  0  0  0  0  0  0  0  0  0  0
   -1.9100    0.5640    0.4780 C   0  0  0  0  0  0  0  0  0  0  0  0
   -4.3100    1.2190    1.0770 O   0  0  0  0  0  0  0  0  0  0  0  0
   -5.5180    0.7660    0.4900 C   0  0  0  0  0  0  0  0  0  0  0  0
   -5.2210   -0.5690    0.1070 O   0  0  0  0  0  0  0  0  0  0  0  0
    1.1300   -0.6880   -1.2270 C   0  0  0  0  0  0  0  0  0  0  0  0
    2.5220   -0.5370   -1.2390 C   0  0  0  0  0  0  0  0  0  0  0  0
    3.2430   -1.0390   -2.3230 O   0  0  0  0  0  0  0  0  0  0  0  0
  1  2  1  0
  2  3  1  0
  3  4  2  0
  3 17  1  0
  4  5  1  0
  5  6  2  0
  6  7  1  0
  6 16  1  0
  7  8  2  0
  7 12  1  0
  8  9  1  0
  9 10  2  0
 10 11  1  0
 10 15  1  0
 11 12  2  0
 11 13  1  0
 13 14  1  0
 14 15  1  0
 16 17  2  0
 17 18  1  0
M  END
