
     RDKit          3D

 19 21  0  0  0  0  0  0  0  0999 V2000
    4.8400    1.1450    1.4490 C   0  0  0  0  0  0  0  0  0  0  0  0
    4.5190    0.1660    0.5000 O   0  0  0  0  0  0  0  0  0  0  0  0
    3.2150   -0.1230    0.1330 C   0  0  0  0  0  0  0  0  0  0  0  0
    2.1960    0.5820    0.7260 C   0  0  0  0  0  0  0  0  0  0  0  0
    0.8730    0.2980    0.3630 C   0  0  0  0  0  0  0  0  0  0  0  0
    0.6160   -0.6680   -0.5680 C   0  0  0  0  0  0  0  0  0  0  0  0
    1.6880   -1.3610   -1.1460 C   0  0  0  0  0  0  0  0  0  0  0  0
    2.9830   -1.1020   -0.8090 C   0  0  0  0  0  0  0  0  0  0  0  0
    4.0780   -1.7620   -1.3540 O   0  0  0  0  0  0  0  0  0  0  0  0
   -0.7370   -1.0230   -1.0010 C   0  0  0  0  0  0  0  0  0  0  0  0
   -1.7970   -0.2490   -0.3460 C   0  0  0  0  0  0  0  0  0  0  0  0
   -3.1350   -0.5120   -0.6910 C   0  0  0  0  0  0  0  0  0  0  0  0
   -4.1680    0.1780   -0.1120 C   0  0  0  0  0  0  0  0  0  0  0  0
   -5.5740   -0.0900   -0.4660 C   0  0  0  0  0  0  0  0  0  0  0  0
   -6.5210    0.5290    0.0510 O   0  0  0  0  0  0  0  0  0  0  0  0
   -3.8480    1.1410    0.8210 C   0  0  0  0  0  0  0  0  0  0  0  0
   -2.5420    1.4100    1.1690 C   0  0  0  0  0  0  0  0  0  0  0  0
   -1.4800    0.7090    0.5830 C   0  0  0  0  0  0  0  0  0  0  0  0
   -0.1780    0.9820    0.9340 O   0  0  0  0  0  0  0  0  0  0  0  0
  1  2  1  0
  2  3  1  0
  3  4  2  0
  3  8  1  0
  4  5  1  0
  5  6  2  0
  5 19  1  0
  6  7  1  0
  6 10  1  0
  7  8  2  0
  8  9  1  0
 10 11  1  0
 11 12  2  0
 11 18  1  0
 12 13  1  0
 13 14  1  0
 13 16  2  0
 14 15  2  0
 16 17  1  0
 17 18  2  0
 18 19  1  0
M  END
