
     RDKit          3D

 19 21  0  0  0  0  0  0  0  0999 V2000
   -2.5890   -0.4290    1.5050 C   0  0  0  0  0  0  0  0  0  0  0  0
   -2.3050   -0.3210    0.0070 C   0  0  1  0  0  0  0  0  0  0  0  0
   -3.2890   -1.1960   -0.6930 C   0  0  0  0  0  0  0  0  0  0  0  0
   -2.4950    1.1220   -0.4120 C   0  0  0  0  0  0  0  0  0  0  0  0
   -1.6760    2.0510    0.4490 C   0  0  0  0  0  0  0  0  0  0  0  0
   -0.2510    1.6310    0.5740 C   0  0  0  0  0  0  0  0  0  0  0  0
    0.0660    0.2890    0.0830 C   0  0  0  0  0  0  0  0  0  0  0  0
   -0.8940   -0.6580   -0.1980 C   0  0  0  0  0  0  0  0  0  0  0  0
   -0.4780   -1.9020   -0.6640 C   0  0  0  0  0  0  0  0  0  0  0  0
   -1.3890   -2.7320   -0.9060 O   0  0  0  0  0  0  0  0  0  0  0  0
    0.7890   -2.1620   -0.8290 O   0  0  0  0  0  0  0  0  0  0  0  0
    1.7180   -1.2780   -0.5690 C   0  0  0  0  0  0  0  0  0  0  0  0
    3.0540   -1.6040   -0.7610 C   0  0  0  0  0  0  0  0  0  0  0  0
    4.0640   -0.7210   -0.5050 C   0  0  0  0  0  0  0  0  0  0  0  0
    5.4000   -1.0340   -0.6930 O   0  0  0  0  0  0  0  0  0  0  0  0
    3.7620    0.5550   -0.0340 C   0  0  0  0  0  0  0  0  0  0  0  0
    4.7920    1.4410    0.2220 O   0  0  0  0  0  0  0  0  0  0  0  0
    2.4350    0.8770    0.1570 C   0  0  0  0  0  0  0  0  0  0  0  0
    1.4160   -0.0050   -0.0990 C   0  0  0  0  0  0  0  0  0  0  0  0
  2  1  1  1
  2  3  1  0
  2  4  1  0
  2  8  1  0
  4  5  1  0
  5  6  1  0
  6  7  1  0
  7  8  2  0
  7 19  1  0
  8  9  1  0
  9 10  2  0
  9 11  1  0
 11 12  1  0
 12 13  2  0
 12 19  1  0
 13 14  1  0
 14 15  1  0
 14 16  2  0
 16 17  1  0
 16 18  1  0
 18 19  2  0
M  END
