
     RDKit          3D

 19 21  0  0  0  0  0  0  0  0999 V2000
    5.6290    0.5480    1.3260 O   0  0  0  0  0  0  0  0  0  0  0  0
    4.4760    0.0670    0.6980 C   0  0  0  0  0  0  0  0  0  0  0  0
    3.6630   -0.8880    1.2820 C   0  0  0  0  0  0  0  0  0  0  0  0
    2.5250   -1.3660    0.6660 C   0  0  0  0  0  0  0  0  0  0  0  0
    2.1700   -0.8850   -0.5760 C   0  0  0  0  0  0  0  0  0  0  0  0
    1.0180   -1.3500   -1.2300 O   0  0  0  0  0  0  0  0  0  0  0  0
   -0.1580   -0.6570   -0.9800 C   0  0  0  0  0  0  0  0  0  0  0  0
   -0.5650    0.4270   -1.7510 C   0  0  0  0  0  0  0  0  0  0  0  0
   -1.7410    1.0900   -1.4710 C   0  0  0  0  0  0  0  0  0  0  0  0
   -2.5270    0.6820   -0.4210 C   0  0  0  0  0  0  0  0  0  0  0  0
   -2.1160   -0.3900    0.3330 C   0  0  0  0  0  0  0  0  0  0  0  0
   -0.9460   -1.0690    0.0750 C   0  0  0  0  0  0  0  0  0  0  0  0
   -2.9340   -0.8510    1.4650 C   0  0  0  0  0  0  0  0  0  0  0  0
   -4.2440   -0.5130    1.4620 O   0  0  0  0  0  0  0  0  0  0  0  0
   -4.7250    0.2190    0.4250 C   0  0  0  0  0  0  0  0  0  0  0  0
   -3.8050    1.3240   -0.0380 C   0  0  0  0  0  0  0  0  0  0  0  0
    2.9640    0.0690   -1.1830 C   0  0  0  0  0  0  0  0  0  0  0  0
    4.0950    0.5280   -0.5440 C   0  0  0  0  0  0  0  0  0  0  0  0
    4.8950    1.4840   -1.1470 O   0  0  0  0  0  0  0  0  0  0  0  0
  1  2  1  0
  2  3  2  0
  2 18  1  0
  3  4  1  0
  4  5  2  0
  5  6  1  0
  5 17  1  0
  6  7  1  0
  7  8  2  0
  7 12  1  0
  8  9  1  0
  9 10  2  0
 10 11  1  0
 10 16  1  0
 11 12  2  0
 11 13  1  0
 13 14  1  0
 14 15  1  0
 15 16  1  0
 17 18  2  0
 18 19  1  0
M  END
