
     RDKit          3D

 19 21  0  0  0  0  0  0  0  0999 V2000
   -0.8300    1.1670   -0.5830 O   0  0  0  0  0  0  0  0  0  0  0  0
   -1.4180    0.1600   -0.0740 C   0  0  0  0  0  0  0  0  0  0  0  0
   -0.6740   -0.7470    0.7820 C   0  0  0  0  0  0  0  0  0  0  0  0
    0.6000   -0.5600    1.0520 C   0  0  0  0  0  0  0  0  0  0  0  0
    1.3630   -1.4840    1.9270 C   0  0  0  0  0  0  0  0  0  0  0  0
    2.7210   -1.4810    1.5500 O   0  0  0  0  0  0  0  0  0  0  0  0
    3.3580   -0.3840    0.9940 C   0  0  0  0  0  0  0  0  0  0  0  0
    4.7350   -0.2560    0.9440 C   0  0  0  0  0  0  0  0  0  0  0  0
    5.3080    0.8730    0.3720 C   0  0  0  0  0  0  0  0  0  0  0  0
    4.5410    1.8870   -0.1580 C   0  0  0  0  0  0  0  0  0  0  0  0
    3.1720    1.7460   -0.1020 C   0  0  0  0  0  0  0  0  0  0  0  0
    2.6080    0.6260    0.4670 C   0  0  0  0  0  0  0  0  0  0  0  0
    1.2320    0.5310    0.4990 O   0  0  0  0  0  0  0  0  0  0  0  0
   -2.8290   -0.0170   -0.3940 C   0  0  0  0  0  0  0  0  0  0  0  0
   -3.5520   -1.0070    0.0610 C   0  0  0  0  0  0  0  0  0  0  0  0
   -4.9690   -1.1510   -0.2840 C   0  0  0  0  0  0  0  0  0  0  0  0
   -5.4740   -0.1520   -1.1290 O   0  0  0  0  0  0  0  0  0  0  0  0
   -4.7440    0.8980   -1.6230 C   0  0  0  0  0  0  0  0  0  0  0  0
   -3.4600    0.9640   -1.2660 C   0  0  0  0  0  0  0  0  0  0  0  0
  1  2  2  0
  2  3  1  0
  2 14  1  0
  3  4  2  3
  4  5  1  0
  4 13  1  0
  5  6  1  0
  6  7  1  0
  7  8  2  0
  7 12  1  0
  8  9  1  0
  9 10  2  0
 10 11  1  0
 11 12  2  0
 12 13  1  0
 14 15  2  0
 14 19  1  0
 15 16  1  0
 16 17  1  0
 17 18  1  0
 18 19  2  0
M  END
