
     RDKit          3D

 19 21  0  0  0  0  0  0  0  0999 V2000
   -1.4690    2.4510   -0.0470 C   0  0  0  0  0  0  0  0  0  0  0  0
   -2.0900    1.1470   -0.1850 C   0  0  0  0  0  0  0  0  0  0  0  0
   -3.5040    1.0780   -0.3250 C   0  0  0  0  0  0  0  0  0  0  0  0
   -4.1880   -0.0920   -0.4580 C   0  0  0  0  0  0  0  0  0  0  0  0
   -3.5060   -1.2700   -0.4610 C   0  0  0  0  0  0  0  0  0  0  0  0
   -2.1410   -1.2650   -0.3290 C   0  0  0  0  0  0  0  0  0  0  0  0
   -1.4380   -2.4450   -0.3290 C   0  0  0  0  0  0  0  0  0  0  0  0
   -2.0850   -3.5160   -0.4530 O   0  0  0  0  0  0  0  0  0  0  0  0
   -0.1540   -2.4860   -0.2080 O   0  0  0  0  0  0  0  0  0  0  0  0
    0.5400   -1.3830   -0.0770 C   0  0  0  0  0  0  0  0  0  0  0  0
    1.9180   -1.4610    0.0510 C   0  0  0  0  0  0  0  0  0  0  0  0
    2.6690   -0.3260    0.1880 C   0  0  0  0  0  0  0  0  0  0  0  0
    4.1380   -0.4460    0.3230 C   0  0  0  0  0  0  0  0  0  0  0  0
    4.4780   -1.7820    0.2790 O   0  0  0  0  0  0  0  0  0  0  0  0
    2.0690    0.8930    0.2000 C   0  0  0  0  0  0  0  0  0  0  0  0
    2.7930    2.0550    0.3360 O   0  0  0  0  0  0  0  0  0  0  0  0
    0.6780    1.0060    0.0730 C   0  0  0  0  0  0  0  0  0  0  0  0
   -0.0630   -0.1240   -0.0630 C   0  0  0  0  0  0  0  0  0  0  0  0
   -1.4430   -0.0560   -0.1920 C   0  0  0  0  0  0  0  0  0  0  0  0
  1  2  1  0
  2  3  2  0
  2 19  1  0
  3  4  1  0
  4  5  2  0
  5  6  1  0
  6  7  1  0
  6 19  2  0
  7  8  2  0
  7  9  1  0
  9 10  1  0
 10 11  2  0
 10 18  1  0
 11 12  1  0
 12 13  1  0
 12 15  2  0
 13 14  1  0
 15 16  1  0
 15 17  1  0
 17 18  2  0
 18 19  1  0
M  END
