
     RDKit          3D

 18 20  0  0  0  0  0  0  0  0999 V2000
    3.5260    1.6460    0.3670 C   0  0  0  0  0  0  0  0  0  0  0  0
    3.4660    0.2810    0.0010 O   0  0  0  0  0  0  0  0  0  0  0  0
    2.2270   -0.3730   -0.1470 C   0  0  0  0  0  0  0  0  0  0  0  0
    1.0450    0.3010    0.0610 C   0  0  0  0  0  0  0  0  0  0  0  0
   -0.1440   -0.3720   -0.0940 C   0  0  0  0  0  0  0  0  0  0  0  0
   -0.1930   -1.7100   -0.4530 C   0  0  0  0  0  0  0  0  0  0  0  0
    1.0030   -2.3600   -0.6550 C   0  0  0  0  0  0  0  0  0  0  0  0
    2.1990   -1.7020   -0.5050 C   0  0  0  0  0  0  0  0  0  0  0  0
    3.3570   -2.4430   -0.7300 O   0  0  0  0  0  0  0  0  0  0  0  0
   -1.4080   -2.3360   -0.5950 C   0  0  0  0  0  0  0  0  0  0  0  0
   -1.3860   -3.5550   -0.9230 O   0  0  0  0  0  0  0  0  0  0  0  0
   -2.5240   -1.6910   -0.3960 O   0  0  0  0  0  0  0  0  0  0  0  0
   -2.5600   -0.4310   -0.0560 C   0  0  0  0  0  0  0  0  0  0  0  0
   -3.7910    0.1640    0.1320 C   0  0  0  0  0  0  0  0  0  0  0  0
   -3.7920    1.4910    0.4890 C   0  0  0  0  0  0  0  0  0  0  0  0
   -2.6330    2.1960    0.6530 C   0  0  0  0  0  0  0  0  0  0  0  0
   -1.4120    1.5790    0.4600 C   0  0  0  0  0  0  0  0  0  0  0  0
   -1.3610    0.2630    0.1040 C   0  0  0  0  0  0  0  0  0  0  0  0
  1  2  1  0
  2  3  1  0
  3  4  2  0
  3  8  1  0
  4  5  1  0
  5  6  2  0
  5 18  1  0
  6  7  1  0
  6 10  1  0
  7  8  2  0
  8  9  1  0
 10 11  2  0
 10 12  1  0
 12 13  1  0
 13 14  2  0
 13 18  1  0
 14 15  1  0
 15 16  2  0
 16 17  1  0
 17 18  2  0
M  END
