
     RDKit          3D

 41 45  0  0  0  0  0  0  0  0999 V2000
    4.6760    1.6530   -0.8050 C   0  0  0  0  0  0  0  0  0  0  0  0
    5.8440    1.7590    0.1010 C   0  0  0  0  0  0  0  0  0  0  0  0
    6.1830    0.4880    0.6850 N   0  0  0  0  0  0  0  0  0  0  0  0
    6.6310   -0.5770   -0.1810 C   0  0  0  0  0  0  0  0  0  0  0  0
    7.9400   -0.3880   -0.8170 C   0  0  0  0  0  0  0  0  0  0  0  0
    8.9800   -1.2050   -0.5690 C   0  0  0  0  0  0  0  0  0  0  0  0
   10.1110   -0.8050   -1.3070 N   0  0  0  0  0  0  0  0  0  0  0  0
    9.6720    0.3140   -2.0390 C   0  0  0  0  0  0  0  0  0  0  0  0
    8.4070    0.5940   -1.7810 C   0  0  0  0  0  0  0  0  0  0  0  0
    6.1810    0.2150    2.0880 C   0  0  0  0  0  0  0  0  0  0  0  0
    7.4290    0.1310    2.7370 C   0  0  0  0  0  0  0  0  0  0  0  0
    7.5590   -0.0790    4.0740 C   0  0  0  0  0  0  0  0  0  0  0  0
    6.4280   -0.2160    4.8360 C   0  0  0  0  0  0  0  0  0  0  0  0
    5.1900   -0.1370    4.2090 C   0  0  0  0  0  0  0  0  0  0  0  0
    5.0460    0.0790    2.8280 C   0  0  0  0  0  0  0  0  0  0  0  0
    3.7940    0.0950    2.1930 N   0  0  0  0  0  0  0  0  0  0  0  0
    2.5410    0.1390    2.8210 C   0  0  0  0  0  0  0  0  0  0  0  0
    2.4540    0.1710    4.0670 O   0  0  0  0  0  0  0  0  0  0  0  0
    1.2860    0.1490    2.0100 C   0  0  0  0  0  0  0  0  0  0  0  0
    0.1190   -0.1580    2.6520 C   0  0  0  0  0  0  0  0  0  0  0  0
   -1.1080   -0.1610    1.9790 C   0  0  0  0  0  0  0  0  0  0  0  0
   -1.1460    0.1550    0.6300 C   0  0  0  0  0  0  0  0  0  0  0  0
   -2.3810    0.1340   -0.0980 N   0  0  0  0  0  0  0  0  0  0  0  0
   -2.7370    0.9510   -1.1550 C   0  0  0  0  0  0  0  0  0  0  0  0
   -1.7860    1.8090   -1.4590 O   0  0  0  0  0  0  0  0  0  0  0  0
   -3.9040    1.0580   -1.9830 C   0  0  0  0  0  0  0  0  0  0  0  0
   -3.7390    1.6850   -3.2520 C   0  0  0  0  0  0  0  0  0  0  0  0
   -4.8250    1.8170   -4.0720 C   0  0  0  0  0  0  0  0  0  0  0  0
   -6.0740    1.3800   -3.7470 C   0  0  0  0  0  0  0  0  0  0  0  0
   -6.2150    0.7700   -2.5050 C   0  0  0  0  0  0  0  0  0  0  0  0
   -5.1490    0.6070   -1.6270 C   0  0  0  0  0  0  0  0  0  0  0  0
   -5.3760   -0.0720   -0.3510 C   0  0  0  0  0  0  0  0  0  0  0  0
   -6.7880   -0.3850   -0.1710 N   0  0  2  0  0  0  0  0  0  0  0  0
   -7.0500   -0.3730    1.3100 C   0  0  0  0  0  0  0  0  0  0  0  0
   -8.4830   -0.7390    1.5010 C   0  0  0  0  0  0  0  0  0  0  0  0
   -9.3190   -0.6800    0.2530 C   0  0  0  0  0  0  0  0  0  0  0  0
   -8.7180   -1.6050   -0.7920 C   0  0  0  0  0  0  0  0  0  0  0  0
   -7.1900   -1.6800   -0.5910 C   0  0  1  0  0  0  0  0  0  0  0  0
   -6.6010   -2.2510   -1.8220 C   0  0  0  0  0  0  0  0  0  0  0  0
    0.0190    0.4590   -0.0020 C   0  0  0  0  0  0  0  0  0  0  0  0
    1.2450    0.4570    0.6920 C   0  0  0  0  0  0  0  0  0  0  0  0
  1  2  1  0
  2  3  1  0
  3  4  1  0
  3 10  1  0
  4  5  1  0
  5  6  2  0
  5  9  1  0
  6  7  1  0
  7  8  1  0
  8  9  2  0
 10 11  2  0
 10 15  1  0
 11 12  1  0
 12 13  2  0
 13 14  1  0
 14 15  2  0
 15 16  1  0
 16 17  1  0
 17 18  2  0
 17 19  1  0
 19 20  2  0
 19 41  1  0
 20 21  1  0
 21 22  2  0
 22 23  1  0
 22 40  1  0
 23 24  1  0
 24 25  2  0
 24 26  1  0
 26 27  2  0
 26 31  1  0
 27 28  1  0
 28 29  2  0
 29 30  1  0
 30 31  2  0
 31 32  1  0
 33 32  1  1
 33 34  1  0
 33 38  1  0
 34 35  1  0
 35 36  1  0
 36 37  1  0
 37 38  1  0
 38 39  1  6
 40 41  2  0
M  CHG  2   7   1  33   1
M  END
