
     RDKit          3D

 41 45  0  0  0  0  0  0  0  0999 V2000
   10.8040   -0.3030    2.8990 C   0  0  0  0  0  0  0  0  0  0  0  0
   11.5200   -0.7550    1.6970 C   0  0  0  0  0  0  0  0  0  0  0  0
   12.8970   -1.0120    1.6840 C   0  0  0  0  0  0  0  0  0  0  0  0
   13.1770   -1.4030    0.3990 C   0  0  0  0  0  0  0  0  0  0  0  0
   12.0450   -1.3860   -0.3200 N   0  0  0  0  0  0  0  0  0  0  0  0
   10.9960   -0.9910    0.4460 C   0  0  0  0  0  0  0  0  0  0  0  0
    9.6400   -0.8800   -0.0620 C   0  0  0  0  0  0  0  0  0  0  0  0
    9.4680   -1.1470   -1.2980 O   0  0  0  0  0  0  0  0  0  0  0  0
    8.4950   -0.5140    0.6460 N   0  0  0  0  0  0  0  0  0  0  0  0
    7.1670   -0.4000    0.1820 C   0  0  0  0  0  0  0  0  0  0  0  0
    6.7210   -0.7610   -1.0430 C   0  0  0  0  0  0  0  0  0  0  0  0
    5.3790   -0.6040   -1.4330 C   0  0  0  0  0  0  0  0  0  0  0  0
    4.4490   -0.0650   -0.5600 C   0  0  0  0  0  0  0  0  0  0  0  0
    3.0600    0.0830   -0.9900 C   0  0  0  0  0  0  0  0  0  0  0  0
    2.7130   -0.4090   -2.1000 O   0  0  0  0  0  0  0  0  0  0  0  0
    2.1140    0.7510   -0.2110 N   0  0  0  0  0  0  0  0  0  0  0  0
    0.7390    0.9650   -0.5180 C   0  0  0  0  0  0  0  0  0  0  0  0
    0.1540    0.7560   -1.7280 C   0  0  0  0  0  0  0  0  0  0  0  0
   -1.2160    0.9760   -1.9420 C   0  0  0  0  0  0  0  0  0  0  0  0
   -2.0310    1.4180   -0.9230 C   0  0  0  0  0  0  0  0  0  0  0  0
   -3.4400    1.6280   -1.2080 C   0  0  2  0  0  0  0  0  0  0  0  0
   -4.3580    1.1150   -0.2370 N   0  0  0  0  0  0  0  0  0  0  0  0
   -5.7400    1.3390   -0.5680 C   0  0  0  0  0  0  0  0  0  0  0  0
   -6.6170    0.1650   -0.2640 C   0  0  0  0  0  0  0  0  0  0  0  0
   -6.6230   -0.2140    1.1150 N   0  0  1  0  0  0  0  0  0  0  0  0
   -7.2920    0.7110    1.9840 C   0  0  0  0  0  0  0  0  0  0  0  0
   -8.6760    0.2970    2.3380 C   0  0  0  0  0  0  0  0  0  0  0  0
   -9.0520   -0.7840    3.0030 C   0  0  0  0  0  0  0  0  0  0  0  0
   -8.2250   -1.8810    3.5810 C   0  0  0  0  0  0  0  0  0  0  0  0
   -6.9310   -1.9220    2.7790 C   0  0  0  0  0  0  0  0  0  0  0  0
   -7.1730   -1.5280    1.3430 C   0  0  0  0  0  0  0  0  0  0  0  0
   -3.7760    1.1110   -2.5540 C   0  0  0  0  0  0  0  0  0  0  0  0
   -3.8040    1.9350   -3.6820 C   0  0  0  0  0  0  0  0  0  0  0  0
   -4.1180    1.4290   -4.9260 C   0  0  0  0  0  0  0  0  0  0  0  0
   -4.4140    0.0970   -5.0970 C   0  0  0  0  0  0  0  0  0  0  0  0
   -4.3910   -0.7260   -4.0010 C   0  0  0  0  0  0  0  0  0  0  0  0
   -4.0790   -0.2140   -2.7820 C   0  0  0  0  0  0  0  0  0  0  0  0
   -1.4130    1.6200    0.2800 C   0  0  0  0  0  0  0  0  0  0  0  0
   -0.0820    1.4110    0.5090 C   0  0  0  0  0  0  0  0  0  0  0  0
    4.8850    0.2980    0.6670 C   0  0  0  0  0  0  0  0  0  0  0  0
    6.2030    0.1430    1.0460 C   0  0  0  0  0  0  0  0  0  0  0  0
  1  2  1  0
  2  3  1  0
  2  6  2  0
  3  4  2  0
  4  5  1  0
  5  6  1  0
  6  7  1  0
  7  8  2  0
  7  9  1  0
  9 10  1  0
 10 11  2  0
 10 41  1  0
 11 12  1  0
 12 13  2  0
 13 14  1  0
 13 40  1  0
 14 15  2  0
 14 16  1  0
 16 17  1  0
 17 18  2  0
 17 39  1  0
 18 19  1  0
 19 20  2  0
 20 21  1  0
 20 38  1  0
 21 22  1  1
 21 32  1  0
 22 23  1  0
 23 24  1  0
 25 24  1  6
 25 26  1  0
 25 31  1  0
 26 27  1  0
 27 28  2  0
 28 29  1  0
 29 30  1  0
 30 31  1  0
 32 33  2  0
 32 37  1  0
 33 34  1  0
 34 35  2  0
 35 36  1  0
 36 37  2  0
 38 39  2  0
 40 41  2  0
M  CHG  2  22   1  25   1
M  END
