
     RDKit          3D

 41 44  0  0  0  0  0  0  0  0999 V2000
    8.2100   -1.2160   -1.5380 C   0  0  0  0  0  0  0  0  0  0  0  0
    7.0420   -0.3610   -1.8860 C   0  0  0  0  0  0  0  0  0  0  0  0
    7.2460    1.1050   -1.9040 C   0  0  1  0  0  0  0  0  0  0  0  0
    5.9120    1.7330   -2.2940 C   0  0  0  0  0  0  0  0  0  0  0  0
    4.8790    1.3090   -1.3480 C   0  0  0  0  0  0  0  0  0  0  0  0
    4.0300    0.9380   -0.5580 C   0  0  0  0  0  0  0  0  0  0  0  0
    3.0220    0.5200    0.3550 C   0  0  0  0  0  0  0  0  0  0  0  0
    3.3680    0.6230    1.7660 C   0  0  0  0  0  0  0  0  0  0  0  0
    2.3840    0.2360    2.6160 C   0  0  0  0  0  0  0  0  0  0  0  0
    1.1750   -0.2160    2.3430 C   0  0  0  0  0  0  0  0  0  0  0  0
    0.7850   -0.3380    0.9160 C   0  0  0  0  0  0  0  0  0  0  0  0
   -0.4480   -0.7640    0.5760 N   0  0  0  0  0  0  0  0  0  0  0  0
   -1.6030    0.1210    0.4970 C   0  0  0  0  0  0  0  0  0  0  0  0
   -1.4030    1.3110    0.8080 O   0  0  0  0  0  0  0  0  0  0  0  0
   -2.8890   -0.4010    0.0670 C   0  0  0  0  0  0  0  0  0  0  0  0
   -3.9990    0.3570    0.4020 C   0  0  0  0  0  0  0  0  0  0  0  0
   -5.2550   -0.0220   -0.0480 C   0  0  0  0  0  0  0  0  0  0  0  0
   -5.4230   -1.1520   -0.8300 C   0  0  0  0  0  0  0  0  0  0  0  0
   -6.7900   -1.4860   -1.3300 C   0  0  0  0  0  0  0  0  0  0  0  0
   -6.9460   -2.2360   -2.2890 O   0  0  0  0  0  0  0  0  0  0  0  0
   -7.9060   -0.9350   -0.7190 N   0  0  0  0  0  0  0  0  0  0  0  0
   -9.2890   -1.0360   -1.0100 C   0  0  0  0  0  0  0  0  0  0  0  0
   -9.7780   -1.9060   -1.9580 C   0  0  0  0  0  0  0  0  0  0  0  0
  -11.1670   -1.9500   -2.2170 C   0  0  0  0  0  0  0  0  0  0  0  0
  -11.9910   -1.1470   -1.5400 C   0  0  0  0  0  0  0  0  0  0  0  0
  -11.5850   -0.2560   -0.5840 C   0  0  0  0  0  0  0  0  0  0  0  0
  -10.1810   -0.2360   -0.3430 C   0  0  0  0  0  0  0  0  0  0  0  0
   -9.6680    0.6770    0.6130 N   0  0  0  0  0  0  0  0  0  0  0  0
   -9.0600    1.9010    0.1310 C   0  0  0  0  0  0  0  0  0  0  0  0
   -9.7000    0.4110    2.0290 C   0  0  0  0  0  0  0  0  0  0  0  0
   -4.3380   -1.8740   -1.1390 C   0  0  0  0  0  0  0  0  0  0  0  0
   -3.0480   -1.5240   -0.7060 C   0  0  0  0  0  0  0  0  0  0  0  0
    1.8090    0.0650    0.1270 C   0  0  0  0  0  0  0  0  0  0  0  0
    7.8460    1.7410   -0.7900 N   0  0  0  0  0  0  0  0  0  0  0  0
    7.5010    1.3040    0.5030 C   0  0  0  0  0  0  0  0  0  0  0  0
    8.5810    0.5780    1.1990 C   0  0  0  0  0  0  0  0  0  0  0  0
    8.3050   -0.2210    2.2790 C   0  0  0  0  0  0  0  0  0  0  0  0
    9.2840   -0.8900    2.9500 C   0  0  0  0  0  0  0  0  0  0  0  0
   10.5810   -0.7330    2.5030 N   0  0  0  0  0  0  0  0  0  0  0  0
   10.8600    0.0330    1.4610 C   0  0  0  0  0  0  0  0  0  0  0  0
    9.9010    0.7210    0.7600 C   0  0  0  0  0  0  0  0  0  0  0  0
  1  2  1  0
  3  2  1  1
  3  4  1  0
  3 34  1  0
  4  5  1  0
  5  6  3  0
  6  7  1  0
  7  8  2  0
  7 33  1  0
  8  9  1  0
  9 10  2  0
 10 11  1  0
 11 12  1  0
 11 33  2  0
 12 13  1  0
 13 14  2  0
 13 15  1  0
 15 16  2  0
 15 32  1  0
 16 17  1  0
 17 18  2  0
 18 19  1  0
 18 31  1  0
 19 20  2  0
 19 21  1  0
 21 22  1  0
 22 23  2  0
 22 27  1  0
 23 24  1  0
 24 25  2  0
 25 26  1  0
 26 27  2  0
 27 28  1  0
 28 29  1  0
 28 30  1  0
 31 32  2  0
 34 35  1  0
 35 36  1  0
 36 37  2  0
 36 41  1  0
 37 38  1  0
 38 39  2  0
 39 40  1  0
 40 41  2  0
M  CHG  2  34   1  39   1
M  END
