
     RDKit          3D

 41 46  0  0  0  0  0  0  0  0999 V2000
   -3.2140   -6.2800   -2.0110 C   0  0  0  0  0  0  0  0  0  0  0  0
   -2.4550   -6.0460   -0.7870 N   0  0  0  0  0  0  0  0  0  0  0  0
   -2.3130   -4.6370   -0.5150 C   0  0  0  0  0  0  0  0  0  0  0  0
   -3.5560   -4.0300   -0.0590 C   0  0  0  0  0  0  0  0  0  0  0  0
   -4.7090   -4.7570    0.0810 C   0  0  0  0  0  0  0  0  0  0  0  0
   -5.9010   -4.2080    0.5080 C   0  0  0  0  0  0  0  0  0  0  0  0
   -5.8850   -2.8670    0.7960 C   0  0  0  0  0  0  0  0  0  0  0  0
   -4.7260   -2.0770    0.6680 C   0  0  0  0  0  0  0  0  0  0  0  0
   -3.5530   -2.6540    0.2400 C   0  0  0  0  0  0  0  0  0  0  0  0
   -2.3470   -1.9550    0.0860 N   0  0  0  0  0  0  0  0  0  0  0  0
   -2.1150   -0.5900    0.2840 C   0  0  0  0  0  0  0  0  0  0  0  0
   -3.0650    0.1320    0.6410 O   0  0  0  0  0  0  0  0  0  0  0  0
   -0.7400    0.0250    0.0740 C   0  0  2  0  0  0  0  0  0  0  0  0
   -0.9420    1.4730    0.2760 N   0  0  0  0  0  0  0  0  0  0  0  0
   -1.7550    2.0810   -0.7120 C   0  0  0  0  0  0  0  0  0  0  0  0
   -1.9350    3.5320   -0.4220 C   0  0  0  0  0  0  0  0  0  0  0  0
   -2.9270    4.1750    0.2770 C   0  0  0  0  0  0  0  0  0  0  0  0
   -2.6370    5.5230    0.2610 C   0  0  0  0  0  0  0  0  0  0  0  0
   -3.2340    6.6510    0.7720 C   0  0  0  0  0  0  0  0  0  0  0  0
   -2.6240    7.8630    0.5380 C   0  0  0  0  0  0  0  0  0  0  0  0
   -3.2470    9.1090    1.0800 C   0  0  0  0  0  0  0  0  0  0  0  0
   -1.4750    7.9670   -0.1680 N   0  0  0  0  0  0  0  0  0  0  0  0
   -0.8740    6.8850   -0.6760 C   0  0  0  0  0  0  0  0  0  0  0  0
   -1.4660    5.6550   -0.4550 C   0  0  0  0  0  0  0  0  0  0  0  0
   -1.1140    4.4670   -0.8210 O   0  0  0  0  0  0  0  0  0  0  0  0
   -0.1840   -0.2380   -1.2710 C   0  0  0  0  0  0  0  0  0  0  0  0
    0.8200   -1.3170   -1.3530 C   0  0  0  0  0  0  0  0  0  0  0  0
    1.7990   -1.3470   -0.3030 N   0  0  1  0  0  0  0  0  0  0  0  0
    2.6880   -0.2340   -0.3720 C   0  0  0  0  0  0  0  0  0  0  0  0
    4.0980   -0.5350   -0.0850 C   0  0  0  0  0  0  0  0  0  0  0  0
    4.5800   -1.6520    0.5130 C   0  0  0  0  0  0  0  0  0  0  0  0
    5.9420   -1.8300    0.7240 C   0  0  0  0  0  0  0  0  0  0  0  0
    6.8570   -0.8810    0.3330 C   0  0  0  0  0  0  0  0  0  0  0  0
    8.2010   -1.0640    0.5420 C   0  0  0  0  0  0  0  0  0  0  0  0
    9.1200   -0.1070    0.1460 C   0  0  0  0  0  0  0  0  0  0  0  0
    8.6390    1.0200   -0.4580 C   0  0  0  0  0  0  0  0  0  0  0  0
    7.2950    1.2230   -0.6760 C   0  0  0  0  0  0  0  0  0  0  0  0
    6.3800    0.2650   -0.2800 C   0  0  0  0  0  0  0  0  0  0  0  0
    5.0310    0.4310   -0.4820 C   0  0  0  0  0  0  0  0  0  0  0  0
    1.0930   -1.5060    0.9350 C   0  0  0  0  0  0  0  0  0  0  0  0
    0.1170   -0.4160    1.2010 C   0  0  0  0  0  0  0  0  0  0  0  0
  1  2  1  0
  2  3  1  0
  3  4  1  0
  4  5  2  0
  4  9  1  0
  5  6  1  0
  6  7  2  0
  7  8  1  0
  8  9  2  0
  9 10  1  0
 10 11  1  0
 11 12  2  0
 11 13  1  0
 13 14  1  1
 13 26  1  0
 13 41  1  0
 14 15  1  0
 15 16  1  0
 16 17  2  0
 16 25  1  0
 17 18  1  0
 18 19  2  0
 18 24  1  0
 19 20  1  0
 20 21  1  0
 20 22  2  0
 22 23  1  0
 23 24  2  0
 24 25  1  0
 26 27  1  0
 27 28  1  0
 28 29  1  1
 28 40  1  0
 29 30  1  0
 30 31  2  0
 30 39  1  0
 31 32  1  0
 32 33  2  0
 33 34  1  0
 33 38  1  0
 34 35  2  0
 35 36  1  0
 36 37  2  0
 37 38  1  0
 38 39  2  0
 40 41  1  0
M  CHG  2   2   1  28   1
M  END
