
     RDKit          3D

 41 45  0  0  0  0  0  0  0  0999 V2000
   -2.0150   -5.0390    1.7840 C   0  0  0  0  0  0  0  0  0  0  0  0
   -3.3700   -5.4650    1.3390 C   0  0  0  0  0  0  0  0  0  0  0  0
   -3.9280   -6.6010    1.8810 C   0  0  0  0  0  0  0  0  0  0  0  0
   -5.1850   -7.0570    1.4970 C   0  0  0  0  0  0  0  0  0  0  0  0
   -5.8770   -6.3480    0.5510 C   0  0  0  0  0  0  0  0  0  0  0  0
   -5.3080   -5.2020    0.0080 C   0  0  0  0  0  0  0  0  0  0  0  0
   -4.0780   -4.7400    0.3730 C   0  0  0  0  0  0  0  0  0  0  0  0
   -3.4580   -3.5730   -0.1400 N   0  0  0  0  0  0  0  0  0  0  0  0
   -3.9790   -2.7180   -1.1400 C   0  0  0  0  0  0  0  0  0  0  0  0
   -5.1100   -2.9970   -1.6600 O   0  0  0  0  0  0  0  0  0  0  0  0
   -3.2530   -1.5080   -1.6040 C   0  0  0  0  0  0  0  0  0  0  0  0
   -2.0120   -1.2810   -0.9500 N   0  0  1  0  0  0  0  0  0  0  0  0
   -0.9460   -2.1060   -1.4690 C   0  0  0  0  0  0  0  0  0  0  0  0
   -1.5760    0.1110   -1.0880 C   0  0  1  0  0  0  0  0  0  0  0  0
   -2.2880    0.9990   -0.1080 C   0  0  0  0  0  0  0  0  0  0  0  0
   -1.8420    2.4080   -0.2450 C   0  0  0  0  0  0  0  0  0  0  0  0
   -0.7750    2.9130    0.4940 C   0  0  0  0  0  0  0  0  0  0  0  0
   -0.3520    4.2280    0.3700 C   0  0  0  0  0  0  0  0  0  0  0  0
   -0.9830    5.0880   -0.4990 C   0  0  0  0  0  0  0  0  0  0  0  0
   -0.5550    6.4540   -0.6320 N   0  0  0  0  0  0  0  0  0  0  0  0
   -1.0930    7.3690   -1.4330 C   0  0  0  0  0  0  0  0  0  0  0  0
   -0.4370    8.5780   -1.3120 C   0  0  0  0  0  0  0  0  0  0  0  0
    0.5680    8.3860   -0.3750 C   0  0  0  0  0  0  0  0  0  0  0  0
    0.4500    7.0670    0.0090 C   0  0  0  0  0  0  0  0  0  0  0  0
   -2.0390    4.5910   -1.2320 C   0  0  0  0  0  0  0  0  0  0  0  0
   -2.4630    3.2810   -1.1110 C   0  0  0  0  0  0  0  0  0  0  0  0
   -0.1310    0.1730   -0.8320 C   0  0  0  0  0  0  0  0  0  0  0  0
    0.7300    0.8790   -1.6930 C   0  0  0  0  0  0  0  0  0  0  0  0
    2.0780    0.9420   -1.4620 C   0  0  0  0  0  0  0  0  0  0  0  0
    2.6540    0.3080   -0.3610 C   0  0  0  0  0  0  0  0  0  0  0  0
    4.0900    0.3970   -0.1480 C   0  0  0  0  0  0  0  0  0  0  0  0
    4.7240    1.1690   -0.8990 O   0  0  0  0  0  0  0  0  0  0  0  0
    4.7740   -0.3330    0.8440 N   0  0  0  0  0  0  0  0  0  0  0  0
    6.1550   -0.3110    1.1280 C   0  0  0  0  0  0  0  0  0  0  0  0
    6.7190   -1.2400    1.9980 C   0  0  0  0  0  0  0  0  0  0  0  0
    8.0400   -1.2610    2.3180 C   0  0  0  0  0  0  0  0  0  0  0  0
    8.8360   -0.3330    1.7600 N   0  0  0  0  0  0  0  0  0  0  0  0
    8.3690    0.5990    0.9110 C   0  0  0  0  0  0  0  0  0  0  0  0
    6.9990    0.6060    0.5910 C   0  0  0  0  0  0  0  0  0  0  0  0
    1.7810   -0.3670    0.4510 C   0  0  0  0  0  0  0  0  0  0  0  0
    0.4190   -0.4580    0.2580 C   0  0  0  0  0  0  0  0  0  0  0  0
  1  2  1  0
  2  3  2  0
  2  7  1  0
  3  4  1  0
  4  5  2  0
  5  6  1  0
  6  7  2  0
  7  8  1  0
  8  9  1  0
  9 10  2  0
  9 11  1  0
 11 12  1  0
 12 13  1  6
 12 14  1  0
 14 15  1  1
 14 27  1  0
 15 16  1  0
 16 17  2  0
 16 26  1  0
 17 18  1  0
 18 19  2  0
 19 20  1  0
 19 25  1  0
 20 21  1  0
 20 24  1  0
 21 22  2  0
 22 23  1  0
 23 24  2  0
 25 26  2  0
 27 28  2  0
 27 41  1  0
 28 29  1  0
 29 30  2  0
 30 31  1  0
 30 40  1  0
 31 32  2  0
 31 33  1  0
 33 34  1  0
 34 35  2  0
 34 39  1  0
 35 36  1  0
 36 37  2  0
 37 38  1  0
 38 39  2  0
 40 41  2  0
M  CHG  2  12   1  37   1
M  END
