
     RDKit          3D

 40 44  0  0  0  0  0  0  0  0999 V2000
   -3.5160   -4.6160   -1.1820 C   0  0  0  0  0  0  0  0  0  0  0  0
   -3.8020   -3.1370   -1.2670 C   0  0  0  0  0  0  0  0  0  0  0  0
   -4.8010   -2.6790   -0.2080 C   0  0  0  0  0  0  0  0  0  0  0  0
   -4.9830   -1.1820   -0.4120 C   0  0  1  0  0  0  0  0  0  0  0  0
   -5.9210   -0.6570    0.5620 N   0  0  0  0  0  0  0  0  0  0  0  0
   -5.9980    0.7980    0.3510 C   0  0  0  0  0  0  0  0  0  0  0  0
   -6.9230    1.3470    1.3620 C   0  0  0  0  0  0  0  0  0  0  0  0
   -6.8090    2.6610    1.8280 C   0  0  0  0  0  0  0  0  0  0  0  0
   -7.6630    3.1900    2.7670 C   0  0  0  0  0  0  0  0  0  0  0  0
   -8.6780    2.4140    3.2830 C   0  0  0  0  0  0  0  0  0  0  0  0
   -8.7840    1.1150    2.8170 C   0  0  0  0  0  0  0  0  0  0  0  0
   -7.9290    0.6410    1.9010 N   0  0  0  0  0  0  0  0  0  0  0  0
   -3.6560   -0.4910   -0.2580 C   0  0  0  0  0  0  0  0  0  0  0  0
   -3.0330   -0.3680    0.9690 C   0  0  0  0  0  0  0  0  0  0  0  0
   -1.8080    0.2820    1.0620 C   0  0  0  0  0  0  0  0  0  0  0  0
   -1.1700    0.8220   -0.0240 C   0  0  0  0  0  0  0  0  0  0  0  0
   -1.7810    0.7060   -1.2530 C   0  0  0  0  0  0  0  0  0  0  0  0
   -1.1430    1.2580   -2.4750 C   0  0  0  0  0  0  0  0  0  0  0  0
   -0.6290    0.2380   -3.3630 N   0  0  0  0  0  0  0  0  0  0  0  0
   -1.3310   -0.3450   -4.3780 C   0  0  0  0  0  0  0  0  0  0  0  0
   -0.5300   -1.2600   -5.0120 C   0  0  0  0  0  0  0  0  0  0  0  0
    0.6890   -1.1950   -4.3230 C   0  0  0  0  0  0  0  0  0  0  0  0
    0.6230   -0.2710   -3.3090 C   0  0  0  0  0  0  0  0  0  0  0  0
    1.6130    0.1120   -2.3690 N   0  0  0  0  0  0  0  0  0  0  0  0
    2.9210   -0.4160   -2.3270 C   0  0  0  0  0  0  0  0  0  0  0  0
    3.2550   -1.2880   -3.1810 O   0  0  0  0  0  0  0  0  0  0  0  0
    3.8990    0.0300   -1.3110 C   0  0  0  0  0  0  0  0  0  0  0  0
    5.2530   -0.0460   -1.5370 C   0  0  0  0  0  0  0  0  0  0  0  0
    6.1300    0.3790   -0.5300 C   0  0  0  0  0  0  0  0  0  0  0  0
    5.7040    0.8700    0.6740 C   0  0  0  0  0  0  0  0  0  0  0  0
    6.6150    1.3220    1.7140 C   0  0  0  0  0  0  0  0  0  0  0  0
    6.2690    1.0430    2.9050 O   0  0  0  0  0  0  0  0  0  0  0  0
    7.7890    2.0200    1.4220 N   0  0  0  0  0  0  0  0  0  0  0  0
    8.9700    1.2210    1.3050 C   0  0  0  0  0  0  0  0  0  0  0  0
    8.8730   -0.0570    2.0980 C   0  0  2  0  0  0  0  0  0  0  0  0
    8.6960   -0.0110    3.5880 C   0  0  0  0  0  0  0  0  0  0  0  0
   10.0240   -0.3980    2.9990 C   0  0  0  0  0  0  0  0  0  0  0  0
    4.3200    0.9410    0.8900 C   0  0  0  0  0  0  0  0  0  0  0  0
    3.4780    0.5220   -0.1010 C   0  0  0  0  0  0  0  0  0  0  0  0
   -3.0140    0.0510   -1.3490 C   0  0  0  0  0  0  0  0  0  0  0  0
  1  2  1  0
  2  3  1  0
  4  3  1  1
  4  5  1  0
  4 13  1  0
  5  6  1  0
  6  7  1  0
  7  8  2  0
  7 12  1  0
  8  9  1  0
  9 10  2  0
 10 11  1  0
 11 12  2  0
 13 14  2  0
 13 40  1  0
 14 15  1  0
 15 16  2  0
 16 17  1  0
 17 18  1  0
 17 40  2  0
 18 19  1  0
 19 20  1  0
 19 23  1  0
 20 21  2  0
 21 22  1  0
 22 23  2  0
 23 24  1  0
 24 25  1  0
 25 26  2  0
 25 27  1  0
 27 28  2  0
 27 39  1  0
 28 29  1  0
 29 30  2  0
 30 31  1  0
 30 38  1  0
 31 32  2  0
 31 33  1  0
 33 34  1  0
 35 34  1  1
 35 36  1  0
 35 37  1  0
 36 37  1  0
 38 39  2  0
M  CHG  2  12   1  33   1
M  END
