
     RDKit          3D

 41 45  0  0  0  0  0  0  0  0999 V2000
   -8.2770   -0.1510   -0.0310 C   0  0  0  0  0  0  0  0  0  0  0  0
   -6.8490    0.1960    0.2710 C   0  0  0  0  0  0  0  0  0  0  0  0
   -5.9380    0.3570   -0.7420 C   0  0  0  0  0  0  0  0  0  0  0  0
   -4.6140    0.6790   -0.4370 C   0  0  0  0  0  0  0  0  0  0  0  0
   -4.2710    0.8240    0.8900 C   0  0  0  0  0  0  0  0  0  0  0  0
   -2.8910    1.1580    1.2800 C   0  0  0  0  0  0  0  0  0  0  0  0
   -1.9270    1.0160    0.2090 N   0  0  0  0  0  0  0  0  0  0  0  0
   -1.4360   -0.2470   -0.2180 C   0  0  0  0  0  0  0  0  0  0  0  0
   -1.9130   -1.2410    0.4040 O   0  0  0  0  0  0  0  0  0  0  0  0
   -0.4690   -0.3950   -1.2900 C   0  0  0  0  0  0  0  0  0  0  0  0
    0.8200    0.0350   -1.2330 C   0  0  0  0  0  0  0  0  0  0  0  0
    1.3510    0.5920   -0.0330 N   0  0  0  0  0  0  0  0  0  0  0  0
    1.1790    1.9270    0.4550 C   0  0  0  0  0  0  0  0  0  0  0  0
    2.3660    2.2980    1.3450 C   0  0  0  0  0  0  0  0  0  0  0  0
    3.6170    1.6790    0.8460 N   0  0  0  0  0  0  0  0  0  0  0  0
    4.6760    2.5740    0.6140 C   0  0  0  0  0  0  0  0  0  0  0  0
    4.3550    3.8210    0.8510 O   0  0  0  0  0  0  0  0  0  0  0  0
    6.0220    2.3820    0.1740 C   0  0  0  0  0  0  0  0  0  0  0  0
    6.6030    1.1780   -0.0740 C   0  0  0  0  0  0  0  0  0  0  0  0
    7.9340    1.0380   -0.4830 C   0  0  0  0  0  0  0  0  0  0  0  0
    8.6950    2.1620   -0.6440 C   0  0  0  0  0  0  0  0  0  0  0  0
    8.1140    3.3960   -0.3950 C   0  0  0  0  0  0  0  0  0  0  0  0
    6.8460    3.4640   -0.0090 N   0  0  0  0  0  0  0  0  0  0  0  0
    3.5960    0.2530    0.6520 C   0  0  0  0  0  0  0  0  0  0  0  0
    2.1890   -0.2630    0.8540 C   0  0  2  0  0  0  0  0  0  0  0  0
    1.9340   -1.6660    0.5260 C   0  0  0  0  0  0  0  0  0  0  0  0
    2.6010   -2.7570    1.2370 C   0  0  2  0  0  0  0  0  0  0  0  0
    4.0970   -2.8240    1.1750 C   0  0  0  0  0  0  0  0  0  0  0  0
    2.1040   -4.0860    0.6280 C   0  0  0  0  0  0  0  0  0  0  0  0
    1.6950   -0.0870   -2.3380 C   0  0  0  0  0  0  0  0  0  0  0  0
    1.2060   -0.6580   -3.4730 C   0  0  0  0  0  0  0  0  0  0  0  0
   -0.0950   -1.1100   -3.5720 C   0  0  0  0  0  0  0  0  0  0  0  0
   -0.5700   -1.6890   -4.7380 C   0  0  0  0  0  0  0  0  0  0  0  0
   -1.8780   -2.1190   -4.7730 C   0  0  0  0  0  0  0  0  0  0  0  0
   -2.7150   -1.9920   -3.6940 C   0  0  0  0  0  0  0  0  0  0  0  0
   -2.2470   -1.4140   -2.5240 C   0  0  0  0  0  0  0  0  0  0  0  0
   -0.9390   -0.9830   -2.4890 C   0  0  0  0  0  0  0  0  0  0  0  0
   -5.2100    0.6560    1.9020 C   0  0  0  0  0  0  0  0  0  0  0  0
   -6.5160    0.3380    1.5940 C   0  0  0  0  0  0  0  0  0  0  0  0
   -7.5480    0.1530    2.6710 C   0  0  0  0  0  0  0  0  0  0  0  0
   -6.9270    0.3620    3.9850 N   0  0  0  0  0  0  0  0  0  0  0  0
  1  2  1  0
  2  3  2  0
  2 39  1  0
  3  4  1  0
  4  5  2  0
  5  6  1  0
  5 38  1  0
  6  7  1  0
  7  8  1  0
  8  9  2  0
  8 10  1  0
 10 11  1  0
 10 37  2  0
 11 12  1  0
 11 30  2  0
 12 13  1  0
 12 25  1  0
 13 14  1  0
 14 15  1  0
 15 16  1  0
 15 24  1  0
 16 17  2  0
 16 18  1  0
 18 19  2  0
 18 23  1  0
 19 20  1  0
 20 21  2  0
 21 22  1  0
 22 23  2  0
 24 25  1  0
 25 26  1  6
 26 27  1  0
 27 28  1  6
 27 29  1  0
 30 31  1  0
 31 32  2  0
 32 33  1  0
 32 37  1  0
 33 34  2  0
 34 35  1  0
 35 36  2  0
 36 37  1  0
 38 39  2  0
 39 40  1  0
 40 41  1  0
M  CHG  2  23   1  41   1
M  END
