
     RDKit          3D

 41 45  0  0  0  0  0  0  0  0999 V2000
   -5.6860    1.8340    2.3220 C   0  0  0  0  0  0  0  0  0  0  0  0
   -4.6180    1.6200    1.2750 C   0  0  0  0  0  0  0  0  0  0  0  0
   -3.9550    0.2410    1.4540 C   0  0  0  0  0  0  0  0  0  0  0  0
   -2.9300    0.1450    0.3730 C   0  0  0  0  0  0  0  0  0  0  0  0
   -2.1870   -1.1090    0.3550 N   0  0  0  0  0  0  0  0  0  0  0  0
   -0.9880   -1.1850    1.0920 C   0  0  0  0  0  0  0  0  0  0  0  0
   -0.4200   -2.2660    1.2450 O   0  0  0  0  0  0  0  0  0  0  0  0
   -0.4460    0.0630    1.6590 C   0  0  0  0  0  0  0  0  0  0  0  0
   -0.7660    0.4190    2.9780 C   0  0  0  0  0  0  0  0  0  0  0  0
   -0.2710    1.5570    3.5540 C   0  0  0  0  0  0  0  0  0  0  0  0
    0.5590    2.3670    2.8220 C   0  0  0  0  0  0  0  0  0  0  0  0
    0.8770    2.0230    1.5290 C   0  0  0  0  0  0  0  0  0  0  0  0
    0.3800    0.8620    0.9210 C   0  0  0  0  0  0  0  0  0  0  0  0
    0.7470    0.5320   -0.4770 C   0  0  2  0  0  0  0  0  0  0  0  0
   -0.2720    0.9300   -1.4040 N   0  0  0  0  0  0  0  0  0  0  0  0
   -0.5530    2.2610   -1.7320 C   0  0  0  0  0  0  0  0  0  0  0  0
   -1.8120    2.6480   -2.1930 C   0  0  0  0  0  0  0  0  0  0  0  0
   -2.1090    3.9320   -2.5490 C   0  0  0  0  0  0  0  0  0  0  0  0
   -1.1110    4.9000   -2.4490 C   0  0  0  0  0  0  0  0  0  0  0  0
    0.1420    4.5300   -1.9950 C   0  0  0  0  0  0  0  0  0  0  0  0
    0.4250    3.2240   -1.6390 C   0  0  0  0  0  0  0  0  0  0  0  0
    1.0280    5.7400   -1.9750 C   0  0  0  0  0  0  0  0  0  0  0  0
    0.1170    6.8340   -2.0720 N   0  0  0  0  0  0  0  0  0  0  0  0
   -1.0600    6.3340   -2.7320 C   0  0  0  0  0  0  0  0  0  0  0  0
    1.2050   -0.8450   -0.7170 C   0  0  0  0  0  0  0  0  0  0  0  0
    0.6040   -1.5060   -1.5990 O   0  0  0  0  0  0  0  0  0  0  0  0
    2.2620   -1.4600   -0.0380 N   0  0  0  0  0  0  0  0  0  0  0  0
    2.9290   -0.7030    1.0150 C   0  0  0  0  0  0  0  0  0  0  0  0
    4.2160   -1.4010    1.4310 C   0  0  0  0  0  0  0  0  0  0  0  0
    3.8750   -2.8380    1.7570 C   0  0  0  0  0  0  0  0  0  0  0  0
    3.2960   -3.6170    0.6620 C   0  0  2  0  0  0  0  0  0  0  0  0
    4.0530   -4.7610    0.0740 C   0  0  0  0  0  0  0  0  0  0  0  0
    5.3580   -4.5490   -0.5580 C   0  0  0  0  0  0  0  0  0  0  0  0
    6.3740   -4.1030    0.3320 N   0  0  0  0  0  0  0  0  0  0  0  0
    2.6550   -2.7730   -0.4250 C   0  0  0  0  0  0  0  0  0  0  0  0
   -2.7740   -2.1720   -0.3930 C   0  0  0  0  0  0  0  0  0  0  0  0
   -4.0420   -2.0610   -0.9240 C   0  0  0  0  0  0  0  0  0  0  0  0
   -4.6300   -3.0920   -1.6580 C   0  0  0  0  0  0  0  0  0  0  0  0
   -3.9670   -4.2720   -1.8870 C   0  0  0  0  0  0  0  0  0  0  0  0
   -2.7100   -4.4080   -1.3720 C   0  0  0  0  0  0  0  0  0  0  0  0
   -2.1360   -3.3750   -0.6430 C   0  0  0  0  0  0  0  0  0  0  0  0
  1  2  1  0
  2  3  1  0
  3  4  1  0
  4  5  1  0
  5  6  1  0
  5 36  1  0
  6  7  2  0
  6  8  1  0
  8  9  2  0
  8 13  1  0
  9 10  1  0
 10 11  2  0
 11 12  1  0
 12 13  2  0
 13 14  1  0
 14 15  1  6
 14 25  1  0
 15 16  1  0
 16 17  2  0
 16 21  1  0
 17 18  1  0
 18 19  2  0
 19 20  1  0
 19 24  1  0
 20 21  2  0
 20 22  1  0
 22 23  1  0
 23 24  1  0
 25 26  2  0
 25 27  1  0
 27 28  1  0
 27 35  1  0
 28 29  1  0
 29 30  1  0
 30 31  1  0
 31 32  1  6
 31 35  1  0
 32 33  1  0
 33 34  1  0
 36 37  2  0
 36 41  1  0
 37 38  1  0
 38 39  2  0
 39 40  1  0
 40 41  2  0
M  CHG  2  23   1  34   1
M  END
