
     RDKit          3D

 23 25  0  0  0  0  0  0  0  0999 V2000
   -4.6680    1.3130    1.3030 C   0  0  0  0  0  0  0  0  0  0  0  0
   -3.3090    1.6310    0.9840 O   0  0  0  0  0  0  0  0  0  0  0  0
   -2.4960    0.4340    0.8540 C   0  0  0  0  0  0  0  0  0  0  0  0
   -2.1930   -0.0810    2.0100 C   0  0  0  0  0  0  0  0  0  0  0  0
   -1.4400   -1.2380    2.3840 C   0  0  0  0  0  0  0  0  0  0  0  0
   -0.8950   -2.2000    1.6560 C   0  0  0  0  0  0  0  0  0  0  0  0
   -0.8420   -2.4420    0.2530 C   0  0  0  0  0  0  0  0  0  0  0  0
    0.1210   -2.2080   -0.6400 C   0  0  0  0  0  0  0  0  0  0  0  0
    1.4280   -1.6370   -0.4650 C   0  0  0  0  0  0  0  0  0  0  0  0
    1.9330   -0.4240   -0.5040 C   0  0  0  0  0  0  0  0  0  0  0  0
    1.3040    0.8340   -0.7660 C   0  0  0  0  0  0  0  0  0  0  0  0
    0.0290    1.0890   -1.0860 C   0  0  0  0  0  0  0  0  0  0  0  0
   -1.1540    0.3640   -1.2880 C   0  0  0  0  0  0  0  0  0  0  0  0
   -2.2060    0.0830   -0.5070 C   0  0  0  0  0  0  0  0  0  0  0  0
   -3.2080   -0.7050   -1.1840 O   0  0  0  0  0  0  0  0  0  0  0  0
   -3.9260    0.0180   -2.1940 C   0  0  0  0  0  0  0  0  0  0  0  0
    2.3600    1.8770   -0.6220 C   0  0  0  0  0  0  0  0  0  0  0  0
    2.2270    3.1510   -0.7710 O   0  0  0  0  0  0  0  0  0  0  0  0
    3.5780    1.2510   -0.2870 N   0  0  0  0  0  0  0  0  0  0  0  0
    4.9540    1.6230   -0.0090 C   0  0  0  0  0  0  0  0  0  0  0  0
    5.6170    0.3340    0.2610 C   0  0  0  0  0  0  0  0  0  0  0  0
    4.5600   -0.6700    0.1150 C   0  0  0  0  0  0  0  0  0  0  0  0
    3.3790   -0.1220   -0.2040 C   0  0  0  0  0  0  0  0  0  0  0  0
  1  2  1  0
  2  3  1  0
  3  4  2  0
  3 14  1  0
  4  5  1  0
  5  6  2  0
  6  7  1  0
  7  8  2  0
  8  9  1  0
  9 10  2  0
 10 11  1  0
 10 23  1  0
 11 12  2  0
 11 17  1  0
 12 13  1  0
 13 14  2  0
 14 15  1  0
 15 16  1  0
 17 18  2  0
 17 19  1  0
 19 20  1  0
 19 23  1  0
 20 21  1  0
 21 22  1  0
 22 23  2  0
M  END
