
     RDKit          3D

 17 17  0  0  0  0  0  0  0  0999 V2000
    4.8540   -0.2800    0.6010 C   0  0  0  0  0  0  0  0  0  0  0  0
    4.0260    0.3430   -0.1920 C   0  0  0  0  0  0  0  0  0  0  0  0
    4.3020    1.6720   -0.6150 N   0  0  0  0  0  0  0  0  0  0  0  0
    2.8520   -0.2830   -0.6440 N   0  0  0  0  0  0  0  0  0  0  0  0
    2.2090   -1.2990    0.1630 C   0  0  0  0  0  0  0  0  0  0  0  0
    1.6370   -0.6760    1.4220 C   0  0  0  0  0  0  0  0  0  0  0  0
    0.6450    0.3410    1.1490 N   0  0  0  0  0  0  0  0  0  0  0  0
   -0.6050   -0.0010    0.5830 C   0  0  0  0  0  0  0  0  0  0  0  0
   -0.9810   -1.3190    0.5330 C   0  0  0  0  0  0  0  0  0  0  0  0
   -2.2260   -1.6110   -0.0530 C   0  0  0  0  0  0  0  0  0  0  0  0
   -3.0360   -0.6280   -0.5550 C   0  0  0  0  0  0  0  0  0  0  0  0
   -4.2450   -0.9280   -1.1210 O   0  0  0  0  0  0  0  0  0  0  0  0
   -4.8220   -2.1910   -1.2750 C   0  0  0  0  0  0  0  0  0  0  0  0
   -2.6140    0.7060   -0.4830 C   0  0  0  0  0  0  0  0  0  0  0  0
   -3.4620    1.6580   -1.0000 O   0  0  0  0  0  0  0  0  0  0  0  0
   -3.2180    3.0450   -1.0230 C   0  0  0  0  0  0  0  0  0  0  0  0
   -1.4010    1.0060    0.0850 C   0  0  0  0  0  0  0  0  0  0  0  0
  1  2  2  0
  2  3  1  0
  2  4  1  0
  4  5  1  0
  5  6  1  0
  6  7  1  0
  7  8  1  0
  8  9  2  0
  8 17  1  0
  9 10  1  0
 10 11  2  0
 11 12  1  0
 11 14  1  0
 12 13  1  0
 14 15  1  0
 14 17  2  0
 15 16  1  0
M  CHG  1   3   1
M  END
