
     RDKit          3D

 23 25  0  0  0  0  0  0  0  0999 V2000
   -4.9290   -1.6160    1.7420 C   0  0  0  0  0  0  0  0  0  0  0  0
   -4.5470   -0.5150    0.8110 C   0  0  0  0  0  0  0  0  0  0  0  0
   -5.4990    0.3250    0.2740 C   0  0  0  0  0  0  0  0  0  0  0  0
   -5.1810    1.3580   -0.5930 C   0  0  0  0  0  0  0  0  0  0  0  0
   -6.1680    2.1910   -1.1200 O   0  0  0  0  0  0  0  0  0  0  0  0
   -3.8680    1.5780   -0.9500 C   0  0  0  0  0  0  0  0  0  0  0  0
   -3.5300    2.6950   -1.8870 C   0  0  0  0  0  0  0  0  0  0  0  0
   -2.9100    0.7410   -0.4160 C   0  0  0  0  0  0  0  0  0  0  0  0
   -1.5950    0.9670   -0.7790 O   0  0  0  0  0  0  0  0  0  0  0  0
   -0.5170    0.1880   -0.3080 C   0  0  0  0  0  0  0  0  0  0  0  0
    0.7380    0.7460   -0.9260 C   0  0  0  0  0  0  0  0  0  0  0  0
    0.6980    1.7300   -1.7040 O   0  0  0  0  0  0  0  0  0  0  0  0
    1.9810    0.1370   -0.6130 N   0  0  0  0  0  0  0  0  0  0  0  0
    3.2490    0.5930   -1.1520 C   0  0  0  0  0  0  0  0  0  0  0  0
    4.3170   -0.0140   -0.2710 C   0  0  1  0  0  0  0  0  0  0  0  0
    5.4190   -0.5430   -1.1270 C   0  0  0  0  0  0  0  0  0  0  0  0
    4.7620    1.0470    0.6980 C   0  0  0  0  0  0  0  0  0  0  0  0
    3.6280   -1.0980    0.4730 C   0  0  0  0  0  0  0  0  0  0  0  0
    3.8870   -2.1140    1.2600 C   0  0  0  0  0  0  0  0  0  0  0  0
    2.6030   -2.7500    1.6100 C   0  0  0  0  0  0  0  0  0  0  0  0
    1.5990   -1.9310    0.8990 C   0  0  0  0  0  0  0  0  0  0  0  0
    2.2040   -0.9740    0.2410 C   0  0  0  0  0  0  0  0  0  0  0  0
   -3.2340   -0.2900    0.4500 C   0  0  0  0  0  0  0  0  0  0  0  0
  1  2  1  0
  2  3  2  0
  2 23  1  0
  3  4  1  0
  4  5  1  0
  4  6  2  0
  6  7  1  0
  6  8  1  0
  8  9  1  0
  8 23  2  0
  9 10  1  0
 10 11  1  0
 11 12  2  0
 11 13  1  0
 13 14  1  0
 13 22  1  0
 14 15  1  0
 15 16  1  6
 15 17  1  0
 15 18  1  0
 18 19  2  0
 18 22  1  0
 19 20  1  0
 20 21  1  0
 21 22  2  0
M  END
