
     RDKit          3D

 27 29  0  0  0  0  0  0  0  0999 V2000
    7.4090   -1.9860   -0.7910 N   0  0  0  0  0  0  0  0  0  0  0  0
    6.6170   -0.8870   -0.4250 C   0  0  0  0  0  0  0  0  0  0  0  0
    7.2350    0.2900   -0.1880 N   0  0  0  0  0  0  0  0  0  0  0  0
    6.4690    1.3340    0.1610 C   0  0  0  0  0  0  0  0  0  0  0  0
    5.1460    1.2260    0.2740 N   0  0  0  0  0  0  0  0  0  0  0  0
    4.4680    0.0820    0.0530 C   0  0  0  0  0  0  0  0  0  0  0  0
    5.2400   -1.0250   -0.3140 C   0  0  0  0  0  0  0  0  0  0  0  0
    4.3660   -2.0180   -0.4760 N   0  0  0  0  0  0  0  0  0  0  0  0
    3.1160   -1.5740   -0.2290 C   0  0  0  0  0  0  0  0  0  0  0  0
    3.1760   -0.2790    0.0970 N   0  0  0  0  0  0  0  0  0  0  0  0
    2.1170    0.5870    0.4330 C   0  0  2  0  0  0  0  0  0  0  0  0
    0.9820   -0.0760    0.9530 O   0  0  0  0  0  0  0  0  0  0  0  0
    0.1770    1.0250    1.1680 C   0  0  2  0  0  0  0  0  0  0  0  0
   -1.1830    0.7270    1.6780 C   0  0  0  0  0  0  0  0  0  0  0  0
   -2.0280   -0.1390    0.7910 C   0  0  1  0  0  0  0  0  0  0  0  0
   -1.4670   -1.4320    0.5370 N   0  0  0  0  0  0  0  0  0  0  0  0
   -3.4000   -0.2290    1.4440 C   0  0  0  0  0  0  0  0  0  0  0  0
   -4.3550   -1.0660    0.6650 C   0  0  0  0  0  0  0  0  0  0  0  0
   -4.5970   -0.5470   -0.7340 C   0  0  2  0  0  0  0  0  0  0  0  0
   -5.1400    0.7740   -0.7450 N   0  0  0  0  0  0  0  0  0  0  0  0
   -5.5210   -1.4760   -1.4020 C   0  0  0  0  0  0  0  0  0  0  0  0
   -5.2280   -2.6830   -1.4970 O   0  0  0  0  0  0  0  0  0  0  0  0
   -6.7070   -1.0180   -1.9220 O   0  0  0  0  0  0  0  0  0  0  0  0
    0.1970    1.8020   -0.1220 C   0  0  1  0  0  0  0  0  0  0  0  0
    0.4450    3.1710    0.1290 O   0  0  0  0  0  0  0  0  0  0  0  0
    1.4830    1.2810   -0.7710 C   0  0  1  0  0  0  0  0  0  0  0  0
    2.2900    2.2980   -1.2210 O   0  0  0  0  0  0  0  0  0  0  0  0
  1  2  1  0
  2  3  2  0
  2  7  1  0
  3  4  1  0
  4  5  2  0
  5  6  1  0
  6  7  2  0
  6 10  1  0
  7  8  1  0
  8  9  2  0
  9 10  1  0
 11 10  1  6
 11 12  1  0
 11 26  1  0
 12 13  1  0
 13 14  1  6
 13 24  1  0
 14 15  1  0
 15 16  1  1
 15 17  1  0
 17 18  1  0
 18 19  1  0
 19 20  1  1
 19 21  1  0
 21 22  2  0
 21 23  1  0
 24 25  1  1
 24 26  1  0
 26 27  1  1
M  CHG  2  16   1  20   1
M  END
