
     RDKit          3D

 22 24  0  0  0  0  0  0  0  0999 V2000
    5.8520   -1.0560    1.3460 C   0  0  0  0  0  0  0  0  0  0  0  0
    5.2890   -1.1420   -0.0410 C   0  0  0  0  0  0  0  0  0  0  0  0
    3.7470   -0.9600   -0.0040 C   0  0  0  0  0  0  0  0  0  0  0  0
    3.2760    0.0270   -0.6650 C   0  0  0  0  0  0  0  0  0  0  0  0
    2.0090    0.6320   -0.9650 C   0  0  0  0  0  0  0  0  0  0  0  0
    2.0030    1.7460   -1.7510 C   0  0  0  0  0  0  0  0  0  0  0  0
    0.8670    2.4230   -2.1160 O   0  0  0  0  0  0  0  0  0  0  0  0
   -0.3900    2.0580   -1.7320 C   0  0  0  0  0  0  0  0  0  0  0  0
   -1.5720    2.7490   -2.0980 N   0  0  0  0  0  0  0  0  0  0  0  0
   -0.4900    0.9850   -0.9670 C   0  0  0  0  0  0  0  0  0  0  0  0
   -1.7880    0.5030   -0.4910 C   0  0  0  0  0  0  0  0  0  0  0  0
   -2.7760    1.1630   -0.8680 O   0  0  0  0  0  0  0  0  0  0  0  0
   -1.9380   -0.6650    0.3590 C   0  0  0  0  0  0  0  0  0  0  0  0
   -3.0690   -1.0660    0.8680 C   0  0  0  0  0  0  0  0  0  0  0  0
   -4.3650   -0.4740    0.7190 C   0  0  0  0  0  0  0  0  0  0  0  0
   -4.8110    0.8100    0.9120 C   0  0  0  0  0  0  0  0  0  0  0  0
   -6.1610    0.7930    0.5850 C   0  0  0  0  0  0  0  0  0  0  0  0
   -6.5160   -0.4010    0.2210 O   0  0  0  0  0  0  0  0  0  0  0  0
   -5.4830   -1.1810    0.2870 C   0  0  0  0  0  0  0  0  0  0  0  0
   -0.7160   -1.4320    0.6880 C   0  0  0  0  0  0  0  0  0  0  0  0
    0.5410   -0.8830    0.1870 C   0  0  0  0  0  0  0  0  0  0  0  0
    0.6950    0.2130   -0.5420 C   0  0  0  0  0  0  0  0  0  0  0  0
  1  2  1  0
  2  3  1  0
  3  4  2  3
  4  5  1  0
  5  6  2  0
  5 22  1  0
  6  7  1  0
  7  8  1  0
  8  9  1  0
  8 10  2  0
 10 11  1  0
 10 22  1  0
 11 12  2  0
 11 13  1  0
 13 14  2  3
 13 20  1  0
 14 15  1  0
 15 16  1  0
 15 19  2  0
 16 17  2  0
 17 18  1  0
 18 19  1  0
 20 21  1  0
 21 22  2  0
M  END
