
     RDKit          3D

 23 25  0  0  0  0  0  0  0  0999 V2000
   -4.7060   -0.9210    0.4270 C   0  0  0  0  0  0  0  0  0  0  0  0
   -3.5900   -0.4110   -0.0100 C   0  0  0  0  0  0  0  0  0  0  0  0
   -2.4980   -1.3150   -0.4160 C   0  0  0  0  0  0  0  0  0  0  0  0
   -2.7240   -2.8020   -0.3060 C   0  0  0  0  0  0  0  0  0  0  0  0
   -1.3510   -0.8790   -0.8640 C   0  0  0  0  0  0  0  0  0  0  0  0
   -1.0070    0.5340   -1.0180 C   0  0  2  0  0  0  0  0  0  0  0  0
    0.2280    0.9300   -0.2380 C   0  0  0  0  0  0  0  0  0  0  0  0
    1.3370    0.1250   -0.5500 O   0  0  0  0  0  0  0  0  0  0  0  0
    2.5350    0.3800    0.0940 C   0  0  0  0  0  0  0  0  0  0  0  0
    2.6620    1.3980    1.0270 C   0  0  0  0  0  0  0  0  0  0  0  0
    3.8490    1.6570    1.6710 C   0  0  0  0  0  0  0  0  0  0  0  0
    4.9630    0.9000    1.4030 C   0  0  0  0  0  0  0  0  0  0  0  0
    4.8520   -0.1170    0.4760 C   0  0  0  0  0  0  0  0  0  0  0  0
    6.0000   -0.8620    0.2300 C   0  0  0  0  0  0  0  0  0  0  0  0
    5.9200   -1.8800   -0.6870 C   0  0  0  0  0  0  0  0  0  0  0  0
    4.7070   -2.0970   -1.3040 C   0  0  0  0  0  0  0  0  0  0  0  0
    4.6720   -3.0460   -2.1430 O   0  0  0  0  0  0  0  0  0  0  0  0
    3.6350   -1.3670   -1.0430 O   0  0  0  0  0  0  0  0  0  0  0  0
    3.6550   -0.3770   -0.1720 C   0  0  0  0  0  0  0  0  0  0  0  0
   -2.0630    1.4090   -0.6260 N   0  0  0  0  0  0  0  0  0  0  0  0
   -3.3610    1.0270   -0.1210 C   0  0  0  0  0  0  0  0  0  0  0  0
   -4.1980    1.9660    0.1870 C   0  0  0  0  0  0  0  0  0  0  0  0
   -5.5450    1.9010    0.7060 C   0  0  0  0  0  0  0  0  0  0  0  0
  1  2  2  0
  2  3  1  0
  2 21  1  0
  3  4  1  0
  3  5  2  0
  5  6  1  0
  6  7  1  1
  6 20  1  0
  7  8  1  0
  8  9  1  0
  9 10  2  0
  9 19  1  0
 10 11  1  0
 11 12  2  0
 12 13  1  0
 13 14  1  0
 13 19  2  0
 14 15  2  0
 15 16  1  0
 16 17  2  0
 16 18  1  0
 18 19  1  0
 20 21  1  0
 21 22  2  3
 22 23  1  0
M  END
