
     RDKit          3D

 23 25  0  0  0  0  0  0  0  0999 V2000
    0.0270   -3.7790   -0.1350 C   0  0  0  0  0  0  0  0  0  0  0  0
    0.6910   -2.4500    0.1130 C   0  0  0  0  0  0  0  0  0  0  0  0
   -0.2740   -1.3360    0.1580 C   0  0  0  0  0  0  0  0  0  0  0  0
   -1.5970   -1.4690   -0.0020 N   0  0  0  0  0  0  0  0  0  0  0  0
   -2.4500   -0.4200    0.0470 C   0  0  0  0  0  0  0  0  0  0  0  0
   -1.9910    0.8740    0.2690 C   0  0  0  0  0  0  0  0  0  0  0  0
   -0.6270    1.0250    0.4350 C   0  0  0  0  0  0  0  0  0  0  0  0
   -0.1940    2.1980    0.6380 O   0  0  0  0  0  0  0  0  0  0  0  0
    0.2140   -0.0700    0.3800 C   0  0  0  0  0  0  0  0  0  0  0  0
    1.6480    0.2030    0.5700 C   0  0  0  0  0  0  0  0  0  0  0  0
    2.1110    0.1690    1.7330 O   0  0  0  0  0  0  0  0  0  0  0  0
    2.4750    0.4900   -0.4800 O   0  0  0  0  0  0  0  0  0  0  0  0
    3.8280    0.7550   -0.3640 C   0  0  0  0  0  0  0  0  0  0  0  0
    4.5640    1.0270   -1.4540 C   0  0  0  0  0  0  0  0  0  0  0  0
    5.9390    1.2550   -0.9680 C   0  0  0  0  0  0  0  0  0  0  0  0
    5.8980    1.0850    0.4850 C   0  0  0  0  0  0  0  0  0  0  0  0
    4.6550    0.7920    0.8300 C   0  0  0  0  0  0  0  0  0  0  0  0
   -2.5190    2.0860    0.3740 C   0  0  0  0  0  0  0  0  0  0  0  0
   -3.8740    2.6280    0.3010 C   0  0  0  0  0  0  0  0  0  0  0  0
   -5.0900    2.1380    0.1050 C   0  0  0  0  0  0  0  0  0  0  0  0
   -5.6080    0.7980   -0.1300 C   0  0  0  0  0  0  0  0  0  0  0  0
   -5.0200   -0.3890   -0.2250 C   0  0  0  0  0  0  0  0  0  0  0  0
   -3.6590   -0.9010   -0.1470 C   0  0  0  0  0  0  0  0  0  0  0  0
  1  2  1  0
  2  3  1  0
  3  4  1  0
  3  9  2  0
  4  5  1  0
  5  6  1  0
  5 23  2  0
  6  7  1  0
  6 18  2  0
  7  8  2  0
  7  9  1  0
  9 10  1  0
 10 11  2  0
 10 12  1  0
 12 13  1  0
 13 14  2  0
 13 17  1  0
 14 15  1  0
 15 16  1  0
 16 17  2  0
 18 19  1  0
 19 20  2  0
 20 21  1  0
 21 22  2  0
 22 23  1  0
M  END
