
     RDKit          3D

 23 25  0  0  0  0  0  0  0  0999 V2000
    5.1100    3.4070   -0.2950 C   0  0  0  0  0  0  0  0  0  0  0  0
    4.8710    2.1000   -0.3990 C   0  0  0  0  0  0  0  0  0  0  0  0
    3.7220    1.4560    0.2900 C   0  0  0  0  0  0  0  0  0  0  0  0
    2.8510    0.8440   -0.6520 O   0  0  0  0  0  0  0  0  0  0  0  0
    1.7230    0.1920   -0.2170 C   0  0  0  0  0  0  0  0  0  0  0  0
    1.6820   -1.1140   -0.2840 C   0  0  0  0  0  0  0  0  0  0  0  0
    2.8190   -1.9350   -0.8170 C   0  0  0  0  0  0  0  0  0  0  0  0
    2.7150   -3.1670    0.0760 C   0  0  0  0  0  0  0  0  0  0  0  0
    1.2340   -3.3850    0.1650 C   0  0  0  0  0  0  0  0  0  0  0  0
    0.6170   -2.0570    0.1170 C   0  0  0  0  0  0  0  0  0  0  0  0
   -0.6370   -1.7680    0.3770 C   0  0  0  0  0  0  0  0  0  0  0  0
   -1.2500   -0.5010    0.3310 N   0  0  0  0  0  0  0  0  0  0  0  0
   -0.5830    0.7700    0.5040 C   0  0  0  0  0  0  0  0  0  0  0  0
    0.6720    1.1030    0.2840 C   0  0  0  0  0  0  0  0  0  0  0  0
   -1.3630    1.9290    0.9680 C   0  0  0  0  0  0  0  0  0  0  0  0
   -2.7200    1.8440    0.3190 C   0  0  0  0  0  0  0  0  0  0  0  0
   -3.3180    2.8550   -0.0800 O   0  0  0  0  0  0  0  0  0  0  0  0
   -3.3870    0.5330    0.1370 C   0  0  0  0  0  0  0  0  0  0  0  0
   -4.8260    0.4840   -0.0120 C   0  0  0  0  0  0  0  0  0  0  0  0
   -5.6320    1.7650    0.0010 C   0  0  0  0  0  0  0  0  0  0  0  0
   -5.4810   -0.5600   -0.1570 O   0  0  0  0  0  0  0  0  0  0  0  0
   -2.6530   -0.5640    0.1460 C   0  0  0  0  0  0  0  0  0  0  0  0
   -3.2950   -1.8980   -0.1180 C   0  0  0  0  0  0  0  0  0  0  0  0
  1  2  2  0
  2  3  1  0
  3  4  1  0
  4  5  1  0
  5  6  2  0
  5 14  1  0
  6  7  1  0
  6 10  1  0
  7  8  1  0
  8  9  1  0
  9 10  1  0
 10 11  2  0
 11 12  1  0
 12 13  1  0
 12 22  1  0
 13 14  2  0
 13 15  1  0
 15 16  1  0
 16 17  2  0
 16 18  1  0
 18 19  1  0
 18 22  2  0
 19 20  1  0
 19 21  2  0
 22 23  1  0
M  END
