
     RDKit          3D

 23 25  0  0  0  0  0  0  0  0999 V2000
   -7.2980   -1.2320    0.0410 C   0  0  0  0  0  0  0  0  0  0  0  0
   -5.8490   -0.9200   -0.0700 C   0  0  0  0  0  0  0  0  0  0  0  0
   -4.8660   -1.8630    0.1440 C   0  0  0  0  0  0  0  0  0  0  0  0
   -3.5300   -1.5330    0.0300 C   0  0  0  0  0  0  0  0  0  0  0  0
   -3.1120   -0.2620   -0.2970 C   0  0  0  0  0  0  0  0  0  0  0  0
   -1.6810    0.0680   -0.4130 C   0  0  0  0  0  0  0  0  0  0  0  0
   -1.2780    1.2020   -0.7060 O   0  0  0  0  0  0  0  0  0  0  0  0
   -0.7240   -0.9140   -0.1890 O   0  0  0  0  0  0  0  0  0  0  0  0
    0.6440   -0.6740   -0.2800 C   0  0  0  0  0  0  0  0  0  0  0  0
    1.4340   -0.2860    0.6820 C   0  0  0  0  0  0  0  0  0  0  0  0
    2.8410   -0.1350    0.2000 C   0  0  0  0  0  0  0  0  0  0  0  0
    3.8230    0.2420    0.9680 C   0  0  0  0  0  0  0  0  0  0  0  0
    5.2090    0.4250    0.6320 C   0  0  0  0  0  0  0  0  0  0  0  0
    6.1380    0.8220    1.5230 C   0  0  0  0  0  0  0  0  0  0  0  0
    7.4490    0.9170    0.8880 C   0  0  0  0  0  0  0  0  0  0  0  0
    7.2190    0.5300   -0.5040 C   0  0  0  0  0  0  0  0  0  0  0  0
    5.9110    0.2510   -0.6230 C   0  0  0  0  0  0  0  0  0  0  0  0
    2.7570   -0.4870   -1.1620 N   0  0  0  0  0  0  0  0  0  0  0  0
    1.3920   -0.8300   -1.4950 C   0  0  0  0  0  0  0  0  0  0  0  0
    0.9980   -1.1900   -2.6500 O   0  0  0  0  0  0  0  0  0  0  0  0
   -4.0910    0.6820   -0.5120 C   0  0  0  0  0  0  0  0  0  0  0  0
   -3.6860    2.0540   -0.8650 C   0  0  0  0  0  0  0  0  0  0  0  0
   -5.4270    0.3530   -0.3990 C   0  0  0  0  0  0  0  0  0  0  0  0
  1  2  1  0
  2  3  2  0
  2 23  1  0
  3  4  1  0
  4  5  2  0
  5  6  1  0
  5 21  1  0
  6  7  2  0
  6  8  1  0
  8  9  1  0
  9 10  2  0
  9 19  1  0
 10 11  1  0
 11 12  2  3
 11 18  1  0
 12 13  1  0
 13 14  2  0
 13 17  1  0
 14 15  1  0
 15 16  1  0
 16 17  2  0
 18 19  1  0
 19 20  2  0
 21 22  1  0
 21 23  2  0
M  END
