
     RDKit          3D

 12 12  0  0  0  0  0  0  0  0999 V2000
    3.4080    0.4380   -0.2190 O   0  0  0  0  0  0  0  0  0  0  0  0
    2.3670   -0.3180   -0.7320 C   0  0  0  0  0  0  0  0  0  0  0  0
    1.0880   -0.1190    0.0930 C   0  0  1  0  0  0  0  0  0  0  0  0
    0.7710    1.2040    0.0370 O   0  0  0  0  0  0  0  0  0  0  0  0
   -0.4810    1.5500    0.4440 C   0  0  1  0  0  0  0  0  0  0  0  0
   -0.7090    2.8810    0.0290 O   0  0  0  0  0  0  0  0  0  0  0  0
   -1.5730    0.7180   -0.2150 C   0  0  2  0  0  0  0  0  0  0  0  0
   -2.8150    1.1350    0.1740 O   0  0  0  0  0  0  0  0  0  0  0  0
   -1.2700   -0.7210    0.2100 C   0  0  1  0  0  0  0  0  0  0  0  0
   -2.2710   -1.5910   -0.1330 O   0  0  0  0  0  0  0  0  0  0  0  0
    0.0550   -1.0420   -0.4860 C   0  0  2  0  0  0  0  0  0  0  0  0
    0.3830   -2.3490   -0.2310 O   0  0  0  0  0  0  0  0  0  0  0  0
  1  2  1  0
  3  2  1  6
  3  4  1  0
  3 11  1  0
  4  5  1  0
  5  6  1  6
  5  7  1  0
  7  8  1  1
  7  9  1  0
  9 10  1  6
  9 11  1  0
 11 12  1  1
M  END
