
     RDKit          3D

 11 10  0  0  0  0  0  0  0  0999 V2000
    1.8580    2.1730   -0.1130 C   0  0  0  0  0  0  0  0  0  0  0  0
    0.9830    1.3600    0.5770 O   0  0  0  0  0  0  0  0  0  0  0  0
    0.9710    0.0880    0.0150 C   0  0  0  0  0  0  0  0  0  0  0  0
    0.0240   -0.8410    0.7400 C   0  0  2  0  0  0  0  0  0  0  0  0
    0.4380   -0.9080    2.0850 O   0  0  0  0  0  0  0  0  0  0  0  0
    0.1810   -2.2340    0.1350 C   0  0  0  0  0  0  0  0  0  0  0  0
    1.5200   -2.6150    0.2170 O   0  0  0  0  0  0  0  0  0  0  0  0
   -1.3640   -0.3300    0.6250 C   0  0  1  0  0  0  0  0  0  0  0  0
   -2.2910   -1.1200    1.3130 O   0  0  0  0  0  0  0  0  0  0  0  0
   -1.4480    0.9760    1.0780 O   0  0  0  0  0  0  0  0  0  0  0  0
   -1.9310    1.8570    0.0990 C   0  0  0  0  0  0  0  0  0  0  0  0
  1  2  1  0
  2  3  1  0
  3  4  1  0
  4  5  1  1
  4  6  1  0
  4  8  1  0
  6  7  1  0
  8  9  1  1
  8 10  1  0
 10 11  1  0
M  END
