
     RDKit          3D

 20 22  0  0  0  0  0  0  0  0999 V2000
   -1.2510    3.7270   -0.3300 N   0  0  0  0  0  0  0  0  0  0  0  0
   -0.4200    2.6440    0.1820 C   0  0  0  0  0  0  0  0  0  0  0  0
   -0.9130    1.3420   -0.3510 C   0  0  2  0  0  0  0  0  0  0  0  0
   -2.3360    1.1360    0.0740 C   0  0  0  0  0  0  0  0  0  0  0  0
   -3.0440    2.1100    0.4020 O   0  0  0  0  0  0  0  0  0  0  0  0
   -2.8490   -0.2220    0.0890 C   0  0  0  0  0  0  0  0  0  0  0  0
   -2.0090   -1.2230   -0.0350 C   0  0  0  0  0  0  0  0  0  0  0  0
   -2.5580   -2.5550   -0.0160 N   0  0  0  0  0  0  0  0  0  0  0  0
   -3.9270   -2.7930    0.1280 N   0  0  0  0  0  0  0  0  0  0  0  0
   -4.8020   -1.6840    0.2590 C   0  0  0  0  0  0  0  0  0  0  0  0
   -6.0400   -1.8510    0.3910 O   0  0  0  0  0  0  0  0  0  0  0  0
   -4.2530   -0.3840    0.2390 N   0  0  0  0  0  0  0  0  0  0  0  0
   -0.6050   -1.0360   -0.1850 N   0  0  0  0  0  0  0  0  0  0  0  0
   -0.0630    0.2030    0.2500 C   0  0  1  0  0  0  0  0  0  0  0  0
    1.3540    0.4850   -0.0110 C   0  0  0  0  0  0  0  0  0  0  0  0
    2.3550   -0.5270    0.4960 C   0  0  2  0  0  0  0  0  0  0  0  0
    3.7190    0.0610    0.0920 C   0  0  0  0  0  0  0  0  0  0  0  0
    4.6970   -1.0750    0.2030 C   0  0  0  0  0  0  0  0  0  0  0  0
    4.2250   -2.1730   -0.7120 C   0  0  0  0  0  0  0  0  0  0  0  0
    2.4040   -2.0300   -0.5320 S   0  0  0  0  0  0  0  0  0  0  0  0
  1  2  1  0
  3  2  1  1
  3  4  1  0
  3 14  1  0
  4  5  2  0
  4  6  1  0
  6  7  2  0
  6 12  1  0
  7  8  1  0
  7 13  1  0
  8  9  1  0
  9 10  1  0
 10 11  2  0
 10 12  1  0
 13 14  1  0
 14 15  1  6
 16 15  1  6
 16 17  1  0
 16 20  1  0
 17 18  1  0
 18 19  1  0
 19 20  1  0
M  CHG  1   1   1
M  END
