
     RDKit          3D

 11 11  0  0  0  0  0  0  0  0999 V2000
   -2.8400    0.7560    1.3510 O   0  0  0  0  0  0  0  0  0  0  0  0
   -2.7100   -0.4860    0.6930 C   0  0  0  0  0  0  0  0  0  0  0  0
   -1.5090   -0.4360   -0.2540 C   0  0  1  0  0  0  0  0  0  0  0  0
   -1.7090    0.5570   -1.1770 O   0  0  0  0  0  0  0  0  0  0  0  0
   -0.2940   -0.2610    0.5950 C   0  0  0  0  0  0  0  0  0  0  0  0
    0.9900   -0.1910   -0.1680 C   0  0  2  0  0  0  0  0  0  0  0  0
    1.2650   -1.3070   -0.9200 O   0  0  0  0  0  0  0  0  0  0  0  0
    2.1120   -0.0370    0.8670 C   0  0  0  0  0  0  0  0  0  0  0  0
    2.7640    1.1350    0.4780 O   0  0  0  0  0  0  0  0  0  0  0  0
    2.5410    1.1190   -0.9020 C   0  0  0  0  0  0  0  0  0  0  0  0
    1.1440    0.9340   -0.9340 O   0  0  0  0  0  0  0  0  0  0  0  0
  1  2  1  0
  2  3  1  0
  3  4  1  6
  3  5  1  0
  5  6  1  0
  6  7  1  6
  6  8  1  0
  6 11  1  0
  8  9  1  0
  9 10  1  0
 10 11  1  0
M  END
