
     RDKit          3D

 11 10  0  0  0  0  0  0  0  0999 V2000
   -1.0850   -0.6390    1.4950 C   0  0  0  0  0  0  0  0  0  0  0  0
   -0.3980   -0.0220    0.2840 C   0  0  1  0  0  0  0  0  0  0  0  0
   -1.1880   -0.5240   -0.9320 C   0  0  0  0  0  0  0  0  0  0  0  0
   -2.5220   -0.1160   -0.8530 O   0  0  0  0  0  0  0  0  0  0  0  0
   -0.5890    1.4460    0.3630 C   0  0  0  0  0  0  0  0  0  0  0  0
   -1.9850    1.6890    0.3470 O   0  0  0  0  0  0  0  0  0  0  0  0
    0.9840   -0.5170    0.2350 C   0  0  1  0  0  0  0  0  0  0  0  0
    0.9530   -1.9120    0.1240 O   0  0  0  0  0  0  0  0  0  0  0  0
    1.8650    0.0070   -0.8420 C   0  0  1  0  0  0  0  0  0  0  0  0
    2.0140    1.3620   -0.8860 O   0  0  0  0  0  0  0  0  0  0  0  0
    3.1350   -0.5600   -0.7240 O   0  0  0  0  0  0  0  0  0  0  0  0
  2  1  1  1
  2  3  1  0
  2  5  1  0
  2  7  1  0
  3  4  1  0
  5  6  1  0
  7  8  1  6
  7  9  1  0
  9 10  1  1
  9 11  1  0
M  END
