
     RDKit          3D

 32 33  0  0  0  0  0  0  0  0999 V2000
   -6.2050   -0.0170   -1.5460 O   0  0  0  0  0  0  0  0  0  0  0  0
   -4.9830   -0.2520   -1.3030 C   0  0  0  0  0  0  0  0  0  0  0  0
   -3.9820   -0.0760   -2.3680 C   0  0  0  0  0  0  0  0  0  0  0  0
   -2.6780   -0.2630   -1.8710 O   0  0  0  0  0  0  0  0  0  0  0  0
   -2.2000    0.6030   -0.9070 C   0  0  0  0  0  0  0  0  0  0  0  0
   -2.8900    1.5700   -0.4490 O   0  0  0  0  0  0  0  0  0  0  0  0
   -0.8170    0.4400   -0.3420 C   0  0  2  0  0  0  0  0  0  0  0  0
   -0.0510    1.5970   -0.6400 N   0  0  0  0  0  0  0  0  0  0  0  0
    0.9670    1.3090   -1.3260 N   0  0  0  0  0  0  0  0  0  0  0  0
    0.9670   -0.1030   -1.5500 C   0  0  1  0  0  0  0  0  0  0  0  0
    0.8560   -0.3160   -3.0410 C   0  0  0  0  0  0  0  0  0  0  0  0
   -0.1440   -0.9110   -3.4970 O   0  0  0  0  0  0  0  0  0  0  0  0
    1.8330    0.1320   -3.9010 O   0  0  0  0  0  0  0  0  0  0  0  0
    2.2570   -0.7650   -1.1490 C   0  0  1  0  0  0  0  0  0  0  0  0
    3.2830   -0.1820   -1.9300 O   0  0  0  0  0  0  0  0  0  0  0  0
    2.5760   -0.5770    0.2900 C   0  0  0  0  0  0  0  0  0  0  0  0
    1.7690   -0.1870    1.2880 N   0  0  0  0  0  0  0  0  0  0  0  0
    2.4300   -0.1440    2.4050 O   0  0  0  0  0  0  0  0  0  0  0  0
    3.6750   -0.4980    2.1950 C   0  0  0  0  0  0  0  0  0  0  0  0
    4.6920   -0.5720    3.1680 O   0  0  0  0  0  0  0  0  0  0  0  0
    5.9130   -0.9540    2.7700 O   0  0  0  0  0  0  0  0  0  0  0  0
    6.4650    0.1750    1.5590 P   0  0  0  0  0  0  0  0  0  0  0  0
    6.9970   -0.6980    0.1560 O   0  0  0  0  0  0  0  0  0  0  0  0
    8.1140    1.3310    2.4520 P   0  0  0  0  0  0  0  0  0  0  0  0
    7.7950    1.4620    4.1540 O   0  0  0  0  0  0  0  0  0  0  0  0
    3.7780   -0.7670    0.8930 N   0  0  0  0  0  0  0  0  0  0  0  0
   -0.1360   -0.6280   -0.9080 O   0  0  0  0  0  0  0  0  0  0  0  0
   -4.6670   -0.6770    0.0040 N   0  0  0  0  0  0  0  0  0  0  0  0
   -5.7060   -0.8320    1.0270 C   0  0  0  0  0  0  0  0  0  0  0  0
   -6.5360    0.8320    1.2760 P   0  0  0  0  0  0  0  0  0  0  0  0
   -7.9670    0.8240    0.2760 O   0  0  0  0  0  0  0  0  0  0  0  0
   -7.0930    0.9070    2.9330 O   0  0  0  0  0  0  0  0  0  0  0  0
  1  2  2  0
  2  3  1  0
  2 28  1  0
  3  4  1  0
  4  5  1  0
  5  6  2  0
  7  5  1  6
  7  8  1  0
  7 27  1  0
  8  9  2  0
  9 10  1  0
 10 11  1  6
 10 14  1  0
 10 27  1  0
 11 12  2  0
 11 13  1  0
 14 15  1  6
 14 16  1  0
 16 17  2  0
 16 26  1  0
 17 18  1  0
 18 19  1  0
 19 20  1  0
 19 26  2  0
 20 21  1  0
 21 22  1  0
 22 23  1  0
 22 24  1  0
 24 25  1  0
 28 29  1  0
 29 30  1  0
 30 31  1  0
 30 32  1  0
M  END
