
     RDKit          3D

 31 32  0  0  0  0  0  0  0  0999 V2000
    0.7520   -1.8410   -0.0240 O   0  0  0  0  0  0  0  0  0  0  0  0
    1.9220   -1.4880   -0.2300 C   0  0  0  0  0  0  0  0  0  0  0  0
    2.8210   -2.5860   -0.5520 N   0  0  0  0  0  0  0  0  0  0  0  0
    2.2490   -4.2750   -0.6330 P   0  0  0  0  0  0  0  0  0  0  0  0
    2.5320   -4.9900   -2.1970 O   0  0  0  0  0  0  0  0  0  0  0  0
    3.0810   -5.1860    0.5910 O   0  0  0  0  0  0  0  0  0  0  0  0
    2.4270   -0.1370   -0.1750 C   0  0  0  0  0  0  0  0  0  0  0  0
    3.7200    0.1830   -0.4590 N   0  0  0  0  0  0  0  0  0  0  0  0
    3.8790    1.5050   -0.3110 C   0  0  0  0  0  0  0  0  0  0  0  0
    4.9760    2.1590   -0.4970 N   0  0  0  0  0  0  0  0  0  0  0  0
    4.9560    3.5150   -0.2990 O   0  0  0  0  0  0  0  0  0  0  0  0
    6.1320    4.2300    0.7740 P   0  0  0  0  0  0  0  0  0  0  0  0
    7.5300    3.2290    1.0020 O   0  0  0  0  0  0  0  0  0  0  0  0
    6.6090    5.7860    0.1500 O   0  0  0  0  0  0  0  0  0  0  0  0
    2.7190    1.9710    0.0530 O   0  0  0  0  0  0  0  0  0  0  0  0
    1.8210    0.9910    0.1420 N   0  0  0  0  0  0  0  0  0  0  0  0
    0.4720    1.1880    0.5320 C   0  0  0  0  0  0  0  0  0  0  0  0
    0.1220    2.3720    0.8250 O   0  0  0  0  0  0  0  0  0  0  0  0
   -0.4710    0.2250    0.6180 O   0  0  0  0  0  0  0  0  0  0  0  0
   -1.8110    0.3900    1.0120 C   0  0  2  0  0  0  0  0  0  0  0  0
   -2.0330   -0.5680    2.1150 C   0  0  0  0  0  0  0  0  0  0  0  0
   -1.7900   -0.2000    3.2810 O   0  0  0  0  0  0  0  0  0  0  0  0
   -2.5110   -1.8650    1.8200 N   0  0  0  0  0  0  0  0  0  0  0  0
   -2.7010   -2.3470    0.4780 C   0  0  0  0  0  0  0  0  0  0  0  0
   -2.6460   -1.3380   -0.5960 C   0  0  0  0  0  0  0  0  0  0  0  0
   -2.7200    0.0990   -0.1710 C   0  0  1  0  0  0  0  0  0  0  0  0
   -4.0020    0.5440    0.0160 O   0  0  0  0  0  0  0  0  0  0  0  0
   -4.4740    1.5370   -0.7610 C   0  0  0  0  0  0  0  0  0  0  0  0
   -6.2420    1.8900   -0.2560 P   0  0  0  0  0  0  0  0  0  0  0  0
   -6.3440    2.2590    1.4470 O   0  0  0  0  0  0  0  0  0  0  0  0
   -7.2410    0.5570   -0.6600 O   0  0  0  0  0  0  0  0  0  0  0  0
  1  2  2  0
  2  3  1  0
  2  7  1  0
  3  4  1  0
  4  5  1  0
  4  6  1  0
  7  8  2  0
  7 16  1  0
  8  9  1  0
  9 10  2  3
  9 15  1  0
 10 11  1  0
 11 12  1  0
 12 13  1  0
 12 14  1  0
 15 16  1  0
 16 17  1  0
 17 18  2  0
 17 19  1  0
 20 19  1  6
 20 21  1  0
 20 26  1  0
 21 22  2  0
 21 23  1  0
 23 24  1  0
 24 25  1  0
 25 26  1  0
 26 27  1  1
 27 28  1  0
 28 29  1  0
 29 30  1  0
 29 31  1  0
M  END
