
     RDKit          3D

 31 32  0  0  0  0  0  0  0  0999 V2000
   -2.3930   -0.7940    0.8740 O   0  0  0  0  0  0  0  0  0  0  0  0
   -2.2300    0.4060    1.2680 C   0  0  0  0  0  0  0  0  0  0  0  0
   -3.3590    1.1170    1.7140 N   0  0  0  0  0  0  0  0  0  0  0  0
   -4.7130    0.7020    1.8530 C   0  0  0  0  0  0  0  0  0  0  0  0
   -5.4230    0.1470    0.6980 C   0  0  0  0  0  0  0  0  0  0  0  0
   -4.7760   -0.6580   -0.0560 O   0  0  0  0  0  0  0  0  0  0  0  0
   -6.7230    0.4170    0.3640 O   0  0  0  0  0  0  0  0  0  0  0  0
   -7.3430   -0.2080   -0.7420 C   0  0  0  0  0  0  0  0  0  0  0  0
   -6.7690   -1.0590   -1.4680 O   0  0  0  0  0  0  0  0  0  0  0  0
   -8.6740    0.1470   -1.0440 N   0  0  0  0  0  0  0  0  0  0  0  0
   -9.6530   -0.5160   -2.3780 P   0  0  0  0  0  0  0  0  0  0  0  0
  -11.2530   -0.9600   -1.7960 O   0  0  0  0  0  0  0  0  0  0  0  0
   -8.8420   -1.8930   -3.0460 O   0  0  0  0  0  0  0  0  0  0  0  0
   -0.9420    0.9410    1.2370 N   0  0  0  0  0  0  0  0  0  0  0  0
    0.2180    0.3180    0.7220 C   0  0  0  0  0  0  0  0  0  0  0  0
    0.2430   -0.7570   -0.1080 N   0  0  0  0  0  0  0  0  0  0  0  0
    1.4990   -0.9670   -0.4960 O   0  0  0  0  0  0  0  0  0  0  0  0
    2.2910   -0.0800    0.0470 C   0  0  0  0  0  0  0  0  0  0  0  0
    1.5270    0.7510    0.8280 C   0  0  0  0  0  0  0  0  0  0  0  0
    2.3860    1.6620    1.4100 O   0  0  0  0  0  0  0  0  0  0  0  0
    3.7190    1.4270    1.0220 C   0  0  0  0  0  0  0  0  0  0  0  0
    4.6790    2.1030    1.4640 O   0  0  0  0  0  0  0  0  0  0  0  0
    3.7560    0.3560    0.0960 C   0  0  1  0  0  0  0  0  0  0  0  0
    4.6100   -0.7510    0.1320 N   0  0  0  0  0  0  0  0  0  0  0  0
    5.9980   -0.2560    0.0680 C   0  0  0  0  0  0  0  0  0  0  0  0
    6.8600   -1.0680   -1.3740 P   0  0  0  0  0  0  0  0  0  0  0  0
    6.6240   -0.0160   -2.7670 O   0  0  0  0  0  0  0  0  0  0  0  0
    8.5050   -1.3880   -1.1340 O   0  0  0  0  0  0  0  0  0  0  0  0
    9.2350   -0.7580    0.2520 P   0  0  0  0  0  0  0  0  0  0  0  0
    9.6220   -1.9440    1.4240 O   0  0  0  0  0  0  0  0  0  0  0  0
    8.5490    0.6800    0.8910 O   0  0  0  0  0  0  0  0  0  0  0  0
  1  2  2  0
  2  3  1  0
  2 14  1  0
  3  4  1  0
  4  5  1  0
  5  6  2  0
  5  7  1  0
  7  8  1  0
  8  9  2  0
  8 10  1  0
 10 11  1  0
 11 12  1  0
 11 13  1  0
 14 15  1  0
 15 16  2  0
 15 19  1  0
 16 17  1  0
 17 18  1  0
 18 19  2  0
 18 23  1  0
 19 20  1  0
 20 21  1  0
 21 22  2  0
 21 23  1  0
 23 24  1  1
 24 25  1  0
 25 26  1  0
 26 27  1  0
 26 28  1  0
 28 29  1  0
 29 30  1  0
 29 31  1  0
M  END
