
     RDKit          3D

 31 32  0  0  0  0  0  0  0  0999 V2000
    0.2050    1.2300    1.1290 N   0  0  0  0  0  0  0  0  0  0  0  0
   -0.4060    0.6220    0.1900 C   0  0  0  0  0  0  0  0  0  0  0  0
    0.1570   -0.6370   -0.2230 N   0  0  0  0  0  0  0  0  0  0  0  0
    1.5920   -0.7720   -0.2860 C   0  0  1  0  0  0  0  0  0  0  0  0
    2.1940   -1.6940    0.7210 C   0  0  0  0  0  0  0  0  0  0  0  0
    3.5790   -1.6880    0.5190 O   0  0  0  0  0  0  0  0  0  0  0  0
    4.3890   -2.7280    1.6370 P   0  0  0  0  0  0  0  0  0  0  0  0
    5.1350   -4.0510    0.7600 O   0  0  0  0  0  0  0  0  0  0  0  0
    5.5930   -1.8920    2.5520 O   0  0  0  0  0  0  0  0  0  0  0  0
    5.6580   -0.2100    2.1620 P   0  0  0  0  0  0  0  0  0  0  0  0
    5.1400    0.0880    0.5270 O   0  0  0  0  0  0  0  0  0  0  0  0
    7.2040    0.4850    2.4760 O   0  0  0  0  0  0  0  0  0  0  0  0
    2.1270   -0.9410   -1.6110 N   0  0  0  0  0  0  0  0  0  0  0  0
    1.6050   -2.3310   -2.5240 P   0  0  0  0  0  0  0  0  0  0  0  0
    1.0170   -2.3340   -3.9390 O   0  0  0  0  0  0  0  0  0  0  0  0
   -0.6650   -1.7630   -0.5820 C   0  0  0  0  0  0  0  0  0  0  0  0
   -0.1750   -2.8650   -0.2790 O   0  0  0  0  0  0  0  0  0  0  0  0
   -1.9360   -1.7410   -1.2270 N   0  0  0  0  0  0  0  0  0  0  0  0
   -2.7220   -0.6070   -1.4950 C   0  0  0  0  0  0  0  0  0  0  0  0
   -3.6240   -0.7980   -2.3710 O   0  0  0  0  0  0  0  0  0  0  0  0
   -2.7380    0.7730   -0.9800 C   0  0  2  0  0  0  0  0  0  0  0  0
   -3.9690    0.8360   -0.1280 C   0  0  0  0  0  0  0  0  0  0  0  0
   -3.9740    0.0530    0.8760 O   0  0  0  0  0  0  0  0  0  0  0  0
   -5.0440    1.6320   -0.3310 O   0  0  0  0  0  0  0  0  0  0  0  0
   -6.1220    1.5770    0.5550 C   0  0  0  0  0  0  0  0  0  0  0  0
   -6.1210    0.7960    1.5530 O   0  0  0  0  0  0  0  0  0  0  0  0
   -7.2480    2.3710    0.3950 O   0  0  0  0  0  0  0  0  0  0  0  0
   -2.9410    1.7070   -2.0020 O   0  0  0  0  0  0  0  0  0  0  0  0
   -2.7610    2.9160   -1.3390 C   0  0  0  0  0  0  0  0  0  0  0  0
   -1.7540    2.6860   -0.2360 C   0  0  0  0  0  0  0  0  0  0  0  0
   -1.5850    1.2510   -0.3330 N   0  0  0  0  0  0  0  0  0  0  0  0
  1  2  2  0
  2  3  1  0
  2 31  1  0
  3  4  1  0
  3 16  1  0
  4  5  1  1
  4 13  1  0
  5  6  1  0
  6  7  1  0
  7  8  1  0
  7  9  1  0
  9 10  1  0
 10 11  1  0
 10 12  1  0
 13 14  1  0
 14 15  2  0
 16 17  2  0
 16 18  1  0
 18 19  1  0
 19 20  2  0
 19 21  1  0
 21 22  1  1
 21 28  1  0
 21 31  1  0
 22 23  2  0
 22 24  1  0
 24 25  1  0
 25 26  2  0
 25 27  1  0
 28 29  1  0
 29 30  1  0
 30 31  1  0
M  END
