
     RDKit          3D

 31 32  0  0  0  0  0  0  0  0999 V2000
    9.1650    1.0020   -0.1810 N   0  0  0  0  0  0  0  0  0  0  0  0
    8.2620   -0.0060   -0.2330 O   0  0  0  0  0  0  0  0  0  0  0  0
    7.2670    0.3290    0.6030 O   0  0  0  0  0  0  0  0  0  0  0  0
    6.1940   -0.5120    0.8160 C   0  0  0  0  0  0  0  0  0  0  0  0
    6.1050   -1.6230    0.2370 O   0  0  0  0  0  0  0  0  0  0  0  0
    4.8830    0.0130    1.9660 P   0  0  0  0  0  0  0  0  0  0  0  0
    3.6840   -1.2230    2.1080 O   0  0  0  0  0  0  0  0  0  0  0  0
    4.2040    1.5250    1.4620 O   0  0  0  0  0  0  0  0  0  0  0  0
    3.8680    1.4910   -0.2330 P   0  0  0  0  0  0  0  0  0  0  0  0
    4.5900    0.1340   -1.0150 O   0  0  0  0  0  0  0  0  0  0  0  0
    2.0320    1.5150   -0.5050 C   0  0  0  0  0  0  0  0  0  0  0  0
    1.3780    0.2540    0.0180 C   0  0  0  0  0  0  0  0  0  0  0  0
   -0.0350    0.3220   -0.2150 N   0  0  0  0  0  0  0  0  0  0  0  0
   -0.9360   -0.7180    0.1650 C   0  0  0  0  0  0  0  0  0  0  0  0
   -0.4550   -1.7320    0.7290 O   0  0  0  0  0  0  0  0  0  0  0  0
   -2.3270   -0.5920   -0.0930 N   0  0  0  0  0  0  0  0  0  0  0  0
   -3.3130   -1.5650    0.2420 C   0  0  0  0  0  0  0  0  0  0  0  0
   -3.0380   -2.9020    0.7040 N   0  0  0  0  0  0  0  0  0  0  0  0
   -4.2790   -3.8400    1.6230 P   0  0  0  0  0  0  0  0  0  0  0  0
   -4.3750   -3.5760    3.1490 O   0  0  0  0  0  0  0  0  0  0  0  0
   -4.5000   -1.0820    0.0750 N   0  0  0  0  0  0  0  0  0  0  0  0
   -4.4220    0.2880   -0.3970 C   0  0  2  0  0  0  0  0  0  0  0  0
   -4.8820    1.1180    0.6470 O   0  0  0  0  0  0  0  0  0  0  0  0
   -6.1710    0.9320    1.0940 C   0  0  0  0  0  0  0  0  0  0  0  0
   -6.9150    0.0450    0.5850 O   0  0  0  0  0  0  0  0  0  0  0  0
   -6.7370    1.6890    2.1190 O   0  0  0  0  0  0  0  0  0  0  0  0
   -5.1830    0.4860   -1.6850 C   0  0  0  0  0  0  0  0  0  0  0  0
   -4.2180    0.1740   -2.6790 O   0  0  0  0  0  0  0  0  0  0  0  0
   -2.9430    0.3910   -2.1910 C   0  0  0  0  0  0  0  0  0  0  0  0
   -1.9170    0.4550   -2.9070 O   0  0  0  0  0  0  0  0  0  0  0  0
   -2.9670    0.5330   -0.7340 C   0  0  2  0  0  0  0  0  0  0  0  0
  1  2  1  0
  2  3  1  0
  3  4  1  0
  4  5  2  0
  4  6  1  0
  6  7  1  0
  6  8  1  0
  8  9  1  0
  9 10  1  0
  9 11  1  0
 11 12  1  0
 12 13  1  0
 13 14  1  0
 14 15  2  0
 14 16  1  0
 16 17  1  0
 31 16  1  1
 17 18  1  0
 17 21  2  0
 18 19  1  0
 19 20  2  0
 21 22  1  0
 22 23  1  1
 22 27  1  0
 22 31  1  0
 23 24  1  0
 24 25  2  0
 24 26  1  0
 27 28  1  0
 28 29  1  0
 29 30  2  0
 29 31  1  0
M  END
