
     RDKit          3D

 31 32  0  0  0  0  0  0  0  0999 V2000
    5.4490   -0.1750    0.6740 N   0  0  0  0  0  0  0  0  0  0  0  0
    5.7820   -0.0100   -0.6120 O   0  0  0  0  0  0  0  0  0  0  0  0
    4.6610   -0.7640   -1.7020 P   0  0  0  0  0  0  0  0  0  0  0  0
    5.5630   -1.8440   -2.7210 O   0  0  0  0  0  0  0  0  0  0  0  0
    3.1490   -1.8060   -0.5240 P   0  0  0  0  0  0  0  0  0  0  0  0
    3.0660   -3.4450   -1.0440 O   0  0  0  0  0  0  0  0  0  0  0  0
    1.4320   -1.0620   -0.8290 C   0  0  0  0  0  0  0  0  0  0  0  0
    1.4910    0.3560   -0.4030 C   0  0  0  0  0  0  0  0  0  0  0  0
    0.4440    1.1630   -0.4960 O   0  0  0  0  0  0  0  0  0  0  0  0
   -0.7370    0.9890    0.1300 C   0  0  1  0  0  0  0  0  0  0  0  0
   -1.4720   -0.1670   -0.5010 C   0  0  0  0  0  0  0  0  0  0  0  0
   -1.8790   -1.2220    0.3420 N   0  0  0  0  0  0  0  0  0  0  0  0
   -2.8840   -2.1260   -0.1420 C   0  0  0  0  0  0  0  0  0  0  0  0
   -3.3880   -1.9790   -1.2870 O   0  0  0  0  0  0  0  0  0  0  0  0
   -3.3250   -3.1820    0.6400 O   0  0  0  0  0  0  0  0  0  0  0  0
   -4.3090   -4.0600    0.1570 C   0  0  0  0  0  0  0  0  0  0  0  0
   -4.7650   -5.1430    0.9520 N   0  0  0  0  0  0  0  0  0  0  0  0
   -4.8090   -3.9130   -0.9830 O   0  0  0  0  0  0  0  0  0  0  0  0
   -1.3640   -1.4470    1.6230 C   0  0  0  0  0  0  0  0  0  0  0  0
   -1.4510   -2.5630    2.1790 O   0  0  0  0  0  0  0  0  0  0  0  0
   -0.7300   -0.3600    2.2850 N   0  0  0  0  0  0  0  0  0  0  0  0
   -0.6520    0.9110    1.6040 C   0  0  0  0  0  0  0  0  0  0  0  0
   -0.5030    2.0010    2.2590 N   0  0  0  0  0  0  0  0  0  0  0  0
   -0.4270    3.2350    1.5500 C   0  0  0  0  0  0  0  0  0  0  0  0
    0.2270    4.1900    2.0410 O   0  0  0  0  0  0  0  0  0  0  0  0
   -1.1350    3.2920    0.2710 C   0  0  1  0  0  0  0  0  0  0  0  0
   -0.4040    3.9920   -0.7090 O   0  0  0  0  0  0  0  0  0  0  0  0
   -1.1770    5.4340   -1.2150 P   0  0  0  0  0  0  0  0  0  0  0  0
   -0.0950    6.7320   -1.5210 O   0  0  0  0  0  0  0  0  0  0  0  0
   -2.5120    5.8830   -0.2210 O   0  0  0  0  0  0  0  0  0  0  0  0
   -1.5230    2.1120   -0.2550 O   0  0  0  0  0  0  0  0  0  0  0  0
  1  2  1  0
  2  3  1  0
  3  4  1  0
  3  5  1  0
  5  6  1  0
  5  7  1  0
  7  8  1  0
  8  9  1  0
 10  9  1  6
 10 11  1  0
 10 22  1  0
 10 31  1  0
 11 12  1  0
 12 13  1  0
 12 19  1  0
 13 14  2  0
 13 15  1  0
 15 16  1  0
 16 17  1  0
 16 18  2  0
 19 20  2  0
 19 21  1  0
 21 22  1  0
 22 23  2  0
 23 24  1  0
 24 25  2  0
 24 26  1  0
 26 27  1  6
 26 31  1  0
 27 28  1  0
 28 29  1  0
 28 30  1  0
M  END
