
     RDKit          3D

 39 42  0  0  0  0  0  0  0  0999 V2000
    6.3830    0.4000   -3.4100 C   0  0  0  0  0  0  0  0  0  0  0  0
    5.3690    1.1360   -2.5510 C   0  0  1  0  0  0  0  0  0  0  0  0
    6.0450    2.3050   -1.8510 C   0  0  0  0  0  0  0  0  0  0  0  0
    4.2950    1.6650   -3.4760 C   0  0  0  0  0  0  0  0  0  0  0  0
    4.8070    0.2380   -1.5930 O   0  0  0  0  0  0  0  0  0  0  0  0
    5.6040   -0.4050   -0.6590 C   0  0  0  0  0  0  0  0  0  0  0  0
    6.8360   -0.1630   -0.6940 O   0  0  0  0  0  0  0  0  0  0  0  0
    5.1050   -1.2960    0.3040 N   0  0  0  0  0  0  0  0  0  0  0  0
    5.8530   -2.0070    1.3080 C   0  0  0  0  0  0  0  0  0  0  0  0
    5.1180   -3.3280    1.3360 C   0  0  0  0  0  0  0  0  0  0  0  0
    3.6710   -2.8910    1.3010 C   0  0  0  0  0  0  0  0  0  0  0  0
    3.6880   -1.6570    0.4430 C   0  0  1  0  0  0  0  0  0  0  0  0
    2.9370   -0.5210    1.0210 C   0  0  0  0  0  0  0  0  0  0  0  0
    3.5570    0.5590    1.3240 O   0  0  0  0  0  0  0  0  0  0  0  0
    1.5410   -0.6270    1.2360 N   0  0  0  0  0  0  0  0  0  0  0  0
    0.7770    0.4740    1.8100 C   0  0  0  0  0  0  0  0  0  0  0  0
   -0.4650    0.7440    1.0070 C   0  0  0  0  0  0  0  0  0  0  0  0
   -1.3400   -0.4990    0.8990 C   0  0  2  0  0  0  0  0  0  0  0  0
   -2.2770   -0.1930   -0.2200 C   0  0  0  0  0  0  0  0  0  0  0  0
   -2.6040   -1.1290   -1.0350 O   0  0  0  0  0  0  0  0  0  0  0  0
   -2.8550    1.0590   -0.4860 N   0  0  0  0  0  0  0  0  0  0  0  0
   -3.7590    1.2560   -1.6020 C   0  0  2  0  0  0  0  0  0  0  0  0
   -3.1730    2.1920   -2.6010 C   0  0  0  0  0  0  0  0  0  0  0  0
   -2.0370    2.7190   -2.4480 O   0  0  0  0  0  0  0  0  0  0  0  0
   -3.8690    2.5200   -3.7530 O   0  0  0  0  0  0  0  0  0  0  0  0
   -5.1430    1.6670   -1.2000 C   0  0  2  0  0  0  0  0  0  0  0  0
   -5.8260    0.6500   -0.3190 C   0  0  0  0  0  0  0  0  0  0  0  0
   -7.3170    0.8610   -0.4960 C   0  0  0  0  0  0  0  0  0  0  0  0
   -7.4850    1.4850   -1.8420 C   0  0  0  0  0  0  0  0  0  0  0  0
   -6.0840    1.7240   -2.3850 C   0  0  0  0  0  0  0  0  0  0  0  0
   -2.1160   -0.7010    2.1350 C   0  0  0  0  0  0  0  0  0  0  0  0
   -3.1900    0.1010    2.5320 C   0  0  0  0  0  0  0  0  0  0  0  0
   -3.8890   -0.1270    3.7160 C   0  0  0  0  0  0  0  0  0  0  0  0
   -3.5500   -1.1520    4.5400 C   0  0  0  0  0  0  0  0  0  0  0  0
   -4.4840   -1.5020    6.1740 Br  0  0  0  0  0  0  0  0  0  0  0  0
   -2.4980   -1.9600    4.1770 C   0  0  0  0  0  0  0  0  0  0  0  0
   -1.8150   -1.7310    3.0150 C   0  0  0  0  0  0  0  0  0  0  0  0
   -0.5780   -1.7040    0.5000 C   0  0  0  0  0  0  0  0  0  0  0  0
    0.8390   -1.8160    0.8980 C   0  0  0  0  0  0  0  0  0  0  0  0
  2  1  1  6
  2  3  1  0
  2  4  1  0
  2  5  1  0
  5  6  1  0
  6  7  2  0
  6  8  1  0
  8  9  1  0
  8 12  1  0
  9 10  1  0
 10 11  1  0
 11 12  1  0
 12 13  1  1
 13 14  2  0
 13 15  1  0
 15 16  1  0
 15 39  1  0
 16 17  1  0
 17 18  1  0
 18 19  1  6
 18 31  1  0
 18 38  1  0
 19 20  2  0
 19 21  1  0
 22 21  1  1
 22 23  1  0
 22 26  1  0
 23 24  2  0
 23 25  1  0
 26 27  1  1
 26 30  1  0
 27 28  1  0
 28 29  1  0
 29 30  1  0
 31 32  2  0
 31 37  1  0
 32 33  1  0
 33 34  2  0
 34 35  1  0
 34 36  1  0
 36 37  2  0
 38 39  1  0
M  END
