
     RDKit          3D

 39 42  0  0  0  0  0  0  0  0999 V2000
    8.9690    2.9360   -2.5320 C   0  0  0  0  0  0  0  0  0  0  0  0
    8.3800    1.5850   -2.2950 C   0  0  0  0  0  0  0  0  0  0  0  0
    8.9130    0.7280   -1.4370 C   0  0  0  0  0  0  0  0  0  0  0  0
    8.2700   -0.5910   -1.2590 C   0  0  1  0  0  0  0  0  0  0  0  0
    8.5980   -1.1870    0.0940 C   0  0  0  0  0  0  0  0  0  0  0  0
    8.1730   -0.2430    1.1210 N   0  0  0  0  0  0  0  0  0  0  0  0
    7.1850    0.6990    0.7410 C   0  0  0  0  0  0  0  0  0  0  0  0
    7.0830    1.7980    1.3380 O   0  0  0  0  0  0  0  0  0  0  0  0
    6.2540    0.3930   -0.3720 C   0  0  2  0  0  0  0  0  0  0  0  0
    5.0590   -0.3040    0.1350 C   0  0  0  0  0  0  0  0  0  0  0  0
    4.8280   -0.4000    1.4860 C   0  0  0  0  0  0  0  0  0  0  0  0
    3.7030   -1.0550    1.9870 C   0  0  0  0  0  0  0  0  0  0  0  0
    2.7990   -1.6190    1.1380 C   0  0  0  0  0  0  0  0  0  0  0  0
    1.5780   -2.3330    1.6120 C   0  0  0  0  0  0  0  0  0  0  0  0
    0.4790   -1.3030    1.7440 C   0  0  0  0  0  0  0  0  0  0  0  0
    0.2530   -0.7080    0.4560 N   0  0  0  0  0  0  0  0  0  0  0  0
   -0.9620    0.4870    0.4290 S   0  0  1  0  0  0  0  0  0  0  0  0
   -1.0080    1.1410    1.7800 O   0  0  0  0  0  0  0  0  0  0  0  0
   -0.5370    1.5310   -0.5880 O   0  0  0  0  0  0  0  0  0  0  0  0
   -2.4630   -0.1320   -0.0630 N   0  0  0  0  0  0  0  0  0  0  0  0
   -2.3490   -0.6490   -1.4180 C   0  0  0  0  0  0  0  0  0  0  0  0
   -3.7050   -1.0660   -1.8840 C   0  0  0  0  0  0  0  0  0  0  0  0
   -4.3740   -1.9220   -1.0580 O   0  0  0  0  0  0  0  0  0  0  0  0
   -4.2500   -1.7440    0.2830 C   0  0  2  0  0  0  0  0  0  0  0  0
   -5.2800   -0.8580    0.9000 C   0  0  0  0  0  0  0  0  0  0  0  0
   -5.1640   -0.6770    2.1260 O   0  0  0  0  0  0  0  0  0  0  0  0
   -6.2830   -0.3000    0.0970 N   0  0  0  0  0  0  0  0  0  0  0  0
   -7.2850    0.5390    0.5810 C   0  0  0  0  0  0  0  0  0  0  0  0
   -7.4190    0.9270    1.8820 C   0  0  0  0  0  0  0  0  0  0  0  0
   -8.4760    1.7790    2.2360 C   0  0  0  0  0  0  0  0  0  0  0  0
   -9.3650    2.2150    1.2790 C   0  0  0  0  0  0  0  0  0  0  0  0
   -9.2510    1.8370   -0.0380 C   0  0  0  0  0  0  0  0  0  0  0  0
  -10.2170    2.3200   -1.0430 C   0  0  0  0  0  0  0  0  0  0  0  0
   -8.2100    1.0040   -0.3630 C   0  0  0  0  0  0  0  0  0  0  0  0
   -8.0830    0.5860   -1.8060 C   0  0  0  0  0  0  0  0  0  0  0  0
   -2.8970   -1.2480    0.7460 C   0  0  0  0  0  0  0  0  0  0  0  0
    3.0160   -1.5310   -0.2220 C   0  0  0  0  0  0  0  0  0  0  0  0
    4.1490   -0.8720   -0.7240 C   0  0  0  0  0  0  0  0  0  0  0  0
    6.8450   -0.4070   -1.4070 N   0  0  0  0  0  0  0  0  0  0  0  0
  1  2  1  0
  2  3  2  3
  4  3  1  1
  4  5  1  0
  4 39  1  0
  5  6  1  0
  6  7  1  0
  7  8  2  0
  7  9  1  0
  9 10  1  1
  9 39  1  0
 10 11  2  0
 10 38  1  0
 11 12  1  0
 12 13  2  0
 13 14  1  0
 13 37  1  0
 14 15  1  0
 15 16  1  0
 17 16  1  1
 17 18  2  0
 17 19  2  0
 17 20  1  0
 20 21  1  0
 20 36  1  0
 21 22  1  0
 22 23  1  0
 23 24  1  0
 24 25  1  6
 24 36  1  0
 25 26  2  0
 25 27  1  0
 27 28  1  0
 28 29  2  0
 28 34  1  0
 29 30  1  0
 30 31  2  0
 31 32  1  0
 32 33  1  0
 32 34  2  0
 34 35  1  0
 37 38  2  0
M  END
