
     RDKit          3D

 39 42  0  0  0  0  0  0  0  0999 V2000
   -6.1400    5.7420   -0.6510 C   0  0  0  0  0  0  0  0  0  0  0  0
   -6.2570    4.7610    0.3490 O   0  0  0  0  0  0  0  0  0  0  0  0
   -5.1970    3.8890    0.5560 C   0  0  0  0  0  0  0  0  0  0  0  0
   -5.2430    2.9010    1.5220 C   0  0  0  0  0  0  0  0  0  0  0  0
   -4.1760    2.0360    1.7180 C   0  0  0  0  0  0  0  0  0  0  0  0
   -3.0250    2.1270    0.9560 C   0  0  0  0  0  0  0  0  0  0  0  0
   -1.8890    1.2120    1.1630 C   0  0  0  0  0  0  0  0  0  0  0  0
   -1.7960    0.1550    0.0850 C   0  0  0  0  0  0  0  0  0  0  0  0
   -0.6460   -0.7250    0.3540 N   0  0  0  0  0  0  0  0  0  0  0  0
   -0.7410   -1.9040    1.1200 C   0  0  0  0  0  0  0  0  0  0  0  0
    0.2960   -2.5660    1.3410 O   0  0  0  0  0  0  0  0  0  0  0  0
   -2.0310   -2.3330    1.6370 C   0  0  0  0  0  0  0  0  0  0  0  0
   -2.6570   -2.0390    2.8270 C   0  0  0  0  0  0  0  0  0  0  0  0
   -3.8390   -2.6570    2.8890 N   0  0  0  0  0  0  0  0  0  0  0  0
   -3.9830   -3.3320    1.7800 N   0  0  0  0  0  0  0  0  0  0  0  0
   -2.9250   -3.1820    0.9740 C   0  0  0  0  0  0  0  0  0  0  0  0
   -2.7340   -3.7880   -0.3420 C   0  0  2  0  0  0  0  0  0  0  0  0
   -1.5030   -4.6760   -0.4000 C   0  0  0  0  0  0  0  0  0  0  0  0
   -2.7560   -2.8070   -1.4930 C   0  0  0  0  0  0  0  0  0  0  0  0
   -3.9160   -4.7340   -0.6010 C   0  0  0  0  0  0  0  0  0  0  0  0
    0.6430   -0.3720   -0.1700 C   0  0  0  0  0  0  0  0  0  0  0  0
    1.4910    0.3650    0.6230 C   0  0  0  0  0  0  0  0  0  0  0  0
    2.7460    0.7300    0.1610 C   0  0  0  0  0  0  0  0  0  0  0  0
    3.1820    0.3700   -1.0960 C   0  0  0  0  0  0  0  0  0  0  0  0
    4.5350    0.7610   -1.6020 C   0  0  1  0  0  0  0  0  0  0  0  0
    4.8280    2.0920   -1.3380 O   0  0  0  0  0  0  0  0  0  0  0  0
    5.6310   -0.0680   -0.9590 C   0  0  1  0  0  0  0  0  0  0  0  0
    6.8790    0.3580   -1.5820 N   0  0  0  0  0  0  0  0  0  0  0  0
    7.9230   -0.5850   -1.2660 C   0  0  0  0  0  0  0  0  0  0  0  0
    8.4340   -0.2280    0.1280 C   0  0  0  0  0  0  0  0  0  0  0  0
    7.0470   -0.3780    1.2280 S   0  0  2  0  0  0  0  0  0  0  0  0
    7.3580    0.4730    2.4380 O   0  0  0  0  0  0  0  0  0  0  0  0
    6.8340   -1.7860    1.6580 O   0  0  0  0  0  0  0  0  0  0  0  0
    5.6530    0.2940    0.4480 N   0  0  0  0  0  0  0  0  0  0  0  0
    2.3260   -0.3680   -1.8830 C   0  0  0  0  0  0  0  0  0  0  0  0
    1.0560   -0.7440   -1.4300 C   0  0  0  0  0  0  0  0  0  0  0  0
   -2.9950    3.1140    0.0010 C   0  0  0  0  0  0  0  0  0  0  0  0
   -1.7730    3.2370   -0.8390 C   0  0  0  0  0  0  0  0  0  0  0  0
   -4.0560    3.9830   -0.2030 C   0  0  0  0  0  0  0  0  0  0  0  0
  1  2  1  0
  2  3  1  0
  3  4  2  0
  3 39  1  0
  4  5  1  0
  5  6  2  0
  6  7  1  0
  6 37  1  0
  7  8  1  0
  8  9  1  0
  9 10  1  0
  9 21  1  0
 10 11  2  0
 10 12  1  0
 12 13  2  0
 12 16  1  0
 13 14  1  0
 14 15  1  0
 15 16  2  0
 16 17  1  0
 17 18  1  1
 17 19  1  0
 17 20  1  0
 21 22  2  0
 21 36  1  0
 22 23  1  0
 23 24  2  0
 24 25  1  0
 24 35  1  0
 25 26  1  1
 25 27  1  0
 27 28  1  6
 27 34  1  0
 28 29  1  0
 29 30  1  0
 31 30  1  6
 31 32  2  0
 31 33  2  0
 31 34  1  0
 35 36  2  0
 37 38  1  0
 37 39  2  0
M  END
