
     RDKit          3D

 39 42  0  0  0  0  0  0  0  0999 V2000
    2.8900    5.5440   -0.0380 C   0  0  0  0  0  0  0  0  0  0  0  0
    2.1020    5.9550    0.8990 C   0  0  0  0  0  0  0  0  0  0  0  0
    0.9670    5.2080    1.4500 C   0  0  0  0  0  0  0  0  0  0  0  0
    0.2820    5.7490    2.4620 C   0  0  0  0  0  0  0  0  0  0  0  0
   -0.8750    5.1150    3.1010 C   0  0  0  0  0  0  0  0  0  0  0  0
    0.6710    3.8850    0.9510 C   0  0  0  0  0  0  0  0  0  0  0  0
    0.2640    2.8520    1.7590 C   0  0  0  0  0  0  0  0  0  0  0  0
   -0.1350    1.6310    1.2240 C   0  0  0  0  0  0  0  0  0  0  0  0
   -0.1440    1.3860   -0.1250 C   0  0  0  0  0  0  0  0  0  0  0  0
   -0.5620    0.0870   -0.7370 C   0  0  1  0  0  0  0  0  0  0  0  0
    0.3320   -1.0280   -0.2430 C   0  0  0  0  0  0  0  0  0  0  0  0
    1.7630   -0.7460   -0.6200 C   0  0  0  0  0  0  0  0  0  0  0  0
    2.0430    0.3200   -1.2250 O   0  0  0  0  0  0  0  0  0  0  0  0
    2.8040   -1.6400   -0.3170 N   0  0  0  0  0  0  0  0  0  0  0  0
    4.1540   -1.2940   -0.7130 C   0  0  2  0  0  0  0  0  0  0  0  0
    4.5420   -2.2170   -1.7700 N   0  0  0  0  0  0  0  0  0  0  0  0
    5.7360   -2.8610   -1.3750 C   0  0  0  0  0  0  0  0  0  0  0  0
    6.4010   -3.7240   -2.0250 O   0  0  0  0  0  0  0  0  0  0  0  0
    6.0940   -2.3620   -0.0590 C   0  0  0  0  0  0  0  0  0  0  0  0
    7.1470   -2.6710    0.7580 N   0  0  0  0  0  0  0  0  0  0  0  0
    7.2330   -2.0650    1.9340 C   0  0  0  0  0  0  0  0  0  0  0  0
    8.2260   -2.3790    2.6660 O   0  0  0  0  0  0  0  0  0  0  0  0
    6.3540   -1.1650    2.3790 N   0  0  0  0  0  0  0  0  0  0  0  0
    5.3190   -0.8620    1.5730 C   0  0  0  0  0  0  0  0  0  0  0  0
    4.4630   -0.0160    1.9540 O   0  0  0  0  0  0  0  0  0  0  0  0
    5.1550   -1.4430    0.3400 C   0  0  0  0  0  0  0  0  0  0  0  0
   -2.0120   -0.1380   -0.4880 C   0  0  0  0  0  0  0  0  0  0  0  0
   -2.5950   -1.3560   -1.0340 C   0  0  0  0  0  0  0  0  0  0  0  0
   -1.8920   -2.1420   -1.7110 O   0  0  0  0  0  0  0  0  0  0  0  0
   -3.9720   -1.6790   -0.8120 N   0  0  0  0  0  0  0  0  0  0  0  0
   -4.7510   -0.7500   -0.0320 C   0  0  0  0  0  0  0  0  0  0  0  0
   -6.0670   -1.3160    0.4300 C   0  0  0  0  0  0  0  0  0  0  0  0
   -7.0250   -1.7670   -1.0670 S   0  0  0  0  0  0  0  0  0  0  0  0
   -5.8170   -2.5740   -2.1870 C   0  0  2  0  0  0  0  0  0  0  0  0
   -6.4160   -3.9270   -2.5520 C   0  0  0  0  0  0  0  0  0  0  0  0
   -4.5930   -2.8600   -1.3220 C   0  0  1  0  0  0  0  0  0  0  0  0
   -3.6930   -3.7980   -2.0520 C   0  0  0  0  0  0  0  0  0  0  0  0
    0.2580    2.4000   -0.9480 C   0  0  0  0  0  0  0  0  0  0  0  0
    0.6510    3.6110   -0.4230 C   0  0  0  0  0  0  0  0  0  0  0  0
  1  2  2  0
  2  3  1  0
  3  4  2  3
  3  6  1  0
  4  5  1  0
  6  7  2  0
  6 39  1  0
  7  8  1  0
  8  9  2  0
  9 10  1  0
  9 38  1  0
 10 11  1  1
 10 27  1  0
 11 12  1  0
 12 13  2  0
 12 14  1  0
 15 14  1  1
 15 16  1  0
 15 26  1  0
 16 17  1  0
 17 18  2  0
 17 19  1  0
 19 20  1  0
 19 26  2  0
 20 21  1  0
 21 22  2  0
 21 23  1  0
 23 24  1  0
 24 25  2  0
 24 26  1  0
 27 28  1  0
 28 29  2  0
 28 30  1  0
 30 31  1  0
 30 36  1  0
 31 32  1  0
 32 33  1  0
 33 34  1  0
 34 35  1  1
 34 36  1  0
 36 37  1  6
 38 39  2  0
M  END
