
     RDKit          3D

 39 41  0  0  0  0  0  0  0  0999 V2000
   -8.9340   -0.3450   -2.4530 C   0  0  0  0  0  0  0  0  0  0  0  0
   -8.0560   -1.2820   -1.6530 C   0  0  0  0  0  0  0  0  0  0  0  0
   -8.1450   -1.0250   -0.1640 C   0  0  1  0  0  0  0  0  0  0  0  0
   -7.2620   -1.9730    0.5650 C   0  0  0  0  0  0  0  0  0  0  0  0
   -5.9130   -1.5030    0.9230 C   0  0  0  0  0  0  0  0  0  0  0  0
   -5.5950   -0.1340    0.6010 N   0  0  0  0  0  0  0  0  0  0  0  0
   -4.3430    0.3690    1.0550 C   0  0  0  0  0  0  0  0  0  0  0  0
   -3.5850   -0.4130    1.7400 O   0  0  0  0  0  0  0  0  0  0  0  0
   -3.9590    1.7420    0.7440 C   0  0  0  0  0  0  0  0  0  0  0  0
   -2.5030    2.0400    0.7090 C   0  0  0  0  0  0  0  0  0  0  0  0
   -1.6700    1.4410   -0.3770 C   0  0  2  0  0  0  0  0  0  0  0  0
   -1.6110   -0.0210   -0.5060 C   0  0  0  0  0  0  0  0  0  0  0  0
   -0.8540   -0.5770   -1.6380 C   0  0  0  0  0  0  0  0  0  0  0  0
    0.0620   -0.0540   -2.3870 C   0  0  0  0  0  0  0  0  0  0  0  0
    0.7410    1.2270   -2.4770 C   0  0  0  0  0  0  0  0  0  0  0  0
    0.0970    2.3620   -1.7770 C   0  0  0  0  0  0  0  0  0  0  0  0
   -0.2720    2.0340   -0.3580 C   0  0  2  0  0  0  0  0  0  0  0  0
    0.7410    1.2380    0.2280 N   0  0  0  0  0  0  0  0  0  0  0  0
    1.5390    1.6490    1.3460 C   0  0  0  0  0  0  0  0  0  0  0  0
    1.3220    2.7830    1.8230 O   0  0  0  0  0  0  0  0  0  0  0  0
    2.5470    0.8540    1.9360 N   0  0  0  0  0  0  0  0  0  0  0  0
    3.3330    1.3000    3.0670 C   0  0  0  0  0  0  0  0  0  0  0  0
    4.3320    0.2850    3.5170 C   0  0  0  0  0  0  0  0  0  0  0  0
    5.3020   -0.0840    2.5240 N   0  0  0  0  0  0  0  0  0  0  0  0
    6.2720    0.8690    2.0890 C   0  0  0  0  0  0  0  0  0  0  0  0
    7.1730    0.5300    1.1840 C   0  0  0  0  0  0  0  0  0  0  0  0
    7.2230   -0.7960    0.5980 C   0  0  0  0  0  0  0  0  0  0  0  0
    8.1590   -1.1010   -0.3210 C   0  0  0  0  0  0  0  0  0  0  0  0
    8.2270   -2.4080   -0.9150 C   0  0  0  0  0  0  0  0  0  0  0  0
    9.0850   -2.8090   -1.8050 C   0  0  0  0  0  0  0  0  0  0  0  0
    8.9440   -4.1540   -2.2380 O   0  0  0  0  0  0  0  0  0  0  0  0
   10.1300   -2.0290   -2.3690 C   0  0  0  0  0  0  0  0  0  0  0  0
   10.4350   -0.6900   -2.0820 N   0  0  0  0  0  0  0  0  0  0  0  0
   10.8850   -2.6170   -3.2460 O   0  0  0  0  0  0  0  0  0  0  0  0
    6.2780   -1.7440    1.0120 O   0  0  0  0  0  0  0  0  0  0  0  0
    5.3360   -1.3850    1.9610 C   0  0  0  0  0  0  0  0  0  0  0  0
    4.2290   -2.4940    2.4500 S   0  0  0  0  0  0  0  0  0  0  0  0
   -6.4690    0.7410   -0.1300 C   0  0  0  0  0  0  0  0  0  0  0  0
   -7.9100    0.4030    0.1950 C   0  0  0  0  0  0  0  0  0  0  0  0
  1  2  1  0
  3  2  1  6
  3  4  1  0
  3 39  1  0
  4  5  1  0
  5  6  1  0
  6  7  1  0
  6 38  1  0
  7  8  2  0
  7  9  1  0
  9 10  1  0
 11 10  1  1
 11 12  1  0
 11 17  1  0
 12 13  1  0
 13 14  2  0
 14 15  1  0
 15 16  1  0
 16 17  1  0
 17 18  1  6
 18 19  1  0
 19 20  2  0
 19 21  1  0
 21 22  1  0
 22 23  1  0
 23 24  1  0
 24 25  1  0
 24 36  1  0
 25 26  2  0
 26 27  1  0
 27 28  2  3
 27 35  1  0
 28 29  1  0
 29 30  2  3
 30 31  1  0
 30 32  1  0
 32 33  1  0
 32 34  2  0
 35 36  1  0
 36 37  2  0
 38 39  1  0
M  END
