
     RDKit          3D

 38 41  0  0  0  0  0  0  0  0999 V2000
    3.2430    1.7940   -2.4270 C   0  0  0  0  0  0  0  0  0  0  0  0
    3.8840    1.3520   -0.8310 S   0  0  0  0  0  0  0  0  0  0  0  0
    3.0150    0.0560   -0.0420 C   0  0  0  0  0  0  0  0  0  0  0  0
    3.6890   -0.5900    0.9560 C   0  0  0  0  0  0  0  0  0  0  0  0
    5.0480   -0.2100    1.3040 C   0  0  0  0  0  0  0  0  0  0  0  0
    6.1230   -0.2720    0.4720 N   0  0  0  0  0  0  0  0  0  0  0  0
    7.2350    0.1980    1.0840 C   0  0  0  0  0  0  0  0  0  0  0  0
    8.5880    0.2340    0.4390 C   0  0  1  0  0  0  0  0  0  0  0  0
    9.2250   -1.1230    0.6200 C   0  0  0  0  0  0  0  0  0  0  0  0
    8.3260    0.4930   -1.0580 C   0  0  0  0  0  0  0  0  0  0  0  0
    9.4120    1.3590    0.9420 C   0  0  0  0  0  0  0  0  0  0  0  0
    6.8600    0.5640    2.3300 N   0  0  0  0  0  0  0  0  0  0  0  0
    5.5120    0.3120    2.4570 C   0  0  0  0  0  0  0  0  0  0  0  0
    4.7600    0.6270    3.7170 C   0  0  0  0  0  0  0  0  0  0  0  0
    1.7670   -0.4870   -0.4450 C   0  0  0  0  0  0  0  0  0  0  0  0
    1.3940   -1.6390    0.0990 O   0  0  0  0  0  0  0  0  0  0  0  0
    0.8150   -0.0100   -1.3550 N   0  0  0  0  0  0  0  0  0  0  0  0
   -0.3830   -0.7500   -1.6880 C   0  0  2  0  0  0  0  0  0  0  0  0
   -1.0240   -0.3640   -2.9710 C   0  0  0  0  0  0  0  0  0  0  0  0
   -1.7660    0.9370   -2.8950 C   0  0  0  0  0  0  0  0  0  0  0  0
   -2.6130    1.1470   -1.6880 C   0  0  0  0  0  0  0  0  0  0  0  0
   -2.6980   -0.1000   -0.9200 N   0  0  0  0  0  0  0  0  0  0  0  0
   -3.9090   -0.7620   -0.5550 C   0  0  2  0  0  0  0  0  0  0  0  0
   -4.7540   -1.2490   -1.6800 C   0  0  0  0  0  0  0  0  0  0  0  0
   -4.5670   -0.3170    0.6720 C   0  0  0  0  0  0  0  0  0  0  0  0
   -3.7330    0.1730    1.5400 O   0  0  0  0  0  0  0  0  0  0  0  0
   -5.8710   -0.3500    1.0490 N   0  0  0  0  0  0  0  0  0  0  0  0
   -6.3560   -0.3150    2.5360 C   0  0  0  0  0  0  0  0  0  0  0  0
   -7.1430   -1.5980    2.3680 C   0  0  1  0  0  0  0  0  0  0  0  0
   -8.2660   -2.1220    3.0090 C   0  0  0  0  0  0  0  0  0  0  0  0
   -9.0870   -1.6250    1.9090 C   0  0  0  0  0  0  0  0  0  0  0  0
   -8.0750   -1.0940    1.3110 C   0  0  0  0  0  0  0  0  0  0  0  0
   -7.1330   -0.3460    0.4050 C   0  0  0  0  0  0  0  0  0  0  0  0
   -7.5680    0.2810   -0.6500 C   0  0  0  0  0  0  0  0  0  0  0  0
   -6.7680    1.2180   -1.4650 C   0  0  0  0  0  0  0  0  0  0  0  0
   -7.3590    2.4920   -1.4810 O   0  0  0  0  0  0  0  0  0  0  0  0
   -1.4330   -0.6860   -0.5980 C   0  0  0  0  0  0  0  0  0  0  0  0
   -1.1640   -1.1410    0.5150 O   0  0  0  0  0  0  0  0  0  0  0  0
  1  2  1  0
  2  3  1  0
  3  4  2  3
  3 15  1  0
  4  5  1  0
  5  6  1  0
  5 13  2  0
  6  7  2  0
  7  8  1  0
  7 12  1  0
  8  9  1  6
  8 10  1  0
  8 11  1  0
 12 13  1  0
 13 14  1  0
 15 16  2  0
 15 17  1  0
 18 17  1  1
 18 19  1  0
 18 37  1  0
 19 20  1  0
 20 21  1  0
 21 22  1  0
 22 23  1  0
 22 37  1  0
 23 24  1  6
 23 25  1  0
 25 26  2  0
 25 27  1  0
 27 28  1  0
 27 33  1  0
 29 28  1  1
 29 30  1  0
 29 32  1  0
 30 31  1  0
 31 32  2  0
 32 33  1  0
 33 34  2  3
 34 35  1  0
 35 36  1  0
 37 38  2  0
M  END
