
     RDKit          3D

 39 42  0  0  0  0  0  0  0  0999 V2000
   -0.6840    5.1720    0.5480 C   0  0  0  0  0  0  0  0  0  0  0  0
   -1.5780    4.1420    1.1420 C   0  0  0  0  0  0  0  0  0  0  0  0
   -1.9890    3.0290    0.1430 C   0  0  1  0  0  0  0  0  0  0  0  0
   -0.7790    2.3290   -0.2460 N   0  0  0  0  0  0  0  0  0  0  0  0
   -0.2670    2.1440   -1.5360 C   0  0  0  0  0  0  0  0  0  0  0  0
   -0.8810    2.6360   -2.5180 O   0  0  0  0  0  0  0  0  0  0  0  0
    0.9680    1.3960   -1.8160 C   0  0  0  0  0  0  0  0  0  0  0  0
    1.1840    0.7940   -3.0730 C   0  0  0  0  0  0  0  0  0  0  0  0
    0.3030    0.7910   -4.2600 C   0  0  0  0  0  0  0  0  0  0  0  0
    2.3400    0.1970   -3.0590 O   0  0  0  0  0  0  0  0  0  0  0  0
    2.8850    0.3590   -1.9090 C   0  0  0  0  0  0  0  0  0  0  0  0
    4.2000   -0.1840   -1.5000 C   0  0  0  0  0  0  0  0  0  0  0  0
    2.0540    1.1380   -1.0470 C   0  0  0  0  0  0  0  0  0  0  0  0
    2.4820    1.4230    0.1690 O   0  0  0  0  0  0  0  0  0  0  0  0
    2.3930    1.0710    1.4690 C   0  0  2  0  0  0  0  0  0  0  0  0
    3.6360    0.8000    2.2550 C   0  0  0  0  0  0  0  0  0  0  0  0
    3.0890   -0.1040    3.3840 C   0  0  0  0  0  0  0  0  0  0  0  0
    2.2130   -1.0690    2.6050 C   0  0  0  0  0  0  0  0  0  0  0  0
    1.4880   -0.1660    1.6770 C   0  0  0  0  0  0  0  0  0  0  0  0
   -2.8670    2.0720    0.9710 C   0  0  2  0  0  0  0  0  0  0  0  0
   -3.9760    2.7080    1.5920 N   0  0  0  0  0  0  0  0  0  0  0  0
   -2.0470    1.1130    1.7020 C   0  0  1  0  0  0  0  0  0  0  0  0
   -2.7860    0.2680    2.6850 N   0  0  0  0  0  0  0  0  0  0  0  0
   -1.9600   -0.8720    2.9610 C   0  0  0  0  0  0  0  0  0  0  0  0
   -1.6180   -1.2220    4.1470 O   0  0  0  0  0  0  0  0  0  0  0  0
   -1.5590   -1.5790    1.7970 C   0  0  0  0  0  0  0  0  0  0  0  0
   -1.0260   -2.7310    1.4290 C   0  0  0  0  0  0  0  0  0  0  0  0
   -0.8220   -3.0030    0.0460 C   0  0  0  0  0  0  0  0  0  0  0  0
    0.3480   -3.0460   -0.6490 C   0  0  0  0  0  0  0  0  0  0  0  0
    0.4330   -3.3500   -1.9690 C   0  0  0  0  0  0  0  0  0  0  0  0
    1.6730   -3.4640   -2.7460 C   0  0  0  0  0  0  0  0  0  0  0  0
   -0.7900   -3.6350   -2.6520 C   0  0  0  0  0  0  0  0  0  0  0  0
   -0.8420   -3.9670   -4.0140 C   0  0  0  0  0  0  0  0  0  0  0  0
   -0.8930   -4.2450   -5.2380 N   0  0  0  0  0  0  0  0  0  0  0  0
   -1.9220   -3.5880   -1.9340 C   0  0  0  0  0  0  0  0  0  0  0  0
   -3.0500   -3.8800   -2.5350 O   0  0  0  0  0  0  0  0  0  0  0  0
   -2.0080   -3.2920   -0.6560 N   0  0  0  0  0  0  0  0  0  0  0  0
   -3.2480   -3.2460    0.0460 C   0  0  0  0  0  0  0  0  0  0  0  0
   -1.7310   -0.2910    0.4720 S   0  0  0  0  0  0  0  0  0  0  0  0
  1  2  1  0
  3  2  1  1
  3  4  1  0
  3 20  1  0
  4  5  1  0
  5  6  2  0
  5  7  1  0
  7  8  2  0
  7 13  1  0
  8  9  1  0
  8 10  1  0
 10 11  1  0
 11 12  1  0
 11 13  2  0
 13 14  1  0
 15 14  1  6
 15 16  1  0
 15 19  1  0
 16 17  1  0
 17 18  1  0
 18 19  1  0
 20 21  1  1
 20 22  1  0
 22 23  1  1
 22 39  1  0
 23 24  1  0
 24 25  2  0
 24 26  1  0
 26 27  2  3
 26 39  1  0
 27 28  1  0
 28 29  2  0
 28 37  1  0
 29 30  1  0
 30 31  1  0
 30 32  2  0
 32 33  1  0
 32 35  1  0
 33 34  3  0
 35 36  2  0
 35 37  1  0
 37 38  1  0
M  END
