
     RDKit          3D

 26 29  0  0  0  0  0  0  0  0999 V2000
   -5.9510   -0.9860   -0.0320 C   0  0  0  0  0  0  0  0  0  0  0  0
   -4.5570   -0.4210    0.3160 C   0  0  1  0  0  0  0  0  0  0  0  0
   -4.0480    0.2770   -0.9240 C   0  0  0  0  0  0  0  0  0  0  0  0
   -2.8370    0.8820   -0.7850 O   0  0  0  0  0  0  0  0  0  0  0  0
   -1.5720    0.4720   -0.5260 C   0  0  0  0  0  0  0  0  0  0  0  0
   -1.1970   -0.8280   -0.3530 C   0  0  0  0  0  0  0  0  0  0  0  0
    0.1290   -1.1730   -0.0840 C   0  0  0  0  0  0  0  0  0  0  0  0
    1.0560   -0.1760    0.0020 C   0  0  0  0  0  0  0  0  0  0  0  0
    0.7010    1.1590   -0.1720 C   0  0  0  0  0  0  0  0  0  0  0  0
   -0.5940    1.4770   -0.4320 C   0  0  0  0  0  0  0  0  0  0  0  0
   -0.9400    2.8080   -0.6040 O   0  0  0  0  0  0  0  0  0  0  0  0
    1.6870    2.1410   -0.0740 C   0  0  0  0  0  0  0  0  0  0  0  0
    1.3060    3.3330   -0.2410 O   0  0  0  0  0  0  0  0  0  0  0  0
    2.9030    1.7970    0.1740 O   0  0  0  0  0  0  0  0  0  0  0  0
    3.3020    0.5660    0.3470 C   0  0  0  0  0  0  0  0  0  0  0  0
    4.6320    0.3410    0.6060 C   0  0  0  0  0  0  0  0  0  0  0  0
    5.0760   -0.9560    0.7920 C   0  0  0  0  0  0  0  0  0  0  0  0
    4.1510   -1.9820    0.7090 C   0  0  0  0  0  0  0  0  0  0  0  0
    2.8140   -1.7720    0.4500 C   0  0  0  0  0  0  0  0  0  0  0  0
    2.3770   -0.4820    0.2660 C   0  0  0  0  0  0  0  0  0  0  0  0
    6.4490   -0.9300    1.0390 O   0  0  0  0  0  0  0  0  0  0  0  0
    6.9120    0.3310    0.6050 C   0  0  0  0  0  0  0  0  0  0  0  0
    5.7630    1.1380    0.7450 O   0  0  0  0  0  0  0  0  0  0  0  0
   -4.7060    0.4910    1.4200 N   0  0  0  0  0  0  0  0  0  0  0  0
   -4.1090    0.2810    2.4840 O   0  0  0  0  0  0  0  0  0  0  0  0
   -5.5050    1.5900    1.3010 O   0  0  0  0  0  0  0  0  0  0  0  0
  2  1  1  6
  2  3  1  0
  2 24  1  0
  3  4  1  0
  4  5  1  0
  5  6  2  0
  5 10  1  0
  6  7  1  0
  7  8  2  0
  8  9  1  0
  8 20  1  0
  9 10  2  0
  9 12  1  0
 10 11  1  0
 12 13  2  0
 12 14  1  0
 14 15  1  0
 15 16  2  0
 15 20  1  0
 16 17  1  0
 16 23  1  0
 17 18  2  0
 17 21  1  0
 18 19  1  0
 19 20  2  0
 21 22  1  0
 22 23  1  0
 24 25  2  0
 24 26  1  0
M  CHG  2  24   1  26  -1
M  END
