
     RDKit          3D

 24 27  0  0  0  0  0  0  0  0999 V2000
   -0.9400   -1.9450    0.9970 O   0  0  0  0  0  0  0  0  0  0  0  0
   -1.4100   -0.8310    0.5670 C   0  0  0  0  0  0  0  0  0  0  0  0
   -0.5710    0.1930    0.0900 N   0  0  0  0  0  0  0  0  0  0  0  0
    0.8310    0.0380    0.0610 C   0  0  0  0  0  0  0  0  0  0  0  0
    1.4270   -1.1770    0.0150 C   0  0  0  0  0  0  0  0  0  0  0  0
    2.8280   -1.1910    0.0190 C   0  0  0  0  0  0  0  0  0  0  0  0
    3.5680   -0.0360    0.0660 C   0  0  0  0  0  0  0  0  0  0  0  0
    5.0450   -0.0800    0.0690 C   0  0  0  0  0  0  0  0  0  0  0  0
    5.8760    0.9400    0.1110 C   0  0  0  0  0  0  0  0  0  0  0  0
    7.2470    0.3930    0.0950 C   0  0  0  0  0  0  0  0  0  0  0  0
    7.0840   -1.0190    0.0390 N   0  0  0  0  0  0  0  0  0  0  0  0
    5.8280   -1.2870    0.0250 C   0  0  0  0  0  0  0  0  0  0  0  0
    2.9190    1.1410    0.1090 N   0  0  0  0  0  0  0  0  0  0  0  0
    1.5800    1.2200    0.1090 C   0  0  0  0  0  0  0  0  0  0  0  0
   -2.7930   -0.7130    0.6050 N   0  0  0  0  0  0  0  0  0  0  0  0
   -3.6310   -1.8630    0.9490 C   0  0  0  0  0  0  0  0  0  0  0  0
   -4.5430   -2.0300   -0.2710 C   0  0  0  0  0  0  0  0  0  0  0  0
   -5.1950   -0.8530   -0.5690 O   0  0  0  0  0  0  0  0  0  0  0  0
   -4.7010    0.3860   -0.3250 C   0  0  0  0  0  0  0  0  0  0  0  0
   -5.4130    1.5220   -0.6680 C   0  0  0  0  0  0  0  0  0  0  0  0
   -4.8630    2.7490   -0.3930 C   0  0  0  0  0  0  0  0  0  0  0  0
   -3.6140    2.8110    0.2190 C   0  0  0  0  0  0  0  0  0  0  0  0
   -2.9440    1.7030    0.5400 N   0  0  0  0  0  0  0  0  0  0  0  0
   -3.4510    0.5170    0.2850 C   0  0  0  0  0  0  0  0  0  0  0  0
  1  2  2  0
  2  3  1  0
  2 15  1  0
  3  4  1  0
  4  5  2  0
  4 14  1  0
  5  6  1  0
  6  7  2  0
  7  8  1  0
  7 13  1  0
  8  9  2  0
  8 12  1  0
  9 10  1  0
 10 11  1  0
 11 12  2  0
 13 14  2  0
 15 16  1  0
 15 24  1  0
 16 17  1  0
 17 18  1  0
 18 19  1  0
 19 20  2  0
 19 24  1  0
 20 21  1  0
 21 22  2  0
 22 23  1  0
 23 24  2  0
M  END
