
     RDKit          3D

 24 27  0  0  0  0  0  0  0  0999 V2000
    7.8060    1.1940    0.2190 C   0  0  0  0  0  0  0  0  0  0  0  0
    6.4830    0.5400    0.0070 C   0  0  0  0  0  0  0  0  0  0  0  0
    6.2740   -0.7040   -0.5990 C   0  0  0  0  0  0  0  0  0  0  0  0
    4.9160   -0.8990   -0.5780 C   0  0  0  0  0  0  0  0  0  0  0  0
    4.3470    0.1950    0.0220 C   0  0  0  0  0  0  0  0  0  0  0  0
    2.9210    0.4140    0.2560 C   0  0  0  0  0  0  0  0  0  0  0  0
    1.9090   -0.4530   -0.0900 C   0  0  0  0  0  0  0  0  0  0  0  0
    0.6680    0.0840    0.2880 C   0  0  0  0  0  0  0  0  0  0  0  0
   -0.5900   -0.6030    0.0310 C   0  0  0  0  0  0  0  0  0  0  0  0
   -0.5090   -1.7870   -0.5080 O   0  0  0  0  0  0  0  0  0  0  0  0
   -1.8850   -0.1360    0.2980 N   0  0  0  0  0  0  0  0  0  0  0  0
   -2.1400    1.2580    0.5660 C   0  0  0  0  0  0  0  0  0  0  0  0
   -3.5600    1.6970    0.2910 C   0  0  0  0  0  0  0  0  0  0  0  0
   -4.3520    0.7480   -0.4440 N   0  0  0  0  0  0  0  0  0  0  0  0
   -5.2950    1.1400   -1.5030 C   0  0  0  0  0  0  0  0  0  0  0  0
   -4.2540   -0.6300   -0.1460 C   0  0  0  0  0  0  0  0  0  0  0  0
   -5.3150   -1.4840   -0.2140 C   0  0  0  0  0  0  0  0  0  0  0  0
   -5.1500   -2.7880    0.0930 N   0  0  0  0  0  0  0  0  0  0  0  0
   -3.9350   -3.2410    0.4660 C   0  0  0  0  0  0  0  0  0  0  0  0
   -2.8300   -2.3970    0.5450 C   0  0  0  0  0  0  0  0  0  0  0  0
   -2.9820   -1.0720    0.2360 C   0  0  0  0  0  0  0  0  0  0  0  0
    0.9840    1.2490    0.8450 N   0  0  0  0  0  0  0  0  0  0  0  0
    2.3100    1.4520    0.8300 N   0  0  0  0  0  0  0  0  0  0  0  0
    5.3170    1.0110    0.3460 O   0  0  0  0  0  0  0  0  0  0  0  0
  1  2  1  0
  2  3  2  0
  2 24  1  0
  3  4  1  0
  4  5  2  0
  5  6  1  0
  5 24  1  0
  6  7  1  0
  6 23  2  0
  7  8  2  0
  8  9  1  0
  8 22  1  0
  9 10  2  0
  9 11  1  0
 11 12  1  0
 11 21  1  0
 12 13  1  0
 13 14  1  0
 14 15  1  0
 14 16  1  0
 16 17  2  0
 16 21  1  0
 17 18  1  0
 18 19  2  0
 19 20  1  0
 20 21  2  0
 22 23  1  0
M  END
