
     RDKit          3D

 24 27  0  0  0  0  0  0  0  0999 V2000
   -3.1060   -1.0740    1.7730 C   0  0  0  0  0  0  0  0  0  0  0  0
   -2.9150    0.0960    1.1770 C   0  0  0  0  0  0  0  0  0  0  0  0
   -3.5130    1.2640    1.7490 N   0  0  0  0  0  0  0  0  0  0  0  0
   -3.3420    2.5320    1.1440 C   0  0  0  0  0  0  0  0  0  0  0  0
   -2.6320    2.6770    0.0400 C   0  0  0  0  0  0  0  0  0  0  0  0
   -2.0340    1.5060   -0.5310 C   0  0  0  0  0  0  0  0  0  0  0  0
   -2.1420    0.2680   -0.0290 C   0  0  0  0  0  0  0  0  0  0  0  0
   -1.5260   -0.8340   -0.6510 N   0  0  0  0  0  0  0  0  0  0  0  0
   -0.4680   -1.6440   -0.0300 C   0  0  0  0  0  0  0  0  0  0  0  0
    0.4760   -1.7210   -1.2480 C   0  0  2  0  0  0  0  0  0  0  0  0
    0.9480   -0.4410   -1.6980 C   0  0  0  0  0  0  0  0  0  0  0  0
    0.4060   -0.0030   -2.7930 O   0  0  0  0  0  0  0  0  0  0  0  0
    1.9110    0.4380   -1.1400 N   0  0  0  0  0  0  0  0  0  0  0  0
    2.2060    1.6580   -1.6620 N   0  0  0  0  0  0  0  0  0  0  0  0
    3.1510    2.2540   -0.9490 C   0  0  0  0  0  0  0  0  0  0  0  0
    3.4690    1.3730    0.0690 C   0  0  0  0  0  0  0  0  0  0  0  0
    4.3640    1.4810    1.0630 N   0  0  0  0  0  0  0  0  0  0  0  0
    4.5300    0.5000    1.9570 C   0  0  0  0  0  0  0  0  0  0  0  0
    3.7640   -0.6380    1.8480 C   0  0  0  0  0  0  0  0  0  0  0  0
    2.8310   -0.8050    0.8500 C   0  0  0  0  0  0  0  0  0  0  0  0
    2.6730    0.2270   -0.0690 C   0  0  0  0  0  0  0  0  0  0  0  0
   -0.5680   -2.2590   -2.2620 C   0  0  0  0  0  0  0  0  0  0  0  0
   -1.7230   -1.3850   -1.9530 C   0  0  0  0  0  0  0  0  0  0  0  0
   -2.7260   -1.1290   -2.6580 O   0  0  0  0  0  0  0  0  0  0  0  0
  1  2  2  0
  2  3  1  0
  2  7  1  0
  3  4  1  0
  4  5  2  0
  5  6  1  0
  6  7  2  0
  7  8  1  0
  8  9  1  0
  8 23  1  0
  9 10  1  0
 10 11  1  6
 10 22  1  0
 11 12  2  0
 11 13  1  0
 13 14  1  0
 13 21  1  0
 14 15  2  0
 15 16  1  0
 16 17  2  0
 16 21  1  0
 17 18  1  0
 18 19  2  0
 19 20  1  0
 20 21  2  0
 22 23  1  0
 23 24  2  0
M  END
