
     RDKit          3D

 24 27  0  0  0  0  0  0  0  0999 V2000
   -1.5220   -1.0250    3.8360 C   0  0  0  0  0  0  0  0  0  0  0  0
   -1.7050   -0.5770    2.4420 C   0  0  0  0  0  0  0  0  0  0  0  0
   -0.7890   -0.7360    1.4910 N   0  0  0  0  0  0  0  0  0  0  0  0
   -0.9720   -0.3240    0.2370 C   0  0  0  0  0  0  0  0  0  0  0  0
   -0.1600   -0.3990   -0.8580 C   0  0  0  0  0  0  0  0  0  0  0  0
    1.1990   -0.9890   -0.9200 C   0  0  0  0  0  0  0  0  0  0  0  0
    1.6260   -1.4650    0.2100 O   0  0  0  0  0  0  0  0  0  0  0  0
    1.9750   -1.0650   -1.9820 N   0  0  0  0  0  0  0  0  0  0  0  0
    2.7180   -1.1130   -2.9090 C   0  0  0  0  0  0  0  0  0  0  0  0
    4.1390   -0.6570   -2.8210 C   0  0  0  0  0  0  0  0  0  0  0  0
    5.0470   -0.6780   -3.8340 C   0  0  0  0  0  0  0  0  0  0  0  0
    6.2220   -0.1690   -3.3070 C   0  0  0  0  0  0  0  0  0  0  0  0
    5.9610    0.1380   -1.9840 C   0  0  0  0  0  0  0  0  0  0  0  0
    6.8630    0.6960   -1.0050 C   0  0  0  0  0  0  0  0  0  0  0  0
    7.5850    1.1260   -0.2110 N   0  0  0  0  0  0  0  0  0  0  0  0
    4.7210   -0.1720   -1.7610 O   0  0  0  0  0  0  0  0  0  0  0  0
   -0.8180    0.1750   -1.9230 C   0  0  0  0  0  0  0  0  0  0  0  0
   -2.0110    0.5830   -1.4500 N   0  0  0  0  0  0  0  0  0  0  0  0
   -2.1000    0.2860   -0.1650 N   0  0  0  0  0  0  0  0  0  0  0  0
   -3.0550    0.4590    0.7940 C   0  0  0  0  0  0  0  0  0  0  0  0
   -2.9120    0.0530    2.0940 C   0  0  0  0  0  0  0  0  0  0  0  0
   -4.1240    0.3890    2.8530 C   0  0  0  0  0  0  0  0  0  0  0  0
   -4.7860    1.4620    2.0240 C   0  0  0  0  0  0  0  0  0  0  0  0
   -4.3950    1.1160    0.5880 C   0  0  0  0  0  0  0  0  0  0  0  0
  1  2  1  0
  2  3  2  0
  2 21  1  0
  3  4  1  0
  4  5  2  0
  4 19  1  0
  5  6  1  0
  5 17  1  0
  6  7  2  0
  6  8  1  0
  8  9  2  3
  9 10  1  0
 10 11  2  0
 10 16  1  0
 11 12  1  0
 12 13  2  0
 13 14  1  0
 13 16  1  0
 14 15  3  0
 17 18  2  0
 18 19  1  0
 19 20  1  0
 20 21  2  0
 20 24  1  0
 21 22  1  0
 22 23  1  0
 23 24  1  0
M  END
