
     RDKit          3D

 24 27  0  0  0  0  0  0  0  0999 V2000
   -3.4320    0.8420    2.8480 N   0  0  0  0  0  0  0  0  0  0  0  0
   -2.3140    0.9270    2.4480 C   0  0  0  0  0  0  0  0  0  0  0  0
   -0.9860    1.0400    1.9500 C   0  0  0  0  0  0  0  0  0  0  0  0
   -0.2600   -0.0560    1.6470 C   0  0  0  0  0  0  0  0  0  0  0  0
    1.0590   -0.0180    1.1620 C   0  0  0  0  0  0  0  0  0  0  0  0
    1.5650   -1.2740    0.9260 O   0  0  0  0  0  0  0  0  0  0  0  0
    1.3030   -1.9450   -0.2100 C   0  0  0  0  0  0  0  0  0  0  0  0
    0.6380   -1.5880   -1.3490 C   0  0  0  0  0  0  0  0  0  0  0  0
    0.6180   -2.6710   -2.2910 C   0  0  0  0  0  0  0  0  0  0  0  0
    1.2940   -3.6300   -1.6450 N   0  0  0  0  0  0  0  0  0  0  0  0
    1.6930   -3.2560   -0.4720 N   0  0  0  0  0  0  0  0  0  0  0  0
    1.3900   -4.9440   -2.3320 C   0  0  0  0  0  0  0  0  0  0  0  0
    1.5760   -4.7950   -3.7990 C   0  0  0  0  0  0  0  0  0  0  0  0
    0.3480   -4.0590   -4.3010 N   0  0  0  0  0  0  0  0  0  0  0  0
    0.1200   -2.8910   -3.6740 C   0  0  0  0  0  0  0  0  0  0  0  0
   -0.5120   -1.8670   -4.1090 O   0  0  0  0  0  0  0  0  0  0  0  0
    1.6460    1.1570    0.9900 C   0  0  0  0  0  0  0  0  0  0  0  0
    0.9160    2.3380    1.2950 C   0  0  0  0  0  0  0  0  0  0  0  0
   -0.3630    2.3070    1.7630 C   0  0  0  0  0  0  0  0  0  0  0  0
   -1.0990    3.4240    2.2000 N   0  0  0  0  0  0  0  0  0  0  0  0
   -1.3870    4.5540    1.5390 C   0  0  0  0  0  0  0  0  0  0  0  0
   -2.1200    5.4150    2.3740 C   0  0  0  0  0  0  0  0  0  0  0  0
   -2.2620    4.7410    3.5790 C   0  0  0  0  0  0  0  0  0  0  0  0
   -1.6260    3.5290    3.4480 C   0  0  0  0  0  0  0  0  0  0  0  0
  1  2  3  0
  2  3  1  0
  3  4  2  0
  3 19  1  0
  4  5  1  0
  5  6  1  0
  5 17  2  0
  6  7  1  0
  7  8  1  0
  7 11  2  0
  8  9  2  0
  9 10  1  0
  9 15  1  0
 10 11  1  0
 10 12  1  0
 12 13  1  0
 13 14  1  0
 14 15  1  0
 15 16  2  0
 17 18  1  0
 18 19  2  0
 19 20  1  0
 20 21  1  0
 20 24  1  0
 21 22  2  0
 22 23  1  0
 23 24  2  0
M  END
