
     RDKit          3D

 14 13  0  0  0  0  0  0  0  0999 V2000
    4.9400   -0.2020    2.4450 C   0  0  0  0  0  0  0  0  0  0  0  0
    4.0520    0.0860    1.2820 C   0  0  0  0  0  0  0  0  0  0  0  0
    4.3550    0.9830    0.4630 O   0  0  0  0  0  0  0  0  0  0  0  0
    2.8330   -0.6840    1.1090 C   0  0  0  0  0  0  0  0  0  0  0  0
    2.0250   -0.4520    0.0870 C   0  0  0  0  0  0  0  0  0  0  0  0
    0.8200   -1.2150   -0.0830 C   0  0  0  0  0  0  0  0  0  0  0  0
   -0.0010   -0.9970   -1.0980 C   0  0  0  0  0  0  0  0  0  0  0  0
    0.3650    0.0690   -2.0650 C   0  0  0  0  0  0  0  0  0  0  0  0
   -1.2300   -1.7950   -1.2480 C   0  0  0  0  0  0  0  0  0  0  0  0
   -2.4950   -0.9470   -1.2230 C   0  0  0  0  0  0  0  0  0  0  0  0
   -2.6190   -0.2060    0.0590 C   0  0  0  0  0  0  0  0  0  0  0  0
   -2.6780    1.1040    0.1680 C   0  0  0  0  0  0  0  0  0  0  0  0
   -2.6230    1.9780   -1.0340 C   0  0  0  0  0  0  0  0  0  0  0  0
   -2.8020    1.7540    1.5020 C   0  0  0  0  0  0  0  0  0  0  0  0
  1  2  1  0
  2  3  2  0
  2  4  1  0
  4  5  2  3
  5  6  1  0
  6  7  2  3
  7  8  1  0
  7  9  1  0
  9 10  1  0
 10 11  1  0
 11 12  2  3
 12 13  1  0
 12 14  1  0
M  END
