
     RDKit          3D

 26 27  0  0  0  0  0  0  0  0999 V2000
    4.2430    2.7010    0.0060 C   0  0  0  0  0  0  0  0  0  0  0  0
    3.5300    1.4730   -0.5430 C   0  0  1  0  0  0  0  0  0  0  0  0
    4.5390    0.8120   -1.4420 C   0  0  0  0  0  0  0  0  0  0  0  0
    5.7500    0.3550   -0.8890 N   0  0  0  0  0  0  0  0  0  0  0  0
    4.3280    0.6600   -2.6640 O   0  0  0  0  0  0  0  0  0  0  0  0
    3.2870    0.5280    0.5780 C   0  0  0  0  0  0  0  0  0  0  0  0
    1.9310    0.8040    1.2420 C   0  0  0  0  0  0  0  0  0  0  0  0
    0.9160    0.6040    0.1360 C   0  0  1  0  0  0  0  0  0  0  0  0
   -0.4030    0.6700    0.6840 N   0  0  0  0  0  0  0  0  0  0  0  0
   -1.3330   -0.3890    0.4310 C   0  0  0  0  0  0  0  0  0  0  0  0
   -0.9250   -1.3420   -0.2780 O   0  0  0  0  0  0  0  0  0  0  0  0
   -2.6760   -0.3600    0.9640 N   0  0  0  0  0  0  0  0  0  0  0  0
   -3.5870   -1.4160    0.6760 C   0  0  0  0  0  0  0  0  0  0  0  0
   -4.0560   -2.1470    1.6680 C   0  0  0  0  0  0  0  0  0  0  0  0
   -3.7080   -1.9550    3.0640 C   0  0  0  0  0  0  0  0  0  0  0  0
   -2.8190   -0.9350    3.4460 N   0  0  0  0  0  0  0  0  0  0  0  0
   -4.1910   -2.6920    3.9540 O   0  0  0  0  0  0  0  0  0  0  0  0
   -4.0010   -1.6730   -0.7400 C   0  0  0  0  0  0  0  0  0  0  0  0
   -3.5170   -0.9160   -1.6990 C   0  0  0  0  0  0  0  0  0  0  0  0
   -4.2220   -1.5130   -3.2120 S   0  0  0  0  0  0  0  0  0  0  0  0
   -3.1630   -2.0550   -4.1470 O   0  0  0  0  0  0  0  0  0  0  0  0
   -5.1780   -2.7930   -2.4710 C   0  0  0  0  0  0  0  0  0  0  0  0
   -5.9210   -3.5860   -3.0510 O   0  0  0  0  0  0  0  0  0  0  0  0
   -4.8820   -2.6770   -1.0990 N   0  0  0  0  0  0  0  0  0  0  0  0
    1.1280    1.7920   -0.7910 C   0  0  0  0  0  0  0  0  0  0  0  0
    2.4240    1.8110   -1.3670 N   0  0  0  0  0  0  0  0  0  0  0  0
  2  1  1  1
  2  3  1  0
  2  6  1  0
  2 26  1  0
  3  4  1  0
  3  5  2  0
  6  7  1  0
  7  8  1  0
  8  9  1  1
  8 25  1  0
  9 10  1  0
 10 11  2  0
 10 12  1  0
 12 13  1  0
 13 14  2  3
 13 18  1  0
 14 15  1  0
 15 16  1  0
 15 17  2  0
 18 19  2  0
 18 24  1  0
 20 19  1  1
 20 21  2  0
 20 22  1  0
 22 23  2  0
 22 24  1  0
 25 26  1  0
M  CHG  1  26   1
M  END
