
     RDKit          3D

 26 28  0  0  0  0  0  0  0  0999 V2000
   -4.7040   -1.4080    1.3290 C   0  0  0  0  0  0  0  0  0  0  0  0
   -4.4100   -0.4730    0.2150 C   0  0  1  0  0  0  0  0  0  0  0  0
   -5.5070   -0.6460   -0.8070 C   0  0  0  0  0  0  0  0  0  0  0  0
   -5.6610   -1.8990   -1.4490 N   0  0  0  0  0  0  0  0  0  0  0  0
   -6.2990    0.2720   -1.1210 O   0  0  0  0  0  0  0  0  0  0  0  0
   -4.5300    0.9040    0.6700 N   0  0  0  0  0  0  0  0  0  0  0  0
   -3.9330    1.8770   -0.1800 C   0  0  0  0  0  0  0  0  0  0  0  0
   -4.1280    3.0890    0.0330 O   0  0  0  0  0  0  0  0  0  0  0  0
   -3.0900    1.4640   -1.3070 C   0  0  0  0  0  0  0  0  0  0  0  0
   -3.1400    0.1340   -1.6380 O   0  0  0  0  0  0  0  0  0  0  0  0
   -3.1300   -0.7050   -0.5190 C   0  0  1  0  0  0  0  0  0  0  0  0
   -1.9460   -0.4890    0.3220 C   0  0  0  0  0  0  0  0  0  0  0  0
   -1.7010   -0.3240    1.6330 C   0  0  0  0  0  0  0  0  0  0  0  0
   -0.4340   -0.1480    2.0490 C   0  0  0  0  0  0  0  0  0  0  0  0
    0.5590   -0.1440    1.1120 C   0  0  0  0  0  0  0  0  0  0  0  0
    1.9550    0.0160    1.2510 N   0  0  0  0  0  0  0  0  0  0  0  0
    2.8260   -0.0110    0.1350 C   0  0  0  0  0  0  0  0  0  0  0  0
    2.3210   -0.1840   -1.0010 O   0  0  0  0  0  0  0  0  0  0  0  0
    4.2270    0.1450    0.2370 N   0  0  0  0  0  0  0  0  0  0  0  0
    5.0940    0.1110   -0.9440 C   0  0  1  0  0  0  0  0  0  0  0  0
    5.9320    1.3700   -1.0070 C   0  0  0  0  0  0  0  0  0  0  0  0
    6.9670    1.0980   -0.0290 N   0  0  0  0  0  0  0  0  0  0  0  0
    7.2470   -0.3080   -0.1820 C   0  0  0  0  0  0  0  0  0  0  0  0
    8.3440   -0.8220    0.1360 O   0  0  0  0  0  0  0  0  0  0  0  0
    6.0880   -0.9170   -0.7290 N   0  0  0  0  0  0  0  0  0  0  0  0
   -0.3470   -0.3970   -0.3810 S   0  0  0  0  0  0  0  0  0  0  0  0
  2  1  1  1
  2  3  1  0
  2  6  1  0
  2 11  1  0
  3  4  1  0
  3  5  2  0
  6  7  1  0
  7  8  2  0
  7  9  1  0
  9 10  1  0
 10 11  1  0
 11 12  1  1
 12 13  2  0
 12 26  1  0
 13 14  1  0
 14 15  2  0
 15 16  1  0
 15 26  1  0
 16 17  1  0
 17 18  2  0
 17 19  1  0
 20 19  1  1
 20 21  1  0
 20 25  1  0
 21 22  1  0
 22 23  1  0
 23 24  2  0
 23 25  1  0
M  CHG  1  22   1
M  END
