
     RDKit          3D

 26 27  0  0  0  0  0  0  0  0999 V2000
    5.8850    0.4410   -1.0790 C   0  0  0  0  0  0  0  0  0  0  0  0
    4.3940    0.5450   -1.3400 C   0  0  1  0  0  0  0  0  0  0  0  0
    3.4430    0.0830    0.1320 S   0  0  0  0  0  0  0  0  0  0  0  0
    1.7090    0.2020   -0.2580 C   0  0  0  0  0  0  0  0  0  0  0  0
    0.8200   -0.2100    0.9100 C   0  0  0  0  0  0  0  0  0  0  0  0
   -0.5460   -0.1460    0.6680 N   0  0  0  0  0  0  0  0  0  0  0  0
   -1.2940    1.1000    0.8140 C   0  0  0  0  0  0  0  0  0  0  0  0
   -1.0670    1.8470    1.7650 O   0  0  0  0  0  0  0  0  0  0  0  0
   -2.3190    1.4430   -0.2000 C   0  0  2  0  0  0  0  0  0  0  0  0
   -3.3780    2.1840    0.4290 N   0  0  0  0  0  0  0  0  0  0  0  0
   -3.6560    3.5250    0.0570 C   0  0  0  0  0  0  0  0  0  0  0  0
   -4.7110    4.2210    0.7030 N   0  0  0  0  0  0  0  0  0  0  0  0
   -2.9970    4.1310   -0.8310 O   0  0  0  0  0  0  0  0  0  0  0  0
   -2.7990    0.1980   -0.9180 C   0  0  0  0  0  0  0  0  0  0  0  0
   -2.7930   -0.9780    0.0510 C   0  0  1  0  0  0  0  0  0  0  0  0
   -3.5590   -2.0110   -0.3240 O   0  0  0  0  0  0  0  0  0  0  0  0
   -3.1210   -3.3040   -0.3820 C   0  0  0  0  0  0  0  0  0  0  0  0
   -3.8830   -4.2630   -0.6920 O   0  0  0  0  0  0  0  0  0  0  0  0
   -1.7650   -3.5400   -0.0790 N   0  0  0  0  0  0  0  0  0  0  0  0
   -0.8370   -2.4730    0.2880 C   0  0  0  0  0  0  0  0  0  0  0  0
    0.5540   -2.7660    0.5650 C   0  0  0  0  0  0  0  0  0  0  0  0
    0.7840   -3.5950    1.7420 N   0  0  0  0  0  0  0  0  0  0  0  0
   -1.3340   -1.2680    0.3250 C   0  0  0  0  0  0  0  0  0  0  0  0
    4.0230    1.8870   -1.8250 C   0  0  0  0  0  0  0  0  0  0  0  0
    2.7480    2.3010   -2.2330 N   0  0  0  0  0  0  0  0  0  0  0  0
    4.9620    2.7580   -1.8770 O   0  0  0  0  0  0  0  0  0  0  0  0
  2  1  1  1
  2  3  1  0
  2 24  1  0
  3  4  1  0
  4  5  1  0
  5  6  1  0
  6  7  1  0
  6 23  1  0
  7  8  2  0
  7  9  1  0
  9 10  1  1
  9 14  1  0
 10 11  1  0
 11 12  1  0
 11 13  2  0
 15 14  1  6
 15 16  1  0
 15 23  1  0
 16 17  1  0
 17 18  2  0
 17 19  1  0
 19 20  1  0
 20 21  1  0
 20 23  2  0
 21 22  1  0
 24 25  1  0
 24 26  2  0
M  CHG  1  22   1
M  END
