
     RDKit          3D

 26 27  0  0  0  0  0  0  0  0999 V2000
   -5.0760   -0.1570    0.0240 C   0  0  0  0  0  0  0  0  0  0  0  0
   -3.6320   -0.4070    0.2860 C   0  0  2  0  0  0  0  0  0  0  0  0
   -3.2140   -1.8250    0.1840 C   0  0  0  0  0  0  0  0  0  0  0  0
   -3.4190    0.1080    1.6130 O   0  0  0  0  0  0  0  0  0  0  0  0
   -3.5290    1.4890    1.4360 C   0  0  0  0  0  0  0  0  0  0  0  0
   -3.3250    1.7610    0.0730 O   0  0  0  0  0  0  0  0  0  0  0  0
   -2.7540    0.5870   -0.4300 C   0  0  2  0  0  0  0  0  0  0  0  0
   -2.6980    0.4900   -1.9010 C   0  0  0  0  0  0  0  0  0  0  0  0
   -3.9200    0.5390   -2.6260 N   0  0  0  0  0  0  0  0  0  0  0  0
   -1.3570    0.5350    0.1620 C   0  0  0  0  0  0  0  0  0  0  0  0
   -0.4340   -0.4170   -0.0440 N   0  0  0  0  0  0  0  0  0  0  0  0
    0.6860   -0.1200    0.6890 C   0  0  0  0  0  0  0  0  0  0  0  0
    1.9160   -0.9370    0.7470 C   0  0  2  0  0  0  0  0  0  0  0  0
    3.0010   -0.1630    1.1800 O   0  0  0  0  0  0  0  0  0  0  0  0
    2.3150   -1.3450   -0.6830 C   0  0  0  0  0  0  0  0  0  0  0  0
    3.7780   -2.3940   -0.6480 S   0  0  0  0  0  0  0  0  0  0  0  0
    5.2500   -1.5980   -0.0260 C   0  0  0  0  0  0  0  0  0  0  0  0
    5.7330   -0.5460   -0.9220 C   0  0  0  0  0  0  0  0  0  0  0  0
    6.8900    0.1880   -0.5660 N   0  0  0  0  0  0  0  0  0  0  0  0
    5.1820   -0.2390   -2.0140 O   0  0  0  0  0  0  0  0  0  0  0  0
    0.4270    1.0100    1.3280 N   0  0  0  0  0  0  0  0  0  0  0  0
    1.2770    1.7880    2.2170 C   0  0  0  0  0  0  0  0  0  0  0  0
    1.9950    2.7890    1.3820 C   0  0  0  0  0  0  0  0  0  0  0  0
    1.8140    2.9140   -0.0220 N   0  0  0  0  0  0  0  0  0  0  0  0
    2.8130    3.5770    1.9350 O   0  0  0  0  0  0  0  0  0  0  0  0
   -0.8020    1.4050    1.0120 N   0  0  0  0  0  0  0  0  0  0  0  0
  2  1  1  6
  2  3  1  0
  2  4  1  0
  2  7  1  0
  4  5  1  0
  5  6  1  0
  6  7  1  0
  7  8  1  6
  7 10  1  0
  8  9  1  0
 10 11  1  0
 10 26  2  0
 11 12  2  0
 12 13  1  0
 12 21  1  0
 13 14  1  6
 13 15  1  0
 15 16  1  0
 16 17  1  0
 17 18  1  0
 18 19  1  0
 18 20  2  0
 21 22  1  0
 21 26  1  0
 22 23  1  0
 23 24  1  0
 23 25  2  0
M  CHG  1   9   1
M  END
