
     RDKit          3D

 26 27  0  0  0  0  0  0  0  0999 V2000
    8.4670    1.3820   -0.8740 C   0  0  0  0  0  0  0  0  0  0  0  0
    7.8870    0.1800   -1.6230 C   0  0  1  0  0  0  0  0  0  0  0  0
    8.7720   -0.8570   -1.7290 O   0  0  0  0  0  0  0  0  0  0  0  0
    6.6440   -0.1850   -0.9090 C   0  0  0  0  0  0  0  0  0  0  0  0
    6.6970   -0.9130    0.2410 C   0  0  0  0  0  0  0  0  0  0  0  0
    5.5130   -1.2150    0.8790 C   0  0  0  0  0  0  0  0  0  0  0  0
    4.2810   -0.7910    0.3700 C   0  0  0  0  0  0  0  0  0  0  0  0
    3.1000   -1.1120    1.0570 N   0  0  0  0  0  0  0  0  0  0  0  0
    1.8310   -0.9060    0.5460 N   0  0  0  0  0  0  0  0  0  0  0  0
    0.6690   -1.1200    1.3360 C   0  0  0  0  0  0  0  0  0  0  0  0
    0.8500   -1.4870    2.5320 O   0  0  0  0  0  0  0  0  0  0  0  0
   -0.7010   -0.9360    0.8190 C   0  0  0  0  0  0  0  0  0  0  0  0
   -0.9340   -0.6300   -0.3830 O   0  0  0  0  0  0  0  0  0  0  0  0
   -1.8340   -1.0980    1.6630 N   0  0  0  0  0  0  0  0  0  0  0  0
   -3.2040   -0.9500    1.1830 C   0  0  1  0  0  0  0  0  0  0  0  0
   -4.2290   -1.6040    2.0950 C   0  0  0  0  0  0  0  0  0  0  0  0
   -4.1330   -0.0740    1.8840 C   0  0  2  0  0  0  0  0  0  0  0  0
   -5.6050    0.6460    1.3340 S   0  0  0  0  0  0  0  0  0  0  0  0
   -6.6480    0.8620    2.4190 O   0  0  0  0  0  0  0  0  0  0  0  0
   -5.6970    1.7280   -0.0170 C   0  0  2  0  0  0  0  0  0  0  0  0
   -7.2030    2.1470   -0.1280 C   0  0  0  0  0  0  0  0  0  0  0  0
   -7.9190    0.8990   -0.3450 N   0  0  0  0  0  0  0  0  0  0  0  0
   -5.4480    1.1190   -1.4030 C   0  0  0  0  0  0  0  0  0  0  0  0
   -4.2270    0.5800   -1.5900 O   0  0  0  0  0  0  0  0  0  0  0  0
    4.3000   -0.0790   -0.7630 N   0  0  0  0  0  0  0  0  0  0  0  0
    5.4500    0.2110   -1.3770 N   0  0  0  0  0  0  0  0  0  0  0  0
  2  1  1  1
  2  3  1  0
  2  4  1  0
  4  5  2  0
  4 26  1  0
  5  6  1  0
  6  7  2  0
  7  8  1  0
  7 25  1  0
  8  9  1  0
  9 10  1  0
 10 11  2  0
 10 12  1  0
 12 13  2  0
 12 14  1  0
 15 14  1  1
 15 16  1  0
 15 17  1  0
 17 16  1  1
 17 18  1  0
 18 19  2  0
 18 20  1  1
 20 21  1  6
 20 23  1  0
 21 22  1  0
 23 24  1  0
 25 26  2  0
M  CHG  1  25   1
M  END
