
     RDKit          3D

 26 27  0  0  0  0  0  0  0  0999 V2000
    5.7200   -0.7940   -1.5480 N   0  0  0  0  0  0  0  0  0  0  0  0
    6.1440   -0.8980   -0.1820 C   0  0  0  0  0  0  0  0  0  0  0  0
    7.3610   -1.1030    0.0540 O   0  0  0  0  0  0  0  0  0  0  0  0
    5.2440   -0.7830    0.9560 C   0  0  0  0  0  0  0  0  0  0  0  0
    3.8950   -0.5140    0.4440 N   0  0  0  0  0  0  0  0  0  0  0  0
    2.8950   -0.3600    1.3360 C   0  0  0  0  0  0  0  0  0  0  0  0
    3.2490   -0.4750    2.6100 O   0  0  0  0  0  0  0  0  0  0  0  0
    1.5830   -0.1110    1.2740 N   0  0  0  0  0  0  0  0  0  0  0  0
    0.3170    0.1310    1.1410 C   0  0  0  0  0  0  0  0  0  0  0  0
   -0.2040    0.1920    2.3550 O   0  0  0  0  0  0  0  0  0  0  0  0
   -0.5650    0.3280    0.0960 N   0  0  0  0  0  0  0  0  0  0  0  0
   -1.9190    0.5790    0.4120 C   0  0  0  0  0  0  0  0  0  0  0  0
   -2.8760   -0.2230    0.0860 C   0  0  0  0  0  0  0  0  0  0  0  0
   -2.7510   -1.4810   -0.6460 C   0  0  0  0  0  0  0  0  0  0  0  0
   -3.8870   -2.1720   -0.8360 C   0  0  0  0  0  0  0  0  0  0  0  0
   -3.8140   -3.4310   -1.5580 C   0  0  0  0  0  0  0  0  0  0  0  0
   -3.0780   -3.3820   -2.8650 C   0  0  0  0  0  0  0  0  0  0  0  0
   -1.6740   -3.0880   -2.7180 N   0  0  0  0  0  0  0  0  0  0  0  0
   -1.3180   -2.0960   -1.3590 S   0  0  0  0  0  0  0  0  0  0  0  0
   -0.1450   -2.5000   -0.5560 O   0  0  0  0  0  0  0  0  0  0  0  0
   -2.1980    1.8380    1.0970 C   0  0  0  0  0  0  0  0  0  0  0  0
   -3.3850    2.1720    1.4450 O   0  0  0  0  0  0  0  0  0  0  0  0
   -1.1840    2.7790    1.4200 N   0  0  0  0  0  0  0  0  0  0  0  0
   -1.5180    4.0160    2.1080 C   0  0  2  0  0  0  0  0  0  0  0  0
   -1.0170    5.3190    1.4840 C   0  0  0  0  0  0  0  0  0  0  0  0
   -0.5230    4.7950    2.8280 C   0  0  0  0  0  0  0  0  0  0  0  0
  1  2  1  0
  2  3  2  0
  2  4  1  0
  4  5  1  0
  5  6  1  0
  6  7  2  0
  6  8  1  0
  8  9  1  0
  9 10  2  0
  9 11  1  0
 11 12  1  0
 12 13  2  3
 12 21  1  0
 13 14  1  0
 14 15  2  0
 14 19  1  0
 15 16  1  0
 16 17  1  0
 17 18  1  0
 19 18  1  1
 19 20  2  0
 21 22  2  0
 21 23  1  0
 24 23  1  6
 24 25  1  0
 24 26  1  0
 25 26  1  0
M  CHG  1  18   1
M  END
