
     RDKit          3D

 26 28  0  0  0  0  0  0  0  0999 V2000
   -0.5360    0.2410   -2.3560 C   0  0  0  0  0  0  0  0  0  0  0  0
   -0.1040   -0.2160   -0.9700 C   0  0  2  0  0  0  0  0  0  0  0  0
   -1.1690   -0.8190   -0.1670 C   0  0  0  0  0  0  0  0  0  0  0  0
   -2.4040   -0.1600    0.2210 C   0  0  1  0  0  0  0  0  0  0  0  0
   -2.3630    1.0720    1.0490 C   0  0  0  0  0  0  0  0  0  0  0  0
   -1.7510    0.8770    2.3060 O   0  0  0  0  0  0  0  0  0  0  0  0
   -3.4170    0.0060   -0.8970 C   0  0  0  0  0  0  0  0  0  0  0  0
   -4.5610    0.6290   -0.4140 O   0  0  0  0  0  0  0  0  0  0  0  0
   -5.3390    0.0640    0.5930 C   0  0  0  0  0  0  0  0  0  0  0  0
   -5.2860   -1.1870    0.8270 N   0  0  0  0  0  0  0  0  0  0  0  0
   -6.1800    0.9490    1.3300 N   0  0  0  0  0  0  0  0  0  0  0  0
    0.4810    0.9510   -0.3590 N   0  0  0  0  0  0  0  0  0  0  0  0
    1.8200    1.1670   -0.6530 N   0  0  0  0  0  0  0  0  0  0  0  0
    2.7640    0.1330   -0.2830 C   0  0  0  0  0  0  0  0  0  0  0  0
    2.2210   -1.1290   -0.5920 C   0  0  0  0  0  0  0  0  0  0  0  0
    3.4640   -2.2520   -0.0810 S   0  0  0  0  0  0  0  0  0  0  0  0
    4.6280   -1.0370    0.5050 C   0  0  0  0  0  0  0  0  0  0  0  0
    5.9060   -1.1350    1.0760 C   0  0  0  0  0  0  0  0  0  0  0  0
    6.3990   -2.3000    1.2440 O   0  0  0  0  0  0  0  0  0  0  0  0
    6.5560   -0.0140    1.4190 N   0  0  0  0  0  0  0  0  0  0  0  0
    5.9240    1.1410    1.1880 C   0  0  0  0  0  0  0  0  0  0  0  0
    6.5040    2.2530    1.4990 O   0  0  0  0  0  0  0  0  0  0  0  0
    4.7100    1.2490    0.6470 N   0  0  0  0  0  0  0  0  0  0  0  0
    3.9870    0.1360    0.2710 C   0  0  0  0  0  0  0  0  0  0  0  0
    0.9030   -1.3110   -1.2280 C   0  0  1  0  0  0  0  0  0  0  0  0
    0.4450   -2.5740   -0.8170 O   0  0  0  0  0  0  0  0  0  0  0  0
  2  1  1  6
  2  3  1  0
  2 12  1  0
  2 25  1  0
  4  3  1  6
  4  5  1  0
  4  7  1  0
  5  6  1  0
  7  8  1  0
  8  9  1  0
  9 10  2  0
  9 11  1  0
 12 13  1  0
 13 14  1  0
 14 15  2  0
 14 24  1  0
 15 16  1  0
 15 25  1  0
 16 17  1  0
 17 18  1  0
 17 24  2  0
 18 19  2  0
 18 20  1  0
 20 21  1  0
 21 22  2  0
 21 23  1  0
 23 24  1  0
 25 26  1  1
M  CHG  1  12   1
M  END
