
     RDKit          3D

 26 27  0  0  0  0  0  0  0  0999 V2000
    6.5280    2.2160    1.8030 C   0  0  0  0  0  0  0  0  0  0  0  0
    5.5810    1.4220    1.2040 O   0  0  0  0  0  0  0  0  0  0  0  0
    5.8650    1.1450   -0.1050 C   0  0  0  0  0  0  0  0  0  0  0  0
    4.7800    0.2660   -0.7010 C   0  0  0  0  0  0  0  0  0  0  0  0
    4.8690   -0.0850   -1.8730 O   0  0  0  0  0  0  0  0  0  0  0  0
    3.6960   -0.1360    0.0790 N   0  0  0  0  0  0  0  0  0  0  0  0
    2.5800   -0.9110   -0.1650 C   0  0  0  0  0  0  0  0  0  0  0  0
    2.0840   -1.5590   -1.1520 C   0  0  0  0  0  0  0  0  0  0  0  0
    2.6620   -1.6560   -2.4800 N   0  0  0  0  0  0  0  0  0  0  0  0
    0.8080   -2.2860   -0.8810 C   0  0  0  0  0  0  0  0  0  0  0  0
   -0.0100   -1.4620    0.0870 C   0  0  2  0  0  0  0  0  0  0  0  0
   -1.0420   -2.1960    0.7240 N   0  0  0  0  0  0  0  0  0  0  0  0
   -2.2370   -1.5190    1.1020 C   0  0  0  0  0  0  0  0  0  0  0  0
   -3.3350   -2.1450    1.2630 O   0  0  0  0  0  0  0  0  0  0  0  0
   -2.1520   -0.0490    1.3000 C   0  0  2  0  0  0  0  0  0  0  0  0
   -1.2990    0.2830    2.5000 C   0  0  0  0  0  0  0  0  0  0  0  0
   -3.5200    0.5700    1.4650 C   0  0  0  0  0  0  0  0  0  0  0  0
   -4.3690    0.3400    0.2870 C   0  0  0  0  0  0  0  0  0  0  0  0
   -3.9320   -0.2990   -0.6850 O   0  0  0  0  0  0  0  0  0  0  0  0
   -5.6910    0.8420    0.2420 N   0  0  0  0  0  0  0  0  0  0  0  0
   -6.5590    0.6330   -0.9070 C   0  0  0  0  0  0  0  0  0  0  0  0
   -6.0190    1.1920   -2.1110 N   0  0  0  0  0  0  0  0  0  0  0  0
   -1.5130    0.5080    0.1110 N   0  0  0  0  0  0  0  0  0  0  0  0
   -0.4350   -0.1840   -0.4910 C   0  0  0  0  0  0  0  0  0  0  0  0
    0.1760    0.2600   -1.5080 O   0  0  0  0  0  0  0  0  0  0  0  0
    1.3980   -1.1310    1.2300 S   0  0  0  0  0  0  0  0  0  0  0  0
  1  2  1  0
  2  3  1  0
  3  4  1  0
  4  5  2  0
  4  6  1  0
  6  7  1  0
  7  8  2  0
  7 26  1  0
  8  9  1  0
  8 10  1  0
 11 10  1  6
 11 12  1  0
 11 24  1  0
 11 26  1  0
 12 13  1  0
 13 14  2  0
 13 15  1  0
 15 16  1  1
 15 17  1  0
 15 23  1  0
 17 18  1  0
 18 19  2  0
 18 20  1  0
 20 21  1  0
 21 22  1  0
 23 24  1  0
 24 25  2  0
M  CHG  1   9   1
M  END
