
     RDKit          3D

 26 28  0  0  0  0  0  0  0  0999 V2000
    7.2340    2.1980   -0.1240 N   0  0  0  0  0  0  0  0  0  0  0  0
    6.0990    1.5780   -0.7040 C   0  0  0  0  0  0  0  0  0  0  0  0
    5.9140    1.5410   -2.0400 N   0  0  0  0  0  0  0  0  0  0  0  0
    4.8180    0.9430   -2.5910 C   0  0  0  0  0  0  0  0  0  0  0  0
    3.8740    0.3620   -1.8260 N   0  0  0  0  0  0  0  0  0  0  0  0
    4.0010    0.3650   -0.4880 C   0  0  0  0  0  0  0  0  0  0  0  0
    5.1230    0.9790    0.0660 C   0  0  0  0  0  0  0  0  0  0  0  0
    5.0170    0.8480    1.3940 N   0  0  0  0  0  0  0  0  0  0  0  0
    3.8660    0.1760    1.6490 C   0  0  0  0  0  0  0  0  0  0  0  0
    3.2460   -0.1190    0.4980 N   0  0  0  0  0  0  0  0  0  0  0  0
    2.0150   -0.8190    0.3620 C   0  0  2  0  0  0  0  0  0  0  0  0
    1.4680   -0.7070   -0.9200 O   0  0  0  0  0  0  0  0  0  0  0  0
    0.2250   -1.3630   -0.8130 C   0  0  2  0  0  0  0  0  0  0  0  0
   -0.6940   -0.9740   -1.9200 C   0  0  0  0  0  0  0  0  0  0  0  0
   -2.2610   -1.7860   -1.8880 S   0  0  0  0  0  0  0  0  0  0  0  0
   -3.3900   -1.3720   -0.5800 C   0  0  0  0  0  0  0  0  0  0  0  0
   -3.9010    0.0640   -0.6310 C   0  0  0  0  0  0  0  0  0  0  0  0
   -4.8330    0.2200    0.5510 C   0  0  2  0  0  0  0  0  0  0  0  0
   -5.9220   -0.7140    0.4490 N   0  0  0  0  0  0  0  0  0  0  0  0
   -5.3280    1.6280    0.6570 C   0  0  0  0  0  0  0  0  0  0  0  0
   -6.5590    1.8320    0.6470 O   0  0  0  0  0  0  0  0  0  0  0  0
   -4.4470    2.6900    0.7660 O   0  0  0  0  0  0  0  0  0  0  0  0
   -0.3070   -0.9610    0.5360 C   0  0  1  0  0  0  0  0  0  0  0  0
   -0.5510   -2.1380    1.2450 O   0  0  0  0  0  0  0  0  0  0  0  0
    0.8780   -0.2730    1.1820 C   0  0  1  0  0  0  0  0  0  0  0  0
    0.9910   -0.5670    2.5360 O   0  0  0  0  0  0  0  0  0  0  0  0
  1  2  1  0
  2  3  2  0
  2  7  1  0
  3  4  1  0
  4  5  2  0
  5  6  1  0
  6  7  2  0
  6 10  1  0
  7  8  1  0
  8  9  2  0
  9 10  1  0
 11 10  1  6
 11 12  1  0
 11 25  1  0
 12 13  1  0
 13 14  1  6
 13 23  1  0
 14 15  1  0
 15 16  1  0
 16 17  1  0
 17 18  1  0
 18 19  1  6
 18 20  1  0
 20 21  2  0
 20 22  1  0
 23 24  1  1
 23 25  1  0
 25 26  1  1
M  CHG  1  19   1
M  END
