
     RDKit          3D

 27 28  0  0  0  0  0  0  0  0999 V2000
    9.5360   -0.7890    0.3690 C   0  0  0  0  0  0  0  0  0  0  0  0
    8.6020    0.2190    0.0360 O   0  0  0  0  0  0  0  0  0  0  0  0
    7.2550   -0.0760    0.1630 C   0  0  0  0  0  0  0  0  0  0  0  0
    6.9340   -1.2180    0.5630 O   0  0  0  0  0  0  0  0  0  0  0  0
    6.1950    0.9010   -0.1570 C   0  0  0  0  0  0  0  0  0  0  0  0
    4.9390    0.3050    0.0720 O   0  0  0  0  0  0  0  0  0  0  0  0
    3.7990    1.0770   -0.1750 C   0  0  0  0  0  0  0  0  0  0  0  0
    3.9750    2.2450   -0.5820 O   0  0  0  0  0  0  0  0  0  0  0  0
    2.5300    0.4980    0.0480 N   0  0  0  0  0  0  0  0  0  0  0  0
    1.3470    1.2140   -0.1780 C   0  0  0  0  0  0  0  0  0  0  0  0
    1.2100    2.4650   -0.6090 N   0  0  0  0  0  0  0  0  0  0  0  0
   -0.1270    2.7400   -0.6810 C   0  0  0  0  0  0  0  0  0  0  0  0
   -0.8090    1.6520   -0.2920 N   0  0  0  0  0  0  0  0  0  0  0  0
    0.0780    0.6990    0.0220 C   0  0  0  0  0  0  0  0  0  0  0  0
   -0.2270   -0.6580    0.4980 C   0  0  0  0  0  0  0  0  0  0  0  0
   -1.6130   -0.8250    0.5800 O   0  0  0  0  0  0  0  0  0  0  0  0
   -2.3950   -0.6860   -0.5540 C   0  0  0  0  0  0  0  0  0  0  0  0
   -1.8570   -0.4150   -1.6310 O   0  0  0  0  0  0  0  0  0  0  0  0
   -3.8300   -0.8700   -0.4160 C   0  0  0  0  0  0  0  0  0  0  0  0
   -4.5450   -0.7300   -1.5200 C   0  0  0  0  0  0  0  0  0  0  0  0
   -5.9660   -0.8130   -1.8840 C   0  0  0  0  0  0  0  0  0  0  0  0
   -7.1120   -0.6220   -1.2500 C   0  0  0  0  0  0  0  0  0  0  0  0
   -7.4760   -0.2350    0.1180 C   0  0  0  0  0  0  0  0  0  0  0  0
   -6.8120   -1.0190    1.1780 C   0  0  0  0  0  0  0  0  0  0  0  0
   -7.6070   -1.6510    1.9280 O   0  0  0  0  0  0  0  0  0  0  0  0
   -5.4300   -1.2450    1.5770 C   0  0  0  0  0  0  0  0  0  0  0  0
   -4.2600   -1.1900    0.9610 C   0  0  0  0  0  0  0  0  0  0  0  0
  1  2  1  0
  2  3  1  0
  3  4  2  0
  3  5  1  0
  5  6  1  0
  6  7  1  0
  7  8  2  0
  7  9  1  0
  9 10  1  0
 10 11  1  0
 10 14  2  0
 11 12  1  0
 12 13  2  0
 13 14  1  0
 14 15  1  0
 15 16  1  0
 16 17  1  0
 17 18  2  0
 17 19  1  0
 19 20  2  0
 19 27  1  0
 20 21  1  0
 21 22  2  0
 22 23  1  0
 23 24  1  0
 24 25  2  0
 24 26  1  0
 26 27  2  0
M  END
