
     RDKit          3D

 27 29  0  0  0  0  0  0  0  0999 V2000
    5.1460   -2.2180   -1.1330 C   0  0  0  0  0  0  0  0  0  0  0  0
    4.3030   -1.7250   -0.1520 O   0  0  0  0  0  0  0  0  0  0  0  0
    3.3510   -2.6130    0.2530 C   0  0  0  0  0  0  0  0  0  0  0  0
    2.3870   -2.2130    1.2950 C   0  0  0  0  0  0  0  0  0  0  0  0
    1.5480   -1.0440    0.9390 N   0  0  0  0  0  0  0  0  0  0  0  0
    2.0720    0.2080    0.7560 C   0  0  0  0  0  0  0  0  0  0  0  0
    3.3960    0.2020    0.9780 O   0  0  0  0  0  0  0  0  0  0  0  0
    1.6350    1.5160    0.3970 C   0  0  0  0  0  0  0  0  0  0  0  0
    0.4250    1.9690    0.0580 C   0  0  0  0  0  0  0  0  0  0  0  0
   -0.5880    1.0360    0.0400 N   0  0  0  0  0  0  0  0  0  0  0  0
   -1.9450    1.1150   -0.2430 C   0  0  0  0  0  0  0  0  0  0  0  0
   -2.5860    2.0890   -0.5540 O   0  0  0  0  0  0  0  0  0  0  0  0
   -2.7650   -0.1490   -0.1660 C   0  0  0  0  0  0  0  0  0  0  0  0
   -4.0710   -0.0970    0.2310 C   0  0  0  0  0  0  0  0  0  0  0  0
   -4.7970   -1.2660    0.2800 C   0  0  0  0  0  0  0  0  0  0  0  0
   -4.2500   -2.4810   -0.0580 C   0  0  0  0  0  0  0  0  0  0  0  0
   -4.9570   -3.6740   -0.0190 O   0  0  0  0  0  0  0  0  0  0  0  0
   -5.7960   -4.0210    0.9420 O   0  0  0  0  0  0  0  0  0  0  0  0
   -2.9340   -2.5290   -0.4580 C   0  0  0  0  0  0  0  0  0  0  0  0
   -2.1990   -1.3340   -0.5050 C   0  0  0  0  0  0  0  0  0  0  0  0
    0.1890    3.3900   -0.2830 C   0  0  0  0  0  0  0  0  0  0  0  0
   -0.8830    4.1540   -0.6600 C   0  0  0  0  0  0  0  0  0  0  0  0
   -0.4890    5.4700   -0.8510 C   0  0  0  0  0  0  0  0  0  0  0  0
    0.8090    5.4910   -0.5910 N   0  0  0  0  0  0  0  0  0  0  0  0
    1.2560    4.2670   -0.2480 C   0  0  0  0  0  0  0  0  0  0  0  0
    2.4980    3.7870    0.1040 O   0  0  0  0  0  0  0  0  0  0  0  0
    2.6560    2.5160    0.3980 O   0  0  0  0  0  0  0  0  0  0  0  0
  1  2  1  0
  2  3  1  0
  3  4  1  0
  4  5  1  0
  5  6  1  0
  6  7  2  0
  6  8  1  0
  8  9  2  0
  8 27  1  0
  9 10  1  0
  9 21  1  0
 10 11  1  0
 11 12  2  0
 11 13  1  0
 13 14  2  0
 13 20  1  0
 14 15  1  0
 15 16  2  0
 16 17  1  0
 16 19  1  0
 17 18  1  0
 19 20  2  0
 21 22  1  0
 21 25  2  0
 22 23  2  0
 23 24  1  0
 24 25  1  0
 25 26  1  0
 26 27  1  0
M  END
