
     RDKit          3D

 27 27  0  0  0  0  0  0  0  0999 V2000
    4.6880   -1.3720   -0.2450 C   0  0  0  0  0  0  0  0  0  0  0  0
    3.8470   -1.6030    0.6480 C   0  0  0  0  0  0  0  0  0  0  0  0
    4.1840   -2.5040    1.7510 C   0  0  0  0  0  0  0  0  0  0  0  0
    3.4990   -2.9020    2.7590 C   0  0  0  0  0  0  0  0  0  0  0  0
    2.2340   -2.6500    3.1750 O   0  0  0  0  0  0  0  0  0  0  0  0
    2.4530   -1.0340    0.5590 C   0  0  0  0  0  0  0  0  0  0  0  0
    1.6000   -1.2450    1.4150 O   0  0  0  0  0  0  0  0  0  0  0  0
    2.1420   -0.2580   -0.5350 O   0  0  0  0  0  0  0  0  0  0  0  0
    0.8780    0.2560   -0.7490 C   0  0  0  0  0  0  0  0  0  0  0  0
    0.8240    1.5020   -1.4870 C   0  0  0  0  0  0  0  0  0  0  0  0
    1.8960    2.0750   -1.9030 N   0  0  0  0  0  0  0  0  0  0  0  0
    2.0130    3.2920   -2.6330 C   0  0  0  0  0  0  0  0  0  0  0  0
    2.5310    4.4070   -1.7740 C   0  0  0  0  0  0  0  0  0  0  0  0
    2.7050    4.2610   -0.5480 O   0  0  0  0  0  0  0  0  0  0  0  0
    2.8180    5.6210   -2.3630 O   0  0  0  0  0  0  0  0  0  0  0  0
   -0.2240   -0.3250   -0.3320 C   0  0  0  0  0  0  0  0  0  0  0  0
   -1.5310    0.2360   -0.5730 C   0  0  0  0  0  0  0  0  0  0  0  0
   -2.5940   -0.4380   -0.1230 C   0  0  0  0  0  0  0  0  0  0  0  0
   -2.3540   -1.6580    0.5580 N   0  0  0  0  0  0  0  0  0  0  0  0
   -2.7400   -1.9070    1.9030 C   0  0  0  0  0  0  0  0  0  0  0  0
   -2.4600   -3.1720    2.5270 N   0  0  0  0  0  0  0  0  0  0  0  0
   -3.3200   -1.0030    2.5270 O   0  0  0  0  0  0  0  0  0  0  0  0
   -3.9370    0.0680   -0.3540 C   0  0  0  0  0  0  0  0  0  0  0  0
   -4.2180    1.2590   -1.0280 C   0  0  0  0  0  0  0  0  0  0  0  0
   -5.5880    1.3730   -1.0320 C   0  0  0  0  0  0  0  0  0  0  0  0
   -6.1120    0.2740   -0.3750 C   0  0  0  0  0  0  0  0  0  0  0  0
   -5.0920   -0.4270   -0.0210 O   0  0  0  0  0  0  0  0  0  0  0  0
  1  2  2  0
  2  3  1  0
  2  6  1  0
  3  4  2  3
  4  5  1  0
  6  7  2  0
  6  8  1  0
  8  9  1  0
  9 10  1  0
  9 16  2  3
 10 11  2  3
 11 12  1  0
 12 13  1  0
 13 14  2  0
 13 15  1  0
 16 17  1  0
 17 18  2  3
 18 19  1  0
 18 23  1  0
 19 20  1  0
 20 21  1  0
 20 22  2  0
 23 24  2  0
 23 27  1  0
 24 25  1  0
 25 26  2  0
 26 27  1  0
M  END
