
     RDKit          3D

 27 27  0  0  0  0  0  0  0  0999 V2000
    5.7690    1.2180   -1.7760 C   0  0  0  0  0  0  0  0  0  0  0  0
    4.5150    0.8060   -1.2600 O   0  0  0  0  0  0  0  0  0  0  0  0
    3.7130    1.5480   -0.4520 C   0  0  0  0  0  0  0  0  0  0  0  0
    4.1120    2.6920   -0.1360 O   0  0  0  0  0  0  0  0  0  0  0  0
    2.4110    0.9930    0.0250 C   0  0  0  0  0  0  0  0  0  0  0  0
    1.7030    1.7880    0.8020 C   0  0  0  0  0  0  0  0  0  0  0  0
    0.4470    1.7140    1.4720 C   0  0  0  0  0  0  0  0  0  0  0  0
    0.4850    1.3380    2.8720 O   0  0  0  0  0  0  0  0  0  0  0  0
    0.7700    2.2860    3.7730 O   0  0  0  0  0  0  0  0  0  0  0  0
   -0.7800    1.9420    1.0150 C   0  0  0  0  0  0  0  0  0  0  0  0
   -1.2360    2.3370   -0.2950 C   0  0  0  0  0  0  0  0  0  0  0  0
   -1.5410    1.6720   -1.3730 C   0  0  0  0  0  0  0  0  0  0  0  0
   -1.5310    0.2570   -1.6360 C   0  0  0  0  0  0  0  0  0  0  0  0
   -1.2410   -0.1710   -2.8520 C   0  0  0  0  0  0  0  0  0  0  0  0
   -0.9210    0.7570   -3.9510 C   0  0  0  0  0  0  0  0  0  0  0  0
    0.3740    0.5040   -4.4480 O   0  0  0  0  0  0  0  0  0  0  0  0
   -1.8250   -0.7530   -0.6590 N   0  0  0  0  0  0  0  0  0  0  0  0
   -1.1810   -1.0030    0.5860 C   0  0  0  0  0  0  0  0  0  0  0  0
   -2.0830   -1.1070    1.8020 C   0  0  2  0  0  0  0  0  0  0  0  0
   -1.2990   -1.3350    2.9980 N   0  0  0  0  0  0  0  0  0  0  0  0
   -2.9990   -2.2720    1.6950 C   0  0  0  0  0  0  0  0  0  0  0  0
   -3.8900   -2.2760    0.8220 O   0  0  0  0  0  0  0  0  0  0  0  0
   -2.9060   -3.3550    2.5240 O   0  0  0  0  0  0  0  0  0  0  0  0
   -3.7940   -4.4640    2.4120 C   0  0  0  0  0  0  0  0  0  0  0  0
    0.0870   -1.1790    0.7360 N   0  0  0  0  0  0  0  0  0  0  0  0
    1.1880   -1.2040   -0.0770 C   0  0  0  0  0  0  0  0  0  0  0  0
    2.1280   -0.3570   -0.3810 C   0  0  0  0  0  0  0  0  0  0  0  0
  1  2  1  0
  2  3  1  0
  3  4  2  0
  3  5  1  0
  5  6  2  0
  5 27  1  0
  6  7  1  0
  7  8  1  0
  7 10  2  0
  8  9  1  0
 10 11  1  0
 11 12  2  0
 12 13  1  0
 13 14  2  3
 13 17  1  0
 14 15  1  0
 15 16  1  0
 17 18  1  0
 18 19  1  0
 18 25  2  0
 19 20  1  1
 19 21  1  0
 21 22  2  0
 21 23  1  0
 23 24  1  0
 25 26  1  0
 26 27  2  0
M  END
