
     RDKit          3D

 27 28  0  0  0  0  0  0  0  0999 V2000
    5.2870    0.1770   -1.6420 C   0  0  0  0  0  0  0  0  0  0  0  0
    4.3680   -0.2090   -0.5330 C   0  0  1  0  0  0  0  0  0  0  0  0
    4.8010    0.0750    0.8640 C   0  0  0  0  0  0  0  0  0  0  0  0
    5.9590   -0.5270    1.3120 O   0  0  0  0  0  0  0  0  0  0  0  0
    7.2340   -0.2900    0.9190 C   0  0  0  0  0  0  0  0  0  0  0  0
    7.5600    0.5620    0.0610 O   0  0  0  0  0  0  0  0  0  0  0  0
    8.3260   -1.0040    1.4620 O   0  0  0  0  0  0  0  0  0  0  0  0
    3.0830    0.5590   -0.7800 C   0  0  0  0  0  0  0  0  0  0  0  0
    2.7040    1.3550    0.0910 O   0  0  0  0  0  0  0  0  0  0  0  0
    2.3590    0.3830   -1.9280 O   0  0  0  0  0  0  0  0  0  0  0  0
    1.1720    1.0810   -2.1630 C   0  0  0  0  0  0  0  0  0  0  0  0
    0.1510    0.7120   -1.1180 C   0  0  0  0  0  0  0  0  0  0  0  0
   -0.0410   -0.7070   -1.2480 O   0  0  0  0  0  0  0  0  0  0  0  0
   -0.9470   -1.2790   -0.3800 C   0  0  0  0  0  0  0  0  0  0  0  0
   -1.8370   -0.5500    0.1670 N   0  0  0  0  0  0  0  0  0  0  0  0
   -2.7630   -1.1540    1.0580 C   0  0  0  0  0  0  0  0  0  0  0  0
   -2.5010   -2.1090    2.0240 C   0  0  0  0  0  0  0  0  0  0  0  0
   -3.6510   -2.4130    2.6470 N   0  0  0  0  0  0  0  0  0  0  0  0
   -4.6030   -1.6580    2.0760 C   0  0  0  0  0  0  0  0  0  0  0  0
   -5.8420   -1.6520    2.3870 O   0  0  0  0  0  0  0  0  0  0  0  0
   -4.0810   -0.8870    1.1070 N   0  0  0  0  0  0  0  0  0  0  0  0
   -4.7510    0.0530    0.2630 C   0  0  0  0  0  0  0  0  0  0  0  0
   -5.8650   -0.3320   -0.4540 C   0  0  0  0  0  0  0  0  0  0  0  0
   -6.5290    0.5570   -1.2750 C   0  0  0  0  0  0  0  0  0  0  0  0
   -6.1110    1.8640   -1.4190 C   0  0  0  0  0  0  0  0  0  0  0  0
   -4.9960    2.2510   -0.7030 C   0  0  0  0  0  0  0  0  0  0  0  0
   -4.3310    1.3600    0.1210 C   0  0  0  0  0  0  0  0  0  0  0  0
  2  1  1  6
  2  3  1  0
  2  8  1  0
  3  4  1  0
  4  5  1  0
  5  6  2  0
  5  7  1  0
  8  9  2  0
  8 10  1  0
 10 11  1  0
 11 12  1  0
 12 13  1  0
 13 14  1  0
 14 15  2  3
 15 16  1  0
 16 17  2  0
 16 21  1  0
 17 18  1  0
 18 19  1  0
 19 20  2  0
 19 21  1  0
 21 22  1  0
 22 23  2  0
 22 27  1  0
 23 24  1  0
 24 25  2  0
 25 26  1  0
 26 27  2  0
M  END
