
     RDKit          3D

 27 28  0  0  0  0  0  0  0  0999 V2000
    5.6860   -2.3320    1.5850 O   0  0  0  0  0  0  0  0  0  0  0  0
    5.8390   -3.0400    0.5810 C   0  0  0  0  0  0  0  0  0  0  0  0
    5.4710   -2.6880   -0.6960 O   0  0  0  0  0  0  0  0  0  0  0  0
    4.8690   -1.4470   -0.9530 C   0  0  0  0  0  0  0  0  0  0  0  0
    3.5570   -1.2310   -0.2320 C   0  0  0  0  0  0  0  0  0  0  0  0
    3.0730    0.1390   -0.6330 C   0  0  0  0  0  0  0  0  0  0  0  0
    1.8510    0.5580   -0.0750 N   0  0  0  0  0  0  0  0  0  0  0  0
    1.6650    1.3030    1.2010 C   0  0  0  0  0  0  0  0  0  0  0  0
    2.4950    1.0080    2.0710 O   0  0  0  0  0  0  0  0  0  0  0  0
    0.6280    2.2890    1.4520 N   0  0  0  0  0  0  0  0  0  0  0  0
   -0.7790    2.3360    1.3420 C   0  0  0  0  0  0  0  0  0  0  0  0
   -1.5160    3.0510    0.2400 C   0  0  0  0  0  0  0  0  0  0  0  0
   -2.4570    2.4560   -0.4690 O   0  0  0  0  0  0  0  0  0  0  0  0
   -3.3340    2.9630   -1.4110 C   0  0  0  0  0  0  0  0  0  0  0  0
   -3.6280    1.6220   -2.3480 C   0  0  0  0  0  0  0  0  0  0  0  0
   -2.8330    0.6430   -1.5490 C   0  0  0  0  0  0  0  0  0  0  0  0
   -1.5360    0.4690   -1.3540 C   0  0  0  0  0  0  0  0  0  0  0  0
   -0.7200    1.3100   -2.0640 O   0  0  0  0  0  0  0  0  0  0  0  0
    0.4240    1.2430   -1.8500 N   0  0  0  0  0  0  0  0  0  0  0  0
    0.5980    0.2940   -0.8970 C   0  0  0  0  0  0  0  0  0  0  0  0
   -0.6540   -0.2640   -0.5760 C   0  0  0  0  0  0  0  0  0  0  0  0
   -0.8420   -1.3340    0.2960 C   0  0  0  0  0  0  0  0  0  0  0  0
   -1.9050   -2.1040    0.7770 C   0  0  0  0  0  0  0  0  0  0  0  0
   -1.5230   -3.1610    1.5860 C   0  0  0  0  0  0  0  0  0  0  0  0
   -0.1920   -3.3820    1.8570 O   0  0  0  0  0  0  0  0  0  0  0  0
   -3.3640   -2.0150    0.6330 C   0  0  0  0  0  0  0  0  0  0  0  0
   -3.7680   -0.7620    1.1520 O   0  0  0  0  0  0  0  0  0  0  0  0
  1  2  2  0
  2  3  1  0
  3  4  1  0
  4  5  1  0
  5  6  1  0
  6  7  1  0
  7  8  1  0
  7 20  1  0
  8  9  2  0
  8 10  1  0
 10 11  1  0
 11 12  1  0
 12 13  1  0
 13 14  1  0
 14 15  1  0
 15 16  1  0
 16 17  2  0
 17 18  1  0
 17 21  1  0
 18 19  1  0
 19 20  2  0
 20 21  1  0
 21 22  2  3
 22 23  1  0
 23 24  2  3
 23 26  1  0
 24 25  1  0
 26 27  1  0
M  END
