
     RDKit          3D

 27 28  0  0  0  0  0  0  0  0999 V2000
    6.3620   -2.0990   -0.6690 C   0  0  0  0  0  0  0  0  0  0  0  0
    5.3400   -1.2960   -0.0390 N   0  0  0  0  0  0  0  0  0  0  0  0
    4.6270   -0.3470   -0.8520 C   0  0  0  0  0  0  0  0  0  0  0  0
    4.8540   -0.1920   -2.0640 O   0  0  0  0  0  0  0  0  0  0  0  0
    3.5810    0.4660   -0.1810 C   0  0  0  0  0  0  0  0  0  0  0  0
    2.9410    1.4260   -1.1420 C   0  0  0  0  0  0  0  0  0  0  0  0
    1.8870    2.2400   -0.4390 C   0  0  0  0  0  0  0  0  0  0  0  0
    0.8250    1.4800    0.1350 N   0  0  0  0  0  0  0  0  0  0  0  0
   -0.3410    1.1770   -0.6120 C   0  0  0  0  0  0  0  0  0  0  0  0
   -0.4160    1.5610   -1.8010 O   0  0  0  0  0  0  0  0  0  0  0  0
   -1.4500    0.4470   -0.0780 N   0  0  0  0  0  0  0  0  0  0  0  0
   -2.6030    0.1540   -0.8570 C   0  0  0  0  0  0  0  0  0  0  0  0
   -2.5800    0.5700   -2.0350 O   0  0  0  0  0  0  0  0  0  0  0  0
   -3.7500   -0.5730   -0.3640 C   0  0  0  0  0  0  0  0  0  0  0  0
   -3.7280   -0.9920    0.9050 C   0  0  0  0  0  0  0  0  0  0  0  0
   -4.8310   -1.7270    1.4850 C   0  0  0  0  0  0  0  0  0  0  0  0
   -5.8740   -1.9780    0.7230 C   0  0  0  0  0  0  0  0  0  0  0  0
   -5.9560   -1.5730   -0.5890 O   0  0  0  0  0  0  0  0  0  0  0  0
   -4.8940   -0.8500   -1.1930 C   0  0  0  0  0  0  0  0  0  0  0  0
   -5.0420   -0.4940   -2.4590 C   0  0  0  0  0  0  0  0  0  0  0  0
   -6.2410   -0.8540   -3.1220 O   0  0  0  0  0  0  0  0  0  0  0  0
   -7.0800    0.1250   -3.4750 O   0  0  0  0  0  0  0  0  0  0  0  0
    0.9640    1.0370    1.5010 C   0  0  0  0  0  0  0  0  0  0  0  0
    1.3830    1.7380    2.5960 C   0  0  0  0  0  0  0  0  0  0  0  0
    1.3450    0.8860    3.6680 C   0  0  0  0  0  0  0  0  0  0  0  0
    0.8950   -0.3330    3.1850 C   0  0  0  0  0  0  0  0  0  0  0  0
    0.6900   -0.1730    1.9020 O   0  0  0  0  0  0  0  0  0  0  0  0
  1  2  1  0
  2  3  1  0
  3  4  2  0
  3  5  1  0
  5  6  1  0
  6  7  1  0
  7  8  1  0
  8  9  1  0
  8 23  1  0
  9 10  2  0
  9 11  1  0
 11 12  1  0
 12 13  2  0
 12 14  1  0
 14 15  2  0
 14 19  1  0
 15 16  1  0
 16 17  2  0
 17 18  1  0
 18 19  1  0
 19 20  2  3
 20 21  1  0
 21 22  1  0
 23 24  2  0
 23 27  1  0
 24 25  1  0
 25 26  2  0
 26 27  1  0
M  END
