
     RDKit          3D

 46 50  0  0  0  0  0  0  0  0999 V2000
    7.4290   -2.3950   -0.0650 C   0  0  0  0  0  0  0  0  0  0  0  0
    6.3760   -2.3740   -1.0330 O   0  0  0  0  0  0  0  0  0  0  0  0
    5.6100   -1.2240   -1.1800 C   0  0  0  0  0  0  0  0  0  0  0  0
    4.4940   -1.1170   -0.3960 C   0  0  0  0  0  0  0  0  0  0  0  0
    4.1030   -2.1120    0.5390 O   0  0  0  0  0  0  0  0  0  0  0  0
    2.8530   -1.8550    1.2320 C   0  0  0  0  0  0  0  0  0  0  0  0
    1.7540   -1.9040    0.2120 C   0  0  0  0  0  0  0  0  0  0  0  0
    2.0570   -2.4720   -0.9970 N   0  0  0  0  0  0  0  0  0  0  0  0
    1.1250   -2.6620   -1.9600 C   0  0  0  0  0  0  0  0  0  0  0  0
   -0.1580   -2.2680   -1.7010 C   0  0  0  0  0  0  0  0  0  0  0  0
   -0.4820   -1.6930   -0.4940 C   0  0  0  0  0  0  0  0  0  0  0  0
    0.4900   -1.4980    0.5040 C   0  0  0  0  0  0  0  0  0  0  0  0
    0.1000   -0.8230    1.7180 C   0  0  0  0  0  0  0  0  0  0  0  0
   -0.2840   -1.5560    2.9330 C   0  0  0  0  0  0  0  0  0  0  0  0
   -1.4200   -2.4350    2.7480 N   0  0  0  0  0  0  0  0  0  0  0  0
   -1.1950   -3.8860    2.5750 C   0  0  0  0  0  0  0  0  0  0  0  0
   -2.7670   -2.0000    2.7210 C   0  0  0  0  0  0  0  0  0  0  0  0
   -3.6760   -2.9170    2.6100 O   0  0  0  0  0  0  0  0  0  0  0  0
   -3.1180   -0.6080    2.7880 C   0  0  1  0  0  0  0  0  0  0  0  0
   -4.5520   -0.2240    3.0860 C   0  0  0  0  0  0  0  0  0  0  0  0
   -4.6410    1.0590    2.3340 N   0  0  0  0  0  0  0  0  0  0  0  0
   -5.7790    1.3940    1.6020 C   0  0  0  0  0  0  0  0  0  0  0  0
   -5.7500    1.3690    0.2020 C   0  0  0  0  0  0  0  0  0  0  0  0
   -6.8700    1.6800   -0.5380 C   0  0  0  0  0  0  0  0  0  0  0  0
   -6.8000    1.6390   -2.0140 C   0  0  0  0  0  0  0  0  0  0  0  0
   -8.0780    2.0330    0.0630 C   0  0  0  0  0  0  0  0  0  0  0  0
   -9.2550    2.3610   -0.7860 C   0  0  0  0  0  0  0  0  0  0  0  0
   -8.0990    2.0550    1.4390 C   0  0  0  0  0  0  0  0  0  0  0  0
   -6.9650    1.7390    2.2050 C   0  0  0  0  0  0  0  0  0  0  0  0
   -7.0050    1.7680    3.5480 F   0  0  0  0  0  0  0  0  0  0  0  0
   -3.4820    1.9240    2.3670 C   0  0  0  0  0  0  0  0  0  0  0  0
   -2.5220    1.5050    3.4420 C   0  0  0  0  0  0  0  0  0  0  0  0
   -2.2610    0.1890    3.4530 O   0  0  0  0  0  0  0  0  0  0  0  0
    3.7130    0.0160   -0.5240 C   0  0  0  0  0  0  0  0  0  0  0  0
    4.0750    0.9970   -1.4300 C   0  0  0  0  0  0  0  0  0  0  0  0
    3.2700    2.1030   -1.5150 F   0  0  0  0  0  0  0  0  0  0  0  0
    5.1950    0.8930   -2.2180 C   0  0  0  0  0  0  0  0  0  0  0  0
    5.9870   -0.2420   -2.0930 C   0  0  0  0  0  0  0  0  0  0  0  0
    7.2020   -0.3290   -2.8680 C   0  0  0  0  0  0  0  0  0  0  0  0
    7.9140   -1.3460   -2.7730 O   0  0  0  0  0  0  0  0  0  0  0  0
    7.5600    0.7670   -3.7360 N   0  0  0  0  0  0  0  0  0  0  0  0
    6.7750    1.9280   -3.8550 C   0  0  0  0  0  0  0  0  0  0  0  0
    7.1050    3.0060   -4.5040 C   0  0  0  0  0  0  0  0  0  0  0  0
    8.3390    3.2050   -5.2190 C   0  0  0  0  0  0  0  0  0  0  0  0
    9.2940    2.4200   -5.3560 O   0  0  0  0  0  0  0  0  0  0  0  0
    5.4390    1.9760   -3.1640 C   0  0  0  0  0  0  0  0  0  0  0  0
  1  2  1  0
  2  3  1  0
  3  4  2  0
  3 38  1  0
  4  5  1  0
  4 34  1  0
  5  6  1  0
  6  7  1  0
  7  8  2  0
  7 12  1  0
  8  9  1  0
  9 10  2  0
 10 11  1  0
 11 12  2  0
 12 13  1  0
 13 14  1  0
 14 15  1  0
 15 16  1  0
 15 17  1  0
 17 18  2  0
 19 17  1  1
 19 20  1  0
 19 33  1  0
 20 21  1  0
 21 22  1  0
 21 31  1  0
 22 23  2  0
 22 29  1  0
 23 24  1  0
 24 25  1  0
 24 26  2  0
 26 27  1  0
 26 28  1  0
 28 29  2  0
 29 30  1  0
 31 32  1  0
 32 33  1  0
 34 35  2  0
 35 36  1  0
 35 37  1  0
 37 38  2  0
 37 46  1  0
 38 39  1  0
 39 40  2  0
 39 41  1  0
 41 42  1  0
 42 43  2  3
 42 46  1  0
 43 44  1  0
 44 45  2  0
M  CHG  1   8   1
M  END
