
     RDKit          3D

 46 50  0  0  0  0  0  0  0  0999 V2000
   11.4510   -0.4080   -3.4750 C   0  0  0  0  0  0  0  0  0  0  0  0
   10.3320    0.3930   -4.1070 C   0  0  0  0  0  0  0  0  0  0  0  0
    9.1450    0.3580   -3.3510 O   0  0  0  0  0  0  0  0  0  0  0  0
    9.0070    0.7960   -2.0670 C   0  0  0  0  0  0  0  0  0  0  0  0
   10.0020    1.2800   -1.4720 O   0  0  0  0  0  0  0  0  0  0  0  0
    7.7100    0.6970   -1.4050 C   0  0  0  0  0  0  0  0  0  0  0  0
    6.6070    0.1630   -2.0410 C   0  0  0  0  0  0  0  0  0  0  0  0
    5.3890    0.0660   -1.4160 C   0  0  0  0  0  0  0  0  0  0  0  0
    5.2790    0.5190   -0.1140 C   0  0  0  0  0  0  0  0  0  0  0  0
    4.2260    0.5640    0.7740 C   0  0  0  0  0  0  0  0  0  0  0  0
    4.6040    1.1120    1.9750 C   0  0  0  0  0  0  0  0  0  0  0  0
    5.9260    1.4170    1.8390 N   0  0  0  0  0  0  0  0  0  0  0  0
    6.6930    2.0090    2.8600 C   0  0  0  0  0  0  0  0  0  0  0  0
    6.0640    2.2820    3.9520 O   0  0  0  0  0  0  0  0  0  0  0  0
    8.1120    2.3540    2.8510 C   0  0  1  0  0  0  0  0  0  0  0  0
    8.3900    3.0080    4.0780 F   0  0  0  0  0  0  0  0  0  0  0  0
    8.9550    1.2460    2.8960 F   0  0  0  0  0  0  0  0  0  0  0  0
    6.3490    1.0690    0.5940 C   0  0  0  0  0  0  0  0  0  0  0  0
    7.5350    1.1350   -0.0950 C   0  0  0  0  0  0  0  0  0  0  0  0
    3.5680    1.2320    3.0290 C   0  0  0  0  0  0  0  0  0  0  0  0
    2.8710   -0.1030    3.1570 C   0  0  0  0  0  0  0  0  0  0  0  0
    2.5850   -0.7820    1.8640 C   0  0  1  0  0  0  0  0  0  0  0  0
    1.3370   -1.4650    1.8760 N   0  0  0  0  0  0  0  0  0  0  0  0
    0.1750   -0.6670    1.6600 C   0  0  0  0  0  0  0  0  0  0  0  0
   -0.9120   -1.5490    1.0750 C   0  0  0  0  0  0  0  0  0  0  0  0
   -0.6650   -2.7560    0.8710 O   0  0  0  0  0  0  0  0  0  0  0  0
   -2.1750   -1.0270    0.7660 N   0  0  0  0  0  0  0  0  0  0  0  0
   -3.2720   -1.7140    0.2170 C   0  0  0  0  0  0  0  0  0  0  0  0
   -3.2070   -2.9640   -0.3340 C   0  0  0  0  0  0  0  0  0  0  0  0
   -4.3390   -3.6040   -0.8530 C   0  0  0  0  0  0  0  0  0  0  0  0
   -5.5710   -2.9920   -0.8280 C   0  0  0  0  0  0  0  0  0  0  0  0
   -6.7650   -3.3270   -1.2240 O   0  0  0  0  0  0  0  0  0  0  0  0
   -7.6520   -2.3840   -0.9780 C   0  0  0  0  0  0  0  0  0  0  0  0
   -9.1100   -2.4530   -1.3040 C   0  0  0  0  0  0  0  0  0  0  0  0
   -9.8950   -2.7220   -0.0240 C   0  0  0  0  0  0  0  0  0  0  0  0
   -6.9840   -1.3620   -0.3800 C   0  0  0  0  0  0  0  0  0  0  0  0
   -7.4750   -0.0520    0.0880 C   0  0  0  0  0  0  0  0  0  0  0  0
   -7.5870    0.8720   -1.1030 C   0  0  0  0  0  0  0  0  0  0  0  0
   -8.0690    2.1710   -0.7040 N   0  0  0  0  0  0  0  0  0  0  0  0
   -9.5040    2.3710   -0.7020 C   0  0  0  0  0  0  0  0  0  0  0  0
   -7.1700    3.1850   -0.3390 C   0  0  0  0  0  0  0  0  0  0  0  0
   -5.6970    3.0050   -0.3410 C   0  0  0  0  0  0  0  0  0  0  0  0
   -7.6640    4.3120    0.0100 O   0  0  0  0  0  0  0  0  0  0  0  0
   -5.6470   -1.7420   -0.2790 C   0  0  0  0  0  0  0  0  0  0  0  0
   -4.5470   -1.1320    0.2210 C   0  0  0  0  0  0  0  0  0  0  0  0
    2.8010    0.1250    0.6710 C   0  0  0  0  0  0  0  0  0  0  0  0
  1  2  1  0
  2  3  1  0
  3  4  1  0
  4  5  2  0
  4  6  1  0
  6  7  2  0
  6 19  1  0
  7  8  1  0
  8  9  2  0
  9 10  1  0
  9 18  1  0
 10 11  2  0
 10 46  1  0
 11 12  1  0
 11 20  1  0
 12 13  1  0
 12 18  1  0
 13 14  2  0
 13 15  1  0
 15 16  1  1
 15 17  1  0
 18 19  2  0
 20 21  1  0
 21 22  1  0
 22 23  1  1
 22 46  1  0
 23 24  1  0
 24 25  1  0
 25 26  2  0
 25 27  1  0
 27 28  1  0
 28 29  2  0
 28 45  1  0
 29 30  1  0
 30 31  2  0
 31 32  1  0
 31 44  1  0
 32 33  1  0
 33 34  1  0
 33 36  2  0
 34 35  1  0
 36 37  1  0
 36 44  1  0
 37 38  1  0
 38 39  1  0
 39 40  1  0
 39 41  1  0
 41 42  1  0
 41 43  2  0
 44 45  2  0
M  CHG  1  23   1
M  END
