
     RDKit          3D

 46 50  0  0  0  0  0  0  0  0999 V2000
    8.1150   -6.0740   -1.6700 C   0  0  0  0  0  0  0  0  0  0  0  0
    7.5130   -4.9420   -1.0770 O   0  0  0  0  0  0  0  0  0  0  0  0
    6.3640   -4.3330   -1.5830 C   0  0  0  0  0  0  0  0  0  0  0  0
    5.8600   -4.8120   -2.6000 O   0  0  0  0  0  0  0  0  0  0  0  0
    5.7820   -3.2080   -0.9670 N   0  0  0  0  0  0  0  0  0  0  0  0
    4.6300   -2.5110   -1.3830 C   0  0  0  0  0  0  0  0  0  0  0  0
    4.2690   -1.3710   -0.6490 C   0  0  0  0  0  0  0  0  0  0  0  0
    3.1800   -0.6050   -0.9360 C   0  0  0  0  0  0  0  0  0  0  0  0
    2.3540   -0.9230   -1.9940 C   0  0  0  0  0  0  0  0  0  0  0  0
    1.1770   -0.0910   -2.2800 C   0  0  0  0  0  0  0  0  0  0  0  0
    0.3310    0.3180   -1.2810 C   0  0  0  0  0  0  0  0  0  0  0  0
   -0.7850    1.0980   -1.4990 C   0  0  0  0  0  0  0  0  0  0  0  0
   -1.7100    1.4970   -0.4510 C   0  0  2  0  0  0  0  0  0  0  0  0
   -1.2240    2.4570    0.5790 C   0  0  0  0  0  0  0  0  0  0  0  0
   -0.7800    3.7890    0.2040 C   0  0  1  0  0  0  0  0  0  0  0  0
    0.3850    3.8610   -0.7210 C   0  0  0  0  0  0  0  0  0  0  0  0
    0.9520    5.2820   -0.7640 C   0  0  0  0  0  0  0  0  0  0  0  0
   -0.0970    6.3390   -0.8210 C   0  0  0  0  0  0  0  0  0  0  0  0
   -1.3340    6.0390   -0.1570 N   0  0  0  0  0  0  0  0  0  0  0  0
   -1.9910    7.0270    0.5960 C   0  0  0  0  0  0  0  0  0  0  0  0
   -1.4950    8.4140    0.7730 C   0  0  0  0  0  0  0  0  0  0  0  0
   -3.0930    6.7010    1.1640 O   0  0  0  0  0  0  0  0  0  0  0  0
   -1.9020    4.7220   -0.2620 C   0  0  0  0  0  0  0  0  0  0  0  0
   -2.2310    0.2850    0.2580 N   0  0  0  0  0  0  0  0  0  0  0  0
   -3.5910    0.1590    0.5760 C   0  0  0  0  0  0  0  0  0  0  0  0
   -4.3360    1.1440    0.2270 O   0  0  0  0  0  0  0  0  0  0  0  0
   -4.1750   -0.9890    1.2570 C   0  0  0  0  0  0  0  0  0  0  0  0
   -3.4620   -2.0140    1.6040 C   0  0  0  0  0  0  0  0  0  0  0  0
   -3.9950   -3.1710    2.2820 C   0  0  0  0  0  0  0  0  0  0  0  0
   -5.3070   -3.2720    2.6800 C   0  0  0  0  0  0  0  0  0  0  0  0
   -5.7820   -4.4030    3.3280 C   0  0  0  0  0  0  0  0  0  0  0  0
   -7.4740   -4.5080    3.8390 Cl  0  0  0  0  0  0  0  0  0  0  0  0
   -4.9520   -5.4670    3.5950 C   0  0  0  0  0  0  0  0  0  0  0  0
   -3.6350   -5.3950    3.2100 C   0  0  0  0  0  0  0  0  0  0  0  0
   -3.1870   -4.2580    2.5670 C   0  0  0  0  0  0  0  0  0  0  0  0
   -1.8250   -4.2030    2.1680 N   0  0  0  0  0  0  0  0  0  0  0  0
   -0.7440   -4.2660    2.9590 C   0  0  0  0  0  0  0  0  0  0  0  0
    0.3660   -4.1800    2.1820 N   0  0  0  0  0  0  0  0  0  0  0  0
   -0.0690   -4.0690    0.9440 N   0  0  0  0  0  0  0  0  0  0  0  0
   -1.3790   -4.0820    0.9210 N   0  0  0  0  0  0  0  0  0  0  0  0
   -1.0020    1.4460   -2.7910 N   0  0  0  0  0  0  0  0  0  0  0  0
   -0.1940    1.0590   -3.7660 N   0  0  0  0  0  0  0  0  0  0  0  0
    0.8950    0.3000   -3.5650 C   0  0  0  0  0  0  0  0  0  0  0  0
    1.9030   -0.1550   -4.9160 Cl  0  0  0  0  0  0  0  0  0  0  0  0
    2.6820   -2.0340   -2.7320 C   0  0  0  0  0  0  0  0  0  0  0  0
    3.8100   -2.8150   -2.4240 C   0  0  0  0  0  0  0  0  0  0  0  0
  1  2  1  0
  2  3  1  0
  3  4  2  0
  3  5  1  0
  5  6  1  0
  6  7  2  0
  6 46  1  0
  7  8  1  0
  8  9  2  0
  9 10  1  0
  9 45  1  0
 10 11  2  0
 10 43  1  0
 11 12  1  0
 12 13  1  0
 12 41  2  0
 13 14  1  1
 13 24  1  0
 15 14  1  6
 15 16  1  0
 15 23  1  0
 16 17  1  0
 17 18  1  0
 18 19  1  0
 19 20  1  0
 19 23  1  0
 20 21  1  0
 20 22  2  0
 24 25  1  0
 25 26  2  0
 25 27  1  0
 27 28  2  3
 28 29  1  0
 29 30  2  0
 29 35  1  0
 30 31  1  0
 31 32  1  0
 31 33  2  0
 33 34  1  0
 34 35  2  0
 35 36  1  0
 36 37  1  0
 36 40  1  0
 37 38  2  0
 38 39  1  0
 39 40  2  0
 41 42  1  0
 42 43  2  0
 43 44  1  0
 45 46  2  0
M  END
