
     RDKit          3D

 46 50  0  0  0  0  0  0  0  0999 V2000
  -10.5860   -2.5310   -0.4150 C   0  0  0  0  0  0  0  0  0  0  0  0
   -9.2310   -2.0100   -0.0670 C   0  0  0  0  0  0  0  0  0  0  0  0
   -8.3940   -1.4790   -1.0190 C   0  0  0  0  0  0  0  0  0  0  0  0
   -7.1340   -0.9810   -0.7810 C   0  0  0  0  0  0  0  0  0  0  0  0
   -6.6680   -1.0180    0.5350 C   0  0  0  0  0  0  0  0  0  0  0  0
   -7.4760   -1.5400    1.5050 C   0  0  0  0  0  0  0  0  0  0  0  0
   -8.7530   -2.0420    1.2500 C   0  0  0  0  0  0  0  0  0  0  0  0
   -9.5170   -2.5510    2.2620 O   0  0  0  0  0  0  0  0  0  0  0  0
   -5.2770   -0.4110    0.4940 C   0  0  0  0  0  0  0  0  0  0  0  0
   -4.8770   -0.6230   -0.9190 C   0  0  2  0  0  0  0  0  0  0  0  0
   -3.9370    0.3150   -1.5540 C   0  0  0  0  0  0  0  0  0  0  0  0
   -2.5730    0.3170   -1.0820 N   0  0  0  0  0  0  0  0  0  0  0  0
   -2.2000    1.2570   -0.0620 C   0  0  0  0  0  0  0  0  0  0  0  0
   -1.6530   -0.6220   -1.6320 C   0  0  0  0  0  0  0  0  0  0  0  0
   -2.0450   -1.5310   -2.4010 O   0  0  0  0  0  0  0  0  0  0  0  0
   -0.1980   -0.5780   -1.3310 C   0  0  0  0  0  0  0  0  0  0  0  0
    0.1220    0.7070   -0.9220 O   0  0  0  0  0  0  0  0  0  0  0  0
    1.3940    1.1130   -0.5550 C   0  0  0  0  0  0  0  0  0  0  0  0
    2.4730    0.2740   -0.5150 C   0  0  0  0  0  0  0  0  0  0  0  0
    3.7330    0.6970   -0.1540 C   0  0  0  0  0  0  0  0  0  0  0  0
    4.8440   -0.2520   -0.1170 C   0  0  0  0  0  0  0  0  0  0  0  0
    4.5930   -1.3590    0.8270 N   0  0  0  0  0  0  0  0  0  0  0  0
    4.9290   -2.6030    0.2530 C   0  0  0  0  0  0  0  0  0  0  0  0
    6.2490   -3.1090    0.6200 C   0  0  0  0  0  0  0  0  0  0  0  0
    7.0610   -2.4420    1.4900 C   0  0  0  0  0  0  0  0  0  0  0  0
    8.3180   -2.9550    1.8440 C   0  0  0  0  0  0  0  0  0  0  0  0
    8.7360   -4.1060    1.3300 N   0  0  0  0  0  0  0  0  0  0  0  0
    7.9370   -4.7760    0.4630 C   0  0  0  0  0  0  0  0  0  0  0  0
    8.3590   -5.8630   -0.0110 O   0  0  0  0  0  0  0  0  0  0  0  0
    6.7100   -4.3250    0.0860 C   0  0  0  0  0  0  0  0  0  0  0  0
    5.8530   -5.0460   -0.8450 C   0  0  1  0  0  0  0  0  0  0  0  0
    4.6730   -5.5040   -0.2820 F   0  0  0  0  0  0  0  0  0  0  0  0
    5.5950   -4.3140   -2.0040 F   0  0  0  0  0  0  0  0  0  0  0  0
    3.9210    2.0160    0.1790 C   0  0  0  0  0  0  0  0  0  0  0  0
    2.8400    2.8670    0.1410 C   0  0  0  0  0  0  0  0  0  0  0  0
    1.5840    2.4400   -0.2180 C   0  0  0  0  0  0  0  0  0  0  0  0
    0.5250    3.3610   -0.2400 O   0  0  0  0  0  0  0  0  0  0  0  0
    0.7840    4.6830    0.0110 C   0  0  0  0  0  0  0  0  0  0  0  0
    0.9180    5.1970    1.2580 C   0  0  0  0  0  0  0  0  0  0  0  0
    1.1850    6.5540    1.4890 C   0  0  0  0  0  0  0  0  0  0  0  0
    1.3060    7.3600    0.3760 C   0  0  0  0  0  0  0  0  0  0  0  0
    1.5840    8.7980    0.5250 C   0  0  0  0  0  0  0  0  0  0  0  0
    1.7910    9.8860    0.6580 N   0  0  0  0  0  0  0  0  0  0  0  0
    1.1760    6.8810   -0.8990 C   0  0  0  0  0  0  0  0  0  0  0  0
    0.9170    5.5510   -1.0870 C   0  0  0  0  0  0  0  0  0  0  0  0
   -6.1490   -0.4160   -1.5850 O   0  0  0  0  0  0  0  0  0  0  0  0
  1  2  1  0
  2  3  2  0
  2  7  1  0
  3  4  1  0
  4  5  2  0
  4 46  1  0
  5  6  1  0
  5  9  1  0
  6  7  2  0
  7  8  1  0
  9 10  1  0
 10 11  1  6
 10 46  1  0
 11 12  1  0
 12 13  1  0
 12 14  1  0
 14 15  2  0
 14 16  1  0
 16 17  1  0
 17 18  1  0
 18 19  2  0
 18 36  1  0
 19 20  1  0
 20 21  1  0
 20 34  2  0
 21 22  1  0
 22 23  1  0
 23 24  1  0
 24 25  1  0
 24 30  2  0
 25 26  2  0
 26 27  1  0
 27 28  1  0
 28 29  2  0
 28 30  1  0
 30 31  1  0
 31 32  1  1
 31 33  1  0
 34 35  1  0
 35 36  2  0
 36 37  1  0
 37 38  1  0
 38 39  2  0
 38 45  1  0
 39 40  1  0
 40 41  2  0
 41 42  1  0
 41 44  1  0
 42 43  3  0
 44 45  2  0
M  CHG  1  22   1
M  END
