
     RDKit          3D

 46 50  0  0  0  0  0  0  0  0999 V2000
   -1.6120   -1.7870   -4.6270 C   0  0  0  0  0  0  0  0  0  0  0  0
   -2.2930   -1.9660   -3.3980 O   0  0  0  0  0  0  0  0  0  0  0  0
   -1.5530   -2.0370   -2.2150 C   0  0  0  0  0  0  0  0  0  0  0  0
   -0.1850   -1.9400   -2.2020 C   0  0  0  0  0  0  0  0  0  0  0  0
    0.5250   -2.0130   -1.0170 C   0  0  0  0  0  0  0  0  0  0  0  0
   -0.1110   -2.1830    0.1640 C   0  0  0  0  0  0  0  0  0  0  0  0
    0.6210   -2.2670    1.4040 N   0  0  0  0  0  0  0  0  0  0  0  0
    2.0650   -2.1110    1.3600 C   0  0  2  0  0  0  0  0  0  0  0  0
    2.6700   -2.3240    2.7380 C   0  0  0  0  0  0  0  0  0  0  0  0
    2.4380   -0.7310    0.9630 C   0  0  0  0  0  0  0  0  0  0  0  0
    1.5500    0.1080    0.7400 O   0  0  0  0  0  0  0  0  0  0  0  0
    3.8760   -0.4150    0.8490 C   0  0  0  0  0  0  0  0  0  0  0  0
    4.6950   -1.3210    1.0930 O   0  0  0  0  0  0  0  0  0  0  0  0
    4.2790    0.8880    0.4720 N   0  0  0  0  0  0  0  0  0  0  0  0
    5.6230    1.2940    0.3330 C   0  0  0  0  0  0  0  0  0  0  0  0
    6.7380    0.5090    0.4240 C   0  0  0  0  0  0  0  0  0  0  0  0
    8.0400    1.0150    0.2780 C   0  0  0  0  0  0  0  0  0  0  0  0
    9.1880    0.0800    0.3940 C   0  0  0  0  0  0  0  0  0  0  0  0
    8.2310    2.3510    0.0320 C   0  0  0  0  0  0  0  0  0  0  0  0
    7.1280    3.1810   -0.0670 C   0  0  0  0  0  0  0  0  0  0  0  0
    5.8680    2.6500    0.0820 C   0  0  0  0  0  0  0  0  0  0  0  0
    7.6350    4.5370   -0.3310 C   0  0  0  0  0  0  0  0  0  0  0  0
    6.9110    5.4340   -0.8260 O   0  0  0  0  0  0  0  0  0  0  0  0
    9.0580    4.5840    0.0860 C   0  0  0  0  0  0  0  0  0  0  0  0
    9.4780    3.1470   -0.1620 C   0  0  0  0  0  0  0  0  0  0  0  0
   -1.5140   -2.2890    0.1950 C   0  0  0  0  0  0  0  0  0  0  0  0
   -2.1160   -2.4730    1.5210 C   0  0  0  0  0  0  0  0  0  0  0  0
   -3.5290   -2.5860    1.6160 N   0  0  2  0  0  0  0  0  0  0  0  0
   -3.9830   -3.8590    1.1860 C   0  0  0  0  0  0  0  0  0  0  0  0
   -4.2490   -1.4220    1.1780 C   0  0  0  0  0  0  0  0  0  0  0  0
   -5.5530   -1.6090    0.6180 C   0  0  0  0  0  0  0  0  0  0  0  0
   -6.0280   -2.8000    0.5400 O   0  0  0  0  0  0  0  0  0  0  0  0
   -6.4080   -0.6090    0.1390 N   0  0  0  0  0  0  0  0  0  0  0  0
   -7.8470   -0.8250   -0.0530 C   0  0  0  0  0  0  0  0  0  0  0  0
   -8.6780    0.2170    0.6300 C   0  0  0  0  0  0  0  0  0  0  0  0
   -7.9340    1.3440    0.9830 O   0  0  0  0  0  0  0  0  0  0  0  0
   -6.7720    1.7360    0.3390 C   0  0  0  0  0  0  0  0  0  0  0  0
   -6.3740    3.0210    0.1180 C   0  0  0  0  0  0  0  0  0  0  0  0
   -5.1870    3.3100   -0.5420 C   0  0  0  0  0  0  0  0  0  0  0  0
   -4.7720    4.7030   -0.7710 C   0  0  1  0  0  0  0  0  0  0  0  0
   -5.7600    5.4440   -1.4080 F   0  0  0  0  0  0  0  0  0  0  0  0
   -4.5810    5.3210    0.4660 F   0  0  0  0  0  0  0  0  0  0  0  0
   -4.3970    2.2460   -0.9820 C   0  0  0  0  0  0  0  0  0  0  0  0
   -4.7540    0.9430   -0.7850 C   0  0  0  0  0  0  0  0  0  0  0  0
   -5.9380    0.7050   -0.1240 C   0  0  0  0  0  0  0  0  0  0  0  0
   -2.1980   -2.2130   -0.9880 C   0  0  0  0  0  0  0  0  0  0  0  0
  1  2  1  0
  2  3  1  0
  3  4  2  0
  3 46  1  0
  4  5  1  0
  5  6  2  0
  6  7  1  0
  6 26  1  0
  7  8  1  0
  8  9  1  1
  8 10  1  0
 10 11  2  0
 10 12  1  0
 12 13  2  0
 12 14  1  0
 14 15  1  0
 15 16  2  0
 15 21  1  0
 16 17  1  0
 17 18  1  0
 17 19  2  0
 19 20  1  0
 19 25  1  0
 20 21  2  0
 20 22  1  0
 22 23  2  0
 22 24  1  0
 24 25  1  0
 26 27  1  0
 26 46  2  0
 27 28  1  0
 28 29  1  6
 28 30  1  0
 30 31  1  0
 31 32  2  0
 31 33  1  0
 33 34  1  0
 33 45  1  0
 34 35  1  0
 35 36  1  0
 36 37  1  0
 37 38  2  0
 37 45  1  0
 38 39  1  0
 39 40  1  0
 39 43  2  0
 40 41  1  1
 40 42  1  0
 43 44  1  0
 44 45  2  0
M  CHG  1  28   1
M  END
