
     RDKit          3D

 41 44  0  0  0  0  0  0  0  0999 V2000
   -6.3020    2.4470   -3.8920 C   0  0  0  0  0  0  0  0  0  0  0  0
   -6.4620    2.3860   -2.3860 C   0  0  0  0  0  0  0  0  0  0  0  0
   -5.4000    1.6580   -1.8100 O   0  0  0  0  0  0  0  0  0  0  0  0
   -5.3590    1.4840   -0.4280 C   0  0  0  0  0  0  0  0  0  0  0  0
   -6.3500    2.0220    0.3520 C   0  0  0  0  0  0  0  0  0  0  0  0
   -6.3110    1.8530    1.7010 C   0  0  0  0  0  0  0  0  0  0  0  0
   -5.2690    1.1410    2.2440 C   0  0  0  0  0  0  0  0  0  0  0  0
   -5.2470    0.9360    4.0220 S   0  0  0  0  0  0  0  0  0  0  0  0
   -4.3550    2.2800    4.7350 N   0  0  0  0  0  0  0  0  0  0  0  0
   -4.2700    0.5990    1.4470 C   0  0  0  0  0  0  0  0  0  0  0  0
   -4.2820    0.7520    0.0960 C   0  0  0  0  0  0  0  0  0  0  0  0
   -3.3180    0.2440   -0.8110 N   0  0  0  0  0  0  0  0  0  0  0  0
   -2.1780   -0.5020   -0.5040 C   0  0  0  0  0  0  0  0  0  0  0  0
   -1.9190   -0.7880    0.6750 O   0  0  0  0  0  0  0  0  0  0  0  0
   -1.2270   -0.9860   -1.5570 C   0  0  0  0  0  0  0  0  0  0  0  0
   -0.1310   -1.7490   -1.0080 N   0  0  0  0  0  0  0  0  0  0  0  0
    1.0410   -1.0780   -0.5860 C   0  0  0  0  0  0  0  0  0  0  0  0
    1.0650    0.1930   -0.7400 O   0  0  0  0  0  0  0  0  0  0  0  0
    2.2310   -1.7140    0.0130 C   0  0  2  0  0  0  0  0  0  0  0  0
    1.9710   -2.3010    1.3890 C   0  0  0  0  0  0  0  0  0  0  0  0
    2.1310   -1.0300    2.2360 C   0  0  0  0  0  0  0  0  0  0  0  0
    3.2370   -0.3400    1.4930 C   0  0  1  0  0  0  0  0  0  0  0  0
    4.5300   -0.6140    2.2410 C   0  0  0  0  0  0  0  0  0  0  0  0
    5.9130    0.1620    1.4440 S   0  0  2  0  0  0  0  0  0  0  0  0
    6.1210   -0.3800    0.0800 O   0  0  0  0  0  0  0  0  0  0  0  0
    7.1310   -0.1120    2.2780 O   0  0  0  0  0  0  0  0  0  0  0  0
    5.6970    1.9230    1.3620 C   0  0  1  0  0  0  0  0  0  0  0  0
    6.9360    2.5140    0.7260 C   0  0  0  0  0  0  0  0  0  0  0  0
    6.8190    4.0250    0.8680 C   0  0  0  0  0  0  0  0  0  0  0  0
    5.5090    4.4300    0.2230 C   0  0  0  0  0  0  0  0  0  0  0  0
    4.3510    3.6290    0.7950 C   0  0  0  0  0  0  0  0  0  0  0  0
    4.5660    2.2660    0.6300 O   0  0  0  0  0  0  0  0  0  0  0  0
    3.2380   -0.7750    0.2040 O   0  0  0  0  0  0  0  0  0  0  0  0
   -0.2980   -3.1890   -0.9800 C   0  0  1  0  0  0  0  0  0  0  0  0
   -1.3900   -3.6720   -0.0790 C   0  0  0  0  0  0  0  0  0  0  0  0
   -0.5560   -3.7150   -2.3590 C   0  0  0  0  0  0  0  0  0  0  0  0
    0.2380   -3.2840   -3.4030 C   0  0  0  0  0  0  0  0  0  0  0  0
    0.0400   -3.7360   -4.7000 C   0  0  0  0  0  0  0  0  0  0  0  0
   -0.9610   -4.6360   -4.9940 C   0  0  0  0  0  0  0  0  0  0  0  0
   -1.7570   -5.0700   -3.9590 C   0  0  0  0  0  0  0  0  0  0  0  0
   -1.5520   -4.6120   -2.6650 C   0  0  0  0  0  0  0  0  0  0  0  0
  1  2  1  0
  2  3  1  0
  3  4  1  0
  4  5  2  0
  4 11  1  0
  5  6  1  0
  6  7  2  0
  7  8  1  0
  7 10  1  0
  8  9  1  0
 10 11  2  0
 11 12  1  0
 12 13  1  0
 13 14  2  0
 13 15  1  0
 15 16  1  0
 16 17  1  0
 16 34  1  0
 17 18  2  0
 19 17  1  1
 19 20  1  0
 19 33  1  0
 20 21  1  0
 21 22  1  0
 22 23  1  1
 22 33  1  0
 24 23  1  1
 24 25  2  0
 24 26  2  0
 24 27  1  0
 27 28  1  6
 27 32  1  0
 28 29  1  0
 29 30  1  0
 30 31  1  0
 31 32  1  0
 34 35  1  1
 34 36  1  0
 36 37  2  0
 36 41  1  0
 37 38  1  0
 38 39  2  0
 39 40  1  0
 40 41  2  0
M  END
