
     RDKit          3D

 41 45  0  0  0  0  0  0  0  0999 V2000
    3.3760   -1.3040   -2.1000 C   0  0  0  0  0  0  0  0  0  0  0  0
    2.2820   -0.7340   -1.2150 C   0  0  1  0  0  0  0  0  0  0  0  0
    2.6600   -0.6550    0.2100 C   0  0  0  0  0  0  0  0  0  0  0  0
    3.8580    0.1670    0.5260 C   0  0  0  0  0  0  0  0  0  0  0  0
    3.7290    1.0160    1.4440 O   0  0  0  0  0  0  0  0  0  0  0  0
    5.0440    0.0840   -0.0720 O   0  0  0  0  0  0  0  0  0  0  0  0
    6.2780    0.5710   -0.0880 C   0  0  0  0  0  0  0  0  0  0  0  0
    7.2240    0.2910    1.0610 C   0  0  0  0  0  0  0  0  0  0  0  0
    8.3180   -0.3520    0.7750 C   0  0  0  0  0  0  0  0  0  0  0  0
    9.4430   -0.7890    1.6090 C   0  0  2  0  0  0  0  0  0  0  0  0
    9.4920   -2.1940    1.5820 O   0  0  0  0  0  0  0  0  0  0  0  0
    9.2030   -0.2640    3.3050 S   0  0  0  0  0  0  0  0  0  0  0  0
    7.6620    0.5860    3.4270 C   0  0  0  0  0  0  0  0  0  0  0  0
    6.8890    0.7630    2.3770 C   0  0  0  0  0  0  0  0  0  0  0  0
    1.6730    0.4450   -1.7430 N   0  0  0  0  0  0  0  0  0  0  0  0
    0.3110    0.4120   -2.2200 C   0  0  0  0  0  0  0  0  0  0  0  0
   -0.2850    1.3930   -2.6870 O   0  0  0  0  0  0  0  0  0  0  0  0
   -0.4320   -0.8940   -2.1500 C   0  0  0  0  0  0  0  0  0  0  0  0
   -1.7960   -0.7680   -2.7580 C   0  0  0  0  0  0  0  0  0  0  0  0
   -2.6660    0.1810   -2.1320 N   0  0  0  0  0  0  0  0  0  0  0  0
   -3.0740    0.1170   -0.8000 C   0  0  0  0  0  0  0  0  0  0  0  0
   -2.6590   -0.8190   -0.0700 O   0  0  0  0  0  0  0  0  0  0  0  0
   -3.9890    1.0980   -0.1680 C   0  0  0  0  0  0  0  0  0  0  0  0
   -4.3950    0.7910    1.2190 C   0  0  2  0  0  0  0  0  0  0  0  0
   -5.1030   -0.5310    1.3250 C   0  0  0  0  0  0  0  0  0  0  0  0
   -5.2280   -1.1200    2.5630 C   0  0  0  0  0  0  0  0  0  0  0  0
   -5.8560   -2.3430    2.7240 C   0  0  0  0  0  0  0  0  0  0  0  0
   -6.3670   -2.9940    1.6440 C   0  0  0  0  0  0  0  0  0  0  0  0
   -6.2600   -2.4330    0.3910 C   0  0  0  0  0  0  0  0  0  0  0  0
   -5.6270   -1.2060    0.2580 C   0  0  0  0  0  0  0  0  0  0  0  0
   -6.8530   -3.2910   -0.4990 O   0  0  0  0  0  0  0  0  0  0  0  0
   -7.5480   -4.3300    0.1920 C   0  0  0  0  0  0  0  0  0  0  0  0
   -7.0420   -4.2200    1.5020 O   0  0  0  0  0  0  0  0  0  0  0  0
   -5.5190    1.7940    1.5450 C   0  0  0  0  0  0  0  0  0  0  0  0
   -5.9820    2.2950    2.5250 N   0  0  0  0  0  0  0  0  0  0  0  0
   -6.9620    3.1460    2.6000 C   0  0  0  0  0  0  0  0  0  0  0  0
   -7.5360    3.5140    1.4020 C   0  0  0  0  0  0  0  0  0  0  0  0
   -6.5420    2.5380    0.2320 S   0  0  0  0  0  0  0  0  0  0  0  0
    2.3820    1.7100   -1.8450 C   0  0  1  0  0  0  0  0  0  0  0  0
    2.1850    2.5730   -3.0220 C   0  0  0  0  0  0  0  0  0  0  0  0
    1.6780    3.0120   -1.6590 C   0  0  0  0  0  0  0  0  0  0  0  0
  2  1  1  6
  2  3  1  0
  2 15  1  0
  3  4  1  0
  4  5  2  0
  4  6  1  0
  6  7  1  0
  7  8  1  0
  8  9  2  0
  8 14  1  0
  9 10  1  0
 10 11  1  1
 10 12  1  0
 12 13  1  0
 13 14  2  0
 15 16  1  0
 39 15  1  6
 16 17  2  0
 16 18  1  0
 18 19  1  0
 19 20  1  0
 20 21  1  0
 21 22  2  0
 21 23  1  0
 24 23  1  6
 24 25  1  0
 24 34  1  0
 25 26  2  0
 25 30  1  0
 26 27  1  0
 27 28  2  0
 28 29  1  0
 28 33  1  0
 29 30  2  0
 29 31  1  0
 31 32  1  0
 32 33  1  0
 34 35  2  0
 34 38  1  0
 35 36  1  0
 36 37  2  0
 37 38  1  0
 39 40  1  0
 39 41  1  0
 40 41  1  0
M  END
