
     RDKit          3D

 41 44  0  0  0  0  0  0  0  0999 V2000
    1.1750    3.1280   -0.6910 C   0  0  0  0  0  0  0  0  0  0  0  0
    0.5140    2.5610   -1.7790 O   0  0  0  0  0  0  0  0  0  0  0  0
    0.9840    0.9990   -2.1070 S   0  0  1  0  0  0  0  0  0  0  0  0
   -0.2010    0.2810   -2.7260 O   0  0  0  0  0  0  0  0  0  0  0  0
    2.1030    0.9460   -3.1140 O   0  0  0  0  0  0  0  0  0  0  0  0
    1.4890    0.1740   -0.6460 C   0  0  0  0  0  0  0  0  0  0  0  0
    2.7720   -0.3390   -0.5590 C   0  0  0  0  0  0  0  0  0  0  0  0
    3.1590   -1.0000    0.6040 C   0  0  0  0  0  0  0  0  0  0  0  0
    4.4920   -1.5830    0.7330 C   0  0  0  0  0  0  0  0  0  0  0  0
    4.7140   -2.4790    1.5980 O   0  0  0  0  0  0  0  0  0  0  0  0
    5.6030   -1.2050   -0.0770 N   0  0  0  0  0  0  0  0  0  0  0  0
    6.9070   -1.7600   -0.0030 C   0  0  1  0  0  0  0  0  0  0  0  0
    7.3260   -2.5640   -1.2210 C   0  0  0  0  0  0  0  0  0  0  0  0
    7.9770   -0.8850    0.5060 C   0  0  0  0  0  0  0  0  0  0  0  0
    7.9610    0.4880    0.5150 C   0  0  0  0  0  0  0  0  0  0  0  0
    9.0360    1.2330    0.9570 C   0  0  0  0  0  0  0  0  0  0  0  0
   10.1740    0.6270    1.4090 C   0  0  0  0  0  0  0  0  0  0  0  0
   10.2310   -0.7510    1.4170 C   0  0  0  0  0  0  0  0  0  0  0  0
   11.3860   -1.4880    1.8190 C   0  0  0  0  0  0  0  0  0  0  0  0
   12.3370   -2.1030    2.1720 N   0  0  0  0  0  0  0  0  0  0  0  0
    9.1360   -1.4990    0.9690 C   0  0  0  0  0  0  0  0  0  0  0  0
    2.2810   -1.1340    1.6390 C   0  0  0  0  0  0  0  0  0  0  0  0
    1.0110   -0.6080    1.5120 C   0  0  0  0  0  0  0  0  0  0  0  0
    0.5760    0.0470    0.4000 C   0  0  0  0  0  0  0  0  0  0  0  0
   -0.6950    0.5830    0.2260 N   0  0  0  0  0  0  0  0  0  0  0  0
   -1.7870    0.5660    1.1380 C   0  0  0  0  0  0  0  0  0  0  0  0
   -1.6590    0.0290    2.2460 O   0  0  0  0  0  0  0  0  0  0  0  0
   -3.0930    1.1870    0.7880 C   0  0  1  0  0  0  0  0  0  0  0  0
   -2.9180    2.6300    0.4900 C   0  0  0  0  0  0  0  0  0  0  0  0
   -2.8330    2.6250   -1.3420 S   0  0  0  0  0  0  0  0  0  0  0  0
   -3.6720    1.0350   -1.6060 C   0  0  0  0  0  0  0  0  0  0  0  0
   -3.8310    0.4670   -0.2580 C   0  0  2  0  0  0  0  0  0  0  0  0
   -5.2280    0.3800    0.0460 O   0  0  0  0  0  0  0  0  0  0  0  0
   -5.8400   -0.8370    0.2780 C   0  0  0  0  0  0  0  0  0  0  0  0
   -5.0700   -1.8570    0.2050 O   0  0  0  0  0  0  0  0  0  0  0  0
   -7.2740   -1.0280    0.5930 C   0  0  1  0  0  0  0  0  0  0  0  0
   -8.1290    0.0140    1.1560 C   0  0  2  0  0  0  0  0  0  0  0  0
   -9.3280   -0.3230    2.0010 C   0  0  0  0  0  0  0  0  0  0  0  0
   -8.2700   -0.2820   -0.3000 C   0  0  1  0  0  0  0  0  0  0  0  0
   -7.7090    0.7770   -1.2220 C   0  0  0  0  0  0  0  0  0  0  0  0
   -9.3980   -1.1150   -0.8410 C   0  0  0  0  0  0  0  0  0  0  0  0
  1  2  1  0
  3  2  1  1
  3  4  2  0
  3  5  2  0
  3  6  1  0
  6  7  2  0
  6 24  1  0
  7  8  1  0
  8  9  1  0
  8 22  2  0
  9 10  2  0
  9 11  1  0
 11 12  1  0
 12 13  1  6
 12 14  1  0
 14 15  2  0
 14 21  1  0
 15 16  1  0
 16 17  2  0
 17 18  1  0
 18 19  1  0
 18 21  2  0
 19 20  3  0
 22 23  1  0
 23 24  2  0
 24 25  1  0
 25 26  1  0
 26 27  2  0
 28 26  1  6
 28 29  1  0
 28 32  1  0
 29 30  1  0
 30 31  1  0
 31 32  1  0
 32 33  1  1
 33 34  1  0
 34 35  2  0
 36 34  1  6
 36 37  1  0
 36 39  1  0
 37 38  1  1
 37 39  1  0
 39 40  1  6
 39 41  1  0
M  END
