
     RDKit          3D

 40 44  0  0  0  0  0  0  0  0999 V2000
   -1.0680    1.7810   -4.4840 C   0  0  0  0  0  0  0  0  0  0  0  0
   -0.9090    2.5660   -3.3180 O   0  0  0  0  0  0  0  0  0  0  0  0
   -0.5290    1.9280   -2.1490 C   0  0  0  0  0  0  0  0  0  0  0  0
   -1.5370    1.4480   -1.3250 C   0  0  0  0  0  0  0  0  0  0  0  0
   -2.8450    1.6060   -1.6760 O   0  0  0  0  0  0  0  0  0  0  0  0
   -4.0080    1.2000   -1.0740 C   0  0  0  0  0  0  0  0  0  0  0  0
   -4.2350   -0.2870   -0.9730 C   0  0  2  0  0  0  0  0  0  0  0  0
   -4.2730   -0.8780   -2.2440 O   0  0  0  0  0  0  0  0  0  0  0  0
   -5.5450   -0.5750   -0.2270 C   0  0  0  0  0  0  0  0  0  0  0  0
   -5.6430   -2.0000   -0.1180 N   0  0  0  0  0  0  0  0  0  0  0  0
   -6.8820   -2.4840    0.4280 C   0  0  2  0  0  0  0  0  0  0  0  0
   -6.6720   -3.3200    1.6760 C   0  0  0  0  0  0  0  0  0  0  0  0
   -7.8470   -4.2520    1.6100 C   0  0  0  0  0  0  0  0  0  0  0  0
   -8.2530   -4.3660    0.3130 O   0  0  0  0  0  0  0  0  0  0  0  0
   -7.5590   -3.4890   -0.4730 C   0  0  0  0  0  0  0  0  0  0  0  0
   -1.1040    0.8300   -0.1840 C   0  0  0  0  0  0  0  0  0  0  0  0
    0.2530    0.6890    0.1220 C   0  0  0  0  0  0  0  0  0  0  0  0
    1.2330    1.1790   -0.7370 C   0  0  0  0  0  0  0  0  0  0  0  0
    0.8140    1.8130   -1.8870 C   0  0  0  0  0  0  0  0  0  0  0  0
    1.7360    2.3610   -2.7770 O   0  0  0  0  0  0  0  0  0  0  0  0
    3.0870    2.2780   -2.5090 C   0  0  0  0  0  0  0  0  0  0  0  0
    4.0140    2.8440   -3.3890 C   0  0  0  0  0  0  0  0  0  0  0  0
    5.3710    2.8040   -3.1590 C   0  0  0  0  0  0  0  0  0  0  0  0
    5.8550    2.1890   -2.0310 C   0  0  0  0  0  0  0  0  0  0  0  0
    7.3290    2.1190   -1.7280 C   0  0  0  0  0  0  0  0  0  0  0  0
    4.9620    1.6220   -1.1490 C   0  0  0  0  0  0  0  0  0  0  0  0
    3.5690    1.6590   -1.3800 C   0  0  0  0  0  0  0  0  0  0  0  0
    2.6450    0.9510   -0.4920 C   0  0  1  0  0  0  0  0  0  0  0  0
    3.0860    0.5910    0.8740 C   0  0  0  0  0  0  0  0  0  0  0  0
    2.5600   -0.7410    1.2610 C   0  0  0  0  0  0  0  0  0  0  0  0
    2.1120   -1.4640    0.3360 O   0  0  0  0  0  0  0  0  0  0  0  0
    2.5050   -1.3180    2.6160 C   0  0  2  0  0  0  0  0  0  0  0  0
    1.7600   -0.3990    3.5820 C   0  0  0  0  0  0  0  0  0  0  0  0
    4.0470   -1.9200    3.2580 S   0  0  0  0  0  0  0  0  0  0  0  0
    5.1550   -0.6130    3.7110 C   0  0  0  0  0  0  0  0  0  0  0  0
    6.3820   -0.7000    4.0670 N   0  0  0  0  0  0  0  0  0  0  0  0
    7.0720    0.4390    4.3810 C   0  0  0  0  0  0  0  0  0  0  0  0
    8.1020    0.5470    5.1380 O   0  0  0  0  0  0  0  0  0  0  0  0
    6.5270    1.6940    3.7430 C   0  0  0  0  0  0  0  0  0  0  0  0
    4.7660    1.1320    3.7510 S   0  0  0  0  0  0  0  0  0  0  0  0
  1  2  1  0
  2  3  1  0
  3  4  2  0
  3 19  1  0
  4  5  1  0
  4 16  1  0
  5  6  1  0
  6  7  1  0
  7  8  1  6
  7  9  1  0
  9 10  1  0
 11 10  1  6
 11 12  1  0
 11 15  1  0
 12 13  1  0
 13 14  1  0
 14 15  1  0
 16 17  2  0
 17 18  1  0
 18 19  2  0
 18 28  1  0
 19 20  1  0
 20 21  1  0
 21 22  2  0
 21 27  1  0
 22 23  1  0
 23 24  2  0
 24 25  1  0
 24 26  1  0
 26 27  2  0
 27 28  1  0
 28 29  1  1
 29 30  1  0
 30 31  2  0
 30 32  1  0
 32 33  1  1
 32 34  1  0
 34 35  1  0
 35 36  2  0
 35 40  1  0
 36 37  1  0
 37 38  2  0
 37 39  1  0
 39 40  1  0
M  CHG  1  10   1
M  END
