
     RDKit          3D

 41 44  0  0  0  0  0  0  0  0999 V2000
   -8.1920    2.3700    0.0650 C   0  0  0  0  0  0  0  0  0  0  0  0
   -7.2910    1.7280   -0.9660 C   0  0  2  0  0  0  0  0  0  0  0  0
   -8.0450    0.3460   -1.7990 S   0  0  0  0  0  0  0  0  0  0  0  0
   -7.0580   -1.1410   -1.8290 C   0  0  0  0  0  0  0  0  0  0  0  0
   -5.6830   -0.9650   -1.2430 C   0  0  0  0  0  0  0  0  0  0  0  0
   -5.2350    0.4450   -1.3350 C   0  0  2  0  0  0  0  0  0  0  0  0
   -3.7520    0.5900   -1.2130 C   0  0  0  0  0  0  0  0  0  0  0  0
   -3.3420    1.2740   -0.2950 O   0  0  0  0  0  0  0  0  0  0  0  0
   -2.8110   -0.0520   -2.1450 C   0  0  1  0  0  0  0  0  0  0  0  0
   -3.1540    0.2830   -3.6030 C   0  0  0  0  0  0  0  0  0  0  0  0
   -1.4390    0.2230   -1.8580 N   0  0  0  0  0  0  0  0  0  0  0  0
   -0.8730    1.5630   -1.8520 C   0  0  0  0  0  0  0  0  0  0  0  0
   -0.5470   -0.8370   -1.5570 C   0  0  0  0  0  0  0  0  0  0  0  0
   -0.9920   -2.0100   -1.5500 O   0  0  0  0  0  0  0  0  0  0  0  0
    0.8630   -0.6500   -1.2530 C   0  0  0  0  0  0  0  0  0  0  0  0
    1.7760   -0.6780   -2.2810 C   0  0  0  0  0  0  0  0  0  0  0  0
    3.0840   -0.5100   -2.0220 N   0  0  0  0  0  0  0  0  0  0  0  0
    3.5860   -0.3080   -0.7800 C   0  0  0  0  0  0  0  0  0  0  0  0
    4.9280   -0.1410   -0.5500 C   0  0  0  0  0  0  0  0  0  0  0  0
    5.4280    0.0630    0.7170 C   0  0  0  0  0  0  0  0  0  0  0  0
    7.1570    0.2760    1.0060 S   0  0  2  0  0  0  0  0  0  0  0  0
    7.2660    1.1800    2.2020 O   0  0  0  0  0  0  0  0  0  0  0  0
    7.7700    1.0040   -0.1470 O   0  0  0  0  0  0  0  0  0  0  0  0
    7.8190   -1.2580    1.2840 N   0  0  0  0  0  0  0  0  0  0  0  0
    7.6530   -2.1070    0.1360 C   0  0  0  0  0  0  0  0  0  0  0  0
    9.1460   -1.2890    1.8020 C   0  0  2  0  0  0  0  0  0  0  0  0
    9.2450   -0.6240    3.1460 C   0  0  0  0  0  0  0  0  0  0  0  0
   10.1630   -0.7710    0.8410 C   0  0  0  0  0  0  0  0  0  0  0  0
    9.8600   -0.4570   -0.3280 O   0  0  0  0  0  0  0  0  0  0  0  0
   11.4750   -0.6420    1.2770 O   0  0  0  0  0  0  0  0  0  0  0  0
    4.5440    0.0980    1.7720 C   0  0  0  0  0  0  0  0  0  0  0  0
    3.1830   -0.0700    1.5520 C   0  0  0  0  0  0  0  0  0  0  0  0
    2.6850   -0.2750    0.2690 C   0  0  0  0  0  0  0  0  0  0  0  0
    1.3370   -0.4460    0.0270 C   0  0  0  0  0  0  0  0  0  0  0  0
    0.5530   -0.4110    0.9990 O   0  0  0  0  0  0  0  0  0  0  0  0
   -5.9670    1.3150   -0.3730 C   0  0  2  0  0  0  0  0  0  0  0  0
   -6.1200    0.7970    1.0080 C   0  0  0  0  0  0  0  0  0  0  0  0
   -5.4890    1.2820    2.1010 C   0  0  0  0  0  0  0  0  0  0  0  0
   -5.8650    0.5460    3.3080 C   0  0  0  0  0  0  0  0  0  0  0  0
   -6.8320   -0.4490    2.8120 C   0  0  0  0  0  0  0  0  0  0  0  0
   -6.9500   -0.2790    1.5110 C   0  0  0  0  0  0  0  0  0  0  0  0
  2  1  1  1
  2  3  1  0
  2 36  1  0
  3  4  1  0
  4  5  1  0
  5  6  1  0
  6  7  1  1
  6 36  1  0
  7  8  2  0
  7  9  1  0
  9 10  1  6
  9 11  1  0
 11 12  1  0
 11 13  1  0
 13 14  2  0
 13 15  1  0
 15 16  2  0
 15 34  1  0
 16 17  1  0
 17 18  1  0
 18 19  2  0
 18 33  1  0
 19 20  1  0
 20 21  1  0
 20 31  2  0
 21 22  2  0
 21 23  2  0
 21 24  1  1
 24 25  1  0
 24 26  1  0
 26 27  1  1
 26 28  1  0
 28 29  2  0
 28 30  1  0
 31 32  1  0
 32 33  2  0
 33 34  1  0
 34 35  2  0
 36 37  1  1
 37 38  2  0
 37 41  1  0
 38 39  1  0
 39 40  1  0
 40 41  2  0
M  END
