
     RDKit          3D

 41 44  0  0  0  0  0  0  0  0999 V2000
    3.6860    5.4990    0.0650 C   0  0  0  0  0  0  0  0  0  0  0  0
    3.4880    4.1480   -0.2120 O   0  0  0  0  0  0  0  0  0  0  0  0
    3.7680    3.4880   -1.3870 C   0  0  0  0  0  0  0  0  0  0  0  0
    4.3010    4.1410   -2.4580 C   0  0  0  0  0  0  0  0  0  0  0  0
    4.5730    3.4550   -3.6250 C   0  0  0  0  0  0  0  0  0  0  0  0
    4.3190    2.1180   -3.7390 C   0  0  0  0  0  0  0  0  0  0  0  0
    3.7710    1.4660   -2.6290 C   0  0  0  0  0  0  0  0  0  0  0  0
    3.4890    2.1140   -1.4580 C   0  0  0  0  0  0  0  0  0  0  0  0
    2.9370    1.4810   -0.3240 N   0  0  0  0  0  0  0  0  0  0  0  0
    2.5870    0.1300   -0.1960 C   0  0  0  0  0  0  0  0  0  0  0  0
    2.7420   -0.6800   -1.1230 O   0  0  0  0  0  0  0  0  0  0  0  0
    2.0070   -0.3870    1.0790 C   0  0  0  0  0  0  0  0  0  0  0  0
    1.7210   -1.7800    0.9900 N   0  0  0  0  0  0  0  0  0  0  0  0
    2.7690   -2.6950    1.4230 C   0  0  0  0  0  0  0  0  0  0  0  0
    2.6590   -3.0300    2.9030 C   0  0  2  0  0  0  0  0  0  0  0  0
    3.7320   -4.0430    3.2000 C   0  0  0  0  0  0  0  0  0  0  0  0
    2.9250   -5.3230    3.2850 C   0  0  0  0  0  0  0  0  0  0  0  0
    1.6180   -4.7740    3.8340 C   0  0  0  0  0  0  0  0  0  0  0  0
    1.4430   -3.6180    3.1150 O   0  0  0  0  0  0  0  0  0  0  0  0
    0.5210   -2.3280    0.5190 C   0  0  0  0  0  0  0  0  0  0  0  0
    0.3790   -3.5990    0.5120 O   0  0  0  0  0  0  0  0  0  0  0  0
   -0.6220   -1.5790    0.0160 C   0  0  0  0  0  0  0  0  0  0  0  0
   -1.8320   -2.0360   -0.4480 C   0  0  0  0  0  0  0  0  0  0  0  0
   -2.7250   -1.1470   -0.8770 C   0  0  0  0  0  0  0  0  0  0  0  0
   -4.3700   -1.6290   -1.5030 S   0  0  0  0  0  0  0  0  0  0  0  0
   -4.8030   -3.3100   -1.1440 C   0  0  0  0  0  0  0  0  0  0  0  0
   -5.2670   -3.5030    0.2640 C   0  0  1  0  0  0  0  0  0  0  0  0
   -5.6230   -4.9740    0.5160 C   0  0  0  0  0  0  0  0  0  0  0  0
   -4.3200   -3.0170    1.3090 C   0  0  0  0  0  0  0  0  0  0  0  0
   -4.9020   -3.2580    2.5890 O   0  0  0  0  0  0  0  0  0  0  0  0
   -2.4070    0.1720   -0.8400 C   0  0  0  0  0  0  0  0  0  0  0  0
   -3.1630    1.3480   -1.2160 C   0  0  0  0  0  0  0  0  0  0  0  0
   -4.3320    1.1660   -1.6380 O   0  0  0  0  0  0  0  0  0  0  0  0
   -2.6910    2.6580   -1.1440 N   0  0  0  0  0  0  0  0  0  0  0  0
   -3.4910    3.8030   -1.5130 C   0  0  0  0  0  0  0  0  0  0  0  0
   -2.7710    4.6930   -2.5020 C   0  0  0  0  0  0  0  0  0  0  0  0
   -1.4130    4.7860   -2.2260 O   0  0  0  0  0  0  0  0  0  0  0  0
   -1.1020    4.3990   -0.9290 C   0  0  2  0  0  0  0  0  0  0  0  0
    0.3210    4.8120   -0.6770 C   0  0  0  0  0  0  0  0  0  0  0  0
   -1.3390    2.9180   -0.7000 C   0  0  0  0  0  0  0  0  0  0  0  0
   -0.7650    0.1480   -0.1650 S   0  0  0  0  0  0  0  0  0  0  0  0
  1  2  1  0
  2  3  1  0
  3  4  2  0
  3  8  1  0
  4  5  1  0
  5  6  2  0
  6  7  1  0
  7  8  2  0
  8  9  1  0
  9 10  1  0
 10 11  2  0
 10 12  1  0
 12 13  1  0
 13 14  1  0
 13 20  1  0
 15 14  1  6
 15 16  1  0
 15 19  1  0
 16 17  1  0
 17 18  1  0
 18 19  1  0
 20 21  2  0
 20 22  1  0
 22 23  2  0
 22 41  1  0
 23 24  1  0
 24 25  1  0
 24 31  2  0
 25 26  1  0
 26 27  1  0
 27 28  1  1
 27 29  1  0
 29 30  1  0
 31 32  1  0
 31 41  1  0
 32 33  2  0
 32 34  1  0
 34 35  1  0
 34 40  1  0
 35 36  1  0
 36 37  1  0
 37 38  1  0
 38 39  1  6
 38 40  1  0
M  END
