
     RDKit          3D

 21 23  0  0  0  0  0  0  0  0999 V2000
   -3.1850    2.0530    0.0920 C   0  0  0  0  0  0  0  0  0  0  0  0
   -3.1570    0.5700    0.0390 C   0  0  0  0  0  0  0  0  0  0  0  0
   -4.2800   -0.2430    0.0150 C   0  0  0  0  0  0  0  0  0  0  0  0
   -5.7080    0.2310    0.0370 C   0  0  0  0  0  0  0  0  0  0  0  0
   -6.0370    0.7120   -1.2040 F   0  0  0  0  0  0  0  0  0  0  0  0
   -3.7970   -1.5290   -0.0320 C   0  0  0  0  0  0  0  0  0  0  0  0
   -2.4590   -1.4750   -0.0350 N   0  0  0  0  0  0  0  0  0  0  0  0
   -2.0260   -0.2120    0.0070 C   0  0  0  0  0  0  0  0  0  0  0  0
   -0.6180    0.2520    0.0170 C   0  0  0  0  0  0  0  0  0  0  0  0
   -0.4240    1.4830    0.0620 O   0  0  0  0  0  0  0  0  0  0  0  0
    0.4550   -0.6340   -0.0220 N   0  0  0  0  0  0  0  0  0  0  0  0
    1.8450   -0.3100   -0.0210 C   0  0  0  0  0  0  0  0  0  0  0  0
    2.3680    0.9450   -0.1640 C   0  0  0  0  0  0  0  0  0  0  0  0
    3.7170    1.1600   -0.1350 C   0  0  0  0  0  0  0  0  0  0  0  0
    4.6070    0.1430    0.0370 C   0  0  0  0  0  0  0  0  0  0  0  0
    5.9640    0.1030    0.1010 N   0  0  0  0  0  0  0  0  0  0  0  0
    6.2880   -1.1840    0.2850 C   0  0  0  0  0  0  0  0  0  0  0  0
    7.4760   -1.5960    0.3900 O   0  0  0  0  0  0  0  0  0  0  0  0
    5.1920   -1.8970    0.3320 O   0  0  0  0  0  0  0  0  0  0  0  0
    4.1290   -1.1410    0.1860 C   0  0  0  0  0  0  0  0  0  0  0  0
    2.7750   -1.3480    0.1560 C   0  0  0  0  0  0  0  0  0  0  0  0
  1  2  1  0
  2  3  1  0
  2  8  2  0
  3  4  1  0
  3  6  2  0
  4  5  1  0
  6  7  1  0
  7  8  1  0
  8  9  1  0
  9 10  2  0
  9 11  1  0
 11 12  1  0
 12 13  2  0
 12 21  1  0
 13 14  1  0
 14 15  2  0
 15 16  1  0
 15 20  1  0
 16 17  1  0
 17 18  2  0
 17 19  1  0
 19 20  1  0
 20 21  2  0
M  END
