
     RDKit          3D

 21 23  0  0  0  0  0  0  0  0999 V2000
   -1.6120   -1.3850   -1.4870 O   0  0  0  0  0  0  0  0  0  0  0  0
   -1.1670   -0.6010   -0.6250 C   0  0  0  0  0  0  0  0  0  0  0  0
   -2.0810    0.1620    0.1420 N   0  0  0  0  0  0  0  0  0  0  0  0
   -3.4870    0.1510    0.0580 C   0  0  0  0  0  0  0  0  0  0  0  0
   -4.1730    1.0820    0.8510 C   0  0  0  0  0  0  0  0  0  0  0  0
   -5.5060    1.1700    0.8670 N   0  0  0  0  0  0  0  0  0  0  0  0
   -6.2640    0.3630    0.1160 C   0  0  0  0  0  0  0  0  0  0  0  0
   -5.6260   -0.5630   -0.6740 C   0  0  0  0  0  0  0  0  0  0  0  0
   -6.3760   -1.3910   -1.4430 F   0  0  0  0  0  0  0  0  0  0  0  0
   -4.2380   -0.6960   -0.7270 C   0  0  0  0  0  0  0  0  0  0  0  0
    0.2930   -0.4670   -0.4050 C   0  0  0  0  0  0  0  0  0  0  0  0
    1.2650   -1.1570   -1.0920 C   0  0  0  0  0  0  0  0  0  0  0  0
    2.5090   -0.7610   -0.6020 C   0  0  0  0  0  0  0  0  0  0  0  0
    3.8230   -1.1170   -0.9130 C   0  0  0  0  0  0  0  0  0  0  0  0
    4.8840   -0.5460   -0.2480 C   0  0  0  0  0  0  0  0  0  0  0  0
    6.1860   -0.8910   -0.5470 O   0  0  0  0  0  0  0  0  0  0  0  0
    4.6350    0.3850    0.7350 C   0  0  0  0  0  0  0  0  0  0  0  0
    5.6730    0.9950    1.4420 O   0  0  0  0  0  0  0  0  0  0  0  0
    3.3390    0.7590    1.0660 C   0  0  0  0  0  0  0  0  0  0  0  0
    2.2750    0.1670    0.3770 C   0  0  0  0  0  0  0  0  0  0  0  0
    0.9510    0.3120    0.4620 N   0  0  0  0  0  0  0  0  0  0  0  0
  1  2  2  0
  2  3  1  0
  2 11  1  0
  3  4  1  0
  4  5  2  0
  4 10  1  0
  5  6  1  0
  6  7  2  0
  7  8  1  0
  8  9  1  0
  8 10  2  0
 11 12  2  0
 11 21  1  0
 12 13  1  0
 13 14  2  0
 13 20  1  0
 14 15  1  0
 15 16  1  0
 15 17  2  0
 17 18  1  0
 17 19  1  0
 19 20  2  0
 20 21  1  0
M  END
