
     RDKit          3D

 21 23  0  0  0  0  0  0  0  0999 V2000
    4.4300    1.2730    1.8280 C   0  0  0  0  0  0  0  0  0  0  0  0
    3.1410    0.8870    1.2080 C   0  0  0  0  0  0  0  0  0  0  0  0
    2.0840    0.7850    1.8720 O   0  0  0  0  0  0  0  0  0  0  0  0
    3.1080    0.6180   -0.2190 C   0  0  0  0  0  0  0  0  0  0  0  0
    4.1530    0.7140   -0.9020 O   0  0  0  0  0  0  0  0  0  0  0  0
    1.8610    0.2290   -0.9000 C   0  0  0  0  0  0  0  0  0  0  0  0
    0.6720    0.0800   -0.3390 O   0  0  0  0  0  0  0  0  0  0  0  0
   -0.2200   -0.2720   -1.2330 C   0  0  0  0  0  0  0  0  0  0  0  0
   -1.6410   -0.5280   -0.9850 C   0  0  0  0  0  0  0  0  0  0  0  0
   -2.5900   -0.8890   -1.8630 N   0  0  0  0  0  0  0  0  0  0  0  0
   -3.7580   -1.0230   -1.2410 N   0  0  0  0  0  0  0  0  0  0  0  0
   -3.5860   -0.7500    0.0500 C   0  0  0  0  0  0  0  0  0  0  0  0
   -4.5040   -0.7530    1.0940 C   0  0  0  0  0  0  0  0  0  0  0  0
   -4.0250   -0.4210    2.3530 C   0  0  0  0  0  0  0  0  0  0  0  0
   -2.6960   -0.1060    2.5340 C   0  0  0  0  0  0  0  0  0  0  0  0
   -2.2730    0.2090    3.7640 F   0  0  0  0  0  0  0  0  0  0  0  0
   -1.7890   -0.1090    1.4710 C   0  0  0  0  0  0  0  0  0  0  0  0
   -2.2640   -0.4370    0.2290 C   0  0  0  0  0  0  0  0  0  0  0  0
    0.4190   -0.3600   -2.4520 C   0  0  0  0  0  0  0  0  0  0  0  0
    1.7450   -0.0410   -2.2430 C   0  0  0  0  0  0  0  0  0  0  0  0
    2.7740   -0.0060   -3.2380 N   0  0  0  0  0  0  0  0  0  0  0  0
  1  2  1  0
  2  3  2  0
  2  4  1  0
  4  5  2  0
  4  6  1  0
  6  7  1  0
  6 20  2  0
  7  8  1  0
  8  9  1  0
  8 19  2  0
  9 10  2  0
  9 18  1  0
 10 11  1  0
 11 12  1  0
 12 13  2  0
 12 18  1  0
 13 14  1  0
 14 15  2  0
 15 16  1  0
 15 17  1  0
 17 18  2  0
 19 20  1  0
 20 21  1  0
M  END
