
     RDKit          3D

 21 23  0  0  0  0  0  0  0  0999 V2000
    0.3950   -1.7490    2.3120 O   0  0  0  0  0  0  0  0  0  0  0  0
   -0.3220   -1.3400    1.3370 C   0  0  0  0  0  0  0  0  0  0  0  0
   -1.5240   -0.7560    1.4230 N   0  0  0  0  0  0  0  0  0  0  0  0
   -1.9620   -0.4700    0.1960 C   0  0  0  0  0  0  0  0  0  0  0  0
   -3.2310    0.1760   -0.2040 C   0  0  0  0  0  0  0  0  0  0  0  0
   -3.6170    0.4370   -1.4380 C   0  0  0  0  0  0  0  0  0  0  0  0
   -4.9470    1.0890   -1.4320 C   0  0  0  0  0  0  0  0  0  0  0  0
   -5.2910    1.1730    0.0070 C   0  0  0  0  0  0  0  0  0  0  0  0
   -6.4490    1.7130    0.4810 F   0  0  0  0  0  0  0  0  0  0  0  0
   -4.2890    0.6430    0.6790 C   0  0  0  0  0  0  0  0  0  0  0  0
   -1.0110   -0.8860   -0.6550 N   0  0  0  0  0  0  0  0  0  0  0  0
   -0.0150   -1.4150    0.0440 N   0  0  0  0  0  0  0  0  0  0  0  0
    1.2260   -1.9930   -0.4880 C   0  0  0  0  0  0  0  0  0  0  0  0
    2.2600   -0.9050   -0.5880 C   0  0  0  0  0  0  0  0  0  0  0  0
    2.3860   -0.1570   -1.7310 C   0  0  0  0  0  0  0  0  0  0  0  0
    3.3460    0.8500   -1.8180 C   0  0  0  0  0  0  0  0  0  0  0  0
    4.1880    1.1170   -0.7660 C   0  0  0  0  0  0  0  0  0  0  0  0
    5.1530    2.1380   -0.8720 O   0  0  0  0  0  0  0  0  0  0  0  0
    4.0520    0.3580    0.3770 C   0  0  0  0  0  0  0  0  0  0  0  0
    4.8950    0.6100    1.4590 O   0  0  0  0  0  0  0  0  0  0  0  0
    3.1000   -0.6440    0.4720 C   0  0  0  0  0  0  0  0  0  0  0  0
  1  2  2  0
  2  3  1  0
  2 12  1  0
  3  4  1  0
  4  5  1  0
  4 11  2  0
  5  6  2  0
  5 10  1  0
  6  7  1  0
  7  8  1  0
  8  9  1  0
  8 10  2  0
 11 12  1  0
 12 13  1  0
 13 14  1  0
 14 15  2  0
 14 21  1  0
 15 16  1  0
 16 17  2  0
 17 18  1  0
 17 19  1  0
 19 20  1  0
 19 21  2  0
M  END
