
     RDKit          3D

 28 31  0  0  0  0  0  0  0  0999 V2000
   -1.9340   -2.9910    3.9850 C   0  0  0  0  0  0  0  0  0  0  0  0
   -3.2140   -2.6680    3.5340 O   0  0  0  0  0  0  0  0  0  0  0  0
   -3.5180   -1.7790    2.5110 C   0  0  0  0  0  0  0  0  0  0  0  0
   -2.5320   -1.1040    1.8110 C   0  0  0  0  0  0  0  0  0  0  0  0
   -2.8920   -0.2220    0.7960 C   0  0  0  0  0  0  0  0  0  0  0  0
   -1.8520    0.4600    0.0560 C   0  0  0  0  0  0  0  0  0  0  0  0
   -2.1120    1.3970   -0.9130 C   0  0  0  0  0  0  0  0  0  0  0  0
   -1.0370    1.9800   -1.5490 C   0  0  0  0  0  0  0  0  0  0  0  0
    0.2710    1.6340   -1.2220 C   0  0  0  0  0  0  0  0  0  0  0  0
    0.4990    0.6850   -0.2390 C   0  0  0  0  0  0  0  0  0  0  0  0
   -0.5690    0.1470    0.3490 N   0  0  0  0  0  0  0  0  0  0  0  0
    1.9540    0.4630   -0.0380 C   0  0  0  0  0  0  0  0  0  0  0  0
    2.6190    1.3160   -1.0100 N   0  0  0  0  0  0  0  0  0  0  0  0
    4.0280    1.3820   -1.2000 C   0  0  0  0  0  0  0  0  0  0  0  0
    5.0070    1.5680   -0.2560 C   0  0  0  0  0  0  0  0  0  0  0  0
    6.1770    1.5520   -0.8950 N   0  0  0  0  0  0  0  0  0  0  0  0
    6.0130    1.3690   -2.1870 N   0  0  0  0  0  0  0  0  0  0  0  0
    7.0610    1.2910   -3.1990 C   0  0  0  0  0  0  0  0  0  0  0  0
    7.4500   -0.0940   -3.3270 C   0  0  0  0  0  0  0  0  0  0  0  0
    7.7500   -1.2330   -3.4230 N   0  0  0  0  0  0  0  0  0  0  0  0
    4.7000    1.2610   -2.4050 C   0  0  0  0  0  0  0  0  0  0  0  0
    1.5930    2.0180   -1.6910 C   0  0  0  0  0  0  0  0  0  0  0  0
    1.7720    2.8900   -2.6100 O   0  0  0  0  0  0  0  0  0  0  0  0
   -4.2200   -0.0620    0.5350 C   0  0  0  0  0  0  0  0  0  0  0  0
   -5.1580   -0.7210    1.2190 N   0  0  0  0  0  0  0  0  0  0  0  0
   -4.8470   -1.5970    2.2240 C   0  0  0  0  0  0  0  0  0  0  0  0
   -5.8830   -2.2430    2.8860 O   0  0  0  0  0  0  0  0  0  0  0  0
   -7.2330   -1.9790    2.4990 C   0  0  0  0  0  0  0  0  0  0  0  0
  1  2  1  0
  2  3  1  0
  3  4  2  0
  3 26  1  0
  4  5  1  0
  5  6  1  0
  5 24  2  0
  6  7  2  0
  6 11  1  0
  7  8  1  0
  8  9  2  0
  9 10  1  0
  9 22  1  0
 10 11  2  0
 10 12  1  0
 12 13  1  0
 13 14  1  0
 13 22  1  0
 14 15  1  0
 14 21  2  0
 15 16  2  0
 16 17  1  0
 17 18  1  0
 17 21  1  0
 18 19  1  0
 19 20  3  0
 22 23  2  0
 24 25  1  0
 25 26  2  0
 26 27  1  0
 27 28  1  0
M  END
