
     RDKit          3D

 16 16  0  0  0  0  0  0  0  0999 V2000
   -5.2280    0.5510   -0.2180 O   0  0  0  0  0  0  0  0  0  0  0  0
   -4.0340    0.8820   -0.1560 C   0  0  0  0  0  0  0  0  0  0  0  0
   -3.7430    2.2370   -0.0360 O   0  0  0  0  0  0  0  0  0  0  0  0
   -2.9500   -0.0980   -0.2050 C   0  0  0  0  0  0  0  0  0  0  0  0
   -3.2280   -1.4390   -0.3230 O   0  0  0  0  0  0  0  0  0  0  0  0
   -1.6830    0.2910   -0.1360 C   0  0  0  0  0  0  0  0  0  0  0  0
   -0.6430   -0.6950   -0.1870 C   0  0  0  0  0  0  0  0  0  0  0  0
   -0.9800   -1.9420   -0.3190 O   0  0  0  0  0  0  0  0  0  0  0  0
    0.7720   -0.4810   -0.1140 C   0  0  0  0  0  0  0  0  0  0  0  0
    1.6590   -1.4230   -0.6750 C   0  0  0  0  0  0  0  0  0  0  0  0
    3.0140   -1.2550   -0.6740 C   0  0  0  0  0  0  0  0  0  0  0  0
    3.6010   -0.1410   -0.1190 C   0  0  0  0  0  0  0  0  0  0  0  0
    4.9890    0.0330   -0.1190 O   0  0  0  0  0  0  0  0  0  0  0  0
    2.7480    0.7820    0.4300 C   0  0  0  0  0  0  0  0  0  0  0  0
    1.3560    0.6230    0.4380 C   0  0  0  0  0  0  0  0  0  0  0  0
    0.3570    1.9900    1.3020 Br  0  0  0  0  0  0  0  0  0  0  0  0
  1  2  2  0
  2  3  1  0
  2  4  1  0
  4  5  1  0
  4  6  2  3
  6  7  1  0
  7  8  2  0
  7  9  1  0
  9 10  2  0
  9 15  1  0
 10 11  1  0
 11 12  2  0
 12 13  1  0
 12 14  1  0
 14 15  2  0
 15 16  1  0
M  END
