
     RDKit          3D

 21 20  0  0  0  0  0  0  0  0999 V2000
    5.4750    1.3910    1.4000 C   0  0  0  0  0  0  0  0  0  0  0  0
    6.2220    0.2430    1.2460 O   0  0  0  0  0  0  0  0  0  0  0  0
    5.3790   -0.7590    0.7310 C   0  0  0  0  0  0  0  0  0  0  0  0
    4.8400   -0.3170   -0.5580 C   0  0  0  0  0  0  0  0  0  0  0  0
    5.8190   -0.0500   -1.5490 O   0  0  0  0  0  0  0  0  0  0  0  0
    3.5820   -0.1540   -0.8660 C   0  0  0  0  0  0  0  0  0  0  0  0
    2.4370   -0.3660   -0.0230 C   0  0  0  0  0  0  0  0  0  0  0  0
    2.4590   -0.7510    1.1740 O   0  0  0  0  0  0  0  0  0  0  0  0
    1.1050   -0.1340   -0.5350 N   0  0  0  0  0  0  0  0  0  0  0  0
   -0.0270   -0.3310    0.2520 N   0  0  0  0  0  0  0  0  0  0  0  0
   -1.3180   -0.0440   -0.2480 C   0  0  0  0  0  0  0  0  0  0  0  0
   -1.4050    0.3960   -1.4240 O   0  0  0  0  0  0  0  0  0  0  0  0
   -2.5510   -0.2310    0.5260 C   0  0  2  0  0  0  0  0  0  0  0  0
   -3.7100    0.1320   -0.1660 O   0  0  0  0  0  0  0  0  0  0  0  0
   -4.0500   -0.5030   -1.3700 C   0  0  0  0  0  0  0  0  0  0  0  0
   -5.0200    0.0460   -2.2430 N   0  0  0  0  0  0  0  0  0  0  0  0
   -3.4280   -1.6030   -1.6250 N   0  0  0  0  0  0  0  0  0  0  0  0
   -2.5560    0.5910    1.8240 C   0  0  1  0  0  0  0  0  0  0  0  0
   -2.5530    1.9280    1.4520 O   0  0  0  0  0  0  0  0  0  0  0  0
   -3.8710    0.2550    2.5220 C   0  0  0  0  0  0  0  0  0  0  0  0
   -4.9560    0.4810    1.6950 O   0  0  0  0  0  0  0  0  0  0  0  0
  1  2  1  0
  2  3  1  0
  3  4  1  0
  4  5  1  0
  4  6  2  3
  6  7  1  0
  7  8  2  0
  7  9  1  0
  9 10  1  0
 10 11  1  0
 11 12  2  0
 11 13  1  0
 13 14  1  6
 13 18  1  0
 14 15  1  0
 15 16  1  0
 15 17  2  0
 18 19  1  6
 18 20  1  0
 20 21  1  0
M  CHG  1  17   1
M  END
