
     RDKit          3D

 21 20  0  0  0  0  0  0  0  0999 V2000
   -3.0050   -3.1150   -0.1250 C   0  0  0  0  0  0  0  0  0  0  0  0
   -3.2170   -2.0110   -0.9790 O   0  0  0  0  0  0  0  0  0  0  0  0
   -3.6750   -0.7860   -0.5150 C   0  0  0  0  0  0  0  0  0  0  0  0
   -4.8730   -0.7060    0.0130 C   0  0  0  0  0  0  0  0  0  0  0  0
   -5.6790   -1.8390    0.1090 O   0  0  0  0  0  0  0  0  0  0  0  0
   -2.8210    0.4170   -0.6170 C   0  0  1  0  0  0  0  0  0  0  0  0
   -2.5750    0.6940   -1.9650 O   0  0  0  0  0  0  0  0  0  0  0  0
   -3.3560    1.6030    0.1470 C   0  0  0  0  0  0  0  0  0  0  0  0
   -2.3510    2.6560    0.0710 N   0  0  0  0  0  0  0  0  0  0  0  0
   -1.5160    0.0420    0.0220 C   0  0  0  0  0  0  0  0  0  0  0  0
   -1.5470   -0.2140    1.2510 O   0  0  0  0  0  0  0  0  0  0  0  0
   -0.3150   -0.0200   -0.7280 N   0  0  0  0  0  0  0  0  0  0  0  0
    0.8600   -0.3730   -0.0910 N   0  0  0  0  0  0  0  0  0  0  0  0
    2.0780    0.2670   -0.4530 C   0  0  0  0  0  0  0  0  0  0  0  0
    2.1700    1.1550   -1.3350 O   0  0  0  0  0  0  0  0  0  0  0  0
    3.2830   -0.1070    0.2140 N   0  0  0  0  0  0  0  0  0  0  0  0
    4.5630    0.4940   -0.0930 C   0  0  0  0  0  0  0  0  0  0  0  0
    5.6070   -0.1300    0.7910 C   0  0  0  0  0  0  0  0  0  0  0  0
    6.9020    0.3680    0.5950 O   0  0  0  0  0  0  0  0  0  0  0  0
    7.5930    0.3060   -0.5950 C   0  0  0  0  0  0  0  0  0  0  0  0
    7.0680   -0.2160   -1.5810 O   0  0  0  0  0  0  0  0  0  0  0  0
  1  2  1  0
  2  3  1  0
  3  4  2  3
  3  6  1  0
  4  5  1  0
  6  7  1  6
  6  8  1  0
  6 10  1  0
  8  9  1  0
 10 11  2  0
 10 12  1  0
 12 13  1  0
 13 14  1  0
 14 15  2  0
 14 16  1  0
 16 17  1  0
 17 18  1  0
 18 19  1  0
 19 20  1  0
 20 21  2  0
M  CHG  1   9   1
M  END
