
     RDKit          3D

 20 19  0  0  0  0  0  0  0  0999 V2000
   -3.4520   -2.3680   -0.7640 C   0  0  0  0  0  0  0  0  0  0  0  0
   -1.9440   -2.5280   -0.8230 C   0  0  1  0  0  0  0  0  0  0  0  0
   -1.6850   -3.4900   -1.8100 O   0  0  0  0  0  0  0  0  0  0  0  0
   -1.3820   -1.2980   -1.1440 O   0  0  0  0  0  0  0  0  0  0  0  0
   -0.5000   -0.9140   -0.1050 C   0  0  0  0  0  0  0  0  0  0  0  0
    0.1250    0.4150   -0.4250 C   0  0  1  0  0  0  0  0  0  0  0  0
   -1.0770    1.3280   -0.7400 C   0  0  0  0  0  0  0  0  0  0  0  0
   -1.8540    1.5030    0.4020 O   0  0  0  0  0  0  0  0  0  0  0  0
   -2.9290    2.3140    0.1360 C   0  0  0  0  0  0  0  0  0  0  0  0
   -3.8210    2.5590    1.3050 C   0  0  0  0  0  0  0  0  0  0  0  0
   -4.8640    3.4020    0.8640 O   0  0  0  0  0  0  0  0  0  0  0  0
    0.9270    0.8700    0.5050 O   0  0  0  0  0  0  0  0  0  0  0  0
    2.1780    1.2580    0.4400 C   0  0  0  0  0  0  0  0  0  0  0  0
    3.2180    0.2350    0.1810 C   0  0  2  0  0  0  0  0  0  0  0  0
    4.4600    0.9750    0.0680 O   0  0  0  0  0  0  0  0  0  0  0  0
    3.1290   -0.6090   -1.0220 C   0  0  0  0  0  0  0  0  0  0  0  0
    3.1580    0.1710   -2.2050 O   0  0  0  0  0  0  0  0  0  0  0  0
    3.3950   -0.6310    1.4250 C   0  0  1  0  0  0  0  0  0  0  0  0
    2.2590   -1.4230    1.6950 N   0  0  0  0  0  0  0  0  0  0  0  0
    4.5170   -1.4500    1.3060 O   0  0  0  0  0  0  0  0  0  0  0  0
  2  1  1  6
  2  3  1  0
  2  4  1  0
  4  5  1  0
  6  5  1  1
  6  7  1  0
  6 12  1  0
  7  8  1  0
  8  9  1  0
  9 10  1  0
 10 11  1  0
 12 13  1  0
 13 14  1  0
 14 15  1  6
 14 16  1  0
 14 18  1  0
 16 17  1  0
 18 19  1  6
 18 20  1  0
M  END
