
     RDKit          3D

 20 20  0  0  0  0  0  0  0  0999 V2000
    2.8580   -1.6470    0.2920 N   0  0  0  0  0  0  0  0  0  0  0  0
    2.0970   -0.4080    0.4500 C   0  0  1  0  0  0  0  0  0  0  0  0
    2.7130    0.5800   -0.2920 O   0  0  0  0  0  0  0  0  0  0  0  0
    3.3160    1.5950    0.3750 C   0  0  0  0  0  0  0  0  0  0  0  0
    4.3370    1.1790    1.2340 O   0  0  0  0  0  0  0  0  0  0  0  0
    4.8240    2.2470    1.8030 O   0  0  0  0  0  0  0  0  0  0  0  0
    0.6910   -0.5750   -0.0240 C   0  0  1  0  0  0  0  0  0  0  0  0
    0.7570   -0.9260   -1.5080 C   0  0  0  0  0  0  0  0  0  0  0  0
    1.4600   -2.1010   -1.7110 O   0  0  0  0  0  0  0  0  0  0  0  0
    0.0060   -1.7610    0.6490 C   0  0  0  0  0  0  0  0  0  0  0  0
   -1.4470   -1.4720    0.3500 C   0  0  0  0  0  0  0  0  0  0  0  0
   -1.5870   -0.0240    0.6420 C   0  0  2  0  0  0  0  0  0  0  0  0
   -1.7870    0.1820    2.1300 C   0  0  0  0  0  0  0  0  0  0  0  0
   -2.8980   -0.4150    2.6470 O   0  0  0  0  0  0  0  0  0  0  0  0
   -2.7320    0.6500   -0.0800 C   0  0  2  0  0  0  0  0  0  0  0  0
   -3.9600    0.0770    0.2690 O   0  0  0  0  0  0  0  0  0  0  0  0
   -2.6110    0.6070   -1.5850 C   0  0  0  0  0  0  0  0  0  0  0  0
   -3.6890    1.3390   -2.1440 O   0  0  0  0  0  0  0  0  0  0  0  0
   -0.2330    0.5590    0.2700 C   0  0  1  0  0  0  0  0  0  0  0  0
    0.2600    1.2770    1.3780 O   0  0  0  0  0  0  0  0  0  0  0  0
  2  1  1  6
  2  3  1  0
  2  7  1  0
  3  4  1  0
  4  5  1  0
  5  6  1  0
  7  8  1  6
  7 10  1  0
  7 19  1  0
  8  9  1  0
 10 11  1  0
 11 12  1  0
 12 13  1  1
 12 15  1  0
 12 19  1  0
 13 14  1  0
 15 16  1  6
 15 17  1  0
 17 18  1  0
 19 20  1  1
M  END
