
     RDKit          3D

 21 20  0  0  0  0  0  0  0  0999 V2000
    3.5090   -3.2400    0.7470 N   0  0  0  0  0  0  0  0  0  0  0  0
    2.7860   -2.3380    0.8640 C   0  0  0  0  0  0  0  0  0  0  0  0
    1.8400   -1.1970    1.0240 C   0  0  1  0  0  0  0  0  0  0  0  0
    1.4460   -1.1930    2.4570 C   0  0  0  0  0  0  0  0  0  0  0  0
    0.8090   -2.4070    2.8150 O   0  0  0  0  0  0  0  0  0  0  0  0
    2.5350    0.0110    0.5210 C   0  0  0  0  0  0  0  0  0  0  0  0
    3.8000    0.4060    1.1780 C   0  0  2  0  0  0  0  0  0  0  0  0
    3.5990    0.6740    2.5260 O   0  0  0  0  0  0  0  0  0  0  0  0
    4.2130    1.6330    0.6070 O   0  0  0  0  0  0  0  0  0  0  0  0
    0.6990   -1.5080    0.0860 C   0  0  1  0  0  0  0  0  0  0  0  0
    0.0760   -2.7130    0.4070 O   0  0  0  0  0  0  0  0  0  0  0  0
   -0.3850   -0.4460    0.0540 C   0  0  2  0  0  0  0  0  0  0  0  0
   -1.0080   -0.3590    1.3050 O   0  0  0  0  0  0  0  0  0  0  0  0
   -1.3170   -0.8920   -0.8540 O   0  0  0  0  0  0  0  0  0  0  0  0
   -1.6250   -0.1170   -1.9130 C   0  0  0  0  0  0  0  0  0  0  0  0
   -2.3750    1.1260   -1.5400 C   0  0  1  0  0  0  0  0  0  0  0  0
   -1.6640    1.8720   -0.6330 O   0  0  0  0  0  0  0  0  0  0  0  0
   -2.5130    1.9160   -2.8650 C   0  0  0  0  0  0  0  0  0  0  0  0
   -3.1720    3.1110   -2.6620 O   0  0  0  0  0  0  0  0  0  0  0  0
   -3.7630    0.7840   -1.0480 C   0  0  0  0  0  0  0  0  0  0  0  0
   -3.7640    0.0490    0.1200 O   0  0  0  0  0  0  0  0  0  0  0  0
  1  2  3  0
  3  2  1  1
  3  4  1  0
  3  6  1  0
  3 10  1  0
  4  5  1  0
  6  7  1  0
  7  8  1  1
  7  9  1  0
 10 11  1  1
 10 12  1  0
 12 13  1  1
 12 14  1  0
 14 15  1  0
 15 16  1  0
 16 17  1  1
 16 18  1  0
 16 20  1  0
 18 19  1  0
 20 21  1  0
M  END
