
     RDKit          3D

 35 38  0  0  0  0  0  0  0  0999 V2000
   -5.2340    4.8290    0.1170 C   0  0  0  0  0  0  0  0  0  0  0  0
   -4.0090    4.2210    0.4520 O   0  0  0  0  0  0  0  0  0  0  0  0
   -3.6270    3.0800   -0.2840 C   0  0  0  0  0  0  0  0  0  0  0  0
   -4.4720    2.6270   -1.2860 C   0  0  0  0  0  0  0  0  0  0  0  0
   -4.1470    1.5190   -2.0340 C   0  0  0  0  0  0  0  0  0  0  0  0
   -4.9930    1.0750   -3.0290 F   0  0  0  0  0  0  0  0  0  0  0  0
   -2.9720    0.8810   -1.7610 C   0  0  0  0  0  0  0  0  0  0  0  0
   -2.1070    1.2940   -0.7790 C   0  0  0  0  0  0  0  0  0  0  0  0
   -0.8460    0.6320   -0.4160 C   0  0  0  0  0  0  0  0  0  0  0  0
    0.5970    1.7100   -0.1220 S   0  0  0  0  0  0  0  0  0  0  0  0
    1.7210    0.4380    0.1340 C   0  0  0  0  0  0  0  0  0  0  0  0
    3.1000    0.6380    0.4230 N   0  0  0  0  0  0  0  0  0  0  0  0
    3.6320    1.9650    0.5170 C   0  0  0  0  0  0  0  0  0  0  0  0
    2.8430    2.9290    0.3380 O   0  0  0  0  0  0  0  0  0  0  0  0
    5.0730    2.1320    0.8200 C   0  0  1  0  0  0  0  0  0  0  0  0
    5.8680    1.3130   -0.1690 C   0  0  0  0  0  0  0  0  0  0  0  0
    5.4560    3.4690    0.8820 O   0  0  0  0  0  0  0  0  0  0  0  0
    5.9830    4.1110    1.9670 C   0  0  0  0  0  0  0  0  0  0  0  0
    6.1480    3.4420    3.0290 O   0  0  0  0  0  0  0  0  0  0  0  0
    6.4070    5.8040    1.8600 Cl  0  0  0  0  0  0  0  0  0  0  0  0
    0.9760   -0.7430   -0.0040 C   0  0  0  0  0  0  0  0  0  0  0  0
    1.5520   -1.9860    0.1070 C   0  0  0  0  0  0  0  0  0  0  0  0
    2.7890   -2.1410    0.3640 O   0  0  0  0  0  0  0  0  0  0  0  0
    0.8760   -3.1770   -0.0420 N   0  0  0  0  0  0  0  0  0  0  0  0
   -0.4290   -3.0960   -0.3070 C   0  0  0  0  0  0  0  0  0  0  0  0
   -1.0570   -1.8410   -0.4120 C   0  0  0  0  0  0  0  0  0  0  0  0
   -2.3670   -1.8060   -0.1980 C   0  0  0  0  0  0  0  0  0  0  0  0
   -3.3990   -2.7640    0.1410 C   0  0  0  0  0  0  0  0  0  0  0  0
   -2.9780   -3.7360    1.6350 S   0  0  0  0  0  0  0  0  0  0  0  0
   -0.3330   -0.6150   -0.2770 C   0  0  0  0  0  0  0  0  0  0  0  0
   -1.1330   -4.1790   -0.6190 C   0  0  0  0  0  0  0  0  0  0  0  0
   -0.3680   -5.7960   -0.6780 S   0  0  0  0  0  0  0  0  0  0  0  0
    1.0220   -5.6150    0.5180 C   0  0  0  0  0  0  0  0  0  0  0  0
    1.6890   -4.3650    0.1100 C   0  0  0  0  0  0  0  0  0  0  0  0
   -2.4570    2.4300   -0.0250 C   0  0  0  0  0  0  0  0  0  0  0  0
  1  2  1  0
  2  3  1  0
  3  4  2  0
  3 35  1  0
  4  5  1  0
  5  6  1  0
  5  7  2  0
  7  8  1  0
  8  9  1  0
  8 35  2  0
  9 10  1  0
  9 30  2  0
 10 11  1  0
 11 12  1  0
 11 21  2  0
 12 13  1  0
 13 14  2  0
 13 15  1  0
 15 16  1  6
 15 17  1  0
 17 18  1  0
 18 19  2  0
 18 20  1  0
 21 22  1  0
 21 30  1  0
 22 23  2  0
 22 24  1  0
 24 25  1  0
 24 34  1  0
 25 26  1  0
 25 31  2  0
 26 27  2  3
 26 30  1  0
 27 28  1  0
 28 29  1  0
 31 32  1  0
 32 33  1  0
 33 34  1  0
M  END
