
     RDKit          3D

 35 38  0  0  0  0  0  0  0  0999 V2000
    8.3510   -0.6630    2.4390 C   0  0  0  0  0  0  0  0  0  0  0  0
    8.2880    0.4610    1.4500 C   0  0  0  0  0  0  0  0  0  0  0  0
    8.6340    0.0740   -0.1920 S   0  0  1  0  0  0  0  0  0  0  0  0
    8.7070    1.3960   -1.0050 O   0  0  0  0  0  0  0  0  0  0  0  0
   10.0690   -0.4710   -0.3050 O   0  0  0  0  0  0  0  0  0  0  0  0
    7.5440   -0.9980   -1.0480 C   0  0  0  0  0  0  0  0  0  0  0  0
    6.1970   -0.4080   -1.0760 C   0  0  0  0  0  0  0  0  0  0  0  0
    5.2950   -0.3970   -0.0490 C   0  0  0  0  0  0  0  0  0  0  0  0
    3.9940    0.1030   -0.2030 C   0  0  0  0  0  0  0  0  0  0  0  0
    3.0810    0.0630    0.8160 C   0  0  0  0  0  0  0  0  0  0  0  0
    1.7660    0.5370    0.6410 C   0  0  0  0  0  0  0  0  0  0  0  0
    1.4380    1.0460   -0.5740 C   0  0  0  0  0  0  0  0  0  0  0  0
    2.3420    1.0850   -1.6110 C   0  0  0  0  0  0  0  0  0  0  0  0
    3.6280    0.6070   -1.4340 C   0  0  0  0  0  0  0  0  0  0  0  0
    4.5210    0.6170   -2.5120 C   0  0  0  0  0  0  0  0  0  0  0  0
    4.1190    1.1240   -3.6920 F   0  0  0  0  0  0  0  0  0  0  0  0
    5.7910    0.1060   -2.3160 C   0  0  0  0  0  0  0  0  0  0  0  0
    6.9450    0.1180   -3.6390 Cl  0  0  0  0  0  0  0  0  0  0  0  0
   -0.1350    1.8920   -0.9300 S   0  0  0  0  0  0  0  0  0  0  0  0
   -1.2390    1.3410    0.4430 C   0  0  1  0  0  0  0  0  0  0  0  0
   -2.2770    0.5160   -0.2110 C   0  0  0  0  0  0  0  0  0  0  0  0
   -3.3040   -0.1330    0.5780 C   0  0  0  0  0  0  0  0  0  0  0  0
   -3.0490   -0.5570    1.7590 O   0  0  0  0  0  0  0  0  0  0  0  0
   -4.6350   -0.3320    0.1070 N   0  0  0  0  0  0  0  0  0  0  0  0
   -5.5880   -1.0100    0.9540 C   0  0  0  0  0  0  0  0  0  0  0  0
   -7.0120   -0.8690    0.4810 C   0  0  0  0  0  0  0  0  0  0  0  0
   -8.0270   -1.4010    0.3480 N   0  0  0  0  0  0  0  0  0  0  0  0
   -9.1830   -0.9360   -0.0760 C   0  0  0  0  0  0  0  0  0  0  0  0
  -10.4210   -1.7920   -0.1450 C   0  0  0  0  0  0  0  0  0  0  0  0
   -9.1950    0.3850   -0.4200 C   0  0  0  0  0  0  0  0  0  0  0  0
  -10.2940    1.2820   -0.9140 C   0  0  0  0  0  0  0  0  0  0  0  0
   -7.4890    0.8970   -0.1050 S   0  0  0  0  0  0  0  0  0  0  0  0
   -0.4800    0.8900    1.5810 C   0  0  0  0  0  0  0  0  0  0  0  0
   -1.1020    0.8620    2.7050 O   0  0  0  0  0  0  0  0  0  0  0  0
    0.8340    0.4780    1.6440 O   0  0  0  0  0  0  0  0  0  0  0  0
  1  2  1  0
  3  2  1  1
  3  4  2  0
  3  5  2  0
  3  6  1  0
  6  7  1  0
  7  8  2  0
  7 17  1  0
  8  9  1  0
  9 10  2  0
  9 14  1  0
 10 11  1  0
 11 12  2  0
 11 35  1  0
 12 13  1  0
 12 19  1  0
 13 14  2  0
 14 15  1  0
 15 16  1  0
 15 17  2  0
 17 18  1  0
 19 20  1  0
 20 21  1  6
 20 33  1  0
 21 22  1  0
 22 23  2  0
 22 24  1  0
 24 25  1  0
 25 26  1  0
 26 27  2  0
 26 32  1  0
 27 28  1  0
 28 29  1  0
 28 30  2  0
 30 31  1  0
 30 32  1  0
 33 34  2  0
 33 35  1  0
M  END
