
     RDKit          3D

 35 38  0  0  0  0  0  0  0  0999 V2000
    6.7650    1.3250   -2.9570 C   0  0  0  0  0  0  0  0  0  0  0  0
    5.5070    0.9650   -3.0210 C   0  0  0  0  0  0  0  0  0  0  0  0
    4.8240    0.9870   -4.2120 C   0  0  0  0  0  0  0  0  0  0  0  0
    5.6320    1.5010   -5.6660 Cl  0  0  0  0  0  0  0  0  0  0  0  0
    3.4890    0.6130   -4.3280 C   0  0  0  0  0  0  0  0  0  0  0  0
    2.7140    0.6740   -5.8450 S   0  0  0  0  0  0  0  0  0  0  0  0
    1.0720    0.1620   -5.6930 C   0  0  0  0  0  0  0  0  0  0  0  0
    0.3080    0.1240   -6.6730 O   0  0  0  0  0  0  0  0  0  0  0  0
    0.6960   -0.1940   -4.4160 C   0  0  0  0  0  0  0  0  0  0  0  0
   -0.9760   -0.7840   -3.8990 S   0  0  0  0  0  0  0  0  0  0  0  0
   -0.4630   -0.9740   -2.1300 C   0  0  0  0  0  0  0  0  0  0  0  0
   -1.2640   -1.3730   -1.2710 N   0  0  0  0  0  0  0  0  0  0  0  0
   -0.9450   -1.5460    0.0940 C   0  0  0  0  0  0  0  0  0  0  0  0
    0.1430   -2.0950    0.3620 O   0  0  0  0  0  0  0  0  0  0  0  0
   -1.8220   -1.1200    1.1120 C   0  0  0  0  0  0  0  0  0  0  0  0
   -3.4040   -0.2490    0.8370 S   0  0  0  0  0  0  0  0  0  0  0  0
   -3.8620   -0.1310    2.5980 C   0  0  0  0  0  0  0  0  0  0  0  0
   -5.0220    0.4650    3.1130 C   0  0  0  0  0  0  0  0  0  0  0  0
   -5.2520    0.4700    4.3410 O   0  0  0  0  0  0  0  0  0  0  0  0
   -5.9590    1.0740    2.2650 O   0  0  0  0  0  0  0  0  0  0  0  0
   -7.1190    1.6620    2.8380 C   0  0  0  0  0  0  0  0  0  0  0  0
   -6.7840    2.6710    3.7450 O   0  0  0  0  0  0  0  0  0  0  0  0
   -6.0590    3.6470    3.0620 C   0  0  0  0  0  0  0  0  0  0  0  0
   -2.8090   -0.7390    3.1930 C   0  0  0  0  0  0  0  0  0  0  0  0
   -1.7990   -1.2310    2.4730 C   0  0  0  0  0  0  0  0  0  0  0  0
   -0.5810   -1.9550    3.0820 C   0  0  0  0  0  0  0  0  0  0  0  0
   -0.7260   -3.4320    2.8760 C   0  0  0  0  0  0  0  0  0  0  0  0
    0.8030   -0.5940   -2.1670 N   0  0  0  0  0  0  0  0  0  0  0  0
    1.4220   -0.2020   -3.2600 C   0  0  0  0  0  0  0  0  0  0  0  0
    2.7920    0.2010   -3.2480 C   0  0  0  0  0  0  0  0  0  0  0  0
    3.4810    0.1760   -2.0340 C   0  0  0  0  0  0  0  0  0  0  0  0
    4.8030    0.5480   -1.9220 C   0  0  0  0  0  0  0  0  0  0  0  0
    5.3960    0.5010   -0.7120 C   0  0  0  0  0  0  0  0  0  0  0  0
    4.6070    0.0450    0.4760 C   0  0  0  0  0  0  0  0  0  0  0  0
    5.3870    0.3140    1.5990 F   0  0  0  0  0  0  0  0  0  0  0  0
  1  2  2  0
  2  3  1  0
  2 32  1  0
  3  4  1  0
  3  5  2  0
  5  6  1  0
  5 30  1  0
  6  7  1  0
  7  8  2  0
  7  9  1  0
  9 10  1  0
  9 29  2  0
 10 11  1  0
 11 12  2  3
 11 28  1  0
 12 13  1  0
 13 14  2  0
 13 15  1  0
 15 16  1  0
 15 25  2  0
 16 17  1  0
 17 18  1  0
 17 24  2  0
 18 19  2  0
 18 20  1  0
 20 21  1  0
 21 22  1  0
 22 23  1  0
 24 25  1  0
 25 26  1  0
 26 27  1  0
 28 29  1  0
 29 30  1  0
 30 31  2  0
 31 32  1  0
 32 33  2  3
 33 34  1  0
 34 35  1  0
M  END
