
     RDKit          3D

 35 39  0  0  0  0  0  0  0  0999 V2000
    6.7480    1.3670    3.2480 C   0  0  0  0  0  0  0  0  0  0  0  0
    5.7000    1.0960    2.2290 C   0  0  0  0  0  0  0  0  0  0  0  0
    5.9930    1.0220    0.8800 C   0  0  0  0  0  0  0  0  0  0  0  0
    4.9770    0.7660   -0.0390 C   0  0  0  0  0  0  0  0  0  0  0  0
    3.6840    0.5860    0.3690 C   0  0  0  0  0  0  0  0  0  0  0  0
    2.5950    0.3140   -0.5850 C   0  0  0  0  0  0  0  0  0  0  0  0
    2.8980    0.2520   -1.8080 O   0  0  0  0  0  0  0  0  0  0  0  0
    1.2800    0.1360   -0.1190 N   0  0  0  0  0  0  0  0  0  0  0  0
    0.1820   -0.1330   -1.0320 C   0  0  2  0  0  0  0  0  0  0  0  0
   -0.7320    0.9570   -1.0210 N   0  0  0  0  0  0  0  0  0  0  0  0
   -2.0940    0.8240   -0.8050 N   0  0  0  0  0  0  0  0  0  0  0  0
   -3.0710    1.7680   -0.7660 C   0  0  0  0  0  0  0  0  0  0  0  0
   -2.9010    3.1930   -0.9500 C   0  0  0  0  0  0  0  0  0  0  0  0
   -3.9320    4.0180   -0.8900 C   0  0  0  0  0  0  0  0  0  0  0  0
   -3.7710    5.4480   -1.0730 C   0  0  0  0  0  0  0  0  0  0  0  0
   -4.7920    6.2690   -1.0130 C   0  0  0  0  0  0  0  0  0  0  0  0
   -4.6950    7.7280   -1.1900 C   0  0  2  0  0  0  0  0  0  0  0  0
   -4.2270    8.3390   -0.0340 F   0  0  0  0  0  0  0  0  0  0  0  0
   -5.9160    8.2570   -1.5440 F   0  0  0  0  0  0  0  0  0  0  0  0
   -3.8320    7.9920   -2.2480 F   0  0  0  0  0  0  0  0  0  0  0  0
   -4.2180    1.1070   -0.5230 N   0  0  0  0  0  0  0  0  0  0  0  0
   -3.9580   -0.2050   -0.4150 N   0  0  0  0  0  0  0  0  0  0  0  0
   -2.6400   -0.3810   -0.5910 C   0  0  0  0  0  0  0  0  0  0  0  0
   -1.7730   -1.5620   -0.5870 C   0  0  0  0  0  0  0  0  0  0  0  0
   -2.3100   -2.8290   -0.3680 C   0  0  0  0  0  0  0  0  0  0  0  0
   -1.4890   -3.9360   -0.3670 C   0  0  0  0  0  0  0  0  0  0  0  0
   -0.1260   -3.8150   -0.5810 C   0  0  0  0  0  0  0  0  0  0  0  0
    0.4020   -2.5870   -0.7950 C   0  0  0  0  0  0  0  0  0  0  0  0
   -0.4310   -1.4380   -0.7990 C   0  0  0  0  0  0  0  0  0  0  0  0
    0.6760   -5.0740   -0.5610 C   0  0  0  0  0  0  0  0  0  0  0  0
    0.2860   -5.8300    0.6780 C   0  0  0  0  0  0  0  0  0  0  0  0
   -1.1800   -6.0220    0.8440 C   0  0  0  0  0  0  0  0  0  0  0  0
   -2.0270   -5.2840   -0.1380 C   0  0  0  0  0  0  0  0  0  0  0  0
    3.4210    0.6630    1.6880 N   0  0  0  0  0  0  0  0  0  0  0  0
    4.3880    0.9100    2.6040 C   0  0  0  0  0  0  0  0  0  0  0  0
  1  2  1  0
  2  3  2  0
  2 35  1  0
  3  4  1  0
  4  5  2  0
  5  6  1  0
  5 34  1  0
  6  7  2  0
  6  8  1  0
  9  8  1  1
  9 10  1  0
  9 29  1  0
 10 11  1  0
 11 12  1  0
 11 23  1  0
 12 13  1  0
 12 21  2  0
 13 14  2  3
 14 15  1  0
 15 16  2  3
 16 17  1  0
 17 18  1  1
 17 19  1  0
 17 20  1  0
 21 22  1  0
 22 23  2  0
 23 24  1  0
 24 25  2  0
 24 29  1  0
 25 26  1  0
 26 27  2  0
 26 33  1  0
 27 28  1  0
 27 30  1  0
 28 29  2  0
 30 31  1  0
 31 32  1  0
 32 33  1  0
 34 35  2  0
M  END
