
     RDKit          3D

 35 38  0  0  0  0  0  0  0  0999 V2000
   -1.8140    1.8850   -1.4060 C   0  0  0  0  0  0  0  0  0  0  0  0
   -1.3080    0.5780   -2.0340 C   0  0  0  0  0  0  0  0  0  0  0  0
   -1.6170   -0.5170   -0.9600 C   0  0  0  0  0  0  0  0  0  0  0  0
   -0.5900   -0.7390   -0.0040 C   0  0  0  0  0  0  0  0  0  0  0  0
    0.7760   -0.5030   -0.3160 C   0  0  0  0  0  0  0  0  0  0  0  0
    1.6470    0.4210    0.1540 N   0  0  0  0  0  0  0  0  0  0  0  0
    2.7130    0.4410    1.0450 C   0  0  0  0  0  0  0  0  0  0  0  0
    3.0660   -0.6110    1.6680 O   0  0  0  0  0  0  0  0  0  0  0  0
    3.4820    1.6540    1.2960 O   0  0  0  0  0  0  0  0  0  0  0  0
    4.6710    1.4150    2.0220 C   0  0  0  0  0  0  0  0  0  0  0  0
    5.8080    1.2310    1.0880 C   0  0  0  0  0  0  0  0  0  0  0  0
    6.6080    2.6800    0.3750 S   0  0  0  0  0  0  0  0  0  0  0  0
    8.1120    1.9210   -0.1540 C   0  0  0  0  0  0  0  0  0  0  0  0
    7.9220    0.6070    0.2340 C   0  0  0  0  0  0  0  0  0  0  0  0
    6.7540    0.2540    0.8680 C   0  0  0  0  0  0  0  0  0  0  0  0
    6.2940   -1.1770    0.9950 C   0  0  2  0  0  0  0  0  0  0  0  0
    6.7010   -1.7960    2.1130 F   0  0  0  0  0  0  0  0  0  0  0  0
    6.8380   -2.1330   -0.4360 Cl  0  0  0  0  0  0  0  0  0  0  0  0
    9.0090   -0.1360   -0.1150 C   0  0  0  0  0  0  0  0  0  0  0  0
   10.0040    0.7640   -0.7820 C   0  0  0  0  0  0  0  0  0  0  0  0
    9.3430    2.0770   -0.6880 C   0  0  0  0  0  0  0  0  0  0  0  0
   -1.5560   -1.5740    1.2530 S   0  0  0  0  0  0  0  0  0  0  0  0
   -3.0920   -1.5770    0.4730 C   0  0  0  0  0  0  0  0  0  0  0  0
   -4.6710   -2.1130    0.9810 S   0  0  2  0  0  0  0  0  0  0  0  0
   -4.5360   -2.4240    2.4520 O   0  0  0  0  0  0  0  0  0  0  0  0
   -5.0860   -3.3830    0.2840 O   0  0  0  0  0  0  0  0  0  0  0  0
   -5.8280   -0.8600    0.8570 N   0  0  0  0  0  0  0  0  0  0  0  0
   -5.6450    0.5690    0.7530 C   0  0  0  0  0  0  0  0  0  0  0  0
   -4.7640    1.1910    1.3360 O   0  0  0  0  0  0  0  0  0  0  0  0
   -6.7500    0.9740   -0.1860 C   0  0  0  0  0  0  0  0  0  0  0  0
   -7.9030    0.2750    0.5680 C   0  0  0  0  0  0  0  0  0  0  0  0
   -7.2640   -1.0900    0.8010 C   0  0  1  0  0  0  0  0  0  0  0  0
   -7.5800   -1.9710   -0.3920 C   0  0  0  0  0  0  0  0  0  0  0  0
   -2.8350   -0.9230   -0.7360 C   0  0  0  0  0  0  0  0  0  0  0  0
   -3.9910   -0.6190   -1.7220 C   0  0  0  0  0  0  0  0  0  0  0  0
  1  2  1  0
  2  3  1  0
  3  4  2  0
  3 34  1  0
  4  5  1  0
  4 22  1  0
  5  6  1  0
  6  7  1  0
  7  8  2  0
  7  9  1  0
  9 10  1  0
 10 11  1  0
 11 12  1  0
 11 15  2  0
 12 13  1  0
 13 14  1  0
 13 21  2  0
 14 15  1  0
 14 19  2  0
 15 16  1  0
 16 17  1  1
 16 18  1  0
 19 20  1  0
 20 21  1  0
 22 23  1  0
 23 24  1  0
 23 34  2  0
 24 25  2  0
 24 26  2  0
 24 27  1  1
 27 28  1  0
 27 32  1  0
 28 29  2  0
 28 30  1  0
 30 31  1  0
 31 32  1  0
 32 33  1  6
 34 35  1  0
M  END
