
     RDKit          3D

 35 39  0  0  0  0  0  0  0  0999 V2000
   -5.8020   -0.7100    2.7090 C   0  0  0  0  0  0  0  0  0  0  0  0
   -6.0290   -0.1580    1.3560 C   0  0  0  0  0  0  0  0  0  0  0  0
   -5.0990   -0.0320    0.3730 C   0  0  0  0  0  0  0  0  0  0  0  0
   -3.6760   -0.3910    0.4150 C   0  0  0  0  0  0  0  0  0  0  0  0
   -3.1670   -0.8670    1.4510 O   0  0  0  0  0  0  0  0  0  0  0  0
   -2.8490   -0.2050   -0.7260 N   0  0  0  0  0  0  0  0  0  0  0  0
   -1.4610   -0.5650   -0.6350 C   0  0  2  0  0  0  0  0  0  0  0  0
   -0.5610    0.6010   -0.9860 C   0  0  0  0  0  0  0  0  0  0  0  0
    0.6360   -0.0720   -1.5350 C   0  0  0  0  0  0  0  0  0  0  0  0
    1.9440    0.3410   -1.7490 C   0  0  0  0  0  0  0  0  0  0  0  0
    2.8510   -0.5570   -2.2730 C   0  0  0  0  0  0  0  0  0  0  0  0
    4.1540   -0.1600   -2.4960 O   0  0  0  0  0  0  0  0  0  0  0  0
    5.0670   -0.1740   -1.4800 C   0  0  0  0  0  0  0  0  0  0  0  0
    5.7580   -1.3150   -1.1720 C   0  0  0  0  0  0  0  0  0  0  0  0
    6.6900   -1.3120   -0.1350 C   0  0  0  0  0  0  0  0  0  0  0  0
    6.8900   -0.1410    0.5590 C   0  0  0  0  0  0  0  0  0  0  0  0
    7.8260   -0.0160    1.6330 N   0  0  0  0  0  0  0  0  0  0  0  0
    7.3580   -0.1460    2.9770 C   0  0  0  0  0  0  0  0  0  0  0  0
    9.2080    0.2380    1.3260 C   0  0  0  0  0  0  0  0  0  0  0  0
    9.4250    0.2740   -0.1920 C   0  0  0  0  0  0  0  0  0  0  0  0
   10.7500    0.5180   -0.4490 F   0  0  0  0  0  0  0  0  0  0  0  0
    6.1980    0.9820    0.2440 N   0  0  0  0  0  0  0  0  0  0  0  0
    5.3010    0.9750   -0.7560 C   0  0  0  0  0  0  0  0  0  0  0  0
    2.4910   -1.8520   -2.5890 C   0  0  0  0  0  0  0  0  0  0  0  0
    1.1950   -2.2670   -2.3800 C   0  0  0  0  0  0  0  0  0  0  0  0
    0.2770   -1.3650   -1.8520 C   0  0  0  0  0  0  0  0  0  0  0  0
   -1.0850   -1.5750   -1.5620 O   0  0  0  0  0  0  0  0  0  0  0  0
   -5.7360    0.5140   -0.6860 N   0  0  0  0  0  0  0  0  0  0  0  0
   -7.0300    0.7430   -0.4280 C   0  0  0  0  0  0  0  0  0  0  0  0
   -7.2390    0.3190    0.8770 C   0  0  0  0  0  0  0  0  0  0  0  0
   -8.5750    0.4390    1.4530 C   0  0  0  0  0  0  0  0  0  0  0  0
   -8.7860    0.0090    2.6160 O   0  0  0  0  0  0  0  0  0  0  0  0
   -9.6500    1.0670    0.6490 C   0  0  0  0  0  0  0  0  0  0  0  0
   -8.9910    2.1180   -0.2420 C   0  0  0  0  0  0  0  0  0  0  0  0
   -8.1450    1.3320   -1.2470 C   0  0  0  0  0  0  0  0  0  0  0  0
  1  2  1  0
  2  3  2  0
  2 30  1  0
  3  4  1  0
  3 28  1  0
  4  5  2  0
  4  6  1  0
  7  6  1  6
  7  8  1  0
  7 27  1  0
  8  9  1  0
  9 10  2  0
  9 26  1  0
 10 11  1  0
 11 12  1  0
 11 24  2  0
 12 13  1  0
 13 14  2  0
 13 23  1  0
 14 15  1  0
 15 16  2  0
 16 17  1  0
 16 22  1  0
 17 18  1  0
 17 19  1  0
 19 20  1  0
 20 21  1  0
 22 23  2  0
 24 25  1  0
 25 26  2  0
 26 27  1  0
 28 29  1  0
 29 30  2  0
 29 35  1  0
 30 31  1  0
 31 32  2  0
 31 33  1  0
 33 34  1  0
 34 35  1  0
M  END
