
     RDKit          3D

 34 37  0  0  0  0  0  0  0  0999 V2000
   -6.5330    3.5210   -2.0580 C   0  0  0  0  0  0  0  0  0  0  0  0
   -6.4800    2.2150   -2.4910 O   0  0  0  0  0  0  0  0  0  0  0  0
   -5.2570    1.9720   -3.0840 C   0  0  2  0  0  0  0  0  0  0  0  0
   -5.4090    1.5780   -4.5400 C   0  0  0  0  0  0  0  0  0  0  0  0
   -4.5490    0.8440   -2.4080 C   0  0  0  0  0  0  0  0  0  0  0  0
   -3.1990    0.8490   -2.0350 C   0  0  0  0  0  0  0  0  0  0  0  0
   -2.9420   -0.3570   -1.4480 C   0  0  0  0  0  0  0  0  0  0  0  0
   -1.6200   -0.7880   -0.8930 C   0  0  0  0  0  0  0  0  0  0  0  0
   -1.6160   -1.2960    0.3020 O   0  0  0  0  0  0  0  0  0  0  0  0
   -1.6790   -1.8770    1.4490 C   0  0  0  0  0  0  0  0  0  0  0  0
   -2.4410   -3.0500    1.6590 C   0  0  0  0  0  0  0  0  0  0  0  0
   -2.4780   -3.6380    2.9000 C   0  0  0  0  0  0  0  0  0  0  0  0
   -1.7840   -3.1110    3.9620 C   0  0  0  0  0  0  0  0  0  0  0  0
   -1.0420   -1.9670    3.7540 C   0  0  0  0  0  0  0  0  0  0  0  0
   -0.9690   -1.3400    2.5390 C   0  0  0  0  0  0  0  0  0  0  0  0
   -0.2540   -0.1490    2.3230 N   0  0  0  0  0  0  0  0  0  0  0  0
    0.7080    0.4730    3.1590 C   0  0  0  0  0  0  0  0  0  0  0  0
    1.8880   -0.3280    3.5120 C   0  0  2  0  0  0  0  0  0  0  0  0
    2.7510    0.4560    4.3730 O   0  0  0  0  0  0  0  0  0  0  0  0
    2.7190   -0.8910    2.4430 C   0  0  0  0  0  0  0  0  0  0  0  0
    2.4950   -0.6200    1.1830 C   0  0  0  0  0  0  0  0  0  0  0  0
    3.1660   -1.0530   -0.0140 N   0  0  0  0  0  0  0  0  0  0  0  0
    2.8330   -0.4070   -1.2670 C   0  0  0  0  0  0  0  0  0  0  0  0
    3.3560    1.0300   -1.1520 C   0  0  2  0  0  0  0  0  0  0  0  0
    3.1000    1.8080   -2.4050 C   0  0  0  0  0  0  0  0  0  0  0  0
    4.3390    2.6290   -2.5720 C   0  0  0  0  0  0  0  0  0  0  0  0
    5.2620    2.1400   -1.5020 C   0  0  0  0  0  0  0  0  0  0  0  0
    4.7110    1.0150   -0.9430 O   0  0  0  0  0  0  0  0  0  0  0  0
    4.1460   -2.0820   -0.0610 C   0  0  0  0  0  0  0  0  0  0  0  0
    4.8090   -2.7190    0.8990 C   0  0  0  0  0  0  0  0  0  0  0  0
    4.6980   -2.5150    2.3510 C   0  0  0  0  0  0  0  0  0  0  0  0
    3.8150   -1.7470    2.9560 C   0  0  0  0  0  0  0  0  0  0  0  0
   -4.0650   -1.0800   -1.4510 N   0  0  0  0  0  0  0  0  0  0  0  0
   -5.0270   -0.3510   -2.0300 N   0  0  0  0  0  0  0  0  0  0  0  0
  1  2  1  0
  2  3  1  0
  3  4  1  6
  3  5  1  0
  5  6  1  0
  5 34  2  0
  6  7  2  0
  7  8  1  0
  7 33  1  0
  8  9  1  0
  9 10  1  0
 10 11  2  0
 10 15  1  0
 11 12  1  0
 12 13  2  0
 13 14  1  0
 14 15  2  0
 15 16  1  0
 16 17  1  0
 17 18  1  0
 18 19  1  1
 18 20  1  0
 20 21  2  0
 20 32  1  0
 21 22  1  0
 22 23  1  0
 22 29  1  0
 24 23  1  6
 24 25  1  0
 24 28  1  0
 25 26  1  0
 26 27  1  0
 27 28  1  0
 29 30  2  0
 30 31  1  0
 31 32  2  0
 33 34  1  0
M  END
