
     RDKit          3D

 34 39  0  0  0  0  0  0  0  0999 V2000
   -2.0790   -3.0200    0.2340 C   0  0  0  0  0  0  0  0  0  0  0  0
   -3.1240   -2.1000   -0.0130 O   0  0  0  0  0  0  0  0  0  0  0  0
   -2.7960   -0.7660   -0.1790 C   0  0  0  0  0  0  0  0  0  0  0  0
   -1.4560   -0.3290   -0.1030 C   0  0  0  0  0  0  0  0  0  0  0  0
   -1.1500    0.9930   -0.2690 C   0  0  0  0  0  0  0  0  0  0  0  0
   -2.1630    1.8950   -0.5100 C   0  0  0  0  0  0  0  0  0  0  0  0
   -3.4830    1.4590   -0.5840 C   0  0  0  0  0  0  0  0  0  0  0  0
   -3.8050    0.1310   -0.4190 C   0  0  0  0  0  0  0  0  0  0  0  0
   -5.1690   -0.3560   -0.4890 C   0  0  0  0  0  0  0  0  0  0  0  0
   -5.8410   -0.7960   -1.6060 C   0  0  0  0  0  0  0  0  0  0  0  0
   -5.2270   -0.8370   -2.9650 C   0  0  0  0  0  0  0  0  0  0  0  0
   -7.0830   -1.1570   -1.2280 N   0  0  0  0  0  0  0  0  0  0  0  0
   -7.1880   -0.9550    0.0510 O   0  0  0  0  0  0  0  0  0  0  0  0
   -6.0720   -0.4760    0.5460 C   0  0  0  0  0  0  0  0  0  0  0  0
   -5.8210   -0.1260    1.9620 C   0  0  0  0  0  0  0  0  0  0  0  0
   -1.6330    3.1230   -0.6380 N   0  0  0  0  0  0  0  0  0  0  0  0
   -0.2960    3.0510   -0.4870 C   0  0  0  0  0  0  0  0  0  0  0  0
    0.6910    3.9530   -0.5190 N   0  0  0  0  0  0  0  0  0  0  0  0
    1.9790    3.6220   -0.3340 C   0  0  0  0  0  0  0  0  0  0  0  0
    3.0480    4.6660   -0.3780 C   0  0  0  0  0  0  0  0  0  0  0  0
    2.2720    2.3330   -0.1100 N   0  0  0  0  0  0  0  0  0  0  0  0
    1.3270    1.3450   -0.0610 C   0  0  0  0  0  0  0  0  0  0  0  0
    1.7680    0.0350    0.1810 N   0  0  0  0  0  0  0  0  0  0  0  0
    3.1730   -0.2320    0.3680 C   0  0  0  0  0  0  0  0  0  0  0  0
    4.1220    0.6890    0.3300 N   0  0  0  0  0  0  0  0  0  0  0  0
    5.3080    0.1790    0.5310 N   0  0  0  0  0  0  0  0  0  0  0  0
    6.5770    0.8530    0.5630 C   0  0  0  0  0  0  0  0  0  0  0  0
    5.1350   -1.1450    0.7110 C   0  0  0  0  0  0  0  0  0  0  0  0
    6.0340   -2.1620    0.9580 C   0  0  0  0  0  0  0  0  0  0  0  0
    5.5760   -3.4570    1.1030 C   0  0  0  0  0  0  0  0  0  0  0  0
    4.2260   -3.7190    1.0010 C   0  0  0  0  0  0  0  0  0  0  0  0
    3.3100   -2.7100    0.7540 C   0  0  0  0  0  0  0  0  0  0  0  0
    3.7680   -1.4250    0.6090 C   0  0  0  0  0  0  0  0  0  0  0  0
    0.0320    1.7080   -0.2520 C   0  0  0  0  0  0  0  0  0  0  0  0
  1  2  1  0
  2  3  1  0
  3  4  2  0
  3  8  1  0
  4  5  1  0
  5  6  2  0
  5 34  1  0
  6  7  1  0
  6 16  1  0
  7  8  2  0
  8  9  1  0
  9 10  1  0
  9 14  2  0
 10 11  1  0
 10 12  2  0
 12 13  1  0
 13 14  1  0
 14 15  1  0
 16 17  1  0
 17 18  2  0
 17 34  1  0
 18 19  1  0
 19 20  1  0
 19 21  2  0
 21 22  1  0
 22 23  1  0
 22 34  2  0
 23 24  1  0
 24 25  2  0
 24 33  1  0
 25 26  1  0
 26 27  1  0
 26 28  1  0
 28 29  2  0
 28 33  1  0
 29 30  1  0
 30 31  2  0
 31 32  1  0
 32 33  2  0
M  END
