
     RDKit          3D

 35 39  0  0  0  0  0  0  0  0999 V2000
    6.6880   -1.4490    0.2100 C   0  0  0  0  0  0  0  0  0  0  0  0
    6.3460   -0.2550   -0.6890 C   0  0  2  0  0  0  0  0  0  0  0  0
    7.3140    0.8360   -0.3520 C   0  0  0  0  0  0  0  0  0  0  0  0
    4.9450    0.1100   -0.3580 C   0  0  0  0  0  0  0  0  0  0  0  0
    4.5810    0.5300    0.8900 C   0  0  0  0  0  0  0  0  0  0  0  0
    3.2500    0.8450    1.0920 C   0  0  0  0  0  0  0  0  0  0  0  0
    2.3360    0.7500    0.1160 N   0  0  0  0  0  0  0  0  0  0  0  0
    2.7010    0.3350   -1.1130 C   0  0  0  0  0  0  0  0  0  0  0  0
    1.4810    0.2040   -2.4330 S   0  0  0  0  0  0  0  0  0  0  0  0
   -0.1190    0.7060   -1.7660 C   0  0  0  0  0  0  0  0  0  0  0  0
   -0.6120   -0.2460   -0.7220 C   0  0  0  0  0  0  0  0  0  0  0  0
    0.1010   -1.2410   -0.5070 O   0  0  0  0  0  0  0  0  0  0  0  0
   -1.8020   -0.0470   -0.0170 N   0  0  0  0  0  0  0  0  0  0  0  0
   -2.5630    1.1410   -0.3410 C   0  0  0  0  0  0  0  0  0  0  0  0
   -3.2400    1.2910   -1.5270 C   0  0  0  0  0  0  0  0  0  0  0  0
   -3.9440    2.4500   -1.7750 C   0  0  0  0  0  0  0  0  0  0  0  0
   -3.9960    3.4790   -0.8620 C   0  0  0  0  0  0  0  0  0  0  0  0
   -3.3100    3.3120    0.3270 C   0  0  0  0  0  0  0  0  0  0  0  0
   -2.6070    2.1610    0.5780 C   0  0  0  0  0  0  0  0  0  0  0  0
   -3.5030    4.4860    1.1030 N   0  0  0  0  0  0  0  0  0  0  0  0
   -4.5010    5.3040    0.4410 C   0  0  0  0  0  0  0  0  0  0  0  0
   -4.6190    4.7350   -0.8510 O   0  0  0  0  0  0  0  0  0  0  0  0
   -2.2880   -0.9490    1.0010 C   0  0  2  0  0  0  0  0  0  0  0  0
   -1.4380   -1.0130    2.2340 C   0  0  0  0  0  0  0  0  0  0  0  0
   -0.3140   -1.9620    2.1370 C   0  0  0  0  0  0  0  0  0  0  0  0
    0.8430   -1.6630    2.4610 O   0  0  0  0  0  0  0  0  0  0  0  0
   -0.6660   -3.2680    1.6380 N   0  0  0  0  0  0  0  0  0  0  0  0
   -1.8280   -3.3800    0.8090 C   0  0  0  0  0  0  0  0  0  0  0  0
   -2.2060   -4.6200    0.2900 C   0  0  0  0  0  0  0  0  0  0  0  0
   -3.3050   -4.7950   -0.5210 C   0  0  0  0  0  0  0  0  0  0  0  0
   -4.0800   -3.7040   -0.8450 C   0  0  0  0  0  0  0  0  0  0  0  0
   -5.5040   -3.8710   -1.8840 Cl  0  0  0  0  0  0  0  0  0  0  0  0
   -3.7160   -2.4800   -0.3390 C   0  0  0  0  0  0  0  0  0  0  0  0
   -2.5930   -2.2990    0.4900 C   0  0  0  0  0  0  0  0  0  0  0  0
    3.9950    0.0290   -1.3080 N   0  0  0  0  0  0  0  0  0  0  0  0
  2  1  1  1
  2  3  1  0
  2  4  1  0
  4  5  2  0
  4 35  1  0
  5  6  1  0
  6  7  2  0
  7  8  1  0
  8  9  1  0
  8 35  2  0
  9 10  1  0
 10 11  1  0
 11 12  2  0
 11 13  1  0
 13 14  1  0
 23 13  1  6
 14 15  2  0
 14 19  1  0
 15 16  1  0
 16 17  2  0
 17 18  1  0
 17 22  1  0
 18 19  2  0
 18 20  1  0
 20 21  1  0
 21 22  1  0
 23 24  1  0
 23 34  1  0
 24 25  1  0
 25 26  2  0
 25 27  1  0
 27 28  1  0
 28 29  2  0
 28 34  1  0
 29 30  1  0
 30 31  2  0
 31 32  1  0
 31 33  1  0
 33 34  2  0
M  END
