
     RDKit          3D

 35 39  0  0  0  0  0  0  0  0999 V2000
   -4.6000    0.6010   -3.0130 C   0  0  0  0  0  0  0  0  0  0  0  0
   -4.0910   -0.8100   -2.8130 C   0  0  0  0  0  0  0  0  0  0  0  0
   -3.5770   -0.9780   -1.4340 C   0  0  0  0  0  0  0  0  0  0  0  0
   -2.2980   -0.7770   -0.9350 C   0  0  0  0  0  0  0  0  0  0  0  0
   -2.2950   -1.0560    0.4090 C   0  0  0  0  0  0  0  0  0  0  0  0
   -1.1050   -0.9650    1.3290 C   0  0  1  0  0  0  0  0  0  0  0  0
   -0.6390   -2.2780    1.5690 C   0  0  0  0  0  0  0  0  0  0  0  0
   -0.3480   -2.6810    2.8840 C   0  0  0  0  0  0  0  0  0  0  0  0
    0.1190   -3.9140    3.2100 C   0  0  0  0  0  0  0  0  0  0  0  0
    0.3320   -4.8500    2.2230 C   0  0  0  0  0  0  0  0  0  0  0  0
    0.8020   -6.0940    2.5410 F   0  0  0  0  0  0  0  0  0  0  0  0
    0.0580   -4.4940    0.9210 C   0  0  0  0  0  0  0  0  0  0  0  0
   -0.4160   -3.2330    0.6280 C   0  0  0  0  0  0  0  0  0  0  0  0
   -0.6760   -2.9600   -0.6970 O   0  0  0  0  0  0  0  0  0  0  0  0
   -0.3510    0.2160    1.0430 C   0  0  0  0  0  0  0  0  0  0  0  0
    0.9950    0.3820    1.0500 C   0  0  0  0  0  0  0  0  0  0  0  0
    2.0380   -0.6700    1.0820 C   0  0  0  0  0  0  0  0  0  0  0  0
    2.7190   -0.8710   -0.2660 C   0  0  1  0  0  0  0  0  0  0  0  0
    1.8460   -1.2050   -1.4070 C   0  0  0  0  0  0  0  0  0  0  0  0
    3.6400    0.1640   -0.6100 N   0  0  0  0  0  0  0  0  0  0  0  0
    4.8520    0.2690    0.1150 C   0  0  2  0  0  0  0  0  0  0  0  0
    5.9040   -0.8650   -0.0670 C   0  0  0  0  0  0  0  0  0  0  0  0
    5.2680   -0.5250    1.2690 C   0  0  0  0  0  0  0  0  0  0  0  0
    1.4600    1.6630    0.8670 N   0  0  0  0  0  0  0  0  0  0  0  0
    0.6840    2.7240    0.6830 C   0  0  0  0  0  0  0  0  0  0  0  0
    1.2150    3.8520    0.5240 O   0  0  0  0  0  0  0  0  0  0  0  0
   -0.6450    2.5870    0.6670 N   0  0  0  0  0  0  0  0  0  0  0  0
   -1.5270    3.7520    0.4450 C   0  0  0  0  0  0  0  0  0  0  0  0
   -1.8180    3.9110   -1.0210 C   0  0  1  0  0  0  0  0  0  0  0  0
   -2.7140    5.0930   -1.3230 C   0  0  0  0  0  0  0  0  0  0  0  0
   -1.2780    5.0980   -1.7340 C   0  0  0  0  0  0  0  0  0  0  0  0
   -1.1510    1.3670    0.8430 C   0  0  0  0  0  0  0  0  0  0  0  0
   -2.4130    1.3000    0.8190 O   0  0  0  0  0  0  0  0  0  0  0  0
   -3.5070   -1.4050    0.7000 O   0  0  0  0  0  0  0  0  0  0  0  0
   -4.2890   -1.3750   -0.3390 N   0  0  0  0  0  0  0  0  0  0  0  0
  1  2  1  0
  2  3  1  0
  3  4  1  0
  3 35  2  0
  4  5  2  0
  6  5  1  6
  5 34  1  0
  6  7  1  0
  6 15  1  0
  7  8  2  0
  7 13  1  0
  8  9  1  0
  9 10  2  0
 10 11  1  0
 10 12  1  0
 12 13  2  0
 13 14  1  0
 15 16  2  0
 15 32  1  0
 16 17  1  0
 16 24  1  0
 17 18  1  0
 18 19  1  6
 18 20  1  0
 21 20  1  6
 21 22  1  0
 21 23  1  0
 22 23  1  0
 24 25  1  0
 25 26  2  0
 25 27  1  0
 27 28  1  0
 27 32  1  0
 29 28  1  1
 29 30  1  0
 29 31  1  0
 30 31  1  0
 32 33  2  0
 34 35  1  0
M  END
