
     RDKit          3D

 35 38  0  0  0  0  0  0  0  0999 V2000
   -6.0350    2.4810    1.5480 C   0  0  0  0  0  0  0  0  0  0  0  0
   -4.6180    3.0140    1.5660 C   0  0  0  0  0  0  0  0  0  0  0  0
   -3.5920    1.9970    1.6810 C   0  0  0  0  0  0  0  0  0  0  0  0
   -3.0400    1.1890    0.8240 C   0  0  0  0  0  0  0  0  0  0  0  0
   -2.0470    0.3040    1.2840 C   0  0  0  0  0  0  0  0  0  0  0  0
   -1.3900   -0.5960    0.4920 C   0  0  0  0  0  0  0  0  0  0  0  0
   -0.4010   -1.4540    1.0550 N   0  0  0  0  0  0  0  0  0  0  0  0
    0.9450   -1.1920    0.7810 C   0  0  0  0  0  0  0  0  0  0  0  0
    1.8490   -1.8490    1.3390 O   0  0  0  0  0  0  0  0  0  0  0  0
    1.3450   -0.1370   -0.1700 C   0  0  0  0  0  0  0  0  0  0  0  0
    2.8150   -0.0700   -0.2770 N   0  0  0  0  0  0  0  0  0  0  0  0
    3.4590    0.8420   -1.1120 C   0  0  0  0  0  0  0  0  0  0  0  0
    2.6530    1.6050   -1.7790 O   0  0  0  0  0  0  0  0  0  0  0  0
    4.8790    1.0270   -1.3150 C   0  0  0  0  0  0  0  0  0  0  0  0
    5.4020    1.7660   -2.3980 C   0  0  0  0  0  0  0  0  0  0  0  0
    6.7510    1.7920   -2.3280 C   0  0  0  0  0  0  0  0  0  0  0  0
    7.0980    1.0750   -1.2070 C   0  0  0  0  0  0  0  0  0  0  0  0
    5.9600    0.6320   -0.6250 N   0  0  0  0  0  0  0  0  0  0  0  0
    6.3660   -0.0940    0.5340 C   0  0  0  0  0  0  0  0  0  0  0  0
    5.6070   -0.6630    1.3510 O   0  0  0  0  0  0  0  0  0  0  0  0
    7.8080   -0.0860    0.6470 N   0  0  0  0  0  0  0  0  0  0  0  0
    8.2820    0.6540   -0.4540 C   0  0  0  0  0  0  0  0  0  0  0  0
    9.4900    0.8840   -0.7040 O   0  0  0  0  0  0  0  0  0  0  0  0
   -0.8110   -2.5780    1.8400 C   0  0  2  0  0  0  0  0  0  0  0  0
   -0.2400   -2.6380    3.2180 C   0  0  0  0  0  0  0  0  0  0  0  0
   -0.7710   -3.9080    1.1090 C   0  0  0  0  0  0  0  0  0  0  0  0
    0.5430   -4.3340    0.5860 C   0  0  0  0  0  0  0  0  0  0  0  0
    0.3690   -5.5950   -0.0360 F   0  0  0  0  0  0  0  0  0  0  0  0
   -1.7120   -0.6450   -0.8280 C   0  0  0  0  0  0  0  0  0  0  0  0
   -2.6690    0.1910   -1.3260 C   0  0  0  0  0  0  0  0  0  0  0  0
   -3.3310    1.1010   -0.5170 C   0  0  0  0  0  0  0  0  0  0  0  0
   -4.1790    1.7490   -1.2780 C   0  0  0  0  0  0  0  0  0  0  0  0
   -4.0860    1.2560   -2.6630 C   0  0  0  0  0  0  0  0  0  0  0  0
   -4.9180    1.7880   -3.7700 C   0  0  0  0  0  0  0  0  0  0  0  0
   -3.1740    0.3140   -2.6980 C   0  0  0  0  0  0  0  0  0  0  0  0
  1  2  1  0
  2  3  1  0
  3  4  2  3
  4  5  1  0
  4 31  1  0
  5  6  2  0
  6  7  1  0
  6 29  1  0
  7  8  1  0
  7 24  1  0
  8  9  2  0
  8 10  1  0
 10 11  1  0
 11 12  1  0
 12 13  2  0
 12 14  1  0
 14 15  2  0
 14 18  1  0
 15 16  1  0
 16 17  2  0
 17 18  1  0
 17 22  1  0
 18 19  1  0
 19 20  2  0
 19 21  1  0
 21 22  1  0
 22 23  2  0
 24 25  1  1
 24 26  1  0
 26 27  1  0
 27 28  1  0
 29 30  2  0
 30 31  1  0
 30 35  1  0
 31 32  2  0
 32 33  1  0
 33 34  1  0
 33 35  2  0
M  END
