
     RDKit          3D

 10 10  0  0  0  0  0  0  0  0999 V2000
   -0.5340   -1.6920   -0.9620 N   0  0  0  0  0  0  0  0  0  0  0  0
   -0.1660   -0.8170    0.1430 C   0  0  2  0  0  0  0  0  0  0  0  0
   -1.3770   -0.1310    0.7210 C   0  0  2  0  0  0  0  0  0  0  0  0
   -2.4120   -1.0480    0.7680 O   0  0  0  0  0  0  0  0  0  0  0  0
   -1.6950    1.0820   -0.1140 C   0  0  0  0  0  0  0  0  0  0  0  0
   -0.6170    1.9600    0.1000 O   0  0  0  0  0  0  0  0  0  0  0  0
    0.4320    1.4760   -0.6860 C   0  0  0  0  0  0  0  0  0  0  0  0
    0.9200    0.1340   -0.2450 C   0  0  1  0  0  0  0  0  0  0  0  0
    1.9490    0.2060    0.8540 C   0  0  0  0  0  0  0  0  0  0  0  0
    2.9860    1.0800    0.5440 O   0  0  0  0  0  0  0  0  0  0  0  0
  2  1  1  6
  2  3  1  0
  2  8  1  0
  3  4  1  6
  3  5  1  0
  5  6  1  0
  6  7  1  0
  7  8  1  0
  8  9  1  1
  9 10  1  0
M  CHG  1   1   1
M  END
