
     RDKit          3D

 25 27  0  0  0  0  0  0  0  0999 V2000
    6.2220   -0.2020    0.2970 C   0  0  0  0  0  0  0  0  0  0  0  0
    5.6640    1.0700    0.8500 C   0  0  0  0  0  0  0  0  0  0  0  0
    4.2330    0.8880    1.1730 N   0  0  0  0  0  0  0  0  0  0  0  0
    3.3070    0.6370    0.1360 C   0  0  0  0  0  0  0  0  0  0  0  0
    3.7430    0.6510   -1.1890 C   0  0  0  0  0  0  0  0  0  0  0  0
    2.8570    0.4240   -2.2170 C   0  0  0  0  0  0  0  0  0  0  0  0
    3.2650    0.4270   -3.6430 C   0  0  0  0  0  0  0  0  0  0  0  0
    1.5450    0.1850   -1.9120 C   0  0  0  0  0  0  0  0  0  0  0  0
    1.0990    0.1690   -0.5870 C   0  0  0  0  0  0  0  0  0  0  0  0
   -0.1710   -0.0630   -0.2810 N   0  0  0  0  0  0  0  0  0  0  0  0
   -0.7040   -0.1010    0.9720 C   0  0  0  0  0  0  0  0  0  0  0  0
   -2.1390   -0.3300    1.0570 C   0  0  0  0  0  0  0  0  0  0  0  0
   -2.9150   -0.1030   -0.1120 C   0  0  0  0  0  0  0  0  0  0  0  0
   -4.2480   -0.2990   -0.1900 C   0  0  0  0  0  0  0  0  0  0  0  0
   -4.9190   -0.0530   -1.3650 O   0  0  0  0  0  0  0  0  0  0  0  0
   -4.3190    0.4040   -2.5410 C   0  0  0  0  0  0  0  0  0  0  0  0
   -4.8960   -0.7510    0.9460 C   0  0  0  0  0  0  0  0  0  0  0  0
   -6.2690   -0.9490    0.8560 O   0  0  0  0  0  0  0  0  0  0  0  0
   -7.0800   -1.3990    1.8960 C   0  0  0  0  0  0  0  0  0  0  0  0
   -4.1770   -0.9800    2.0840 C   0  0  0  0  0  0  0  0  0  0  0  0
   -2.7800   -0.7700    2.1510 C   0  0  0  0  0  0  0  0  0  0  0  0
   -1.9410   -1.1410    3.6310 Cl  0  0  0  0  0  0  0  0  0  0  0  0
    0.1540    0.1230    2.0050 C   0  0  0  0  0  0  0  0  0  0  0  0
    1.5050    0.3730    1.7460 C   0  0  0  0  0  0  0  0  0  0  0  0
    1.9860    0.3980    0.4670 C   0  0  0  0  0  0  0  0  0  0  0  0
  1  2  1  0
  2  3  1  0
  3  4  1  0
  4  5  2  0
  4 25  1  0
  5  6  1  0
  6  7  1  0
  6  8  2  0
  8  9  1  0
  9 10  2  0
  9 25  1  0
 10 11  1  0
 11 12  1  0
 11 23  2  0
 12 13  2  0
 12 21  1  0
 13 14  1  0
 14 15  1  0
 14 17  2  0
 15 16  1  0
 17 18  1  0
 17 20  1  0
 18 19  1  0
 20 21  2  0
 21 22  1  0
 23 24  1  0
 24 25  2  0
M  END
