
     RDKit          3D

 10 10  0  0  0  0  0  0  0  0999 V2000
    2.1600    1.1420    0.0420 N   0  0  0  0  0  0  0  0  0  0  0  0
    1.7830   -0.2290    0.2200 C   0  0  0  0  0  0  0  0  0  0  0  0
    0.4970   -0.5300   -0.5120 C   0  0  1  0  0  0  0  0  0  0  0  0
    0.1320   -2.0150   -0.3040 C   0  0  0  0  0  0  0  0  0  0  0  0
   -1.1750   -2.0500   -0.7080 O   0  0  0  0  0  0  0  0  0  0  0  0
   -1.7960   -0.9010   -0.3020 C   0  0  0  0  0  0  0  0  0  0  0  0
   -0.7200    0.0960    0.1150 C   0  0  1  0  0  0  0  0  0  0  0  0
   -0.5540    0.1310    1.4830 O   0  0  0  0  0  0  0  0  0  0  0  0
   -1.0530    1.4720   -0.3960 C   0  0  0  0  0  0  0  0  0  0  0  0
   -2.2580    1.8840    0.2180 O   0  0  0  0  0  0  0  0  0  0  0  0
  1  2  1  0
  3  2  1  1
  3  4  1  0
  3  7  1  0
  4  5  1  0
  5  6  1  0
  6  7  1  0
  7  8  1  1
  7  9  1  0
  9 10  1  0
M  CHG  1   1   1
M  END
