
     RDKit          3D

 25 27  0  0  0  0  0  0  0  0999 V2000
   -6.8490   -0.2210   -0.6790 C   0  0  0  0  0  0  0  0  0  0  0  0
   -5.7760    0.6830   -0.1440 C   0  0  0  0  0  0  0  0  0  0  0  0
   -5.9930    1.9000    0.4630 C   0  0  0  0  0  0  0  0  0  0  0  0
   -4.7740    2.3880    0.7960 C   0  0  0  0  0  0  0  0  0  0  0  0
   -3.7970    1.4500    0.3820 C   0  0  0  0  0  0  0  0  0  0  0  0
   -2.3780    1.6610    0.5860 C   0  0  0  0  0  0  0  0  0  0  0  0
   -1.3720    0.9160    0.2720 C   0  0  0  0  0  0  0  0  0  0  0  0
   -1.4390   -0.3540   -0.3820 C   0  0  0  0  0  0  0  0  0  0  0  0
   -2.6150   -0.8630   -0.7230 N   0  0  0  0  0  0  0  0  0  0  0  0
   -2.8030   -2.0280   -1.3320 C   0  0  0  0  0  0  0  0  0  0  0  0
   -1.6940   -2.7710   -1.6370 C   0  0  0  0  0  0  0  0  0  0  0  0
   -0.4310   -2.2810   -1.2990 C   0  0  0  0  0  0  0  0  0  0  0  0
   -0.2550   -1.0690   -0.6670 C   0  0  0  0  0  0  0  0  0  0  0  0
    1.0230   -0.5600   -0.3180 N   0  0  0  0  0  0  0  0  0  0  0  0
    2.2620   -1.1960   -0.5610 C   0  0  0  0  0  0  0  0  0  0  0  0
    2.3250   -2.3020   -1.1240 O   0  0  0  0  0  0  0  0  0  0  0  0
    3.5520   -0.6060   -0.1720 C   0  0  0  0  0  0  0  0  0  0  0  0
    4.6950   -1.3980   -0.1510 C   0  0  0  0  0  0  0  0  0  0  0  0
    5.9170   -0.8740    0.2040 C   0  0  0  0  0  0  0  0  0  0  0  0
    6.0730    0.4470    0.5540 C   0  0  0  0  0  0  0  0  0  0  0  0
    7.3930    1.0040    0.9350 C   0  0  0  0  0  0  0  0  0  0  0  0
    4.9340    1.2190    0.5280 C   0  0  0  0  0  0  0  0  0  0  0  0
    5.0520    2.9120    0.9610 Cl  0  0  0  0  0  0  0  0  0  0  0  0
    3.6820    0.7100    0.1720 C   0  0  0  0  0  0  0  0  0  0  0  0
   -4.4980    0.5070   -0.1480 O   0  0  0  0  0  0  0  0  0  0  0  0
  1  2  1  0
  2  3  2  0
  2 25  1  0
  3  4  1  0
  4  5  2  0
  5  6  1  0
  5 25  1  0
  6  7  2  3
  7  8  1  0
  8  9  2  0
  8 13  1  0
  9 10  1  0
 10 11  2  0
 11 12  1  0
 12 13  2  0
 13 14  1  0
 14 15  1  0
 15 16  2  0
 15 17  1  0
 17 18  2  0
 17 24  1  0
 18 19  1  0
 19 20  2  0
 20 21  1  0
 20 22  1  0
 22 23  1  0
 22 24  2  0
M  END
