
     RDKit          3D

 25 27  0  0  0  0  0  0  0  0999 V2000
   -4.3270   -1.7750   -1.7270 C   0  0  0  0  0  0  0  0  0  0  0  0
   -3.3480   -0.9610   -2.4240 N   0  0  0  0  0  0  0  0  0  0  0  0
   -2.8870    0.0830   -1.8480 N   0  0  0  0  0  0  0  0  0  0  0  0
   -3.3160    0.4520   -0.5460 C   0  0  0  0  0  0  0  0  0  0  0  0
   -4.3340    1.3680   -0.4290 C   0  0  0  0  0  0  0  0  0  0  0  0
   -4.8250    1.7860    0.7920 C   0  0  0  0  0  0  0  0  0  0  0  0
   -4.2480    1.2410    1.9270 C   0  0  0  0  0  0  0  0  0  0  0  0
   -4.7510    1.6680    3.1900 N   0  0  0  0  0  0  0  0  0  0  0  0
   -3.2340    0.3280    1.8080 C   0  0  0  0  0  0  0  0  0  0  0  0
   -2.7590   -0.0740    0.5830 C   0  0  0  0  0  0  0  0  0  0  0  0
   -1.7450   -0.9900    0.5410 O   0  0  0  0  0  0  0  0  0  0  0  0
   -0.4950   -0.8350    0.0080 C   0  0  0  0  0  0  0  0  0  0  0  0
    0.3510   -1.9430    0.0330 C   0  0  0  0  0  0  0  0  0  0  0  0
    1.6360   -1.8360   -0.4980 C   0  0  0  0  0  0  0  0  0  0  0  0
    2.0940   -0.6630   -1.0480 C   0  0  0  0  0  0  0  0  0  0  0  0
    3.3440   -0.5630   -1.5640 O   0  0  0  0  0  0  0  0  0  0  0  0
    4.4850   -0.1920   -0.9070 C   0  0  0  0  0  0  0  0  0  0  0  0
    5.6950   -0.1340   -1.5630 C   0  0  0  0  0  0  0  0  0  0  0  0
    6.8670    0.2330   -0.9400 C   0  0  0  0  0  0  0  0  0  0  0  0
    6.8630    0.5670    0.4110 C   0  0  0  0  0  0  0  0  0  0  0  0
    8.3540    1.0400    1.2250 Cl  0  0  0  0  0  0  0  0  0  0  0  0
    5.6670    0.5140    1.0770 C   0  0  0  0  0  0  0  0  0  0  0  0
    4.5030    0.1430    0.4350 C   0  0  0  0  0  0  0  0  0  0  0  0
    1.2510    0.4250   -1.0680 C   0  0  0  0  0  0  0  0  0  0  0  0
   -0.0420    0.3460   -0.5420 C   0  0  0  0  0  0  0  0  0  0  0  0
  1  2  1  0
  2  3  2  3
  3  4  1  0
  4  5  2  0
  4 10  1  0
  5  6  1  0
  6  7  2  0
  7  8  1  0
  7  9  1  0
  9 10  2  0
 10 11  1  0
 11 12  1  0
 12 13  2  0
 12 25  1  0
 13 14  1  0
 14 15  2  0
 15 16  1  0
 15 24  1  0
 16 17  1  0
 17 18  2  0
 17 23  1  0
 18 19  1  0
 19 20  2  0
 20 21  1  0
 20 22  1  0
 22 23  2  0
 24 25  2  0
M  END
