
     RDKit          3D

 27 29  0  0  0  0  0  0  0  0999 V2000
   -4.1200    2.4440    0.7100 N   0  0  0  0  0  0  0  0  0  0  0  0
   -3.7590    1.1110    1.0340 C   0  0  0  0  0  0  0  0  0  0  0  0
   -3.9800    0.0420    0.0390 C   0  0  2  0  0  0  0  0  0  0  0  0
   -5.3630   -0.2280   -0.4100 C   0  0  0  0  0  0  0  0  0  0  0  0
   -6.1880    0.7910   -1.0520 C   0  0  2  0  0  0  0  0  0  0  0  0
   -5.7130    1.3460   -2.2200 F   0  0  0  0  0  0  0  0  0  0  0  0
   -6.7880    1.7040   -0.2070 F   0  0  0  0  0  0  0  0  0  0  0  0
   -7.3280    0.0630   -1.5260 F   0  0  0  0  0  0  0  0  0  0  0  0
   -3.6410   -1.2670    0.8050 C   0  0  0  0  0  0  0  0  0  0  0  0
   -2.2100   -1.3480    1.1860 C   0  0  0  0  0  0  0  0  0  0  0  0
   -1.2620   -1.4970    0.0010 C   0  0  0  0  0  0  0  0  0  0  0  0
   -0.8270   -0.2680   -0.4760 N   0  0  0  0  0  0  0  0  0  0  0  0
    0.3770    0.2640    0.0670 C   0  0  0  0  0  0  0  0  0  0  0  0
    1.5630   -0.5300   -0.3710 C   0  0  0  0  0  0  0  0  0  0  0  0
    2.7820    0.0030    0.1640 O   0  0  0  0  0  0  0  0  0  0  0  0
    3.9650   -0.6380   -0.1730 C   0  0  0  0  0  0  0  0  0  0  0  0
    3.9890   -1.7460   -0.9870 C   0  0  0  0  0  0  0  0  0  0  0  0
    5.1590   -2.3930   -1.3310 C   0  0  0  0  0  0  0  0  0  0  0  0
    6.3380   -1.8750   -0.8130 C   0  0  0  0  0  0  0  0  0  0  0  0
    6.3360   -0.7690    0.0040 C   0  0  0  0  0  0  0  0  0  0  0  0
    5.1460   -0.1420    0.3300 C   0  0  0  0  0  0  0  0  0  0  0  0
    5.2330    0.9660    1.1570 O   0  0  0  0  0  0  0  0  0  0  0  0
    6.3420    1.8520    1.1190 C   0  0  0  0  0  0  0  0  0  0  0  0
    7.6070    1.1840    0.6840 C   0  0  0  0  0  0  0  0  0  0  0  0
    7.4910   -0.2160    0.5450 O   0  0  0  0  0  0  0  0  0  0  0  0
   -1.7410    0.6960   -0.9530 C   0  0  0  0  0  0  0  0  0  0  0  0
   -3.0880    0.1060   -1.1800 C   0  0  0  0  0  0  0  0  0  0  0  0
  1  2  1  0
  3  2  1  1
  3  4  1  0
  3  9  1  0
  3 27  1  0
  4  5  1  0
  5  6  1  6
  5  7  1  0
  5  8  1  0
  9 10  1  0
 10 11  1  0
 11 12  1  0
 12 13  1  0
 12 26  1  0
 13 14  1  0
 14 15  1  0
 15 16  1  0
 16 17  2  0
 16 21  1  0
 17 18  1  0
 18 19  2  0
 19 20  1  0
 20 21  2  0
 20 25  1  0
 21 22  1  0
 22 23  1  0
 23 24  1  0
 24 25  1  0
 26 27  1  0
M  CHG  1   1   1
M  END
