
     RDKit          3D

  6  5  0  0  0  0  0  0  0  0999 V2000
   -0.2170    2.0380    0.4130 C   0  0  0  0  0  0  0  0  0  0  0  0
    0.1350    0.8130    0.0900 C   0  0  0  0  0  0  0  0  0  0  0  0
    1.3560    0.2440    0.6030 C   0  0  0  0  0  0  0  0  0  0  0  0
    1.7440   -0.9500    0.3110 N   0  0  0  0  0  0  0  0  0  0  0  0
   -0.7530    0.0280   -0.8170 C   0  0  0  0  0  0  0  0  0  0  0  0
   -1.2500   -1.1730   -0.2190 N   0  0  0  0  0  0  0  0  0  0  0  0
  1  2  2  0
  2  3  1  0
  2  5  1  0
  3  4  2  0
  5  6  1  0
M  CHG  2   4   1   6   1
M  END
