
     RDKit          3D

 27 29  0  0  0  0  0  0  0  0999 V2000
   -0.7870    2.9310   -1.5600 C   0  0  0  0  0  0  0  0  0  0  0  0
   -0.8120    1.7860   -0.7280 O   0  0  0  0  0  0  0  0  0  0  0  0
   -1.9900    1.0670   -0.6650 C   0  0  0  0  0  0  0  0  0  0  0  0
   -3.1420    1.3590   -1.3360 C   0  0  0  0  0  0  0  0  0  0  0  0
   -4.2870    0.6070   -1.2370 C   0  0  0  0  0  0  0  0  0  0  0  0
   -4.2940   -0.4860   -0.4350 C   0  0  0  0  0  0  0  0  0  0  0  0
   -3.1330   -0.8310    0.2780 C   0  0  0  0  0  0  0  0  0  0  0  0
   -1.9930   -0.0680    0.1690 C   0  0  0  0  0  0  0  0  0  0  0  0
   -0.7700   -0.3880    0.8800 C   0  0  1  0  0  0  0  0  0  0  0  0
   -0.9590   -1.5050    1.8420 C   0  0  0  0  0  0  0  0  0  0  0  0
    0.3680   -0.6480    0.0230 N   0  0  0  0  0  0  0  0  0  0  0  0
    1.5210    0.0480    0.5420 C   0  0  0  0  0  0  0  0  0  0  0  0
    2.7060   -0.0920   -0.3580 C   0  0  0  0  0  0  0  0  0  0  0  0
    2.6720   -0.8090   -1.5380 C   0  0  0  0  0  0  0  0  0  0  0  0
    3.7600   -0.9440   -2.3760 C   0  0  0  0  0  0  0  0  0  0  0  0
    3.7010   -1.6560   -3.5330 F   0  0  0  0  0  0  0  0  0  0  0  0
    4.8970   -0.3590   -2.0370 N   0  0  0  0  0  0  0  0  0  0  0  0
    4.9940    0.3530   -0.9020 C   0  0  0  0  0  0  0  0  0  0  0  0
    6.2980    0.9840   -0.5850 C   0  0  0  0  0  0  0  0  0  0  0  0
    3.9130    0.5040   -0.0420 C   0  0  0  0  0  0  0  0  0  0  0  0
    4.0480    1.2960    1.2060 C   0  0  1  0  0  0  0  0  0  0  0  0
    3.2390    2.4220    1.2010 F   0  0  0  0  0  0  0  0  0  0  0  0
    3.8620    0.5220    2.3330 F   0  0  0  0  0  0  0  0  0  0  0  0
   -3.2710   -1.9650    1.0570 O   0  0  0  0  0  0  0  0  0  0  0  0
   -4.4460   -2.2750    1.7790 C   0  0  0  0  0  0  0  0  0  0  0  0
   -5.6930   -1.8410    1.0490 C   0  0  0  0  0  0  0  0  0  0  0  0
   -5.3840   -1.3220   -0.2510 O   0  0  0  0  0  0  0  0  0  0  0  0
  1  2  1  0
  2  3  1  0
  3  4  2  0
  3  8  1  0
  4  5  1  0
  5  6  2  0
  6  7  1  0
  6 27  1  0
  7  8  2  0
  7 24  1  0
  8  9  1  0
  9 10  1  6
  9 11  1  0
 11 12  1  0
 12 13  1  0
 13 14  2  0
 13 20  1  0
 14 15  1  0
 15 16  1  0
 15 17  2  0
 17 18  1  0
 18 19  1  0
 18 20  2  0
 20 21  1  0
 21 22  1  6
 21 23  1  0
 24 25  1  0
 25 26  1  0
 26 27  1  0
M  CHG  1  11   1
M  END
