
     RDKit          3D

  6  5  0  0  0  0  0  0  0  0999 V2000
    3.1290    0.0770   -0.4630 N   0  0  0  0  0  0  0  0  0  0  0  0
    1.9560   -0.1340   -0.8960 C   0  0  0  0  0  0  0  0  0  0  0  0
    0.8670   -0.3490    0.0500 C   0  0  0  0  0  0  0  0  0  0  0  0
   -0.3540   -0.5690   -0.3680 C   0  0  0  0  0  0  0  0  0  0  0  0
   -1.4390   -0.7840    0.6010 C   0  0  0  0  0  0  0  0  0  0  0  0
   -2.4940    0.2070    0.4720 N   0  0  0  0  0  0  0  0  0  0  0  0
  1  2  2  0
  2  3  1  0
  3  4  2  3
  4  5  1  0
  5  6  1  0
M  CHG  2   1   1   6   1
M  END
