
     RDKit          3D

 27 29  0  0  0  0  0  0  0  0999 V2000
   -0.8200    1.5630    1.4720 C   0  0  0  0  0  0  0  0  0  0  0  0
   -1.1760    0.2660    0.8670 N   0  0  1  0  0  0  0  0  0  0  0  0
   -2.5540    0.0390    0.8760 C   0  0  0  0  0  0  0  0  0  0  0  0
   -3.2450   -0.0480   -0.4070 C   0  0  0  0  0  0  0  0  0  0  0  0
   -4.7240   -0.1140   -0.4520 C   0  0  0  0  0  0  0  0  0  0  0  0
   -5.2720   -0.2120   -1.5690 O   0  0  0  0  0  0  0  0  0  0  0  0
   -5.5760   -0.0730    0.7380 C   0  0  0  0  0  0  0  0  0  0  0  0
   -6.4970   -1.2770    0.8740 C   0  0  2  0  0  0  0  0  0  0  0  0
   -7.2500   -1.1250    2.0240 F   0  0  0  0  0  0  0  0  0  0  0  0
   -5.7370   -2.4400    1.0480 F   0  0  0  0  0  0  0  0  0  0  0  0
   -7.3200   -1.4660   -0.1930 F   0  0  0  0  0  0  0  0  0  0  0  0
   -2.6090   -0.0900   -1.5530 C   0  0  0  0  0  0  0  0  0  0  0  0
   -1.1580   -0.0390   -1.5110 C   0  0  0  0  0  0  0  0  0  0  0  0
   -0.2680   -0.1660   -2.5370 C   0  0  0  0  0  0  0  0  0  0  0  0
    0.9520   -0.1480   -1.9690 N   0  0  0  0  0  0  0  0  0  0  0  0
    0.8820   -0.0140   -0.6310 C   0  0  0  0  0  0  0  0  0  0  0  0
    1.9040    0.0030    0.3780 C   0  0  0  0  0  0  0  0  0  0  0  0
    1.5740    0.0330    1.5900 O   0  0  0  0  0  0  0  0  0  0  0  0
    3.3210   -0.0140    0.1040 C   0  0  0  0  0  0  0  0  0  0  0  0
    4.1610   -0.6940    1.0050 C   0  0  0  0  0  0  0  0  0  0  0  0
    5.5220   -0.7480    0.8600 C   0  0  0  0  0  0  0  0  0  0  0  0
    6.1510   -0.1270   -0.1950 C   0  0  0  0  0  0  0  0  0  0  0  0
    7.6070   -0.1890   -0.3450 C   0  0  0  0  0  0  0  0  0  0  0  0
    8.1870    0.3760   -1.3050 O   0  0  0  0  0  0  0  0  0  0  0  0
    5.3550    0.5480   -1.0950 C   0  0  0  0  0  0  0  0  0  0  0  0
    3.9620    0.6000   -0.9400 C   0  0  0  0  0  0  0  0  0  0  0  0
   -0.4960    0.0610   -0.3230 C   0  0  0  0  0  0  0  0  0  0  0  0
  2  1  1  6
  2  3  1  0
  2 27  1  0
  3  4  1  0
  4  5  1  0
  4 12  2  0
  5  6  2  0
  5  7  1  0
  7  8  1  0
  8  9  1  1
  8 10  1  0
  8 11  1  0
 12 13  1  0
 13 14  2  0
 13 27  1  0
 14 15  1  0
 15 16  1  0
 16 17  1  0
 16 27  2  0
 17 18  2  0
 17 19  1  0
 19 20  2  0
 19 26  1  0
 20 21  1  0
 21 22  2  0
 22 23  1  0
 22 25  1  0
 23 24  2  0
 25 26  2  0
M  CHG  1   2   1
M  END
