
     RDKit          3D

 28 32  0  0  0  0  0  0  0  0999 V2000
    1.1140    0.7040   -2.4920 C   0  0  0  0  0  0  0  0  0  0  0  0
    0.0140    0.5260   -1.5970 N   0  0  0  0  0  0  0  0  0  0  0  0
   -1.0350    1.3120   -1.4330 N   0  0  0  0  0  0  0  0  0  0  0  0
   -1.8710    0.7970   -0.5080 C   0  0  0  0  0  0  0  0  0  0  0  0
   -1.3300   -0.3830   -0.0540 C   0  0  0  0  0  0  0  0  0  0  0  0
   -0.1380   -0.5320   -0.7570 C   0  0  0  0  0  0  0  0  0  0  0  0
    0.7810   -1.6510   -0.5900 C   0  0  2  0  0  0  0  0  0  0  0  0
    1.0070   -1.9950    0.8010 N   0  0  0  0  0  0  0  0  0  0  0  0
    1.9650   -1.0980    1.3420 C   0  0  0  0  0  0  0  0  0  0  0  0
    2.2240   -0.8590    2.5300 O   0  0  0  0  0  0  0  0  0  0  0  0
    2.6100   -0.4890    0.1640 C   0  0  1  0  0  0  0  0  0  0  0  0
    4.0780   -0.4920    0.2100 C   0  0  0  0  0  0  0  0  0  0  0  0
    4.9040   -0.8470   -0.8090 C   0  0  0  0  0  0  0  0  0  0  0  0
    6.1950   -0.7350   -0.4210 N   0  0  0  0  0  0  0  0  0  0  0  0
    6.2090   -0.3060    0.8520 C   0  0  0  0  0  0  0  0  0  0  0  0
    4.8790   -0.1460    1.2700 C   0  0  0  0  0  0  0  0  0  0  0  0
    4.5280    0.2760    2.4990 F   0  0  0  0  0  0  0  0  0  0  0  0
    2.1240   -1.2390   -0.9650 N   0  0  0  0  0  0  0  0  0  0  0  0
   -1.8680   -1.3250    0.9430 C   0  0  0  0  0  0  0  0  0  0  0  0
   -3.3760   -1.3420    0.9140 C   0  0  0  0  0  0  0  0  0  0  0  0
   -4.0100   -0.1890    1.6610 C   0  0  0  0  0  0  0  0  0  0  0  0
   -4.0260    1.0400    0.8210 C   0  0  0  0  0  0  0  0  0  0  0  0
   -5.1050    1.7770    1.0610 N   0  0  0  0  0  0  0  0  0  0  0  0
   -5.3340    2.9460    0.4040 C   0  0  0  0  0  0  0  0  0  0  0  0
   -4.4340    3.3930   -0.5380 C   0  0  0  0  0  0  0  0  0  0  0  0
   -4.7060    4.5600   -1.1640 F   0  0  0  0  0  0  0  0  0  0  0  0
   -3.3010    2.6580   -0.8170 C   0  0  0  0  0  0  0  0  0  0  0  0
   -3.1080    1.4620   -0.1160 C   0  0  0  0  0  0  0  0  0  0  0  0
  1  2  1  0
  2  3  1  0
  2  6  1  0
  3  4  2  0
  4  5  1  0
  4 28  1  0
  5  6  2  0
  5 19  1  0
  7  6  1  1
  7  8  1  0
  7 18  1  0
  8  9  1  0
  9 10  2  0
  9 11  1  0
 11 12  1  1
 11 18  1  0
 12 13  2  0
 12 16  1  0
 13 14  1  0
 14 15  1  0
 15 16  2  0
 16 17  1  0
 19 20  1  0
 20 21  1  0
 21 22  1  0
 22 23  2  0
 22 28  1  0
 23 24  1  0
 24 25  2  0
 25 26  1  0
 25 27  1  0
 27 28  2  0
M  END
