
     RDKit          3D

 29 32  0  0  0  0  0  0  0  0999 V2000
   -1.3970   -0.9450    2.1170 C   0  0  0  0  0  0  0  0  0  0  0  0
   -1.9110   -1.0800    0.9170 C   0  0  0  0  0  0  0  0  0  0  0  0
   -2.7230   -2.1990    0.7980 F   0  0  0  0  0  0  0  0  0  0  0  0
   -1.7350   -0.2590   -0.2350 C   0  0  0  0  0  0  0  0  0  0  0  0
   -2.3360   -0.5290   -1.3890 C   0  0  0  0  0  0  0  0  0  0  0  0
   -3.2370   -1.6100   -1.7500 C   0  0  0  0  0  0  0  0  0  0  0  0
   -2.6630   -2.3820   -2.7630 F   0  0  0  0  0  0  0  0  0  0  0  0
   -0.9080    0.9920   -0.2230 C   0  0  1  0  0  0  0  0  0  0  0  0
   -1.5380    2.0250    0.6050 C   0  0  0  0  0  0  0  0  0  0  0  0
   -2.9510    2.4830    0.5490 C   0  0  0  0  0  0  0  0  0  0  0  0
   -3.3580    3.7840    0.5900 N   0  0  0  0  0  0  0  0  0  0  0  0
   -4.6740    3.8450    0.5390 N   0  0  0  0  0  0  0  0  0  0  0  0
   -5.1480    2.5950    0.4640 C   0  0  0  0  0  0  0  0  0  0  0  0
   -4.0630    1.7560    0.4720 N   0  0  0  0  0  0  0  0  0  0  0  0
   -0.6380    2.5200    1.4170 C   0  0  0  0  0  0  0  0  0  0  0  0
   -0.9220    3.5530    2.3420 O   0  0  0  0  0  0  0  0  0  0  0  0
    0.6400    1.8570    1.2360 C   0  0  0  0  0  0  0  0  0  0  0  0
    1.6880    2.1440    1.8810 O   0  0  0  0  0  0  0  0  0  0  0  0
    0.4350    0.8720    0.2220 N   0  0  0  0  0  0  0  0  0  0  0  0
    1.4700   -0.0330   -0.2150 C   0  0  0  0  0  0  0  0  0  0  0  0
    1.2220   -0.9270   -1.2150 C   0  0  0  0  0  0  0  0  0  0  0  0
    2.1900   -1.8320   -1.6830 C   0  0  0  0  0  0  0  0  0  0  0  0
    3.4280   -1.8160   -1.1150 C   0  0  0  0  0  0  0  0  0  0  0  0
    3.7090   -0.9300   -0.1090 C   0  0  0  0  0  0  0  0  0  0  0  0
    2.7210   -0.0350    0.3410 C   0  0  0  0  0  0  0  0  0  0  0  0
    5.0510   -0.8470    0.5590 C   0  0  0  0  0  0  0  0  0  0  0  0
    5.9700   -1.8290   -0.0090 C   0  0  0  0  0  0  0  0  0  0  0  0
    5.6990   -2.6510   -0.9420 N   0  0  0  0  0  0  0  0  0  0  0  0
    4.4620   -2.7230   -1.5590 N   0  0  0  0  0  0  0  0  0  0  0  0
  1  2  2  0
  2  3  1  0
  2  4  1  0
  4  5  2  3
  8  4  1  1
  5  6  1  0
  6  7  1  0
  8  9  1  0
  8 19  1  0
  9 10  1  0
  9 15  2  0
 10 11  2  0
 10 14  1  0
 11 12  1  0
 12 13  2  0
 13 14  1  0
 15 16  1  0
 15 17  1  0
 17 18  2  0
 17 19  1  0
 19 20  1  0
 20 21  2  0
 20 25  1  0
 21 22  1  0
 22 23  2  0
 23 24  1  0
 23 29  1  0
 24 25  2  0
 24 26  1  0
 26 27  1  0
 27 28  2  0
 28 29  1  0
M  END
