
     RDKit          3D

 29 32  0  0  0  0  0  0  0  0999 V2000
    6.6280    1.0620   -1.0710 N   0  0  0  0  0  0  0  0  0  0  0  0
    5.3310    0.8410   -0.5010 C   0  0  0  0  0  0  0  0  0  0  0  0
    4.6520    1.8160   -0.0340 O   0  0  0  0  0  0  0  0  0  0  0  0
    4.7400   -0.4320   -0.4230 N   0  0  0  0  0  0  0  0  0  0  0  0
    3.4440   -0.6600    0.1450 C   0  0  0  0  0  0  0  0  0  0  0  0
    2.5590   -1.1720   -0.6290 C   0  0  0  0  0  0  0  0  0  0  0  0
    2.9420   -1.4870   -2.0620 C   0  0  2  0  0  0  0  0  0  0  0  0
    3.8900   -0.6040   -2.5220 F   0  0  0  0  0  0  0  0  0  0  0  0
    1.8340   -1.3570   -2.8760 F   0  0  0  0  0  0  0  0  0  0  0  0
    3.2000   -0.2480    1.5170 C   0  0  0  0  0  0  0  0  0  0  0  0
    4.2870   -0.1600    2.3730 N   0  0  0  0  0  0  0  0  0  0  0  0
    3.8440    0.1900    3.5710 C   0  0  0  0  0  0  0  0  0  0  0  0
    2.4990    0.3270    3.4810 C   0  0  0  0  0  0  0  0  0  0  0  0
    2.1100    0.0540    2.1830 N   0  0  0  0  0  0  0  0  0  0  0  0
    0.7700    0.3170    1.7460 C   0  0  0  0  0  0  0  0  0  0  0  0
    0.3960    0.7380    0.5780 C   0  0  0  0  0  0  0  0  0  0  0  0
   -0.9780    0.9790    0.1910 N   0  0  0  0  0  0  0  0  0  0  0  0
   -1.5820    1.4290   -1.0030 C   0  0  0  0  0  0  0  0  0  0  0  0
   -1.0050    1.7370   -2.0580 O   0  0  0  0  0  0  0  0  0  0  0  0
   -3.0310    1.4530   -0.7290 C   0  0  1  0  0  0  0  0  0  0  0  0
   -3.8020    0.4850   -1.5990 C   0  0  2  0  0  0  0  0  0  0  0  0
   -5.2600    0.6040   -1.2250 C   0  0  0  0  0  0  0  0  0  0  0  0
   -5.7120   -0.7510   -0.7570 C   0  0  0  0  0  0  0  0  0  0  0  0
   -4.6220   -1.7280   -1.0520 C   0  0  0  0  0  0  0  0  0  0  0  0
   -3.3950   -0.9370   -1.4090 C   0  0  0  0  0  0  0  0  0  0  0  0
   -3.1810    1.0060    0.6400 N   0  0  0  0  0  0  0  0  0  0  0  0
   -2.0150    0.7490    1.1250 C   0  0  0  0  0  0  0  0  0  0  0  0
   -1.5920    0.2720    2.4440 C   0  0  0  0  0  0  0  0  0  0  0  0
   -0.3270    0.0770    2.7230 C   0  0  0  0  0  0  0  0  0  0  0  0
  1  2  1  0
  2  3  2  0
  2  4  1  0
  4  5  1  0
  5  6  2  3
  5 10  1  0
  6  7  1  0
  7  8  1  6
  7  9  1  0
 10 11  2  0
 10 14  1  0
 11 12  1  0
 12 13  2  0
 13 14  1  0
 14 15  1  0
 15 16  2  0
 15 29  1  0
 16 17  1  0
 17 18  1  0
 17 27  1  0
 18 19  2  0
 18 20  1  0
 20 21  1  0
 20 26  1  1
 21 22  1  1
 21 25  1  0
 22 23  1  0
 23 24  1  0
 24 25  1  0
 26 27  2  0
 27 28  1  0
 28 29  2  0
M  END
