
     RDKit          3D

 28 32  0  0  0  0  0  0  0  0999 V2000
   -5.2130   -2.0660    1.5450 C   0  0  0  0  0  0  0  0  0  0  0  0
   -4.5780   -1.0660    0.6540 C   0  0  0  0  0  0  0  0  0  0  0  0
   -4.5150    0.2720    1.0010 C   0  0  0  0  0  0  0  0  0  0  0  0
   -3.9130    1.2110    0.1620 C   0  0  0  0  0  0  0  0  0  0  0  0
   -3.3620    0.8330   -1.0430 C   0  0  0  0  0  0  0  0  0  0  0  0
   -3.4180   -0.5040   -1.4000 C   0  0  0  0  0  0  0  0  0  0  0  0
   -4.0110   -1.3840   -0.5570 C   0  0  0  0  0  0  0  0  0  0  0  0
   -2.8380   -0.8060   -2.6340 O   0  0  0  0  0  0  0  0  0  0  0  0
   -1.7130   -0.0490   -2.9860 C   0  0  2  0  0  0  0  0  0  0  0  0
   -0.6290   -0.2110   -2.0830 C   0  0  0  0  0  0  0  0  0  0  0  0
   -0.7290   -0.9510   -1.0280 O   0  0  0  0  0  0  0  0  0  0  0  0
    0.6620    0.3650   -2.1850 N   0  0  0  0  0  0  0  0  0  0  0  0
    1.4440    0.0630   -1.0440 C   0  0  0  0  0  0  0  0  0  0  0  0
    2.5140   -0.4980   -1.2810 N   0  0  0  0  0  0  0  0  0  0  0  0
    3.5130   -0.9700   -0.4280 C   0  0  0  0  0  0  0  0  0  0  0  0
    4.3740   -2.0130   -0.8290 C   0  0  0  0  0  0  0  0  0  0  0  0
    5.1450   -2.2470    0.2690 C   0  0  0  0  0  0  0  0  0  0  0  0
    6.1160   -3.2090    0.2700 F   0  0  0  0  0  0  0  0  0  0  0  0
    4.7720   -1.4150    1.2310 N   0  0  0  0  0  0  0  0  0  0  0  0
    3.7880   -0.6390    0.8290 N   0  0  0  0  0  0  0  0  0  0  0  0
    3.1250    0.3420    1.6540 C   0  0  0  0  0  0  0  0  0  0  0  0
    3.6930    0.5620    2.9790 C   0  0  1  0  0  0  0  0  0  0  0  0
    5.0920    1.1140    2.9950 C   0  0  0  0  0  0  0  0  0  0  0  0
    3.9100    1.9270    3.4630 C   0  0  0  0  0  0  0  0  0  0  0  0
    2.0930    1.0240    1.2750 N   0  0  0  0  0  0  0  0  0  0  0  0
    1.3840    1.0350    0.1050 N   0  0  0  0  0  0  0  0  0  0  0  0
   -2.1230    1.4040   -3.1500 C   0  0  0  0  0  0  0  0  0  0  0  0
   -2.7560    1.8810   -1.8740 C   0  0  0  0  0  0  0  0  0  0  0  0
  1  2  1  0
  2  3  2  0
  2  7  1  0
  3  4  1  0
  4  5  2  0
  5  6  1  0
  5 28  1  0
  6  7  2  0
  6  8  1  0
  8  9  1  0
  9 10  1  1
  9 27  1  0
 10 11  2  0
 10 12  1  0
 12 13  1  0
 13 14  2  0
 13 26  1  0
 14 15  1  0
 15 16  2  0
 15 20  1  0
 16 17  1  0
 17 18  1  0
 17 19  2  0
 19 20  1  0
 20 21  1  0
 22 21  1  6
 21 25  2  0
 22 23  1  0
 22 24  1  0
 23 24  1  0
 25 26  1  0
 27 28  1  0
M  END
