
     RDKit          3D

 31 34  0  0  0  0  0  0  0  0999 V2000
   -5.3530    0.7120    0.9130 C   0  0  0  0  0  0  0  0  0  0  0  0
   -5.2160   -0.1990   -0.2790 C   0  0  0  0  0  0  0  0  0  0  0  0
   -4.1880   -0.3860   -1.0900 C   0  0  0  0  0  0  0  0  0  0  0  0
   -2.9250    0.2060   -1.0840 C   0  0  0  0  0  0  0  0  0  0  0  0
   -2.5420    1.2980   -0.2190 C   0  0  0  0  0  0  0  0  0  0  0  0
   -3.2490    2.3120   -0.1000 O   0  0  0  0  0  0  0  0  0  0  0  0
   -1.2900    1.2460    0.5600 C   0  0  1  0  0  0  0  0  0  0  0  0
   -1.6710    1.2980    2.0470 C   0  0  0  0  0  0  0  0  0  0  0  0
   -0.6390    0.0420    0.3420 O   0  0  0  0  0  0  0  0  0  0  0  0
    0.7220   -0.1570    0.1630 C   0  0  0  0  0  0  0  0  0  0  0  0
    1.6430    0.8710    0.1840 C   0  0  0  0  0  0  0  0  0  0  0  0
    2.9980    0.6140    0.0010 C   0  0  0  0  0  0  0  0  0  0  0  0
    3.4950   -0.6540   -0.2090 C   0  0  0  0  0  0  0  0  0  0  0  0
    4.9100   -0.9470   -0.3660 C   0  0  0  0  0  0  0  0  0  0  0  0
    5.7510   -0.4740    0.5180 C   0  0  0  0  0  0  0  0  0  0  0  0
    7.5650   -0.7150    0.5080 S   0  0  0  0  0  0  0  0  0  0  0  0
    7.8820    0.7980    1.4430 C   0  0  0  0  0  0  0  0  0  0  0  0
    8.9250    1.4610    1.3650 O   0  0  0  0  0  0  0  0  0  0  0  0
    6.7060    0.9650    2.2000 N   0  0  0  0  0  0  0  0  0  0  0  0
    6.7060    1.8060    3.4210 C   0  0  0  0  0  0  0  0  0  0  0  0
    5.5740    0.3050    1.7330 C   0  0  0  0  0  0  0  0  0  0  0  0
    4.4350    0.3670    2.3310 O   0  0  0  0  0  0  0  0  0  0  0  0
    2.5530   -1.6890   -0.2300 C   0  0  0  0  0  0  0  0  0  0  0  0
    1.2120   -1.4280   -0.0480 C   0  0  0  0  0  0  0  0  0  0  0  0
   -1.9850   -0.2150   -2.0510 C   0  0  0  0  0  0  0  0  0  0  0  0
   -2.2870   -1.1760   -2.9800 C   0  0  0  0  0  0  0  0  0  0  0  0
   -3.5350   -1.7270   -2.9530 C   0  0  0  0  0  0  0  0  0  0  0  0
   -3.8550   -2.7080   -3.8980 O   0  0  0  0  0  0  0  0  0  0  0  0
   -4.4950   -1.3540   -2.0280 C   0  0  0  0  0  0  0  0  0  0  0  0
   -5.7230   -1.8170   -1.8660 C   0  0  0  0  0  0  0  0  0  0  0  0
   -6.3140   -1.1140   -0.7300 C   0  0  0  0  0  0  0  0  0  0  0  0
  1  2  1  0
  2  3  2  0
  2 31  1  0
  3  4  1  0
  3 29  1  0
  4  5  1  0
  4 25  2  0
  5  6  2  0
  5  7  1  0
  7  8  1  1
  7  9  1  0
  9 10  1  0
 10 11  2  0
 10 24  1  0
 11 12  1  0
 12 13  2  0
 13 14  1  0
 13 23  1  0
 14 15  2  3
 15 16  1  0
 15 21  1  0
 16 17  1  0
 17 18  2  0
 17 19  1  0
 19 20  1  0
 19 21  1  0
 21 22  2  0
 23 24  2  0
 25 26  1  0
 26 27  2  0
 27 28  1  0
 27 29  1  0
 29 30  2  0
 30 31  1  0
M  END
