
     RDKit          3D

 27 29  0  0  0  0  0  0  0  0999 V2000
   -8.1820   -2.3450   -0.3170 C   0  0  0  0  0  0  0  0  0  0  0  0
   -6.7070   -2.0240   -0.2810 C   0  0  0  0  0  0  0  0  0  0  0  0
   -6.4670   -0.7370    0.4430 C   0  0  0  0  0  0  0  0  0  0  0  0
   -5.0670   -0.4910    0.4430 O   0  0  0  0  0  0  0  0  0  0  0  0
   -4.4890    0.6070    1.0210 C   0  0  0  0  0  0  0  0  0  0  0  0
   -5.2420    1.4420    1.5820 O   0  0  0  0  0  0  0  0  0  0  0  0
   -3.0140    0.7750    0.9680 C   0  0  2  0  0  0  0  0  0  0  0  0
   -2.6330    2.0370    0.1830 C   0  0  0  0  0  0  0  0  0  0  0  0
   -1.1760    2.3100    0.5800 C   0  0  2  0  0  0  0  0  0  0  0  0
   -0.6760    3.4490   -0.0040 O   0  0  0  0  0  0  0  0  0  0  0  0
   -0.4170    1.0820    0.2500 C   0  0  0  0  0  0  0  0  0  0  0  0
    0.9120    1.2080    0.0820 N   0  0  0  0  0  0  0  0  0  0  0  0
    1.7050    0.1520   -0.2200 C   0  0  0  0  0  0  0  0  0  0  0  0
    3.1830    0.2790   -0.4050 C   0  0  1  0  0  0  0  0  0  0  0  0
    3.4970    1.7560   -0.2600 C   0  0  0  0  0  0  0  0  0  0  0  0
    4.9590    2.0570   -0.2460 C   0  0  0  0  0  0  0  0  0  0  0  0
    5.5560    1.2490    0.9080 C   0  0  0  0  0  0  0  0  0  0  0  0
    5.1410   -0.2020    0.7450 C   0  0  2  0  0  0  0  0  0  0  0  0
    5.9430   -0.7770   -0.3750 C   0  0  0  0  0  0  0  0  0  0  0  0
    5.6480   -2.2220   -0.6640 C   0  0  0  0  0  0  0  0  0  0  0  0
    3.7860   -0.3840    0.6550 O   0  0  0  0  0  0  0  0  0  0  0  0
    1.1360   -1.0940   -0.3620 C   0  0  0  0  0  0  0  0  0  0  0  0
    2.1620   -2.4550   -0.7540 Cl  0  0  0  0  0  0  0  0  0  0  0  0
   -0.2400   -1.2650   -0.1960 C   0  0  0  0  0  0  0  0  0  0  0  0
   -0.8350   -2.5040   -0.3330 O   0  0  0  0  0  0  0  0  0  0  0  0
   -1.0020   -0.1590    0.1120 C   0  0  0  0  0  0  0  0  0  0  0  0
   -2.3910   -0.2950    0.2860 O   0  0  0  0  0  0  0  0  0  0  0  0
  1  2  1  0
  2  3  1  0
  3  4  1  0
  4  5  1  0
  5  6  2  0
  7  5  1  6
  7  8  1  0
  7 27  1  0
  8  9  1  0
  9 10  1  6
  9 11  1  0
 11 12  2  0
 11 26  1  0
 12 13  1  0
 14 13  1  1
 13 22  2  0
 14 15  1  0
 14 21  1  0
 15 16  1  0
 16 17  1  0
 17 18  1  0
 18 19  1  6
 18 21  1  0
 19 20  1  0
 22 23  1  0
 22 24  1  0
 24 25  1  0
 24 26  2  0
 26 27  1  0
M  END
