
     RDKit          3D

 25 26  0  0  0  0  0  0  0  0999 V2000
    1.6520   -1.8520   -1.7160 O   0  0  0  0  0  0  0  0  0  0  0  0
    1.0070   -1.6840   -0.6090 C   0  0  0  0  0  0  0  0  0  0  0  0
    1.6620   -2.0280    0.5430 N   0  0  0  0  0  0  0  0  0  0  0  0
    3.0040   -2.5560    0.5300 C   0  0  0  0  0  0  0  0  0  0  0  0
    4.0310   -1.5270    0.3630 C   0  0  0  0  0  0  0  0  0  0  0  0
    3.7160   -0.2140    0.2740 N   0  0  0  0  0  0  0  0  0  0  0  0
    4.7110    0.6750    0.1190 C   0  0  0  0  0  0  0  0  0  0  0  0
    6.0300    0.3070    0.0470 C   0  0  0  0  0  0  0  0  0  0  0  0
    7.0980    1.3450   -0.1250 C   0  0  0  0  0  0  0  0  0  0  0  0
    7.2270    1.6110   -1.4880 O   0  0  0  0  0  0  0  0  0  0  0  0
    6.3220   -1.0330    0.1410 C   0  0  0  0  0  0  0  0  0  0  0  0
    5.3180   -1.9270    0.2970 N   0  0  0  0  0  0  0  0  0  0  0  0
   -0.2090   -1.1940   -0.8410 N   0  0  0  0  0  0  0  0  0  0  0  0
   -1.4410   -0.6980   -1.0790 C   0  0  0  0  0  0  0  0  0  0  0  0
   -1.6030   -0.5510   -2.3420 O   0  0  0  0  0  0  0  0  0  0  0  0
   -2.4220   -0.3730   -0.1960 N   0  0  0  0  0  0  0  0  0  0  0  0
   -3.6660    0.1460   -0.6970 C   0  0  1  0  0  0  0  0  0  0  0  0
   -4.7590   -0.7800   -0.2610 C   0  0  0  0  0  0  0  0  0  0  0  0
   -5.1110   -1.7110   -1.0210 O   0  0  0  0  0  0  0  0  0  0  0  0
   -5.3440   -0.5480    1.0060 N   0  0  0  0  0  0  0  0  0  0  0  0
   -5.0430    0.5930    1.8320 C   0  0  0  0  0  0  0  0  0  0  0  0
   -3.9950    1.4200    1.3340 N   0  0  0  0  0  0  0  0  0  0  0  0
   -3.8730    1.4930   -0.0850 C   0  0  2  0  0  0  0  0  0  0  0  0
   -4.9670    2.2870   -0.7630 C   0  0  0  0  0  0  0  0  0  0  0  0
   -6.2290    1.7780   -0.5460 O   0  0  0  0  0  0  0  0  0  0  0  0
  1  2  2  0
  2  3  1  0
  2 13  1  0
  3  4  1  0
  4  5  1  0
  5  6  2  0
  5 12  1  0
  6  7  1  0
  7  8  2  0
  8  9  1  0
  8 11  1  0
  9 10  1  0
 11 12  2  0
 13 14  1  0
 14 15  2  0
 14 16  1  0
 17 16  1  1
 17 18  1  0
 17 23  1  0
 18 19  2  0
 18 20  1  0
 20 21  1  0
 21 22  1  0
 22 23  1  0
 23 24  1  6
 24 25  1  0
M  END
