
     RDKit          3D

 25 27  0  0  0  0  0  0  0  0999 V2000
   -2.4490   -1.7370   -0.1130 C   0  0  0  0  0  0  0  0  0  0  0  0
   -3.6110   -0.8050   -0.3220 C   0  0  1  0  0  0  0  0  0  0  0  0
   -4.8060   -1.2370    0.4810 C   0  0  0  0  0  0  0  0  0  0  0  0
   -5.3860   -0.0110    0.9450 N   0  0  0  0  0  0  0  0  0  0  0  0
   -4.4340    1.0200    0.8840 C   0  0  0  0  0  0  0  0  0  0  0  0
   -4.4370    2.2580    1.4060 N   0  0  0  0  0  0  0  0  0  0  0  0
   -3.4460    3.1220    1.2520 N   0  0  0  0  0  0  0  0  0  0  0  0
   -2.3740    2.7450    0.5350 C   0  0  0  0  0  0  0  0  0  0  0  0
   -1.4460    3.5840    0.4030 O   0  0  0  0  0  0  0  0  0  0  0  0
   -2.3170    1.4790   -0.0260 C   0  0  0  0  0  0  0  0  0  0  0  0
   -1.1700    1.1280   -0.7810 N   0  0  0  0  0  0  0  0  0  0  0  0
   -0.0260    0.5670   -0.1690 C   0  0  0  0  0  0  0  0  0  0  0  0
    0.0110    0.3580    1.0880 O   0  0  0  0  0  0  0  0  0  0  0  0
    1.1510    0.2140   -1.0040 C   0  0  0  0  0  0  0  0  0  0  0  0
    2.2050   -0.3420   -0.1930 N   0  0  0  0  0  0  0  0  0  0  0  0
    3.4450   -0.7630   -0.7520 C   0  0  0  0  0  0  0  0  0  0  0  0
    3.5870   -0.6300   -1.9940 O   0  0  0  0  0  0  0  0  0  0  0  0
    4.4920   -1.3260    0.1320 C   0  0  1  0  0  0  0  0  0  0  0  0
    5.6370   -1.6710   -0.6730 N   0  0  0  0  0  0  0  0  0  0  0  0
    6.3760   -0.4850   -0.8910 C   0  0  0  0  0  0  0  0  0  0  0  0
    7.2140   -0.2360   -1.8160 O   0  0  0  0  0  0  0  0  0  0  0  0
    6.0140    0.4320    0.1460 N   0  0  0  0  0  0  0  0  0  0  0  0
    5.0580   -0.2170    0.9760 C   0  0  0  0  0  0  0  0  0  0  0  0
    4.7830    0.1020    2.1470 O   0  0  0  0  0  0  0  0  0  0  0  0
   -3.3480    0.5810    0.1330 C   0  0  0  0  0  0  0  0  0  0  0  0
  2  1  1  1
  2  3  1  0
  2 25  1  0
  3  4  1  0
  4  5  1  0
  5  6  2  0
  5 25  1  0
  6  7  1  0
  7  8  1  0
  8  9  2  0
  8 10  1  0
 10 11  1  0
 10 25  2  0
 11 12  1  0
 12 13  2  0
 12 14  1  0
 14 15  1  0
 15 16  1  0
 16 17  2  0
 18 16  1  6
 18 19  1  0
 18 23  1  0
 19 20  1  0
 20 21  2  0
 20 22  1  0
 22 23  1  0
 23 24  2  0
M  END
