
     RDKit          3D

 24 25  0  0  0  0  0  0  0  0999 V2000
    6.9680    2.0090   -0.0350 N   0  0  0  0  0  0  0  0  0  0  0  0
    6.4400    0.8640    0.7130 C   0  0  0  0  0  0  0  0  0  0  0  0
    6.9130    0.5240    1.8120 O   0  0  0  0  0  0  0  0  0  0  0  0
    5.3610    0.1400    0.1620 N   0  0  0  0  0  0  0  0  0  0  0  0
    4.6670   -0.9810    0.7160 C   0  0  0  0  0  0  0  0  0  0  0  0
    3.5840   -1.2460   -0.3260 C   0  0  0  0  0  0  0  0  0  0  0  0
    3.5570   -2.2820   -0.8970 O   0  0  0  0  0  0  0  0  0  0  0  0
    2.6610   -0.1430   -0.5350 C   0  0  0  0  0  0  0  0  0  0  0  0
    1.3120   -0.3050   -0.8110 N   0  0  0  0  0  0  0  0  0  0  0  0
    0.3380   -0.7820    0.1350 C   0  0  0  0  0  0  0  0  0  0  0  0
    0.6550   -1.1020    1.3160 O   0  0  0  0  0  0  0  0  0  0  0  0
   -1.0170   -0.8740   -0.2500 N   0  0  0  0  0  0  0  0  0  0  0  0
   -2.0950   -1.1890    0.6580 C   0  0  2  0  0  0  0  0  0  0  0  0
   -2.8350   -2.4060    0.2620 C   0  0  0  0  0  0  0  0  0  0  0  0
   -4.2640   -1.9400    0.0640 C   0  0  0  0  0  0  0  0  0  0  0  0
   -4.2420   -0.4800    0.1180 C   0  0  0  0  0  0  0  0  0  0  0  0
   -3.0390   -0.0320    0.4430 C   0  0  0  0  0  0  0  0  0  0  0  0
   -2.6070    1.3400    0.5580 C   0  0  0  0  0  0  0  0  0  0  0  0
   -1.5800    1.5840    1.2800 O   0  0  0  0  0  0  0  0  0  0  0  0
   -3.1480    2.5450   -0.0150 N   0  0  0  0  0  0  0  0  0  0  0  0
   -4.4250    2.6710   -0.5460 N   0  0  0  0  0  0  0  0  0  0  0  0
   -5.4610    1.7100   -0.5620 C   0  0  0  0  0  0  0  0  0  0  0  0
   -6.5590    2.1610   -0.9710 O   0  0  0  0  0  0  0  0  0  0  0  0
   -5.3950    0.3220   -0.1700 N   0  0  0  0  0  0  0  0  0  0  0  0
  1  2  1  0
  2  3  2  0
  2  4  1  0
  4  5  1  0
  5  6  1  0
  6  7  2  0
  6  8  1  0
  8  9  1  0
  9 10  1  0
 10 11  2  0
 10 12  1  0
 13 12  1  6
 13 14  1  0
 13 17  1  0
 14 15  1  0
 15 16  1  0
 16 17  2  0
 16 24  1  0
 17 18  1  0
 18 19  2  0
 18 20  1  0
 20 21  1  0
 21 22  1  0
 22 23  2  0
 22 24  1  0
M  END
