
     RDKit          3D

 25 26  0  0  0  0  0  0  0  0999 V2000
   -5.7860    1.2370    1.3910 C   0  0  0  0  0  0  0  0  0  0  0  0
   -4.7030    0.5450    1.1130 C   0  0  0  0  0  0  0  0  0  0  0  0
   -3.4130    1.2510    0.8900 C   0  0  0  0  0  0  0  0  0  0  0  0
   -2.3480    0.2800    0.4390 C   0  0  2  0  0  0  0  0  0  0  0  0
   -1.2620    0.9220   -0.2410 N   0  0  0  0  0  0  0  0  0  0  0  0
    0.0950    0.8200    0.2130 C   0  0  0  0  0  0  0  0  0  0  0  0
    0.2700    0.1460    1.2250 O   0  0  0  0  0  0  0  0  0  0  0  0
    1.1530    1.5110   -0.5460 C   0  0  0  0  0  0  0  0  0  0  0  0
    0.8980    2.4400   -1.4900 N   0  0  0  0  0  0  0  0  0  0  0  0
    2.0560    2.8860   -1.9470 C   0  0  0  0  0  0  0  0  0  0  0  0
    2.1830    3.7720   -2.8460 O   0  0  0  0  0  0  0  0  0  0  0  0
    3.0440    2.2800   -1.3360 N   0  0  0  0  0  0  0  0  0  0  0  0
    2.5030    1.3860   -0.4290 C   0  0  0  0  0  0  0  0  0  0  0  0
    3.3290    0.4760    0.3570 C   0  0  0  0  0  0  0  0  0  0  0  0
    4.4610    0.9520    0.7320 O   0  0  0  0  0  0  0  0  0  0  0  0
    3.0320   -0.8450    0.7380 N   0  0  0  0  0  0  0  0  0  0  0  0
    3.9860   -1.6140    1.5500 C   0  0  0  0  0  0  0  0  0  0  0  0
    5.2840   -1.7420    0.8220 C   0  0  0  0  0  0  0  0  0  0  0  0
    6.3360   -2.4450    1.4260 N   0  0  0  0  0  0  0  0  0  0  0  0
    5.4760   -1.2440   -0.3180 O   0  0  0  0  0  0  0  0  0  0  0  0
   -3.0150   -0.6570   -0.5700 C   0  0  1  0  0  0  0  0  0  0  0  0
   -2.0900   -1.3900   -1.2870 O   0  0  0  0  0  0  0  0  0  0  0  0
   -3.9400   -1.5080    0.2180 C   0  0  0  0  0  0  0  0  0  0  0  0
   -3.8810   -2.9140    0.0370 N   0  0  0  0  0  0  0  0  0  0  0  0
   -4.7410   -0.8970    1.0190 N   0  0  0  0  0  0  0  0  0  0  0  0
  1  2  2  0
  2  3  1  0
  2 25  1  0
  3  4  1  0
  4  5  1  6
  4 21  1  0
  5  6  1  0
  6  7  2  0
  6  8  1  0
  8  9  1  0
  8 13  2  0
  9 10  1  0
 10 11  2  0
 10 12  1  0
 12 13  1  0
 13 14  1  0
 14 15  2  0
 14 16  1  0
 16 17  1  0
 17 18  1  0
 18 19  1  0
 18 20  2  0
 21 22  1  1
 21 23  1  0
 23 24  1  0
 23 25  2  0
M  END
