
     RDKit          3D

 25 26  0  0  0  0  0  0  0  0999 V2000
    5.3310   -0.9200   -1.5860 C   0  0  0  0  0  0  0  0  0  0  0  0
    4.4910   -0.3320   -0.4690 C   0  0  2  0  0  0  0  0  0  0  0  0
    3.0520   -0.4820   -0.8430 C   0  0  0  0  0  0  0  0  0  0  0  0
    2.1130    0.0620    0.1800 C   0  0  0  0  0  0  0  0  0  0  0  0
    0.7440   -0.1350   -0.2820 N   0  0  0  0  0  0  0  0  0  0  0  0
   -0.3570    0.2860    0.4890 C   0  0  0  0  0  0  0  0  0  0  0  0
   -0.1750    0.8380    1.5900 O   0  0  0  0  0  0  0  0  0  0  0  0
   -1.7340    0.0530   -0.0440 C   0  0  0  0  0  0  0  0  0  0  0  0
   -1.8320   -0.4900   -1.1230 O   0  0  0  0  0  0  0  0  0  0  0  0
   -2.8390    0.4450    0.6700 N   0  0  0  0  0  0  0  0  0  0  0  0
   -4.2200    0.3810    0.4690 C   0  0  0  0  0  0  0  0  0  0  0  0
   -5.0400    0.9020    1.4530 C   0  0  0  0  0  0  0  0  0  0  0  0
   -4.5640    1.4960    2.6530 N   0  0  0  0  0  0  0  0  0  0  0  0
   -6.3830    0.7510    1.0830 N   0  0  0  0  0  0  0  0  0  0  0  0
   -6.4900    0.1240   -0.1610 C   0  0  0  0  0  0  0  0  0  0  0  0
   -7.5200   -0.1750   -0.8080 O   0  0  0  0  0  0  0  0  0  0  0  0
   -5.0410   -0.1350   -0.5950 C   0  0  0  0  0  0  0  0  0  0  0  0
   -4.8450   -0.7120   -1.7250 C   0  0  0  0  0  0  0  0  0  0  0  0
   -3.8110   -1.1420   -2.5160 N   0  0  0  0  0  0  0  0  0  0  0  0
    4.8980    1.0180   -0.2150 N   0  0  0  0  0  0  0  0  0  0  0  0
    5.7240    1.0920    0.9420 C   0  0  0  0  0  0  0  0  0  0  0  0
    6.3790    2.0910    1.3520 O   0  0  0  0  0  0  0  0  0  0  0  0
    5.6760   -0.1910    1.5650 N   0  0  0  0  0  0  0  0  0  0  0  0
    4.8300   -1.0330    0.7930 C   0  0  0  0  0  0  0  0  0  0  0  0
    4.4440   -2.1790    1.1410 O   0  0  0  0  0  0  0  0  0  0  0  0
  2  1  1  6
  2  3  1  0
  2 20  1  0
  2 24  1  0
  3  4  1  0
  4  5  1  0
  5  6  1  0
  6  7  2  0
  6  8  1  0
  8  9  2  0
  8 10  1  0
 10 11  1  0
 11 12  2  0
 11 17  1  0
 12 13  1  0
 12 14  1  0
 14 15  1  0
 15 16  2  0
 15 17  1  0
 17 18  2  3
 18 19  1  0
 20 21  1  0
 21 22  2  0
 21 23  1  0
 23 24  1  0
 24 25  2  0
M  END
