
     RDKit          3D

 14 15  0  0  0  0  0  0  0  0999 V2000
   -3.1200    1.1810   -0.0910 C   0  0  0  0  0  0  0  0  0  0  0  0
   -2.6680    0.2140    0.9960 C   0  0  0  0  0  0  0  0  0  0  0  0
   -2.2720   -1.1120    0.4150 C   0  0  0  0  0  0  0  0  0  0  0  0
   -1.2530   -1.0310   -0.4810 O   0  0  0  0  0  0  0  0  0  0  0  0
    0.0470   -0.6500   -0.4400 C   0  0  0  0  0  0  0  0  0  0  0  0
    0.7540   -0.2160    0.6560 C   0  0  0  0  0  0  0  0  0  0  0  0
    2.1050    0.1550    0.5650 C   0  0  0  0  0  0  0  0  0  0  0  0
    3.0080    0.6110    1.4960 C   0  0  0  0  0  0  0  0  0  0  0  0
    4.1740    0.8150    0.8640 N   0  0  0  0  0  0  0  0  0  0  0  0
    4.0500    0.5090   -0.4250 N   0  0  0  0  0  0  0  0  0  0  0  0
    2.7740    0.0960   -0.6350 C   0  0  0  0  0  0  0  0  0  0  0  0
    2.0760   -0.3370   -1.7380 C   0  0  0  0  0  0  0  0  0  0  0  0
    0.7510   -0.7010   -1.6520 C   0  0  0  0  0  0  0  0  0  0  0  0
    0.0820   -1.1290   -2.7710 O   0  0  0  0  0  0  0  0  0  0  0  0
  1  2  1  0
  2  3  1  0
  3  4  1  0
  4  5  1  0
  5  6  2  0
  5 13  1  0
  6  7  1  0
  7  8  2  0
  7 11  1  0
  8  9  1  0
  9 10  1  0
 10 11  2  0
 11 12  1  0
 12 13  2  0
 13 14  1  0
M  END
