
     RDKit          3D

 14 15  0  0  0  0  0  0  0  0999 V2000
    3.7930   -0.6730    0.1670 C   0  0  0  0  0  0  0  0  0  0  0  0
    2.3930   -0.1740    0.0880 C   0  0  0  0  0  0  0  0  0  0  0  0
    1.2430   -0.9170    0.1660 C   0  0  0  0  0  0  0  0  0  0  0  0
    0.1310   -0.0470    0.0420 C   0  0  0  0  0  0  0  0  0  0  0  0
   -1.2380   -0.5290    0.1970 C   0  0  0  0  0  0  0  0  0  0  0  0
   -1.5500   -1.5150    1.1180 N   0  0  0  0  0  0  0  0  0  0  0  0
   -2.8370   -1.8380    1.0450 C   0  0  0  0  0  0  0  0  0  0  0  0
   -3.3890   -1.0930    0.0970 N   0  0  0  0  0  0  0  0  0  0  0  0
   -2.4010   -0.2780   -0.4400 C   0  0  0  0  0  0  0  0  0  0  0  0
   -2.7180    0.5760   -1.5350 C   0  0  0  0  0  0  0  0  0  0  0  0
   -1.9240    1.3120   -2.1100 O   0  0  0  0  0  0  0  0  0  0  0  0
    0.7050    1.1760   -0.0990 C   0  0  0  0  0  0  0  0  0  0  0  0
    0.0890    2.5100   -0.2580 C   0  0  0  0  0  0  0  0  0  0  0  0
    2.0260    1.0560   -0.0690 O   0  0  0  0  0  0  0  0  0  0  0  0
  1  2  1  0
  2  3  2  0
  2 14  1  0
  3  4  1  0
  4  5  1  0
  4 12  2  0
  5  6  1  0
  5  9  2  0
  6  7  1  0
  7  8  2  0
  8  9  1  0
  9 10  1  0
 10 11  2  0
 12 13  1  0
 12 14  1  0
M  END
