
     RDKit          3D

 14 15  0  0  0  0  0  0  0  0999 V2000
    0.2370    0.2300    1.7180 O   0  0  0  0  0  0  0  0  0  0  0  0
    0.7150    0.0940    0.5650 C   0  0  0  0  0  0  0  0  0  0  0  0
   -0.1460   -0.1530   -0.5320 N   0  0  0  0  0  0  0  0  0  0  0  0
   -1.5420   -0.2390   -0.2860 C   0  0  0  0  0  0  0  0  0  0  0  0
   -2.3690    0.6020   -0.8800 C   0  0  0  0  0  0  0  0  0  0  0  0
   -3.8320    0.6040   -0.6980 C   0  0  0  0  0  0  0  0  0  0  0  0
   -4.2460   -0.3910    0.1790 O   0  0  0  0  0  0  0  0  0  0  0  0
   -3.3800   -1.2590    0.7900 C   0  0  0  0  0  0  0  0  0  0  0  0
   -2.0690   -1.2500    0.6180 C   0  0  0  0  0  0  0  0  0  0  0  0
    2.1540    0.1930    0.3800 C   0  0  0  0  0  0  0  0  0  0  0  0
    2.8080    0.0630   -0.8360 C   0  0  0  0  0  0  0  0  0  0  0  0
    4.1590    0.2230   -0.5770 C   0  0  0  0  0  0  0  0  0  0  0  0
    4.3060    0.4450    0.7710 C   0  0  0  0  0  0  0  0  0  0  0  0
    3.0780    0.4230    1.3300 N   0  0  0  0  0  0  0  0  0  0  0  0
  1  2  2  0
  2  3  1  0
  2 10  1  0
  3  4  1  0
  4  5  2  0
  4  9  1  0
  5  6  1  0
  6  7  1  0
  7  8  1  0
  8  9  2  0
 10 11  2  0
 10 14  1  0
 11 12  1  0
 12 13  2  0
 13 14  1  0
M  END
