
     RDKit          3D

 14 15  0  0  0  0  0  0  0  0999 V2000
    3.8030    0.6970    0.4940 O   0  0  0  0  0  0  0  0  0  0  0  0
    2.7280   -0.1350    0.2980 C   0  0  0  0  0  0  0  0  0  0  0  0
    2.9460   -1.4750    0.3120 N   0  0  0  0  0  0  0  0  0  0  0  0
    1.9260   -2.3360    0.1240 C   0  0  0  0  0  0  0  0  0  0  0  0
    0.6640   -1.8180   -0.0810 C   0  0  0  0  0  0  0  0  0  0  0  0
    0.4030   -0.4580   -0.1030 C   0  0  0  0  0  0  0  0  0  0  0  0
   -0.9660    0.0480   -0.3270 C   0  0  0  0  0  0  0  0  0  0  0  0
   -1.5080    1.0540    0.4290 C   0  0  0  0  0  0  0  0  0  0  0  0
   -2.7930    1.4660    0.1520 C   0  0  0  0  0  0  0  0  0  0  0  0
   -3.5170    0.8680   -0.8720 C   0  0  0  0  0  0  0  0  0  0  0  0
   -2.9760   -0.1210   -1.6100 N   0  0  0  0  0  0  0  0  0  0  0  0
   -1.7150   -0.5280   -1.3420 C   0  0  0  0  0  0  0  0  0  0  0  0
    1.4710    0.3940    0.0930 C   0  0  0  0  0  0  0  0  0  0  0  0
    1.2200    1.7600    0.0730 O   0  0  0  0  0  0  0  0  0  0  0  0
  1  2  1  0
  2  3  2  0
  2 13  1  0
  3  4  1  0
  4  5  2  0
  5  6  1  0
  6  7  1  0
  6 13  2  0
  7  8  2  0
  7 12  1  0
  8  9  1  0
  9 10  2  0
 10 11  1  0
 11 12  2  0
 13 14  1  0
M  END
