
     RDKit          3D

 14 15  0  0  0  0  0  0  0  0999 V2000
    0.6770   -1.2080    1.8930 N   0  0  0  0  0  0  0  0  0  0  0  0
    1.4890   -0.6320    0.8990 C   0  0  0  0  0  0  0  0  0  0  0  0
    2.6680   -0.1480    1.2200 C   0  0  0  0  0  0  0  0  0  0  0  0
    3.4430    0.4120    0.2230 O   0  0  0  0  0  0  0  0  0  0  0  0
    3.0820    0.5150   -1.1310 C   0  0  0  0  0  0  0  0  0  0  0  0
    1.7580   -0.0460   -1.4000 C   0  0  0  0  0  0  0  0  0  0  0  0
    1.0070   -0.5830   -0.4630 C   0  0  0  0  0  0  0  0  0  0  0  0
   -0.2380   -1.0850   -0.8470 O   0  0  0  0  0  0  0  0  0  0  0  0
   -1.4190   -0.4210   -0.5530 C   0  0  0  0  0  0  0  0  0  0  0  0
   -1.4130    0.7720    0.1360 C   0  0  0  0  0  0  0  0  0  0  0  0
   -2.6220    1.3880    0.3990 C   0  0  0  0  0  0  0  0  0  0  0  0
   -3.8140    0.8310   -0.0120 C   0  0  0  0  0  0  0  0  0  0  0  0
   -3.7690   -0.3400   -0.6840 N   0  0  0  0  0  0  0  0  0  0  0  0
   -2.6120   -0.9730   -0.9620 C   0  0  0  0  0  0  0  0  0  0  0  0
  1  2  1  0
  2  3  2  0
  2  7  1  0
  3  4  1  0
  4  5  1  0
  5  6  1  0
  6  7  2  0
  7  8  1  0
  8  9  1  0
  9 10  2  0
  9 14  1  0
 10 11  1  0
 11 12  2  0
 12 13  1  0
 13 14  2  0
M  END
