
     RDKit          3D

 14 15  0  0  0  0  0  0  0  0999 V2000
    4.2110   -0.8920    0.5560 C   0  0  0  0  0  0  0  0  0  0  0  0
    3.0850   -0.0230    0.0600 C   0  0  0  0  0  0  0  0  0  0  0  0
    3.3770    1.1820   -0.5480 C   0  0  0  0  0  0  0  0  0  0  0  0
    2.3340    1.9210   -0.9730 N   0  0  0  0  0  0  0  0  0  0  0  0
    1.0570    1.5140   -0.8180 C   0  0  0  0  0  0  0  0  0  0  0  0
    0.7610    0.3110   -0.2110 C   0  0  0  0  0  0  0  0  0  0  0  0
   -0.6170   -0.1430   -0.0360 C   0  0  0  0  0  0  0  0  0  0  0  0
   -1.0160   -1.3230    0.5540 C   0  0  0  0  0  0  0  0  0  0  0  0
   -2.4050   -1.3580    0.5130 C   0  0  0  0  0  0  0  0  0  0  0  0
   -2.7870   -0.1930   -0.1030 C   0  0  0  0  0  0  0  0  0  0  0  0
   -4.2300    0.1670   -0.3500 C   0  0  0  0  0  0  0  0  0  0  0  0
   -4.7430    0.8790    0.7280 O   0  0  0  0  0  0  0  0  0  0  0  0
   -1.7200    0.4600   -0.3940 O   0  0  0  0  0  0  0  0  0  0  0  0
    1.8080   -0.4200    0.2100 N   0  0  0  0  0  0  0  0  0  0  0  0
  1  2  1  0
  2  3  2  0
  2 14  1  0
  3  4  1  0
  4  5  2  0
  5  6  1  0
  6  7  1  0
  6 14  2  0
  7  8  2  0
  7 13  1  0
  8  9  1  0
  9 10  2  0
 10 11  1  0
 10 13  1  0
 11 12  1  0
M  END
