
     RDKit          3D

 14 15  0  0  0  0  0  0  0  0999 V2000
    5.0960    0.2510    0.9720 C   0  0  0  0  0  0  0  0  0  0  0  0
    3.6940    0.1670    0.6830 O   0  0  0  0  0  0  0  0  0  0  0  0
    3.2340   -0.4060   -0.4940 C   0  0  0  0  0  0  0  0  0  0  0  0
    4.0880   -0.8500   -1.3030 O   0  0  0  0  0  0  0  0  0  0  0  0
    1.8040   -0.4980   -0.7990 C   0  0  0  0  0  0  0  0  0  0  0  0
    1.2780   -1.0500   -1.9420 C   0  0  0  0  0  0  0  0  0  0  0  0
   -0.0600   -0.9440   -1.8460 N   0  0  0  0  0  0  0  0  0  0  0  0
   -0.3820   -0.3460   -0.6860 C   0  0  0  0  0  0  0  0  0  0  0  0
   -1.7440   -0.0380   -0.1910 C   0  0  0  0  0  0  0  0  0  0  0  0
   -2.0300    0.5440    0.9400 C   0  0  0  0  0  0  0  0  0  0  0  0
   -3.4960    0.7080    1.1390 C   0  0  0  0  0  0  0  0  0  0  0  0
   -4.0420    0.5790   -0.2870 C   0  0  0  0  0  0  0  0  0  0  0  0
   -3.0150   -0.3380   -0.8910 C   0  0  0  0  0  0  0  0  0  0  0  0
    0.7690   -0.0780   -0.0540 N   0  0  0  0  0  0  0  0  0  0  0  0
  1  2  1  0
  2  3  1  0
  3  4  2  0
  3  5  1  0
  5  6  2  0
  5 14  1  0
  6  7  1  0
  7  8  2  0
  8  9  1  0
  8 14  1  0
  9 10  2  0
  9 13  1  0
 10 11  1  0
 11 12  1  0
 12 13  1  0
M  END
