
     RDKit          3D

 14 14  0  0  0  0  0  0  0  0999 V2000
   -4.3660    0.5430   -0.4780 C   0  0  0  0  0  0  0  0  0  0  0  0
   -3.3720   -0.1940    0.3220 C   0  0  0  0  0  0  0  0  0  0  0  0
   -3.8020   -1.0170    1.3630 O   0  0  0  0  0  0  0  0  0  0  0  0
   -2.0480   -0.0850    0.0610 C   0  0  0  0  0  0  0  0  0  0  0  0
   -1.6850    0.8020   -1.0520 C   0  0  0  0  0  0  0  0  0  0  0  0
   -1.1900   -0.8520    0.9100 C   0  0  0  0  0  0  0  0  0  0  0  0
    0.0690   -1.0540    1.0330 C   0  0  0  0  0  0  0  0  0  0  0  0
    1.1540   -0.5140    0.2720 C   0  0  0  0  0  0  0  0  0  0  0  0
    1.1180    0.3300   -0.7480 N   0  0  0  0  0  0  0  0  0  0  0  0
    2.3270    0.6310   -1.2320 C   0  0  0  0  0  0  0  0  0  0  0  0
    3.2060   -0.0870   -0.4440 C   0  0  0  0  0  0  0  0  0  0  0  0
    4.6910   -0.0880   -0.5870 C   0  0  0  0  0  0  0  0  0  0  0  0
    5.1610    0.9510    0.2330 O   0  0  0  0  0  0  0  0  0  0  0  0
    2.4970   -0.7630    0.4440 N   0  0  0  0  0  0  0  0  0  0  0  0
  1  2  1  0
  2  3  1  0
  2  4  2  3
  4  5  1  0
  4  6  1  0
  6  7  2  3
  7  8  1  0
  8  9  2  0
  8 14  1  0
  9 10  1  0
 10 11  2  0
 11 12  1  0
 11 14  1  0
 12 13  1  0
M  END
