
     RDKit          3D

 17 18  0  0  0  0  0  0  0  0999 V2000
   -3.1760   -2.7430   -0.0740 C   0  0  0  0  0  0  0  0  0  0  0  0
   -1.7820   -2.1470   -0.1470 C   0  0  0  0  0  0  0  0  0  0  0  0
   -0.8560   -2.9180   -0.4460 O   0  0  0  0  0  0  0  0  0  0  0  0
   -1.5850   -0.7520    0.1230 C   0  0  0  0  0  0  0  0  0  0  0  0
   -2.7270    0.0010    0.4520 C   0  0  0  0  0  0  0  0  0  0  0  0
   -2.5650    1.3330    0.7160 C   0  0  0  0  0  0  0  0  0  0  0  0
   -3.6870    2.1020    1.0460 O   0  0  0  0  0  0  0  0  0  0  0  0
   -1.3130    1.9070    0.6580 C   0  0  0  0  0  0  0  0  0  0  0  0
   -1.1180    3.7840    1.0350 Br  0  0  0  0  0  0  0  0  0  0  0  0
   -0.1960    1.1880    0.3400 C   0  0  0  0  0  0  0  0  0  0  0  0
   -0.3440   -0.1790    0.0660 C   0  0  0  0  0  0  0  0  0  0  0  0
    0.8580   -0.8470   -0.2550 N   0  0  0  0  0  0  0  0  0  0  0  0
    2.1160   -0.1840   -0.2850 C   0  0  0  0  0  0  0  0  0  0  0  0
    2.5490    0.5430   -1.2920 C   0  0  0  0  0  0  0  0  0  0  0  0
    3.8980    1.0880   -0.9940 C   0  0  0  0  0  0  0  0  0  0  0  0
    4.1780    0.5580    0.3520 C   0  0  0  0  0  0  0  0  0  0  0  0
    3.1450   -0.1670    0.7390 C   0  0  0  0  0  0  0  0  0  0  0  0
  1  2  1  0
  2  3  2  0
  2  4  1  0
  4  5  2  0
  4 11  1  0
  5  6  1  0
  6  7  1  0
  6  8  2  0
  8  9  1  0
  8 10  1  0
 10 11  2  0
 11 12  1  0
 12 13  1  0
 13 14  2  0
 13 17  1  0
 14 15  1  0
 15 16  1  0
 16 17  2  0
M  END
