
     RDKit          3D

 17 18  0  0  0  0  0  0  0  0999 V2000
    4.8290    1.5480    0.6900 C   0  0  0  0  0  0  0  0  0  0  0  0
    3.3930    1.2050    0.4860 C   0  0  0  0  0  0  0  0  0  0  0  0
    3.1110   -0.2240    0.4380 C   0  0  0  0  0  0  0  0  0  0  0  0
    4.0080   -1.0700    0.5600 O   0  0  0  0  0  0  0  0  0  0  0  0
    1.7300   -0.6630    0.2420 C   0  0  0  0  0  0  0  0  0  0  0  0
    1.3560   -1.9770    0.1820 C   0  0  0  0  0  0  0  0  0  0  0  0
   -0.0380   -1.9700   -0.0150 C   0  0  0  0  0  0  0  0  0  0  0  0
   -0.4200   -0.6640   -0.0610 C   0  0  0  0  0  0  0  0  0  0  0  0
   -1.7760   -0.1370   -0.2500 C   0  0  0  0  0  0  0  0  0  0  0  0
   -1.9520    1.2560   -0.2670 C   0  0  0  0  0  0  0  0  0  0  0  0
   -3.1830    1.8360   -0.4370 C   0  0  0  0  0  0  0  0  0  0  0  0
   -3.3810    3.7430   -0.4550 Br  0  0  0  0  0  0  0  0  0  0  0  0
   -4.3200    1.0650   -0.6010 C   0  0  0  0  0  0  0  0  0  0  0  0
   -4.1610   -0.2920   -0.5860 C   0  0  0  0  0  0  0  0  0  0  0  0
   -2.9010   -0.8940   -0.4120 C   0  0  0  0  0  0  0  0  0  0  0  0
   -2.8110   -2.3090   -0.4070 N   0  0  0  0  0  0  0  0  0  0  0  0
    0.6660    0.0900    0.0960 O   0  0  0  0  0  0  0  0  0  0  0  0
  1  2  1  0
  2  3  1  0
  3  4  2  0
  3  5  1  0
  5  6  2  0
  5 17  1  0
  6  7  1  0
  7  8  2  0
  8  9  1  0
  8 17  1  0
  9 10  2  0
  9 15  1  0
 10 11  1  0
 11 12  1  0
 11 13  2  0
 13 14  1  0
 14 15  2  0
 15 16  1  0
M  END
