
     RDKit          3D

 16 17  0  0  0  0  0  0  0  0999 V2000
    4.2740   -1.4680    0.2680 C   0  0  0  0  0  0  0  0  0  0  0  0
    3.4590   -0.7460   -0.6070 O   0  0  0  0  0  0  0  0  0  0  0  0
    2.2510   -0.4550    0.0500 C   0  0  0  0  0  0  0  0  0  0  0  0
    1.3240    0.3130   -0.8700 C   0  0  0  0  0  0  0  0  0  0  0  0
    0.0360    0.6490   -0.2550 C   0  0  0  0  0  0  0  0  0  0  0  0
   -0.2020    1.6640    0.6370 C   0  0  0  0  0  0  0  0  0  0  0  0
    0.7780    2.6710    1.1860 C   0  0  0  0  0  0  0  0  0  0  0  0
   -1.5040    1.6540    0.9790 N   0  0  0  0  0  0  0  0  0  0  0  0
   -2.1340    0.6710    0.3470 C   0  0  0  0  0  0  0  0  0  0  0  0
   -3.4610    0.2530    0.3670 C   0  0  0  0  0  0  0  0  0  0  0  0
   -4.6660    1.2200    1.4830 Br  0  0  0  0  0  0  0  0  0  0  0  0
   -3.8360   -0.8190   -0.4020 C   0  0  0  0  0  0  0  0  0  0  0  0
   -2.9170   -1.4810   -1.1880 C   0  0  0  0  0  0  0  0  0  0  0  0
   -3.3560   -2.5590   -1.9450 O   0  0  0  0  0  0  0  0  0  0  0  0
   -1.6240   -1.0400   -1.1810 C   0  0  0  0  0  0  0  0  0  0  0  0
   -1.1890    0.0300   -0.4300 C   0  0  0  0  0  0  0  0  0  0  0  0
  1  2  1  0
  2  3  1  0
  3  4  1  0
  4  5  1  0
  5  6  2  0
  5 16  1  0
  6  7  1  0
  6  8  1  0
  8  9  1  0
  9 10  2  0
  9 16  1  0
 10 11  1  0
 10 12  1  0
 12 13  2  0
 13 14  1  0
 13 15  1  0
 15 16  2  0
M  END
