
     RDKit          3D

 17 18  0  0  0  0  0  0  0  0999 V2000
   -4.1710    1.5180    0.7560 C   0  0  0  0  0  0  0  0  0  0  0  0
   -2.8810    0.7720    0.5530 C   0  0  0  0  0  0  0  0  0  0  0  0
   -1.7960    1.5910    0.9500 C   0  0  0  0  0  0  0  0  0  0  0  0
   -0.5830    1.0580    0.7080 C   0  0  0  0  0  0  0  0  0  0  0  0
   -0.3810   -0.2250    0.0800 C   0  0  0  0  0  0  0  0  0  0  0  0
    1.0850   -0.3770   -0.1390 C   0  0  0  0  0  0  0  0  0  0  0  0
    1.9100   -0.9170    0.7680 C   0  0  0  0  0  0  0  0  0  0  0  0
    3.3040   -0.6090    0.6380 C   0  0  0  0  0  0  0  0  0  0  0  0
    3.7850    0.2140   -0.3650 C   0  0  0  0  0  0  0  0  0  0  0  0
    5.1570    0.5370   -0.4590 O   0  0  0  0  0  0  0  0  0  0  0  0
    2.8990    0.7440   -1.2790 C   0  0  0  0  0  0  0  0  0  0  0  0
    3.5080    1.9640   -2.5990 Br  0  0  0  0  0  0  0  0  0  0  0  0
    1.5760    0.4410   -1.1580 C   0  0  0  0  0  0  0  0  0  0  0  0
   -1.4220   -0.9170   -0.2540 C   0  0  0  0  0  0  0  0  0  0  0  0
   -1.2770   -2.1750   -1.0300 C   0  0  0  0  0  0  0  0  0  0  0  0
   -1.7710   -3.2680   -0.2570 O   0  0  0  0  0  0  0  0  0  0  0  0
   -2.6790   -0.4070   -0.0140 N   0  0  0  0  0  0  0  0  0  0  0  0
  1  2  1  0
  2  3  2  0
  2 17  1  0
  3  4  1  0
  4  5  2  0
  5  6  1  0
  5 14  1  0
  6  7  2  0
  6 13  1  0
  7  8  1  0
  8  9  2  0
  9 10  1  0
  9 11  1  0
 11 12  1  0
 11 13  2  0
 14 15  1  0
 14 17  2  0
 15 16  1  0
M  END
