
     RDKit          3D

 17 18  0  0  0  0  0  0  0  0999 V2000
    1.2560    1.4680    1.7360 O   0  0  0  0  0  0  0  0  0  0  0  0
    1.1380    0.7050    0.7460 C   0  0  0  0  0  0  0  0  0  0  0  0
    2.3020    0.2910    0.0040 C   0  0  0  0  0  0  0  0  0  0  0  0
    3.4930    0.7050    0.3540 C   0  0  0  0  0  0  0  0  0  0  0  0
    4.7110    0.3210   -0.3570 C   0  0  0  0  0  0  0  0  0  0  0  0
    5.9030    0.7490    0.0130 C   0  0  0  0  0  0  0  0  0  0  0  0
    6.1260    1.9030    1.5050 Br  0  0  0  0  0  0  0  0  0  0  0  0
   -0.2050    0.2420    0.3550 C   0  0  0  0  0  0  0  0  0  0  0  0
   -0.5160   -0.5710   -0.6710 N   0  0  0  0  0  0  0  0  0  0  0  0
   -1.8510   -0.7780   -0.7240 C   0  0  0  0  0  0  0  0  0  0  0  0
   -2.6570   -1.5110   -1.5610 C   0  0  0  0  0  0  0  0  0  0  0  0
   -4.0150   -1.5370   -1.3700 C   0  0  0  0  0  0  0  0  0  0  0  0
   -4.6440   -0.8450   -0.3490 C   0  0  0  0  0  0  0  0  0  0  0  0
   -3.8260   -0.1120    0.4870 C   0  0  0  0  0  0  0  0  0  0  0  0
   -2.4490   -0.0740    0.3080 C   0  0  0  0  0  0  0  0  0  0  0  0
   -1.4050    0.5500    0.9620 C   0  0  0  0  0  0  0  0  0  0  0  0
   -1.5120    1.3680    2.0630 O   0  0  0  0  0  0  0  0  0  0  0  0
  1  2  2  0
  2  3  1  0
  2  8  1  0
  3  4  2  3
  4  5  1  0
  5  6  2  3
  6  7  1  0
  8  9  1  0
  8 16  2  0
  9 10  1  0
 10 11  2  0
 10 15  1  0
 11 12  1  0
 12 13  2  0
 13 14  1  0
 14 15  2  0
 15 16  1  0
 16 17  1  0
M  END
