
     RDKit          3D

 17 18  0  0  0  0  0  0  0  0999 V2000
   -3.3980   -1.4980    2.1120 C   0  0  0  0  0  0  0  0  0  0  0  0
   -2.1820   -1.0450    1.5520 O   0  0  0  0  0  0  0  0  0  0  0  0
   -2.1420   -0.4750    0.2780 C   0  0  0  0  0  0  0  0  0  0  0  0
   -3.3290   -0.3660   -0.4170 C   0  0  0  0  0  0  0  0  0  0  0  0
   -3.3190    0.1900   -1.6690 C   0  0  0  0  0  0  0  0  0  0  0  0
   -2.1460    0.6360   -2.2320 C   0  0  0  0  0  0  0  0  0  0  0  0
   -0.9790    0.5060   -1.4940 C   0  0  0  0  0  0  0  0  0  0  0  0
   -0.9160   -0.0420   -0.2330 C   0  0  0  0  0  0  0  0  0  0  0  0
    0.2430   -0.1590    0.5580 N   0  0  0  0  0  0  0  0  0  0  0  0
    1.5830    0.0410    0.1500 C   0  0  0  0  0  0  0  0  0  0  0  0
    2.1170   -0.2430   -1.0760 C   0  0  0  0  0  0  0  0  0  0  0  0
    3.4540    0.0300   -1.3820 C   0  0  0  0  0  0  0  0  0  0  0  0
    4.2800    0.5990   -0.4450 C   0  0  0  0  0  0  0  0  0  0  0  0
    6.1100    0.9620   -0.8950 Br  0  0  0  0  0  0  0  0  0  0  0  0
    3.7710    0.8960    0.7980 C   0  0  0  0  0  0  0  0  0  0  0  0
    4.5960    1.4640    1.7360 O   0  0  0  0  0  0  0  0  0  0  0  0
    2.4510    0.6210    1.0850 C   0  0  0  0  0  0  0  0  0  0  0  0
  1  2  1  0
  2  3  1  0
  3  4  2  0
  3  8  1  0
  4  5  1  0
  5  6  2  0
  6  7  1  0
  7  8  2  0
  8  9  1  0
  9 10  1  0
 10 11  2  0
 10 17  1  0
 11 12  1  0
 12 13  2  0
 13 14  1  0
 13 15  1  0
 15 16  1  0
 15 17  2  0
M  END
