
     RDKit          3D

 17 18  0  0  0  0  0  0  0  0999 V2000
   -2.5680   -2.0860    1.0390 C   0  0  0  0  0  0  0  0  0  0  0  0
   -1.6250   -1.2420    0.4670 O   0  0  0  0  0  0  0  0  0  0  0  0
   -1.8470    0.0660    0.1000 C   0  0  0  0  0  0  0  0  0  0  0  0
   -3.0920    0.6260    0.2990 C   0  0  0  0  0  0  0  0  0  0  0  0
   -3.4010    1.9150   -0.0380 C   0  0  0  0  0  0  0  0  0  0  0  0
   -2.4170    2.7000   -0.6060 C   0  0  0  0  0  0  0  0  0  0  0  0
   -2.8200    4.5210   -1.0920 Br  0  0  0  0  0  0  0  0  0  0  0  0
   -1.1860    2.1750   -0.8110 C   0  0  0  0  0  0  0  0  0  0  0  0
   -0.8430    0.8240   -0.4640 C   0  0  0  0  0  0  0  0  0  0  0  0
    0.3880    0.4870   -0.7320 O   0  0  0  0  0  0  0  0  0  0  0  0
    1.6130    0.0980   -0.4850 C   0  0  0  0  0  0  0  0  0  0  0  0
    2.6870    1.0000   -0.8000 C   0  0  0  0  0  0  0  0  0  0  0  0
    3.9910    0.7280   -0.5990 C   0  0  0  0  0  0  0  0  0  0  0  0
    4.3140   -0.4940   -0.0550 C   0  0  0  0  0  0  0  0  0  0  0  0
    3.3170   -1.3820    0.2590 C   0  0  0  0  0  0  0  0  0  0  0  0
    1.9800   -1.1110    0.0550 C   0  0  0  0  0  0  0  0  0  0  0  0
    1.0720   -2.1390    0.4120 N   0  0  0  0  0  0  0  0  0  0  0  0
  1  2  1  0
  2  3  1  0
  3  4  2  0
  3  9  1  0
  4  5  1  0
  5  6  2  0
  6  7  1  0
  6  8  1  0
  8  9  2  0
  9 10  1  0
 10 11  1  0
 11 12  2  0
 11 16  1  0
 12 13  1  0
 13 14  2  0
 14 15  1  0
 15 16  2  0
 16 17  1  0
M  END
