
     RDKit          3D

 13 12  0  0  0  0  0  0  0  0999 V2000
   -3.4790   -0.7260   -0.8990 C   0  0  0  0  0  0  0  0  0  0  0  0
   -2.7570    0.3920   -1.1230 O   0  0  0  0  0  0  0  0  0  0  0  0
   -1.7510    0.7090   -0.2980 C   0  0  0  0  0  0  0  0  0  0  0  0
   -0.6440   -0.2920   -0.2120 C   0  0  2  0  0  0  0  0  0  0  0  0
   -1.1370   -1.5570    0.3260 N   0  0  0  0  0  0  0  0  0  0  0  0
    0.4150    0.1800    0.7060 C   0  0  0  0  0  0  0  0  0  0  0  0
   -0.0050    0.3640    2.0670 O   0  0  0  0  0  0  0  0  0  0  0  0
    1.6440    0.4490    0.4720 C   0  0  0  0  0  0  0  0  0  0  0  0
    2.4410    0.8920    1.5670 O   0  0  0  0  0  0  0  0  0  0  0  0
    2.3120    0.3510   -0.8010 C   0  0  0  0  0  0  0  0  0  0  0  0
    1.7600   -0.0220   -1.8810 N   0  0  0  0  0  0  0  0  0  0  0  0
    3.6840    0.6810   -0.9200 O   0  0  0  0  0  0  0  0  0  0  0  0
    4.1730    0.9660   -2.1320 O   0  0  0  0  0  0  0  0  0  0  0  0
  1  2  1  0
  2  3  1  0
  3  4  1  0
  4  5  1  1
  4  6  1  0
  6  7  1  0
  6  8  2  3
  8  9  1  0
  8 10  1  0
 10 11  2  0
 10 12  1  0
 12 13  1  0
M  END
