
     RDKit          3D

 12 12  0  0  0  0  0  0  0  0999 V2000
    3.3350    0.9590    0.3120 N   0  0  0  0  0  0  0  0  0  0  0  0
    2.3230    0.5760   -0.6020 C   0  0  0  0  0  0  0  0  0  0  0  0
    2.3870    1.0440   -1.7660 O   0  0  0  0  0  0  0  0  0  0  0  0
    1.2420   -0.3430   -0.1790 C   0  0  1  0  0  0  0  0  0  0  0  0
    0.4530    0.1960    0.9950 C   0  0  0  0  0  0  0  0  0  0  0  0
   -0.5260    1.1540    0.6060 N   0  0  0  0  0  0  0  0  0  0  0  0
   -1.7070    0.6520    0.0260 C   0  0  1  0  0  0  0  0  0  0  0  0
   -1.9250    1.2670   -1.2160 O   0  0  0  0  0  0  0  0  0  0  0  0
   -1.8060   -0.8260   -0.1140 C   0  0  2  0  0  0  0  0  0  0  0  0
   -2.1490   -1.4670    1.0740 O   0  0  0  0  0  0  0  0  0  0  0  0
   -0.6060   -1.4940   -0.6800 C   0  0  0  0  0  0  0  0  0  0  0  0
    0.3430   -0.6080   -1.1960 O   0  0  0  0  0  0  0  0  0  0  0  0
  1  2  1  0
  2  3  2  0
  4  2  1  6
  4  5  1  0
  4 12  1  0
  5  6  1  0
  6  7  1  0
  7  8  1  6
  7  9  1  0
  9 10  1  1
  9 11  1  0
 11 12  1  0
M  END
