
     RDKit          3D

 17 18  0  0  0  0  0  0  0  0999 V2000
   -0.6270   -1.6240    1.8110 C   0  0  0  0  0  0  0  0  0  0  0  0
    0.1200   -0.6800    1.0320 N   0  0  0  0  0  0  0  0  0  0  0  0
   -0.5620    0.2190    0.2630 C   0  0  0  0  0  0  0  0  0  0  0  0
   -2.0250    0.2290    0.2510 C   0  0  0  0  0  0  0  0  0  0  0  0
   -2.6480   -0.6850   -0.7740 C   0  0  0  0  0  0  0  0  0  0  0  0
   -4.1270   -0.6280   -0.7410 C   0  0  0  0  0  0  0  0  0  0  0  0
   -4.7500   -0.5580   -1.8190 O   0  0  0  0  0  0  0  0  0  0  0  0
   -4.8150   -0.6480    0.4500 O   0  0  0  0  0  0  0  0  0  0  0  0
    0.1920    1.0770   -0.4560 N   0  0  0  0  0  0  0  0  0  0  0  0
    1.5360    1.0840   -0.4470 C   0  0  0  0  0  0  0  0  0  0  0  0
    2.2760    1.9770   -1.1930 C   0  0  0  0  0  0  0  0  0  0  0  0
    3.6610    1.9850   -1.1820 C   0  0  0  0  0  0  0  0  0  0  0  0
    4.3220    1.0740   -0.4030 C   0  0  0  0  0  0  0  0  0  0  0  0
    3.6170    0.1550    0.3660 C   0  0  0  0  0  0  0  0  0  0  0  0
    2.2330    0.1780    0.3290 C   0  0  0  0  0  0  0  0  0  0  0  0
    1.4740   -0.7020    1.0650 C   0  0  0  0  0  0  0  0  0  0  0  0
    2.0790   -1.5450    1.7850 O   0  0  0  0  0  0  0  0  0  0  0  0
  1  2  1  0
  2  3  1  0
  2 16  1  0
  3  4  1  0
  3  9  2  0
  4  5  1  0
  5  6  1  0
  6  7  2  0
  6  8  1  0
  9 10  1  0
 10 11  2  0
 10 15  1  0
 11 12  1  0
 12 13  2  0
 13 14  1  0
 14 15  2  0
 15 16  1  0
 16 17  2  0
M  END
