
     RDKit          3D

 13 13  0  0  0  0  0  0  0  0999 V2000
    3.2980    0.4370   -0.1030 N   0  0  0  0  0  0  0  0  0  0  0  0
    1.9910    0.8790    0.1720 C   0  0  0  0  0  0  0  0  0  0  0  0
    1.6530    2.0480   -0.1190 O   0  0  0  0  0  0  0  0  0  0  0  0
    1.0160   -0.0430    0.8070 C   0  0  1  0  0  0  0  0  0  0  0  0
   -0.1640    0.5840    0.9760 O   0  0  0  0  0  0  0  0  0  0  0  0
   -1.2870    0.0680    0.4640 C   0  0  1  0  0  0  0  0  0  0  0  0
   -2.2950    1.1400    0.2780 C   0  0  0  0  0  0  0  0  0  0  0  0
   -2.0000    2.3170    0.5980 O   0  0  0  0  0  0  0  0  0  0  0  0
   -3.5600    0.8980   -0.2380 O   0  0  0  0  0  0  0  0  0  0  0  0
   -1.1600   -0.6590   -0.8460 C   0  0  0  0  0  0  0  0  0  0  0  0
   -0.1840   -1.7180   -0.6600 N   0  0  0  0  0  0  0  0  0  0  0  0
    0.9540   -1.3460    0.1100 C   0  0  0  0  0  0  0  0  0  0  0  0
    1.9100   -2.1570    0.1830 O   0  0  0  0  0  0  0  0  0  0  0  0
  1  2  1  0
  2  3  2  0
  4  2  1  6
  4  5  1  0
  4 12  1  0
  5  6  1  0
  6  7  1  6
  6 10  1  0
  7  8  2  0
  7  9  1  0
 10 11  1  0
 11 12  1  0
 12 13  2  0
M  END
