
     RDKit          3D

 12 12  0  0  0  0  0  0  0  0999 V2000
    2.7940    1.3960    0.1240 C   0  0  0  0  0  0  0  0  0  0  0  0
    1.8790    0.7330    0.9280 O   0  0  0  0  0  0  0  0  0  0  0  0
    1.1760   -0.2310    0.2510 C   0  0  1  0  0  0  0  0  0  0  0  0
    2.0440   -1.1930   -0.2680 O   0  0  0  0  0  0  0  0  0  0  0  0
    0.3190   -0.9180    1.2170 N   0  0  0  0  0  0  0  0  0  0  0  0
   -1.0950   -0.9700    1.0950 C   0  0  0  0  0  0  0  0  0  0  0  0
   -1.7190   -1.9630    1.4990 O   0  0  0  0  0  0  0  0  0  0  0  0
   -1.7830    0.1890    0.4780 C   0  0  2  0  0  0  0  0  0  0  0  0
   -2.8500   -0.2320   -0.4980 C   0  0  0  0  0  0  0  0  0  0  0  0
   -0.7910    1.0400   -0.0840 N   0  0  0  0  0  0  0  0  0  0  0  0
    0.2430    0.3300   -0.8000 C   0  0  2  0  0  0  0  0  0  0  0  0
   -0.2890   -0.7690   -1.4840 O   0  0  0  0  0  0  0  0  0  0  0  0
  1  2  1  0
  2  3  1  0
  3  4  1  6
  3  5  1  0
  3 11  1  0
  5  6  1  0
  6  7  2  0
  6  8  1  0
  8  9  1  6
  8 10  1  0
 10 11  1  0
 11 12  1  1
M  END
