
     RDKit          3D

 34 37  0  0  0  0  0  0  0  0999 V2000
    0.6160   -4.4760   -1.0410 C   0  0  0  0  0  0  0  0  0  0  0  0
    0.3310   -3.6880    0.2150 C   0  0  2  0  0  0  0  0  0  0  0  0
   -0.8740   -4.0610    0.8030 O   0  0  0  0  0  0  0  0  0  0  0  0
    0.2690   -2.1880   -0.0830 C   0  0  0  0  0  0  0  0  0  0  0  0
   -0.0750   -1.3750    1.4930 S   0  0  0  0  0  0  0  0  0  0  0  0
   -0.1970    0.3880    1.3690 C   0  0  0  0  0  0  0  0  0  0  0  0
    0.9000    1.1830    1.5180 C   0  0  0  0  0  0  0  0  0  0  0  0
    2.1650    0.5400    1.7740 N   0  0  0  0  0  0  0  0  0  0  0  0
    3.0480    0.1710    0.7300 C   0  0  0  0  0  0  0  0  0  0  0  0
    2.6830    0.4310   -0.4550 O   0  0  0  0  0  0  0  0  0  0  0  0
    4.3640   -0.5030    1.0160 C   0  0  0  0  0  0  0  0  0  0  0  0
    5.0410   -0.7490   -0.3190 C   0  0  1  0  0  0  0  0  0  0  0  0
    5.2820    0.4580   -1.0440 N   0  0  0  0  0  0  0  0  0  0  0  0
    6.6860    0.5710   -1.3030 C   0  0  1  0  0  0  0  0  0  0  0  0
    7.6100    0.7070   -0.1180 C   0  0  0  0  0  0  0  0  0  0  0  0
    7.3070   -0.6500   -0.7620 C   0  0  1  0  0  0  0  0  0  0  0  0
    6.2790   -1.4320   -0.1120 N   0  0  0  0  0  0  0  0  0  0  0  0
    0.8340    2.5670    1.4310 C   0  0  0  0  0  0  0  0  0  0  0  0
    1.8660    3.2760    1.5740 O   0  0  0  0  0  0  0  0  0  0  0  0
   -0.3510    3.1330    1.1910 N   0  0  0  0  0  0  0  0  0  0  0  0
   -1.4540    2.3370    1.0390 C   0  0  0  0  0  0  0  0  0  0  0  0
   -2.5150    2.9720    0.8160 O   0  0  0  0  0  0  0  0  0  0  0  0
   -1.4000    1.0010    1.1220 N   0  0  0  0  0  0  0  0  0  0  0  0
   -2.5670    0.2300    0.9680 C   0  0  0  0  0  0  0  0  0  0  0  0
   -2.4120   -1.0440    1.0410 O   0  0  0  0  0  0  0  0  0  0  0  0
   -3.9350    0.6910    0.7350 C   0  0  0  0  0  0  0  0  0  0  0  0
   -4.2750    0.8940   -0.7270 C   0  0  0  0  0  0  0  0  0  0  0  0
   -5.6820    1.3600   -0.8140 C   0  0  0  0  0  0  0  0  0  0  0  0
   -5.9690    2.6880   -1.0620 C   0  0  0  0  0  0  0  0  0  0  0  0
   -7.2770    3.1220   -1.1410 C   0  0  0  0  0  0  0  0  0  0  0  0
   -8.3150    2.2670   -0.9800 N   0  0  0  0  0  0  0  0  0  0  0  0
   -8.0630    0.9550   -0.7360 C   0  0  0  0  0  0  0  0  0  0  0  0
   -6.7440    0.5050   -0.6540 C   0  0  0  0  0  0  0  0  0  0  0  0
   -6.5020   -1.1890   -0.3410 Cl  0  0  0  0  0  0  0  0  0  0  0  0
  2  1  1  6
  2  3  1  0
  2  4  1  0
  4  5  1  0
  5  6  1  0
  6  7  2  0
  6 23  1  0
  7  8  1  0
  7 18  1  0
  8  9  1  0
  9 10  2  0
  9 11  1  0
 12 11  1  1
 12 13  1  0
 12 17  1  0
 13 14  1  0
 14 15  1  1
 14 16  1  0
 16 15  1  1
 16 17  1  0
 18 19  2  0
 18 20  1  0
 20 21  1  0
 21 22  2  0
 21 23  1  0
 23 24  1  0
 24 25  2  0
 24 26  1  0
 26 27  1  0
 27 28  1  0
 28 29  2  0
 28 33  1  0
 29 30  1  0
 30 31  2  0
 31 32  1  0
 32 33  2  0
 33 34  1  0
M  CHG  1  31   1
M  END
