
     RDKit          3D

 34 38  0  0  0  0  0  0  0  0999 V2000
    5.2390   -1.1540   -2.0440 C   0  0  0  0  0  0  0  0  0  0  0  0
    4.9380   -0.6000   -0.6880 C   0  0  2  0  0  0  0  0  0  0  0  0
    3.6000   -0.8230   -0.3270 O   0  0  0  0  0  0  0  0  0  0  0  0
    3.1840   -1.5520    0.7730 C   0  0  0  0  0  0  0  0  0  0  0  0
    4.0590   -2.0580    1.5130 O   0  0  0  0  0  0  0  0  0  0  0  0
    1.7420   -1.7300    1.0660 C   0  0  0  0  0  0  0  0  0  0  0  0
    1.0220   -1.0480    0.0610 O   0  0  0  0  0  0  0  0  0  0  0  0
   -0.3380   -0.9760   -0.0210 C   0  0  0  0  0  0  0  0  0  0  0  0
   -1.0130   -1.5620    0.8650 O   0  0  0  0  0  0  0  0  0  0  0  0
   -1.0780   -0.2540   -1.0840 C   0  0  0  0  0  0  0  0  0  0  0  0
   -2.5440   -0.1350   -0.8580 C   0  0  1  0  0  0  0  0  0  0  0  0
   -3.2170   -1.4380   -0.6800 C   0  0  0  0  0  0  0  0  0  0  0  0
   -2.5950   -2.6090   -1.1190 C   0  0  0  0  0  0  0  0  0  0  0  0
   -3.2080   -3.8310   -0.9500 C   0  0  0  0  0  0  0  0  0  0  0  0
   -2.4530   -5.3370   -1.4930 Cl  0  0  0  0  0  0  0  0  0  0  0  0
   -4.4510   -3.9060   -0.3410 C   0  0  0  0  0  0  0  0  0  0  0  0
   -5.0500   -2.7230    0.0870 C   0  0  0  0  0  0  0  0  0  0  0  0
   -4.4500   -1.5160   -0.0770 C   0  0  0  0  0  0  0  0  0  0  0  0
   -5.1720   -0.2910    0.3990 C   0  0  0  0  0  0  0  0  0  0  0  0
   -4.6450    0.9030   -0.4010 C   0  0  1  0  0  0  0  0  0  0  0  0
   -4.8890    0.7060   -1.8670 C   0  0  0  0  0  0  0  0  0  0  0  0
   -5.3240    2.1840   -0.0170 C   0  0  0  0  0  0  0  0  0  0  0  0
   -3.1240    0.9240   -0.0640 C   0  0  1  0  0  0  0  0  0  0  0  0
   -2.8460    1.4130    1.2740 C   0  0  1  0  0  0  0  0  0  0  0  0
   -1.5780    1.5550    2.0050 C   0  0  0  0  0  0  0  0  0  0  0  0
   -0.8020    2.6190    1.2910 C   0  0  0  0  0  0  0  0  0  0  0  0
   -1.3360    2.6690    0.0430 O   0  0  0  0  0  0  0  0  0  0  0  0
   -2.6470    2.2960    0.0870 C   0  0  1  0  0  0  0  0  0  0  0  0
    5.1830    0.8920   -0.6100 C   0  0  1  0  0  0  0  0  0  0  0  0
    4.8530    1.3550    0.7870 C   0  0  0  0  0  0  0  0  0  0  0  0
    6.0360    0.9120    1.6010 C   0  0  0  0  0  0  0  0  0  0  0  0
    7.1640    0.7040    0.6330 C   0  0  2  0  0  0  0  0  0  0  0  0
    8.4930    1.7920    1.1070 Cl  0  0  0  0  0  0  0  0  0  0  0  0
    6.6570    1.1320   -0.7230 C   0  0  0  0  0  0  0  0  0  0  0  0
  2  1  1  6
  2  3  1  0
  2 29  1  0
  3  4  1  0
  4  5  2  0
  4  6  1  0
  6  7  1  0
  7  8  1  0
  8  9  2  0
  8 10  1  0
 11 10  1  1
 11 12  1  0
 23 11  1  6
 12 13  2  0
 12 18  1  0
 13 14  1  0
 14 15  1  0
 14 16  2  0
 16 17  1  0
 17 18  2  0
 18 19  1  0
 19 20  1  0
 20 21  1  6
 20 22  1  0
 20 23  1  0
 23 24  1  0
 23 28  1  0
 24 25  1  6
 24 28  1  0
 25 26  1  0
 26 27  1  0
 28 27  1  6
 29 30  1  1
 29 34  1  0
 30 31  1  0
 31 32  1  0
 32 33  1  1
 32 34  1  0
M  END
