
     RDKit          3D

 35 39  0  0  0  0  0  0  0  0999 V2000
    9.3900    0.9240   -1.2180 C   0  0  0  0  0  0  0  0  0  0  0  0
    8.5390   -0.3030   -1.0450 C   0  0  1  0  0  0  0  0  0  0  0  0
    9.6880   -1.6510   -0.6940 Cl  0  0  0  0  0  0  0  0  0  0  0  0
    7.5930   -0.2490    0.1040 C   0  0  0  0  0  0  0  0  0  0  0  0
    6.5910    0.8290    0.0840 C   0  0  1  0  0  0  0  0  0  0  0  0
    5.6450    0.8450   -1.0590 C   0  0  0  0  0  0  0  0  0  0  0  0
    4.2440    0.9490   -0.4330 C   0  0  2  0  0  0  0  0  0  0  0  0
    4.6000    1.7990    0.7940 C   0  0  0  0  0  0  0  0  0  0  0  0
    5.7120    0.8460    1.2870 C   0  0  1  0  0  0  0  0  0  0  0  0
    4.9160   -0.4220    1.3500 C   0  0  0  0  0  0  0  0  0  0  0  0
    3.9520   -0.3680    0.1700 C   0  0  1  0  0  0  0  0  0  0  0  0
    2.6740   -0.5450    0.7160 O   0  0  0  0  0  0  0  0  0  0  0  0
    1.7900   -1.5280    0.3910 C   0  0  0  0  0  0  0  0  0  0  0  0
    2.1390   -2.3600   -0.4860 O   0  0  0  0  0  0  0  0  0  0  0  0
    0.4500   -1.7240    0.9700 C   0  0  0  0  0  0  0  0  0  0  0  0
    0.4230   -2.1890    2.2860 C   0  0  0  0  0  0  0  0  0  0  0  0
   -0.7940   -2.3990    2.8640 C   0  0  0  0  0  0  0  0  0  0  0  0
   -1.9610   -2.1630    2.1840 C   0  0  0  0  0  0  0  0  0  0  0  0
   -1.9650   -1.6970    0.8660 C   0  0  0  0  0  0  0  0  0  0  0  0
   -3.2250   -1.4710    0.1900 C   0  0  0  0  0  0  0  0  0  0  0  0
   -4.0060   -2.4720    0.0350 O   0  0  0  0  0  0  0  0  0  0  0  0
   -3.6990   -0.2910   -0.3160 O   0  0  0  0  0  0  0  0  0  0  0  0
   -4.9670   -0.1830   -0.9630 C   0  0  2  0  0  0  0  0  0  0  0  0
   -4.7030    0.3160   -2.3600 C   0  0  0  0  0  0  0  0  0  0  0  0
   -4.9440    1.6790   -2.4570 O   0  0  0  0  0  0  0  0  0  0  0  0
   -4.4130    2.3840   -1.3860 C   0  0  0  0  0  0  0  0  0  0  0  0
   -5.1130    2.0870   -0.0850 C   0  0  0  0  0  0  0  0  0  0  0  0
   -5.8730    0.7790   -0.2700 C   0  0  2  0  0  0  0  0  0  0  0  0
   -6.3840    0.2640    1.0540 C   0  0  0  0  0  0  0  0  0  0  0  0
   -7.3000   -0.9090    0.8430 C   0  0  0  0  0  0  0  0  0  0  0  0
   -8.3850   -0.5070   -0.1290 C   0  0  0  0  0  0  0  0  0  0  0  0
   -8.1800    0.9220   -0.5320 C   0  0  0  0  0  0  0  0  0  0  0  0
   -6.9430    1.0460   -1.1030 O   0  0  0  0  0  0  0  0  0  0  0  0
   -0.7150   -1.5020    0.3290 C   0  0  0  0  0  0  0  0  0  0  0  0
   -0.6720   -0.9030   -1.3220 Cl  0  0  0  0  0  0  0  0  0  0  0  0
  2  1  1  1
  2  3  1  0
  2  4  1  0
  5  4  1  1
  5  6  1  0
  5  9  1  0
  7  6  1  6
  7  8  1  0
  7 11  1  0
  8  9  1  0
  9 10  1  6
 10 11  1  0
 11 12  1  1
 12 13  1  0
 13 14  2  0
 13 15  1  0
 15 16  2  0
 15 34  1  0
 16 17  1  0
 17 18  2  0
 18 19  1  0
 19 20  1  0
 19 34  2  0
 20 21  2  0
 20 22  1  0
 23 22  1  1
 23 24  1  0
 23 28  1  0
 24 25  1  0
 25 26  1  0
 26 27  1  0
 28 27  1  1
 28 29  1  0
 28 33  1  0
 29 30  1  0
 30 31  1  0
 31 32  1  0
 32 33  1  0
 34 35  1  0
M  END
