
     RDKit          3D

 35 38  0  0  0  0  0  0  0  0999 V2000
   -4.6390   -0.6470    1.9950 C   0  0  0  0  0  0  0  0  0  0  0  0
   -3.4160   -0.2470    1.2460 C   0  0  1  0  0  0  0  0  0  0  0  0
   -2.7470   -1.4510    0.6210 C   0  0  1  0  0  0  0  0  0  0  0  0
   -3.3860   -1.9430   -0.6110 C   0  0  0  0  0  0  0  0  0  0  0  0
   -4.5840   -1.2590   -1.1100 C   0  0  0  0  0  0  0  0  0  0  0  0
   -4.8200    0.1360   -0.6810 C   0  0  1  0  0  0  0  0  0  0  0  0
   -5.0500    1.0960   -1.8510 C   0  0  0  0  0  0  0  0  0  0  0  0
   -6.0110    0.2380    0.0790 O   0  0  0  0  0  0  0  0  0  0  0  0
   -3.6670    0.7240    0.1250 C   0  0  1  0  0  0  0  0  0  0  0  0
   -4.0690    2.0430    0.7220 C   0  0  0  0  0  0  0  0  0  0  0  0
   -2.4890    0.8290   -0.7830 C   0  0  0  0  0  0  0  0  0  0  0  0
   -1.2020    0.3320   -0.1980 C   0  0  1  0  0  0  0  0  0  0  0  0
   -1.2960   -1.0140    0.4430 C   0  0  2  0  0  0  0  0  0  0  0  0
   -0.4630   -1.9780   -0.3050 C   0  0  0  0  0  0  0  0  0  0  0  0
    0.0930   -1.2390   -1.5020 C   0  0  0  0  0  0  0  0  0  0  0  0
   -0.1480    0.2350   -1.2460 C   0  0  1  0  0  0  0  0  0  0  0  0
   -0.5030    0.8700   -2.5540 C   0  0  0  0  0  0  0  0  0  0  0  0
    1.0900    0.8070   -0.8200 O   0  0  0  0  0  0  0  0  0  0  0  0
    1.1870    2.1420   -0.4600 C   0  0  0  0  0  0  0  0  0  0  0  0
    0.1770    2.9020   -0.4950 O   0  0  0  0  0  0  0  0  0  0  0  0
    2.4600    2.7600   -0.0170 C   0  0  0  0  0  0  0  0  0  0  0  0
    3.5220    1.8610    0.0630 O   0  0  0  0  0  0  0  0  0  0  0  0
    3.5540    0.7760    0.9000 C   0  0  0  0  0  0  0  0  0  0  0  0
    2.5290    0.4830    1.7580 C   0  0  0  0  0  0  0  0  0  0  0  0
    2.5890   -0.6290    2.6000 C   0  0  0  0  0  0  0  0  0  0  0  0
    3.6940   -1.4460    2.5730 C   0  0  0  0  0  0  0  0  0  0  0  0
    3.8450   -2.8540    3.5940 Cl  0  0  0  0  0  0  0  0  0  0  0  0
    4.7160   -1.1240    1.6950 C   0  0  0  0  0  0  0  0  0  0  0  0
    4.6590   -0.0390    0.8720 C   0  0  0  0  0  0  0  0  0  0  0  0
    5.7430    0.2660   -0.0290 C   0  0  0  0  0  0  0  0  0  0  0  0
    5.6940    1.2800   -0.8010 O   0  0  0  0  0  0  0  0  0  0  0  0
    6.8560   -0.5650   -0.0480 O   0  0  0  0  0  0  0  0  0  0  0  0
    7.8900   -0.2220   -0.9470 C   0  0  0  0  0  0  0  0  0  0  0  0
    9.0390   -1.2130   -0.8610 C   0  0  0  0  0  0  0  0  0  0  0  0
   10.3140   -0.7440   -2.0060 Cl  0  0  0  0  0  0  0  0  0  0  0  0
  2  1  1  6
  2  3  1  0
  2  9  1  0
  3  4  1  6
  3 13  1  0
  4  5  1  0
  5  6  1  0
  6  7  1  6
  6  8  1  0
  6  9  1  0
  9 10  1  1
  9 11  1  0
 12 11  1  6
 12 13  1  0
 12 16  1  0
 13 14  1  6
 14 15  1  0
 15 16  1  0
 16 17  1  6
 16 18  1  0
 18 19  1  0
 19 20  2  0
 19 21  1  0
 21 22  1  0
 22 23  1  0
 23 24  2  0
 23 29  1  0
 24 25  1  0
 25 26  2  0
 26 27  1  0
 26 28  1  0
 28 29  2  0
 29 30  1  0
 30 31  2  0
 30 32  1  0
 32 33  1  0
 33 34  1  0
 34 35  1  0
M  END
