
     RDKit          3D

 34 36  0  0  0  0  0  0  0  0999 V2000
    6.8510    2.9440   -2.3960 C   0  0  0  0  0  0  0  0  0  0  0  0
    6.9570    1.6120   -1.6250 C   0  0  2  0  0  0  0  0  0  0  0  0
    6.7870    1.8140   -0.2930 O   0  0  0  0  0  0  0  0  0  0  0  0
    5.8590    1.3980    0.5880 C   0  0  0  0  0  0  0  0  0  0  0  0
    6.0230    1.8110    1.9290 C   0  0  0  0  0  0  0  0  0  0  0  0
    5.1620    1.4650    2.9230 C   0  0  0  0  0  0  0  0  0  0  0  0
    4.0690    0.6590    2.5640 C   0  0  0  0  0  0  0  0  0  0  0  0
    3.8520    0.2240    1.2820 C   0  0  0  0  0  0  0  0  0  0  0  0
    2.7520   -0.5900    0.9000 N   0  0  0  0  0  0  0  0  0  0  0  0
    1.7650   -1.0680    1.7990 C   0  0  0  0  0  0  0  0  0  0  0  0
    1.7540   -0.8280    3.0210 O   0  0  0  0  0  0  0  0  0  0  0  0
    0.6880   -1.8890    1.3080 N   0  0  0  0  0  0  0  0  0  0  0  0
   -0.3390   -2.3950    2.2140 C   0  0  0  0  0  0  0  0  0  0  0  0
   -1.2980   -3.2050    1.3850 C   0  0  2  0  0  0  0  0  0  0  0  0
   -1.8480   -2.2770    0.2960 C   0  0  0  0  0  0  0  0  0  0  0  0
   -3.2820   -2.2390    0.4740 N   0  0  0  0  0  0  0  0  0  0  0  0
   -3.9820   -0.9400    0.6020 C   0  0  0  0  0  0  0  0  0  0  0  0
   -4.1310   -0.3670    1.8680 C   0  0  0  0  0  0  0  0  0  0  0  0
   -5.0210    1.1480    1.5130 S   0  0  0  0  0  0  0  0  0  0  0  0
   -5.0970    0.8570   -0.2580 C   0  0  0  0  0  0  0  0  0  0  0  0
   -5.7520    1.7930   -1.2310 C   0  0  0  0  0  0  0  0  0  0  0  0
   -7.1990    1.3850   -1.3650 C   0  0  0  0  0  0  0  0  0  0  0  0
   -7.9540    2.1960   -2.2600 N   0  0  0  0  0  0  0  0  0  0  0  0
   -8.1590    3.5440   -1.7890 C   0  0  0  0  0  0  0  0  0  0  0  0
   -9.0990    4.5180   -2.9220 Cl  0  0  0  0  0  0  0  0  0  0  0  0
   -4.4910   -0.2660   -0.4040 N   0  0  0  0  0  0  0  0  0  0  0  0
   -4.0010   -3.4810    0.5230 C   0  0  0  0  0  0  0  0  0  0  0  0
   -3.1160   -4.4900    1.2400 C   0  0  0  0  0  0  0  0  0  0  0  0
   -2.3290   -3.7480    2.1500 O   0  0  0  0  0  0  0  0  0  0  0  0
    4.7630    0.6000    0.2750 C   0  0  0  0  0  0  0  0  0  0  0  0
    4.5710    0.1810   -1.0140 O   0  0  0  0  0  0  0  0  0  0  0  0
    8.3380    1.0420   -1.8650 C   0  0  0  0  0  0  0  0  0  0  0  0
    8.7960    0.7220   -3.1680 N   0  0  0  0  0  0  0  0  0  0  0  0
    9.0700    0.8580   -0.8770 O   0  0  0  0  0  0  0  0  0  0  0  0
  2  1  1  6
  2  3  1  0
  2 32  1  0
  3  4  1  0
  4  5  2  0
  4 30  1  0
  5  6  1  0
  6  7  2  0
  7  8  1  0
  8  9  1  0
  8 30  2  0
  9 10  1  0
 10 11  2  0
 10 12  1  0
 12 13  1  0
 14 13  1  1
 14 15  1  0
 14 29  1  0
 15 16  1  0
 16 17  1  0
 16 27  1  0
 17 18  2  0
 17 26  1  0
 18 19  1  0
 19 20  1  0
 20 21  1  0
 20 26  2  0
 21 22  1  0
 22 23  1  0
 23 24  1  0
 24 25  1  0
 27 28  1  0
 28 29  1  0
 30 31  1  0
 32 33  1  0
 32 34  2  0
M  CHG  1  26   1
M  END
