
     RDKit          3D

 34 37  0  0  0  0  0  0  0  0999 V2000
    9.4060    0.2920    0.9080 C   0  0  0  0  0  0  0  0  0  0  0  0
    8.0780   -0.2060    0.3970 C   0  0  0  0  0  0  0  0  0  0  0  0
    7.1900   -0.8410    1.2330 C   0  0  0  0  0  0  0  0  0  0  0  0
    5.9590   -1.3000    0.7590 C   0  0  0  0  0  0  0  0  0  0  0  0
    5.1510   -1.9260    1.7040 O   0  0  0  0  0  0  0  0  0  0  0  0
    5.5940   -1.1310   -0.5590 C   0  0  0  0  0  0  0  0  0  0  0  0
    4.4000   -1.5780   -1.0060 O   0  0  0  0  0  0  0  0  0  0  0  0
    3.8070   -1.5320   -2.2480 C   0  0  1  0  0  0  0  0  0  0  0  0
    3.2410   -2.8080   -2.7620 C   0  0  0  0  0  0  0  0  0  0  0  0
    1.9220   -2.8780   -2.2680 O   0  0  0  0  0  0  0  0  0  0  0  0
    1.5720   -1.6810   -1.6350 C   0  0  0  0  0  0  0  0  0  0  0  0
    0.5700   -1.5350   -0.7910 C   0  0  0  0  0  0  0  0  0  0  0  0
    0.2030   -0.2950   -0.1320 C   0  0  0  0  0  0  0  0  0  0  0  0
    0.8570    0.7530   -0.3450 O   0  0  0  0  0  0  0  0  0  0  0  0
   -0.8850   -0.2550    0.7500 O   0  0  0  0  0  0  0  0  0  0  0  0
   -1.1950    0.9450    1.3590 C   0  0  2  0  0  0  0  0  0  0  0  0
   -1.3530    0.9080    2.8670 C   0  0  0  0  0  0  0  0  0  0  0  0
   -2.4260    1.9730    2.5970 C   0  0  2  0  0  0  0  0  0  0  0  0
   -3.4970    2.2060    3.8980 Cl  0  0  0  0  0  0  0  0  0  0  0  0
   -2.7280    1.3260    1.3260 C   0  0  1  0  0  0  0  0  0  0  0  0
   -2.7340    2.3420    0.1460 C   0  0  0  0  0  0  0  0  0  0  0  0
   -3.3960    0.0790    1.0970 C   0  0  0  0  0  0  0  0  0  0  0  0
   -4.7920   -0.2930    1.0130 C   0  0  1  0  0  0  0  0  0  0  0  0
   -5.4910   -0.0060    2.3780 C   0  0  0  0  0  0  0  0  0  0  0  0
   -5.6690    0.0980   -0.1020 C   0  0  1  0  0  0  0  0  0  0  0  0
   -7.0720   -0.5740    0.0960 C   0  0  0  0  0  0  0  0  0  0  0  0
   -7.9930   -0.0040   -0.9790 C   0  0  0  0  0  0  0  0  0  0  0  0
   -7.2880    0.8230   -1.9960 C   0  0  0  0  0  0  0  0  0  0  0  0
   -6.3980    1.7570   -1.5320 O   0  0  0  0  0  0  0  0  0  0  0  0
   -6.0970    1.5480   -0.1860 C   0  0  0  0  0  0  0  0  0  0  0  0
    2.5380   -0.6680   -2.1110 C   0  0  0  0  0  0  0  0  0  0  0  0
    6.4870   -0.4970   -1.3810 C   0  0  0  0  0  0  0  0  0  0  0  0
    7.7240   -0.0330   -0.9200 C   0  0  0  0  0  0  0  0  0  0  0  0
    8.6580    0.6460   -1.8470 C   0  0  0  0  0  0  0  0  0  0  0  0
  1  2  1  0
  2  3  2  0
  2 33  1  0
  3  4  1  0
  4  5  1  0
  4  6  2  0
  6  7  1  0
  6 32  1  0
  8  7  1  1
  8  9  1  0
  8 31  1  0
  9 10  1  0
 10 11  1  0
 11 12  2  3
 11 31  1  0
 12 13  1  0
 13 14  2  0
 13 15  1  0
 16 15  1  6
 16 17  1  0
 16 20  1  0
 17 18  1  0
 18 19  1  1
 18 20  1  0
 20 21  1  6
 20 22  1  0
 22 23  1  0
 23 24  1  1
 23 25  1  0
 25 26  1  1
 25 30  1  0
 26 27  1  0
 27 28  1  0
 28 29  1  0
 29 30  1  0
 32 33  2  0
 33 34  1  0
M  END
