
     RDKit          3D

 35 38  0  0  0  0  0  0  0  0999 V2000
   -2.6170   -3.2920    1.9080 C   0  0  0  0  0  0  0  0  0  0  0  0
   -3.2310   -2.7370    0.6610 C   0  0  0  0  0  0  0  0  0  0  0  0
   -2.4280   -1.5060    0.1500 C   0  0  1  0  0  0  0  0  0  0  0  0
   -2.5010   -0.5210    1.2850 C   0  0  0  0  0  0  0  0  0  0  0  0
   -3.4060    0.6450    1.0550 C   0  0  0  0  0  0  0  0  0  0  0  0
   -3.5530    1.3050   -0.0470 C   0  0  0  0  0  0  0  0  0  0  0  0
   -2.9130    1.0820   -1.2380 O   0  0  0  0  0  0  0  0  0  0  0  0
   -1.6170    1.0190   -1.6100 C   0  0  0  0  0  0  0  0  0  0  0  0
   -1.3610    0.5290   -2.7800 O   0  0  0  0  0  0  0  0  0  0  0  0
   -0.4160    1.4290   -0.8770 C   0  0  0  0  0  0  0  0  0  0  0  0
    0.7310    0.4290   -0.9620 C   0  0  2  0  0  0  0  0  0  0  0  0
    1.8800    1.1200   -0.7000 O   0  0  0  0  0  0  0  0  0  0  0  0
    2.5470    0.7560    0.4470 C   0  0  2  0  0  0  0  0  0  0  0  0
    2.6100    1.8360    1.4860 C   0  0  0  0  0  0  0  0  0  0  0  0
    2.7790    1.1160    2.8160 C   0  0  0  0  0  0  0  0  0  0  0  0
    3.8630    0.0780    2.7480 C   0  0  0  0  0  0  0  0  0  0  0  0
    4.6750    0.1440    1.4900 C   0  0  1  0  0  0  0  0  0  0  0  0
    5.6880   -0.9770    1.4010 C   0  0  0  0  0  0  0  0  0  0  0  0
    3.9220    0.2360    0.2210 C   0  0  0  0  0  0  0  0  0  0  0  0
    0.7310   -0.3670   -2.2090 C   0  0  0  0  0  0  0  0  0  0  0  0
    1.2630    0.2230   -3.3460 C   0  0  0  0  0  0  0  0  0  0  0  0
    1.8330    1.5830   -3.3850 C   0  0  0  0  0  0  0  0  0  0  0  0
    1.2470   -0.5390   -4.4980 C   0  0  0  0  0  0  0  0  0  0  0  0
    1.9160    0.1790   -5.9780 Cl  0  0  0  0  0  0  0  0  0  0  0  0
    0.7380   -1.8140   -4.5440 C   0  0  0  0  0  0  0  0  0  0  0  0
    0.2050   -2.4080   -3.4060 C   0  0  0  0  0  0  0  0  0  0  0  0
   -0.4320   -4.0600   -3.5070 Cl  0  0  0  0  0  0  0  0  0  0  0  0
    0.2070   -1.6720   -2.2410 C   0  0  0  0  0  0  0  0  0  0  0  0
   -0.3420   -2.3380   -1.0410 C   0  0  0  0  0  0  0  0  0  0  0  0
    0.0010   -3.6010   -0.9990 O   0  0  0  0  0  0  0  0  0  0  0  0
   -1.0990   -1.7990   -0.0690 O   0  0  0  0  0  0  0  0  0  0  0  0
   -4.5830    2.4140    0.1640 C   0  0  2  0  0  0  0  0  0  0  0  0
   -4.0520    3.5740    0.6340 O   0  0  0  0  0  0  0  0  0  0  0  0
   -5.4190    1.8050    1.3090 C   0  0  0  0  0  0  0  0  0  0  0  0
   -4.2720    1.2300    2.1040 C   0  0  0  0  0  0  0  0  0  0  0  0
  1  2  1  0
  3  2  1  1
  3  4  1  0
  3 31  1  0
  4  5  1  0
  5  6  2  0
  5 35  1  0
  6  7  1  0
  6 32  1  0
  7  8  1  0
  8  9  2  0
  8 10  1  0
 10 11  1  0
 11 12  1  6
 11 20  1  0
 13 12  1  6
 13 14  1  0
 13 19  1  0
 14 15  1  0
 15 16  1  0
 16 17  1  0
 17 18  1  6
 17 19  1  0
 20 21  2  0
 20 28  1  0
 21 22  1  0
 21 23  1  0
 23 24  1  0
 23 25  2  0
 25 26  1  0
 26 27  1  0
 26 28  2  0
 28 29  1  0
 29 30  2  0
 29 31  1  0
 32 33  1  1
 32 34  1  0
 34 35  1  0
M  END
