
     RDKit          3D

 35 36  0  0  0  0  0  0  0  0999 V2000
   -3.3240    1.2860   -4.0800 C   0  0  0  0  0  0  0  0  0  0  0  0
   -2.8430    0.1550   -3.2470 C   0  0  0  0  0  0  0  0  0  0  0  0
   -2.3070   -0.8180   -3.7900 O   0  0  0  0  0  0  0  0  0  0  0  0
   -2.9880    0.1720   -1.8490 N   0  0  0  0  0  0  0  0  0  0  0  0
   -2.5520   -0.8780   -0.9590 C   0  0  1  0  0  0  0  0  0  0  0  0
   -1.6480   -0.4320    0.1360 C   0  0  2  0  0  0  0  0  0  0  0  0
   -0.3070   -0.8350   -0.0580 O   0  0  0  0  0  0  0  0  0  0  0  0
    0.5730    0.2100    0.0300 C   0  0  1  0  0  0  0  0  0  0  0  0
    1.6210   -0.0170    1.1310 C   0  0  0  0  0  0  0  0  0  0  0  0
    2.7840    0.7800    0.6380 C   0  0  1  0  0  0  0  0  0  0  0  0
    4.0460   -0.0000    0.5610 C   0  0  0  0  0  0  0  0  0  0  0  0
    4.6210   -0.0700   -0.5400 O   0  0  0  0  0  0  0  0  0  0  0  0
    4.6170   -0.6620    1.6760 N   0  0  0  0  0  0  0  0  0  0  0  0
    5.8050   -1.4010    1.7740 C   0  0  0  0  0  0  0  0  0  0  0  0
    7.1430   -0.8320    1.7280 C   0  0  0  0  0  0  0  0  0  0  0  0
    7.6610    0.1310    0.3680 S   0  0  1  0  0  0  0  0  0  0  0  0
    9.2200    0.5130    0.5760 O   0  0  0  0  0  0  0  0  0  0  0  0
    7.5460   -0.7650   -1.0110 O   0  0  0  0  0  0  0  0  0  0  0  0
    6.8150    1.4710    0.2800 O   0  0  0  0  0  0  0  0  0  0  0  0
    2.4520    1.3330   -0.6390 N   0  0  0  0  0  0  0  0  0  0  0  0
    1.4900    0.3680   -1.1640 C   0  0  2  0  0  0  0  0  0  0  0  0
    0.7150    0.9340   -2.3250 C   0  0  0  0  0  0  0  0  0  0  0  0
    0.0130    2.0570   -1.9530 O   0  0  0  0  0  0  0  0  0  0  0  0
   -2.0230   -1.0780    1.3340 O   0  0  0  0  0  0  0  0  0  0  0  0
   -3.2120   -0.5100    1.7850 C   0  0  2  0  0  0  0  0  0  0  0  0
   -3.6010   -1.1460    3.0990 C   0  0  0  0  0  0  0  0  0  0  0  0
   -3.7770   -2.5320    2.9030 O   0  0  0  0  0  0  0  0  0  0  0  0
   -4.3330   -0.7720    0.8040 C   0  0  1  0  0  0  0  0  0  0  0  0
   -4.8160    0.4560    0.3790 O   0  0  0  0  0  0  0  0  0  0  0  0
   -6.3210    0.8090    0.5600 S   0  0  1  0  0  0  0  0  0  0  0  0
   -6.6390    1.9740   -0.7010 O   0  0  0  0  0  0  0  0  0  0  0  0
   -7.2930   -0.4490    0.0480 O   0  0  0  0  0  0  0  0  0  0  0  0
   -6.8230    1.4830    1.8620 O   0  0  0  0  0  0  0  0  0  0  0  0
   -3.8030   -1.5160   -0.3730 C   0  0  2  0  0  0  0  0  0  0  0  0
   -3.6070   -2.8720   -0.1260 O   0  0  0  0  0  0  0  0  0  0  0  0
  1  2  1  0
  2  3  2  0
  2  4  1  0
  5  4  1  1
  5  6  1  0
  5 34  1  0
  6  7  1  6
  6 24  1  0
  8  7  1  6
  8  9  1  0
  8 21  1  0
  9 10  1  0
 10 11  1  6
 10 20  1  0
 11 12  2  0
 11 13  1  0
 13 14  1  0
 14 15  1  0
 15 16  1  0
 16 17  1  1
 16 18  1  0
 16 19  1  0
 20 21  1  0
 21 22  1  6
 22 23  1  0
 24 25  1  0
 25 26  1  1
 25 28  1  0
 26 27  1  0
 28 29  1  6
 28 34  1  0
 29 30  1  0
 30 31  1  6
 30 32  1  0
 30 33  1  0
 34 35  1  1
M  CHG  1  20   1
M  END
