
     RDKit          3D

 32 35  0  0  0  0  0  0  0  0999 V2000
   -8.0260    2.7770    0.9070 C   0  0  0  0  0  0  0  0  0  0  0  0
   -6.8470    2.0150    0.4190 C   0  0  0  0  0  0  0  0  0  0  0  0
   -5.7680    2.7150   -0.0780 C   0  0  0  0  0  0  0  0  0  0  0  0
   -4.6590    2.0350   -0.5380 C   0  0  0  0  0  0  0  0  0  0  0  0
   -4.6310    0.6320   -0.5000 C   0  0  0  0  0  0  0  0  0  0  0  0
   -5.7000   -0.0700   -0.0060 C   0  0  0  0  0  0  0  0  0  0  0  0
   -6.8020    0.6260    0.4500 C   0  0  0  0  0  0  0  0  0  0  0  0
   -5.6190   -1.5500    0.0170 C   0  0  0  0  0  0  0  0  0  0  0  0
   -4.2760   -1.8420    0.5500 N   0  0  0  0  0  0  0  0  0  0  0  0
   -3.3120   -1.4970   -0.4580 C   0  0  2  0  0  0  0  0  0  0  0  0
   -1.9320   -1.6030    0.1860 C   0  0  0  0  0  0  0  0  0  0  0  0
   -1.8410   -1.9270    1.3880 O   0  0  0  0  0  0  0  0  0  0  0  0
   -0.7840   -1.3400   -0.5650 N   0  0  0  0  0  0  0  0  0  0  0  0
    0.5520   -1.3970   -0.1130 C   0  0  0  0  0  0  0  0  0  0  0  0
    0.9080   -1.7270    1.1740 C   0  0  0  0  0  0  0  0  0  0  0  0
    2.2480   -1.7730    1.5780 C   0  0  0  0  0  0  0  0  0  0  0  0
    2.5630   -2.1380    2.9930 C   0  0  0  0  0  0  0  0  0  0  0  0
    3.2790   -1.4910    0.7110 C   0  0  0  0  0  0  0  0  0  0  0  0
    4.6360   -1.5360    1.0880 N   0  0  0  0  0  0  0  0  0  0  0  0
    5.7330   -1.2340    0.2210 C   0  0  0  0  0  0  0  0  0  0  0  0
    5.7740    0.1450   -0.2840 C   0  0  0  0  0  0  0  0  0  0  0  0
    4.9610    1.1260    0.2280 C   0  0  0  0  0  0  0  0  0  0  0  0
    5.0690    2.3900   -0.3090 C   0  0  0  0  0  0  0  0  0  0  0  0
    5.9700    2.6760   -1.3390 C   0  0  0  0  0  0  0  0  0  0  0  0
    6.7580    1.6490   -1.8090 C   0  0  0  0  0  0  0  0  0  0  0  0
    7.7400    1.8700   -2.9020 C   0  0  0  0  0  0  0  0  0  0  0  0
    9.3280    2.3410   -2.2730 Cl  0  0  0  0  0  0  0  0  0  0  0  0
    6.6380    0.4290   -1.2750 N   0  0  0  0  0  0  0  0  0  0  0  0
    2.9000   -1.1640   -0.5720 C   0  0  0  0  0  0  0  0  0  0  0  0
    1.5980   -1.1140   -0.9850 C   0  0  0  0  0  0  0  0  0  0  0  0
    1.1780   -0.6890   -2.6350 Cl  0  0  0  0  0  0  0  0  0  0  0  0
   -3.4510   -0.1160   -0.9920 C   0  0  0  0  0  0  0  0  0  0  0  0
  1  2  1  0
  2  3  2  0
  2  7  1  0
  3  4  1  0
  4  5  2  0
  5  6  1  0
  5 32  1  0
  6  7  2  0
  6  8  1  0
  8  9  1  0
  9 10  1  0
 10 11  1  1
 10 32  1  0
 11 12  2  0
 11 13  1  0
 13 14  1  0
 14 15  2  0
 14 30  1  0
 15 16  1  0
 16 17  1  0
 16 18  2  0
 18 19  1  0
 18 29  1  0
 19 20  1  0
 20 21  1  0
 21 22  2  0
 21 28  1  0
 22 23  1  0
 23 24  2  0
 24 25  1  0
 25 26  1  0
 25 28  2  0
 26 27  1  0
 29 30  2  0
 30 31  1  0
M  CHG  1   9   1
M  END
