
     RDKit          3D

 32 35  0  0  0  0  0  0  0  0999 V2000
    0.7560    3.1390    3.2280 C   0  0  0  0  0  0  0  0  0  0  0  0
   -0.0280    2.6840    2.0500 C   0  0  0  0  0  0  0  0  0  0  0  0
   -0.8920    3.5630    1.4440 C   0  0  0  0  0  0  0  0  0  0  0  0
   -1.6070    3.1140    0.3510 C   0  0  0  0  0  0  0  0  0  0  0  0
   -2.5400    4.0690   -0.3000 C   0  0  0  0  0  0  0  0  0  0  0  0
   -1.4950    1.8480   -0.1500 C   0  0  0  0  0  0  0  0  0  0  0  0
   -2.2860    1.4270   -1.3080 C   0  0  0  0  0  0  0  0  0  0  0  0
   -1.8700    1.5540   -2.6080 C   0  0  0  0  0  0  0  0  0  0  0  0
   -2.6860    1.1260   -3.6520 C   0  0  0  0  0  0  0  0  0  0  0  0
   -2.3120    1.2330   -4.9730 C   0  0  0  0  0  0  0  0  0  0  0  0
   -3.1060    0.8160   -6.0170 C   0  0  0  0  0  0  0  0  0  0  0  0
   -2.5770    0.9770   -7.6970 Cl  0  0  0  0  0  0  0  0  0  0  0  0
   -4.3400    0.2600   -5.7590 C   0  0  0  0  0  0  0  0  0  0  0  0
   -4.7530    0.1360   -4.4420 C   0  0  0  0  0  0  0  0  0  0  0  0
   -3.9360    0.5630   -3.4040 C   0  0  0  0  0  0  0  0  0  0  0  0
   -4.3090    0.4550   -2.1170 N   0  0  0  0  0  0  0  0  0  0  0  0
   -3.5300    0.8650   -1.0910 C   0  0  0  0  0  0  0  0  0  0  0  0
   -3.9420    0.7350    0.0990 O   0  0  0  0  0  0  0  0  0  0  0  0
   -0.5980    0.9610    0.4920 C   0  0  0  0  0  0  0  0  0  0  0  0
   -0.4510   -0.3060   -0.0600 N   0  0  0  0  0  0  0  0  0  0  0  0
    0.0270   -1.5620    0.3020 C   0  0  0  0  0  0  0  0  0  0  0  0
    1.1210   -1.8080    1.2260 C   0  0  0  0  0  0  0  0  0  0  0  0
    2.2900   -2.3190    0.8740 C   0  0  0  0  0  0  0  0  0  0  0  0
    2.7580   -2.7510   -0.4920 C   0  0  0  0  0  0  0  0  0  0  0  0
    3.1480   -4.4820   -0.4230 Cl  0  0  0  0  0  0  0  0  0  0  0  0
    3.1690   -2.4250    2.0250 C   0  0  0  0  0  0  0  0  0  0  0  0
    4.4750   -2.6150    2.0660 C   0  0  0  0  0  0  0  0  0  0  0  0
    5.2060   -2.6960    3.3570 C   0  0  0  0  0  0  0  0  0  0  0  0
    6.2190   -1.6420    3.4450 N   0  0  0  0  0  0  0  0  0  0  0  0
    2.2810   -2.2680    3.1910 C   0  0  0  0  0  0  0  0  0  0  0  0
    1.1040   -1.6710    2.6270 N   0  0  0  0  0  0  0  0  0  0  0  0
    0.1240    1.3760    1.5740 C   0  0  0  0  0  0  0  0  0  0  0  0
  1  2  1  0
  2  3  2  0
  2 32  1  0
  3  4  1  0
  4  5  1  0
  4  6  2  0
  6  7  1  0
  6 19  1  0
  7  8  2  0
  7 17  1  0
  8  9  1  0
  9 10  2  0
  9 15  1  0
 10 11  1  0
 11 12  1  0
 11 13  2  0
 13 14  1  0
 14 15  2  0
 15 16  1  0
 16 17  1  0
 17 18  2  0
 19 20  1  0
 19 32  2  0
 20 21  1  0
 21 22  1  0
 22 23  2  0
 22 31  1  0
 23 24  1  0
 23 26  1  0
 24 25  1  0
 26 27  2  3
 26 30  1  0
 27 28  1  0
 28 29  1  0
 30 31  1  0
M  END
