
     RDKit          3D

 32 35  0  0  0  0  0  0  0  0999 V2000
   -5.4910   -3.0290    2.7940 C   0  0  0  0  0  0  0  0  0  0  0  0
   -4.7190   -1.9340    2.2780 O   0  0  0  0  0  0  0  0  0  0  0  0
   -5.3190   -0.7020    2.0500 C   0  0  0  0  0  0  0  0  0  0  0  0
   -6.5450   -0.6150    2.3180 O   0  0  0  0  0  0  0  0  0  0  0  0
   -4.5870    0.3850    1.5460 N   0  0  0  0  0  0  0  0  0  0  0  0
   -3.1850    0.2370    1.2540 C   0  0  0  0  0  0  0  0  0  0  0  0
   -2.5240    1.5080    1.8060 C   0  0  0  0  0  0  0  0  0  0  0  0
   -2.9880    2.6740    1.0020 C   0  0  1  0  0  0  0  0  0  0  0  0
   -1.9590    3.1610    0.0460 C   0  0  0  0  0  0  0  0  0  0  0  0
   -1.5010    2.2090   -0.9660 C   0  0  0  0  0  0  0  0  0  0  0  0
   -2.1870    2.1720   -2.1810 C   0  0  0  0  0  0  0  0  0  0  0  0
   -1.8140    1.3120   -3.1690 C   0  0  0  0  0  0  0  0  0  0  0  0
   -0.7420    0.4440   -3.0020 C   0  0  0  0  0  0  0  0  0  0  0  0
   -0.0510    0.4570   -1.8250 C   0  0  0  0  0  0  0  0  0  0  0  0
    1.1160   -0.4530   -1.5920 C   0  0  1  0  0  0  0  0  0  0  0  0
    1.5430   -1.0120   -2.9320 C   0  0  0  0  0  0  0  0  0  0  0  0
    1.9100    0.1310   -3.7880 C   0  0  0  0  0  0  0  0  0  0  0  0
    2.1790    1.0330   -4.4610 N   0  0  0  0  0  0  0  0  0  0  0  0
    2.1900    0.2560   -0.9460 N   0  0  0  0  0  0  0  0  0  0  0  0
    3.3710   -0.3810   -0.4270 C   0  0  0  0  0  0  0  0  0  0  0  0
    4.4020    0.2450    0.1750 N   0  0  0  0  0  0  0  0  0  0  0  0
    5.3280   -0.6470    0.5540 C   0  0  0  0  0  0  0  0  0  0  0  0
    6.5320   -0.5160    1.1900 N   0  0  0  0  0  0  0  0  0  0  0  0
    7.2750   -1.5910    1.4550 C   0  0  0  0  0  0  0  0  0  0  0  0
    8.5920   -1.4600    2.1490 C   0  0  0  0  0  0  0  0  0  0  0  0
    6.8090   -2.8310    1.0770 C   0  0  0  0  0  0  0  0  0  0  0  0
    5.6160   -3.0170    0.4410 C   0  0  0  0  0  0  0  0  0  0  0  0
    4.8470   -1.8750    0.1700 C   0  0  0  0  0  0  0  0  0  0  0  0
    3.6690   -1.6840   -0.4160 N   0  0  0  0  0  0  0  0  0  0  0  0
   -0.4550    1.3460   -0.8360 C   0  0  0  0  0  0  0  0  0  0  0  0
   -4.3310    2.4410    0.3460 C   0  0  0  0  0  0  0  0  0  0  0  0
   -5.2110    1.6610    1.3100 C   0  0  0  0  0  0  0  0  0  0  0  0
  1  2  1  0
  2  3  1  0
  3  4  2  0
  3  5  1  0
  5  6  1  0
  5 32  1  0
  6  7  1  0
  7  8  1  0
  8  9  1  6
  8 31  1  0
  9 10  1  0
 10 11  2  0
 10 30  1  0
 11 12  1  0
 12 13  2  0
 13 14  1  0
 14 15  1  0
 14 30  2  0
 15 16  1  6
 15 19  1  0
 16 17  1  0
 17 18  3  0
 19 20  1  0
 20 21  2  0
 20 29  1  0
 21 22  1  0
 22 23  2  0
 22 28  1  0
 23 24  1  0
 24 25  1  0
 24 26  2  0
 26 27  1  0
 27 28  2  0
 28 29  1  0
 31 32  1  0
M  END
