
     RDKit          3D

 32 35  0  0  0  0  0  0  0  0999 V2000
    4.8200    3.7430   -2.0650 C   0  0  0  0  0  0  0  0  0  0  0  0
    3.8620    2.8370   -1.3620 C   0  0  0  0  0  0  0  0  0  0  0  0
    3.9290    2.7080    0.0000 C   0  0  0  0  0  0  0  0  0  0  0  0
    3.0390    1.8700    0.6300 C   0  0  0  0  0  0  0  0  0  0  0  0
    2.0790    1.1490   -0.0290 C   0  0  0  0  0  0  0  0  0  0  0  0
    1.1090    0.2260    0.6940 C   0  0  1  0  0  0  0  0  0  0  0  0
   -0.2040    0.5580    0.2450 N   0  0  0  0  0  0  0  0  0  0  0  0
   -1.4660    0.1620    0.6600 C   0  0  0  0  0  0  0  0  0  0  0  0
   -1.7200   -0.4900    1.8420 C   0  0  0  0  0  0  0  0  0  0  0  0
   -0.6790   -0.7620    2.8560 C   0  0  0  0  0  0  0  0  0  0  0  0
   -3.0310   -0.8740    2.1170 C   0  0  0  0  0  0  0  0  0  0  0  0
   -3.3490   -1.7180    3.6400 Cl  0  0  0  0  0  0  0  0  0  0  0  0
   -4.0980   -0.6440    1.2840 C   0  0  0  0  0  0  0  0  0  0  0  0
   -5.4670   -1.0850    1.6500 C   0  0  0  0  0  0  0  0  0  0  0  0
   -3.8370    0.0120    0.1010 C   0  0  0  0  0  0  0  0  0  0  0  0
   -2.5520    0.4010   -0.1950 C   0  0  0  0  0  0  0  0  0  0  0  0
   -2.3620    1.1070   -1.5030 C   0  0  0  0  0  0  0  0  0  0  0  0
   -3.4180    0.7560   -2.4540 N   0  0  0  0  0  0  0  0  0  0  0  0
   -4.7170    1.1050   -1.9620 C   0  0  0  0  0  0  0  0  0  0  0  0
   -4.9440    0.2720   -0.7910 N   0  0  0  0  0  0  0  0  0  0  0  0
    1.3780   -1.1770    0.1730 C   0  0  0  0  0  0  0  0  0  0  0  0
    0.5720   -1.7040   -0.8140 C   0  0  0  0  0  0  0  0  0  0  0  0
    0.7170   -2.9300   -1.3830 C   0  0  0  0  0  0  0  0  0  0  0  0
    1.7530   -3.7100   -0.9380 C   0  0  0  0  0  0  0  0  0  0  0  0
    1.9840   -5.2910   -1.6360 Cl  0  0  0  0  0  0  0  0  0  0  0  0
    2.6050   -3.2230    0.0660 C   0  0  0  0  0  0  0  0  0  0  0  0
    2.4270   -1.9640    0.6270 C   0  0  0  0  0  0  0  0  0  0  0  0
    3.2500   -1.4740    1.6510 N   0  0  0  0  0  0  0  0  0  0  0  0
    4.4010   -2.0990    2.1750 C   0  0  0  0  0  0  0  0  0  0  0  0
    4.8020   -3.1950    1.7440 O   0  0  0  0  0  0  0  0  0  0  0  0
    2.0180    1.2850   -1.4050 C   0  0  0  0  0  0  0  0  0  0  0  0
    2.9190    2.1350   -2.0540 C   0  0  0  0  0  0  0  0  0  0  0  0
  1  2  1  0
  2  3  2  0
  2 32  1  0
  3  4  1  0
  4  5  2  0
  5  6  1  0
  5 31  1  0
  6  7  1  6
  6 21  1  0
  7  8  1  0
  8  9  2  0
  8 16  1  0
  9 10  1  0
  9 11  1  0
 11 12  1  0
 11 13  2  0
 13 14  1  0
 13 15  1  0
 15 16  2  0
 15 20  1  0
 16 17  1  0
 17 18  1  0
 18 19  1  0
 19 20  1  0
 21 22  2  0
 21 27  1  0
 22 23  1  0
 23 24  2  0
 24 25  1  0
 24 26  1  0
 26 27  2  0
 27 28  1  0
 28 29  1  0
 29 30  2  0
 31 32  2  0
M  CHG  1  18   1
M  END
