
     RDKit          3D

 32 35  0  0  0  0  0  0  0  0999 V2000
   -5.8830   -2.8740   -2.1270 C   0  0  0  0  0  0  0  0  0  0  0  0
   -4.6170   -2.5260   -1.4340 C   0  0  0  0  0  0  0  0  0  0  0  0
   -4.3560   -1.1950   -1.1120 C   0  0  0  0  0  0  0  0  0  0  0  0
   -3.1940   -0.8370   -0.4710 C   0  0  0  0  0  0  0  0  0  0  0  0
   -2.2610   -1.7940   -0.1330 C   0  0  0  0  0  0  0  0  0  0  0  0
   -2.5150   -3.1070   -0.4490 C   0  0  0  0  0  0  0  0  0  0  0  0
   -3.6830   -3.4710   -1.0940 C   0  0  0  0  0  0  0  0  0  0  0  0
   -3.9810   -5.1650   -1.4860 Cl  0  0  0  0  0  0  0  0  0  0  0  0
   -1.1450   -1.1430    0.5290 C   0  0  0  0  0  0  0  0  0  0  0  0
    0.0260   -1.7550    1.0380 N   0  0  0  0  0  0  0  0  0  0  0  0
    0.9470   -1.0780    1.9310 C   0  0  0  0  0  0  0  0  0  0  0  0
    2.0880   -2.0060    2.2860 C   0  0  0  0  0  0  0  0  0  0  0  0
    3.0800   -1.3710    3.2080 C   0  0  0  0  0  0  0  0  0  0  0  0
    3.7050   -0.2040    2.7010 N   0  0  0  0  0  0  0  0  0  0  0  0
    4.4790   -0.2410    1.5010 C   0  0  0  0  0  0  0  0  0  0  0  0
    4.5540   -1.3610    0.9530 O   0  0  0  0  0  0  0  0  0  0  0  0
    5.1150    0.8870    0.9620 N   0  0  0  0  0  0  0  0  0  0  0  0
    5.8900    0.9210   -0.2120 C   0  0  0  0  0  0  0  0  0  0  0  0
    6.1480   -0.1480   -1.0170 C   0  0  0  0  0  0  0  0  0  0  0  0
    6.9320   -0.0240   -2.1720 C   0  0  0  0  0  0  0  0  0  0  0  0
    7.4650    1.1750   -2.5270 C   0  0  0  0  0  0  0  0  0  0  0  0
    8.4610    1.3690   -3.9790 Cl  0  0  0  0  0  0  0  0  0  0  0  0
    7.2160    2.2640   -1.7270 C   0  0  0  0  0  0  0  0  0  0  0  0
    6.4490    2.1310   -0.6030 C   0  0  0  0  0  0  0  0  0  0  0  0
   -1.3780    0.1070    0.5900 N   0  0  0  0  0  0  0  0  0  0  0  0
   -2.6450    0.4410   -0.0080 C   0  0  0  0  0  0  0  0  0  0  0  0
   -3.1710    1.6500   -0.1130 C   0  0  0  0  0  0  0  0  0  0  0  0
   -2.4730    2.8350    0.4160 C   0  0  0  0  0  0  0  0  0  0  0  0
   -3.0890    3.9390    0.0640 C   0  0  0  0  0  0  0  0  0  0  0  0
   -4.2770    3.6430   -0.7450 C   0  0  0  0  0  0  0  0  0  0  0  0
   -4.4150    2.1530   -0.6960 C   0  0  2  0  0  0  0  0  0  0  0  0
   -5.5320    1.8290    0.2890 C   0  0  0  0  0  0  0  0  0  0  0  0
  1  2  1  0
  2  3  2  0
  2  7  1  0
  3  4  1  0
  4  5  2  0
  4 26  1  0
  5  6  1  0
  5  9  1  0
  6  7  2  0
  7  8  1  0
  9 10  1  0
  9 25  2  0
 10 11  1  0
 11 12  1  0
 12 13  1  0
 13 14  1  0
 14 15  1  0
 15 16  2  0
 15 17  1  0
 17 18  1  0
 18 19  2  0
 18 24  1  0
 19 20  1  0
 20 21  2  0
 21 22  1  0
 21 23  1  0
 23 24  2  0
 25 26  1  0
 26 27  2  3
 27 28  1  0
 27 31  1  0
 28 29  2  0
 29 30  1  0
 30 31  1  0
 31 32  1  1
M  CHG  1  25   1
M  END
