
     RDKit          3D

 33 35  0  0  0  0  0  0  0  0999 V2000
    8.3790    0.2670    0.0420 C   0  0  0  0  0  0  0  0  0  0  0  0
    7.6050   -1.0340    0.2340 C   0  0  0  0  0  0  0  0  0  0  0  0
    6.1870   -0.7090    0.5380 C   0  0  0  0  0  0  0  0  0  0  0  0
    5.6290   -0.5100    1.7600 C   0  0  0  0  0  0  0  0  0  0  0  0
    4.2930   -0.2370    1.5220 C   0  0  0  0  0  0  0  0  0  0  0  0
    4.1100   -0.2860    0.1570 C   0  0  0  0  0  0  0  0  0  0  0  0
    2.8160   -0.0510   -0.5260 C   0  0  0  0  0  0  0  0  0  0  0  0
    2.7620   -0.1250   -1.8580 C   0  0  0  0  0  0  0  0  0  0  0  0
    1.4470    0.1110   -2.5540 C   0  0  2  0  0  0  0  0  0  0  0  0
    1.5130   -0.5120   -3.7770 F   0  0  0  0  0  0  0  0  0  0  0  0
    1.1340    1.4250   -2.6420 F   0  0  0  0  0  0  0  0  0  0  0  0
    0.4160   -0.6760   -1.7020 C   0  0  0  0  0  0  0  0  0  0  0  0
    0.3670    0.0120   -0.4470 N   0  0  0  0  0  0  0  0  0  0  0  0
   -0.8210    0.4440    0.1620 C   0  0  0  0  0  0  0  0  0  0  0  0
   -0.6800    1.3150    1.1240 O   0  0  0  0  0  0  0  0  0  0  0  0
   -2.1560    0.0780   -0.1380 C   0  0  0  0  0  0  0  0  0  0  0  0
   -3.2680    0.9530    0.3840 C   0  0  0  0  0  0  0  0  0  0  0  0
   -4.3950    0.5450    0.6200 O   0  0  0  0  0  0  0  0  0  0  0  0
   -2.9920    2.3180    0.6050 N   0  0  0  0  0  0  0  0  0  0  0  0
   -4.0180    3.2280    1.1200 C   0  0  1  0  0  0  0  0  0  0  0  0
   -5.1590    3.2270    0.1330 C   0  0  0  0  0  0  0  0  0  0  0  0
   -4.5230    2.7630    2.4670 C   0  0  0  0  0  0  0  0  0  0  0  0
   -3.4000    4.5950    1.2580 C   0  0  0  0  0  0  0  0  0  0  0  0
   -2.5490   -1.1700   -0.4100 C   0  0  0  0  0  0  0  0  0  0  0  0
   -1.6330   -2.2770   -0.3770 C   0  0  0  0  0  0  0  0  0  0  0  0
   -1.9860   -3.4730   -0.7940 C   0  0  0  0  0  0  0  0  0  0  0  0
   -0.9390   -4.5540   -0.7120 C   0  0  0  0  0  0  0  0  0  0  0  0
   -3.3220   -3.7950   -1.3060 C   0  0  0  0  0  0  0  0  0  0  0  0
   -4.2610   -2.6680   -1.3420 C   0  0  0  0  0  0  0  0  0  0  0  0
   -5.5100   -2.9130   -1.8140 F   0  0  0  0  0  0  0  0  0  0  0  0
   -3.8930   -1.4670   -0.9280 C   0  0  0  0  0  0  0  0  0  0  0  0
    1.6140    0.2680    0.2530 C   0  0  0  0  0  0  0  0  0  0  0  0
    5.2600   -0.5670   -0.3610 O   0  0  0  0  0  0  0  0  0  0  0  0
  1  2  1  0
  2  3  1  0
  3  4  2  0
  3 33  1  0
  4  5  1  0
  5  6  2  0
  6  7  1  0
  6 33  1  0
  7  8  2  0
  7 32  1  0
  8  9  1  0
  9 10  1  6
  9 11  1  0
  9 12  1  0
 12 13  1  0
 13 14  1  0
 13 32  1  0
 14 15  2  0
 14 16  1  0
 16 17  1  0
 16 24  2  3
 17 18  2  0
 17 19  1  0
 19 20  1  0
 20 21  1  6
 20 22  1  0
 20 23  1  0
 24 25  1  0
 24 31  1  0
 25 26  2  0
 26 27  1  0
 26 28  1  0
 28 29  1  0
 29 30  1  0
 29 31  2  0
M  END
