
     RDKit          3D

 32 35  0  0  0  0  0  0  0  0999 V2000
   -7.5260    1.8450   -2.0170 N   0  0  0  0  0  0  0  0  0  0  0  0
   -8.0730    1.5630   -0.7050 C   0  0  0  0  0  0  0  0  0  0  0  0
   -7.9400    0.0900   -0.3570 C   0  0  0  0  0  0  0  0  0  0  0  0
   -6.5140   -0.3180   -0.3560 C   0  0  0  0  0  0  0  0  0  0  0  0
   -5.8050   -0.2140    0.8030 C   0  0  0  0  0  0  0  0  0  0  0  0
   -4.4580   -0.5890    0.8410 C   0  0  0  0  0  0  0  0  0  0  0  0
   -3.8080   -1.0660   -0.2630 C   0  0  0  0  0  0  0  0  0  0  0  0
   -2.4210   -1.5090   -0.3500 C   0  0  0  0  0  0  0  0  0  0  0  0
   -1.7680   -1.3190    0.8960 N   0  0  0  0  0  0  0  0  0  0  0  0
   -1.6130    0.1210    1.2580 C   0  0  0  0  0  0  0  0  0  0  0  0
   -0.1970    0.6330    1.0160 C   0  0  0  0  0  0  0  0  0  0  0  0
    0.9050    0.0920    1.8690 C   0  0  0  0  0  0  0  0  0  0  0  0
    1.5510   -1.0790    1.3990 N   0  0  0  0  0  0  0  0  0  0  0  0
    2.8220   -1.1980    0.9100 C   0  0  0  0  0  0  0  0  0  0  0  0
    3.2070   -2.4410    0.6150 O   0  0  0  0  0  0  0  0  0  0  0  0
    3.8110   -0.1590    0.6650 C   0  0  0  0  0  0  0  0  0  0  0  0
    3.7390    1.2050    0.6960 C   0  0  0  0  0  0  0  0  0  0  0  0
    4.9700    1.7070    0.3140 C   0  0  0  0  0  0  0  0  0  0  0  0
    5.7520    0.6340    0.0610 C   0  0  0  0  0  0  0  0  0  0  0  0
    7.1650    0.6700   -0.3830 C   0  0  0  0  0  0  0  0  0  0  0  0
    7.8590   -0.4920   -0.6090 C   0  0  0  0  0  0  0  0  0  0  0  0
    9.1940   -0.4410   -1.0280 C   0  0  0  0  0  0  0  0  0  0  0  0
    9.8550    0.7500   -1.2270 C   0  0  0  0  0  0  0  0  0  0  0  0
   11.5240    0.7920   -1.7500 Cl  0  0  0  0  0  0  0  0  0  0  0  0
    9.1330    1.9070   -0.9910 C   0  0  0  0  0  0  0  0  0  0  0  0
    7.8150    1.8660   -0.5780 C   0  0  0  0  0  0  0  0  0  0  0  0
    5.0790   -0.5020    0.2640 N   0  0  0  0  0  0  0  0  0  0  0  0
    0.7370   -2.3720    1.3400 C   0  0  0  0  0  0  0  0  0  0  0  0
   -0.6030   -1.9690    1.1040 C   0  0  0  0  0  0  0  0  0  0  0  0
   -4.5620   -1.1630   -1.4400 C   0  0  0  0  0  0  0  0  0  0  0  0
   -3.8420   -1.7610   -2.9200 Cl  0  0  0  0  0  0  0  0  0  0  0  0
   -5.8810   -0.7980   -1.4840 C   0  0  0  0  0  0  0  0  0  0  0  0
  1  2  1  0
  2  3  1  0
  3  4  1  0
  4  5  2  0
  4 32  1  0
  5  6  1  0
  6  7  2  0
  7  8  1  0
  7 30  1  0
  8  9  1  0
  9 10  1  0
  9 29  1  0
 10 11  1  0
 11 12  1  0
 12 13  1  0
 13 14  1  0
 13 28  1  0
 14 15  2  0
 14 16  1  0
 16 17  2  0
 16 27  1  0
 17 18  1  0
 18 19  2  0
 19 20  1  0
 19 27  1  0
 20 21  2  0
 20 26  1  0
 21 22  1  0
 22 23  2  0
 23 24  1  0
 23 25  1  0
 25 26  2  0
 28 29  1  0
 30 31  1  0
 30 32  2  0
M  CHG  1   1   1
M  END
