
     RDKit          3D

 32 35  0  0  0  0  0  0  0  0999 V2000
   -5.0620   -2.2200   -1.0710 C   0  0  0  0  0  0  0  0  0  0  0  0
   -4.3110   -1.0560   -0.5010 C   0  0  0  0  0  0  0  0  0  0  0  0
   -3.1540   -1.2790    0.2160 C   0  0  0  0  0  0  0  0  0  0  0  0
   -2.4180   -0.2490    0.7640 C   0  0  0  0  0  0  0  0  0  0  0  0
   -1.1550   -0.4840    1.5480 C   0  0  0  0  0  0  0  0  0  0  0  0
   -0.8360   -1.9390    1.6180 C   0  0  0  0  0  0  0  0  0  0  0  0
    0.3610   -2.1550    2.3570 N   0  0  0  0  0  0  0  0  0  0  0  0
    1.6800   -1.7690    1.9430 C   0  0  0  0  0  0  0  0  0  0  0  0
    2.7310   -1.8020    2.8410 C   0  0  0  0  0  0  0  0  0  0  0  0
    4.0040   -1.4490    2.4550 C   0  0  0  0  0  0  0  0  0  0  0  0
    4.3060   -1.0490    1.1690 C   0  0  0  0  0  0  0  0  0  0  0  0
    5.6950   -0.6840    0.8090 C   0  0  0  0  0  0  0  0  0  0  0  0
    6.5810   -0.9190    1.6640 O   0  0  0  0  0  0  0  0  0  0  0  0
    6.0630   -0.1010   -0.4140 N   0  0  0  0  0  0  0  0  0  0  0  0
    7.3470    0.2710   -0.8300 C   0  0  0  0  0  0  0  0  0  0  0  0
    8.4730    0.1180   -0.0960 C   0  0  0  0  0  0  0  0  0  0  0  0
    9.7350    0.5170   -0.5820 C   0  0  0  0  0  0  0  0  0  0  0  0
    9.8250    1.0740   -1.8330 C   0  0  0  0  0  0  0  0  0  0  0  0
    8.6980    1.2150   -2.5390 N   0  0  0  0  0  0  0  0  0  0  0  0
    7.4930    0.8410   -2.0910 C   0  0  0  0  0  0  0  0  0  0  0  0
    6.1040    1.0940   -3.1430 Cl  0  0  0  0  0  0  0  0  0  0  0  0
    3.2760   -1.0110    0.2670 C   0  0  0  0  0  0  0  0  0  0  0  0
    1.9770   -1.3720    0.6620 C   0  0  0  0  0  0  0  0  0  0  0  0
   -2.8810    1.0210    0.5700 C   0  0  0  0  0  0  0  0  0  0  0  0
   -1.9570    2.3420    1.2610 Cl  0  0  0  0  0  0  0  0  0  0  0  0
   -4.0500    1.2940   -0.1510 C   0  0  0  0  0  0  0  0  0  0  0  0
   -4.7620    0.2490   -0.6850 C   0  0  0  0  0  0  0  0  0  0  0  0
   -5.9870    0.2310   -1.4640 C   0  0  0  0  0  0  0  0  0  0  0  0
   -6.8810    1.3980   -1.3550 C   0  0  0  0  0  0  0  0  0  0  0  0
   -6.5600    2.3730   -0.2760 C   0  0  0  0  0  0  0  0  0  0  0  0
   -5.4620    3.1980   -0.7580 N   0  0  0  0  0  0  0  0  0  0  0  0
   -4.2620    2.7340   -0.1720 C   0  0  0  0  0  0  0  0  0  0  0  0
  1  2  1  0
  2  3  2  0
  2 27  1  0
  3  4  1  0
  4  5  1  0
  4 24  2  0
  5  6  1  0
  6  7  1  0
  7  8  1  0
  8  9  2  0
  8 23  1  0
  9 10  1  0
 10 11  2  0
 11 12  1  0
 11 22  1  0
 12 13  2  0
 12 14  1  0
 14 15  1  0
 15 16  2  0
 15 20  1  0
 16 17  1  0
 17 18  2  0
 18 19  1  0
 19 20  2  0
 20 21  1  0
 22 23  2  0
 24 25  1  0
 24 26  1  0
 26 27  2  0
 26 32  1  0
 27 28  1  0
 28 29  1  0
 29 30  1  0
 30 31  1  0
 31 32  1  0
M  CHG  1  31   1
M  END
