
     RDKit          3D

 23 23  0  0  0  0  0  0  0  0999 V2000
    3.6450    0.4850   -1.3890 O   0  0  0  0  0  0  0  0  0  0  0  0
    3.9590    0.2780   -0.1980 C   0  0  0  0  0  0  0  0  0  0  0  0
    3.2760   -0.6740    0.5250 O   0  0  0  0  0  0  0  0  0  0  0  0
    2.2200   -1.4710    0.0590 C   0  0  0  0  0  0  0  0  0  0  0  0
    1.0100   -0.6450   -0.3830 C   0  0  2  0  0  0  0  0  0  0  0  0
    0.6010    0.0670    0.7240 O   0  0  0  0  0  0  0  0  0  0  0  0
   -0.0460   -1.5410   -0.9800 C   0  0  0  0  0  0  0  0  0  0  0  0
   -1.1720   -0.9430   -1.4240 O   0  0  0  0  0  0  0  0  0  0  0  0
   -1.9730   -0.2840   -0.5180 C   0  0  1  0  0  0  0  0  0  0  0  0
   -2.1250    1.1320   -1.0090 C   0  0  0  0  0  0  0  0  0  0  0  0
   -2.4700    2.0490   -0.1120 O   0  0  0  0  0  0  0  0  0  0  0  0
   -3.0550    1.7280    1.0560 C   0  0  0  0  0  0  0  0  0  0  0  0
   -3.9820    0.5940    1.1150 C   0  0  2  0  0  0  0  0  0  0  0  0
   -3.4540   -0.4640    1.8930 O   0  0  0  0  0  0  0  0  0  0  0  0
   -4.4090    0.0460   -0.2240 C   0  0  2  0  0  0  0  0  0  0  0  0
   -5.6200   -0.6490   -0.0770 O   0  0  0  0  0  0  0  0  0  0  0  0
   -3.3570   -0.9410   -0.6580 C   0  0  0  0  0  0  0  0  0  0  0  0
    5.0650    1.0730    0.3950 C   0  0  1  0  0  0  0  0  0  0  0  0
    5.2980    0.7350    1.7170 O   0  0  0  0  0  0  0  0  0  0  0  0
    6.3350    0.8020   -0.3970 C   0  0  2  0  0  0  0  0  0  0  0  0
    6.7020   -0.9380   -0.3020 Cl  0  0  0  0  0  0  0  0  0  0  0  0
    7.6930    1.6730    0.3440 Cl  0  0  0  0  0  0  0  0  0  0  0  0
    6.1240    1.3520   -2.0590 Cl  0  0  0  0  0  0  0  0  0  0  0  0
  1  2  2  0
  2  3  1  0
  2 18  1  0
  3  4  1  0
  4  5  1  0
  5  6  1  1
  5  7  1  0
  7  8  1  0
  9  8  1  6
  9 10  1  0
  9 17  1  0
 10 11  1  0
 11 12  1  0
 12 13  1  0
 13 14  1  1
 13 15  1  0
 15 16  1  1
 15 17  1  0
 18 19  1  1
 18 20  1  0
 20 21  1  6
 20 22  1  0
 20 23  1  0
M  END
