
     RDKit          3D

 23 24  0  0  0  0  0  0  0  0999 V2000
   -5.3440    1.0690   -0.8900 O   0  0  0  0  0  0  0  0  0  0  0  0
   -4.2570    1.3450   -0.0720 C   0  0  0  0  0  0  0  0  0  0  0  0
   -2.9860    0.6890   -0.5630 C   0  0  1  0  0  0  0  0  0  0  0  0
   -1.9150    0.9880    0.2640 O   0  0  0  0  0  0  0  0  0  0  0  0
   -0.8040    0.1720   -0.0700 C   0  0  1  0  0  0  0  0  0  0  0  0
    0.3340    0.5960    0.5120 O   0  0  0  0  0  0  0  0  0  0  0  0
    1.4410    0.8680   -0.2040 C   0  0  2  0  0  0  0  0  0  0  0  0
    1.4020    2.0970   -1.0780 C   0  0  0  0  0  0  0  0  0  0  0  0
    0.1320    2.0420   -2.2990 Cl  0  0  0  0  0  0  0  0  0  0  0  0
    1.9600   -0.1760   -0.9450 O   0  0  0  0  0  0  0  0  0  0  0  0
    2.9210   -0.8340   -0.2420 C   0  0  1  0  0  0  0  0  0  0  0  0
    4.2410   -0.9490   -0.9680 C   0  0  0  0  0  0  0  0  0  0  0  0
    4.9210    0.6490   -1.3490 Cl  0  0  0  0  0  0  0  0  0  0  0  0
    3.1160   -0.1830    1.0840 C   0  0  1  0  0  0  0  0  0  0  0  0
    4.4500   -0.1240    1.4760 O   0  0  0  0  0  0  0  0  0  0  0  0
    2.5270    1.1810    0.8550 C   0  0  2  0  0  0  0  0  0  0  0  0
    1.9560    1.6170    2.0350 O   0  0  0  0  0  0  0  0  0  0  0  0
   -1.1470   -1.1700    0.6070 C   0  0  2  0  0  0  0  0  0  0  0  0
   -0.0920   -2.0510    0.5570 O   0  0  0  0  0  0  0  0  0  0  0  0
   -2.4180   -1.6890    0.0510 C   0  0  1  0  0  0  0  0  0  0  0  0
   -3.2290   -2.1470    1.1130 O   0  0  0  0  0  0  0  0  0  0  0  0
   -3.1970   -0.7540   -0.8030 C   0  0  1  0  0  0  0  0  0  0  0  0
   -4.9290   -1.2000   -0.6010 Cl  0  0  0  0  0  0  0  0  0  0  0  0
  1  2  1  0
  3  2  1  1
  3  4  1  0
  3 22  1  0
  4  5  1  0
  5  6  1  1
  5 18  1  0
  6  7  1  0
  7  8  1  6
  7 10  1  0
  7 16  1  0
  8  9  1  0
 10 11  1  0
 11 12  1  6
 11 14  1  0
 12 13  1  0
 14 15  1  6
 14 16  1  0
 16 17  1  1
 18 19  1  6
 18 20  1  0
 20 21  1  1
 20 22  1  0
 22 23  1  1
M  END
