
     RDKit          3D

 22 23  0  0  0  0  0  0  0  0999 V2000
    4.2990    0.4270    1.1880 O   0  0  0  0  0  0  0  0  0  0  0  0
    3.4640   -0.6850    1.1580 C   0  0  0  0  0  0  0  0  0  0  0  0
    2.9870   -1.0210   -0.2280 C   0  0  1  0  0  0  0  0  0  0  0  0
    2.1730   -2.1210   -0.1770 O   0  0  0  0  0  0  0  0  0  0  0  0
    2.4930    0.1260   -1.0120 C   0  0  0  0  0  0  0  0  0  0  0  0
    1.3430    0.8990   -0.4720 C   0  0  2  0  0  0  0  0  0  0  0  0
    1.5690    1.4780    0.7810 O   0  0  0  0  0  0  0  0  0  0  0  0
    0.0310    0.1480   -0.4380 C   0  0  1  0  0  0  0  0  0  0  0  0
    0.0390   -0.8110    0.5040 O   0  0  0  0  0  0  0  0  0  0  0  0
   -0.8400   -0.7900    1.5150 C   0  0  1  0  0  0  0  0  0  0  0  0
   -0.3240   -0.2270    2.7070 O   0  0  0  0  0  0  0  0  0  0  0  0
   -2.1570   -0.1340    1.2610 C   0  0  0  0  0  0  0  0  0  0  0  0
   -2.2210    0.3060   -0.1620 C   0  0  1  0  0  0  0  0  0  0  0  0
   -2.4340   -0.8580   -1.1030 C   0  0  0  0  0  0  0  0  0  0  0  0
   -3.9360   -0.9330   -1.1480 C   0  0  0  0  0  0  0  0  0  0  0  0
   -4.4450    0.3020   -0.8690 O   0  0  0  0  0  0  0  0  0  0  0  0
   -3.4490    1.1290   -0.4290 C   0  0  0  0  0  0  0  0  0  0  0  0
   -1.0580    1.0020   -0.4370 O   0  0  0  0  0  0  0  0  0  0  0  0
    1.2300    2.1250   -1.4060 C   0  0  2  0  0  0  0  0  0  0  0  0
   -0.0740    3.1860   -0.9520 Cl  0  0  0  0  0  0  0  0  0  0  0  0
    1.1390    1.5350   -3.0670 Cl  0  0  0  0  0  0  0  0  0  0  0  0
    2.7670    3.0060   -1.2270 Cl  0  0  0  0  0  0  0  0  0  0  0  0
  1  2  1  0
  2  3  1  0
  3  4  1  1
  3  5  1  0
  5  6  1  0
  6  7  1  1
  6  8  1  0
  6 19  1  0
  8  9  1  1
  8 18  1  0
  9 10  1  0
 10 11  1  1
 10 12  1  0
 13 12  1  1
 13 14  1  0
 13 17  1  0
 13 18  1  0
 14 15  1  0
 15 16  1  0
 16 17  1  0
 19 20  1  1
 19 21  1  0
 19 22  1  0
M  END
