
     RDKit          3D

 23 23  0  0  0  0  0  0  0  0999 V2000
    4.1210   -0.9520    0.8110 O   0  0  0  0  0  0  0  0  0  0  0  0
    3.7170    0.0580   -0.0700 C   0  0  0  0  0  0  0  0  0  0  0  0
    2.2060    0.0500   -0.0760 C   0  0  1  0  0  0  0  0  0  0  0  0
    1.6610    1.0070   -0.9120 O   0  0  0  0  0  0  0  0  0  0  0  0
    2.0230    2.2960   -0.6270 C   0  0  0  0  0  0  0  0  0  0  0  0
    0.7820    3.1300   -0.3670 C   0  0  2  0  0  0  0  0  0  0  0  0
    1.0100    4.0670    0.6670 O   0  0  0  0  0  0  0  0  0  0  0  0
   -0.3690    2.2750    0.0680 C   0  0  0  0  0  0  0  0  0  0  0  0
   -0.8760    1.4950   -0.9790 O   0  0  0  0  0  0  0  0  0  0  0  0
   -2.2170    1.1340   -0.7130 C   0  0  0  0  0  0  0  0  0  0  0  0
   -2.2070   -0.2930   -0.2460 C   0  0  2  0  0  0  0  0  0  0  0  0
   -3.3510   -0.6160    0.6870 C   0  0  1  0  0  0  0  0  0  0  0  0
   -3.3330    0.0860    1.8580 O   0  0  0  0  0  0  0  0  0  0  0  0
   -4.6870   -0.5070    0.0290 C   0  0  2  0  0  0  0  0  0  0  0  0
   -5.9180   -0.9220    1.2720 Cl  0  0  0  0  0  0  0  0  0  0  0  0
   -4.8230   -1.7580   -1.2420 Cl  0  0  0  0  0  0  0  0  0  0  0  0
   -5.0390    1.1010   -0.5850 Cl  0  0  0  0  0  0  0  0  0  0  0  0
   -1.0010   -0.5860    0.4000 O   0  0  0  0  0  0  0  0  0  0  0  0
   -0.4540   -1.7580   -0.1180 C   0  0  0  0  0  0  0  0  0  0  0  0
    1.0020   -1.9120    0.1820 C   0  0  1  0  0  0  0  0  0  0  0  0
    1.3430   -3.3940   -0.0240 C   0  0  0  0  0  0  0  0  0  0  0  0
    2.6720   -3.6450    0.3060 O   0  0  0  0  0  0  0  0  0  0  0  0
    1.8340   -1.1930   -0.6340 O   0  0  0  0  0  0  0  0  0  0  0  0
  1  2  1  0
  3  2  1  6
  3  4  1  0
  3 23  1  0
  4  5  1  0
  5  6  1  0
  6  7  1  1
  6  8  1  0
  8  9  1  0
  9 10  1  0
 11 10  1  1
 11 12  1  0
 11 18  1  0
 12 13  1  1
 12 14  1  0
 14 15  1  1
 14 16  1  0
 14 17  1  0
 18 19  1  0
 19 20  1  0
 20 21  1  6
 20 23  1  0
 21 22  1  0
M  END
