
     RDKit          3D

 23 23  0  0  0  0  0  0  0  0999 V2000
   -1.1440   -2.6180   -0.5300 C   0  0  0  0  0  0  0  0  0  0  0  0
   -0.1460   -1.7430    0.2470 C   0  0  1  0  0  0  0  0  0  0  0  0
   -0.8630   -0.9930    1.2910 C   0  0  0  0  0  0  0  0  0  0  0  0
   -1.6770   -0.0390    0.8630 O   0  0  0  0  0  0  0  0  0  0  0  0
   -2.7930   -0.1580    0.1610 C   0  0  2  0  0  0  0  0  0  0  0  0
   -2.5540    0.4500   -1.1110 O   0  0  0  0  0  0  0  0  0  0  0  0
   -3.9910    0.5800    0.7760 C   0  0  2  0  0  0  0  0  0  0  0  0
   -5.1310    0.4280    0.0120 O   0  0  0  0  0  0  0  0  0  0  0  0
   -3.7130    2.0640    0.8860 C   0  0  2  0  0  0  0  0  0  0  0  0
   -3.3920    2.8190   -0.6770 Cl  0  0  0  0  0  0  0  0  0  0  0  0
   -2.3960    2.3950    2.0310 Cl  0  0  0  0  0  0  0  0  0  0  0  0
   -5.2030    2.8070    1.5400 Cl  0  0  0  0  0  0  0  0  0  0  0  0
    0.7620   -2.6860    0.7620 O   0  0  0  0  0  0  0  0  0  0  0  0
    1.6270   -2.9680   -0.2660 C   0  0  0  0  0  0  0  0  0  0  0  0
    1.5500   -1.9780   -1.2140 O   0  0  0  0  0  0  0  0  0  0  0  0
    0.6520   -1.0050   -0.7370 C   0  0  2  0  0  0  0  0  0  0  0  0
    1.2830    0.2730   -0.3640 C   0  0  2  0  0  0  0  0  0  0  0  0
    1.8550    0.7850   -1.5580 O   0  0  0  0  0  0  0  0  0  0  0  0
    2.3560    0.2800    0.6390 C   0  0  1  0  0  0  0  0  0  0  0  0
    3.4910   -0.4400    0.2090 O   0  0  0  0  0  0  0  0  0  0  0  0
    2.7670    1.6590    1.0250 C   0  0  0  0  0  0  0  0  0  0  0  0
    3.2840    2.4900   -0.1180 C   0  0  0  0  0  0  0  0  0  0  0  0
    3.6660    3.7520    0.4390 O   0  0  0  0  0  0  0  0  0  0  0  0
  2  1  1  6
  2  3  1  0
  2 13  1  0
  2 16  1  0
  3  4  1  0
  4  5  1  0
  5  6  1  6
  5  7  1  0
  7  8  1  6
  7  9  1  0
  9 10  1  6
  9 11  1  0
  9 12  1  0
 13 14  1  0
 14 15  1  0
 16 15  1  1
 16 17  1  0
 17 18  1  6
 17 19  1  0
 19 20  1  6
 19 21  1  0
 21 22  1  0
 22 23  1  0
M  END
