
     RDKit          3D

 22 22  0  0  0  0  0  0  0  0999 V2000
   -0.5920    3.4600    1.0110 O   0  0  0  0  0  0  0  0  0  0  0  0
   -0.3180    2.6490    0.0860 C   0  0  0  0  0  0  0  0  0  0  0  0
   -1.4190    2.2850   -0.8340 C   0  0  0  0  0  0  0  0  0  0  0  0
   -2.2180    1.1050   -0.3240 C   0  0  2  0  0  0  0  0  0  0  0  0
   -3.1110    1.5470    0.8350 C   0  0  0  0  0  0  0  0  0  0  0  0
   -3.8440    0.4880    1.3380 O   0  0  0  0  0  0  0  0  0  0  0  0
   -1.3640    0.1490    0.1340 O   0  0  0  0  0  0  0  0  0  0  0  0
   -1.7780   -1.1480    0.0290 C   0  0  1  0  0  0  0  0  0  0  0  0
   -2.0960   -1.5970   -1.3710 C   0  0  0  0  0  0  0  0  0  0  0  0
   -0.7170   -1.4780   -2.4680 Cl  0  0  0  0  0  0  0  0  0  0  0  0
   -0.6210   -2.0310    0.5200 C   0  0  2  0  0  0  0  0  0  0  0  0
   -0.7960   -2.2440    1.9080 O   0  0  0  0  0  0  0  0  0  0  0  0
    0.5600   -1.3380    0.3720 O   0  0  0  0  0  0  0  0  0  0  0  0
    1.6540   -2.1030    0.0860 C   0  0  0  0  0  0  0  0  0  0  0  0
    2.8980   -1.3850    0.5000 C   0  0  2  0  0  0  0  0  0  0  0  0
    3.3750   -1.9830    2.1080 Cl  0  0  0  0  0  0  0  0  0  0  0  0
    2.7020    0.1160    0.6300 C   0  0  2  0  0  0  0  0  0  0  0  0
    1.5430    0.3780    1.3330 O   0  0  0  0  0  0  0  0  0  0  0  0
    2.8260    0.8440   -0.6580 C   0  0  1  0  0  0  0  0  0  0  0  0
    3.1870   -0.0200   -1.7000 O   0  0  0  0  0  0  0  0  0  0  0  0
    1.5770    1.5790   -1.0810 C   0  0  0  0  0  0  0  0  0  0  0  0
    0.9600    2.1740    0.0060 O   0  0  0  0  0  0  0  0  0  0  0  0
  1  2  2  0
  2  3  1  0
  2 22  1  0
  3  4  1  0
  4  5  1  1
  4  7  1  0
  5  6  1  0
  7  8  1  0
  8  9  1  6
  8 11  1  0
  9 10  1  0
 11 12  1  1
 11 13  1  0
 13 14  1  0
 14 15  1  0
 15 16  1  1
 15 17  1  0
 17 18  1  6
 17 19  1  0
 19 20  1  6
 19 21  1  0
 21 22  1  0
M  END
