
     RDKit          3D

 22 22  0  0  0  0  0  0  0  0999 V2000
    5.7740    1.3590   -0.0250 C   0  0  0  0  0  0  0  0  0  0  0  0
    4.8530    0.9470   -1.1420 C   0  0  1  0  0  0  0  0  0  0  0  0
    5.6400    0.7260   -2.2700 O   0  0  0  0  0  0  0  0  0  0  0  0
    4.1610   -0.1980   -0.7590 O   0  0  0  0  0  0  0  0  0  0  0  0
    2.7510    0.0650   -0.7900 C   0  0  1  0  0  0  0  0  0  0  0  0
    2.2630   -0.9130   -1.8320 C   0  0  0  0  0  0  0  0  0  0  0  0
    2.6330   -2.6080   -1.3820 Cl  0  0  0  0  0  0  0  0  0  0  0  0
    2.1680   -0.2160    0.5550 C   0  0  1  0  0  0  0  0  0  0  0  0
    3.0890    0.8500    1.7490 Cl  0  0  0  0  0  0  0  0  0  0  0  0
    0.7360    0.1130    0.7580 C   0  0  1  0  0  0  0  0  0  0  0  0
    0.4040    1.4520    0.5340 O   0  0  0  0  0  0  0  0  0  0  0  0
   -0.3220   -0.7820    0.2530 C   0  0  1  0  0  0  0  0  0  0  0  0
   -0.0350   -2.1440    0.4380 O   0  0  0  0  0  0  0  0  0  0  0  0
   -1.5160   -0.6030    1.0400 O   0  0  0  0  0  0  0  0  0  0  0  0
   -2.5300   -0.2940    0.1750 C   0  0  2  0  0  0  0  0  0  0  0  0
   -3.0980    1.0610    0.6090 C   0  0  0  0  0  0  0  0  0  0  0  0
   -4.5490    0.7920    0.9350 C   0  0  1  0  0  0  0  0  0  0  0  0
   -5.3490    1.9070    0.7040 O   0  0  0  0  0  0  0  0  0  0  0  0
   -4.8650   -0.3350   -0.0280 C   0  0  2  0  0  0  0  0  0  0  0  0
   -6.0800   -0.9450    0.2630 O   0  0  0  0  0  0  0  0  0  0  0  0
   -3.6900   -1.2760    0.2700 C   0  0  1  0  0  0  0  0  0  0  0  0
   -3.6000   -2.3010   -0.6360 O   0  0  0  0  0  0  0  0  0  0  0  0
  2  1  1  1
  2  3  1  0
  2  4  1  0
  4  5  1  0
  5  6  1  6
  5  8  1  0
  6  7  1  0
  8  9  1  1
  8 10  1  0
 10 11  1  6
 10 12  1  0
 12 13  1  1
 12 14  1  0
 15 14  1  1
 15 16  1  0
 15 21  1  0
 16 17  1  0
 17 18  1  6
 17 19  1  0
 19 20  1  1
 19 21  1  0
 21 22  1  6
M  END
