
     RDKit          3D

 22 23  0  0  0  0  0  0  0  0999 V2000
    1.1910   -1.9460   -2.0420 O   0  0  0  0  0  0  0  0  0  0  0  0
    1.5810   -1.3840   -0.8030 C   0  0  1  0  0  0  0  0  0  0  0  0
    3.0170   -1.0190   -0.9170 C   0  0  0  0  0  0  0  0  0  0  0  0
    3.4560   -0.0290    0.1410 C   0  0  2  0  0  0  0  0  0  0  0  0
    3.1580   -0.6090    1.3800 O   0  0  0  0  0  0  0  0  0  0  0  0
    2.5860    1.1990   -0.0210 C   0  0  2  0  0  0  0  0  0  0  0  0
    2.6440    1.7130   -1.3070 O   0  0  0  0  0  0  0  0  0  0  0  0
    3.0740    2.3220    0.9070 C   0  0  2  0  0  0  0  0  0  0  0  0
    4.7490    2.7420    0.5010 Cl  0  0  0  0  0  0  0  0  0  0  0  0
    2.9920    1.7720    2.6150 Cl  0  0  0  0  0  0  0  0  0  0  0  0
    2.0620    3.7540    0.7610 Cl  0  0  0  0  0  0  0  0  0  0  0  0
    1.1900    0.7950    0.3890 C   0  0  0  0  0  0  0  0  0  0  0  0
    0.6580   -0.2300   -0.5490 C   0  0  2  0  0  0  0  0  0  0  0  0
   -0.6610   -0.7990   -0.0690 C   0  0  2  0  0  0  0  0  0  0  0  0
   -1.1460   -1.6330   -1.0900 O   0  0  0  0  0  0  0  0  0  0  0  0
   -1.6440    0.3380    0.1100 C   0  0  0  0  0  0  0  0  0  0  0  0
   -2.9820   -0.1840    0.5900 C   0  0  1  0  0  0  0  0  0  0  0  0
   -3.9060    0.9910    0.7460 C   0  0  0  0  0  0  0  0  0  0  0  0
   -5.1310    0.4980    1.2120 O   0  0  0  0  0  0  0  0  0  0  0  0
   -5.5740   -0.3740    0.3430 O   0  0  0  0  0  0  0  0  0  0  0  0
   -4.7560   -1.5000    0.2410 C   0  0  0  0  0  0  0  0  0  0  0  0
   -3.5130   -1.1120   -0.2950 O   0  0  0  0  0  0  0  0  0  0  0  0
  2  1  1  6
  2  3  1  0
  2 13  1  0
  3  4  1  0
  4  5  1  1
  4  6  1  0
  6  7  1  6
  6  8  1  0
  6 12  1  0
  8  9  1  6
  8 10  1  0
  8 11  1  0
 13 12  1  1
 13 14  1  0
 14 15  1  6
 14 16  1  0
 17 16  1  6
 17 18  1  0
 17 22  1  0
 18 19  1  0
 19 20  1  0
 20 21  1  0
 21 22  1  0
M  END
