
     RDKit          3D

 30 33  0  0  0  0  0  0  0  0999 V2000
    3.5910   -3.7820   -1.3720 C   0  0  0  0  0  0  0  0  0  0  0  0
    2.4840   -3.4760   -0.3820 C   0  0  0  0  0  0  0  0  0  0  0  0
    2.3380   -1.9820   -0.2170 C   0  0  0  0  0  0  0  0  0  0  0  0
    1.1640   -1.5590   -0.5370 N   0  0  0  0  0  0  0  0  0  0  0  0
    0.7270   -0.2360   -0.4910 N   0  0  0  0  0  0  0  0  0  0  0  0
   -0.6570    0.0520   -0.7540 C   0  0  0  0  0  0  0  0  0  0  0  0
   -1.6720   -0.7060   -0.2610 C   0  0  0  0  0  0  0  0  0  0  0  0
   -3.0080   -0.3880   -0.5400 C   0  0  0  0  0  0  0  0  0  0  0  0
   -4.0820   -1.2190   -0.0150 C   0  0  0  0  0  0  0  0  0  0  0  0
   -4.9830   -0.7290    0.7780 C   0  0  0  0  0  0  0  0  0  0  0  0
   -6.1090   -1.5390    1.3410 C   0  0  0  0  0  0  0  0  0  0  0  0
   -6.9500   -0.4890    2.0250 C   0  0  0  0  0  0  0  0  0  0  0  0
   -5.9240    0.5460    2.4220 C   0  0  0  0  0  0  0  0  0  0  0  0
   -5.1000    0.5600    1.2570 O   0  0  0  0  0  0  0  0  0  0  0  0
   -3.2750    0.7150   -1.3310 C   0  0  0  0  0  0  0  0  0  0  0  0
   -4.5500    1.0730   -1.6670 C   0  0  0  0  0  0  0  0  0  0  0  0
   -4.7640    2.1850   -2.4860 C   0  0  0  0  0  0  0  0  0  0  0  0
   -3.7460    2.9510   -2.9800 C   0  0  0  0  0  0  0  0  0  0  0  0
   -2.4700    2.6040   -2.6540 C   0  0  0  0  0  0  0  0  0  0  0  0
   -2.2370    1.4950   -1.8370 C   0  0  0  0  0  0  0  0  0  0  0  0
   -0.9600    1.1410   -1.5340 C   0  0  0  0  0  0  0  0  0  0  0  0
    1.4770    0.9470   -0.2110 C   0  0  0  0  0  0  0  0  0  0  0  0
    0.8640    1.9550    0.1580 O   0  0  0  0  0  0  0  0  0  0  0  0
    2.9810    0.9960   -0.3540 C   0  0  0  0  0  0  0  0  0  0  0  0
    3.6430    0.0430    0.5940 C   0  0  2  0  0  0  0  0  0  0  0  0
    4.9970    0.4220    0.7420 N   0  0  0  0  0  0  0  0  0  0  0  0
    5.8220   -0.3590    1.5810 C   0  0  0  0  0  0  0  0  0  0  0  0
    5.3990    1.7340    0.4950 C   0  0  0  0  0  0  0  0  0  0  0  0
    4.8990    2.7790    1.4760 C   0  0  0  0  0  0  0  0  0  0  0  0
    3.5670   -1.3860    0.2670 C   0  0  0  0  0  0  0  0  0  0  0  0
  1  2  1  0
  2  3  1  0
  3  4  2  0
  3 30  1  0
  4  5  1  0
  5  6  1  0
  5 22  1  0
  6  7  2  0
  6 21  1  0
  7  8  1  0
  8  9  1  0
  8 15  2  0
  9 10  2  3
 10 11  1  0
 10 14  1  0
 11 12  1  0
 12 13  1  0
 13 14  1  0
 15 16  1  0
 15 20  1  0
 16 17  2  0
 17 18  1  0
 18 19  2  0
 19 20  1  0
 20 21  2  0
 22 23  2  0
 22 24  1  0
 24 25  1  0
 25 26  1  6
 25 30  1  0
 26 27  1  0
 26 28  1  0
 28 29  1  0
M  END
