
     RDKit          3D

 30 33  0  0  0  0  0  0  0  0999 V2000
   -0.3710    0.5660   -1.7690 C   0  0  0  0  0  0  0  0  0  0  0  0
   -0.2530   -0.1390   -0.4780 C   0  0  0  0  0  0  0  0  0  0  0  0
   -1.2130   -0.7350    0.2940 C   0  0  0  0  0  0  0  0  0  0  0  0
   -2.6520   -0.8910    0.1320 C   0  0  0  0  0  0  0  0  0  0  0  0
   -3.2820   -1.5540    1.0520 O   0  0  0  0  0  0  0  0  0  0  0  0
   -3.5120   -0.4020   -0.9300 C   0  0  2  0  0  0  0  0  0  0  0  0
   -3.0900   -0.9030   -2.2740 C   0  0  0  0  0  0  0  0  0  0  0  0
   -3.9720    1.0070   -0.8590 C   0  0  0  0  0  0  0  0  0  0  0  0
   -4.8200    1.3420    0.3360 C   0  0  0  0  0  0  0  0  0  0  0  0
   -6.0880    0.6720    0.3960 N   0  0  0  0  0  0  0  0  0  0  0  0
   -6.5850   -0.5240    0.9830 C   0  0  0  0  0  0  0  0  0  0  0  0
   -7.5960   -1.0320   -0.0440 C   0  0  0  0  0  0  0  0  0  0  0  0
   -8.2530    0.2400   -0.4750 C   0  0  0  0  0  0  0  0  0  0  0  0
   -7.2480    1.2820   -0.2520 C   0  0  0  0  0  0  0  0  0  0  0  0
   -7.3770    2.4790   -0.5660 O   0  0  0  0  0  0  0  0  0  0  0  0
   -0.5720   -1.2560    1.3930 N   0  0  0  0  0  0  0  0  0  0  0  0
    0.7310   -1.0140    1.3410 C   0  0  0  0  0  0  0  0  0  0  0  0
    1.7740   -1.3370    2.2080 C   0  0  0  0  0  0  0  0  0  0  0  0
    1.5140   -2.0950    3.4660 C   0  0  0  0  0  0  0  0  0  0  0  0
    3.0540   -0.9260    1.8550 C   0  0  0  0  0  0  0  0  0  0  0  0
    3.3270   -0.2330    0.7150 C   0  0  0  0  0  0  0  0  0  0  0  0
    4.6960    0.1700    0.4000 C   0  0  1  0  0  0  0  0  0  0  0  0
    5.2050   -0.4090   -0.9030 C   0  0  0  0  0  0  0  0  0  0  0  0
    6.7270   -0.2840   -0.8640 C   0  0  0  0  0  0  0  0  0  0  0  0
    7.1230    0.7230    0.1300 N   0  0  0  0  0  0  0  0  0  0  0  0
    8.5000    1.0460   -0.0450 C   0  0  0  0  0  0  0  0  0  0  0  0
    6.3140    1.9180   -0.0990 C   0  0  0  0  0  0  0  0  0  0  0  0
    4.8600    1.6770    0.2990 C   0  0  0  0  0  0  0  0  0  0  0  0
    2.2700    0.0690   -0.1180 C   0  0  0  0  0  0  0  0  0  0  0  0
    0.9700   -0.3180    0.1880 C   0  0  0  0  0  0  0  0  0  0  0  0
  1  2  1  0
  2  3  2  0
  2 30  1  0
  3  4  1  0
  3 16  1  0
  4  5  2  0
  4  6  1  0
  6  7  1  6
  6  8  1  0
  8  9  1  0
  9 10  1  0
 10 11  1  0
 10 14  1  0
 11 12  1  0
 12 13  1  0
 13 14  1  0
 14 15  2  0
 16 17  1  0
 17 18  2  0
 17 30  1  0
 18 19  1  0
 18 20  1  0
 20 21  2  0
 22 21  1  6
 21 29  1  0
 22 23  1  0
 22 28  1  0
 23 24  1  0
 24 25  1  0
 25 26  1  0
 25 27  1  0
 27 28  1  0
 29 30  2  0
M  END
