
     RDKit          3D

 29 32  0  0  0  0  0  0  0  0999 V2000
    7.0490    0.7820    2.1120 C   0  0  0  0  0  0  0  0  0  0  0  0
    5.8600    0.1740    1.4580 C   0  0  0  0  0  0  0  0  0  0  0  0
    5.5290   -1.1590    1.6210 C   0  0  0  0  0  0  0  0  0  0  0  0
    4.4140   -1.6910    0.9950 C   0  0  0  0  0  0  0  0  0  0  0  0
    3.6000   -0.8900    0.1860 C   0  0  0  0  0  0  0  0  0  0  0  0
    2.4540   -1.4410   -0.4820 C   0  0  0  0  0  0  0  0  0  0  0  0
    2.5490   -2.5970   -1.2240 N   0  0  0  0  0  0  0  0  0  0  0  0
    1.3890   -2.9180   -1.7170 N   0  0  0  0  0  0  0  0  0  0  0  0
    1.1110   -4.0690   -2.5470 C   0  0  0  0  0  0  0  0  0  0  0  0
    0.5000   -1.9790   -1.3090 C   0  0  0  0  0  0  0  0  0  0  0  0
    1.1300   -1.0330   -0.5310 C   0  0  0  0  0  0  0  0  0  0  0  0
    0.5590    0.1290    0.1500 C   0  0  0  0  0  0  0  0  0  0  0  0
   -0.8230    0.3010   -0.1240 N   0  0  0  0  0  0  0  0  0  0  0  0
   -1.1860    0.6410   -1.4490 C   0  0  0  0  0  0  0  0  0  0  0  0
   -1.1100    2.1320   -1.6470 C   0  0  0  0  0  0  0  0  0  0  0  0
   -1.6500    2.9080   -0.6800 O   0  0  0  0  0  0  0  0  0  0  0  0
   -1.3840    2.5170    0.6160 C   0  0  0  0  0  0  0  0  0  0  0  0
   -1.5730    1.0350    0.8270 C   0  0  1  0  0  0  0  0  0  0  0  0
   -3.0250    0.6650    0.7560 C   0  0  0  0  0  0  0  0  0  0  0  0
   -4.0080    1.5800    0.4380 C   0  0  0  0  0  0  0  0  0  0  0  0
   -5.3530    1.2620    0.3610 C   0  0  0  0  0  0  0  0  0  0  0  0
   -6.3400    2.3380    0.0060 C   0  0  0  0  0  0  0  0  0  0  0  0
   -5.7420   -0.0200    0.6090 C   0  0  0  0  0  0  0  0  0  0  0  0
   -4.8010   -0.9490    0.9250 C   0  0  0  0  0  0  0  0  0  0  0  0
   -3.4380   -0.6340    1.0060 C   0  0  0  0  0  0  0  0  0  0  0  0
   -2.5080   -1.6760    1.3540 C   0  0  0  0  0  0  0  0  0  0  0  0
   -2.9310   -2.8400    1.5550 O   0  0  0  0  0  0  0  0  0  0  0  0
    3.9610    0.4110    0.0540 C   0  0  0  0  0  0  0  0  0  0  0  0
    5.0820    0.9720    0.6750 C   0  0  0  0  0  0  0  0  0  0  0  0
  1  2  1  0
  2  3  2  0
  2 29  1  0
  3  4  1  0
  4  5  2  0
  5  6  1  0
  5 28  1  0
  6  7  2  0
  6 11  1  0
  7  8  1  0
  8  9  1  0
  8 10  1  0
 10 11  2  0
 11 12  1  0
 12 13  1  0
 13 14  1  0
 13 18  1  0
 14 15  1  0
 15 16  1  0
 16 17  1  0
 17 18  1  0
 18 19  1  6
 19 20  2  0
 19 25  1  0
 20 21  1  0
 21 22  1  0
 21 23  2  0
 23 24  1  0
 24 25  2  0
 25 26  1  0
 26 27  2  0
 28 29  2  0
M  END
