
     RDKit          3D

 30 34  0  0  0  0  0  0  0  0999 V2000
    8.2090    0.0290    1.2160 C   0  0  0  0  0  0  0  0  0  0  0  0
    7.1530    1.0680    1.4240 C   0  0  0  0  0  0  0  0  0  0  0  0
    5.8530    0.5950    1.2300 O   0  0  0  0  0  0  0  0  0  0  0  0
    5.3500    0.0570    0.0720 C   0  0  0  0  0  0  0  0  0  0  0  0
    6.0720   -0.0950   -1.0870 C   0  0  0  0  0  0  0  0  0  0  0  0
    5.5310   -0.6400   -2.2300 C   0  0  0  0  0  0  0  0  0  0  0  0
    4.2210   -1.0500   -2.2180 C   0  0  0  0  0  0  0  0  0  0  0  0
    3.4530   -0.9140   -1.0640 C   0  0  0  0  0  0  0  0  0  0  0  0
    4.0280   -0.3650    0.0570 C   0  0  0  0  0  0  0  0  0  0  0  0
    3.3070   -0.2160    1.2010 O   0  0  0  0  0  0  0  0  0  0  0  0
    1.9770   -0.5350    1.4310 C   0  0  0  0  0  0  0  0  0  0  0  0
    1.0930    0.2670    0.5530 C   0  0  0  0  0  0  0  0  0  0  0  0
    1.5410    1.1930   -0.3100 N   0  0  0  0  0  0  0  0  0  0  0  0
    0.7180    1.9210   -1.0860 C   0  0  0  0  0  0  0  0  0  0  0  0
   -0.6070    1.7160   -0.9970 N   0  0  0  0  0  0  0  0  0  0  0  0
   -1.1320    0.8020   -0.1520 C   0  0  0  0  0  0  0  0  0  0  0  0
   -0.2700    0.0660    0.6350 C   0  0  0  0  0  0  0  0  0  0  0  0
   -0.7930   -0.9510    1.5810 C   0  0  0  0  0  0  0  0  0  0  0  0
   -2.2120   -1.3400    1.2290 C   0  0  0  0  0  0  0  0  0  0  0  0
   -3.0190   -0.0490    1.1160 C   0  0  0  0  0  0  0  0  0  0  0  0
   -2.5450    0.6060   -0.0790 N   0  0  0  0  0  0  0  0  0  0  0  0
   -3.3360    1.0680   -1.1710 C   0  0  1  0  0  0  0  0  0  0  0  0
   -4.1430    0.0490   -1.8810 C   0  0  0  0  0  0  0  0  0  0  0  0
   -5.3600   -0.1020   -1.0820 C   0  0  0  0  0  0  0  0  0  0  0  0
   -6.3020   -1.1370   -0.9520 C   0  0  0  0  0  0  0  0  0  0  0  0
   -7.3630   -0.9550   -0.0960 C   0  0  0  0  0  0  0  0  0  0  0  0
   -7.5330    0.2050    0.6350 C   0  0  0  0  0  0  0  0  0  0  0  0
   -6.6050    1.2250    0.5070 C   0  0  0  0  0  0  0  0  0  0  0  0
   -5.5290    1.0530   -0.3530 C   0  0  0  0  0  0  0  0  0  0  0  0
   -4.4050    2.0130   -0.6440 C   0  0  0  0  0  0  0  0  0  0  0  0
  1  2  1  0
  2  3  1  0
  3  4  1  0
  4  5  2  0
  4  9  1  0
  5  6  1  0
  6  7  2  0
  7  8  1  0
  8  9  2  0
  9 10  1  0
 10 11  1  0
 11 12  1  0
 12 13  2  0
 12 17  1  0
 13 14  1  0
 14 15  2  0
 15 16  1  0
 16 17  2  0
 16 21  1  0
 17 18  1  0
 18 19  1  0
 19 20  1  0
 20 21  1  0
 22 21  1  1
 22 23  1  0
 22 30  1  0
 23 24  1  0
 24 25  2  0
 24 29  1  0
 25 26  1  0
 26 27  2  0
 27 28  1  0
 28 29  2  0
 29 30  1  0
M  END
