
     RDKit          3D

 29 31  0  0  0  0  0  0  0  0999 V2000
    8.1790    0.3650   -0.0910 C   0  0  0  0  0  0  0  0  0  0  0  0
    6.8390    0.2680   -0.8410 C   0  0  2  0  0  0  0  0  0  0  0  0
    7.2380    0.5090   -2.3050 C   0  0  0  0  0  0  0  0  0  0  0  0
    6.0010    1.4020   -0.3970 C   0  0  0  0  0  0  0  0  0  0  0  0
    5.0580    1.0880    0.7360 C   0  0  0  0  0  0  0  0  0  0  0  0
    4.2530   -0.1250    0.3230 C   0  0  2  0  0  0  0  0  0  0  0  0
    3.1410   -0.3290    1.0730 O   0  0  0  0  0  0  0  0  0  0  0  0
    1.9490   -0.2670    0.4030 C   0  0  0  0  0  0  0  0  0  0  0  0
    0.8010   -0.5050    1.3220 C   0  0  0  0  0  0  0  0  0  0  0  0
   -0.5200   -0.4410    0.5990 C   0  0  0  0  0  0  0  0  0  0  0  0
   -0.4450   -0.2120   -0.5880 O   0  0  0  0  0  0  0  0  0  0  0  0
   -1.7080   -0.6330    1.2690 N   0  0  0  0  0  0  0  0  0  0  0  0
   -3.0520   -0.6590    1.0180 C   0  0  0  0  0  0  0  0  0  0  0  0
   -3.8840   -0.5220    0.0570 C   0  0  0  0  0  0  0  0  0  0  0  0
   -3.6240   -0.2470   -1.3230 C   0  0  0  0  0  0  0  0  0  0  0  0
   -4.6310   -0.1480   -2.1280 O   0  0  0  0  0  0  0  0  0  0  0  0
   -2.4480   -0.0660   -1.9380 O   0  0  0  0  0  0  0  0  0  0  0  0
   -5.3080   -0.6680    0.4730 C   0  0  0  0  0  0  0  0  0  0  0  0
   -6.3290    0.0270    0.0310 C   0  0  0  0  0  0  0  0  0  0  0  0
   -7.7040   -0.1680    0.4810 C   0  0  0  0  0  0  0  0  0  0  0  0
   -8.6830    0.5800   -0.0160 C   0  0  0  0  0  0  0  0  0  0  0  0
  -10.0530    0.4850    0.3400 N   0  0  0  0  0  0  0  0  0  0  0  0
  -10.7690    1.3720   -0.3830 O   0  0  0  0  0  0  0  0  0  0  0  0
   -9.9430    1.8580   -1.3670 C   0  0  0  0  0  0  0  0  0  0  0  0
   -8.6130    1.5920   -0.9610 O   0  0  0  0  0  0  0  0  0  0  0  0
   -5.4350   -1.7440    1.5240 C   0  0  0  0  0  0  0  0  0  0  0  0
   -4.0840   -1.0210    2.5550 S   0  0  0  0  0  0  0  0  0  0  0  0
    5.2130   -1.2850    0.3050 C   0  0  0  0  0  0  0  0  0  0  0  0
    6.3180   -1.0900   -0.6680 C   0  0  0  0  0  0  0  0  0  0  0  0
  2  1  1  1
  2  3  1  0
  2  4  1  0
  2 29  1  0
  4  5  1  0
  5  6  1  0
  6  7  1  1
  6 28  1  0
  7  8  1  0
  8  9  1  0
  9 10  1  0
 10 11  2  0
 10 12  1  0
 12 13  1  0
 13 14  2  0
 13 27  1  0
 14 15  1  0
 14 18  1  0
 15 16  2  0
 15 17  1  0
 18 19  2  3
 18 26  1  0
 19 20  1  0
 20 21  2  3
 21 22  1  0
 21 25  1  0
 22 23  1  0
 23 24  1  0
 24 25  1  0
 26 27  1  0
 28 29  1  0
M  END
