
     RDKit          3D

 30 33  0  0  0  0  0  0  0  0999 V2000
   -3.1460   -4.9120   -1.9740 C   0  0  0  0  0  0  0  0  0  0  0  0
   -2.4820   -3.7460   -1.5480 O   0  0  0  0  0  0  0  0  0  0  0  0
   -3.2520   -2.6880   -1.0870 C   0  0  0  0  0  0  0  0  0  0  0  0
   -4.6230   -2.7470   -1.0350 C   0  0  0  0  0  0  0  0  0  0  0  0
   -5.4110   -1.7170   -0.5840 C   0  0  0  0  0  0  0  0  0  0  0  0
   -4.8190   -0.5410   -0.1510 C   0  0  0  0  0  0  0  0  0  0  0  0
   -5.5840    0.5510    0.3220 N   0  0  0  0  0  0  0  0  0  0  0  0
   -7.0180    0.6070    0.3930 C   0  0  0  0  0  0  0  0  0  0  0  0
   -7.2980    2.0610    0.2220 C   0  0  0  0  0  0  0  0  0  0  0  0
   -6.1870    2.7490    0.4630 C   0  0  0  0  0  0  0  0  0  0  0  0
   -5.0710    1.7960    0.8160 C   0  0  0  0  0  0  0  0  0  0  0  0
   -3.4390   -0.4730   -0.2000 C   0  0  0  0  0  0  0  0  0  0  0  0
   -2.6510   -1.5020   -0.6510 C   0  0  0  0  0  0  0  0  0  0  0  0
   -1.1710   -1.4720   -0.7050 C   0  0  0  0  0  0  0  0  0  0  0  0
   -0.5810   -0.2530   -0.2890 N   0  0  0  0  0  0  0  0  0  0  0  0
   -0.8640    0.8830   -1.0860 C   0  0  0  0  0  0  0  0  0  0  0  0
    0.3180    1.1490   -2.0010 C   0  0  0  0  0  0  0  0  0  0  0  0
    1.5130    1.2450   -1.3370 O   0  0  0  0  0  0  0  0  0  0  0  0
    1.8220    0.1240   -0.5840 C   0  0  1  0  0  0  0  0  0  0  0  0
    3.0840    0.3420    0.1530 C   0  0  0  0  0  0  0  0  0  0  0  0
    3.2800    0.0810    1.4920 C   0  0  0  0  0  0  0  0  0  0  0  0
    4.4940    0.3090    2.1120 C   0  0  0  0  0  0  0  0  0  0  0  0
    5.5700    0.8120    1.4160 C   0  0  0  0  0  0  0  0  0  0  0  0
    6.8210    1.0520    2.0380 N   0  0  0  0  0  0  0  0  0  0  0  0
    6.9860    0.7650    3.4440 C   0  0  0  0  0  0  0  0  0  0  0  0
    7.9350    1.5780    1.2950 C   0  0  0  0  0  0  0  0  0  0  0  0
    5.3890    1.0790    0.0760 C   0  0  0  0  0  0  0  0  0  0  0  0
    4.1810    0.8520   -0.5430 C   0  0  0  0  0  0  0  0  0  0  0  0
    4.0330    1.1500   -1.9720 C   0  0  0  0  0  0  0  0  0  0  0  0
    0.7140   -0.3310    0.3000 C   0  0  0  0  0  0  0  0  0  0  0  0
  1  2  1  0
  2  3  1  0
  3  4  2  0
  3 13  1  0
  4  5  1  0
  5  6  2  0
  6  7  1  0
  6 12  1  0
  7  8  1  0
  7 11  1  0
  8  9  1  0
  9 10  2  0
 10 11  1  0
 12 13  2  0
 13 14  1  0
 14 15  1  0
 15 16  1  0
 15 30  1  0
 16 17  1  0
 17 18  1  0
 18 19  1  0
 19 20  1  1
 19 30  1  0
 20 21  2  0
 20 28  1  0
 21 22  1  0
 22 23  2  0
 23 24  1  0
 23 27  1  0
 24 25  1  0
 24 26  1  0
 27 28  2  0
 28 29  1  0
M  END
