
     RDKit          3D

 29 32  0  0  0  0  0  0  0  0999 V2000
    5.1360    4.2180    0.1570 C   0  0  0  0  0  0  0  0  0  0  0  0
    4.1630    3.2480   -0.2630 N   0  0  0  0  0  0  0  0  0  0  0  0
    4.1310    1.9620    0.1300 C   0  0  0  0  0  0  0  0  0  0  0  0
    3.0590    1.3460   -0.4810 C   0  0  0  0  0  0  0  0  0  0  0  0
    2.6510   -0.0410   -0.3390 C   0  0  0  0  0  0  0  0  0  0  0  0
    3.5710   -1.0450   -0.1210 C   0  0  0  0  0  0  0  0  0  0  0  0
    3.2110   -2.3760    0.0200 C   0  0  0  0  0  0  0  0  0  0  0  0
    1.8670   -2.6540   -0.0700 C   0  0  0  0  0  0  0  0  0  0  0  0
    1.4670   -3.9650    0.0560 C   0  0  0  0  0  0  0  0  0  0  0  0
    2.2890   -4.8940    0.2530 O   0  0  0  0  0  0  0  0  0  0  0  0
    0.1590   -4.3140   -0.0300 N   0  0  0  0  0  0  0  0  0  0  0  0
   -0.2250   -5.7240    0.1090 C   0  0  0  0  0  0  0  0  0  0  0  0
   -0.7290   -3.3570   -0.2370 C   0  0  0  0  0  0  0  0  0  0  0  0
   -0.4170   -2.0000   -0.3760 C   0  0  0  0  0  0  0  0  0  0  0  0
   -1.4780   -1.0150   -0.5700 C   0  0  0  0  0  0  0  0  0  0  0  0
   -2.3790   -1.1780   -1.6130 C   0  0  0  0  0  0  0  0  0  0  0  0
   -3.4070   -0.2920   -1.8320 C   0  0  0  0  0  0  0  0  0  0  0  0
   -3.5480    0.8040   -0.9800 C   0  0  0  0  0  0  0  0  0  0  0  0
   -2.6880    0.9970    0.0480 C   0  0  0  0  0  0  0  0  0  0  0  0
   -2.8000    2.1050    0.9180 N   0  0  0  0  0  0  0  0  0  0  0  0
   -4.2310    2.6110    1.6700 S   0  0  1  0  0  0  0  0  0  0  0  0
   -5.4660    3.0950    0.4990 C   0  0  0  0  0  0  0  0  0  0  0  0
   -4.7880    1.5400    2.5990 O   0  0  0  0  0  0  0  0  0  0  0  0
   -3.9820    3.8150    2.5470 O   0  0  0  0  0  0  0  0  0  0  0  0
   -1.6480    0.0700    0.2430 C   0  0  0  0  0  0  0  0  0  0  0  0
    0.9160   -1.6710   -0.2870 C   0  0  0  0  0  0  0  0  0  0  0  0
    1.3130   -0.3650   -0.4210 C   0  0  0  0  0  0  0  0  0  0  0  0
    2.4620    2.3410   -1.2540 C   0  0  0  0  0  0  0  0  0  0  0  0
    3.1730    3.4690   -1.0830 N   0  0  0  0  0  0  0  0  0  0  0  0
  1  2  1  0
  2  3  1  0
  2 29  1  0
  3  4  2  0
  4  5  1  0
  4 28  1  0
  5  6  2  0
  5 27  1  0
  6  7  1  0
  7  8  2  0
  8  9  1  0
  8 26  1  0
  9 10  2  0
  9 11  1  0
 11 12  1  0
 11 13  1  0
 13 14  2  0
 14 15  1  0
 14 26  1  0
 15 16  2  0
 15 25  1  0
 16 17  1  0
 17 18  2  0
 18 19  1  0
 19 20  1  0
 19 25  2  0
 20 21  1  0
 21 22  1  6
 21 23  2  0
 21 24  2  0
 26 27  2  0
 28 29  2  0
M  END
