
     RDKit          3D

 30 33  0  0  0  0  0  0  0  0999 V2000
   -1.7200    5.5160   -2.0700 C   0  0  0  0  0  0  0  0  0  0  0  0
   -2.0440    4.6060   -0.9340 C   0  0  0  0  0  0  0  0  0  0  0  0
   -1.5300    3.2080   -1.1180 C   0  0  0  0  0  0  0  0  0  0  0  0
   -1.9080    2.3730    0.0790 C   0  0  0  0  0  0  0  0  0  0  0  0
   -1.4610    1.0140   -0.0000 N   0  0  0  0  0  0  0  0  0  0  0  0
   -2.2490    0.0330   -0.5420 C   0  0  0  0  0  0  0  0  0  0  0  0
   -3.3850    0.3880   -0.9660 O   0  0  0  0  0  0  0  0  0  0  0  0
   -1.8850   -1.2410   -0.6420 N   0  0  0  0  0  0  0  0  0  0  0  0
   -2.7380   -2.2400   -1.2170 C   0  0  0  0  0  0  0  0  0  0  0  0
   -3.6410   -2.9170   -0.2560 C   0  0  0  0  0  0  0  0  0  0  0  0
   -4.9010   -2.4040   -0.0220 C   0  0  0  0  0  0  0  0  0  0  0  0
   -5.7540   -3.0370    0.8800 C   0  0  0  0  0  0  0  0  0  0  0  0
   -5.3860   -4.1680    1.5570 C   0  0  0  0  0  0  0  0  0  0  0  0
   -4.1430   -4.6800    1.3310 C   0  0  0  0  0  0  0  0  0  0  0  0
   -3.2860   -4.0490    0.4280 C   0  0  0  0  0  0  0  0  0  0  0  0
   -0.6610   -1.6180   -0.1850 C   0  0  0  0  0  0  0  0  0  0  0  0
   -0.2740   -2.8130   -0.2600 O   0  0  0  0  0  0  0  0  0  0  0  0
    0.1850   -0.6790    0.3730 C   0  0  0  0  0  0  0  0  0  0  0  0
    1.4410   -1.0460    0.8420 C   0  0  0  0  0  0  0  0  0  0  0  0
    2.3060   -0.1320    1.4000 C   0  0  0  0  0  0  0  0  0  0  0  0
    3.6430   -0.5450    1.8940 C   0  0  0  0  0  0  0  0  0  0  0  0
    4.6610   -0.4620    0.8940 N   0  0  0  0  0  0  0  0  0  0  0  0
    5.9860   -0.8290    1.2400 C   0  0  0  0  0  0  0  0  0  0  0  0
    6.9490   -0.7720    0.3660 C   0  0  0  0  0  0  0  0  0  0  0  0
    6.7830   -0.3390   -1.0170 C   0  0  0  0  0  0  0  0  0  0  0  0
    5.4060    0.0310   -1.3370 C   0  0  0  0  0  0  0  0  0  0  0  0
    4.4460   -0.0320   -0.4470 C   0  0  0  0  0  0  0  0  0  0  0  0
    1.8540    1.1660    1.4650 C   0  0  0  0  0  0  0  0  0  0  0  0
    0.6040    1.5450    1.0020 C   0  0  0  0  0  0  0  0  0  0  0  0
   -0.2620    0.6260    0.4430 C   0  0  0  0  0  0  0  0  0  0  0  0
  1  2  1  0
  2  3  1  0
  3  4  1  0
  4  5  1  0
  5  6  1  0
  5 30  1  0
  6  7  2  0
  6  8  1  0
  8  9  1  0
  8 16  1  0
  9 10  1  0
 10 11  2  0
 10 15  1  0
 11 12  1  0
 12 13  2  0
 13 14  1  0
 14 15  2  0
 16 17  2  0
 16 18  1  0
 18 19  2  0
 18 30  1  0
 19 20  1  0
 20 21  1  0
 20 28  2  0
 21 22  1  0
 22 23  1  0
 22 27  1  0
 23 24  2  0
 24 25  1  0
 25 26  1  0
 26 27  2  0
 28 29  1  0
 29 30  2  0
M  END
