
     RDKit          3D

 28 32  0  0  0  0  0  0  0  0999 V2000
   -5.1910   -0.8730    0.4160 C   0  0  0  0  0  0  0  0  0  0  0  0
   -3.8240   -0.3930    0.8090 C   0  0  0  0  0  0  0  0  0  0  0  0
   -3.5300   -0.1940    2.1400 C   0  0  0  0  0  0  0  0  0  0  0  0
   -4.4840   -0.4360    3.0900 F   0  0  0  0  0  0  0  0  0  0  0  0
   -2.2770    0.2450    2.4800 C   0  0  0  0  0  0  0  0  0  0  0  0
   -1.3220    0.4830    1.4810 C   0  0  0  0  0  0  0  0  0  0  0  0
   -1.5680    0.3000    0.1490 C   0  0  0  0  0  0  0  0  0  0  0  0
   -0.6490    0.5240   -0.8930 N   0  0  0  0  0  0  0  0  0  0  0  0
    0.6660    0.9660   -0.8720 C   0  0  1  0  0  0  0  0  0  0  0  0
    0.8130    2.2850   -0.2270 N   0  0  0  0  0  0  0  0  0  0  0  0
    0.3490    3.5050   -0.2480 N   0  0  0  0  0  0  0  0  0  0  0  0
    0.9650    4.2830    0.6490 C   0  0  0  0  0  0  0  0  0  0  0  0
    1.8780    3.4750    1.2700 C   0  0  0  0  0  0  0  0  0  0  0  0
    1.7600    2.2050    0.6920 C   0  0  0  0  0  0  0  0  0  0  0  0
    2.3070    0.8610    0.7850 C   0  0  0  0  0  0  0  0  0  0  0  0
    1.8470    0.1940   -0.5650 C   0  0  2  0  0  0  0  0  0  0  0  0
    3.0350    0.5730   -1.4380 C   0  0  0  0  0  0  0  0  0  0  0  0
    3.0590    1.4740   -2.2690 O   0  0  0  0  0  0  0  0  0  0  0  0
    4.0150   -0.3740   -1.0070 N   0  0  0  0  0  0  0  0  0  0  0  0
    3.3380   -1.6200   -0.8480 C   0  0  0  0  0  0  0  0  0  0  0  0
    3.6430   -2.8850   -0.7720 C   0  0  0  0  0  0  0  0  0  0  0  0
    2.6850   -3.9740   -0.6370 C   0  0  0  0  0  0  0  0  0  0  0  0
    1.4530   -3.6070   -0.6330 N   0  0  0  0  0  0  0  0  0  0  0  0
    1.0400   -2.2240   -0.7760 C   0  0  0  0  0  0  0  0  0  0  0  0
   -0.1040   -2.0590   -1.2700 O   0  0  0  0  0  0  0  0  0  0  0  0
    1.9580   -1.2160   -0.3510 C   0  0  2  0  0  0  0  0  0  0  0  0
   -2.8780   -0.1550   -0.1550 C   0  0  0  0  0  0  0  0  0  0  0  0
   -3.2610   -0.3880   -1.5570 C   0  0  0  0  0  0  0  0  0  0  0  0
  1  2  1  0
  2  3  2  0
  2 27  1  0
  3  4  1  0
  3  5  1  0
  5  6  2  0
  6  7  1  0
  7  8  1  0
  7 27  2  0
  9  8  1  1
  9 10  1  0
  9 16  1  0
 10 11  1  0
 10 14  1  0
 11 12  2  0
 12 13  1  0
 13 14  2  0
 14 15  1  0
 16 15  1  1
 16 17  1  0
 16 26  1  0
 17 18  2  0
 17 19  1  0
 19 20  1  0
 20 21  2  0
 20 26  1  0
 21 22  1  0
 22 23  2  0
 23 24  1  0
 24 25  2  0
 26 24  1  6
 27 28  1  0
M  END
