
     RDKit          3D

 31 34  0  0  0  0  0  0  0  0999 V2000
   -4.9410    3.0070    0.7600 C   0  0  0  0  0  0  0  0  0  0  0  0
   -3.6010    3.3860    1.3630 C   0  0  0  0  0  0  0  0  0  0  0  0
   -2.3260    3.2380    0.1090 S   0  0  1  0  0  0  0  0  0  0  0  0
   -2.5720    4.1830   -1.0330 O   0  0  0  0  0  0  0  0  0  0  0  0
   -1.0170    3.5310    0.8080 O   0  0  0  0  0  0  0  0  0  0  0  0
   -2.2610    1.5810   -0.4730 C   0  0  0  0  0  0  0  0  0  0  0  0
   -3.0740    1.1890   -1.5100 C   0  0  0  0  0  0  0  0  0  0  0  0
   -3.0010   -0.1240   -1.9480 C   0  0  0  0  0  0  0  0  0  0  0  0
   -2.1380   -1.0080   -1.3620 C   0  0  0  0  0  0  0  0  0  0  0  0
   -2.0840   -2.3130   -1.8200 O   0  0  0  0  0  0  0  0  0  0  0  0
   -2.8530   -2.8400   -2.8650 C   0  0  0  0  0  0  0  0  0  0  0  0
   -1.3110   -0.6170   -0.3120 C   0  0  0  0  0  0  0  0  0  0  0  0
   -0.4500   -1.6280    0.2780 C   0  0  0  0  0  0  0  0  0  0  0  0
   -0.9780   -2.8250    0.7650 C   0  0  0  0  0  0  0  0  0  0  0  0
   -0.2330   -3.7710    1.3570 N   0  0  0  0  0  0  0  0  0  0  0  0
   -0.8000   -5.0080    1.8580 C   0  0  0  0  0  0  0  0  0  0  0  0
    1.0870   -3.5690    1.4940 C   0  0  0  0  0  0  0  0  0  0  0  0
    1.8400   -4.4290    2.0460 O   0  0  0  0  0  0  0  0  0  0  0  0
    1.7140   -2.4160    1.0440 C   0  0  0  0  0  0  0  0  0  0  0  0
    3.0760   -2.2590    1.1930 C   0  0  0  0  0  0  0  0  0  0  0  0
    3.6800   -1.1170    0.7260 C   0  0  0  0  0  0  0  0  0  0  0  0
    2.9000   -0.1380    0.1100 C   0  0  0  0  0  0  0  0  0  0  0  0
    3.5630    1.0770   -0.3870 C   0  0  0  0  0  0  0  0  0  0  0  0
    3.2360    1.8770   -1.4550 C   0  0  0  0  0  0  0  0  0  0  0  0
    4.1400    2.8670   -1.5120 N   0  0  0  0  0  0  0  0  0  0  0  0
    5.0330    2.7330   -0.5250 N   0  0  0  0  0  0  0  0  0  0  0  0
    6.1730    3.5510   -0.1950 C   0  0  0  0  0  0  0  0  0  0  0  0
    4.6940    1.6370    0.1780 C   0  0  0  0  0  0  0  0  0  0  0  0
    1.5370   -0.3050   -0.0340 C   0  0  0  0  0  0  0  0  0  0  0  0
    0.9040   -1.4470    0.4300 C   0  0  0  0  0  0  0  0  0  0  0  0
   -1.3880    0.6650    0.1120 C   0  0  0  0  0  0  0  0  0  0  0  0
  1  2  1  0
  3  2  1  1
  3  4  2  0
  3  5  2  0
  3  6  1  0
  6  7  2  0
  6 31  1  0
  7  8  1  0
  8  9  2  0
  9 10  1  0
  9 12  1  0
 10 11  1  0
 12 13  1  0
 12 31  2  0
 13 14  2  0
 13 30  1  0
 14 15  1  0
 15 16  1  0
 15 17  1  0
 17 18  2  0
 17 19  1  0
 19 20  2  0
 19 30  1  0
 20 21  1  0
 21 22  2  0
 22 23  1  0
 22 29  1  0
 23 24  1  0
 23 28  2  0
 24 25  2  0
 25 26  1  0
 26 27  1  0
 26 28  1  0
 29 30  2  0
M  END
