
     RDKit          3D

 28 32  0  0  0  0  0  0  0  0999 V2000
    8.6880   -0.2390   -0.4550 C   0  0  0  0  0  0  0  0  0  0  0  0
    7.9030   -0.3570    0.7160 O   0  0  0  0  0  0  0  0  0  0  0  0
    6.5040   -0.2890    0.5810 C   0  0  0  0  0  0  0  0  0  0  0  0
    5.7050   -0.3980    1.6830 C   0  0  0  0  0  0  0  0  0  0  0  0
    4.3510   -0.3340    1.5640 C   0  0  0  0  0  0  0  0  0  0  0  0
    3.7430   -0.1570    0.3300 C   0  0  0  0  0  0  0  0  0  0  0  0
    2.2900   -0.0900    0.2160 C   0  0  0  0  0  0  0  0  0  0  0  0
    1.5740    0.0760   -0.8970 N   0  0  0  0  0  0  0  0  0  0  0  0
    0.2430    0.0860   -0.5910 C   0  0  0  0  0  0  0  0  0  0  0  0
   -0.9140    0.2190   -1.3140 C   0  0  0  0  0  0  0  0  0  0  0  0
   -2.1680    0.1930   -0.7460 C   0  0  0  0  0  0  0  0  0  0  0  0
   -2.2360    0.0220    0.6390 C   0  0  0  0  0  0  0  0  0  0  0  0
   -1.0790   -0.1120    1.3680 C   0  0  0  0  0  0  0  0  0  0  0  0
    0.1530   -0.0810    0.7660 C   0  0  0  0  0  0  0  0  0  0  0  0
    1.4240   -0.1870    1.2400 N   0  0  0  0  0  0  0  0  0  0  0  0
   -3.5550   -0.0070    1.2490 C   0  0  0  0  0  0  0  0  0  0  0  0
   -3.6970   -0.1620    2.5350 C   0  0  0  0  0  0  0  0  0  0  0  0
   -5.0500   -0.1950    3.1870 C   0  0  2  0  0  0  0  0  0  0  0  0
   -5.6060    1.0680    3.1850 F   0  0  0  0  0  0  0  0  0  0  0  0
   -4.9500   -0.7070    4.4590 F   0  0  0  0  0  0  0  0  0  0  0  0
   -4.7570    0.1430    0.4040 C   0  0  0  0  0  0  0  0  0  0  0  0
   -4.6040    0.3010   -0.9030 C   0  0  0  0  0  0  0  0  0  0  0  0
   -5.5850    0.4650   -1.9230 N   0  0  0  0  0  0  0  0  0  0  0  0
   -4.9690    0.2950   -3.2320 C   0  0  0  0  0  0  0  0  0  0  0  0
   -3.4920    0.5190   -2.9610 C   0  0  0  0  0  0  0  0  0  0  0  0
   -3.3500    0.3340   -1.5320 N   0  0  0  0  0  0  0  0  0  0  0  0
    4.5770   -0.0520   -0.7550 C   0  0  0  0  0  0  0  0  0  0  0  0
    5.9250   -0.1180   -0.6190 N   0  0  0  0  0  0  0  0  0  0  0  0
  1  2  1  0
  2  3  1  0
  3  4  2  0
  3 28  1  0
  4  5  1  0
  5  6  2  0
  6  7  1  0
  6 27  1  0
  7  8  2  0
  7 15  1  0
  8  9  1  0
  9 10  2  0
  9 14  1  0
 10 11  1  0
 11 12  2  0
 11 26  1  0
 12 13  1  0
 12 16  1  0
 13 14  2  0
 14 15  1  0
 16 17  2  3
 16 21  1  0
 17 18  1  0
 18 19  1  1
 18 20  1  0
 21 22  2  0
 22 23  1  0
 22 26  1  0
 23 24  1  0
 24 25  1  0
 25 26  1  0
 27 28  2  0
M  END
