
     RDKit          3D

 29 32  0  0  0  0  0  0  0  0999 V2000
   -7.0770    1.2760   -0.1130 C   0  0  0  0  0  0  0  0  0  0  0  0
   -5.8300    0.5340   -0.1150 C   0  0  0  0  0  0  0  0  0  0  0  0
   -4.8550    0.9760    0.6460 C   0  0  0  0  0  0  0  0  0  0  0  0
   -5.1590    2.1950    1.4230 C   0  0  1  0  0  0  0  0  0  0  0  0
   -5.0120    1.9040    2.7930 F   0  0  0  0  0  0  0  0  0  0  0  0
   -4.2870    3.2350    1.1420 F   0  0  0  0  0  0  0  0  0  0  0  0
   -3.4970    0.3930    0.8130 C   0  0  0  0  0  0  0  0  0  0  0  0
   -2.5130    1.3360    1.4000 C   0  0  0  0  0  0  0  0  0  0  0  0
   -3.1070   -0.8320    0.4940 C   0  0  0  0  0  0  0  0  0  0  0  0
   -1.7730   -1.1260    0.7540 N   0  0  0  0  0  0  0  0  0  0  0  0
   -0.8000   -1.0800   -0.0680 C   0  0  0  0  0  0  0  0  0  0  0  0
    0.5970   -1.4250    0.3470 C   0  0  0  0  0  0  0  0  0  0  0  0
    1.4620   -0.8470   -0.7500 C   0  0  2  0  0  0  0  0  0  0  0  0
    2.5820   -1.8320   -0.9980 C   0  0  0  0  0  0  0  0  0  0  0  0
    3.4880   -1.4340    0.1940 C   0  0  0  0  0  0  0  0  0  0  0  0
    3.6010   -0.0270   -0.0590 N   0  0  0  0  0  0  0  0  0  0  0  0
    4.7190    0.8050   -0.0460 C   0  0  0  0  0  0  0  0  0  0  0  0
    4.4400    2.0440   -0.3480 O   0  0  0  0  0  0  0  0  0  0  0  0
    6.1120    0.5470    0.2390 C   0  0  2  0  0  0  0  0  0  0  0  0
    7.0000    1.8240    0.2560 C   0  0  0  0  0  0  0  0  0  0  0  0
    6.8380   -0.7100    0.1210 C   0  0  0  0  0  0  0  0  0  0  0  0
    6.3560   -0.3460    1.4880 C   0  0  0  0  0  0  0  0  0  0  0  0
    2.1950    0.3830   -0.3420 C   0  0  0  0  0  0  0  0  0  0  0  0
    0.5790   -0.6740   -1.9050 C   0  0  0  0  0  0  0  0  0  0  0  0
    0.9330   -0.5050   -3.0930 O   0  0  0  0  0  0  0  0  0  0  0  0
   -0.7610   -0.7310   -1.4490 N   0  0  0  0  0  0  0  0  0  0  0  0
   -3.9270   -1.8390   -0.0780 N   0  0  0  0  0  0  0  0  0  0  0  0
   -5.3180   -1.8520   -0.3180 N   0  0  0  0  0  0  0  0  0  0  0  0
   -5.7880   -0.6640   -0.9900 C   0  0  0  0  0  0  0  0  0  0  0  0
  1  2  1  0
  2  3  2  0
  2 29  1  0
  3  4  1  0
  3  7  1  0
  4  5  1  1
  4  6  1  0
  7  8  1  0
  7  9  2  0
  9 10  1  0
  9 27  1  0
 10 11  2  3
 11 12  1  0
 11 26  1  0
 13 12  1  1
 13 14  1  0
 13 23  1  0
 13 24  1  0
 14 15  1  0
 15 16  1  0
 16 17  1  0
 16 23  1  0
 17 18  2  0
 17 19  1  0
 19 20  1  1
 19 21  1  0
 19 22  1  0
 21 22  1  0
 24 25  2  0
 24 26  1  0
 27 28  1  0
 28 29  1  0
M  END
