
     RDKit          3D

 29 31  0  0  0  0  0  0  0  0999 V2000
   -3.0360   -0.1080    1.9870 C   0  0  0  0  0  0  0  0  0  0  0  0
   -1.6690   -0.3850    1.1290 C   0  0  0  0  0  0  0  0  0  0  0  0
   -2.1100   -0.8370   -0.0320 C   0  0  0  0  0  0  0  0  0  0  0  0
   -1.7740   -1.3190   -1.3310 C   0  0  0  0  0  0  0  0  0  0  0  0
   -1.3540   -1.1680   -2.5340 C   0  0  0  0  0  0  0  0  0  0  0  0
   -0.8590   -0.2230   -3.5210 C   0  0  0  0  0  0  0  0  0  0  0  0
    0.5960   -0.6480   -4.0630 C   0  0  0  0  0  0  0  0  0  0  0  0
    0.8050   -1.9160   -3.2460 C   0  0  0  0  0  0  0  0  0  0  0  0
    0.8970   -1.7820   -1.9070 C   0  0  0  0  0  0  0  0  0  0  0  0
    0.9950   -2.9970   -1.3180 O   0  0  0  0  0  0  0  0  0  0  0  0
    1.0250   -3.3530   -0.0790 C   0  0  0  0  0  0  0  0  0  0  0  0
    1.1470   -4.6570   -0.0830 O   0  0  0  0  0  0  0  0  0  0  0  0
    0.9310   -2.3900    0.8260 C   0  0  0  0  0  0  0  0  0  0  0  0
    0.8820   -1.1390    0.2330 N   0  0  0  0  0  0  0  0  0  0  0  0
    0.8750   -0.7400   -1.0420 C   0  0  0  0  0  0  0  0  0  0  0  0
    0.7840    0.7120   -1.0440 N   0  0  0  0  0  0  0  0  0  0  0  0
    1.4360    1.5430   -0.0800 C   0  0  0  0  0  0  0  0  0  0  0  0
    2.2700    0.9940    0.8090 N   0  0  0  0  0  0  0  0  0  0  0  0
    2.9370    1.7060    1.7140 C   0  0  0  0  0  0  0  0  0  0  0  0
    2.7460    3.0920    1.7240 C   0  0  0  0  0  0  0  0  0  0  0  0
    1.8840    3.6370    0.8020 C   0  0  0  0  0  0  0  0  0  0  0  0
    1.2460    2.8550   -0.0800 N   0  0  0  0  0  0  0  0  0  0  0  0
    0.9040   -2.1690    2.1460 C   0  0  0  0  0  0  0  0  0  0  0  0
    0.6730   -0.7450    2.4610 N   0  0  0  0  0  0  0  0  0  0  0  0
   -0.5200   -0.0470    1.9220 C   0  0  0  0  0  0  0  0  0  0  0  0
   -0.4720    1.2690    2.3510 C   0  0  0  0  0  0  0  0  0  0  0  0
   -1.4600    2.2740    2.0520 C   0  0  1  0  0  0  0  0  0  0  0  0
   -0.8810    3.5280    2.3530 F   0  0  0  0  0  0  0  0  0  0  0  0
   -1.7570    2.2810    0.6710 F   0  0  0  0  0  0  0  0  0  0  0  0
  1  2  1  0
  2  3  2  0
  2 25  1  0
  3  4  1  0
  4  5  2  0
  5  6  1  0
  6  7  1  0
  7  8  1  0
  8  9  2  0
  9 10  1  0
  9 15  1  0
 10 11  1  0
 11 12  2  0
 11 13  1  0
 13 14  1  0
 13 23  2  0
 14 15  2  0
 15 16  1  0
 16 17  1  0
 17 18  2  0
 17 22  1  0
 18 19  1  0
 19 20  2  0
 20 21  1  0
 21 22  2  0
 23 24  1  0
 24 25  1  0
 25 26  2  3
 26 27  1  0
 27 28  1  6
 27 29  1  0
M  END
