
     RDKit          3D

 29 32  0  0  0  0  0  0  0  0999 V2000
    2.1660    0.0800   -3.6090 C   0  0  0  0  0  0  0  0  0  0  0  0
    2.3780    0.3950   -2.3050 C   0  0  0  0  0  0  0  0  0  0  0  0
    2.5140    1.7860   -1.9950 C   0  0  0  0  0  0  0  0  0  0  0  0
    2.3740    2.6880   -3.0800 F   0  0  0  0  0  0  0  0  0  0  0  0
    2.7490    2.3630   -0.8650 C   0  0  0  0  0  0  0  0  0  0  0  0
    2.9480    1.7120    0.4020 C   0  0  0  0  0  0  0  0  0  0  0  0
    2.1570    1.9030    1.4870 N   0  0  0  0  0  0  0  0  0  0  0  0
    2.6770    1.2090    2.4640 N   0  0  0  0  0  0  0  0  0  0  0  0
    3.7950    0.5570    2.0690 C   0  0  0  0  0  0  0  0  0  0  0  0
    3.9860    0.8730    0.7360 C   0  0  0  0  0  0  0  0  0  0  0  0
    5.0300    0.4280    0.0020 F   0  0  0  0  0  0  0  0  0  0  0  0
    2.4010   -0.7300   -1.3800 C   0  0  0  0  0  0  0  0  0  0  0  0
    3.2900   -1.6750   -1.1830 N   0  0  0  0  0  0  0  0  0  0  0  0
    2.8930   -2.5250   -0.2740 N   0  0  0  0  0  0  0  0  0  0  0  0
    1.6510   -2.1700    0.2060 C   0  0  0  0  0  0  0  0  0  0  0  0
    0.9460   -2.9510    1.2480 C   0  0  0  0  0  0  0  0  0  0  0  0
   -0.2220   -3.6780    0.6060 C   0  0  0  0  0  0  0  0  0  0  0  0
    1.3280   -1.0360   -0.4870 C   0  0  0  0  0  0  0  0  0  0  0  0
    0.0720   -0.2880   -0.4670 C   0  0  0  0  0  0  0  0  0  0  0  0
   -0.9400   -0.5270    0.4310 N   0  0  0  0  0  0  0  0  0  0  0  0
   -0.8530   -0.1410    1.7840 C   0  0  0  0  0  0  0  0  0  0  0  0
   -1.7270    1.1050    1.9730 C   0  0  0  0  0  0  0  0  0  0  0  0
   -2.0610    1.6840    0.7560 O   0  0  0  0  0  0  0  0  0  0  0  0
   -2.8400    0.8170    0.0020 C   0  0  1  0  0  0  0  0  0  0  0  0
   -4.2590    0.8640    0.5190 C   0  0  0  0  0  0  0  0  0  0  0  0
   -4.9100    1.7890   -0.4880 C   0  0  0  0  0  0  0  0  0  0  0  0
   -4.3510    1.3280   -1.6870 O   0  0  0  0  0  0  0  0  0  0  0  0
   -2.9860    1.2880   -1.4100 C   0  0  0  0  0  0  0  0  0  0  0  0
   -2.2910   -0.6000   -0.0050 C   0  0  0  0  0  0  0  0  0  0  0  0
  1  2  2  0
  2  3  1  0
  2 12  1  0
  3  4  1  0
  3  5  2  3
  5  6  1  0
  6  7  1  0
  6 10  2  0
  7  8  1  0
  8  9  2  0
  9 10  1  0
 10 11  1  0
 12 13  2  0
 12 18  1  0
 13 14  1  0
 14 15  1  0
 15 16  1  0
 15 18  2  0
 16 17  1  0
 18 19  1  0
 19 20  1  0
 20 21  1  0
 20 29  1  0
 21 22  1  0
 22 23  1  0
 23 24  1  0
 24 25  1  1
 24 28  1  0
 24 29  1  0
 25 26  1  0
 26 27  1  0
 27 28  1  0
M  END
