
     RDKit          3D

 34 35  0  0  0  0  0  0  0  0999 V2000
    4.6530   -4.7000   -1.6800 N   0  0  0  0  0  0  0  0  0  0  0  0
    3.8770   -3.5230   -1.3540 C   0  0  0  0  0  0  0  0  0  0  0  0
    2.7330   -3.4530   -1.7940 O   0  0  0  0  0  0  0  0  0  0  0  0
    4.4710   -2.5480   -0.5670 N   0  0  0  0  0  0  0  0  0  0  0  0
    3.8670   -1.2930   -0.1350 C   0  0  0  0  0  0  0  0  0  0  0  0
    2.7070   -0.9380   -0.5740 C   0  0  0  0  0  0  0  0  0  0  0  0
    1.9680    0.2570   -0.2670 C   0  0  0  0  0  0  0  0  0  0  0  0
    0.7530    0.3880   -0.8490 C   0  0  0  0  0  0  0  0  0  0  0  0
    0.3030   -0.5940   -1.6740 O   0  0  0  0  0  0  0  0  0  0  0  0
   -0.4400   -1.6670   -1.1870 C   0  0  0  0  0  0  0  0  0  0  0  0
   -1.6990   -1.1210   -0.5470 C   0  0  0  0  0  0  0  0  0  0  0  0
   -1.9180    0.0990   -0.5220 O   0  0  0  0  0  0  0  0  0  0  0  0
   -2.6100   -2.0480    0.0180 N   0  0  0  0  0  0  0  0  0  0  0  0
   -3.8380   -1.6380    0.6210 C   0  0  0  0  0  0  0  0  0  0  0  0
   -4.8990   -1.0680   -0.2450 C   0  0  1  0  0  0  0  0  0  0  0  0
   -6.1310   -0.6290    0.6120 C   0  0  0  0  0  0  0  0  0  0  0  0
   -5.6410    0.3620    1.5330 N   0  0  0  0  0  0  0  0  0  0  0  0
   -6.6340    1.3730    1.8160 C   0  0  0  0  0  0  0  0  0  0  0  0
   -6.2180    2.6770    1.2070 C   0  0  0  0  0  0  0  0  0  0  0  0
   -6.0750    2.5720   -0.2240 N   0  0  0  0  0  0  0  0  0  0  0  0
   -4.7750   -0.4590   -1.5410 C   0  0  0  0  0  0  0  0  0  0  0  0
   -5.3700   -1.8740   -1.4260 C   0  0  0  0  0  0  0  0  0  0  0  0
    4.6770   -0.5500    0.7940 C   0  0  0  0  0  0  0  0  0  0  0  0
    5.8930   -1.0130    1.0820 C   0  0  0  0  0  0  0  0  0  0  0  0
    6.8190   -0.1540    1.1110 N   0  0  0  0  0  0  0  0  0  0  0  0
    6.5660    1.2210    0.9030 C   0  0  0  0  0  0  0  0  0  0  0  0
    7.4910    2.0100    0.3840 C   0  0  0  0  0  0  0  0  0  0  0  0
    7.1580    3.7510    0.1260 S   0  0  0  0  0  0  0  0  0  0  0  0
    7.9420    4.3530   -1.3970 C   0  0  2  0  0  0  0  0  0  0  0  0
    7.6410    5.6840   -1.5220 F   0  0  0  0  0  0  0  0  0  0  0  0
    7.5350    3.6130   -2.5020 F   0  0  0  0  0  0  0  0  0  0  0  0
    9.3240    4.1930   -1.2620 F   0  0  0  0  0  0  0  0  0  0  0  0
    5.2250    1.8120    1.2750 C   0  0  0  0  0  0  0  0  0  0  0  0
    4.3460    0.6490    1.4130 N   0  0  0  0  0  0  0  0  0  0  0  0
  1  2  1  0
  2  3  2  0
  2  4  1  0
  4  5  1  0
  5  6  2  3
  5 23  1  0
  6  7  1  0
  7  8  2  3
  8  9  1  0
  9 10  1  0
 10 11  1  0
 11 12  2  0
 11 13  1  0
 13 14  1  0
 15 14  1  1
 15 16  1  0
 15 21  1  0
 15 22  1  0
 16 17  1  0
 17 18  1  0
 18 19  1  0
 19 20  1  0
 21 22  1  0
 23 24  2  0
 23 34  1  0
 24 25  2  0
 25 26  1  0
 26 27  2  3
 26 33  1  0
 27 28  1  0
 28 29  1  0
 29 30  1  6
 29 31  1  0
 29 32  1  0
 33 34  1  0
M  CHG  3  17   1  20   1  25   1
M  END
