
     RDKit          3D

 34 35  0  0  0  0  0  0  0  0999 V2000
   -4.2580   -3.3080   -0.1500 C   0  0  0  0  0  0  0  0  0  0  0  0
   -4.8180   -2.3110   -1.1150 C   0  0  2  0  0  0  0  0  0  0  0  0
   -4.2510   -2.6080   -2.4870 C   0  0  0  0  0  0  0  0  0  0  0  0
   -4.3960   -0.9590   -0.7120 N   0  0  0  0  0  0  0  0  0  0  0  0
   -3.0200   -0.6910   -0.6640 C   0  0  0  0  0  0  0  0  0  0  0  0
   -2.2100   -1.6150   -0.9710 O   0  0  0  0  0  0  0  0  0  0  0  0
   -2.4420    0.5520   -0.2950 N   0  0  0  0  0  0  0  0  0  0  0  0
   -3.2830    1.6570    0.0940 C   0  0  0  0  0  0  0  0  0  0  0  0
   -2.5390    2.4220    1.1700 C   0  0  0  0  0  0  0  0  0  0  0  0
   -1.5000    1.6710    1.8310 N   0  0  0  0  0  0  0  0  0  0  0  0
   -0.4920    1.0820    1.0640 C   0  0  2  0  0  0  0  0  0  0  0  0
    0.9200    1.6740    1.1410 C   0  0  2  0  0  0  0  0  0  0  0  0
    1.3640    1.5410    2.5270 C   0  0  0  0  0  0  0  0  0  0  0  0
    2.6800    1.9120    2.9170 N   0  0  0  0  0  0  0  0  0  0  0  0
    0.9110    2.9610    0.4240 C   0  0  0  0  0  0  0  0  0  0  0  0
    2.0620    3.8610    0.3230 C   0  0  0  0  0  0  0  0  0  0  0  0
    2.5090    4.5670    1.5320 C   0  0  0  0  0  0  0  0  0  0  0  0
    3.8550    4.9780    1.6380 N   0  0  0  0  0  0  0  0  0  0  0  0
    1.7240    4.8180    2.4690 O   0  0  0  0  0  0  0  0  0  0  0  0
    1.7690    0.7500    0.2390 C   0  0  0  0  0  0  0  0  0  0  0  0
    1.8520   -0.6550    0.6750 C   0  0  0  0  0  0  0  0  0  0  0  0
    2.6780   -1.4530   -0.2570 N   0  0  0  0  0  0  0  0  0  0  0  0
    2.0640   -2.1260   -1.3850 C   0  0  0  0  0  0  0  0  0  0  0  0
    2.9130   -3.3270   -1.7450 C   0  0  1  0  0  0  0  0  0  0  0  0
    2.1510   -4.1380   -3.1920 S   0  0  0  0  0  0  0  0  0  0  0  0
    4.2510   -2.9350   -2.1140 N   0  0  0  0  0  0  0  0  0  0  0  0
    4.9650   -2.2910   -1.0530 C   0  0  0  0  0  0  0  0  0  0  0  0
    4.0800   -1.5950   -0.0910 C   0  0  0  0  0  0  0  0  0  0  0  0
    4.5990   -1.0980    0.9340 O   0  0  0  0  0  0  0  0  0  0  0  0
   -0.9670    0.7490   -0.3050 C   0  0  0  0  0  0  0  0  0  0  0  0
   -6.3260   -2.3290   -1.1790 C   0  0  1  0  0  0  0  0  0  0  0  0
   -6.7210   -1.3670   -2.1030 F   0  0  0  0  0  0  0  0  0  0  0  0
   -6.8070   -3.5530   -1.5370 F   0  0  0  0  0  0  0  0  0  0  0  0
   -6.8040   -1.9730    0.0840 F   0  0  0  0  0  0  0  0  0  0  0  0
  2  1  1  1
  2  3  1  0
  2  4  1  0
  2 31  1  0
  4  5  1  0
  5  6  2  0
  5  7  1  0
  7  8  1  0
  7 30  1  0
  8  9  1  0
  9 10  1  0
 10 11  1  0
 11 12  1  0
 11 30  1  6
 12 13  1  1
 12 15  1  0
 12 20  1  0
 13 14  1  0
 15 16  1  0
 16 17  1  0
 17 18  1  0
 17 19  2  0
 20 21  1  0
 21 22  1  0
 22 23  1  0
 22 28  1  0
 23 24  1  0
 24 25  1  6
 24 26  1  0
 26 27  1  0
 27 28  1  0
 28 29  2  0
 31 32  1  6
 31 33  1  0
 31 34  1  0
M  CHG  3  10   1  14   1  26   1
M  END
