
     RDKit          3D

 35 39  0  0  0  0  0  0  0  0999 V2000
    6.1210   -4.4860   -0.4370 C   0  0  0  0  0  0  0  0  0  0  0  0
    5.4710   -3.1790   -0.8700 C   0  0  0  0  0  0  0  0  0  0  0  0
    5.4230   -2.2440    0.2350 N   0  0  0  0  0  0  0  0  0  0  0  0
    4.8570   -0.9710    0.0390 C   0  0  0  0  0  0  0  0  0  0  0  0
    3.5220   -0.7540    0.2510 C   0  0  0  0  0  0  0  0  0  0  0  0
    2.6980   -1.9060    0.6930 C   0  0  0  0  0  0  0  0  0  0  0  0
    2.9180    0.5080    0.0640 C   0  0  0  0  0  0  0  0  0  0  0  0
    1.5370    0.6490    0.3030 N   0  0  0  0  0  0  0  0  0  0  0  0
    0.7470    1.8090    0.1790 C   0  0  0  0  0  0  0  0  0  0  0  0
    1.2930    2.8510   -0.1800 O   0  0  0  0  0  0  0  0  0  0  0  0
   -0.6580    1.8070    0.4560 N   0  0  0  0  0  0  0  0  0  0  0  0
   -1.4970    2.9310    0.3580 C   0  0  0  0  0  0  0  0  0  0  0  0
   -1.0640    4.2340    0.2270 C   0  0  0  0  0  0  0  0  0  0  0  0
   -1.9260    5.3300    0.1960 C   0  0  0  0  0  0  0  0  0  0  0  0
   -3.2630    5.1320    0.2970 C   0  0  0  0  0  0  0  0  0  0  0  0
   -3.7400    3.8370    0.4290 C   0  0  0  0  0  0  0  0  0  0  0  0
   -2.8890    2.7400    0.4600 C   0  0  0  0  0  0  0  0  0  0  0  0
   -3.3620    1.4160    0.5320 N   0  0  0  0  0  0  0  0  0  0  0  0
   -4.6780    0.9770    0.8090 C   0  0  0  0  0  0  0  0  0  0  0  0
   -5.5680    1.8120    1.0290 O   0  0  0  0  0  0  0  0  0  0  0  0
   -5.0550   -0.4590    0.8500 C   0  0  2  0  0  0  0  0  0  0  0  0
   -4.3000   -1.2270    1.8850 C   0  0  0  0  0  0  0  0  0  0  0  0
   -3.8740   -2.5340    1.2270 C   0  0  0  0  0  0  0  0  0  0  0  0
   -3.8650   -2.2280   -0.2610 C   0  0  0  0  0  0  0  0  0  0  0  0
   -4.8860   -1.1450   -0.4680 C   0  0  1  0  0  0  0  0  0  0  0  0
   -6.1780   -1.6780   -0.8580 N   0  0  0  0  0  0  0  0  0  0  0  0
   -7.1500   -0.8010   -0.2370 C   0  0  0  0  0  0  0  0  0  0  0  0
   -6.5290   -0.5810    1.1280 C   0  0  0  0  0  0  0  0  0  0  0  0
    3.7510    1.5050   -0.3420 C   0  0  0  0  0  0  0  0  0  0  0  0
    5.1170    1.3040   -0.5630 C   0  0  0  0  0  0  0  0  0  0  0  0
    5.8790    2.3700   -0.9720 C   0  0  0  0  0  0  0  0  0  0  0  0
    7.2400    2.1620   -1.1910 C   0  0  0  0  0  0  0  0  0  0  0  0
    7.8140    0.9280   -1.0050 C   0  0  0  0  0  0  0  0  0  0  0  0
    7.0280   -0.1270   -0.5950 C   0  0  0  0  0  0  0  0  0  0  0  0
    5.6790    0.0600   -0.3730 C   0  0  0  0  0  0  0  0  0  0  0  0
  1  2  1  0
  2  3  1  0
  3  4  1  0
  4  5  2  0
  4 35  1  0
  5  6  1  0
  5  7  1  0
  7  8  1  0
  7 29  2  0
  8  9  1  0
  9 10  2  0
  9 11  1  0
 11 12  1  0
 12 13  2  0
 12 17  1  0
 13 14  1  0
 14 15  2  0
 15 16  1  0
 16 17  2  0
 17 18  1  0
 18 19  1  0
 19 20  2  0
 21 19  1  6
 21 22  1  0
 21 25  1  0
 21 28  1  0
 22 23  1  0
 23 24  1  0
 25 24  1  1
 25 26  1  0
 26 27  1  0
 27 28  1  0
 29 30  1  0
 30 31  2  0
 30 35  1  0
 31 32  1  0
 32 33  2  0
 33 34  1  0
 34 35  2  0
M  CHG  1  26   1
M  END
