
     RDKit          3D

 35 39  0  0  0  0  0  0  0  0999 V2000
   -9.0180   -0.7870   -0.4180 C   0  0  0  0  0  0  0  0  0  0  0  0
   -8.6060    0.3550    0.4660 C   0  0  0  0  0  0  0  0  0  0  0  0
   -7.1660    0.7630    0.2020 C   0  0  1  0  0  0  0  0  0  0  0  0
   -7.0210    1.1720   -1.1630 N   0  0  0  0  0  0  0  0  0  0  0  0
   -6.8530    1.9550    1.0920 C   0  0  0  0  0  0  0  0  0  0  0  0
   -5.5310    2.5600    0.7030 C   0  0  0  0  0  0  0  0  0  0  0  0
   -4.5200    1.4930    0.4960 C   0  0  0  0  0  0  0  0  0  0  0  0
   -3.2070    1.8730    0.3490 C   0  0  0  0  0  0  0  0  0  0  0  0
   -2.2250    0.9170    0.1550 C   0  0  0  0  0  0  0  0  0  0  0  0
   -2.4990   -0.4150    0.1000 C   0  0  0  0  0  0  0  0  0  0  0  0
   -1.5780   -1.4600   -0.0790 N   0  0  0  0  0  0  0  0  0  0  0  0
   -0.1880   -1.2390   -0.0330 C   0  0  0  0  0  0  0  0  0  0  0  0
    0.3800   -0.1640    0.1640 O   0  0  0  0  0  0  0  0  0  0  0  0
    0.6840   -2.4340   -0.2430 C   0  0  0  0  0  0  0  0  0  0  0  0
    2.1160   -2.0860   -0.1730 C   0  0  0  0  0  0  0  0  0  0  0  0
    2.7610   -1.7180   -1.3370 C   0  0  0  0  0  0  0  0  0  0  0  0
    4.0860   -1.3930   -1.2900 C   0  0  0  0  0  0  0  0  0  0  0  0
    4.8440   -1.4060   -0.1370 C   0  0  0  0  0  0  0  0  0  0  0  0
    6.2380   -1.0590   -0.1270 N   0  0  0  0  0  0  0  0  0  0  0  0
    7.2420   -1.8760    0.2350 C   0  0  0  0  0  0  0  0  0  0  0  0
    8.4250   -1.2310    0.1270 N   0  0  0  0  0  0  0  0  0  0  0  0
    8.1990    0.0060   -0.3040 C   0  0  0  0  0  0  0  0  0  0  0  0
    9.0320    1.0620   -0.5790 C   0  0  0  0  0  0  0  0  0  0  0  0
   10.4760    1.0040   -0.4300 C   0  0  0  0  0  0  0  0  0  0  0  0
   11.0780   -0.1960    0.0230 N   0  0  0  0  0  0  0  0  0  0  0  0
   11.2280    1.9730   -0.6830 O   0  0  0  0  0  0  0  0  0  0  0  0
    8.4660    2.2370   -1.0200 C   0  0  0  0  0  0  0  0  0  0  0  0
    7.0890    2.3400   -1.1780 C   0  0  0  0  0  0  0  0  0  0  0  0
    6.2810    1.2810   -0.8990 C   0  0  0  0  0  0  0  0  0  0  0  0
    6.8150    0.1060   -0.4610 C   0  0  0  0  0  0  0  0  0  0  0  0
    4.1950   -1.7750    1.0290 C   0  0  0  0  0  0  0  0  0  0  0  0
    2.8470   -2.1080    0.9960 C   0  0  0  0  0  0  0  0  0  0  0  0
   -3.8410   -0.7870    0.2510 C   0  0  0  0  0  0  0  0  0  0  0  0
   -4.8190    0.1510    0.4440 C   0  0  0  0  0  0  0  0  0  0  0  0
   -6.2310   -0.3430    0.5970 C   0  0  0  0  0  0  0  0  0  0  0  0
  1  2  1  0
  2  3  1  0
  3  4  1  6
  3  5  1  0
  3 35  1  0
  5  6  1  0
  6  7  1  0
  7  8  2  0
  7 34  1  0
  8  9  1  0
  9 10  2  0
 10 11  1  0
 10 33  1  0
 11 12  1  0
 12 13  2  0
 12 14  1  0
 14 15  1  0
 15 16  2  0
 15 32  1  0
 16 17  1  0
 17 18  2  0
 18 19  1  0
 18 31  1  0
 19 20  1  0
 19 30  1  0
 20 21  2  0
 21 22  1  0
 22 23  2  0
 22 30  1  0
 23 24  1  0
 23 27  1  0
 24 25  1  0
 24 26  2  0
 27 28  2  0
 28 29  1  0
 29 30  2  0
 31 32  2  0
 33 34  2  0
 34 35  1  0
M  CHG  1   4   1
M  END
