
     RDKit          3D

 34 34  0  0  0  0  0  0  0  0999 V2000
   10.1300    1.8240   -1.7190 C   0  0  0  0  0  0  0  0  0  0  0  0
    9.2480    0.6120   -1.4020 C   0  0  0  0  0  0  0  0  0  0  0  0
    9.0800    0.5970    0.0710 C   0  0  0  0  0  0  0  0  0  0  0  0
    7.8670    0.6880    0.5870 C   0  0  0  0  0  0  0  0  0  0  0  0
    7.6940    0.6750    2.0130 C   0  0  0  0  0  0  0  0  0  0  0  0
    6.4890    0.7640    2.5390 C   0  0  0  0  0  0  0  0  0  0  0  0
    5.3810    0.8730    1.6640 N   0  0  0  0  0  0  0  0  0  0  0  0
    4.3220   -0.0470    1.5410 C   0  0  0  0  0  0  0  0  0  0  0  0
    4.3120   -1.0820    2.2470 O   0  0  0  0  0  0  0  0  0  0  0  0
    3.2220    0.2100    0.5770 C   0  0  0  0  0  0  0  0  0  0  0  0
    2.2190   -0.9310    0.6720 C   0  0  0  0  0  0  0  0  0  0  0  0
    1.0960   -0.7620   -0.2460 C   0  0  0  0  0  0  0  0  0  0  0  0
    1.2130    0.1720   -1.1130 O   0  0  0  0  0  0  0  0  0  0  0  0
   -0.0410   -1.5710   -0.1860 N   0  0  0  0  0  0  0  0  0  0  0  0
   -1.1750   -1.4120   -1.1130 C   0  0  0  0  0  0  0  0  0  0  0  0
   -2.3650   -1.0310   -0.2570 C   0  0  1  0  0  0  0  0  0  0  0  0
   -3.5860   -0.9830   -1.0300 N   0  0  0  0  0  0  0  0  0  0  0  0
   -4.2650    0.2290   -1.1940 C   0  0  0  0  0  0  0  0  0  0  0  0
   -3.7870    1.2710   -0.6540 O   0  0  0  0  0  0  0  0  0  0  0  0
   -5.4890    0.3550   -1.9500 N   0  0  0  0  0  0  0  0  0  0  0  0
   -6.2650    1.4270   -1.4070 C   0  0  1  0  0  0  0  0  0  0  0  0
   -6.8860    2.2760   -2.4970 C   0  0  0  0  0  0  0  0  0  0  0  0
   -7.7620    1.5240   -3.3480 N   0  0  0  0  0  0  0  0  0  0  0  0
   -7.2860    0.9560   -0.4080 C   0  0  0  0  0  0  0  0  0  0  0  0
   -6.5630    0.2660    0.7280 C   0  0  0  0  0  0  0  0  0  0  0  0
   -7.4850   -0.2160    1.7360 N   0  0  0  0  0  0  0  0  0  0  0  0
   -2.5940   -1.9720    0.8960 C   0  0  0  0  0  0  0  0  0  0  0  0
   -1.5680   -2.9410    1.1000 N   0  0  0  0  0  0  0  0  0  0  0  0
   -0.2050   -2.6070    0.7720 C   0  0  0  0  0  0  0  0  0  0  0  0
    1.0540   -3.3530    1.4420 S   0  0  0  0  0  0  0  0  0  0  0  0
    6.2570    0.7770    4.0030 C   0  0  2  0  0  0  0  0  0  0  0  0
    7.4630    0.7250    4.6900 F   0  0  0  0  0  0  0  0  0  0  0  0
    5.4650   -0.2940    4.3420 F   0  0  0  0  0  0  0  0  0  0  0  0
    5.5720    1.9310    4.3320 F   0  0  0  0  0  0  0  0  0  0  0  0
  1  2  1  0
  2  3  1  0
  3  4  2  3
  4  5  1  0
  5  6  2  3
  6  7  1  0
  6 31  1  0
  7  8  1  0
  8  9  2  0
  8 10  1  0
 10 11  1  0
 11 12  1  0
 12 13  2  0
 12 14  1  0
 14 15  1  0
 14 29  1  0
 15 16  1  0
 16 17  1  6
 16 27  1  0
 17 18  1  0
 18 19  2  0
 18 20  1  0
 20 21  1  0
 21 22  1  6
 21 24  1  0
 22 23  1  0
 24 25  1  0
 25 26  1  0
 27 28  1  0
 28 29  1  0
 29 30  2  0
 31 32  1  1
 31 33  1  0
 31 34  1  0
M  CHG  3  20   1  23   1  26   1
M  END
