
     RDKit          3D

 33 34  0  0  0  0  0  0  0  0999 V2000
    5.0590   -3.6060    0.3020 N   0  0  0  0  0  0  0  0  0  0  0  0
    6.0310   -2.9010    0.0270 C   0  0  0  0  0  0  0  0  0  0  0  0
    6.0940   -1.5660   -0.5480 C   0  0  0  0  0  0  0  0  0  0  0  0
    7.3000   -0.9890   -0.7010 C   0  0  0  0  0  0  0  0  0  0  0  0
    8.5030   -1.7390   -0.2770 C   0  0  1  0  0  0  0  0  0  0  0  0
    8.6520   -2.8060   -1.1750 F   0  0  0  0  0  0  0  0  0  0  0  0
    9.6120   -0.8970   -0.3920 F   0  0  0  0  0  0  0  0  0  0  0  0
    4.9460   -0.8490   -1.0370 C   0  0  0  0  0  0  0  0  0  0  0  0
    5.0430    0.3460   -1.5080 N   0  0  0  0  0  0  0  0  0  0  0  0
    3.6540   -1.4880   -1.0720 N   0  0  0  0  0  0  0  0  0  0  0  0
    2.5290   -0.7600   -0.5960 N   0  0  0  0  0  0  0  0  0  0  0  0
    1.6100   -0.1600   -1.4810 C   0  0  0  0  0  0  0  0  0  0  0  0
    1.9060   -0.3520   -2.7420 O   0  0  0  0  0  0  0  0  0  0  0  0
    0.4490    0.5950   -1.2460 C   0  0  0  0  0  0  0  0  0  0  0  0
   -0.1420    0.9620   -0.1460 C   0  0  0  0  0  0  0  0  0  0  0  0
    0.2870    0.6500    1.2230 C   0  0  1  0  0  0  0  0  0  0  0  0
    1.3920    1.4210    1.5550 F   0  0  0  0  0  0  0  0  0  0  0  0
   -0.7690    1.0110    2.2500 C   0  0  0  0  0  0  0  0  0  0  0  0
   -1.3080    2.3870    2.1350 C   0  0  0  0  0  0  0  0  0  0  0  0
   -1.2830    2.9200    0.7220 C   0  0  0  0  0  0  0  0  0  0  0  0
   -1.3820    1.8360   -0.3040 C   0  0  2  0  0  0  0  0  0  0  0  0
   -2.6000    1.0400   -0.1860 N   0  0  0  0  0  0  0  0  0  0  0  0
   -2.3450   -0.3200   -0.5520 C   0  0  0  0  0  0  0  0  0  0  0  0
   -3.4050   -1.2520   -0.2550 C   0  0  0  0  0  0  0  0  0  0  0  0
   -3.1480   -2.4820   -0.5990 O   0  0  0  0  0  0  0  0  0  0  0  0
   -4.6390   -1.0250    0.3370 N   0  0  0  0  0  0  0  0  0  0  0  0
   -5.2790    0.1530    0.8220 C   0  0  0  0  0  0  0  0  0  0  0  0
   -6.7770   -0.1700    0.8760 C   0  0  0  0  0  0  0  0  0  0  0  0
   -6.8950   -1.4930    0.1360 C   0  0  0  0  0  0  0  0  0  0  0  0
   -5.5980   -2.1400    0.6130 C   0  0  0  0  0  0  0  0  0  0  0  0
   -1.3520    2.4970   -1.6370 C   0  0  0  0  0  0  0  0  0  0  0  0
   -0.3060    3.3130   -2.0820 N   0  0  0  0  0  0  0  0  0  0  0  0
   -2.3230    2.3120   -2.4130 O   0  0  0  0  0  0  0  0  0  0  0  0
  1  2  2  0
  2  3  1  0
  3  4  2  3
  3  8  1  0
  4  5  1  0
  5  6  1  6
  5  7  1  0
  8  9  2  0
  8 10  1  0
 10 11  1  0
 11 12  1  0
 12 13  2  0
 12 14  1  0
 14 15  2  3
 15 16  1  0
 15 21  1  0
 16 17  1  1
 16 18  1  0
 18 19  1  0
 19 20  1  0
 20 21  1  0
 21 22  1  1
 21 31  1  0
 22 23  1  0
 23 24  1  0
 24 25  2  0
 24 26  1  0
 26 27  1  0
 26 30  1  0
 27 28  1  0
 28 29  1  0
 29 30  1  0
 31 32  1  0
 31 33  2  0
M  CHG  2   9   1  22   1
M  END
