
     RDKit          3D

 34 38  0  0  0  0  0  0  0  0999 V2000
   -1.9710    1.1140    3.5220 C   0  0  0  0  0  0  0  0  0  0  0  0
   -2.5550    0.7260    2.2200 C   0  0  0  0  0  0  0  0  0  0  0  0
   -3.7400    1.1120    1.7620 N   0  0  0  0  0  0  0  0  0  0  0  0
   -3.9930    0.6100    0.5750 N   0  0  0  0  0  0  0  0  0  0  0  0
   -5.2140    0.8660   -0.1620 C   0  0  0  0  0  0  0  0  0  0  0  0
   -5.0120    2.1020   -1.0240 C   0  0  0  0  0  0  0  0  0  0  0  0
   -4.6850    3.3100   -0.1800 C   0  0  0  0  0  0  0  0  0  0  0  0
   -4.4570    4.7420   -1.2400 S   0  0  0  0  0  0  0  0  0  0  0  0
   -4.0470    5.9120   -0.3250 O   0  0  0  0  0  0  0  0  0  0  0  0
   -2.9370   -0.1730    0.1650 C   0  0  0  0  0  0  0  0  0  0  0  0
   -2.8640   -0.8280   -1.0840 N   0  0  0  0  0  0  0  0  0  0  0  0
   -1.8680   -1.7210   -1.5000 C   0  0  0  0  0  0  0  0  0  0  0  0
   -1.3250   -1.6020   -2.7810 C   0  0  0  0  0  0  0  0  0  0  0  0
   -0.3750   -2.4630   -3.2750 C   0  0  0  0  0  0  0  0  0  0  0  0
    0.0870   -3.4970   -2.5090 C   0  0  0  0  0  0  0  0  0  0  0  0
   -0.4170   -3.6590   -1.2360 C   0  0  0  0  0  0  0  0  0  0  0  0
   -1.3760   -2.7760   -0.7630 C   0  0  0  0  0  0  0  0  0  0  0  0
   -2.0400   -0.0900    1.2100 C   0  0  0  0  0  0  0  0  0  0  0  0
   -0.7530   -0.6850    1.2990 N   0  0  0  0  0  0  0  0  0  0  0  0
    0.4130   -0.0380    0.7610 C   0  0  0  0  0  0  0  0  0  0  0  0
    0.3330    1.0670    0.1990 O   0  0  0  0  0  0  0  0  0  0  0  0
    1.6980   -0.7110    0.8900 C   0  0  0  0  0  0  0  0  0  0  0  0
    1.9800   -1.8960    1.4600 N   0  0  0  0  0  0  0  0  0  0  0  0
    3.2690   -2.1360    1.3630 O   0  0  0  0  0  0  0  0  0  0  0  0
    3.8780   -1.1710    0.7550 C   0  0  0  0  0  0  0  0  0  0  0  0
    2.9080   -0.2340    0.4330 C   0  0  0  0  0  0  0  0  0  0  0  0
    3.2510    0.9150   -0.2250 C   0  0  0  0  0  0  0  0  0  0  0  0
    4.5420    1.1910   -0.5910 C   0  0  0  0  0  0  0  0  0  0  0  0
    5.5080    0.2600   -0.2720 C   0  0  0  0  0  0  0  0  0  0  0  0
    6.8120    0.5560   -0.6510 C   0  0  0  0  0  0  0  0  0  0  0  0
    7.7870   -0.3570   -0.3420 C   0  0  0  0  0  0  0  0  0  0  0  0
    7.4930   -1.5270    0.3190 C   0  0  0  0  0  0  0  0  0  0  0  0
    6.1760   -1.8090    0.6920 C   0  0  0  0  0  0  0  0  0  0  0  0
    5.1780   -0.9110    0.3960 C   0  0  0  0  0  0  0  0  0  0  0  0
  1  2  1  0
  2  3  2  0
  2 18  1  0
  3  4  1  0
  4  5  1  0
  4 10  1  0
  5  6  1  0
  6  7  1  0
  7  8  1  0
  8  9  2  0
 10 11  1  0
 10 18  2  0
 11 12  1  0
 12 13  2  0
 12 17  1  0
 13 14  1  0
 14 15  2  0
 15 16  1  0
 16 17  2  0
 18 19  1  0
 19 20  1  0
 20 21  2  0
 20 22  1  0
 22 23  2  0
 22 26  1  0
 23 24  1  0
 24 25  1  0
 25 26  2  0
 25 34  1  0
 26 27  1  0
 27 28  2  0
 28 29  1  0
 29 30  2  0
 29 34  1  0
 30 31  1  0
 31 32  2  0
 32 33  1  0
 33 34  2  0
M  END
