
     RDKit          3D

 35 37  0  0  0  0  0  0  0  0999 V2000
  -11.0390    0.7630   -0.0590 C   0  0  0  0  0  0  0  0  0  0  0  0
  -10.7000   -0.6430   -0.5050 C   0  0  0  0  0  0  0  0  0  0  0  0
   -9.3400   -0.7150   -0.9560 O   0  0  0  0  0  0  0  0  0  0  0  0
   -8.2760   -0.3980   -0.1020 C   0  0  0  0  0  0  0  0  0  0  0  0
   -8.6090   -0.0600    1.0470 O   0  0  0  0  0  0  0  0  0  0  0  0
   -6.8820   -0.4610   -0.5300 C   0  0  0  0  0  0  0  0  0  0  0  0
   -6.5520   -0.8280   -1.8210 C   0  0  0  0  0  0  0  0  0  0  0  0
   -7.6210   -1.1590   -2.7060 N   0  0  0  0  0  0  0  0  0  0  0  0
   -5.2510   -0.8550   -2.1760 C   0  0  0  0  0  0  0  0  0  0  0  0
   -4.2590   -0.5140   -1.2460 C   0  0  0  0  0  0  0  0  0  0  0  0
   -4.5290   -0.1420    0.0510 C   0  0  0  0  0  0  0  0  0  0  0  0
   -3.5420    0.2630    0.9760 N   0  0  0  0  0  0  0  0  0  0  0  0
   -2.1350    0.0740    0.7610 C   0  0  0  0  0  0  0  0  0  0  0  0
   -1.7240   -0.4750   -0.2780 O   0  0  0  0  0  0  0  0  0  0  0  0
   -1.2010    0.5150    1.7340 N   0  0  0  0  0  0  0  0  0  0  0  0
    0.1870    0.3780    1.5920 C   0  0  0  0  0  0  0  0  0  0  0  0
    0.9820    0.4710    2.7480 C   0  0  0  0  0  0  0  0  0  0  0  0
    2.3380    0.3720    2.6610 C   0  0  0  0  0  0  0  0  0  0  0  0
    3.0130    0.1760    1.4470 C   0  0  0  0  0  0  0  0  0  0  0  0
    4.3890    0.0900    1.4630 O   0  0  0  0  0  0  0  0  0  0  0  0
    5.2260   -0.1020    0.3660 C   0  0  1  0  0  0  0  0  0  0  0  0
    6.1590    1.0780    0.1480 C   0  0  0  0  0  0  0  0  0  0  0  0
    7.2670    0.6060   -0.8040 C   0  0  0  0  0  0  0  0  0  0  0  0
    8.2370   -0.2240   -0.0260 C   0  0  1  0  0  0  0  0  0  0  0  0
    8.7990   -1.2380   -0.8190 O   0  0  0  0  0  0  0  0  0  0  0  0
    9.3320    0.6080    0.5630 C   0  0  0  0  0  0  0  0  0  0  0  0
   10.1280    1.3030   -0.4610 C   0  0  0  0  0  0  0  0  0  0  0  0
    9.9610    1.0750   -1.8460 N   0  0  0  0  0  0  0  0  0  0  0  0
   10.9970    2.1390   -0.0980 O   0  0  0  0  0  0  0  0  0  0  0  0
    7.4880   -0.9410    1.0890 C   0  0  0  0  0  0  0  0  0  0  0  0
    6.1150   -1.3360    0.5600 C   0  0  0  0  0  0  0  0  0  0  0  0
    2.2090    0.0900    0.3440 C   0  0  0  0  0  0  0  0  0  0  0  0
    0.8090    0.1890    0.4070 C   0  0  0  0  0  0  0  0  0  0  0  0
   -5.8890   -0.1280    0.3830 C   0  0  0  0  0  0  0  0  0  0  0  0
   -6.2830    0.2090    1.7670 C   0  0  0  0  0  0  0  0  0  0  0  0
  1  2  1  0
  2  3  1  0
  3  4  1  0
  4  5  2  0
  4  6  1  0
  6  7  2  0
  6 34  1  0
  7  8  1  0
  7  9  1  0
  9 10  2  0
 10 11  1  0
 11 12  1  0
 11 34  2  0
 12 13  1  0
 13 14  2  0
 13 15  1  0
 15 16  1  0
 16 17  2  0
 16 33  1  0
 17 18  1  0
 18 19  2  0
 19 20  1  0
 19 32  1  0
 21 20  1  1
 21 22  1  0
 21 31  1  0
 22 23  1  0
 23 24  1  0
 24 25  1  6
 24 26  1  0
 24 30  1  0
 26 27  1  0
 27 28  1  0
 27 29  2  0
 30 31  1  0
 32 33  2  0
 34 35  1  0
M  CHG  1   8   1
M  END
