
     RDKit          3D

 34 36  0  0  0  0  0  0  0  0999 V2000
   -8.3510   -3.8770    0.0760 C   0  0  0  0  0  0  0  0  0  0  0  0
   -7.2160   -2.9200    0.0170 C   0  0  0  0  0  0  0  0  0  0  0  0
   -7.1920   -1.7880   -0.7400 C   0  0  0  0  0  0  0  0  0  0  0  0
   -6.1150   -0.9090   -0.7760 C   0  0  0  0  0  0  0  0  0  0  0  0
   -5.0270   -1.1880   -0.0170 C   0  0  0  0  0  0  0  0  0  0  0  0
   -3.8280   -0.3540    0.0580 C   0  0  0  0  0  0  0  0  0  0  0  0
   -3.9420    0.9390    0.1760 C   0  0  0  0  0  0  0  0  0  0  0  0
   -5.1860    1.6080    0.2370 N   0  0  0  0  0  0  0  0  0  0  0  0
   -5.5390    2.6320   -0.6980 C   0  0  0  0  0  0  0  0  0  0  0  0
   -6.8070    3.2590   -0.5730 N   0  0  0  0  0  0  0  0  0  0  0  0
   -4.7340    2.9630   -1.6110 O   0  0  0  0  0  0  0  0  0  0  0  0
   -2.7190    1.7700    0.2540 C   0  0  0  0  0  0  0  0  0  0  0  0
   -2.9110    3.0020    0.3670 O   0  0  0  0  0  0  0  0  0  0  0  0
   -1.4220    1.2380    0.2040 N   0  0  0  0  0  0  0  0  0  0  0  0
   -0.2560    2.0400    0.2860 C   0  0  0  0  0  0  0  0  0  0  0  0
   -0.1660    3.3180    0.7390 C   0  0  0  0  0  0  0  0  0  0  0  0
    1.0490    4.0280    0.7600 C   0  0  0  0  0  0  0  0  0  0  0  0
    2.2150    3.4320    0.3110 C   0  0  0  0  0  0  0  0  0  0  0  0
    3.4250    4.1140    0.3230 O   0  0  0  0  0  0  0  0  0  0  0  0
    2.1450    2.1390   -0.1510 C   0  0  0  0  0  0  0  0  0  0  0  0
    3.2910    1.4860   -0.6180 O   0  0  0  0  0  0  0  0  0  0  0  0
    4.0970    0.6810    0.1620 C   0  0  0  0  0  0  0  0  0  0  0  0
    3.7630    0.5510    1.3750 O   0  0  0  0  0  0  0  0  0  0  0  0
    5.2700   -0.0020   -0.3310 C   0  0  0  0  0  0  0  0  0  0  0  0
    5.7600    0.0430   -1.6280 C   0  0  0  0  0  0  0  0  0  0  0  0
    6.8100   -0.7090   -1.6710 O   0  0  0  0  0  0  0  0  0  0  0  0
    7.0700   -1.2580   -0.5130 C   0  0  0  0  0  0  0  0  0  0  0  0
    8.2010   -2.1780   -0.2130 C   0  0  1  0  0  0  0  0  0  0  0  0
    9.1180   -2.2150   -1.3910 C   0  0  0  0  0  0  0  0  0  0  0  0
    8.8170   -1.7480    1.0090 N   0  0  0  0  0  0  0  0  0  0  0  0
    6.1140   -0.8330    0.3680 C   0  0  0  0  0  0  0  0  0  0  0  0
    0.9590    1.4800   -0.1600 C   0  0  0  0  0  0  0  0  0  0  0  0
   -5.0230   -2.3320    0.7630 C   0  0  0  0  0  0  0  0  0  0  0  0
   -6.0930   -3.1840    0.7830 C   0  0  0  0  0  0  0  0  0  0  0  0
  1  2  1  0
  2  3  2  0
  2 34  1  0
  3  4  1  0
  4  5  2  0
  5  6  1  0
  5 33  1  0
  6  7  2  3
  7  8  1  0
  7 12  1  0
  8  9  1  0
  9 10  1  0
  9 11  2  0
 12 13  2  0
 12 14  1  0
 14 15  1  0
 15 16  2  0
 15 32  1  0
 16 17  1  0
 17 18  2  0
 18 19  1  0
 18 20  1  0
 20 21  1  0
 20 32  2  0
 21 22  1  0
 22 23  2  0
 22 24  1  0
 24 25  2  0
 24 31  1  0
 25 26  1  0
 26 27  1  0
 27 28  1  0
 27 31  2  0
 28 29  1  6
 28 30  1  0
 33 34  2  0
M  CHG  1  30   1
M  END
