
     RDKit          3D

 35 39  0  0  0  0  0  0  0  0999 V2000
    0.0940   -3.4600    1.8670 C   0  0  0  0  0  0  0  0  0  0  0  0
    0.3690   -2.1160    1.3650 N   0  0  0  0  0  0  0  0  0  0  0  0
   -0.5150   -1.1090    1.2570 C   0  0  0  0  0  0  0  0  0  0  0  0
    0.0870    0.0440    0.8200 C   0  0  0  0  0  0  0  0  0  0  0  0
   -0.4400    1.4140    0.6560 C   0  0  1  0  0  0  0  0  0  0  0  0
   -1.4070    1.5690   -0.4440 C   0  0  0  0  0  0  0  0  0  0  0  0
   -2.5360    0.6000   -0.3470 C   0  0  0  0  0  0  0  0  0  0  0  0
   -3.2050    0.7690    0.8870 N   0  0  0  0  0  0  0  0  0  0  0  0
   -4.6210    0.6450    1.0080 C   0  0  0  0  0  0  0  0  0  0  0  0
   -5.2430    0.6620    2.0170 O   0  0  0  0  0  0  0  0  0  0  0  0
   -5.3490    0.4820   -0.3220 C   0  0  1  0  0  0  0  0  0  0  0  0
   -5.2080   -0.7100   -1.1230 C   0  0  0  0  0  0  0  0  0  0  0  0
   -6.4380   -1.6410   -1.0240 C   0  0  0  0  0  0  0  0  0  0  0  0
   -7.6240   -0.9330   -1.6590 C   0  0  0  0  0  0  0  0  0  0  0  0
   -7.6470    0.5000   -1.2990 C   0  0  0  0  0  0  0  0  0  0  0  0
   -6.8470    0.7820   -0.0440 C   0  0  0  0  0  0  0  0  0  0  0  0
   -2.5280    1.1570    2.1220 C   0  0  0  0  0  0  0  0  0  0  0  0
   -1.1990    1.7720    1.9780 C   0  0  0  0  0  0  0  0  0  0  0  0
    1.4530   -0.3260    0.6590 C   0  0  0  0  0  0  0  0  0  0  0  0
    2.5730    0.4080    0.1680 C   0  0  0  0  0  0  0  0  0  0  0  0
    3.7910   -0.2470   -0.0030 C   0  0  0  0  0  0  0  0  0  0  0  0
    4.9440    0.4800   -0.3290 N   0  0  0  0  0  0  0  0  0  0  0  0
    6.0850   -0.1820   -0.8150 C   0  0  0  0  0  0  0  0  0  0  0  0
    6.1770   -1.4740   -1.0320 O   0  0  0  0  0  0  0  0  0  0  0  0
    7.3340    0.5650   -1.1000 C   0  0  0  0  0  0  0  0  0  0  0  0
    8.4080    0.3360   -0.2300 C   0  0  0  0  0  0  0  0  0  0  0  0
    9.7510    0.6820   -0.5270 C   0  0  0  0  0  0  0  0  0  0  0  0
   10.7420    0.1280    0.3100 C   0  0  0  0  0  0  0  0  0  0  0  0
   11.5200   -0.2850    0.9630 N   0  0  0  0  0  0  0  0  0  0  0  0
    9.8430    1.2610   -1.8070 C   0  0  0  0  0  0  0  0  0  0  0  0
    8.8870    1.4770   -2.5630 C   0  0  0  0  0  0  0  0  0  0  0  0
    7.5470    1.1690   -2.3060 N   0  0  0  0  0  0  0  0  0  0  0  0
    3.8570   -1.5850    0.3240 C   0  0  0  0  0  0  0  0  0  0  0  0
    2.7790   -2.3100    0.8180 C   0  0  0  0  0  0  0  0  0  0  0  0
    1.5940   -1.6360    0.9780 C   0  0  0  0  0  0  0  0  0  0  0  0
  1  2  1  0
  2  3  1  0
  2 35  1  0
  3  4  2  0
  5  4  1  1
  4 19  1  0
  5  6  1  0
  5 18  1  0
  6  7  1  0
  7  8  1  0
  8  9  1  0
  8 17  1  0
  9 10  2  0
 11  9  1  1
 11 12  1  0
 11 16  1  0
 12 13  1  0
 13 14  1  0
 14 15  1  0
 15 16  1  0
 17 18  1  0
 19 20  2  0
 19 35  1  0
 20 21  1  0
 21 22  1  0
 21 33  2  0
 22 23  1  0
 23 24  2  0
 23 25  1  0
 25 26  2  0
 25 32  1  0
 26 27  1  0
 27 28  1  0
 27 30  2  0
 28 29  3  0
 30 31  1  0
 31 32  2  0
 33 34  1  0
 34 35  2  0
M  END
