
     RDKit          3D

 34 37  0  0  0  0  0  0  0  0999 V2000
    0.0470    6.7750   -0.5940 C   0  0  0  0  0  0  0  0  0  0  0  0
    0.2270    5.3120   -0.3450 C   0  0  0  0  0  0  0  0  0  0  0  0
    0.7290    4.9620    1.0130 C   0  0  1  0  0  0  0  0  0  0  0  0
   -0.2520    5.4630    2.0500 C   0  0  0  0  0  0  0  0  0  0  0  0
   -1.3250    4.4880    1.9230 N   0  0  0  0  0  0  0  0  0  0  0  0
   -0.7900    3.3570    1.4000 C   0  0  0  0  0  0  0  0  0  0  0  0
   -1.5780    2.2370    1.1630 C   0  0  0  0  0  0  0  0  0  0  0  0
   -0.9890    1.0350    0.6050 C   0  0  0  0  0  0  0  0  0  0  0  0
    0.3000    0.9000    0.2810 N   0  0  0  0  0  0  0  0  0  0  0  0
    0.8590   -0.2170   -0.2400 C   0  0  0  0  0  0  0  0  0  0  0  0
    2.3080   -0.2200   -0.5570 C   0  0  0  0  0  0  0  0  0  0  0  0
    2.9090   -1.5170   -0.5760 N   0  0  0  0  0  0  0  0  0  0  0  0
    4.2830   -1.6430   -0.8890 C   0  0  0  0  0  0  0  0  0  0  0  0
    4.9020   -2.8790   -0.9230 C   0  0  0  0  0  0  0  0  0  0  0  0
    6.2310   -2.9800   -1.2270 C   0  0  0  0  0  0  0  0  0  0  0  0
    7.0210   -1.8710   -1.5130 C   0  0  0  0  0  0  0  0  0  0  0  0
    8.3560   -2.0350   -1.8130 O   0  0  0  0  0  0  0  0  0  0  0  0
    6.3990   -0.6390   -1.4780 C   0  0  0  0  0  0  0  0  0  0  0  0
    5.0600   -0.5310   -1.1720 C   0  0  0  0  0  0  0  0  0  0  0  0
    0.0150   -1.2960   -0.4490 C   0  0  0  0  0  0  0  0  0  0  0  0
   -1.3140   -1.1770   -0.1230 C   0  0  0  0  0  0  0  0  0  0  0  0
   -2.1760   -2.3610   -0.3650 C   0  0  0  0  0  0  0  0  0  0  0  0
   -3.6250   -2.2230   -0.0030 C   0  0  0  0  0  0  0  0  0  0  0  0
   -1.7320   -3.4080   -0.8380 N   0  0  0  0  0  0  0  0  0  0  0  0
   -2.1640   -4.9500   -1.3020 S   0  0  0  0  0  0  0  0  0  0  0  0
   -3.5310   -5.7870   -0.5410 C   0  0  1  0  0  0  0  0  0  0  0  0
   -3.3460   -6.0640    0.9420 C   0  0  0  0  0  0  0  0  0  0  0  0
   -4.8850   -5.1910   -0.7720 C   0  0  0  0  0  0  0  0  0  0  0  0
   -1.7890   -0.0400    0.3880 N   0  0  0  0  0  0  0  0  0  0  0  0
   -2.9210    2.2690    1.4600 C   0  0  0  0  0  0  0  0  0  0  0  0
   -3.4590    3.4290    1.9940 C   0  0  0  0  0  0  0  0  0  0  0  0
   -2.6520    4.5250    2.2180 C   0  0  0  0  0  0  0  0  0  0  0  0
   -3.0900    5.5980    2.6990 O   0  0  0  0  0  0  0  0  0  0  0  0
    0.5680    3.5430    1.1790 O   0  0  0  0  0  0  0  0  0  0  0  0
  1  2  1  0
  3  2  1  6
  3  4  1  0
  3 34  1  0
  4  5  1  0
  5  6  1  0
  5 32  1  0
  6  7  2  0
  6 34  1  0
  7  8  1  0
  7 30  1  0
  8  9  2  0
  8 29  1  0
  9 10  1  0
 10 11  1  0
 10 20  2  0
 11 12  1  0
 12 13  1  0
 13 14  2  0
 13 19  1  0
 14 15  1  0
 15 16  2  0
 16 17  1  0
 16 18  1  0
 18 19  2  0
 20 21  1  0
 21 22  1  0
 21 29  2  0
 22 23  1  0
 22 24  2  3
 24 25  1  0
 25 26  1  0
 26 27  1  1
 26 28  1  0
 30 31  2  0
 31 32  1  0
 32 33  2  0
M  END
