
     RDKit          3D

 36 38  0  0  0  0  0  0  0  0999 V2000
    2.9510   -2.3120   -1.3920 C   0  0  0  0  0  0  0  0  0  0  0  0
    3.0490   -2.0210    0.1370 C   0  0  2  0  0  0  0  0  0  0  0  0
    2.3550   -0.7530    0.2960 N   0  0  0  0  0  0  0  0  0  0  0  0
    0.9680   -0.6880    0.2170 C   0  0  0  0  0  0  0  0  0  0  0  0
    0.4260   -1.8860    0.0530 O   0  0  0  0  0  0  0  0  0  0  0  0
    0.0590    0.4270    0.2510 C   0  0  0  0  0  0  0  0  0  0  0  0
   -1.2100    0.0460    0.1720 C   0  0  0  0  0  0  0  0  0  0  0  0
   -2.5330    0.7360    0.1620 C   0  0  0  0  0  0  0  0  0  0  0  0
   -3.6330   -0.2350    0.0430 C   0  0  0  0  0  0  0  0  0  0  0  0
   -4.7920   -0.0810   -0.6390 C   0  0  0  0  0  0  0  0  0  0  0  0
   -5.7200   -1.1450   -0.8070 C   0  0  0  0  0  0  0  0  0  0  0  0
   -5.4490   -2.3830   -0.2700 C   0  0  0  0  0  0  0  0  0  0  0  0
   -6.3050   -3.5890   -0.4840 C   0  0  0  0  0  0  0  0  0  0  0  0
   -7.5480   -3.7850    0.8280 P   0  0  0  0  0  0  0  0  0  0  0  0
   -7.4340   -2.6300    2.0860 O   0  0  0  0  0  0  0  0  0  0  0  0
   -9.1340   -3.9040    0.1880 O   0  0  0  0  0  0  0  0  0  0  0  0
   -4.2620   -2.5580    0.4500 C   0  0  0  0  0  0  0  0  0  0  0  0
   -3.4230   -1.5100    0.5830 C   0  0  0  0  0  0  0  0  0  0  0  0
   -2.6420    2.0170    0.0500 C   0  0  0  0  0  0  0  0  0  0  0  0
   -1.6310    3.0400   -0.0840 N   0  0  0  0  0  0  0  0  0  0  0  0
   -0.2000    2.9120    0.1140 C   0  0  0  0  0  0  0  0  0  0  0  0
    0.4970    1.7970    0.2540 C   0  0  0  0  0  0  0  0  0  0  0  0
    0.7140    4.1090    0.0880 C   0  0  0  0  0  0  0  0  0  0  0  0
    0.2140    4.9950   -0.9660 N   0  0  0  0  0  0  0  0  0  0  0  0
   -1.1470    4.9960   -1.3320 C   0  0  0  0  0  0  0  0  0  0  0  0
   -1.5280    5.5930   -2.3950 O   0  0  0  0  0  0  0  0  0  0  0  0
   -2.1470    4.3060   -0.4620 C   0  0  2  0  0  0  0  0  0  0  0  0
   -2.2850    5.1750    0.7930 C   0  0  0  0  0  0  0  0  0  0  0  0
   -3.1080    4.5750    1.7090 O   0  0  0  0  0  0  0  0  0  0  0  0
    4.4060   -2.0390    0.5950 C   0  0  0  0  0  0  0  0  0  0  0  0
    4.7870   -2.6740    1.6180 O   0  0  0  0  0  0  0  0  0  0  0  0
    5.3600   -1.3290   -0.1000 O   0  0  0  0  0  0  0  0  0  0  0  0
    6.7160   -1.3130    0.0970 C   0  0  2  0  0  0  0  0  0  0  0  0
    7.2570   -0.0410   -0.5430 C   0  0  0  0  0  0  0  0  0  0  0  0
    7.3050   -2.3940   -0.9280 C   0  0  0  0  0  0  0  0  0  0  0  0
    7.2660   -1.5840    1.4180 C   0  0  0  0  0  0  0  0  0  0  0  0
  2  1  1  6
  2  3  1  0
  2 30  1  0
  3  4  1  0
  4  5  2  0
  4  6  1  0
  6  7  2  0
  6 22  1  0
  7  8  1  0
  8  9  1  0
  8 19  2  0
  9 10  2  0
  9 18  1  0
 10 11  1  0
 11 12  2  0
 12 13  1  0
 12 17  1  0
 13 14  1  0
 14 15  1  0
 14 16  1  0
 17 18  2  0
 19 20  1  0
 20 21  1  0
 20 27  1  0
 21 22  2  0
 21 23  1  0
 23 24  1  0
 24 25  1  0
 25 26  2  0
 25 27  1  0
 27 28  1  1
 28 29  1  0
 30 31  2  0
 30 32  1  0
 32 33  1  0
 33 34  1  6
 33 35  1  0
 33 36  1  0
M  END
