
     RDKit          3D

 36 37  0  0  0  0  0  0  0  0999 V2000
   -6.5690    3.2810   -1.9630 C   0  0  0  0  0  0  0  0  0  0  0  0
   -5.6640    3.6780   -0.8270 C   0  0  0  0  0  0  0  0  0  0  0  0
   -4.7900    2.5930   -0.5730 O   0  0  0  0  0  0  0  0  0  0  0  0
   -5.2420    1.3510   -0.2130 C   0  0  0  0  0  0  0  0  0  0  0  0
   -6.4570    1.1240   -0.0930 O   0  0  0  0  0  0  0  0  0  0  0  0
   -4.3110    0.3050    0.0280 N   0  0  0  0  0  0  0  0  0  0  0  0
   -4.7770   -1.0180    0.4070 C   0  0  0  0  0  0  0  0  0  0  0  0
   -3.8050   -1.8380    1.1750 C   0  0  1  0  0  0  0  0  0  0  0  0
   -3.1750   -2.9200    0.3430 C   0  0  0  0  0  0  0  0  0  0  0  0
   -4.1390   -3.8090   -0.1700 O   0  0  0  0  0  0  0  0  0  0  0  0
   -4.9760   -4.5800    0.6080 C   0  0  0  0  0  0  0  0  0  0  0  0
   -4.9260   -4.5370    1.8480 O   0  0  0  0  0  0  0  0  0  0  0  0
   -5.8720   -5.4020   -0.0300 O   0  0  0  0  0  0  0  0  0  0  0  0
   -2.6920   -1.0110    1.7940 C   0  0  0  0  0  0  0  0  0  0  0  0
   -2.0450   -0.1880    0.7920 N   0  0  0  0  0  0  0  0  0  0  0  0
   -0.6520   -0.0580    0.6790 C   0  0  0  0  0  0  0  0  0  0  0  0
    0.0910   -0.6780    1.4760 O   0  0  0  0  0  0  0  0  0  0  0  0
   -0.0800    0.7440   -0.2980 O   0  0  0  0  0  0  0  0  0  0  0  0
    1.2690    0.8700   -0.4070 O   0  0  0  0  0  0  0  0  0  0  0  0
    2.0880   -0.2360   -0.5740 C   0  0  0  0  0  0  0  0  0  0  0  0
    1.5350   -1.3600   -0.6190 O   0  0  0  0  0  0  0  0  0  0  0  0
    3.4980   -0.1410   -0.6910 N   0  0  0  0  0  0  0  0  0  0  0  0
    4.2540   -1.3610   -0.8610 C   0  0  0  0  0  0  0  0  0  0  0  0
    4.1530    1.1150   -0.6430 C   0  0  0  0  0  0  0  0  0  0  0  0
    3.4300    2.1470   -0.4960 O   0  0  0  0  0  0  0  0  0  0  0  0
    5.6070    1.1770   -0.7620 C   0  0  1  0  0  0  0  0  0  0  0  0
    6.1010    2.5580   -0.7140 N   0  0  0  0  0  0  0  0  0  0  0  0
    7.5010    2.4010   -0.4250 C   0  0  0  0  0  0  0  0  0  0  0  0
    8.4050    3.2330   -0.7490 O   0  0  0  0  0  0  0  0  0  0  0  0
    7.6770    1.1670    0.2750 N   0  0  0  0  0  0  0  0  0  0  0  0
    8.9280    0.6010    0.7660 C   0  0  0  0  0  0  0  0  0  0  0  0
    9.5380   -0.2090   -0.1690 O   0  0  0  0  0  0  0  0  0  0  0  0
    6.3510    0.6070    0.3890 C   0  0  0  0  0  0  0  0  0  0  0  0
    6.0000   -0.1800    1.2980 O   0  0  0  0  0  0  0  0  0  0  0  0
   -2.9080    0.5030   -0.0950 C   0  0  0  0  0  0  0  0  0  0  0  0
   -2.4980    1.2930   -0.9960 O   0  0  0  0  0  0  0  0  0  0  0  0
  1  2  1  0
  2  3  1  0
  3  4  1  0
  4  5  2  0
  4  6  1  0
  6  7  1  0
  6 35  1  0
  7  8  1  0
  8  9  1  6
  8 14  1  0
  9 10  1  0
 10 11  1  0
 11 12  2  0
 11 13  1  0
 14 15  1  0
 15 16  1  0
 15 35  1  0
 16 17  2  0
 16 18  1  0
 18 19  1  0
 19 20  1  0
 20 21  2  0
 20 22  1  0
 22 23  1  0
 22 24  1  0
 24 25  2  0
 26 24  1  1
 26 27  1  0
 26 33  1  0
 27 28  1  0
 28 29  2  0
 28 30  1  0
 30 31  1  0
 30 33  1  0
 31 32  1  0
 33 34  2  0
 35 36  2  0
M  END
