
     RDKit          3D

 37 40  0  0  0  0  0  0  0  0999 V2000
    8.0750    2.1190   -1.7600 C   0  0  0  0  0  0  0  0  0  0  0  0
    7.6250    3.3580   -1.0190 C   0  0  0  0  0  0  0  0  0  0  0  0
    6.2870    3.7200   -1.3930 O   0  0  0  0  0  0  0  0  0  0  0  0
    5.2400    2.8370   -1.1840 C   0  0  0  0  0  0  0  0  0  0  0  0
    3.9140    3.0570   -1.4950 C   0  0  0  0  0  0  0  0  0  0  0  0
    3.2100    2.0030   -1.1560 O   0  0  0  0  0  0  0  0  0  0  0  0
    3.9580    1.0670   -0.6310 C   0  0  0  0  0  0  0  0  0  0  0  0
    3.5070   -0.2810   -0.1240 C   0  0  2  0  0  0  0  0  0  0  0  0
    2.3090   -0.1040    0.6700 N   0  0  0  0  0  0  0  0  0  0  0  0
    1.0960   -0.7110    0.2450 C   0  0  0  0  0  0  0  0  0  0  0  0
    1.0620   -1.4010   -0.8230 O   0  0  0  0  0  0  0  0  0  0  0  0
   -0.1190   -0.5900    0.9620 N   0  0  0  0  0  0  0  0  0  0  0  0
   -1.3570   -1.1960    0.5450 C   0  0  1  0  0  0  0  0  0  0  0  0
   -1.8140   -2.2360    1.5420 C   0  0  0  0  0  0  0  0  0  0  0  0
   -3.0410   -2.8640    1.1700 N   0  0  0  0  0  0  0  0  0  0  0  0
   -2.9340   -3.7090   -0.0050 C   0  0  2  0  0  0  0  0  0  0  0  0
   -4.2910   -4.2240   -0.4370 C   0  0  0  0  0  0  0  0  0  0  0  0
   -4.2420   -5.7110   -0.1710 C   0  0  0  0  0  0  0  0  0  0  0  0
   -3.1960   -5.8930    0.7290 O   0  0  0  0  0  0  0  0  0  0  0  0
   -2.2090   -4.9940    0.2870 C   0  0  0  0  0  0  0  0  0  0  0  0
   -2.3800   -0.1430    0.3370 C   0  0  0  0  0  0  0  0  0  0  0  0
   -3.1980   -0.1350   -0.7760 C   0  0  0  0  0  0  0  0  0  0  0  0
   -4.1550    0.8210   -1.0030 C   0  0  0  0  0  0  0  0  0  0  0  0
   -4.3350    1.8390   -0.0920 C   0  0  0  0  0  0  0  0  0  0  0  0
   -5.2960    2.8190   -0.2960 O   0  0  0  0  0  0  0  0  0  0  0  0
   -5.5200    3.8760    0.5980 C   0  0  0  0  0  0  0  0  0  0  0  0
   -6.6420    4.7420    0.0430 C   0  0  0  0  0  0  0  0  0  0  0  0
   -6.2660    5.2440   -1.2090 O   0  0  0  0  0  0  0  0  0  0  0  0
   -7.2870    5.9820   -1.6240 O   0  0  0  0  0  0  0  0  0  0  0  0
   -3.5390    1.8630    1.0260 C   0  0  0  0  0  0  0  0  0  0  0  0
   -2.5870    0.8940    1.2310 C   0  0  0  0  0  0  0  0  0  0  0  0
    4.5660   -0.8910    0.7230 C   0  0  0  0  0  0  0  0  0  0  0  0
    5.3710   -1.9330    0.3130 C   0  0  0  0  0  0  0  0  0  0  0  0
    6.2450   -2.2510    1.3520 C   0  0  0  0  0  0  0  0  0  0  0  0
    5.9120   -1.3640    2.3540 C   0  0  0  0  0  0  0  0  0  0  0  0
    4.9300   -0.5960    1.9360 O   0  0  0  0  0  0  0  0  0  0  0  0
    5.2460    1.5600   -0.6330 C   0  0  0  0  0  0  0  0  0  0  0  0
  1  2  1  0
  2  3  1  0
  3  4  1  0
  4  5  2  0
  4 37  1  0
  5  6  1  0
  6  7  1  0
  7  8  1  0
  7 37  2  0
  8  9  1  1
  8 32  1  0
  9 10  1  0
 10 11  2  0
 10 12  1  0
 12 13  1  0
 13 14  1  1
 13 21  1  0
 14 15  1  0
 16 15  1  1
 16 17  1  0
 16 20  1  0
 17 18  1  0
 18 19  1  0
 19 20  1  0
 21 22  2  0
 21 31  1  0
 22 23  1  0
 23 24  2  0
 24 25  1  0
 24 30  1  0
 25 26  1  0
 26 27  1  0
 27 28  1  0
 28 29  1  0
 30 31  2  0
 32 33  2  0
 32 36  1  0
 33 34  1  0
 34 35  2  0
 35 36  1  0
M  END
