
     RDKit          3D

 37 38  0  0  0  0  0  0  0  0999 V2000
   -8.0500   -1.4040    1.7310 C   0  0  0  0  0  0  0  0  0  0  0  0
   -7.1680   -0.6990    0.7130 C   0  0  0  0  0  0  0  0  0  0  0  0
   -5.8240   -0.9090    1.0880 O   0  0  0  0  0  0  0  0  0  0  0  0
   -4.7450   -0.3990    0.3690 C   0  0  0  0  0  0  0  0  0  0  0  0
   -5.0250    0.2820   -0.6630 O   0  0  0  0  0  0  0  0  0  0  0  0
   -3.3620   -0.6600    0.8140 C   0  0  1  0  0  0  0  0  0  0  0  0
   -3.1670   -0.3430    2.2370 C   0  0  0  0  0  0  0  0  0  0  0  0
   -3.3940    1.0250    2.7460 C   0  0  0  0  0  0  0  0  0  0  0  0
   -4.7780    1.5560    2.5980 C   0  0  0  0  0  0  0  0  0  0  0  0
   -4.8380    2.8560    3.1570 O   0  0  0  0  0  0  0  0  0  0  0  0
   -3.1810   -2.1820    0.6780 C   0  0  0  0  0  0  0  0  0  0  0  0
   -2.3650   -2.4410   -0.4850 N   0  0  0  0  0  0  0  0  0  0  0  0
   -3.1280   -2.2470   -1.7170 C   0  0  0  0  0  0  0  0  0  0  0  0
   -2.6720   -0.9550   -2.3960 C   0  0  0  0  0  0  0  0  0  0  0  0
   -2.0650   -0.0640   -1.4360 N   0  0  0  0  0  0  0  0  0  0  0  0
   -1.0640    0.8060   -1.9420 C   0  0  0  0  0  0  0  0  0  0  0  0
    0.2880    0.4300   -1.9020 C   0  0  0  0  0  0  0  0  0  0  0  0
    1.2750    1.2360   -2.3750 C   0  0  0  0  0  0  0  0  0  0  0  0
    2.6010    0.8520   -2.3280 O   0  0  0  0  0  0  0  0  0  0  0  0
    3.0130   -0.4030   -1.7860 C   0  0  0  0  0  0  0  0  0  0  0  0
    4.5400   -0.4070   -1.9390 C   0  0  1  0  0  0  0  0  0  0  0  0
    4.7910   -0.2890   -3.4320 C   0  0  0  0  0  0  0  0  0  0  0  0
    5.0340    0.6600   -1.2350 O   0  0  0  0  0  0  0  0  0  0  0  0
    5.9640    0.3730   -0.2700 C   0  0  0  0  0  0  0  0  0  0  0  0
    5.4740   -0.5360    0.8110 C   0  0  0  0  0  0  0  0  0  0  0  0
    6.5920   -0.7740    1.8030 C   0  0  1  0  0  0  0  0  0  0  0  0
    7.7310   -1.4160    1.0170 C   0  0  0  0  0  0  0  0  0  0  0  0
    7.1060    0.4160    2.4080 N   0  0  0  0  0  0  0  0  0  0  0  0
    7.1360    0.6630    3.7960 C   0  0  0  0  0  0  0  0  0  0  0  0
    6.6910   -0.1960    4.5940 O   0  0  0  0  0  0  0  0  0  0  0  0
    7.6470    1.8370    4.3260 O   0  0  0  0  0  0  0  0  0  0  0  0
    0.9660    2.4610   -2.9140 C   0  0  0  0  0  0  0  0  0  0  0  0
   -0.3780    2.8490   -2.9610 C   0  0  0  0  0  0  0  0  0  0  0  0
   -1.3770    2.0320   -2.4810 C   0  0  0  0  0  0  0  0  0  0  0  0
   -2.7840    2.4840   -2.5520 C   0  0  0  0  0  0  0  0  0  0  0  0
   -2.3520    0.0310   -0.0380 C   0  0  0  0  0  0  0  0  0  0  0  0
   -1.5880    0.8570    0.5220 O   0  0  0  0  0  0  0  0  0  0  0  0
  1  2  1  0
  2  3  1  0
  3  4  1  0
  4  5  2  0
  4  6  1  0
  6  7  1  1
  6 11  1  0
  6 36  1  0
  7  8  1  0
  8  9  1  0
  9 10  1  0
 11 12  1  0
 12 13  1  0
 13 14  1  0
 14 15  1  0
 15 16  1  0
 15 36  1  0
 16 17  2  0
 16 34  1  0
 17 18  1  0
 18 19  1  0
 18 32  2  0
 19 20  1  0
 20 21  1  0
 21 22  1  6
 21 23  1  0
 23 24  1  0
 24 25  1  0
 25 26  1  0
 26 27  1  6
 26 28  1  0
 28 29  1  0
 29 30  2  0
 29 31  1  0
 32 33  1  0
 33 34  2  0
 34 35  1  0
 36 37  2  0
M  END
