
     RDKit          3D

 37 39  0  0  0  0  0  0  0  0999 V2000
    9.1290   -0.7210    0.4610 C   0  0  0  0  0  0  0  0  0  0  0  0
    8.9500    0.7460    0.6500 C   0  0  0  0  0  0  0  0  0  0  0  0
    8.3120    1.4490   -0.3110 O   0  0  0  0  0  0  0  0  0  0  0  0
    7.0190    1.2520   -0.5960 C   0  0  0  0  0  0  0  0  0  0  0  0
    6.5960   -0.1220   -1.0490 C   0  0  0  0  0  0  0  0  0  0  0  0
    5.1630   -0.1260   -1.3550 N   0  0  0  0  0  0  0  0  0  0  0  0
    4.5700    0.1600   -2.6270 C   0  0  0  0  0  0  0  0  0  0  0  0
    3.0870    0.3600   -2.3450 C   0  0  0  0  0  0  0  0  0  0  0  0
    2.8040   -0.4020   -1.0870 C   0  0  2  0  0  0  0  0  0  0  0  0
    2.4270   -1.8450   -1.3330 C   0  0  0  0  0  0  0  0  0  0  0  0
    2.1880   -2.4490   -0.1030 O   0  0  0  0  0  0  0  0  0  0  0  0
    1.8800    0.2840   -0.1430 C   0  0  2  0  0  0  0  0  0  0  0  0
    0.5760    0.5680   -0.6880 N   0  0  0  0  0  0  0  0  0  0  0  0
   -0.4130    0.7690    0.3710 C   0  0  2  0  0  0  0  0  0  0  0  0
   -1.7510    0.5410   -0.2190 C   0  0  0  0  0  0  0  0  0  0  0  0
   -1.7960    0.3350   -1.4810 O   0  0  0  0  0  0  0  0  0  0  0  0
   -2.9700    0.5270    0.4680 N   0  0  0  0  0  0  0  0  0  0  0  0
   -2.9900    0.7170    1.9180 C   0  0  0  0  0  0  0  0  0  0  0  0
   -4.2190    0.3290   -0.2460 C   0  0  0  0  0  0  0  0  0  0  0  0
   -4.7120   -1.4350   -0.3940 P   0  0  0  0  0  0  0  0  0  0  0  0
   -4.5050   -2.3250    1.0610 O   0  0  0  0  0  0  0  0  0  0  0  0
   -5.5140   -3.3010    1.1210 C   0  0  0  0  0  0  0  0  0  0  0  0
   -5.3780   -4.1110    2.3840 C   0  0  0  0  0  0  0  0  0  0  0  0
   -6.4340   -1.4810   -0.8110 O   0  0  0  0  0  0  0  0  0  0  0  0
   -7.2170   -0.3280   -0.7640 C   0  0  0  0  0  0  0  0  0  0  0  0
   -7.3660    0.5060   -1.8600 C   0  0  0  0  0  0  0  0  0  0  0  0
   -8.1380    1.6480   -1.8220 C   0  0  0  0  0  0  0  0  0  0  0  0
   -8.7980    1.9990   -0.6670 C   0  0  0  0  0  0  0  0  0  0  0  0
   -8.6650    1.1760    0.4500 C   0  0  0  0  0  0  0  0  0  0  0  0
   -7.8840    0.0360    0.3850 C   0  0  0  0  0  0  0  0  0  0  0  0
   -0.3740    2.2200    0.8260 C   0  0  0  0  0  0  0  0  0  0  0  0
    0.5780    2.4380    1.9510 C   0  0  0  0  0  0  0  0  0  0  0  0
    1.9260    2.2480    1.4880 O   0  0  0  0  0  0  0  0  0  0  0  0
    2.4260    1.5210    0.4340 C   0  0  0  0  0  0  0  0  0  0  0  0
    3.4670    1.9600   -0.0960 O   0  0  0  0  0  0  0  0  0  0  0  0
    4.1590   -0.4170   -0.4260 C   0  0  0  0  0  0  0  0  0  0  0  0
    4.3250   -0.6620    0.7990 O   0  0  0  0  0  0  0  0  0  0  0  0
  1  2  1  0
  2  3  1  0
  3  4  1  0
  4  5  1  0
  5  6  1  0
  6  7  1  0
  6 36  1  0
  7  8  1  0
  8  9  1  0
  9 10  1  6
  9 12  1  0
  9 36  1  0
 10 11  1  0
 12 13  1  6
 12 34  1  0
 13 14  1  0
 14 15  1  6
 14 31  1  0
 15 16  2  0
 15 17  1  0
 17 18  1  0
 17 19  1  0
 19 20  1  0
 20 21  1  0
 20 24  1  0
 21 22  1  0
 22 23  1  0
 24 25  1  0
 25 26  2  0
 25 30  1  0
 26 27  1  0
 27 28  2  0
 28 29  1  0
 29 30  2  0
 31 32  1  0
 32 33  1  0
 33 34  1  0
 34 35  2  0
 36 37  2  0
M  END
