
     RDKit          3D

 36 38  0  0  0  0  0  0  0  0999 V2000
   -2.8840   -2.5560    4.3420 C   0  0  0  0  0  0  0  0  0  0  0  0
   -2.7060   -1.3400    3.6010 O   0  0  0  0  0  0  0  0  0  0  0  0
   -3.4800   -1.1060    2.4780 C   0  0  0  0  0  0  0  0  0  0  0  0
   -4.7150   -1.5260    2.5240 N   0  0  0  0  0  0  0  0  0  0  0  0
   -5.5480   -1.3290    1.4430 N   0  0  0  0  0  0  0  0  0  0  0  0
   -5.1470   -0.7340    0.3670 C   0  0  0  0  0  0  0  0  0  0  0  0
   -6.0970   -0.5660   -0.7350 C   0  0  0  0  0  0  0  0  0  0  0  0
   -7.3390   -1.0190   -0.6190 C   0  0  0  0  0  0  0  0  0  0  0  0
   -8.2650   -0.8460   -1.7150 C   0  0  0  0  0  0  0  0  0  0  0  0
   -9.4380   -1.2810   -1.5900 O   0  0  0  0  0  0  0  0  0  0  0  0
   -7.8350   -0.2090   -2.8660 O   0  0  0  0  0  0  0  0  0  0  0  0
   -6.7540    0.6840   -2.7760 C   0  0  0  0  0  0  0  0  0  0  0  0
   -5.6130    0.1200   -1.9580 C   0  0  0  0  0  0  0  0  0  0  0  0
   -3.8440   -0.2670    0.2640 O   0  0  0  0  0  0  0  0  0  0  0  0
   -3.0090   -0.4490    1.3130 N   0  0  0  0  0  0  0  0  0  0  0  0
   -1.6220    0.0080    1.2960 C   0  0  0  0  0  0  0  0  0  0  0  0
   -1.3270    0.6710   -0.0170 C   0  0  0  0  0  0  0  0  0  0  0  0
   -0.0040    1.1350   -0.0890 O   0  0  0  0  0  0  0  0  0  0  0  0
    1.0720    0.2760    0.0030 C   0  0  0  0  0  0  0  0  0  0  0  0
    0.9210   -0.9580    0.1510 O   0  0  0  0  0  0  0  0  0  0  0  0
    2.4290    0.7570   -0.0670 N   0  0  0  0  0  0  0  0  0  0  0  0
    3.4980   -0.1580    0.0310 C   0  0  0  0  0  0  0  0  0  0  0  0
    4.7680    0.2050   -0.0250 C   0  0  0  0  0  0  0  0  0  0  0  0
    5.8100   -0.7550    0.0790 N   0  0  0  0  0  0  0  0  0  0  0  0
    6.7550   -0.9550   -0.9390 C   0  0  0  0  0  0  0  0  0  0  0  0
    6.6850   -0.2650   -1.9830 O   0  0  0  0  0  0  0  0  0  0  0  0
    7.7850   -1.8850   -0.8670 O   0  0  0  0  0  0  0  0  0  0  0  0
    8.6810   -2.0660   -1.8450 O   0  0  0  0  0  0  0  0  0  0  0  0
    9.8700   -1.8200   -1.2880 O   0  0  0  0  0  0  0  0  0  0  0  0
    9.8220   -0.6990   -0.5880 O   0  0  0  0  0  0  0  0  0  0  0  0
    5.0040    1.6340   -0.1970 C   0  0  0  0  0  0  0  0  0  0  0  0
    6.3300    2.0580   -0.2600 O   0  0  0  0  0  0  0  0  0  0  0  0
    6.7820    2.7570   -1.2970 O   0  0  0  0  0  0  0  0  0  0  0  0
    4.0400    2.5150   -0.2920 C   0  0  0  0  0  0  0  0  0  0  0  0
    4.4220    3.8610   -0.4560 O   0  0  0  0  0  0  0  0  0  0  0  0
    2.6100    2.1650   -0.2360 C   0  0  0  0  0  0  0  0  0  0  0  0
  1  2  1  0
  2  3  1  0
  3  4  2  0
  3 15  1  0
  4  5  1  0
  5  6  2  0
  6  7  1  0
  6 14  1  0
  7  8  2  0
  7 13  1  0
  8  9  1  0
  9 10  2  0
  9 11  1  0
 11 12  1  0
 12 13  1  0
 14 15  1  0
 15 16  1  0
 16 17  1  0
 17 18  1  0
 18 19  1  0
 19 20  2  0
 19 21  1  0
 21 22  1  0
 21 36  1  0
 22 23  2  0
 23 24  1  0
 23 31  1  0
 24 25  1  0
 25 26  2  0
 25 27  1  0
 27 28  1  0
 28 29  1  0
 29 30  1  0
 31 32  1  0
 31 34  2  0
 32 33  1  0
 34 35  1  0
 34 36  1  0
M  END
