
     RDKit          3D

 37 39  0  0  0  0  0  0  0  0999 V2000
    7.2720    3.8060   -1.0750 C   0  0  0  0  0  0  0  0  0  0  0  0
    6.7920    2.8310   -1.8950 O   0  0  0  0  0  0  0  0  0  0  0  0
    5.5880    2.2780   -1.6160 C   0  0  0  0  0  0  0  0  0  0  0  0
    5.5640    1.5820   -0.3290 C   0  0  0  0  0  0  0  0  0  0  0  0
    6.5700    1.4740    0.4150 O   0  0  0  0  0  0  0  0  0  0  0  0
    4.3270    0.9480    0.1840 C   0  0  0  0  0  0  0  0  0  0  0  0
    4.3200    0.3000    1.3940 C   0  0  0  0  0  0  0  0  0  0  0  0
    3.1870   -0.3030    1.9040 C   0  0  0  0  0  0  0  0  0  0  0  0
    2.0020   -0.2590    1.1760 C   0  0  0  0  0  0  0  0  0  0  0  0
    0.8150   -0.8600    1.6530 N   0  0  0  0  0  0  0  0  0  0  0  0
   -0.4180   -0.8170    0.9160 C   0  0  0  0  0  0  0  0  0  0  0  0
   -0.9190   -1.9650    0.4180 C   0  0  0  0  0  0  0  0  0  0  0  0
   -0.1520   -3.1680    0.6920 C   0  0  0  0  0  0  0  0  0  0  0  0
   -0.2550   -4.4110    0.4220 C   0  0  0  0  0  0  0  0  0  0  0  0
   -1.2720   -5.1260   -0.3330 C   0  0  0  0  0  0  0  0  0  0  0  0
   -1.8890   -6.0850    0.4960 O   0  0  0  0  0  0  0  0  0  0  0  0
    0.8030   -5.4030    0.9690 C   0  0  0  0  0  0  0  0  0  0  0  0
    1.8160   -4.7550    1.8200 C   0  0  0  0  0  0  0  0  0  0  0  0
    1.2980   -4.1710    2.9920 O   0  0  0  0  0  0  0  0  0  0  0  0
   -2.0990   -1.8850   -0.4180 C   0  0  2  0  0  0  0  0  0  0  0  0
   -1.6640   -1.9500   -2.2420 P   0  0  0  0  0  0  0  0  0  0  0  0
   -0.8930   -0.4810   -2.7030 O   0  0  0  0  0  0  0  0  0  0  0  0
   -3.1750   -2.0700   -3.1000 O   0  0  0  0  0  0  0  0  0  0  0  0
   -2.9250   -0.7300   -0.2270 N   0  0  0  0  0  0  0  0  0  0  0  0
   -2.4290    0.4930    0.2530 C   0  0  0  0  0  0  0  0  0  0  0  0
   -3.1040    1.6300    0.1610 C   0  0  0  0  0  0  0  0  0  0  0  0
   -4.3990    1.7140   -0.4380 C   0  0  0  0  0  0  0  0  0  0  0  0
   -5.0310    2.8930   -0.4990 C   0  0  0  0  0  0  0  0  0  0  0  0
   -4.5430    4.1370   -0.0150 N   0  0  0  0  0  0  0  0  0  0  0  0
   -5.5630    5.1100   -0.3030 C   0  0  0  0  0  0  0  0  0  0  0  0
   -5.4820    6.5580    0.0290 C   0  0  0  0  0  0  0  0  0  0  0  0
   -6.5520    4.4930   -0.8990 C   0  0  0  0  0  0  0  0  0  0  0  0
   -6.2730    3.1420   -1.0400 O   0  0  0  0  0  0  0  0  0  0  0  0
   -1.1070    0.4560    0.8650 C   0  0  0  0  0  0  0  0  0  0  0  0
   -0.6200    1.5140    1.3200 O   0  0  0  0  0  0  0  0  0  0  0  0
    1.9840    0.3840   -0.0370 C   0  0  0  0  0  0  0  0  0  0  0  0
    3.1420    0.9770   -0.5150 C   0  0  0  0  0  0  0  0  0  0  0  0
  1  2  1  0
  2  3  1  0
  3  4  1  0
  4  5  2  0
  4  6  1  0
  6  7  2  0
  6 37  1  0
  7  8  1  0
  8  9  2  0
  9 10  1  0
  9 36  1  0
 10 11  1  0
 11 12  2  0
 11 34  1  0
 12 13  1  0
 12 20  1  0
 13 14  2  3
 14 15  1  0
 14 17  1  0
 15 16  1  0
 17 18  1  0
 18 19  1  0
 20 21  1  6
 20 24  1  0
 21 22  1  0
 21 23  1  0
 24 25  1  0
 25 26  2  3
 25 34  1  0
 26 27  1  0
 27 28  2  3
 28 29  1  0
 28 33  1  0
 29 30  1  0
 30 31  1  0
 30 32  2  0
 32 33  1  0
 34 35  2  0
 36 37  2  0
M  END
