
     RDKit          3D

 42 45  0  0  0  0  0  0  0  0999 V2000
   -3.2620   -2.1040    0.9010 C   0  0  0  0  0  0  0  0  0  0  0  0
   -3.7130   -0.9750    1.6760 N   0  0  0  0  0  0  0  0  0  0  0  0
   -4.9990   -0.3910    1.5430 C   0  0  0  0  0  0  0  0  0  0  0  0
   -6.0710   -0.8160    2.2950 C   0  0  0  0  0  0  0  0  0  0  0  0
   -5.8550   -2.1150    3.4590 Cl  0  0  0  0  0  0  0  0  0  0  0  0
   -7.3280   -0.2640    2.1800 C   0  0  0  0  0  0  0  0  0  0  0  0
   -7.5030    0.7540    1.2710 C   0  0  0  0  0  0  0  0  0  0  0  0
   -9.0840    1.5160    1.0640 S   0  0  0  0  0  0  0  0  0  0  0  0
   -9.2140    2.5800    2.1500 O   0  0  0  0  0  0  0  0  0  0  0  0
   -6.4330    1.2140    0.4860 C   0  0  0  0  0  0  0  0  0  0  0  0
   -5.1890    0.6510    0.6160 C   0  0  0  0  0  0  0  0  0  0  0  0
   -4.0780    1.0610   -0.1240 N   0  0  0  0  0  0  0  0  0  0  0  0
   -3.9930    2.0460   -1.1260 C   0  0  0  0  0  0  0  0  0  0  0  0
   -5.0100    2.6800   -1.4540 O   0  0  0  0  0  0  0  0  0  0  0  0
   -2.7370    2.3910   -1.8380 C   0  0  0  0  0  0  0  0  0  0  0  0
   -1.6100    1.6110   -1.3890 N   0  0  0  0  0  0  0  0  0  0  0  0
   -0.7130    1.9350   -0.3300 C   0  0  0  0  0  0  0  0  0  0  0  0
   -0.5310    3.0410    0.2330 O   0  0  0  0  0  0  0  0  0  0  0  0
    0.0420    0.6960    0.0560 C   0  0  2  0  0  0  0  0  0  0  0  0
    1.4290    1.0260    0.5160 C   0  0  0  0  0  0  0  0  0  0  0  0
    2.3990    1.8640   -0.7700 S   0  0  0  0  0  0  0  0  0  0  0  0
    4.0550    2.2300   -0.1530 C   0  0  0  0  0  0  0  0  0  0  0  0
    4.8300    0.9750    0.0950 C   0  0  0  0  0  0  0  0  0  0  0  0
    4.2730   -0.1090   -0.1550 O   0  0  0  0  0  0  0  0  0  0  0  0
    6.1410    0.9910    0.5920 N   0  0  0  0  0  0  0  0  0  0  0  0
    6.9140   -0.1690    0.8420 C   0  0  0  0  0  0  0  0  0  0  0  0
    6.6130   -1.4200    0.6700 C   0  0  0  0  0  0  0  0  0  0  0  0
    7.7330   -2.2880    1.0680 C   0  0  0  0  0  0  0  0  0  0  0  0
    7.8160   -3.5310    1.0460 O   0  0  0  0  0  0  0  0  0  0  0  0
    8.7660   -1.3670    1.5100 C   0  0  0  0  0  0  0  0  0  0  0  0
    8.2960   -0.1420    1.3810 C   0  0  0  0  0  0  0  0  0  0  0  0
    8.9940    0.9880    1.7020 F   0  0  0  0  0  0  0  0  0  0  0  0
   -0.0030   -0.0540   -1.1650 N   0  0  0  0  0  0  0  0  0  0  0  0
    0.9810   -1.0400   -1.5160 C   0  0  0  0  0  0  0  0  0  0  0  0
    1.2380   -2.1460   -0.7600 C   0  0  0  0  0  0  0  0  0  0  0  0
    2.2270   -3.0260   -1.2220 C   0  0  0  0  0  0  0  0  0  0  0  0
    2.9130   -2.8080   -2.3710 C   0  0  0  0  0  0  0  0  0  0  0  0
    3.8550   -3.6760   -2.7820 F   0  0  0  0  0  0  0  0  0  0  0  0
    2.6540   -1.6980   -3.1280 C   0  0  0  0  0  0  0  0  0  0  0  0
    1.6750   -0.8100   -2.6860 C   0  0  0  0  0  0  0  0  0  0  0  0
   -1.1490    0.3690   -1.8940 C   0  0  0  0  0  0  0  0  0  0  0  0
   -1.6680   -0.2710   -2.8440 O   0  0  0  0  0  0  0  0  0  0  0  0
  1  2  1  0
  2  3  1  0
  3  4  2  0
  3 11  1  0
  4  5  1  0
  4  6  1  0
  6  7  2  0
  7  8  1  0
  7 10  1  0
  8  9  2  0
 10 11  2  0
 11 12  1  0
 12 13  1  0
 13 14  2  0
 13 15  1  0
 15 16  1  0
 16 17  1  0
 16 41  1  0
 17 18  2  0
 17 19  1  0
 19 20  1  6
 19 33  1  0
 20 21  1  0
 21 22  1  0
 22 23  1  0
 23 24  2  0
 23 25  1  0
 25 26  1  0
 26 27  2  0
 26 31  1  0
 27 28  1  0
 28 29  2  0
 28 30  1  0
 30 31  2  0
 31 32  1  0
 33 34  1  0
 33 41  1  0
 34 35  2  0
 34 40  1  0
 35 36  1  0
 36 37  2  0
 37 38  1  0
 37 39  1  0
 39 40  2  0
 41 42  2  0
M  END
