
     RDKit          3D

 42 45  0  0  0  0  0  0  0  0999 V2000
   -0.4670    3.1340    2.7450 C   0  0  0  0  0  0  0  0  0  0  0  0
   -1.7590    2.8120    2.2230 O   0  0  0  0  0  0  0  0  0  0  0  0
   -1.9880    2.7130    0.8600 C   0  0  0  0  0  0  0  0  0  0  0  0
   -0.9930    2.9250    0.1200 O   0  0  0  0  0  0  0  0  0  0  0  0
   -3.3320    2.3760    0.2750 C   0  0  0  0  0  0  0  0  0  0  0  0
   -3.2920    0.9340   -0.1680 C   0  0  2  0  0  0  0  0  0  0  0  0
   -2.3040    0.6460   -1.1460 N   0  0  0  0  0  0  0  0  0  0  0  0
   -1.2090   -0.1740   -0.8370 C   0  0  0  0  0  0  0  0  0  0  0  0
   -1.1370   -0.6360    0.3080 O   0  0  0  0  0  0  0  0  0  0  0  0
   -0.1260   -0.5110   -1.8300 C   0  0  0  0  0  0  0  0  0  0  0  0
    0.8250   -1.3510   -1.1340 N   0  0  0  0  0  0  0  0  0  0  0  0
    0.3840   -2.7070   -0.7870 C   0  0  0  0  0  0  0  0  0  0  0  0
   -0.7980   -3.2100   -1.0710 C   0  0  0  0  0  0  0  0  0  0  0  0
   -0.8260   -4.8700   -0.4390 S   0  0  0  0  0  0  0  0  0  0  0  0
    0.8370   -4.8590    0.2340 C   0  0  0  0  0  0  0  0  0  0  0  0
    1.2780   -3.5180   -0.1110 N   0  0  0  0  0  0  0  0  0  0  0  0
    2.5930   -2.9790    0.2120 C   0  0  0  0  0  0  0  0  0  0  0  0
    3.4000   -3.7280    0.8280 O   0  0  0  0  0  0  0  0  0  0  0  0
    3.0130   -1.6480   -0.1340 C   0  0  0  0  0  0  0  0  0  0  0  0
    2.1030   -0.8490   -0.8110 C   0  0  0  0  0  0  0  0  0  0  0  0
    2.4560    0.4370   -1.1550 C   0  0  0  0  0  0  0  0  0  0  0  0
    3.7360    0.8860   -0.7990 C   0  0  0  0  0  0  0  0  0  0  0  0
    4.6230    0.1220   -0.1440 N   0  0  0  0  0  0  0  0  0  0  0  0
    5.8940    0.6700    0.1780 C   0  0  0  0  0  0  0  0  0  0  0  0
    5.9650    1.6620    1.1560 C   0  0  0  0  0  0  0  0  0  0  0  0
    7.1630    2.2510    1.5330 C   0  0  0  0  0  0  0  0  0  0  0  0
    8.3260    1.8450    0.9210 C   0  0  0  0  0  0  0  0  0  0  0  0
    8.2910    0.8690   -0.0470 C   0  0  0  0  0  0  0  0  0  0  0  0
    9.5460    0.4270   -0.7110 C   0  0  0  0  0  0  0  0  0  0  0  0
    7.0810    0.2940   -0.4080 C   0  0  0  0  0  0  0  0  0  0  0  0
    4.2450   -1.1260    0.1750 C   0  0  0  0  0  0  0  0  0  0  0  0
    5.0530   -1.8810    0.7930 O   0  0  0  0  0  0  0  0  0  0  0  0
   -4.6280    0.5490   -0.6900 C   0  0  0  0  0  0  0  0  0  0  0  0
   -4.7600    0.0660   -1.8450 O   0  0  0  0  0  0  0  0  0  0  0  0
   -5.8180    0.7050    0.0770 N   0  0  0  0  0  0  0  0  0  0  0  0
   -7.1370    0.3620   -0.3640 C   0  0  2  0  0  0  0  0  0  0  0  0
   -7.9830    1.6270   -0.4780 C   0  0  0  0  0  0  0  0  0  0  0  0
   -7.8770   -0.5940    0.5120 C   0  0  0  0  0  0  0  0  0  0  0  0
   -7.0450   -2.1280    0.6550 S   0  0  2  0  0  0  0  0  0  0  0  0
   -7.4220   -3.1100    1.3130 F   0  0  0  0  0  0  0  0  0  0  0  0
   -5.3950   -1.7300    0.5310 F   0  0  0  0  0  0  0  0  0  0  0  0
   -7.1200   -2.5820   -1.3740 Cl  0  0  0  0  0  0  0  0  0  0  0  0
  1  2  1  0
  2  3  1  0
  3  4  2  0
  3  5  1  0
  6  5  1  6
  6  7  1  0
  6 33  1  0
  7  8  1  0
  8  9  2  0
  8 10  1  0
 10 11  1  0
 11 12  1  0
 11 20  1  0
 12 13  2  0
 12 16  1  0
 13 14  1  0
 14 15  1  0
 15 16  1  0
 16 17  1  0
 17 18  2  0
 17 19  1  0
 19 20  2  0
 19 31  1  0
 20 21  1  0
 21 22  2  0
 22 23  1  0
 23 24  1  0
 23 31  1  0
 24 25  2  0
 24 30  1  0
 25 26  1  0
 26 27  2  0
 27 28  1  0
 28 29  1  0
 28 30  2  0
 31 32  2  0
 33 34  2  0
 33 35  1  0
 35 36  1  0
 36 37  1  1
 36 38  1  0
 38 39  1  0
 39 40  1  1
 39 41  1  0
 39 42  1  0
M  END
