
     RDKit          3D

 42 44  0  0  0  0  0  0  0  0999 V2000
   -7.0830   -5.9120    0.9250 C   0  0  0  0  0  0  0  0  0  0  0  0
   -7.7170   -4.9450   -0.4680 S   0  0  0  0  0  0  0  0  0  0  0  0
   -6.3940   -3.9160   -1.0970 C   0  0  0  0  0  0  0  0  0  0  0  0
   -6.5620   -3.1370   -2.0730 O   0  0  0  0  0  0  0  0  0  0  0  0
   -5.1060   -3.9450   -0.5140 N   0  0  0  0  0  0  0  0  0  0  0  0
   -3.9940   -3.1110   -1.0080 C   0  0  1  0  0  0  0  0  0  0  0  0
   -3.5460   -2.2060    0.0350 C   0  0  0  0  0  0  0  0  0  0  0  0
   -2.2940   -2.0320    0.3960 C   0  0  0  0  0  0  0  0  0  0  0  0
   -1.9340   -1.0850    1.4670 C   0  0  0  0  0  0  0  0  0  0  0  0
   -1.1260    0.0350    1.1110 N   0  0  0  0  0  0  0  0  0  0  0  0
    0.2970    0.0400    1.2130 C   0  0  0  0  0  0  0  0  0  0  0  0
    1.0460   -0.2100   -0.0170 C   0  0  0  0  0  0  0  0  0  0  0  0
    0.4610   -0.4070   -1.1340 O   0  0  0  0  0  0  0  0  0  0  0  0
    2.4580   -0.2450   -0.0250 N   0  0  0  0  0  0  0  0  0  0  0  0
    3.1530   -0.5060   -1.2630 C   0  0  0  0  0  0  0  0  0  0  0  0
    4.3340   -1.4200   -1.1010 C   0  0  0  0  0  0  0  0  0  0  0  0
    5.1590   -1.0120    0.0510 N   0  0  0  0  0  0  0  0  0  0  0  0
    5.9180    0.1500   -0.2660 C   0  0  0  0  0  0  0  0  0  0  0  0
    6.7650    0.5750    0.8560 C   0  0  0  0  0  0  0  0  0  0  0  0
    8.0590    0.6210    0.8420 C   0  0  0  0  0  0  0  0  0  0  0  0
    8.8860    0.2480   -0.3150 C   0  0  0  0  0  0  0  0  0  0  0  0
    9.9830   -1.1110    0.1030 Cl  0  0  0  0  0  0  0  0  0  0  0  0
    6.1670    0.9880    2.0840 O   0  0  0  0  0  0  0  0  0  0  0  0
    6.8130    0.7870    3.2540 F   0  0  0  0  0  0  0  0  0  0  0  0
    4.3740   -1.0010    1.2370 C   0  0  0  0  0  0  0  0  0  0  0  0
    3.2270   -0.0170    1.1650 C   0  0  0  0  0  0  0  0  0  0  0  0
   -1.8010    1.2160    0.7120 C   0  0  0  0  0  0  0  0  0  0  0  0
   -3.0520    1.3320    0.6530 O   0  0  0  0  0  0  0  0  0  0  0  0
   -1.0490    2.3190    0.3600 O   0  0  0  0  0  0  0  0  0  0  0  0
   -1.6250    3.5080   -0.0410 C   0  0  0  0  0  0  0  0  0  0  0  0
   -1.9360    4.4780    0.8810 C   0  0  0  0  0  0  0  0  0  0  0  0
   -2.5190    5.6910    0.5070 C   0  0  0  0  0  0  0  0  0  0  0  0
   -2.9140    6.9380    1.7220 S   0  0  0  0  0  0  0  0  0  0  0  0
   -3.6460    8.3500    0.8770 C   0  0  0  0  0  0  0  0  0  0  0  0
   -2.7830    5.9060   -0.8190 C   0  0  0  0  0  0  0  0  0  0  0  0
   -2.4760    4.9390   -1.7520 C   0  0  0  0  0  0  0  0  0  0  0  0
   -1.8910    3.7250   -1.3710 C   0  0  0  0  0  0  0  0  0  0  0  0
   -1.6160    2.8210   -2.3410 F   0  0  0  0  0  0  0  0  0  0  0  0
   -1.2940   -2.8940   -0.2690 C   0  0  0  0  0  0  0  0  0  0  0  0
   -1.6360   -3.7500   -1.1350 N   0  0  0  0  0  0  0  0  0  0  0  0
   -2.9530   -3.9970   -1.5680 C   0  0  1  0  0  0  0  0  0  0  0  0
   -3.2660   -5.3240   -1.1200 O   0  0  0  0  0  0  0  0  0  0  0  0
  1  2  1  0
  2  3  1  0
  3  4  2  0
  3  5  1  0
  6  5  1  1
  6  7  1  0
  6 41  1  0
  7  8  2  0
  8  9  1  0
  8 39  1  0
  9 10  1  0
 10 11  1  0
 10 27  1  0
 11 12  1  0
 12 13  2  0
 12 14  1  0
 14 15  1  0
 14 26  1  0
 15 16  1  0
 16 17  1  0
 17 18  1  0
 17 25  1  0
 18 19  1  0
 19 20  2  3
 19 23  1  0
 20 21  1  0
 21 22  1  0
 23 24  1  0
 25 26  1  0
 27 28  2  0
 27 29  1  0
 29 30  1  0
 30 31  2  0
 30 37  1  0
 31 32  1  0
 32 33  1  0
 32 35  2  0
 33 34  1  0
 35 36  1  0
 36 37  2  0
 37 38  1  0
 39 40  2  0
 40 41  1  0
 41 42  1  1
M  END
