
     RDKit          3D

 42 45  0  0  0  0  0  0  0  0999 V2000
   -3.0960   -6.1560   -0.8210 C   0  0  0  0  0  0  0  0  0  0  0  0
   -3.5140   -4.8210   -0.4530 N   0  0  0  0  0  0  0  0  0  0  0  0
   -2.6340   -3.8680    0.1100 C   0  0  0  0  0  0  0  0  0  0  0  0
   -1.4460   -4.2210    0.2940 O   0  0  0  0  0  0  0  0  0  0  0  0
   -3.1090   -2.5240    0.4590 C   0  0  2  0  0  0  0  0  0  0  0  0
   -3.5810   -1.7890   -0.8090 C   0  0  0  0  0  0  0  0  0  0  0  0
   -2.0830   -1.7180    1.1100 N   0  0  0  0  0  0  0  0  0  0  0  0
   -2.4070   -0.7380    2.0740 C   0  0  0  0  0  0  0  0  0  0  0  0
   -3.6740   -0.6250    2.2850 O   0  0  0  0  0  0  0  0  0  0  0  0
   -1.4630    0.0930    2.7950 C   0  0  0  0  0  0  0  0  0  0  0  0
   -0.6930    1.0550    2.0400 N   0  0  0  0  0  0  0  0  0  0  0  0
    0.5490    0.6700    1.6470 C   0  0  0  0  0  0  0  0  0  0  0  0
    0.9110   -0.4820    1.9270 N   0  0  0  0  0  0  0  0  0  0  0  0
    2.0750   -1.1730    1.6890 C   0  0  0  0  0  0  0  0  0  0  0  0
    2.6400   -1.6610    2.8140 O   0  0  0  0  0  0  0  0  0  0  0  0
    2.8460   -1.4970    0.5340 C   0  0  0  0  0  0  0  0  0  0  0  0
    4.0870   -2.0800    0.7130 C   0  0  0  0  0  0  0  0  0  0  0  0
    4.9210   -2.3860   -0.3700 C   0  0  0  0  0  0  0  0  0  0  0  0
    4.4540   -2.0820   -1.6150 C   0  0  0  0  0  0  0  0  0  0  0  0
    3.2270   -1.5050   -1.7990 C   0  0  0  0  0  0  0  0  0  0  0  0
    2.4010   -1.2030   -0.7520 C   0  0  0  0  0  0  0  0  0  0  0  0
    1.1790   -0.6350   -0.9560 O   0  0  0  0  0  0  0  0  0  0  0  0
    0.5840   -0.2720   -2.1520 C   0  0  1  0  0  0  0  0  0  0  0  0
   -0.6620   -0.8960   -2.2390 F   0  0  0  0  0  0  0  0  0  0  0  0
    0.3110    1.1090   -2.1690 F   0  0  0  0  0  0  0  0  0  0  0  0
    5.7270   -2.6210   -2.7640 S   0  0  0  0  0  0  0  0  0  0  0  0
    6.7140   -1.4610   -2.8560 O   0  0  0  0  0  0  0  0  0  0  0  0
    6.4750   -3.8160   -1.5830 C   0  0  0  0  0  0  0  0  0  0  0  0
    6.2700   -2.9910   -0.3310 C   0  0  0  0  0  0  0  0  0  0  0  0
    1.2580    1.5740    0.9750 N   0  0  0  0  0  0  0  0  0  0  0  0
    0.7730    2.8020    0.6970 C   0  0  0  0  0  0  0  0  0  0  0  0
    1.5370    4.1760   -0.2030 S   0  0  0  0  0  0  0  0  0  0  0  0
    0.0550    5.2580    0.0120 C   0  0  0  0  0  0  0  0  0  0  0  0
   -0.0030    6.6120   -0.5200 C   0  0  0  0  0  0  0  0  0  0  0  0
   -0.8300    4.5000    0.7140 C   0  0  0  0  0  0  0  0  0  0  0  0
   -2.1660    5.1030    1.0760 C   0  0  0  0  0  0  0  0  0  0  0  0
   -3.1500    5.1610   -0.0200 C   0  0  0  0  0  0  0  0  0  0  0  0
   -3.5620    3.8790   -0.6480 C   0  0  0  0  0  0  0  0  0  0  0  0
   -2.2920    2.9560   -1.4230 Cl  0  0  0  0  0  0  0  0  0  0  0  0
   -0.4700    3.2470    1.0640 C   0  0  0  0  0  0  0  0  0  0  0  0
   -1.1850    2.2480    1.7790 C   0  0  0  0  0  0  0  0  0  0  0  0
   -2.3530    2.4870    2.1980 O   0  0  0  0  0  0  0  0  0  0  0  0
  1  2  1  0
  2  3  1  0
  3  4  2  0
  3  5  1  0
  5  6  1  6
  5  7  1  0
  7  8  1  0
  8  9  2  0
  8 10  1  0
 10 11  1  0
 11 12  1  0
 11 41  1  0
 12 13  2  3
 12 30  1  0
 13 14  1  0
 14 15  2  0
 14 16  1  0
 16 17  2  0
 16 21  1  0
 17 18  1  0
 18 19  2  0
 18 29  1  0
 19 20  1  0
 19 26  1  0
 20 21  2  0
 21 22  1  0
 22 23  1  0
 23 24  1  1
 23 25  1  0
 26 27  2  0
 26 28  1  1
 28 29  1  0
 30 31  1  0
 31 32  1  0
 31 40  2  0
 32 33  1  0
 33 34  1  0
 33 35  2  0
 35 36  1  0
 35 40  1  0
 36 37  1  0
 37 38  1  0
 38 39  1  0
 40 41  1  0
 41 42  2  0
M  END
