
     RDKit          3D

 42 45  0  0  0  0  0  0  0  0999 V2000
    1.3560    2.6250   -3.4600 C   0  0  0  0  0  0  0  0  0  0  0  0
    1.3170    3.0540   -2.0410 C   0  0  0  0  0  0  0  0  0  0  0  0
    0.7950    1.9830   -1.0820 C   0  0  0  0  0  0  0  0  0  0  0  0
    1.6020    0.7300   -1.1350 C   0  0  0  0  0  0  0  0  0  0  0  0
    0.9840   -0.4480   -0.8790 C   0  0  0  0  0  0  0  0  0  0  0  0
   -0.4500   -0.3700   -0.5380 C   0  0  0  0  0  0  0  0  0  0  0  0
   -1.0090    0.7230   -0.0450 N   0  0  0  0  0  0  0  0  0  0  0  0
   -2.3820    0.6530    0.2090 C   0  0  2  0  0  0  0  0  0  0  0  0
   -2.7360    0.7710    1.6510 C   0  0  0  0  0  0  0  0  0  0  0  0
   -2.6480    1.9900    2.3800 C   0  0  0  0  0  0  0  0  0  0  0  0
   -2.3350    3.1540    1.9030 C   0  0  0  0  0  0  0  0  0  0  0  0
   -1.9420    3.5280    0.2160 S   0  0  0  0  0  0  0  0  0  0  0  0
   -3.0970   -0.3430    2.2570 C   0  0  0  0  0  0  0  0  0  0  0  0
   -3.4770   -0.3860    3.6860 C   0  0  1  0  0  0  0  0  0  0  0  0
   -3.7710   -1.6940    4.0770 F   0  0  0  0  0  0  0  0  0  0  0  0
   -2.4810    0.0390    4.5400 F   0  0  0  0  0  0  0  0  0  0  0  0
   -4.9190    0.6300    3.9890 Cl  0  0  0  0  0  0  0  0  0  0  0  0
   -2.7340   -0.6730   -0.3720 C   0  0  0  0  0  0  0  0  0  0  0  0
   -1.6010   -1.2360   -0.7750 C   0  0  0  0  0  0  0  0  0  0  0  0
   -1.7920   -2.4660   -1.5840 C   0  0  0  0  0  0  0  0  0  0  0  0
   -2.8430   -3.3740   -1.0790 C   0  0  1  0  0  0  0  0  0  0  0  0
   -2.9400   -4.6330   -1.9710 C   0  0  0  0  0  0  0  0  0  0  0  0
   -2.7350   -3.7420    0.3420 C   0  0  0  0  0  0  0  0  0  0  0  0
   -4.1840   -2.6330   -1.2790 C   0  0  0  0  0  0  0  0  0  0  0  0
   -4.0060   -1.3450   -0.5760 C   0  0  0  0  0  0  0  0  0  0  0  0
   -5.0480   -0.7670   -0.1080 O   0  0  0  0  0  0  0  0  0  0  0  0
    1.6630   -1.7010   -0.9900 N   0  0  0  0  0  0  0  0  0  0  0  0
    2.9330   -1.8560   -1.3990 C   0  0  0  0  0  0  0  0  0  0  0  0
    3.3660   -3.0520   -1.0870 N   0  0  0  0  0  0  0  0  0  0  0  0
    2.4410   -3.7340   -0.4760 N   0  0  0  0  0  0  0  0  0  0  0  0
    1.3520   -2.9090   -0.3960 C   0  0  0  0  0  0  0  0  0  0  0  0
    0.3250   -3.3050    0.1570 O   0  0  0  0  0  0  0  0  0  0  0  0
    3.6650   -0.5080   -2.2820 S   0  0  0  0  0  0  0  0  0  0  0  0
    3.0350    0.9290   -1.3900 C   0  0  2  0  0  0  0  0  0  0  0  0
    3.6670    0.9960   -0.0540 N   0  0  0  0  0  0  0  0  0  0  0  0
    4.4370    2.1100    0.3690 C   0  0  0  0  0  0  0  0  0  0  0  0
    4.6030    3.0770   -0.3870 O   0  0  0  0  0  0  0  0  0  0  0  0
    5.0650    2.1390    1.7400 C   0  0  0  0  0  0  0  0  0  0  0  0
    5.7730    3.3220    1.9470 O   0  0  0  0  0  0  0  0  0  0  0  0
    6.4180    3.5250    3.1550 C   0  0  0  0  0  0  0  0  0  0  0  0
    6.3340    2.6190    4.0230 O   0  0  0  0  0  0  0  0  0  0  0  0
    7.1450    4.7050    3.4070 O   0  0  0  0  0  0  0  0  0  0  0  0
  1  2  1  0
  2  3  1  0
  3  4  1  0
  4  5  2  0
  4 34  1  0
  5  6  1  0
  5 27  1  0
  6  7  2  0
  6 19  1  0
  7  8  1  0
  8  9  1  1
  8 18  1  0
  9 10  1  0
  9 13  2  3
 10 11  2  3
 11 12  1  0
 13 14  1  0
 14 15  1  1
 14 16  1  0
 14 17  1  0
 18 19  2  0
 18 25  1  0
 19 20  1  0
 20 21  1  0
 21 22  1  6
 21 23  1  0
 21 24  1  0
 24 25  1  0
 25 26  2  0
 27 28  1  0
 27 31  1  0
 28 29  2  0
 28 33  1  0
 29 30  1  0
 30 31  1  0
 31 32  2  0
 33 34  1  0
 34 35  1  1
 35 36  1  0
 36 37  2  0
 36 38  1  0
 38 39  1  0
 39 40  1  0
 40 41  2  0
 40 42  1  0
M  END
