
     RDKit          3D

 42 44  0  0  0  0  0  0  0  0999 V2000
   -7.6400    4.8950   -1.7440 C   0  0  0  0  0  0  0  0  0  0  0  0
   -6.4480    4.5680   -0.9980 N   0  0  0  0  0  0  0  0  0  0  0  0
   -6.3210    3.2610   -0.3460 C   0  0  0  0  0  0  0  0  0  0  0  0
   -7.3050    2.5080   -0.5020 O   0  0  0  0  0  0  0  0  0  0  0  0
   -5.0940    2.9740    0.3980 C   0  0  0  0  0  0  0  0  0  0  0  0
   -4.8390    1.6120    0.8880 C   0  0  0  0  0  0  0  0  0  0  0  0
   -4.6630    0.5560   -0.0580 N   0  0  0  0  0  0  0  0  0  0  0  0
   -5.6970   -0.3380   -0.4890 C   0  0  0  0  0  0  0  0  0  0  0  0
   -5.7780   -1.5170    0.4700 C   0  0  0  0  0  0  0  0  0  0  0  0
   -5.0070   -1.5950    1.4600 O   0  0  0  0  0  0  0  0  0  0  0  0
   -6.7210   -2.5540    0.2710 N   0  0  0  0  0  0  0  0  0  0  0  0
   -6.8490   -3.6810    1.1240 C   0  0  0  0  0  0  0  0  0  0  0  0
   -7.8470   -4.7660    0.9020 C   0  0  0  0  0  0  0  0  0  0  0  0
   -6.0620   -3.7340    2.1110 O   0  0  0  0  0  0  0  0  0  0  0  0
   -3.3560    0.3210   -0.5630 C   0  0  0  0  0  0  0  0  0  0  0  0
   -3.1750   -0.5630   -1.4310 O   0  0  0  0  0  0  0  0  0  0  0  0
   -2.1920    1.0910   -0.0920 C   0  0  0  0  0  0  0  0  0  0  0  0
   -1.2950    0.1450    1.2050 S   0  0  0  0  0  0  0  0  0  0  0  0
   -0.5630   -1.2900    0.4310 C   0  0  0  0  0  0  0  0  0  0  0  0
   -1.1290   -2.5000    0.2650 N   0  0  0  0  0  0  0  0  0  0  0  0
   -0.2670   -3.3060   -0.3550 C   0  0  0  0  0  0  0  0  0  0  0  0
    0.8590   -2.5460   -0.5660 C   0  0  0  0  0  0  0  0  0  0  0  0
    0.6920   -1.3070   -0.0890 N   0  0  0  0  0  0  0  0  0  0  0  0
    1.5640   -0.2060   -0.0730 C   0  0  0  0  0  0  0  0  0  0  0  0
    1.2310    0.8960    0.4240 O   0  0  0  0  0  0  0  0  0  0  0  0
    2.9360   -0.2920   -0.6480 C   0  0  2  0  0  0  0  0  0  0  0  0
    3.7370   -1.4000   -0.0500 C   0  0  0  0  0  0  0  0  0  0  0  0
    4.9960   -0.8000    0.5210 C   0  0  1  0  0  0  0  0  0  0  0  0
    6.1630   -1.7160    0.3410 C   0  0  0  0  0  0  0  0  0  0  0  0
    5.1400    0.4900   -0.2940 C   0  0  2  0  0  0  0  0  0  0  0  0
    6.2270    1.6580    0.5500 S   0  0  0  0  0  0  0  0  0  0  0  0
    7.8970    1.0310    0.5730 C   0  0  0  0  0  0  0  0  0  0  0  0
    8.4070    0.4730    1.6820 C   0  0  0  0  0  0  0  0  0  0  0  0
    7.3210    0.4160    3.0770 Cl  0  0  0  0  0  0  0  0  0  0  0  0
    9.7430   -0.0680    1.7330 C   0  0  0  0  0  0  0  0  0  0  0  0
   10.5450   -0.0420    0.6770 C   0  0  0  0  0  0  0  0  0  0  0  0
   10.0560    0.5240   -0.4840 O   0  0  0  0  0  0  0  0  0  0  0  0
    8.7620    1.0680   -0.5920 C   0  0  0  0  0  0  0  0  0  0  0  0
    8.3640    1.5990   -1.7260 C   0  0  0  0  0  0  0  0  0  0  0  0
    7.1310    2.1210   -1.8140 F   0  0  0  0  0  0  0  0  0  0  0  0
    9.2240    1.6050   -2.8000 F   0  0  0  0  0  0  0  0  0  0  0  0
    3.7180    0.9750   -0.3460 C   0  0  0  0  0  0  0  0  0  0  0  0
  1  2  1  0
  2  3  1  0
  3  4  2  0
  3  5  1  0
  5  6  1  0
  6  7  1  0
  7  8  1  0
  7 15  1  0
  8  9  1  0
  9 10  2  0
  9 11  1  0
 11 12  1  0
 12 13  1  0
 12 14  2  0
 15 16  2  0
 15 17  1  0
 17 18  1  0
 18 19  1  0
 19 20  2  0
 19 23  1  0
 20 21  1  0
 21 22  2  0
 22 23  1  0
 23 24  1  0
 24 25  2  0
 26 24  1  1
 26 27  1  0
 26 42  1  0
 27 28  1  0
 28 29  1  6
 28 30  1  0
 30 31  1  1
 30 42  1  0
 31 32  1  0
 32 33  2  0
 32 38  1  0
 33 34  1  0
 33 35  1  0
 35 36  2  0
 36 37  1  0
 37 38  1  0
 38 39  2  3
 39 40  1  0
 39 41  1  0
M  END
