
     RDKit          3D

 31 35  0  0  0  0  0  0  0  0999 V2000
    7.7770   -1.2430   -0.5390 C   0  0  0  0  0  0  0  0  0  0  0  0
    6.3160   -1.1500   -0.1440 C   0  0  1  0  0  0  0  0  0  0  0  0
    6.2330   -1.0020    1.3520 C   0  0  0  0  0  0  0  0  0  0  0  0
    5.7250   -0.0130   -0.8320 N   0  0  0  0  0  0  0  0  0  0  0  0
    6.3330    0.9250   -1.5360 N   0  0  0  0  0  0  0  0  0  0  0  0
    5.4380    1.8070   -2.0150 C   0  0  0  0  0  0  0  0  0  0  0  0
    4.2070    1.3580   -1.5610 C   0  0  0  0  0  0  0  0  0  0  0  0
    2.9130    1.8290   -1.7150 C   0  0  0  0  0  0  0  0  0  0  0  0
    1.8840    1.1980   -1.1640 N   0  0  0  0  0  0  0  0  0  0  0  0
    2.0260    0.0900   -0.4400 C   0  0  0  0  0  0  0  0  0  0  0  0
    0.9620   -0.6060    0.1590 N   0  0  0  0  0  0  0  0  0  0  0  0
   -0.4100   -0.2950    0.1220 C   0  0  0  0  0  0  0  0  0  0  0  0
   -0.9650    0.7730   -0.5250 C   0  0  0  0  0  0  0  0  0  0  0  0
   -2.3460    1.0090   -0.5110 C   0  0  0  0  0  0  0  0  0  0  0  0
   -2.8610    2.1880   -1.2360 C   0  0  2  0  0  0  0  0  0  0  0  0
   -3.6570    3.1060   -0.3210 C   0  0  0  0  0  0  0  0  0  0  0  0
   -4.4970    3.8700   -1.3370 C   0  0  0  0  0  0  0  0  0  0  0  0
   -4.5930    3.0530   -2.5050 N   0  0  0  0  0  0  0  0  0  0  0  0
   -3.8890    1.8300   -2.2740 C   0  0  0  0  0  0  0  0  0  0  0  0
   -3.1100    0.1640    0.1500 N   0  0  0  0  0  0  0  0  0  0  0  0
   -2.6160   -0.9100    0.8080 C   0  0  0  0  0  0  0  0  0  0  0  0
   -3.4830   -1.8030    1.5150 N   0  0  0  0  0  0  0  0  0  0  0  0
   -3.0080   -2.9670    2.2340 C   0  0  0  0  0  0  0  0  0  0  0  0
   -4.2380   -3.6890    2.7090 C   0  0  0  0  0  0  0  0  0  0  0  0
   -5.2980   -2.6060    2.7520 C   0  0  1  0  0  0  0  0  0  0  0  0
   -6.5190   -3.2480    2.5060 F   0  0  0  0  0  0  0  0  0  0  0  0
   -5.3120   -1.9930    3.9810 F   0  0  0  0  0  0  0  0  0  0  0  0
   -4.9130   -1.7040    1.6270 C   0  0  0  0  0  0  0  0  0  0  0  0
   -1.2980   -1.1070    0.7760 N   0  0  0  0  0  0  0  0  0  0  0  0
    3.3060   -0.4160   -0.2600 C   0  0  0  0  0  0  0  0  0  0  0  0
    4.3910    0.2130   -0.8170 C   0  0  0  0  0  0  0  0  0  0  0  0
  2  1  1  1
  2  3  1  0
  2  4  1  0
  4  5  1  0
  4 31  1  0
  5  6  2  0
  6  7  1  0
  7  8  2  0
  7 31  1  0
  8  9  1  0
  9 10  2  0
 10 11  1  0
 10 30  1  0
 11 12  1  0
 12 13  2  0
 12 29  1  0
 13 14  1  0
 15 14  1  1
 14 20  2  0
 15 16  1  0
 15 19  1  0
 16 17  1  0
 17 18  1  0
 18 19  1  0
 20 21  1  0
 21 22  1  0
 21 29  2  0
 22 23  1  0
 22 28  1  0
 23 24  1  0
 24 25  1  0
 25 26  1  6
 25 27  1  0
 25 28  1  0
 30 31  2  0
M  END
