
     RDKit          3D

 29 31  0  0  0  0  0  0  0  0999 V2000
   -1.5670    4.2640    1.9010 C   0  0  0  0  0  0  0  0  0  0  0  0
   -1.8460    3.9810    0.5730 O   0  0  0  0  0  0  0  0  0  0  0  0
   -0.7570    3.8130   -0.2290 C   0  0  0  0  0  0  0  0  0  0  0  0
    0.1310    2.6230    0.0790 C   0  0  0  0  0  0  0  0  0  0  0  0
   -0.5320    1.2850    0.0010 C   0  0  1  0  0  0  0  0  0  0  0  0
   -1.5870    1.2720    0.8960 O   0  0  0  0  0  0  0  0  0  0  0  0
   -1.1820    1.3490   -1.3570 C   0  0  0  0  0  0  0  0  0  0  0  0
   -2.3830    0.5000   -1.6000 C   0  0  0  0  0  0  0  0  0  0  0  0
   -1.9040   -0.7510   -2.2460 C   0  0  1  0  0  0  0  0  0  0  0  0
   -1.7960   -0.4460   -3.7570 C   0  0  0  0  0  0  0  0  0  0  0  0
   -0.5350   -1.0950   -1.8050 C   0  0  0  0  0  0  0  0  0  0  0  0
   -0.3640   -1.1690   -0.2510 C   0  0  2  0  0  0  0  0  0  0  0  0
   -1.3980   -1.9570    0.3320 C   0  0  2  0  0  0  0  0  0  0  0  0
   -1.3450   -3.2400   -0.3980 O   0  0  0  0  0  0  0  0  0  0  0  0
   -2.7160   -1.7910    0.8730 C   0  0  1  0  0  0  0  0  0  0  0  0
   -3.8750   -2.6700    0.4120 C   0  0  0  0  0  0  0  0  0  0  0  0
   -1.6550   -2.4000    1.7360 C   0  0  1  0  0  0  0  0  0  0  0  0
   -1.9800   -3.8480    2.1180 C   0  0  0  0  0  0  0  0  0  0  0  0
    0.3160    0.0910    0.2450 C   0  0  1  0  0  0  0  0  0  0  0  0
    1.6070    0.2490   -0.5580 C   0  0  0  0  0  0  0  0  0  0  0  0
    2.8550    0.6560    0.0410 C   0  0  2  0  0  0  0  0  0  0  0  0
    3.3740    1.7710   -0.7070 O   0  0  0  0  0  0  0  0  0  0  0  0
    4.0440   -0.3040   -0.1400 C   0  0  0  0  0  0  0  0  0  0  0  0
    4.4050   -0.5410   -1.5740 C   0  0  0  0  0  0  0  0  0  0  0  0
    4.7740    0.5600   -2.2950 O   0  0  0  0  0  0  0  0  0  0  0  0
    2.8830    1.1150    1.4660 C   0  0  0  0  0  0  0  0  0  0  0  0
    1.6840    0.8980    2.2660 C   0  0  0  0  0  0  0  0  0  0  0  0
    0.7980   -0.1470    1.6130 C   0  0  2  0  0  0  0  0  0  0  0  0
    1.5110   -1.4270    1.8880 C   0  0  0  0  0  0  0  0  0  0  0  0
  1  2  1  0
  2  3  1  0
  3  4  1  0
  4  5  1  0
  5  6  1  1
  5  7  1  0
  5 19  1  0
  7  8  1  0
  8  9  1  0
  9 10  1  6
  9 11  1  0
 12 11  1  6
 12 13  1  0
 12 19  1  0
 13 14  1  6
 13 15  1  0
 13 17  1  0
 15 16  1  6
 15 17  1  0
 17 18  1  6
 19 20  1  6
 19 28  1  0
 20 21  1  0
 21 22  1  6
 21 23  1  0
 21 26  1  0
 23 24  1  0
 24 25  1  0
 26 27  1  0
 27 28  1  0
 28 29  1  6
M  END
