
     RDKit          3D

 31 33  0  0  0  0  0  0  0  0999 V2000
   -5.1490    4.8390   -0.3670 N   0  0  0  0  0  0  0  0  0  0  0  0
   -4.8450    3.5750    0.2050 C   0  0  0  0  0  0  0  0  0  0  0  0
   -5.6500    3.0970    1.0310 O   0  0  0  0  0  0  0  0  0  0  0  0
   -3.6330    2.8770   -0.1700 C   0  0  0  0  0  0  0  0  0  0  0  0
   -3.4160    1.5300    0.4490 C   0  0  1  0  0  0  0  0  0  0  0  0
   -4.4840    0.5310    0.1220 C   0  0  0  0  0  0  0  0  0  0  0  0
   -4.1730   -0.7650    0.7810 C   0  0  0  0  0  0  0  0  0  0  0  0
   -3.1400   -0.9090    1.4930 O   0  0  0  0  0  0  0  0  0  0  0  0
   -5.0580   -1.8920    0.6140 C   0  0  0  0  0  0  0  0  0  0  0  0
   -4.8970   -3.0890    1.1420 C   0  0  0  0  0  0  0  0  0  0  0  0
   -5.9560   -3.8640    0.7400 O   0  0  0  0  0  0  0  0  0  0  0  0
   -6.9330   -3.0730    0.1740 N   0  0  0  0  0  0  0  0  0  0  0  0
   -6.2520   -1.8950   -0.1480 N   0  0  0  0  0  0  0  0  0  0  0  0
   -2.1210    0.9280   -0.0480 C   0  0  0  0  0  0  0  0  0  0  0  0
   -0.9840    0.5780    0.6330 C   0  0  0  0  0  0  0  0  0  0  0  0
    0.0310    0.0550   -0.0760 C   0  0  0  0  0  0  0  0  0  0  0  0
   -0.0380   -0.1260   -1.3860 C   0  0  0  0  0  0  0  0  0  0  0  0
    0.7960   -0.5690   -2.4720 C   0  0  0  0  0  0  0  0  0  0  0  0
    2.0210   -0.7920   -2.6230 C   0  0  0  0  0  0  0  0  0  0  0  0
    3.2750   -0.7660   -1.9500 C   0  0  0  0  0  0  0  0  0  0  0  0
    4.2860   -1.1940   -2.6500 O   0  0  0  0  0  0  0  0  0  0  0  0
    3.6470   -0.3630   -0.6680 N   0  0  0  0  0  0  0  0  0  0  0  0
    4.9430   -0.3960   -0.0720 C   0  0  0  0  0  0  0  0  0  0  0  0
    5.1710    0.4180    1.0560 C   0  0  0  0  0  0  0  0  0  0  0  0
    6.3920    0.4100    1.6810 C   0  0  0  0  0  0  0  0  0  0  0  0
    7.4300   -0.3810    1.2400 C   0  0  0  0  0  0  0  0  0  0  0  0
    8.6690   -0.3970    1.8660 O   0  0  0  0  0  0  0  0  0  0  0  0
    7.2430   -1.1880    0.1430 C   0  0  0  0  0  0  0  0  0  0  0  0
    8.2490   -2.0360   -0.3850 N   0  0  0  0  0  0  0  0  0  0  0  0
    5.9810   -1.1610   -0.4790 C   0  0  0  0  0  0  0  0  0  0  0  0
   -1.7310    0.5060   -1.7000 S   0  0  0  0  0  0  0  0  0  0  0  0
  1  2  1  0
  2  3  2  0
  2  4  1  0
  5  4  1  6
  5  6  1  0
  5 14  1  0
  6  7  1  0
  7  8  2  0
  7  9  1  0
  9 10  2  0
  9 13  1  0
 10 11  1  0
 11 12  1  0
 12 13  1  0
 14 15  2  0
 14 31  1  0
 15 16  1  0
 16 17  2  0
 17 18  1  0
 17 31  1  0
 18 19  2  3
 19 20  1  0
 20 21  2  0
 20 22  1  0
 22 23  1  0
 23 24  2  0
 23 30  1  0
 24 25  1  0
 25 26  2  0
 26 27  1  0
 26 28  1  0
 28 29  1  0
 28 30  2  0
M  END
