
     RDKit          3D

 31 33  0  0  0  0  0  0  0  0999 V2000
   -7.5140    1.9450   -1.9820 C   0  0  0  0  0  0  0  0  0  0  0  0
   -6.5360    1.0200   -1.2930 C   0  0  1  0  0  0  0  0  0  0  0  0
   -7.1120    0.7240    0.0840 C   0  0  0  0  0  0  0  0  0  0  0  0
   -6.5260   -0.2890   -2.0490 C   0  0  0  0  0  0  0  0  0  0  0  0
   -5.2330    1.6220   -1.2050 N   0  0  0  0  0  0  0  0  0  0  0  0
   -4.1260    0.9540   -0.5960 C   0  0  0  0  0  0  0  0  0  0  0  0
   -4.3100   -0.1850   -0.1300 O   0  0  0  0  0  0  0  0  0  0  0  0
   -2.8460    1.5310   -0.5030 N   0  0  0  0  0  0  0  0  0  0  0  0
   -1.7090    0.8850    0.1040 C   0  0  0  0  0  0  0  0  0  0  0  0
   -1.3550   -0.4120   -0.5770 C   0  0  0  0  0  0  0  0  0  0  0  0
   -0.1650   -0.9960    0.1320 C   0  0  0  0  0  0  0  0  0  0  0  0
   -0.2830   -1.8490    1.1960 C   0  0  0  0  0  0  0  0  0  0  0  0
    1.0230   -2.2060    1.6180 C   0  0  0  0  0  0  0  0  0  0  0  0
    1.3130   -3.1210    2.6940 C   0  0  0  0  0  0  0  0  0  0  0  0
    0.2450   -3.4980    3.5760 N   0  0  0  0  0  0  0  0  0  0  0  0
    2.4160   -3.6240    2.9380 O   0  0  0  0  0  0  0  0  0  0  0  0
    1.8470   -1.5310    0.7690 C   0  0  0  0  0  0  0  0  0  0  0  0
    3.2900   -1.5080    0.7420 C   0  0  0  0  0  0  0  0  0  0  0  0
    3.8360   -1.4350   -0.4120 O   0  0  0  0  0  0  0  0  0  0  0  0
    4.1530   -1.5480    1.8390 N   0  0  0  0  0  0  0  0  0  0  0  0
    5.6250   -1.5320    1.6610 C   0  0  0  0  0  0  0  0  0  0  0  0
    6.0010   -0.2610    0.9550 C   0  0  0  0  0  0  0  0  0  0  0  0
    6.3630   -0.0840   -0.3630 C   0  0  0  0  0  0  0  0  0  0  0  0
    6.6220    1.2880   -0.5480 C   0  0  0  0  0  0  0  0  0  0  0  0
    7.0120    2.0600   -1.6130 C   0  0  0  0  0  0  0  0  0  0  0  0
    7.2960    1.7050   -2.9560 N   0  0  0  0  0  0  0  0  0  0  0  0
    7.0930    3.6840   -0.9390 S   0  0  0  0  0  0  0  0  0  0  0  0
    6.5990    3.2270    0.7340 C   0  0  0  0  0  0  0  0  0  0  0  0
    6.4150    1.8550    0.6170 C   0  0  0  0  0  0  0  0  0  0  0  0
    6.0460    0.9030    1.4950 O   0  0  0  0  0  0  0  0  0  0  0  0
    1.0810   -0.8240   -0.1020 O   0  0  0  0  0  0  0  0  0  0  0  0
  2  1  1  6
  2  3  1  0
  2  4  1  0
  2  5  1  0
  5  6  1  0
  6  7  2  0
  6  8  1  0
  8  9  1  0
  9 10  1  0
 10 11  1  0
 11 12  2  0
 11 31  1  0
 12 13  1  0
 13 14  1  0
 13 17  2  0
 14 15  1  0
 14 16  2  0
 17 18  1  0
 17 31  1  0
 18 19  2  0
 18 20  1  0
 20 21  1  0
 21 22  1  0
 22 23  2  0
 22 30  1  0
 23 24  1  0
 24 25  2  0
 24 29  1  0
 25 26  1  0
 25 27  1  0
 27 28  1  0
 28 29  2  0
 29 30  1  0
M  END
