
     RDKit          3D

 30 32  0  0  0  0  0  0  0  0999 V2000
    7.1750    0.2820    1.5040 C   0  0  0  0  0  0  0  0  0  0  0  0
    5.7050    0.2110    1.4870 C   0  0  0  0  0  0  0  0  0  0  0  0
    5.1240    0.5760    2.5510 O   0  0  0  0  0  0  0  0  0  0  0  0
    4.9540   -0.2410    0.3450 C   0  0  0  0  0  0  0  0  0  0  0  0
    5.5110   -0.6540   -0.8570 C   0  0  0  0  0  0  0  0  0  0  0  0
    6.8170   -0.6690   -1.0900 O   0  0  0  0  0  0  0  0  0  0  0  0
    4.6710   -1.0870   -1.9110 C   0  0  0  0  0  0  0  0  0  0  0  0
    5.2720   -1.5290   -3.1930 C   0  0  0  0  0  0  0  0  0  0  0  0
    3.3210   -1.1000   -1.7490 C   0  0  0  0  0  0  0  0  0  0  0  0
    2.8010   -0.6880   -0.5550 C   0  0  0  0  0  0  0  0  0  0  0  0
    1.4620   -0.6250   -0.1910 C   0  0  0  0  0  0  0  0  0  0  0  0
    0.3540   -0.9890   -1.0100 N   0  0  0  0  0  0  0  0  0  0  0  0
   -0.9890   -0.8980   -0.5720 C   0  0  0  0  0  0  0  0  0  0  0  0
   -1.2800   -0.4840    0.5800 O   0  0  0  0  0  0  0  0  0  0  0  0
   -2.0620   -1.3120   -1.5280 C   0  0  0  0  0  0  0  0  0  0  0  0
   -3.6990   -1.1280   -0.8280 S   0  0  0  0  0  0  0  0  0  0  0  0
   -4.1100    0.5820   -0.5410 C   0  0  0  0  0  0  0  0  0  0  0  0
   -3.2800    1.6250   -0.8210 C   0  0  0  0  0  0  0  0  0  0  0  0
   -3.6280    2.9060   -0.5920 N   0  0  0  0  0  0  0  0  0  0  0  0
   -4.8290    3.2530   -0.0650 C   0  0  0  0  0  0  0  0  0  0  0  0
   -5.1790    4.6010    0.1680 N   0  0  0  0  0  0  0  0  0  0  0  0
   -5.6780    2.1970    0.2230 C   0  0  0  0  0  0  0  0  0  0  0  0
   -5.3490    0.8760   -0.0020 C   0  0  0  0  0  0  0  0  0  0  0  0
   -6.2810   -0.2260    0.3180 C   0  0  0  0  0  0  0  0  0  0  0  0
   -5.8830   -0.9160    1.5470 C   0  0  0  0  0  0  0  0  0  0  0  0
   -6.6610   -2.0140    2.0210 N   0  0  0  0  0  0  0  0  0  0  0  0
   -4.8620   -0.5330    2.1690 O   0  0  0  0  0  0  0  0  0  0  0  0
    1.4680   -0.1520    1.0910 C   0  0  0  0  0  0  0  0  0  0  0  0
    2.7370    0.0720    1.5150 N   0  0  0  0  0  0  0  0  0  0  0  0
    3.5500   -0.2600    0.4970 C   0  0  0  0  0  0  0  0  0  0  0  0
  1  2  1  0
  2  3  2  0
  2  4  1  0
  4  5  2  0
  4 30  1  0
  5  6  1  0
  5  7  1  0
  7  8  1  0
  7  9  2  0
  9 10  1  0
 10 11  1  0
 10 30  2  0
 11 12  1  0
 11 28  2  0
 12 13  1  0
 13 14  2  0
 13 15  1  0
 15 16  1  0
 16 17  1  0
 17 18  2  0
 17 23  1  0
 18 19  1  0
 19 20  2  0
 20 21  1  0
 20 22  1  0
 22 23  2  0
 23 24  1  0
 24 25  1  0
 25 26  1  0
 25 27  2  0
 28 29  1  0
 29 30  1  0
M  END
