
     RDKit          3D

 31 33  0  0  0  0  0  0  0  0999 V2000
   -4.5720    3.5240    0.8770 C   0  0  0  0  0  0  0  0  0  0  0  0
   -4.1410    2.1200    0.5200 C   0  0  0  0  0  0  0  0  0  0  0  0
   -5.2130    1.2020    0.6330 O   0  0  0  0  0  0  0  0  0  0  0  0
   -4.9630   -0.1220    0.3360 C   0  0  0  0  0  0  0  0  0  0  0  0
   -3.6960   -0.5580   -0.0650 C   0  0  0  0  0  0  0  0  0  0  0  0
   -3.4160   -1.8660   -0.3660 C   0  0  0  0  0  0  0  0  0  0  0  0
   -2.1460   -2.3190   -0.7710 N   0  0  0  0  0  0  0  0  0  0  0  0
   -0.9760   -1.5480   -0.9350 C   0  0  0  0  0  0  0  0  0  0  0  0
   -1.0090   -0.3370   -0.7140 O   0  0  0  0  0  0  0  0  0  0  0  0
    0.2250   -2.2020   -1.3580 N   0  0  0  0  0  0  0  0  0  0  0  0
    1.4520   -1.4620   -1.5380 C   0  0  0  0  0  0  0  0  0  0  0  0
    1.8750   -0.8390   -0.2610 C   0  0  0  0  0  0  0  0  0  0  0  0
    3.1430   -0.0660   -0.3840 C   0  0  0  0  0  0  0  0  0  0  0  0
    3.6700   -0.0430   -1.5100 O   0  0  0  0  0  0  0  0  0  0  0  0
    3.7340    0.6100    0.6990 N   0  0  0  0  0  0  0  0  0  0  0  0
    4.9310    1.3660    0.6820 C   0  0  0  0  0  0  0  0  0  0  0  0
    5.7350    1.5780   -0.4020 C   0  0  0  0  0  0  0  0  0  0  0  0
    6.8980    2.3270   -0.3670 C   0  0  0  0  0  0  0  0  0  0  0  0
    7.6600    2.4870   -1.5410 N   0  0  0  0  0  0  0  0  0  0  0  0
    7.2650    2.8930    0.8330 C   0  0  0  0  0  0  0  0  0  0  0  0
    6.4680    2.6930    1.9420 C   0  0  0  0  0  0  0  0  0  0  0  0
    5.3200    1.9500    1.8970 C   0  0  0  0  0  0  0  0  0  0  0  0
    4.5400    1.7720    3.0430 O   0  0  0  0  0  0  0  0  0  0  0  0
   -4.4620   -2.7880   -0.2610 C   0  0  0  0  0  0  0  0  0  0  0  0
   -5.7300   -2.3620    0.1390 C   0  0  0  0  0  0  0  0  0  0  0  0
   -5.9700   -1.0360    0.4330 C   0  0  0  0  0  0  0  0  0  0  0  0
   -6.6600   -3.4820    0.1800 C   0  0  0  0  0  0  0  0  0  0  0  0
   -7.8730   -3.4520    0.4960 O   0  0  0  0  0  0  0  0  0  0  0  0
   -5.9610   -4.6400   -0.2030 N   0  0  0  0  0  0  0  0  0  0  0  0
   -4.6050   -4.2140   -0.4750 C   0  0  0  0  0  0  0  0  0  0  0  0
   -3.4190   -5.2330   -0.9580 S   0  0  0  0  0  0  0  0  0  0  0  0
  1  2  1  0
  2  3  1  0
  3  4  1  0
  4  5  2  0
  4 26  1  0
  5  6  1  0
  6  7  1  0
  6 24  2  0
  7  8  1  0
  8  9  2  0
  8 10  1  0
 10 11  1  0
 11 12  1  0
 12 13  1  0
 13 14  2  0
 13 15  1  0
 15 16  1  0
 16 17  2  0
 16 22  1  0
 17 18  1  0
 18 19  1  0
 18 20  2  0
 20 21  1  0
 21 22  2  0
 22 23  1  0
 24 25  1  0
 24 30  1  0
 25 26  2  0
 25 27  1  0
 27 28  2  0
 27 29  1  0
 29 30  1  0
 30 31  2  0
M  END
