
     RDKit          3D

 31 33  0  0  0  0  0  0  0  0999 V2000
    4.1610    1.7180    3.3780 C   0  0  0  0  0  0  0  0  0  0  0  0
    3.9200    2.4880    2.0520 C   0  0  0  0  0  0  0  0  0  0  0  0
    3.9810    1.7060    1.0230 O   0  0  0  0  0  0  0  0  0  0  0  0
    4.0370    0.9480   -0.0160 C   0  0  0  0  0  0  0  0  0  0  0  0
    2.9830    0.2450   -0.6240 C   0  0  0  0  0  0  0  0  0  0  0  0
    1.5820    0.2620   -0.1490 C   0  0  0  0  0  0  0  0  0  0  0  0
    0.6990   -0.5530   -0.9650 N   0  0  0  0  0  0  0  0  0  0  0  0
   -0.7070   -0.6190   -0.5950 C   0  0  0  0  0  0  0  0  0  0  0  0
   -0.9800    0.0540    0.4040 O   0  0  0  0  0  0  0  0  0  0  0  0
   -1.6290   -1.4070   -1.3600 C   0  0  0  0  0  0  0  0  0  0  0  0
   -1.1310   -2.1840   -2.4190 C   0  0  0  0  0  0  0  0  0  0  0  0
   -1.9380   -3.0100   -3.1770 C   0  0  0  0  0  0  0  0  0  0  0  0
   -1.3850   -3.7780   -4.2400 N   0  0  0  0  0  0  0  0  0  0  0  0
   -3.2750   -3.0750   -2.8870 C   0  0  0  0  0  0  0  0  0  0  0  0
   -3.7430   -2.2990   -1.8390 C   0  0  0  0  0  0  0  0  0  0  0  0
   -2.9670   -1.4660   -1.0650 C   0  0  0  0  0  0  0  0  0  0  0  0
   -3.5500   -0.6590   -0.0550 N   0  0  0  0  0  0  0  0  0  0  0  0
   -4.8220   -0.7600    0.5060 C   0  0  0  0  0  0  0  0  0  0  0  0
   -5.5960   -1.6660    0.1110 O   0  0  0  0  0  0  0  0  0  0  0  0
   -5.3820    0.1150    1.5550 C   0  0  0  0  0  0  0  0  0  0  0  0
   -6.6310   -0.0040    2.0150 O   0  0  0  0  0  0  0  0  0  0  0  0
   -6.8980    0.8690    2.9290 C   0  0  0  0  0  0  0  0  0  0  0  0
   -8.3320    1.0490    3.7460 S   0  0  0  0  0  0  0  0  0  0  0  0
   -5.7970    1.6080    3.0980 N   0  0  0  0  0  0  0  0  0  0  0  0
   -4.8240    1.1530    2.2420 C   0  0  0  0  0  0  0  0  0  0  0  0
   -3.4560    1.6980    2.1190 C   0  0  0  0  0  0  0  0  0  0  0  0
    3.5020   -0.4220   -1.6890 C   0  0  0  0  0  0  0  0  0  0  0  0
    4.8160   -0.1620   -1.7610 N   0  0  0  0  0  0  0  0  0  0  0  0
    5.1780    0.6540   -0.7790 C   0  0  0  0  0  0  0  0  0  0  0  0
    6.5550    1.1620   -0.5360 C   0  0  0  0  0  0  0  0  0  0  0  0
    7.4200    0.6620   -1.4880 O   0  0  0  0  0  0  0  0  0  0  0  0
  1  2  1  0
  2  3  1  0
  3  4  1  0
  4  5  1  0
  4 29  2  0
  5  6  1  0
  5 27  2  0
  6  7  1  0
  7  8  1  0
  8  9  2  0
  8 10  1  0
 10 11  2  0
 10 16  1  0
 11 12  1  0
 12 13  1  0
 12 14  2  0
 14 15  1  0
 15 16  2  0
 16 17  1  0
 17 18  1  0
 18 19  2  0
 18 20  1  0
 20 21  1  0
 20 25  2  0
 21 22  1  0
 22 23  2  0
 22 24  1  0
 24 25  1  0
 25 26  1  0
 27 28  1  0
 28 29  1  0
 29 30  1  0
 30 31  1  0
M  END
