
     RDKit          3D

 29 32  0  0  0  0  0  0  0  0999 V2000
   -4.4620    3.3500   -0.9300 C   0  0  0  0  0  0  0  0  0  0  0  0
   -3.0570    2.7100   -0.8390 C   0  0  0  0  0  0  0  0  0  0  0  0
   -3.0170    1.7390    0.3000 C   0  0  0  0  0  0  0  0  0  0  0  0
   -1.8180    1.0260    0.6530 C   0  0  1  0  0  0  0  0  0  0  0  0
   -2.1330    0.1340    1.8800 C   0  0  0  0  0  0  0  0  0  0  0  0
   -2.4730   -1.1240    1.6100 O   0  0  0  0  0  0  0  0  0  0  0  0
   -2.5140   -1.6320    0.3650 C   0  0  1  0  0  0  0  0  0  0  0  0
   -2.2080   -3.1410    0.5380 C   0  0  0  0  0  0  0  0  0  0  0  0
   -3.5480   -3.8230    0.5870 C   0  0  0  0  0  0  0  0  0  0  0  0
   -4.2770   -3.0830   -0.5130 C   0  0  0  0  0  0  0  0  0  0  0  0
   -3.8970   -1.6680   -0.2530 C   0  0  0  0  0  0  0  0  0  0  0  0
   -1.5060   -1.1240   -0.5850 C   0  0  0  0  0  0  0  0  0  0  0  0
   -0.9310    0.2670   -0.2530 C   0  0  1  0  0  0  0  0  0  0  0  0
   -0.5540    0.8420   -1.5580 C   0  0  0  0  0  0  0  0  0  0  0  0
    0.0370    2.2170   -1.5200 C   0  0  0  0  0  0  0  0  0  0  0  0
    1.5370    2.0420   -1.6370 C   0  0  0  0  0  0  0  0  0  0  0  0
    1.9940    1.5060   -0.2690 C   0  0  2  0  0  0  0  0  0  0  0  0
    3.4010    1.9220   -0.1280 C   0  0  2  0  0  0  0  0  0  0  0  0
    4.1390    1.9340   -1.3110 O   0  0  0  0  0  0  0  0  0  0  0  0
    4.1280    1.2630    1.0110 C   0  0  0  0  0  0  0  0  0  0  0  0
    3.9900   -0.2110    0.8570 C   0  0  2  0  0  0  0  0  0  0  0  0
    4.5970   -0.7690    2.0200 O   0  0  0  0  0  0  0  0  0  0  0  0
    4.8130   -0.7520   -0.2880 C   0  0  0  0  0  0  0  0  0  0  0  0
    4.6420   -2.2730   -0.4030 C   0  0  0  0  0  0  0  0  0  0  0  0
    5.0600   -2.8530    0.7820 O   0  0  0  0  0  0  0  0  0  0  0  0
    2.5800   -0.6460    0.8880 C   0  0  0  0  0  0  0  0  0  0  0  0
    1.6410    0.0770   -0.0740 C   0  0  1  0  0  0  0  0  0  0  0  0
    0.3070   -0.0340    0.5710 C   0  0  2  0  0  0  0  0  0  0  0  0
    0.1010   -1.2240    1.2400 O   0  0  0  0  0  0  0  0  0  0  0  0
  1  2  1  0
  2  3  1  0
  4  3  1  6
  4  5  1  0
  4 13  1  0
  5  6  1  0
  6  7  1  0
  7  8  1  1
  7 11  1  0
  7 12  1  0
  8  9  1  0
  9 10  1  0
 10 11  1  0
 13 12  1  6
 13 14  1  0
 13 28  1  0
 14 15  1  0
 15 16  1  0
 17 16  1  6
 17 18  1  0
 17 27  1  0
 18 19  1  6
 18 20  1  0
 20 21  1  0
 21 22  1  1
 21 23  1  0
 21 26  1  0
 23 24  1  0
 24 25  1  0
 27 26  1  1
 27 28  1  0
 28 29  1  6
M  END
