
     RDKit          3D

 31 33  0  0  0  0  0  0  0  0999 V2000
    7.9930    3.1670   -1.5990 N   0  0  0  0  0  0  0  0  0  0  0  0
    6.8730    2.5740   -0.9600 C   0  0  0  0  0  0  0  0  0  0  0  0
    6.2590    3.2420   -0.0980 O   0  0  0  0  0  0  0  0  0  0  0  0
    6.4540    1.2030   -1.3140 C   0  0  0  0  0  0  0  0  0  0  0  0
    7.0710    0.5460   -2.1680 O   0  0  0  0  0  0  0  0  0  0  0  0
    5.3290    0.6590   -0.6530 N   0  0  0  0  0  0  0  0  0  0  0  0
    4.7750   -0.6290   -0.8380 C   0  0  0  0  0  0  0  0  0  0  0  0
    5.5430   -1.6630   -1.4030 C   0  0  0  0  0  0  0  0  0  0  0  0
    5.0660   -2.9620   -1.5140 C   0  0  0  0  0  0  0  0  0  0  0  0
    3.8090   -3.2540   -1.0600 C   0  0  0  0  0  0  0  0  0  0  0  0
    3.2520   -4.5680   -1.1380 N   0  0  0  0  0  0  0  0  0  0  0  0
    3.0310   -2.2700   -0.5040 C   0  0  0  0  0  0  0  0  0  0  0  0
    3.5190   -0.9450   -0.3930 C   0  0  0  0  0  0  0  0  0  0  0  0
    2.6210    0.0720    0.1290 C   0  0  0  0  0  0  0  0  0  0  0  0
    2.9310    1.2620    0.1500 O   0  0  0  0  0  0  0  0  0  0  0  0
    1.3100   -0.2340    0.6580 N   0  0  0  0  0  0  0  0  0  0  0  0
    0.4320    0.7630    1.1690 C   0  0  0  0  0  0  0  0  0  0  0  0
    0.6050    2.1040    1.2770 C   0  0  0  0  0  0  0  0  0  0  0  0
   -0.5200    2.6300    1.8350 N   0  0  0  0  0  0  0  0  0  0  0  0
   -1.3150    1.6530    2.0450 O   0  0  0  0  0  0  0  0  0  0  0  0
   -0.8410    0.5040    1.6850 C   0  0  0  0  0  0  0  0  0  0  0  0
   -1.4810   -0.8310    1.7850 C   0  0  0  0  0  0  0  0  0  0  0  0
   -3.1360   -0.7890    2.4380 S   0  0  0  0  0  0  0  0  0  0  0  0
   -4.3930   -0.2310    1.2280 C   0  0  1  0  0  0  0  0  0  0  0  0
   -4.1910    1.1170    0.7590 C   0  0  0  0  0  0  0  0  0  0  0  0
   -5.0790    1.8300   -0.1640 C   0  0  0  0  0  0  0  0  0  0  0  0
   -6.4650    2.1730    0.2560 C   0  0  0  0  0  0  0  0  0  0  0  0
   -6.4780    2.9750    1.4180 O   0  0  0  0  0  0  0  0  0  0  0  0
   -4.4160   -1.3280    0.1310 C   0  0  0  0  0  0  0  0  0  0  0  0
   -5.1630   -2.1480    1.2090 C   0  0  0  0  0  0  0  0  0  0  0  0
   -5.7310   -0.7360    1.6130 C   0  0  0  0  0  0  0  0  0  0  0  0
  1  2  1  0
  2  3  2  0
  2  4  1  0
  4  5  2  0
  4  6  1  0
  6  7  1  0
  7  8  2  0
  7 13  1  0
  8  9  1  0
  9 10  2  0
 10 11  1  0
 10 12  1  0
 12 13  2  0
 13 14  1  0
 14 15  2  0
 14 16  1  0
 16 17  1  0
 17 18  1  0
 17 21  2  0
 18 19  2  0
 19 20  1  0
 20 21  1  0
 21 22  1  0
 22 23  1  0
 23 24  1  0
 24 25  1  6
 24 29  1  0
 24 31  1  0
 25 26  1  0
 26 27  1  0
 27 28  1  0
 29 30  1  0
 30 31  1  0
M  END
