
     RDKit          3D

 31 33  0  0  0  0  0  0  0  0999 V2000
   -7.6700   -1.4250   -1.4200 N   0  0  0  0  0  0  0  0  0  0  0  0
   -7.2820   -0.2530   -1.2470 C   0  0  0  0  0  0  0  0  0  0  0  0
   -8.2410    1.2120   -1.7790 S   0  0  0  0  0  0  0  0  0  0  0  0
   -7.7620    2.1060   -0.2130 C   0  0  0  0  0  0  0  0  0  0  0  0
   -6.3970    1.5520   -0.0850 C   0  0  0  0  0  0  0  0  0  0  0  0
   -6.1610    0.3790   -0.6020 C   0  0  0  0  0  0  0  0  0  0  0  0
   -4.8420   -0.2770   -0.4380 C   0  0  0  0  0  0  0  0  0  0  0  0
   -4.0560    0.1310    0.6500 C   0  0  0  0  0  0  0  0  0  0  0  0
   -2.7910   -0.3580    0.8680 C   0  0  0  0  0  0  0  0  0  0  0  0
   -2.0290    0.1280    2.0460 C   0  0  0  0  0  0  0  0  0  0  0  0
   -0.6270   -0.2530    1.9480 N   0  0  0  0  0  0  0  0  0  0  0  0
    0.2200    0.4570    1.0660 C   0  0  0  0  0  0  0  0  0  0  0  0
   -0.2810    1.4030    0.3960 O   0  0  0  0  0  0  0  0  0  0  0  0
    1.6660    0.0720    0.9540 C   0  0  0  0  0  0  0  0  0  0  0  0
    2.2870    1.0020   -0.0350 C   0  0  0  0  0  0  0  0  0  0  0  0
    3.6980    0.7690   -0.2750 N   0  0  0  0  0  0  0  0  0  0  0  0
    4.6660    0.8590    0.7500 C   0  0  0  0  0  0  0  0  0  0  0  0
    4.1780    1.1840    1.9010 O   0  0  0  0  0  0  0  0  0  0  0  0
    6.0940    0.6330    0.6160 C   0  0  0  0  0  0  0  0  0  0  0  0
    6.9960    1.4070    1.3720 C   0  0  0  0  0  0  0  0  0  0  0  0
    8.2460    1.0400    0.9790 C   0  0  0  0  0  0  0  0  0  0  0  0
    8.1250    0.1020    0.0460 N   0  0  0  0  0  0  0  0  0  0  0  0
    6.8140   -0.1680   -0.1950 C   0  0  0  0  0  0  0  0  0  0  0  0
    6.3550   -1.2000   -1.0970 C   0  0  0  0  0  0  0  0  0  0  0  0
    7.2810   -1.7660   -2.0450 N   0  0  0  0  0  0  0  0  0  0  0  0
    5.2050   -1.6560   -1.1330 O   0  0  0  0  0  0  0  0  0  0  0  0
   -2.2600   -1.2750    0.0070 C   0  0  0  0  0  0  0  0  0  0  0  0
   -3.0080   -1.6790   -1.0520 C   0  0  0  0  0  0  0  0  0  0  0  0
   -2.5210   -2.6130   -1.9650 O   0  0  0  0  0  0  0  0  0  0  0  0
   -4.3200   -1.1900   -1.3050 C   0  0  0  0  0  0  0  0  0  0  0  0
   -4.9530   -1.6500   -2.3850 O   0  0  0  0  0  0  0  0  0  0  0  0
  1  2  2  0
  2  3  1  0
  2  6  1  0
  3  4  1  0
  4  5  1  0
  5  6  2  0
  6  7  1  0
  7  8  2  0
  7 30  1  0
  8  9  1  0
  9 10  1  0
  9 27  2  0
 10 11  1  0
 11 12  1  0
 12 13  2  0
 12 14  1  0
 14 15  1  0
 15 16  1  0
 16 17  1  0
 17 18  2  0
 17 19  1  0
 19 20  1  0
 19 23  2  0
 20 21  2  0
 21 22  1  0
 22 23  1  0
 23 24  1  0
 24 25  1  0
 24 26  2  0
 27 28  1  0
 28 29  1  0
 28 30  2  0
 30 31  1  0
M  END
