
     RDKit          3D

 41 45  0  0  0  0  0  0  0  0999 V2000
    0.5060   -5.7160   -0.8470 C   0  0  0  0  0  0  0  0  0  0  0  0
    0.9320   -5.4900    0.6160 C   0  0  0  0  0  0  0  0  0  0  0  0
    0.7860   -4.0420    0.9730 C   0  0  0  0  0  0  0  0  0  0  0  0
    1.1500   -3.7600    2.3840 C   0  0  1  0  0  0  0  0  0  0  0  0
    2.5360   -4.1080    2.6760 C   0  0  0  0  0  0  0  0  0  0  0  0
    2.9190   -5.3280    2.6200 O   0  0  0  0  0  0  0  0  0  0  0  0
    3.5700   -3.1610    3.0440 N   0  0  0  0  0  0  0  0  0  0  0  0
    3.2960   -1.8270    2.7430 C   0  0  0  0  0  0  0  0  0  0  0  0
    4.0310   -0.8090    2.9810 O   0  0  0  0  0  0  0  0  0  0  0  0
    2.0140   -1.4910    2.0840 C   0  0  0  0  0  0  0  0  0  0  0  0
    1.9670   -0.7210    1.0520 C   0  0  0  0  0  0  0  0  0  0  0  0
    3.0220   -0.1250    0.3590 N   0  0  0  0  0  0  0  0  0  0  0  0
    4.4070   -0.1710    0.3930 C   0  0  0  0  0  0  0  0  0  0  0  0
    5.0190   -0.9110    1.1120 O   0  0  0  0  0  0  0  0  0  0  0  0
    5.2410    0.7480   -0.5090 C   0  0  0  0  0  0  0  0  0  0  0  0
    4.6750    1.5480   -1.2700 O   0  0  0  0  0  0  0  0  0  0  0  0
    4.1010    2.3420   -2.0400 C   0  0  1  0  0  0  0  0  0  0  0  0
    3.1860    3.3620   -1.3250 C   0  0  0  0  0  0  0  0  0  0  0  0
    4.0690    4.4270   -0.7360 C   0  0  0  0  0  0  0  0  0  0  0  0
    5.3930    4.0640   -0.6270 O   0  0  0  0  0  0  0  0  0  0  0  0
    5.9900    3.8950   -1.8870 C   0  0  0  0  0  0  0  0  0  0  0  0
    5.0390    3.2800   -2.8660 C   0  0  0  0  0  0  0  0  0  0  0  0
    0.6080   -0.4420    0.4780 C   0  0  0  0  0  0  0  0  0  0  0  0
   -0.4500   -0.9720    1.0080 C   0  0  0  0  0  0  0  0  0  0  0  0
   -1.7010   -0.6470    0.4170 O   0  0  0  0  0  0  0  0  0  0  0  0
   -2.8390   -1.1820    0.9320 C   0  0  0  0  0  0  0  0  0  0  0  0
   -4.1500   -0.8620    0.3350 C   0  0  0  0  0  0  0  0  0  0  0  0
   -5.1670   -1.3800    0.8160 O   0  0  0  0  0  0  0  0  0  0  0  0
   -4.2780    0.0130   -0.7630 N   0  0  0  0  0  0  0  0  0  0  0  0
   -5.5580    0.2990   -1.3290 C   0  0  2  0  0  0  0  0  0  0  0  0
   -5.5960    0.1730   -2.8260 C   0  0  0  0  0  0  0  0  0  0  0  0
   -6.0870    1.6430   -0.9680 C   0  0  0  0  0  0  0  0  0  0  0  0
   -7.3050    2.0500   -0.6100 C   0  0  0  0  0  0  0  0  0  0  0  0
   -7.5010    3.3520   -0.3180 C   0  0  0  0  0  0  0  0  0  0  0  0
   -6.4590    4.2080   -0.3950 C   0  0  0  0  0  0  0  0  0  0  0  0
   -6.2550    5.6550   -0.1660 C   0  0  0  0  0  0  0  0  0  0  0  0
   -5.1210    3.0380   -0.9250 S   0  0  0  0  0  0  0  0  0  0  0  0
   -2.7970   -1.9910    1.9650 C   0  0  0  0  0  0  0  0  0  0  0  0
   -1.5290   -2.3570    2.6090 C   0  0  0  0  0  0  0  0  0  0  0  0
   -0.4010   -1.8630    2.1430 C   0  0  0  0  0  0  0  0  0  0  0  0
    0.8720   -2.2630    2.6990 C   0  0  1  0  0  0  0  0  0  0  0  0
  1  2  1  0
  2  3  1  0
  4  3  1  6
  4  5  1  0
  4 41  1  0
  5  6  2  0
  5  7  1  0
  7  8  1  0
  8  9  2  0
  8 10  1  0
 10 11  2  0
 10 41  1  0
 11 12  1  0
 11 23  1  0
 12 13  1  0
 13 14  2  0
 13 15  1  0
 15 16  1  0
 17 16  1  1
 17 18  1  0
 17 22  1  0
 18 19  1  0
 19 20  1  0
 20 21  1  0
 21 22  1  0
 23 24  2  0
 24 25  1  0
 24 40  1  0
 25 26  1  0
 26 27  1  0
 26 38  2  0
 27 28  2  0
 27 29  1  0
 29 30  1  0
 30 31  1  6
 30 32  1  0
 32 33  2  0
 32 37  1  0
 33 34  1  0
 34 35  2  0
 35 36  1  0
 35 37  1  0
 38 39  1  0
 39 40  2  0
 41 40  1  6
M  END
