
     RDKit          3D

 42 45  0  0  0  0  0  0  0  0999 V2000
   -6.3870   -5.1930    3.0500 C   0  0  0  0  0  0  0  0  0  0  0  0
   -6.3420   -3.6400    3.0180 C   0  0  0  0  0  0  0  0  0  0  0  0
   -5.6430   -3.1880    2.0240 O   0  0  0  0  0  0  0  0  0  0  0  0
   -5.0260   -2.4470    1.1680 C   0  0  0  0  0  0  0  0  0  0  0  0
   -5.0360   -1.0250    1.2360 C   0  0  0  0  0  0  0  0  0  0  0  0
   -4.3620   -0.2370    0.3300 C   0  0  0  0  0  0  0  0  0  0  0  0
   -4.3090    1.2440    0.4560 C   0  0  0  0  0  0  0  0  0  0  0  0
   -3.3730    1.7350    1.1250 O   0  0  0  0  0  0  0  0  0  0  0  0
   -5.2340    2.1100   -0.1120 N   0  0  0  0  0  0  0  0  0  0  0  0
   -5.2400    3.5560   -0.0640 C   0  0  1  0  0  0  0  0  0  0  0  0
   -6.4650    4.1660   -0.6070 C   0  0  0  0  0  0  0  0  0  0  0  0
   -7.5870    3.8960    0.4030 C   0  0  0  0  0  0  0  0  0  0  0  0
   -6.6810    4.4610    1.9130 S   0  0  0  0  0  0  0  0  0  0  0  0
   -5.0010    4.1350    1.3220 C   0  0  2  0  0  0  0  0  0  0  0  0
   -4.3670    5.5230    1.1250 C   0  0  0  0  0  0  0  0  0  0  0  0
   -3.6690   -0.8590   -0.6610 C   0  0  0  0  0  0  0  0  0  0  0  0
   -2.8970   -0.0640   -1.6900 C   0  0  0  0  0  0  0  0  0  0  0  0
   -1.5600   -0.0060   -1.2470 O   0  0  0  0  0  0  0  0  0  0  0  0
   -0.6930   -0.9450   -0.8440 C   0  0  0  0  0  0  0  0  0  0  0  0
   -1.0100   -2.1720   -0.8350 O   0  0  0  0  0  0  0  0  0  0  0  0
    0.6540   -0.5940   -0.3610 C   0  0  0  0  0  0  0  0  0  0  0  0
    0.8820   -0.5050    1.0230 C   0  0  0  0  0  0  0  0  0  0  0  0
    2.1200   -0.2570    1.1930 O   0  0  0  0  0  0  0  0  0  0  0  0
    2.7940   -0.1670    0.0310 C   0  0  0  0  0  0  0  0  0  0  0  0
    4.2070    0.1030   -0.0330 C   0  0  0  0  0  0  0  0  0  0  0  0
    4.7240    0.4840    1.0780 O   0  0  0  0  0  0  0  0  0  0  0  0
    5.0330   -0.0130   -1.1200 N   0  0  0  0  0  0  0  0  0  0  0  0
    4.5270   -0.4560   -2.4380 C   0  0  0  0  0  0  0  0  0  0  0  0
    5.6900   -0.8800   -3.2880 C   0  0  0  0  0  0  0  0  0  0  0  0
    6.6810   -1.6850   -2.6480 N   0  0  0  0  0  0  0  0  0  0  0  0
    6.9580   -1.2850   -1.2980 C   0  0  0  0  0  0  0  0  0  0  0  0
    6.4830    0.2010   -1.1580 C   0  0  2  0  0  0  0  0  0  0  0  0
    7.0950    0.8310    0.0070 C   0  0  1  0  0  0  0  0  0  0  0  0
    7.0700    0.0540    1.1330 O   0  0  0  0  0  0  0  0  0  0  0  0
    8.4350    1.4630   -0.2450 C   0  0  2  0  0  0  0  0  0  0  0  0
    9.5170    0.5500   -0.6970 C   0  0  0  0  0  0  0  0  0  0  0  0
    8.8610    2.2400    0.9730 C   0  0  0  0  0  0  0  0  0  0  0  0
    1.8510   -0.3800   -0.9430 C   0  0  0  0  0  0  0  0  0  0  0  0
   -3.6350   -2.2550   -0.7790 C   0  0  0  0  0  0  0  0  0  0  0  0
   -4.2940   -3.0350    0.1120 C   0  0  0  0  0  0  0  0  0  0  0  0
   -4.3080   -4.4240    0.0650 O   0  0  0  0  0  0  0  0  0  0  0  0
   -3.6760   -5.2220   -0.8620 C   0  0  0  0  0  0  0  0  0  0  0  0
  1  2  1  0
  2  3  1  0
  3  4  1  0
  4  5  2  0
  4 40  1  0
  5  6  1  0
  6  7  1  0
  6 16  2  0
  7  8  2  0
  7  9  1  0
 10  9  1  1
 10 11  1  0
 10 14  1  0
 11 12  1  0
 12 13  1  0
 13 14  1  0
 14 15  1  6
 16 17  1  0
 16 39  1  0
 17 18  1  0
 18 19  1  0
 19 20  2  0
 19 21  1  0
 21 22  2  0
 21 38  1  0
 22 23  1  0
 23 24  1  0
 24 25  1  0
 24 38  2  0
 25 26  2  0
 25 27  1  0
 27 28  1  0
 27 32  1  0
 28 29  1  0
 29 30  1  0
 30 31  1  0
 32 31  1  1
 32 33  1  0
 33 34  1  1
 33 35  1  0
 35 36  1  1
 35 37  1  0
 39 40  2  0
 40 41  1  0
 41 42  1  0
M  END
