
     RDKit          3D

 42 46  0  0  0  0  0  0  0  0999 V2000
    5.0880   -2.4990    2.4130 C   0  0  0  0  0  0  0  0  0  0  0  0
    4.1630   -1.5420    1.7530 C   0  0  0  0  0  0  0  0  0  0  0  0
    3.2210   -0.8700    2.4690 C   0  0  0  0  0  0  0  0  0  0  0  0
    2.3430    0.0230    1.8900 C   0  0  0  0  0  0  0  0  0  0  0  0
    2.3930    0.2670    0.5470 C   0  0  0  0  0  0  0  0  0  0  0  0
    1.5670    1.1420   -0.1530 N   0  0  0  0  0  0  0  0  0  0  0  0
    0.2790    1.2280   -0.0990 C   0  0  0  0  0  0  0  0  0  0  0  0
   -0.3310    2.1790   -0.8870 N   0  0  0  0  0  0  0  0  0  0  0  0
   -0.6150    3.3880   -0.8210 C   0  0  0  0  0  0  0  0  0  0  0  0
   -1.2910    3.9790   -1.9600 C   0  0  0  0  0  0  0  0  0  0  0  0
   -1.5750    3.1740   -3.0500 C   0  0  0  0  0  0  0  0  0  0  0  0
   -2.2230    3.6810   -4.1730 C   0  0  0  0  0  0  0  0  0  0  0  0
   -2.5900    4.9780   -4.2220 N   0  0  0  0  0  0  0  0  0  0  0  0
   -2.3310    5.7690   -3.1960 C   0  0  0  0  0  0  0  0  0  0  0  0
   -1.6780    5.2800   -2.0490 C   0  0  0  0  0  0  0  0  0  0  0  0
   -0.2910    4.1940    0.3420 C   0  0  0  0  0  0  0  0  0  0  0  0
    0.3390    3.7790    1.4990 C   0  0  0  0  0  0  0  0  0  0  0  0
    0.4260    4.8970    2.3150 C   0  0  0  0  0  0  0  0  0  0  0  0
   -0.1390    5.9300    1.6470 C   0  0  0  0  0  0  0  0  0  0  0  0
   -0.2870    7.5570    2.2300 Cl  0  0  0  0  0  0  0  0  0  0  0  0
   -0.5400    5.4660    0.5030 O   0  0  0  0  0  0  0  0  0  0  0  0
   -0.5350    0.3860    0.6870 N   0  0  0  0  0  0  0  0  0  0  0  0
   -1.4820    0.9420    1.6140 C   0  0  0  0  0  0  0  0  0  0  0  0
   -2.4230   -0.2180    1.9720 C   0  0  0  0  0  0  0  0  0  0  0  0
   -2.9130   -0.7710    0.6670 C   0  0  2  0  0  0  0  0  0  0  0  0
   -4.1340   -1.5730    0.8470 N   0  0  1  0  0  0  0  0  0  0  0  0
   -5.2430   -0.7160    1.0790 C   0  0  0  0  0  0  0  0  0  0  0  0
   -6.0260   -0.2990   -0.1160 C   0  0  0  0  0  0  0  0  0  0  0  0
   -6.5250   -1.5920   -0.7770 C   0  0  0  0  0  0  0  0  0  0  0  0
   -5.2500   -2.2630   -1.2520 C   0  0  0  0  0  0  0  0  0  0  0  0
   -4.3140   -2.5850   -0.1250 C   0  0  0  0  0  0  0  0  0  0  0  0
   -1.7700   -1.6580    0.1500 C   0  0  0  0  0  0  0  0  0  0  0  0
   -0.4280   -1.0430    0.5460 C   0  0  0  0  0  0  0  0  0  0  0  0
    3.3710   -0.4320   -0.1870 C   0  0  0  0  0  0  0  0  0  0  0  0
    4.2390   -1.3130    0.3730 C   0  0  0  0  0  0  0  0  0  0  0  0
    5.2370   -2.0290   -0.3200 N   0  0  0  0  0  0  0  0  0  0  0  0
    5.4900   -1.9650   -1.6950 C   0  0  0  0  0  0  0  0  0  0  0  0
    4.8240   -1.2400   -2.4580 O   0  0  0  0  0  0  0  0  0  0  0  0
    6.5690   -2.7530   -2.3640 C   0  0  0  0  0  0  0  0  0  0  0  0
    7.3280   -3.5750   -1.4780 N   0  0  0  0  0  0  0  0  0  0  0  0
    6.3290   -4.9310   -0.9910 S   0  0  0  0  0  0  0  0  0  0  0  0
    6.6300   -5.3330    0.4660 O   0  0  0  0  0  0  0  0  0  0  0  0
  1  2  1  0
  2  3  2  0
  2 35  1  0
  3  4  1  0
  4  5  2  0
  5  6  1  0
  5 34  1  0
  6  7  2  3
  7  8  1  0
  7 22  1  0
  8  9  2  3
  9 10  1  0
  9 16  1  0
 10 11  2  0
 10 15  1  0
 11 12  1  0
 12 13  2  0
 13 14  1  0
 14 15  2  0
 16 17  2  0
 16 21  1  0
 17 18  1  0
 18 19  2  0
 19 20  1  0
 19 21  1  0
 22 23  1  0
 22 33  1  0
 23 24  1  0
 25 24  1  1
 25 26  1  0
 25 32  1  0
 26 27  1  6
 26 31  1  0
 27 28  1  0
 28 29  1  0
 29 30  1  0
 30 31  1  0
 32 33  1  0
 34 35  2  0
 35 36  1  0
 36 37  1  0
 37 38  2  0
 37 39  1  0
 39 40  1  0
 40 41  1  0
 41 42  2  0
M  CHG  2  26   1  40   1
M  END
