
     RDKit          3D

 42 45  0  0  0  0  0  0  0  0999 V2000
    8.4510    0.0460    0.6180 C   0  0  0  0  0  0  0  0  0  0  0  0
    7.5400   -1.1500    0.4870 C   0  0  1  0  0  0  0  0  0  0  0  0
    8.1990   -2.3410    1.1860 C   0  0  0  0  0  0  0  0  0  0  0  0
    6.3120   -0.9430    1.1380 O   0  0  0  0  0  0  0  0  0  0  0  0
    5.1050   -1.0780    0.4260 C   0  0  0  0  0  0  0  0  0  0  0  0
    3.9260   -0.8680    1.0840 C   0  0  0  0  0  0  0  0  0  0  0  0
    2.7310   -0.9910    0.4190 C   0  0  0  0  0  0  0  0  0  0  0  0
    1.4490   -0.7710    1.0940 C   0  0  0  0  0  0  0  0  0  0  0  0
    1.3490   -0.4560    2.2920 O   0  0  0  0  0  0  0  0  0  0  0  0
    0.2520   -0.9190    0.3660 O   0  0  0  0  0  0  0  0  0  0  0  0
   -0.9970   -0.7290    0.9290 C   0  0  1  0  0  0  0  0  0  0  0  0
   -1.8830    0.3170    0.3660 C   0  0  0  0  0  0  0  0  0  0  0  0
   -1.3700    1.6690    0.4150 N   0  0  0  0  0  0  0  0  0  0  0  0
   -0.2210    2.1380   -0.2540 C   0  0  0  0  0  0  0  0  0  0  0  0
    0.4390    1.3580   -0.9710 O   0  0  0  0  0  0  0  0  0  0  0  0
    0.2480    3.5610   -0.1350 C   0  0  1  0  0  0  0  0  0  0  0  0
    1.5070    3.7700   -0.9160 C   0  0  0  0  0  0  0  0  0  0  0  0
    1.5840    5.1770   -1.3850 C   0  0  1  0  0  0  0  0  0  0  0  0
    1.7860    6.1900   -0.3100 C   0  0  0  0  0  0  0  0  0  0  0  0
    2.7240    5.2750   -2.3770 C   0  0  0  0  0  0  0  0  0  0  0  0
    0.3080    5.4890   -2.1370 C   0  0  0  0  0  0  0  0  0  0  0  0
   -0.9120    4.6610   -1.0410 S   0  0  0  0  0  0  0  0  0  0  0  0
   -1.6950   -2.0650    1.2070 C   0  0  0  0  0  0  0  0  0  0  0  0
   -3.0100   -1.8970    1.7780 N   0  0  0  0  0  0  0  0  0  0  0  0
   -3.0750   -1.7240    3.2360 C   0  0  0  0  0  0  0  0  0  0  0  0
   -3.2050   -3.0530    3.9440 C   0  0  0  0  0  0  0  0  0  0  0  0
   -2.0890   -3.8580    3.6380 O   0  0  0  0  0  0  0  0  0  0  0  0
   -4.2090   -1.8940    1.0160 C   0  0  0  0  0  0  0  0  0  0  0  0
   -5.2730   -1.6570    1.6530 O   0  0  0  0  0  0  0  0  0  0  0  0
   -4.2070   -2.1610   -0.4170 C   0  0  1  0  0  0  0  0  0  0  0  0
   -4.2940   -3.6620   -0.6920 C   0  0  0  0  0  0  0  0  0  0  0  0
   -3.8990   -3.8390   -2.1390 C   0  0  0  0  0  0  0  0  0  0  0  0
   -4.5920   -2.9460   -2.9770 O   0  0  0  0  0  0  0  0  0  0  0  0
   -5.3950   -1.9040   -2.4730 C   0  0  0  0  0  0  0  0  0  0  0  0
   -5.2360   -1.4930   -1.2300 C   0  0  0  0  0  0  0  0  0  0  0  0
   -6.0360   -0.3970   -0.6960 C   0  0  0  0  0  0  0  0  0  0  0  0
   -6.9300    0.1790   -1.4830 C   0  0  0  0  0  0  0  0  0  0  0  0
   -7.0870   -0.2550   -2.7660 O   0  0  0  0  0  0  0  0  0  0  0  0
   -6.4130   -1.2880   -3.3600 C   0  0  0  0  0  0  0  0  0  0  0  0
    2.7530   -1.3290   -0.9130 C   0  0  0  0  0  0  0  0  0  0  0  0
    3.9650   -1.5330   -1.5420 C   0  0  0  0  0  0  0  0  0  0  0  0
    5.1170   -1.4050   -0.8670 N   0  0  0  0  0  0  0  0  0  0  0  0
  2  1  1  1
  2  3  1  0
  2  4  1  0
  4  5  1  0
  5  6  2  0
  5 42  1  0
  6  7  1  0
  7  8  1  0
  7 40  2  0
  8  9  2  0
  8 10  1  0
 10 11  1  0
 11 12  1  6
 11 23  1  0
 12 13  1  0
 13 14  1  0
 14 15  2  0
 16 14  1  6
 16 17  1  0
 16 22  1  0
 17 18  1  0
 18 19  1  1
 18 20  1  0
 18 21  1  0
 21 22  1  0
 23 24  1  0
 24 25  1  0
 24 28  1  0
 25 26  1  0
 26 27  1  0
 28 29  2  0
 30 28  1  1
 30 31  1  0
 30 35  1  0
 31 32  1  0
 32 33  1  0
 33 34  1  0
 34 35  2  0
 34 39  1  0
 35 36  1  0
 36 37  2  0
 37 38  1  0
 38 39  1  0
 40 41  1  0
 41 42  2  0
M  END
