
     RDKit          3D

 42 46  0  0  0  0  0  0  0  0999 V2000
   10.6180    0.8070   -1.5550 C   0  0  0  0  0  0  0  0  0  0  0  0
    9.7610   -0.3850   -1.2100 C   0  0  1  0  0  0  0  0  0  0  0  0
   10.4640   -1.2220   -0.1490 C   0  0  0  0  0  0  0  0  0  0  0  0
    8.5360    0.0740   -0.6840 O   0  0  0  0  0  0  0  0  0  0  0  0
    7.3100   -0.2950   -1.2430 C   0  0  0  0  0  0  0  0  0  0  0  0
    6.1570    0.1950   -0.6680 C   0  0  0  0  0  0  0  0  0  0  0  0
    4.9470   -0.1620   -1.2100 C   0  0  0  0  0  0  0  0  0  0  0  0
    4.8460   -0.9910   -2.3050 C   0  0  0  0  0  0  0  0  0  0  0  0
    3.5400   -1.3730   -2.8740 C   0  0  0  0  0  0  0  0  0  0  0  0
    2.4730   -1.0460   -2.0020 O   0  0  0  0  0  0  0  0  0  0  0  0
    2.3560   -1.5690   -0.7300 C   0  0  0  0  0  0  0  0  0  0  0  0
    3.2310   -2.3730   -0.3260 O   0  0  0  0  0  0  0  0  0  0  0  0
    1.2530   -1.2200    0.1630 C   0  0  0  0  0  0  0  0  0  0  0  0
    0.2320   -0.3440   -0.1710 C   0  0  0  0  0  0  0  0  0  0  0  0
   -0.5850   -0.2960    0.9330 C   0  0  0  0  0  0  0  0  0  0  0  0
   -0.0540   -1.1300    1.8970 C   0  0  0  0  0  0  0  0  0  0  0  0
    1.0270   -1.6420    1.3790 O   0  0  0  0  0  0  0  0  0  0  0  0
   -0.7130   -1.2880    3.2000 C   0  0  0  0  0  0  0  0  0  0  0  0
   -1.8770   -0.3840    3.3990 C   0  0  0  0  0  0  0  0  0  0  0  0
   -2.7310   -0.2700    2.1070 C   0  0  2  0  0  0  0  0  0  0  0  0
   -3.1690   -1.6230    1.6880 C   0  0  1  0  0  0  0  0  0  0  0  0
   -3.9090   -2.1260    2.8200 O   0  0  0  0  0  0  0  0  0  0  0  0
   -4.1350   -1.7440    0.5660 C   0  0  1  0  0  0  0  0  0  0  0  0
   -3.7190   -1.2170   -0.7480 C   0  0  0  0  0  0  0  0  0  0  0  0
   -4.3910   -1.9240   -1.9070 C   0  0  0  0  0  0  0  0  0  0  0  0
   -5.6930   -2.5930   -1.5220 C   0  0  0  0  0  0  0  0  0  0  0  0
   -5.4610   -3.5780   -0.4670 N   0  0  0  0  0  0  0  0  0  0  0  0
   -6.1560   -4.8220   -0.3980 C   0  0  0  0  0  0  0  0  0  0  0  0
   -4.4870   -3.2140    0.4920 C   0  0  0  0  0  0  0  0  0  0  0  0
   -3.9770   -4.0850    1.2100 O   0  0  0  0  0  0  0  0  0  0  0  0
   -1.8340    0.4770    1.1630 C   0  0  1  0  0  0  0  0  0  0  0  0
   -1.3890    1.6680    1.9240 N   0  0  0  0  0  0  0  0  0  0  0  0
   -1.7100    3.1030    1.0200 S   0  0  2  0  0  0  0  0  0  0  0  0
   -1.0170    3.0380   -0.2960 O   0  0  0  0  0  0  0  0  0  0  0  0
   -1.3110    4.2760    1.8490 O   0  0  0  0  0  0  0  0  0  0  0  0
   -3.4860    3.1860    0.7850 C   0  0  0  0  0  0  0  0  0  0  0  0
   -3.7590    4.4450   -0.0070 C   0  0  2  0  0  0  0  0  0  0  0  0
   -3.3100    5.7140    0.6580 C   0  0  0  0  0  0  0  0  0  0  0  0
   -4.5970    6.3610    0.1830 C   0  0  0  0  0  0  0  0  0  0  0  0
   -5.1700    4.9480    0.0450 C   0  0  0  0  0  0  0  0  0  0  0  0
    6.0150   -1.4610   -2.8520 C   0  0  0  0  0  0  0  0  0  0  0  0
    7.2070   -1.1040   -2.3110 N   0  0  0  0  0  0  0  0  0  0  0  0
  2  1  1  1
  2  3  1  0
  2  4  1  0
  4  5  1  0
  5  6  2  0
  5 42  1  0
  6  7  1  0
  7  8  2  0
  8  9  1  0
  8 41  1  0
  9 10  1  0
 10 11  1  0
 11 12  2  0
 11 13  1  0
 13 14  2  0
 13 17  1  0
 14 15  1  0
 15 16  2  0
 15 31  1  0
 16 17  1  0
 16 18  1  0
 18 19  1  0
 20 19  1  1
 20 21  1  0
 20 31  1  0
 21 22  1  1
 21 23  1  0
 23 24  1  6
 23 29  1  0
 24 25  1  0
 25 26  1  0
 26 27  1  0
 27 28  1  0
 27 29  1  0
 29 30  2  0
 31 32  1  1
 32 33  1  0
 33 34  2  0
 33 35  2  0
 33 36  1  6
 37 36  1  1
 37 38  1  0
 37 40  1  0
 38 39  1  0
 39 40  1  0
 41 42  2  0
M  END
