
     RDKit          3D

 42 45  0  0  0  0  0  0  0  0999 V2000
   -1.3470    2.0760    1.4350 C   0  0  0  0  0  0  0  0  0  0  0  0
   -1.5720    0.9910    2.4640 C   0  0  0  0  0  0  0  0  0  0  0  0
   -1.7050   -0.3840    1.8220 C   0  0  1  0  0  0  0  0  0  0  0  0
   -3.1140   -0.3780    0.6800 S   0  0  0  0  0  0  0  0  0  0  0  0
   -4.6660   -0.2980    1.5520 C   0  0  0  0  0  0  0  0  0  0  0  0
   -4.7890   -0.4040    2.9030 C   0  0  0  0  0  0  0  0  0  0  0  0
   -6.0130   -0.3240    3.5420 C   0  0  0  0  0  0  0  0  0  0  0  0
   -7.1680   -0.1300    2.8100 C   0  0  0  0  0  0  0  0  0  0  0  0
   -7.0500   -0.0230    1.4450 C   0  0  0  0  0  0  0  0  0  0  0  0
   -5.8430   -0.0970    0.7810 C   0  0  0  0  0  0  0  0  0  0  0  0
   -5.6720    0.0010   -0.5330 O   0  0  0  0  0  0  0  0  0  0  0  0
   -6.3440    0.1940   -1.6720 C   0  0  0  0  0  0  0  0  0  0  0  0
   -7.0680    1.4880   -1.8990 C   0  0  0  0  0  0  0  0  0  0  0  0
   -8.0490    1.8220   -1.0160 O   0  0  0  0  0  0  0  0  0  0  0  0
   -8.3280   -0.0800    3.7540 C   0  0  0  0  0  0  0  0  0  0  0  0
   -7.7420   -0.7060    5.0000 C   0  0  0  0  0  0  0  0  0  0  0  0
   -6.3500   -0.4050    4.8840 O   0  0  0  0  0  0  0  0  0  0  0  0
   -0.4510   -0.8310    1.1670 C   0  0  0  0  0  0  0  0  0  0  0  0
    0.5460   -1.2060    1.8800 O   0  0  0  0  0  0  0  0  0  0  0  0
   -0.2390   -0.8820   -0.1740 O   0  0  0  0  0  0  0  0  0  0  0  0
    1.0090   -1.3090   -0.7920 C   0  0  2  0  0  0  0  0  0  0  0  0
    1.5740   -0.2250   -1.6090 C   0  0  2  0  0  0  0  0  0  0  0  0
    2.8520   -0.4960   -2.2860 C   0  0  0  0  0  0  0  0  0  0  0  0
    3.5730    0.8680   -2.2530 C   0  0  0  0  0  0  0  0  0  0  0  0
    3.2740    1.2670   -0.9090 N   0  0  0  0  0  0  0  0  0  0  0  0
    4.1550    1.8700    0.0060 C   0  0  0  0  0  0  0  0  0  0  0  0
    3.7300    2.1630    1.1540 O   0  0  0  0  0  0  0  0  0  0  0  0
    5.5110    2.1770   -0.2850 N   0  0  0  0  0  0  0  0  0  0  0  0
    6.3150    2.7770    0.7140 C   0  0  0  0  0  0  0  0  0  0  0  0
    5.8540    3.0510    1.8600 O   0  0  0  0  0  0  0  0  0  0  0  0
    7.6890    3.1010    0.4780 N   0  0  0  0  0  0  0  0  0  0  0  0
    8.2510    2.8010   -0.8390 C   0  0  0  0  0  0  0  0  0  0  0  0
    8.5130    3.7070    1.4990 C   0  0  0  0  0  0  0  0  0  0  0  0
    9.2050    2.6390    2.3460 C   0  0  0  0  0  0  0  0  0  0  0  0
    1.8960    0.9260   -0.6670 C   0  0  0  0  0  0  0  0  0  0  0  0
    0.8030   -2.6690   -1.3640 C   0  0  2  0  0  0  0  0  0  0  0  0
    2.0050   -3.2820   -2.0220 C   0  0  0  0  0  0  0  0  0  0  0  0
    1.6040   -4.7630   -2.2560 C   0  0  0  0  0  0  0  0  0  0  0  0
    0.7760   -4.7400   -3.5180 C   0  0  0  0  0  0  0  0  0  0  0  0
    0.0850   -3.4090   -3.6510 C   0  0  0  0  0  0  0  0  0  0  0  0
   -0.3450   -2.8660   -2.2770 C   0  0  2  0  0  0  0  0  0  0  0  0
   -1.1280   -1.7720   -2.5160 O   0  0  0  0  0  0  0  0  0  0  0  0
  1  2  1  0
  3  2  1  6
  3  4  1  0
  3 18  1  0
  4  5  1  0
  5  6  2  0
  5 10  1  0
  6  7  1  0
  7  8  2  0
  7 17  1  0
  8  9  1  0
  8 15  1  0
  9 10  2  0
 10 11  1  0
 11 12  1  0
 12 13  1  0
 13 14  1  0
 15 16  1  0
 16 17  1  0
 18 19  2  0
 18 20  1  0
 21 20  1  6
 21 22  1  0
 21 36  1  0
 22 23  1  1
 22 35  1  0
 23 24  1  0
 24 25  1  0
 25 26  1  0
 25 35  1  0
 26 27  2  0
 26 28  1  0
 28 29  1  0
 29 30  2  0
 29 31  1  0
 31 32  1  0
 31 33  1  0
 33 34  1  0
 36 37  1  6
 36 41  1  0
 37 38  1  0
 38 39  1  0
 39 40  1  0
 40 41  1  0
 41 42  1  6
M  END
