
     RDKit          3D

 42 46  0  0  0  0  0  0  0  0999 V2000
   -6.2050   -6.9230    0.3860 N   0  0  0  0  0  0  0  0  0  0  0  0
   -5.3210   -6.4260    1.0270 C   0  0  0  0  0  0  0  0  0  0  0  0
   -4.2620   -5.8200    1.8270 C   0  0  2  0  0  0  0  0  0  0  0  0
   -4.7230   -4.4970    2.3610 C   0  0  0  0  0  0  0  0  0  0  0  0
   -5.1280   -3.5080    1.3220 C   0  0  0  0  0  0  0  0  0  0  0  0
   -4.0600   -2.9440    0.5880 O   0  0  0  0  0  0  0  0  0  0  0  0
   -3.0790   -3.6600   -0.0850 C   0  0  0  0  0  0  0  0  0  0  0  0
   -2.4860   -2.9510   -1.1280 C   0  0  0  0  0  0  0  0  0  0  0  0
   -1.4980   -3.4740   -1.9120 C   0  0  0  0  0  0  0  0  0  0  0  0
   -0.8690   -2.7500   -3.0270 C   0  0  0  0  0  0  0  0  0  0  0  0
   -0.1530   -1.5560   -2.6440 N   0  0  0  0  0  0  0  0  0  0  0  0
    1.2540   -1.6870   -2.1910 C   0  0  0  0  0  0  0  0  0  0  0  0
    1.2130   -1.7660   -0.7450 C   0  0  0  0  0  0  0  0  0  0  0  0
    1.7910   -1.0670    0.1470 C   0  0  0  0  0  0  0  0  0  0  0  0
    2.6900    0.0390    0.0180 C   0  0  0  0  0  0  0  0  0  0  0  0
    3.2920    0.6530   -1.0250 C   0  0  0  0  0  0  0  0  0  0  0  0
    4.0830    1.7080   -0.5340 C   0  0  0  0  0  0  0  0  0  0  0  0
    3.9190    1.6800    0.8100 C   0  0  0  0  0  0  0  0  0  0  0  0
    4.5930    2.6390    1.7410 C   0  0  1  0  0  0  0  0  0  0  0  0
    6.0960    2.5500    1.7910 C   0  0  0  0  0  0  0  0  0  0  0  0
    5.3960    3.7290    1.1240 C   0  0  2  0  0  0  0  0  0  0  0  0
    5.3910    5.0500    1.8820 C   0  0  0  0  0  0  0  0  0  0  0  0
    4.0920    5.5260    1.9760 O   0  0  0  0  0  0  0  0  0  0  0  0
    3.1160    0.7160    1.0990 O   0  0  0  0  0  0  0  0  0  0  0  0
   -0.7080   -0.2650   -2.7050 C   0  0  0  0  0  0  0  0  0  0  0  0
   -1.9030   -0.2110   -3.1820 O   0  0  0  0  0  0  0  0  0  0  0  0
   -0.0630    0.9800   -2.2840 C   0  0  0  0  0  0  0  0  0  0  0  0
   -0.8930    2.1800   -2.7160 C   0  0  0  0  0  0  0  0  0  0  0  0
   -0.3020    3.4760   -2.2830 C   0  0  0  0  0  0  0  0  0  0  0  0
   -0.2020    3.5860   -0.8600 N   0  0  0  0  0  0  0  0  0  0  0  0
   -1.3670    3.5450   -0.0590 C   0  0  0  0  0  0  0  0  0  0  0  0
   -2.4890    3.4150   -0.5930 O   0  0  0  0  0  0  0  0  0  0  0  0
   -1.2360    3.6590    1.4100 C   0  0  2  0  0  0  0  0  0  0  0  0
   -0.5280    2.4030    1.9320 C   0  0  0  0  0  0  0  0  0  0  0  0
   -1.1460    2.4350    3.6670 S   0  0  0  0  0  0  0  0  0  0  0  0
   -2.4410    3.6810    3.3740 C   0  0  0  0  0  0  0  0  0  0  0  0
   -3.0550    4.3770    4.1920 O   0  0  0  0  0  0  0  0  0  0  0  0
   -2.5370    3.6220    1.9680 O   0  0  0  0  0  0  0  0  0  0  0  0
   -1.0650   -4.7760   -1.6550 C   0  0  0  0  0  0  0  0  0  0  0  0
   -1.6080   -5.5270   -0.6440 C   0  0  0  0  0  0  0  0  0  0  0  0
   -2.6030   -4.9500    0.1170 C   0  0  0  0  0  0  0  0  0  0  0  0
   -3.0840   -5.7950    1.1120 O   0  0  0  0  0  0  0  0  0  0  0  0
  1  2  3  0
  3  2  1  6
  3  4  1  0
  3 42  1  0
  4  5  1  0
  5  6  1  0
  6  7  1  0
  7  8  2  0
  7 41  1  0
  8  9  1  0
  9 10  1  0
  9 39  2  0
 10 11  1  0
 11 12  1  0
 11 25  1  0
 12 13  1  0
 13 14  2  3
 14 15  1  0
 15 16  2  0
 15 24  1  0
 16 17  1  0
 17 18  2  0
 19 18  1  6
 18 24  1  0
 19 20  1  0
 19 21  1  0
 20 21  1  0
 21 22  1  1
 22 23  1  0
 25 26  2  0
 25 27  1  0
 27 28  1  0
 28 29  1  0
 29 30  1  0
 30 31  1  0
 31 32  2  0
 33 31  1  6
 33 34  1  0
 33 38  1  0
 34 35  1  0
 35 36  1  0
 36 37  2  0
 36 38  1  0
 39 40  1  0
 40 41  2  0
 41 42  1  0
M  END
