
     RDKit          3D

 41 45  0  0  0  0  0  0  0  0999 V2000
   -0.0230   -1.6220    2.8940 C   0  0  0  0  0  0  0  0  0  0  0  0
    0.9870   -1.1440    1.9390 C   0  0  0  0  0  0  0  0  0  0  0  0
    2.3350   -1.3150    2.2540 C   0  0  0  0  0  0  0  0  0  0  0  0
    3.3170   -0.8800    1.3910 C   0  0  0  0  0  0  0  0  0  0  0  0
    4.7210   -1.0620    1.7260 C   0  0  0  0  0  0  0  0  0  0  0  0
    5.0380   -1.6280    2.8090 O   0  0  0  0  0  0  0  0  0  0  0  0
    5.7570   -0.6450    0.9180 O   0  0  0  0  0  0  0  0  0  0  0  0
    7.1230   -0.8570    1.3130 C   0  0  2  0  0  0  0  0  0  0  0  0
    7.8440    0.4380    1.4780 C   0  0  0  0  0  0  0  0  0  0  0  0
    9.2680    0.4270    0.9650 C   0  0  0  0  0  0  0  0  0  0  0  0
    9.2000    0.0080   -0.4510 C   0  0  0  0  0  0  0  0  0  0  0  0
    9.8700    0.7030   -1.4240 C   0  0  0  0  0  0  0  0  0  0  0  0
    9.7620    0.2580   -2.7470 C   0  0  0  0  0  0  0  0  0  0  0  0
    9.0060   -0.8480   -3.0800 C   0  0  0  0  0  0  0  0  0  0  0  0
    8.3430   -1.5320   -2.0990 C   0  0  0  0  0  0  0  0  0  0  0  0
    8.4440   -1.0960   -0.7730 C   0  0  0  0  0  0  0  0  0  0  0  0
    7.7460   -1.8060    0.3240 C   0  0  0  0  0  0  0  0  0  0  0  0
    2.9510   -0.2720    0.2050 C   0  0  0  0  0  0  0  0  0  0  0  0
    3.8750    0.1180   -0.5690 O   0  0  0  0  0  0  0  0  0  0  0  0
    1.6520   -0.1160   -0.0810 N   0  0  0  0  0  0  0  0  0  0  0  0
    0.6730   -0.5350    0.7520 C   0  0  0  0  0  0  0  0  0  0  0  0
   -0.7730   -0.3440    0.3910 C   0  0  0  0  0  0  0  0  0  0  0  0
   -1.3450    0.7990    1.1950 C   0  0  0  0  0  0  0  0  0  0  0  0
   -2.7360    0.9890    0.8620 N   0  0  0  0  0  0  0  0  0  0  0  0
   -3.1740    1.3080   -0.4330 C   0  0  0  0  0  0  0  0  0  0  0  0
   -2.3330    1.4390   -1.3530 O   0  0  0  0  0  0  0  0  0  0  0  0
   -4.6570    1.5000   -0.7560 C   0  0  2  0  0  0  0  0  0  0  0  0
   -4.7090    2.9420   -1.2660 C   0  0  0  0  0  0  0  0  0  0  0  0
   -5.3330    1.3140    0.3840 O   0  0  0  0  0  0  0  0  0  0  0  0
   -6.6810    1.4250    0.4430 C   0  0  1  0  0  0  0  0  0  0  0  0
   -7.4440    0.4090    1.1940 C   0  0  0  0  0  0  0  0  0  0  0  0
   -7.1420    0.5480    2.6730 C   0  0  0  0  0  0  0  0  0  0  0  0
   -7.1770    2.3390    2.8420 S   0  0  0  0  0  0  0  0  0  0  0  0
   -8.5980    2.7130    3.2910 O   0  0  0  0  0  0  0  0  0  0  0  0
   -7.0530    2.7850    1.1030 C   0  0  0  0  0  0  0  0  0  0  0  0
   -4.8950    0.6490   -1.9200 C   0  0  0  0  0  0  0  0  0  0  0  0
   -4.1980    0.9390   -2.9660 O   0  0  0  0  0  0  0  0  0  0  0  0
   -5.7800   -0.4390   -2.0460 N   0  0  0  0  0  0  0  0  0  0  0  0
   -5.8980   -1.1960   -3.2990 C   0  0  1  0  0  0  0  0  0  0  0  0
   -6.2340   -2.6480   -3.1240 C   0  0  0  0  0  0  0  0  0  0  0  0
   -7.2900   -1.7380   -3.6320 C   0  0  0  0  0  0  0  0  0  0  0  0
  1  2  1  0
  2  3  1  0
  2 21  2  0
  3  4  2  0
  4  5  1  0
  4 18  1  0
  5  6  2  0
  5  7  1  0
  8  7  1  6
  8  9  1  0
  8 17  1  0
  9 10  1  0
 10 11  1  0
 11 12  2  0
 11 16  1  0
 12 13  1  0
 13 14  2  0
 14 15  1  0
 15 16  2  0
 16 17  1  0
 18 19  2  0
 18 20  1  0
 20 21  1  0
 21 22  1  0
 22 23  1  0
 23 24  1  0
 24 25  1  0
 25 26  2  0
 25 27  1  0
 27 28  1  6
 27 29  1  0
 27 36  1  0
 30 29  1  1
 30 31  1  0
 30 35  1  0
 31 32  1  0
 33 32  1  6
 33 34  2  0
 33 35  1  0
 36 37  2  0
 36 38  1  0
 39 38  1  1
 39 40  1  0
 39 41  1  0
 40 41  1  0
M  END
