
     RDKit          3D

 12 12  0  0  0  0  0  0  0  0999 V2000
    2.3180    0.4670    1.5740 O   0  0  0  0  0  0  0  0  0  0  0  0
    2.6180    0.5360    0.2150 C   0  0  1  0  0  0  0  0  0  0  0  0
    3.8140   -0.1350   -0.0130 O   0  0  0  0  0  0  0  0  0  0  0  0
    1.5400   -0.1920   -0.6020 C   0  0  0  0  0  0  0  0  0  0  0  0
    0.3480    0.4650   -0.3210 O   0  0  0  0  0  0  0  0  0  0  0  0
   -0.7360   -0.0910   -1.0000 C   0  0  2  0  0  0  0  0  0  0  0  0
   -0.5880   -0.0500   -2.3670 O   0  0  0  0  0  0  0  0  0  0  0  0
   -1.8860    0.7220   -0.5560 N   0  0  0  0  0  0  0  0  0  0  0  0
   -1.9310    0.1880    0.8180 C   0  0  1  0  0  0  0  0  0  0  0  0
   -3.0190    0.6130    1.5150 O   0  0  0  0  0  0  0  0  0  0  0  0
   -1.8850   -1.2730    0.5160 C   0  0  0  0  0  0  0  0  0  0  0  0
   -0.9860   -1.3620   -0.5430 O   0  0  0  0  0  0  0  0  0  0  0  0
  2  1  1  1
  2  3  1  0
  2  4  1  0
  4  5  1  0
  5  6  1  0
  6  7  1  6
  6  8  1  0
  6 12  1  0
  8  9  1  0
  9 10  1  6
  9 11  1  0
 11 12  1  0
M  END
