
     RDKit          3D

 13 12  0  0  0  0  0  0  0  0999 V2000
   -4.2980   -0.0370   -0.0590 N   0  0  0  0  0  0  0  0  0  0  0  0
   -3.1070   -0.1650    0.6920 C   0  0  0  0  0  0  0  0  0  0  0  0
   -3.1740   -0.5810    1.8670 O   0  0  0  0  0  0  0  0  0  0  0  0
   -1.7950    0.1840    0.1090 C   0  0  0  0  0  0  0  0  0  0  0  0
   -0.7760   -0.0230    1.0300 O   0  0  0  0  0  0  0  0  0  0  0  0
    0.4250    0.3110    0.4550 C   0  0  1  0  0  0  0  0  0  0  0  0
    0.9130    1.4360    1.1470 O   0  0  0  0  0  0  0  0  0  0  0  0
    1.4320   -0.8240    0.5070 C   0  0  1  0  0  0  0  0  0  0  0  0
    0.9170   -1.9170   -0.1720 O   0  0  0  0  0  0  0  0  0  0  0  0
    2.6540   -0.3360   -0.1960 C   0  0  0  0  0  0  0  0  0  0  0  0
    3.0530   -0.9080   -1.2290 O   0  0  0  0  0  0  0  0  0  0  0  0
    3.3810    0.7490    0.2590 O   0  0  0  0  0  0  0  0  0  0  0  0
    4.4800    1.1600   -0.4040 O   0  0  0  0  0  0  0  0  0  0  0  0
  1  2  1  0
  2  3  2  0
  2  4  1  0
  4  5  1  0
  5  6  1  0
  6  7  1  1
  6  8  1  0
  8  9  1  6
  8 10  1  0
 10 11  2  0
 10 12  1  0
 12 13  1  0
M  END
