
     RDKit          3D

 13 12  0  0  0  0  0  0  0  0999 V2000
   -2.1400   -1.5090   -1.0190 O   0  0  0  0  0  0  0  0  0  0  0  0
   -1.6760   -0.8620   -0.0510 C   0  0  0  0  0  0  0  0  0  0  0  0
   -2.0580   -1.2780    1.2180 O   0  0  0  0  0  0  0  0  0  0  0  0
   -0.7800    0.2650   -0.3130 C   0  0  2  0  0  0  0  0  0  0  0  0
   -1.6180    1.5250    0.0700 C   0  0  0  0  0  0  0  0  0  0  0  0
   -1.8990    1.4900    1.4350 O   0  0  0  0  0  0  0  0  0  0  0  0
   -0.5660    0.4210   -1.7080 N   0  0  0  0  0  0  0  0  0  0  0  0
   -0.0240   -0.5620   -2.3890 O   0  0  0  0  0  0  0  0  0  0  0  0
    0.2880    0.3690    0.5190 O   0  0  0  0  0  0  0  0  0  0  0  0
    1.1970   -0.6180    0.6100 C   0  0  2  0  0  0  0  0  0  0  0  0
    1.3130   -1.1380    1.9280 O   0  0  0  0  0  0  0  0  0  0  0  0
    2.5660   -0.0480    0.2980 C   0  0  0  0  0  0  0  0  0  0  0  0
    2.5170    0.4670   -0.9940 O   0  0  0  0  0  0  0  0  0  0  0  0
  1  2  2  0
  2  3  1  0
  2  4  1  0
  4  5  1  1
  4  7  1  0
  4  9  1  0
  5  6  1  0
  7  8  1  0
  9 10  1  0
 10 11  1  1
 10 12  1  0
 12 13  1  0
M  END
