
     RDKit          3D

 12 11  0  0  0  0  0  0  0  0999 V2000
   -2.8250    0.8700    0.9470 N   0  0  0  0  0  0  0  0  0  0  0  0
   -1.9630    0.6040   -0.1910 C   0  0  2  0  0  0  0  0  0  0  0  0
   -2.7830    0.3490   -1.2760 O   0  0  0  0  0  0  0  0  0  0  0  0
   -1.0420   -0.5460    0.0940 C   0  0  2  0  0  0  0  0  0  0  0  0
   -1.7380   -1.7210    0.3720 O   0  0  0  0  0  0  0  0  0  0  0  0
   -0.1340   -0.1970    1.2520 C   0  0  0  0  0  0  0  0  0  0  0  0
    0.5840    0.9550    1.0460 O   0  0  0  0  0  0  0  0  0  0  0  0
    1.4190    0.9630   -0.0330 C   0  0  0  0  0  0  0  0  0  0  0  0
    2.4050   -0.0610    0.0490 O   0  0  0  0  0  0  0  0  0  0  0  0
    3.3310   -0.1950   -0.9610 C   0  0  0  0  0  0  0  0  0  0  0  0
    3.2770    0.5960   -1.9290 O   0  0  0  0  0  0  0  0  0  0  0  0
    4.3160   -1.1830   -0.9250 O   0  0  0  0  0  0  0  0  0  0  0  0
  2  1  1  1
  2  3  1  0
  2  4  1  0
  4  5  1  1
  4  6  1  0
  6  7  1  0
  7  8  1  0
  8  9  1  0
  9 10  1  0
 10 11  2  0
 10 12  1  0
M  END
