
     RDKit          3D

 12 11  0  0  0  0  0  0  0  0999 V2000
   -0.3470    2.0740   -1.2760 C   0  0  0  0  0  0  0  0  0  0  0  0
   -0.5320    1.9900    0.0810 O   0  0  0  0  0  0  0  0  0  0  0  0
   -1.1480    0.8810    0.5560 C   0  0  0  0  0  0  0  0  0  0  0  0
   -0.4430   -0.4360    0.3810 C   0  0  1  0  0  0  0  0  0  0  0  0
    0.7750   -0.5930    1.0460 N   0  0  0  0  0  0  0  0  0  0  0  0
    1.8960    0.2190    0.7340 C   0  0  2  0  0  0  0  0  0  0  0  0
    2.3260    0.1310   -0.5990 O   0  0  0  0  0  0  0  0  0  0  0  0
    3.0400   -0.2270    1.4840 O   0  0  0  0  0  0  0  0  0  0  0  0
    1.7890    1.5580    1.0830 O   0  0  0  0  0  0  0  0  0  0  0  0
   -1.3300   -1.5050    0.5460 O   0  0  0  0  0  0  0  0  0  0  0  0
   -1.6090   -2.2070   -0.5900 C   0  0  0  0  0  0  0  0  0  0  0  0
   -2.5000   -3.2320   -0.2710 O   0  0  0  0  0  0  0  0  0  0  0  0
  1  2  1  0
  2  3  1  0
  4  3  1  1
  4  5  1  0
  4 10  1  0
  5  6  1  0
  6  7  1  6
  6  8  1  0
  6  9  1  0
 10 11  1  0
 11 12  1  0
M  END
