
     RDKit          3D

 12 11  0  0  0  0  0  0  0  0999 V2000
    4.5500   -0.7180   -0.0360 C   0  0  0  0  0  0  0  0  0  0  0  0
    3.2300   -1.1880    0.0750 O   0  0  0  0  0  0  0  0  0  0  0  0
    2.4310   -0.0760    0.1830 C   0  0  0  0  0  0  0  0  0  0  0  0
    1.0620   -0.4070    0.3020 O   0  0  0  0  0  0  0  0  0  0  0  0
    0.3970    0.8000    0.3990 C   0  0  0  0  0  0  0  0  0  0  0  0
   -1.0880    0.6980    0.5360 C   0  0  2  0  0  0  0  0  0  0  0  0
   -1.4960    0.1680    1.7370 O   0  0  0  0  0  0  0  0  0  0  0  0
   -1.6210    0.0240   -0.6080 N   0  0  0  0  0  0  0  0  0  0  0  0
   -3.0450    0.0020   -0.6860 C   0  0  2  0  0  0  0  0  0  0  0  0
   -3.4800    1.3340   -0.7400 O   0  0  0  0  0  0  0  0  0  0  0  0
   -3.5990   -0.6090    0.4560 O   0  0  0  0  0  0  0  0  0  0  0  0
   -3.4440   -0.6990   -1.8080 O   0  0  0  0  0  0  0  0  0  0  0  0
  1  2  1  0
  2  3  1  0
  3  4  1  0
  4  5  1  0
  5  6  1  0
  6  7  1  1
  6  8  1  0
  8  9  1  0
  9 10  1  6
  9 11  1  0
  9 12  1  0
M  END
