
     RDKit          3D

 10 10  0  0  0  0  0  0  0  0999 V2000
    2.1960    0.9780    1.4570 O   0  0  0  0  0  0  0  0  0  0  0  0
    1.8890    0.2970    0.4390 C   0  0  0  0  0  0  0  0  0  0  0  0
    2.8880   -0.4190   -0.2640 N   0  0  0  0  0  0  0  0  0  0  0  0
    4.2000   -0.3910    0.1380 O   0  0  0  0  0  0  0  0  0  0  0  0
    0.4970    0.2440   -0.0190 C   0  0  1  0  0  0  0  0  0  0  0  0
   -0.0780   -1.1540   -0.0290 C   0  0  0  0  0  0  0  0  0  0  0  0
   -1.4410   -1.1210   -0.6340 C   0  0  0  0  0  0  0  0  0  0  0  0
   -2.3370   -0.0560   -0.1110 C   0  0  0  0  0  0  0  0  0  0  0  0
   -1.6880    1.2900    0.0280 C   0  0  0  0  0  0  0  0  0  0  0  0
   -0.4150    1.0790    0.8530 C   0  0  0  0  0  0  0  0  0  0  0  0
  1  2  2  0
  2  3  1  0
  5  2  1  1
  3  4  1  0
  5  6  1  0
  5 10  1  0
  6  7  1  0
  7  8  1  0
  8  9  1  0
  9 10  1  0
M  END
