
     RDKit          3D

 27 29  0  0  0  0  0  0  0  0999 V2000
   -4.6130   -0.3140    2.5770 C   0  0  0  0  0  0  0  0  0  0  0  0
   -5.1270   -0.8780    1.2670 C   0  0  0  0  0  0  0  0  0  0  0  0
   -4.6030   -0.0410    0.1560 C   0  0  0  0  0  0  0  0  0  0  0  0
   -5.2380    0.8900   -0.5710 N   0  0  0  0  0  0  0  0  0  0  0  0
   -4.4180    1.4150   -1.4690 N   0  0  0  0  0  0  0  0  0  0  0  0
   -3.1880    0.8340   -1.3610 C   0  0  0  0  0  0  0  0  0  0  0  0
   -1.9710    1.1170   -2.1660 C   0  0  0  0  0  0  0  0  0  0  0  0
   -0.9900    1.9580   -1.3480 C   0  0  0  0  0  0  0  0  0  0  0  0
   -3.3050   -0.0770   -0.3450 C   0  0  0  0  0  0  0  0  0  0  0  0
   -2.2630   -0.9650    0.1610 C   0  0  0  0  0  0  0  0  0  0  0  0
   -1.4070   -0.6180    1.1910 C   0  0  0  0  0  0  0  0  0  0  0  0
   -0.4320   -1.4570    1.6680 C   0  0  0  0  0  0  0  0  0  0  0  0
    0.4900   -1.1180    2.7590 C   0  0  0  0  0  0  0  0  0  0  0  0
    1.7250   -0.5320    2.3420 N   0  0  0  0  0  0  0  0  0  0  0  0
    2.0130   -0.2740    0.9850 C   0  0  0  0  0  0  0  0  0  0  0  0
    1.1430   -0.5730    0.1280 O   0  0  0  0  0  0  0  0  0  0  0  0
    3.2380    0.3070    0.5480 N   0  0  0  0  0  0  0  0  0  0  0  0
    3.4730    0.5480   -0.8690 C   0  0  0  0  0  0  0  0  0  0  0  0
    4.8260    1.1600   -1.0830 C   0  0  2  0  0  0  0  0  0  0  0  0
    5.9410    0.2660   -0.5820 C   0  0  0  0  0  0  0  0  0  0  0  0
    6.6350    1.0820    0.4640 C   0  0  0  0  0  0  0  0  0  0  0  0
    6.2480    2.3970    0.2940 O   0  0  0  0  0  0  0  0  0  0  0  0
    4.9830    2.4170   -0.2470 C   0  0  0  0  0  0  0  0  0  0  0  0
   -0.3220   -2.7070    1.0680 C   0  0  0  0  0  0  0  0  0  0  0  0
   -1.1670   -3.0760    0.0350 C   0  0  0  0  0  0  0  0  0  0  0  0
   -2.1420   -2.2200   -0.4310 C   0  0  0  0  0  0  0  0  0  0  0  0
   -3.0190   -2.5720   -1.4860 N   0  0  0  0  0  0  0  0  0  0  0  0
  1  2  1  0
  2  3  1  0
  3  4  1  0
  3  9  2  0
  4  5  1  0
  5  6  2  0
  6  7  1  0
  6  9  1  0
  7  8  1  0
  9 10  1  0
 10 11  2  0
 10 26  1  0
 11 12  1  0
 12 13  1  0
 12 24  2  0
 13 14  1  0
 14 15  1  0
 15 16  2  0
 15 17  1  0
 17 18  1  0
 19 18  1  1
 19 20  1  0
 19 23  1  0
 20 21  1  0
 21 22  1  0
 22 23  1  0
 24 25  1  0
 25 26  2  0
 26 27  1  0
M  CHG  1   5   1
M  END
