
     RDKit          3D

 25 28  0  0  0  0  0  0  0  0999 V2000
    4.4520   -1.3400    0.9950 C   0  0  0  0  0  0  0  0  0  0  0  0
    4.0840   -0.0120    0.4770 N   0  0  0  0  0  0  0  0  0  0  0  0
    5.1050    0.9980    0.4990 C   0  0  0  0  0  0  0  0  0  0  0  0
    6.2260    0.7060   -0.4770 C   0  0  0  0  0  0  0  0  0  0  0  0
    6.8590   -0.5080   -0.2020 O   0  0  0  0  0  0  0  0  0  0  0  0
    2.7690    0.2300   -0.0200 C   0  0  0  0  0  0  0  0  0  0  0  0
    2.3760    1.4470   -0.5240 C   0  0  0  0  0  0  0  0  0  0  0  0
    1.0470    1.2500   -0.8920 C   0  0  0  0  0  0  0  0  0  0  0  0
    0.6900   -0.0280   -0.6100 C   0  0  0  0  0  0  0  0  0  0  0  0
   -0.5660   -0.7060   -0.8020 C   0  0  0  0  0  0  0  0  0  0  0  0
   -1.7610   -0.5050   -0.3440 C   0  0  0  0  0  0  0  0  0  0  0  0
   -2.7950   -1.4790   -0.8210 C   0  0  0  0  0  0  0  0  0  0  0  0
   -2.4380   -2.7430   -1.2480 C   0  0  0  0  0  0  0  0  0  0  0  0
   -3.3860   -3.5880   -1.8020 C   0  0  0  0  0  0  0  0  0  0  0  0
   -4.6850   -3.1780   -1.9310 C   0  0  0  0  0  0  0  0  0  0  0  0
   -5.0580   -1.9260   -1.5090 C   0  0  0  0  0  0  0  0  0  0  0  0
   -4.1110   -1.0850   -0.9540 C   0  0  0  0  0  0  0  0  0  0  0  0
   -4.5010    0.1840   -0.3490 C   0  0  0  0  0  0  0  0  0  0  0  0
   -3.6660    0.9340    0.3110 C   0  0  0  0  0  0  0  0  0  0  0  0
   -4.1480    2.1500    0.8520 N   0  0  0  0  0  0  0  0  0  0  0  0
   -3.4320    2.8780    1.6800 C   0  0  0  0  0  0  0  0  0  0  0  0
   -2.1300    2.3690    2.0040 N   0  0  0  0  0  0  0  0  0  0  0  0
   -1.3860    1.6390    0.9470 C   0  0  0  0  0  0  0  0  0  0  0  0
   -2.2780    0.4980    0.5750 C   0  0  2  0  0  0  0  0  0  0  0  0
    1.7720   -0.6060   -0.0820 O   0  0  0  0  0  0  0  0  0  0  0  0
  1  2  1  0
  2  3  1  0
  2  6  1  0
  3  4  1  0
  4  5  1  0
  6  7  2  0
  6 25  1  0
  7  8  1  0
  8  9  2  0
  9 10  1  0
  9 25  1  0
 10 11  2  3
 11 12  1  0
 11 24  1  0
 12 13  2  0
 12 17  1  0
 13 14  1  0
 14 15  2  0
 15 16  1  0
 16 17  2  0
 17 18  1  0
 18 19  2  0
 19 20  1  0
 19 24  1  0
 20 21  2  0
 21 22  1  0
 22 23  1  0
 24 23  1  6
M  CHG  1  20   1
M  END
