
     RDKit          3D

 27 29  0  0  0  0  0  0  0  0999 V2000
    0.4090    0.8620    3.2380 C   0  0  0  0  0  0  0  0  0  0  0  0
    0.3050    0.9330    1.7460 C   0  0  0  0  0  0  0  0  0  0  0  0
    0.4810   -0.4290    1.0720 C   0  0  0  0  0  0  0  0  0  0  0  0
    0.3300   -0.2630   -0.3950 C   0  0  0  0  0  0  0  0  0  0  0  0
   -0.9030    0.0030   -0.9000 C   0  0  0  0  0  0  0  0  0  0  0  0
   -2.0700   -0.0400   -0.0980 N   0  0  0  0  0  0  0  0  0  0  0  0
   -3.3730    0.3190   -0.4720 C   0  0  0  0  0  0  0  0  0  0  0  0
   -3.5980    1.1020   -1.5970 C   0  0  0  0  0  0  0  0  0  0  0  0
   -4.8870    1.5320   -1.9580 C   0  0  0  0  0  0  0  0  0  0  0  0
   -5.9610    1.1790   -1.1910 C   0  0  0  0  0  0  0  0  0  0  0  0
   -5.7620    0.4190   -0.0960 C   0  0  0  0  0  0  0  0  0  0  0  0
   -4.4730   -0.0080    0.2580 C   0  0  0  0  0  0  0  0  0  0  0  0
   -4.3750   -0.8820    1.4270 C   0  0  0  0  0  0  0  0  0  0  0  0
   -1.0190    0.2030   -2.2480 N   0  0  0  0  0  0  0  0  0  0  0  0
    0.0040    0.1450   -3.0530 C   0  0  0  0  0  0  0  0  0  0  0  0
   -0.1580    0.3540   -4.4800 N   0  0  0  0  0  0  0  0  0  0  0  0
    1.2170   -0.1200   -2.5570 N   0  0  0  0  0  0  0  0  0  0  0  0
    1.4660   -0.3390   -1.2300 C   0  0  0  0  0  0  0  0  0  0  0  0
    2.7670   -0.5020   -0.7660 C   0  0  0  0  0  0  0  0  0  0  0  0
    3.8480   -0.5550   -0.1990 C   0  0  0  0  0  0  0  0  0  0  0  0
    4.1950   -0.0420    1.1580 C   0  0  0  0  0  0  0  0  0  0  0  0
    5.4040   -0.1360    1.7490 C   0  0  0  0  0  0  0  0  0  0  0  0
    5.4190    0.4210    2.9930 O   0  0  0  0  0  0  0  0  0  0  0  0
    4.2440    1.2230    3.0460 C   0  0  0  0  0  0  0  0  0  0  0  0
    3.4300    0.6120    2.0790 O   0  0  0  0  0  0  0  0  0  0  0  0
    3.1920   -1.7850   -1.9450 C   0  0  0  0  0  0  0  0  0  0  0  0
    2.1660   -2.7040   -1.7170 N   0  0  0  0  0  0  0  0  0  0  0  0
  1  2  1  0
  2  3  1  0
  3  4  1  0
  4  5  2  0
  4 18  1  0
  5  6  1  0
  5 14  1  0
  6  7  1  0
  7  8  2  0
  7 12  1  0
  8  9  1  0
  9 10  2  0
 10 11  1  0
 11 12  2  0
 12 13  1  0
 14 15  2  0
 15 16  1  0
 15 17  1  0
 17 18  2  0
 18 19  1  0
 19 20  2  3
 19 26  1  0
 20 21  1  0
 21 22  2  0
 21 25  1  0
 22 23  1  0
 23 24  1  0
 24 25  1  0
 26 27  1  0
M  CHG  1  17   1
M  END
