
     RDKit          3D

 21 22  0  0  0  0  0  0  0  0999 V2000
   -5.0210    1.2890    0.9420 N   0  0  0  0  0  0  0  0  0  0  0  0
   -4.0260    0.7010    0.0890 C   0  0  1  0  0  0  0  0  0  0  0  0
   -3.0260    1.7240   -0.4290 C   0  0  0  0  0  0  0  0  0  0  0  0
   -1.9740    0.8020   -1.0310 C   0  0  0  0  0  0  0  0  0  0  0  0
   -1.9520   -0.4160   -0.1480 C   0  0  2  0  0  0  0  0  0  0  0  0
   -0.7880   -0.3940    0.6040 O   0  0  0  0  0  0  0  0  0  0  0  0
    0.2990   -0.9370   -0.0190 C   0  0  2  0  0  0  0  0  0  0  0  0
    1.5170   -0.0210    0.0140 C   0  0  0  0  0  0  0  0  0  0  0  0
    2.5760   -0.6370   -0.6340 O   0  0  0  0  0  0  0  0  0  0  0  0
    3.7270    0.0930   -0.6910 C   0  0  0  0  0  0  0  0  0  0  0  0
    4.2250    0.4010    0.7000 C   0  0  1  0  0  0  0  0  0  0  0  0
    4.4720   -0.7660    1.4250 O   0  0  0  0  0  0  0  0  0  0  0  0
    5.6080    1.0550    0.5370 C   0  0  1  0  0  0  0  0  0  0  0  0
    6.3880    0.1270   -0.1550 O   0  0  0  0  0  0  0  0  0  0  0  0
    5.4260    2.2130   -0.1950 O   0  0  0  0  0  0  0  0  0  0  0  0
    0.0830   -1.2780   -1.3440 O   0  0  0  0  0  0  0  0  0  0  0  0
   -0.8850   -2.2600   -1.4440 C   0  0  0  0  0  0  0  0  0  0  0  0
   -2.1700   -1.6910   -0.8920 C   0  0  1  0  0  0  0  0  0  0  0  0
   -2.7370   -2.6910   -0.0820 O   0  0  0  0  0  0  0  0  0  0  0  0
   -3.1170   -0.2540    0.8270 C   0  0  1  0  0  0  0  0  0  0  0  0
   -2.6860    0.2930    2.0350 O   0  0  0  0  0  0  0  0  0  0  0  0
  2  1  1  1
  2  3  1  0
  2 20  1  0
  3  4  1  0
  5  4  1  6
  5  6  1  0
  5 18  1  0
  5 20  1  0
  6  7  1  0
  7  8  1  6
  7 16  1  0
  8  9  1  0
  9 10  1  0
 10 11  1  0
 11 12  1  1
 11 13  1  0
 13 14  1  6
 13 15  1  0
 16 17  1  0
 17 18  1  0
 18 19  1  1
 20 21  1  1
M  CHG  1   1   1
M  END
