
     RDKit          3D

 10 10  0  0  0  0  0  0  0  0999 V2000
   -2.3820   -0.9480   -0.1980 C   0  0  0  0  0  0  0  0  0  0  0  0
   -1.1530   -0.1010   -0.0870 C   0  0  0  0  0  0  0  0  0  0  0  0
    0.0900   -0.6580    0.1680 C   0  0  0  0  0  0  0  0  0  0  0  0
    1.2020    0.1510    0.2650 C   0  0  0  0  0  0  0  0  0  0  0  0
    2.5600   -0.4210    0.5390 C   0  0  0  0  0  0  0  0  0  0  0  0
    2.5080   -1.7990    0.6690 O   0  0  0  0  0  0  0  0  0  0  0  0
    1.0100    1.5050    0.0980 C   0  0  0  0  0  0  0  0  0  0  0  0
   -0.2190    2.0290   -0.1510 N   0  0  0  0  0  0  0  0  0  0  0  0
   -1.3210    1.2600   -0.2500 C   0  0  0  0  0  0  0  0  0  0  0  0
   -2.5830    1.8170   -0.5080 O   0  0  0  0  0  0  0  0  0  0  0  0
  1  2  1  0
  2  3  2  0
  2  9  1  0
  3  4  1  0
  4  5  1  0
  4  7  2  0
  5  6  1  0
  7  8  1  0
  8  9  2  0
  9 10  1  0
M  END
