
     RDKit          3D

 10 10  0  0  0  0  0  0  0  0999 V2000
   -2.7250   -1.0940   -0.1080 C   0  0  0  0  0  0  0  0  0  0  0  0
   -1.5150   -0.2170   -0.1560 C   0  0  0  0  0  0  0  0  0  0  0  0
   -1.6060    1.1360   -0.4150 C   0  0  0  0  0  0  0  0  0  0  0  0
   -0.5250    1.9470   -0.4630 N   0  0  0  0  0  0  0  0  0  0  0  0
    0.7280    1.4870   -0.2590 C   0  0  0  0  0  0  0  0  0  0  0  0
    1.8360    2.3240   -0.3090 O   0  0  0  0  0  0  0  0  0  0  0  0
    0.8500    0.1370    0.0020 C   0  0  0  0  0  0  0  0  0  0  0  0
    2.2390   -0.3690    0.2260 C   0  0  0  0  0  0  0  0  0  0  0  0
    2.2250   -1.7490    0.4800 O   0  0  0  0  0  0  0  0  0  0  0  0
   -0.2400   -0.7100    0.0550 C   0  0  0  0  0  0  0  0  0  0  0  0
  1  2  1  0
  2  3  2  0
  2 10  1  0
  3  4  1  0
  4  5  2  0
  5  6  1  0
  5  7  1  0
  7  8  1  0
  7 10  2  0
  8  9  1  0
M  END
