
     RDKit          3D

 10 10  0  0  0  0  0  0  0  0999 V2000
   -2.5150   -1.1200   -0.0140 C   0  0  0  0  0  0  0  0  0  0  0  0
   -1.3260   -0.2300   -0.0100 C   0  0  0  0  0  0  0  0  0  0  0  0
   -0.0580   -0.7340   -0.2210 C   0  0  0  0  0  0  0  0  0  0  0  0
    1.0460    0.0970   -0.2170 C   0  0  0  0  0  0  0  0  0  0  0  0
    2.4070   -0.4490   -0.4440 C   0  0  0  0  0  0  0  0  0  0  0  0
    3.0050   -0.8250    0.7740 O   0  0  0  0  0  0  0  0  0  0  0  0
    0.9450    1.4210   -0.0100 N   0  0  0  0  0  0  0  0  0  0  0  0
   -0.2820    1.9270    0.1980 C   0  0  0  0  0  0  0  0  0  0  0  0
   -0.3720    3.1580    0.3900 O   0  0  0  0  0  0  0  0  0  0  0  0
   -1.4210    1.1300    0.2020 C   0  0  0  0  0  0  0  0  0  0  0  0
  1  2  1  0
  2  3  1  0
  2 10  2  0
  3  4  2  0
  4  5  1  0
  4  7  1  0
  5  6  1  0
  7  8  1  0
  8  9  2  0
  8 10  1  0
M  END
