
     RDKit          3D

 10 10  0  0  0  0  0  0  0  0999 V2000
    2.1300    0.9110    1.1560 O   0  0  0  0  0  0  0  0  0  0  0  0
    1.5940    0.0630    0.3750 C   0  0  0  0  0  0  0  0  0  0  0  0
    2.3840   -0.9120   -0.2910 N   0  0  0  0  0  0  0  0  0  0  0  0
    3.7210   -0.8610   -0.0300 O   0  0  0  0  0  0  0  0  0  0  0  0
    0.1650    0.1260    0.1920 C   0  0  0  0  0  0  0  0  0  0  0  0
   -0.4760   -0.7640   -0.6380 C   0  0  0  0  0  0  0  0  0  0  0  0
   -1.8650   -0.6660   -0.7860 C   0  0  0  0  0  0  0  0  0  0  0  0
   -2.6120    0.2850   -0.1330 C   0  0  0  0  0  0  0  0  0  0  0  0
   -1.9350    1.1600    0.6920 C   0  0  0  0  0  0  0  0  0  0  0  0
   -0.5670    1.0980    0.8650 C   0  0  0  0  0  0  0  0  0  0  0  0
  1  2  2  0
  2  3  1  0
  2  5  1  0
  3  4  1  0
  5  6  2  0
  5 10  1  0
  6  7  1  0
  7  8  2  0
  8  9  1  0
  9 10  2  0
M  END
