
     RDKit          3D

 10 11  0  0  0  0  0  0  0  0999 V2000
    3.3770    0.7010    0.1190 O   0  0  0  0  0  0  0  0  0  0  0  0
    2.0560    0.2780    0.0500 C   0  0  0  0  0  0  0  0  0  0  0  0
    1.7560   -1.0690    0.0440 C   0  0  0  0  0  0  0  0  0  0  0  0
    0.4360   -1.5020   -0.0240 C   0  0  0  0  0  0  0  0  0  0  0  0
   -0.6140   -0.6110   -0.0880 C   0  0  0  0  0  0  0  0  0  0  0  0
   -0.3220    0.7360   -0.0820 C   0  0  0  0  0  0  0  0  0  0  0  0
    1.0030    1.1650   -0.0130 C   0  0  0  0  0  0  0  0  0  0  0  0
   -1.5380    1.4000   -0.1530 O   0  0  0  0  0  0  0  0  0  0  0  0
   -2.6150    0.5340    0.0640 C   0  0  0  0  0  0  0  0  0  0  0  0
   -2.0260   -0.7850   -0.1630 N   0  0  0  0  0  0  0  0  0  0  0  0
  1  2  1  0
  2  3  2  0
  2  7  1  0
  3  4  1  0
  4  5  2  0
  5  6  1  0
  5 10  1  0
  6  7  2  0
  6  8  1  0
  8  9  1  0
  9 10  1  0
M  END
