
     RDKit          3D

 26 29  0  0  0  0  0  0  0  0999 V2000
    5.1380   -0.1520    1.2200 N   0  0  0  0  0  0  0  0  0  0  0  0
    4.0500   -0.7100    0.4710 C   0  0  0  0  0  0  0  0  0  0  0  0
    4.1850   -1.8570   -0.2620 C   0  0  0  0  0  0  0  0  0  0  0  0
    3.1270   -2.3620   -0.9670 C   0  0  0  0  0  0  0  0  0  0  0  0
    1.9170   -1.6970   -0.9270 C   0  0  0  0  0  0  0  0  0  0  0  0
    1.7640   -0.5220   -0.1760 C   0  0  0  0  0  0  0  0  0  0  0  0
    2.8380   -0.0340    0.5190 C   0  0  0  0  0  0  0  0  0  0  0  0
    0.5170    0.1330   -0.0770 N   0  0  0  0  0  0  0  0  0  0  0  0
    0.3530    1.2470    0.8220 C   0  0  0  0  0  0  0  0  0  0  0  0
    0.9880    1.4000    1.8660 O   0  0  0  0  0  0  0  0  0  0  0  0
   -0.6480    2.2150    0.4040 C   0  0  0  0  0  0  0  0  0  0  0  0
   -1.0720    3.4170    0.9470 C   0  0  0  0  0  0  0  0  0  0  0  0
   -2.0350    3.9830    0.1310 C   0  0  0  0  0  0  0  0  0  0  0  0
   -2.1850    3.1060   -0.9070 C   0  0  0  0  0  0  0  0  0  0  0  0
   -1.3590    2.0490   -0.7480 N   0  0  0  0  0  0  0  0  0  0  0  0
   -1.1910    0.8850   -1.5850 C   0  0  0  0  0  0  0  0  0  0  0  0
   -0.6540   -0.2730   -0.8480 C   0  0  2  0  0  0  0  0  0  0  0  0
   -1.6540   -0.7770    0.2230 C   0  0  0  0  0  0  0  0  0  0  0  0
   -2.8370   -0.2830    0.2900 C   0  0  0  0  0  0  0  0  0  0  0  0
   -3.9830   -0.5410    1.1720 C   0  0  0  0  0  0  0  0  0  0  0  0
   -5.3120   -1.1170    0.0840 Cl  0  0  0  0  0  0  0  0  0  0  0  0
   -1.1150   -1.8710    1.0580 C   0  0  0  0  0  0  0  0  0  0  0  0
   -2.1820   -2.5670    2.2130 Cl  0  0  0  0  0  0  0  0  0  0  0  0
   -0.3800   -1.4260   -1.7020 C   0  0  0  0  0  0  0  0  0  0  0  0
   -1.3170   -1.7800   -2.4990 O   0  0  0  0  0  0  0  0  0  0  0  0
    0.8210   -2.1490   -1.6970 N   0  0  0  0  0  0  0  0  0  0  0  0
  1  2  1  0
  2  3  2  0
  2  7  1  0
  3  4  1  0
  4  5  2  0
  5  6  1  0
  5 26  1  0
  6  7  2  0
  6  8  1  0
  8  9  1  0
  8 17  1  0
  9 10  2  0
  9 11  1  0
 11 12  2  0
 11 15  1  0
 12 13  1  0
 13 14  2  0
 14 15  1  0
 15 16  1  0
 16 17  1  0
 17 18  1  1
 17 24  1  0
 18 19  2  3
 18 22  1  0
 19 20  1  0
 20 21  1  0
 22 23  1  0
 24 25  2  0
 24 26  1  0
M  END
