
     RDKit          3D

 26 28  0  0  0  0  0  0  0  0999 V2000
   -2.6230    0.0930   -1.5930 O   0  0  0  0  0  0  0  0  0  0  0  0
   -2.3770    0.1820   -0.3630 C   0  0  0  0  0  0  0  0  0  0  0  0
   -3.4410    0.2500    0.5920 N   0  0  0  0  0  0  0  0  0  0  0  0
   -4.8090    0.2150    0.2020 C   0  0  0  0  0  0  0  0  0  0  0  0
   -5.6200    1.2560    0.4120 C   0  0  0  0  0  0  0  0  0  0  0  0
   -7.0230    1.2680    0.0330 C   0  0  0  0  0  0  0  0  0  0  0  0
   -7.5740    0.2050   -0.5590 C   0  0  0  0  0  0  0  0  0  0  0  0
   -6.7910   -0.9460   -0.8200 N   0  0  0  0  0  0  0  0  0  0  0  0
   -5.3980   -0.9510   -0.4400 C   0  0  0  0  0  0  0  0  0  0  0  0
   -4.6560   -2.0180   -0.6450 C   0  0  0  0  0  0  0  0  0  0  0  0
   -5.3710   -3.4060   -1.4160 Cl  0  0  0  0  0  0  0  0  0  0  0  0
   -0.9690    0.2140    0.0760 C   0  0  0  0  0  0  0  0  0  0  0  0
   -0.7490    0.3040    1.3010 O   0  0  0  0  0  0  0  0  0  0  0  0
    0.0520    0.1450   -0.8890 N   0  0  0  0  0  0  0  0  0  0  0  0
    1.4250    0.1760   -0.5610 C   0  0  0  0  0  0  0  0  0  0  0  0
    1.9740    0.5590    0.6330 C   0  0  0  0  0  0  0  0  0  0  0  0
    3.3570    0.5400    0.8780 C   0  0  0  0  0  0  0  0  0  0  0  0
    4.2350    0.1260   -0.0920 C   0  0  0  0  0  0  0  0  0  0  0  0
    5.6900    0.0970    0.1470 C   0  0  0  0  0  0  0  0  0  0  0  0
    6.3370   -0.1460    1.3410 C   0  0  0  0  0  0  0  0  0  0  0  0
    7.6790   -0.0840    1.1310 N   0  0  0  0  0  0  0  0  0  0  0  0
    7.9250    0.1940   -0.1700 C   0  0  0  0  0  0  0  0  0  0  0  0
    9.5310    0.3610   -0.8580 Cl  0  0  0  0  0  0  0  0  0  0  0  0
    6.6990    0.3040   -0.7690 C   0  0  0  0  0  0  0  0  0  0  0  0
    3.7100   -0.2640   -1.3020 C   0  0  0  0  0  0  0  0  0  0  0  0
    2.3590   -0.2410   -1.5300 C   0  0  0  0  0  0  0  0  0  0  0  0
  1  2  2  0
  2  3  1  0
  2 12  1  0
  3  4  1  0
  4  5  2  0
  4  9  1  0
  5  6  1  0
  6  7  2  0
  7  8  1  0
  8  9  1  0
  9 10  2  3
 10 11  1  0
 12 13  2  0
 12 14  1  0
 14 15  1  0
 15 16  2  0
 15 26  1  0
 16 17  1  0
 17 18  2  0
 18 19  1  0
 18 25  1  0
 19 20  2  0
 19 24  1  0
 20 21  1  0
 21 22  1  0
 22 23  1  0
 22 24  2  0
 25 26  2  0
M  END
