
     RDKit          3D

  9  9  0  0  0  0  0  0  0  0999 V2000
    2.0690   -0.3510   -1.6820 O   0  0  0  0  0  0  0  0  0  0  0  0
    1.5790   -0.1570   -0.5430 C   0  0  0  0  0  0  0  0  0  0  0  0
    2.5080   -0.0930    0.5420 N   0  0  0  0  0  0  0  0  0  0  0  0
    3.8450   -0.2330    0.3600 O   0  0  0  0  0  0  0  0  0  0  0  0
    0.1400   -0.0040   -0.3260 C   0  0  0  0  0  0  0  0  0  0  0  0
   -0.7420   -0.0590   -1.3120 C   0  0  0  0  0  0  0  0  0  0  0  0
   -2.1160    0.1310   -0.7770 C   0  0  0  0  0  0  0  0  0  0  0  0
   -1.9420   -0.3670    0.6510 C   0  0  0  0  0  0  0  0  0  0  0  0
   -0.5630    0.2290    0.9660 C   0  0  0  0  0  0  0  0  0  0  0  0
  1  2  2  0
  2  3  1  0
  2  5  1  0
  3  4  1  0
  5  6  2  0
  5  9  1  0
  6  7  1  0
  7  8  1  0
  8  9  1  0
M  END
