
     RDKit          3D

 26 29  0  0  0  0  0  0  0  0999 V2000
   -6.3930    2.7230   -0.1110 O   0  0  0  0  0  0  0  0  0  0  0  0
   -5.6570    1.6840   -0.1850 C   0  0  0  0  0  0  0  0  0  0  0  0
   -6.2050    0.5080   -0.5190 N   0  0  0  0  0  0  0  0  0  0  0  0
   -5.4940   -0.6300   -0.6170 C   0  0  0  0  0  0  0  0  0  0  0  0
   -6.0100   -1.7350   -0.9310 O   0  0  0  0  0  0  0  0  0  0  0  0
   -4.1370   -0.6080   -0.3670 C   0  0  0  0  0  0  0  0  0  0  0  0
   -3.3670   -1.7650   -0.4590 C   0  0  0  0  0  0  0  0  0  0  0  0
   -2.0210   -1.6700   -0.1960 C   0  0  0  0  0  0  0  0  0  0  0  0
   -1.4120   -0.4830    0.1510 C   0  0  0  0  0  0  0  0  0  0  0  0
   -0.0200   -0.3990    0.4200 N   0  0  0  0  0  0  0  0  0  0  0  0
    0.6530    0.8210    0.7850 C   0  0  0  0  0  0  0  0  0  0  0  0
    2.0800    0.5490    0.9710 C   0  0  0  0  0  0  0  0  0  0  0  0
    2.6150    0.7790    2.1500 C   0  0  0  0  0  0  0  0  0  0  0  0
    1.6970    1.3950    3.5100 Cl  0  0  0  0  0  0  0  0  0  0  0  0
    3.9910    0.5230    2.3360 N   0  0  0  0  0  0  0  0  0  0  0  0
    4.8660    0.0020    1.3390 C   0  0  0  0  0  0  0  0  0  0  0  0
    4.1930   -0.2150    0.0490 C   0  0  0  0  0  0  0  0  0  0  0  0
    4.9870   -0.7080   -1.0130 C   0  0  0  0  0  0  0  0  0  0  0  0
    4.4120   -0.9320   -2.2350 C   0  0  0  0  0  0  0  0  0  0  0  0
    3.0480   -0.6730   -2.4260 C   0  0  0  0  0  0  0  0  0  0  0  0
    2.4080   -0.9910   -4.0200 Cl  0  0  0  0  0  0  0  0  0  0  0  0
    2.2910   -0.1950   -1.3860 C   0  0  0  0  0  0  0  0  0  0  0  0
    2.8600    0.0330   -0.1530 C   0  0  0  0  0  0  0  0  0  0  0  0
   -2.2210    0.6320    0.2270 C   0  0  0  0  0  0  0  0  0  0  0  0
   -3.5690    0.6000   -0.0230 C   0  0  0  0  0  0  0  0  0  0  0  0
   -4.3390    1.7230    0.0610 N   0  0  0  0  0  0  0  0  0  0  0  0
  1  2  2  0
  2  3  1  0
  2 26  1  0
  3  4  1  0
  4  5  2  0
  4  6  1  0
  6  7  2  0
  6 25  1  0
  7  8  1  0
  8  9  2  0
  9 10  1  0
  9 24  1  0
 10 11  1  0
 11 12  1  0
 12 13  2  0
 12 23  1  0
 13 14  1  0
 13 15  1  0
 15 16  1  0
 16 17  1  0
 17 18  2  0
 17 23  1  0
 18 19  1  0
 19 20  2  0
 20 21  1  0
 20 22  1  0
 22 23  2  0
 24 25  2  0
 25 26  1  0
M  END
