
     RDKit          3D

 21 20  0  0  0  0  0  0  0  0999 V2000
   -3.4000    2.0860   -0.3190 C   0  0  0  0  0  0  0  0  0  0  0  0
   -2.2760    1.1350    0.0860 C   0  0  1  0  0  0  0  0  0  0  0  0
   -2.4180    0.6940    1.5130 C   0  0  0  0  0  0  0  0  0  0  0  0
   -2.3480   -0.0810   -0.8170 C   0  0  1  0  0  0  0  0  0  0  0  0
   -1.2740   -1.0340   -0.4600 C   0  0  0  0  0  0  0  0  0  0  0  0
   -1.5250   -2.2020   -0.0840 O   0  0  0  0  0  0  0  0  0  0  0  0
    0.1220   -0.6660   -0.5270 N   0  0  0  0  0  0  0  0  0  0  0  0
    1.1480   -1.5520   -0.1950 C   0  0  0  0  0  0  0  0  0  0  0  0
    0.7780   -2.7190    0.1770 O   0  0  0  0  0  0  0  0  0  0  0  0
    2.5880   -1.2020   -0.2540 C   0  0  0  0  0  0  0  0  0  0  0  0
    2.9550   -0.0220   -0.6300 C   0  0  0  0  0  0  0  0  0  0  0  0
    4.2920    0.5170   -0.7570 C   0  0  0  0  0  0  0  0  0  0  0  0
    4.5130    1.7740   -1.1640 C   0  0  0  0  0  0  0  0  0  0  0  0
    3.0660    2.9430   -1.6070 Br  0  0  0  0  0  0  0  0  0  0  0  0
    3.4930   -2.3160    0.1490 C   0  0  2  0  0  0  0  0  0  0  0  0
    3.1570   -2.6320    1.4770 F   0  0  0  0  0  0  0  0  0  0  0  0
    4.8060   -2.0680    0.1020 F   0  0  0  0  0  0  0  0  0  0  0  0
    3.0980   -3.4120   -0.6000 F   0  0  0  0  0  0  0  0  0  0  0  0
   -3.6100   -0.7640   -0.6400 N   0  0  0  0  0  0  0  0  0  0  0  0
   -4.4280   -0.9380   -1.5490 O   0  0  0  0  0  0  0  0  0  0  0  0
   -3.9110   -1.2450    0.6090 O   0  0  0  0  0  0  0  0  0  0  0  0
  2  1  1  6
  2  3  1  0
  2  4  1  0
  4  5  1  1
  4 19  1  0
  5  6  2  0
  5  7  1  0
  7  8  1  0
  8  9  2  0
  8 10  1  0
 10 11  2  3
 10 15  1  0
 11 12  1  0
 12 13  2  3
 13 14  1  0
 15 16  1  1
 15 17  1  0
 15 18  1  0
 19 20  2  0
 19 21  1  0
M  CHG  2  19   1  21  -1
M  END
