
     RDKit          3D

 25 28  0  0  0  0  0  0  0  0999 V2000
   -1.2490   -0.5510   -3.8420 O   0  0  0  0  0  0  0  0  0  0  0  0
   -1.2270   -0.3380   -2.5920 C   0  0  0  0  0  0  0  0  0  0  0  0
   -2.3280   -0.5290   -1.8000 C   0  0  0  0  0  0  0  0  0  0  0  0
   -2.2560   -0.2850   -0.4440 C   0  0  0  0  0  0  0  0  0  0  0  0
   -3.4280   -0.4830    0.4270 C   0  0  0  0  0  0  0  0  0  0  0  0
   -4.6480   -0.9090   -0.0070 C   0  0  0  0  0  0  0  0  0  0  0  0
   -5.6770   -1.0540    0.9300 C   0  0  0  0  0  0  0  0  0  0  0  0
   -5.5180   -0.7930    2.2310 N   0  0  0  0  0  0  0  0  0  0  0  0
   -4.3200   -0.3720    2.6720 C   0  0  0  0  0  0  0  0  0  0  0  0
   -3.2760   -0.2160    1.7750 C   0  0  0  0  0  0  0  0  0  0  0  0
   -1.0910    0.1320    0.0310 N   0  0  0  0  0  0  0  0  0  0  0  0
    0.0410    0.3380   -0.7160 C   0  0  0  0  0  0  0  0  0  0  0  0
    1.2370    0.7170    0.0240 C   0  0  0  0  0  0  0  0  0  0  0  0
    1.1840    1.4690    1.2270 C   0  0  0  0  0  0  0  0  0  0  0  0
    2.4120    1.6190    1.7060 N   0  0  0  0  0  0  0  0  0  0  0  0
    3.3140    1.0160    0.9100 C   0  0  0  0  0  0  0  0  0  0  0  0
    4.6900    0.8780    0.9990 C   0  0  0  0  0  0  0  0  0  0  0  0
    5.5750    1.6030    2.3230 Cl  0  0  0  0  0  0  0  0  0  0  0  0
    5.3970    0.1730    0.0590 C   0  0  0  0  0  0  0  0  0  0  0  0
    7.1520    0.0010    0.1760 Cl  0  0  0  0  0  0  0  0  0  0  0  0
    4.6920   -0.3890   -0.9680 C   0  0  0  0  0  0  0  0  0  0  0  0
    3.3040   -0.2510   -1.0620 C   0  0  0  0  0  0  0  0  0  0  0  0
    2.6390   -0.8480   -2.1140 O   0  0  0  0  0  0  0  0  0  0  0  0
    2.5680    0.4550   -0.1340 C   0  0  0  0  0  0  0  0  0  0  0  0
   -0.0720    0.0950   -2.0110 N   0  0  0  0  0  0  0  0  0  0  0  0
  1  2  2  0
  2  3  1  0
  2 25  1  0
  3  4  2  0
  4  5  1  0
  4 11  1  0
  5  6  2  0
  5 10  1  0
  6  7  1  0
  7  8  2  0
  8  9  1  0
  9 10  2  0
 11 12  2  0
 12 13  1  0
 12 25  1  0
 13 14  2  0
 13 24  1  0
 14 15  1  0
 15 16  1  0
 16 17  2  0
 16 24  1  0
 17 18  1  0
 17 19  1  0
 19 20  1  0
 19 21  2  0
 21 22  1  0
 22 23  1  0
 22 24  2  0
M  END
