
     RDKit          3D

 21 21  0  0  0  0  0  0  0  0999 V2000
    4.9690    0.7940    0.1210 C   0  0  0  0  0  0  0  0  0  0  0  0
    3.8090    0.1580    0.3110 C   0  0  0  0  0  0  0  0  0  0  0  0
    2.5740    0.7460   -0.1220 C   0  0  0  0  0  0  0  0  0  0  0  0
    2.6340    1.8820   -0.6840 O   0  0  0  0  0  0  0  0  0  0  0  0
    1.2390    0.1540    0.0220 C   0  0  0  0  0  0  0  0  0  0  0  0
    1.0870   -0.9690    0.5610 O   0  0  0  0  0  0  0  0  0  0  0  0
    0.0810    0.8330   -0.4430 N   0  0  0  0  0  0  0  0  0  0  0  0
   -1.2540    0.3750   -0.3650 C   0  0  0  0  0  0  0  0  0  0  0  0
   -1.6420   -0.8190    0.1830 C   0  0  0  0  0  0  0  0  0  0  0  0
   -2.9770   -1.2180    0.2320 C   0  0  0  0  0  0  0  0  0  0  0  0
   -3.9050   -0.3510   -0.3010 C   0  0  0  0  0  0  0  0  0  0  0  0
   -5.2690   -0.7530   -0.2540 N   0  0  0  0  0  0  0  0  0  0  0  0
   -5.6170   -1.8290    0.2410 O   0  0  0  0  0  0  0  0  0  0  0  0
   -6.1900    0.1370   -0.7970 O   0  0  0  0  0  0  0  0  0  0  0  0
   -3.5210    0.8530   -0.8550 C   0  0  0  0  0  0  0  0  0  0  0  0
   -2.2090    1.2540   -0.9070 C   0  0  0  0  0  0  0  0  0  0  0  0
   -1.7000    2.9310   -1.6810 Br  0  0  0  0  0  0  0  0  0  0  0  0
    3.7900   -1.1760    0.9850 C   0  0  2  0  0  0  0  0  0  0  0  0
    5.0980   -1.5600    1.2770 F   0  0  0  0  0  0  0  0  0  0  0  0
    3.2920   -2.1650    0.1720 F   0  0  0  0  0  0  0  0  0  0  0  0
    3.0580   -1.0330    2.1430 F   0  0  0  0  0  0  0  0  0  0  0  0
  1  2  2  0
  2  3  1  0
  2 18  1  0
  3  4  2  0
  3  5  1  0
  5  6  2  0
  5  7  1  0
  7  8  1  0
  8  9  2  0
  8 16  1  0
  9 10  1  0
 10 11  2  0
 11 12  1  0
 11 15  1  0
 12 13  2  0
 12 14  1  0
 15 16  2  0
 16 17  1  0
 18 19  1  1
 18 20  1  0
 18 21  1  0
M  CHG  2  12   1  14  -1
M  END
