
     RDKit          3D

 26 29  0  0  0  0  0  0  0  0999 V2000
    7.7430   -0.4580    0.3510 O   0  0  0  0  0  0  0  0  0  0  0  0
    6.8640    0.4190    0.3750 C   0  0  0  0  0  0  0  0  0  0  0  0
    7.2860    1.7540    0.4420 O   0  0  0  0  0  0  0  0  0  0  0  0
    5.4210    0.1810    0.3390 C   0  0  0  0  0  0  0  0  0  0  0  0
    4.8210   -0.3620   -0.7650 C   0  0  0  0  0  0  0  0  0  0  0  0
    3.4450   -0.5530   -0.7520 C   0  0  0  0  0  0  0  0  0  0  0  0
    2.7260   -0.1920    0.3650 C   0  0  0  0  0  0  0  0  0  0  0  0
    3.3360    0.3610    1.4920 C   0  0  0  0  0  0  0  0  0  0  0  0
    4.7000    0.5460    1.4690 C   0  0  0  0  0  0  0  0  0  0  0  0
    5.5110    1.2490    2.8600 Cl  0  0  0  0  0  0  0  0  0  0  0  0
    1.3530   -0.4950    0.0530 N   0  0  0  0  0  0  0  0  0  0  0  0
    0.3130   -0.2930    1.0280 C   0  0  0  0  0  0  0  0  0  0  0  0
   -0.9680    0.2530    0.5270 C   0  0  0  0  0  0  0  0  0  0  0  0
   -1.6690   -0.5660   -0.4820 C   0  0  0  0  0  0  0  0  0  0  0  0
   -3.1090   -0.6350   -0.3880 N   0  0  0  0  0  0  0  0  0  0  0  0
   -3.7690    0.3540    0.1280 C   0  0  0  0  0  0  0  0  0  0  0  0
   -5.2100    0.3860    0.2680 C   0  0  0  0  0  0  0  0  0  0  0  0
   -6.0960   -0.5910   -0.1570 C   0  0  0  0  0  0  0  0  0  0  0  0
   -7.3430   -0.1830    0.1320 N   0  0  0  0  0  0  0  0  0  0  0  0
   -7.3320    1.0290    0.7340 C   0  0  0  0  0  0  0  0  0  0  0  0
   -5.9890    1.3830    0.8170 C   0  0  0  0  0  0  0  0  0  0  0  0
   -5.3870    2.8750    1.5210 Cl  0  0  0  0  0  0  0  0  0  0  0  0
   -1.1830   -1.2340   -1.5060 C   0  0  0  0  0  0  0  0  0  0  0  0
    0.1790   -1.3790   -1.9890 C   0  0  0  0  0  0  0  0  0  0  0  0
    1.2570   -1.0360   -1.2600 C   0  0  0  0  0  0  0  0  0  0  0  0
    2.5760   -1.0750   -1.7670 N   0  0  0  0  0  0  0  0  0  0  0  0
  1  2  2  0
  2  3  1  0
  2  4  1  0
  4  5  2  0
  4  9  1  0
  5  6  1  0
  6  7  2  0
  6 26  1  0
  7  8  1  0
  7 11  1  0
  8  9  2  0
  9 10  1  0
 11 12  1  0
 11 25  1  0
 12 13  1  0
 13 14  1  0
 14 15  1  0
 14 23  2  0
 15 16  2  3
 16 17  1  0
 17 18  2  0
 17 21  1  0
 18 19  1  0
 19 20  1  0
 20 21  2  0
 21 22  1  0
 23 24  1  0
 24 25  2  0
 25 26  1  0
M  END
