
     RDKit          3D

 25 26  0  0  0  0  0  0  0  0999 V2000
   -6.2490   -0.8740   -1.3540 N   0  0  0  0  0  0  0  0  0  0  0  0
   -5.7370   -0.0980   -0.2190 C   0  0  1  0  0  0  0  0  0  0  0  0
   -4.8330   -0.8890    0.6670 C   0  0  0  0  0  0  0  0  0  0  0  0
   -3.4870   -1.1540    0.0690 C   0  0  0  0  0  0  0  0  0  0  0  0
   -2.8640    0.0470   -0.3980 N   0  0  0  0  0  0  0  0  0  0  0  0
   -1.4770    0.3440   -0.2930 C   0  0  2  0  0  0  0  0  0  0  0  0
   -0.6250   -0.7480   -0.3040 O   0  0  0  0  0  0  0  0  0  0  0  0
    0.5300   -0.2410    0.1320 C   0  0  2  0  0  0  0  0  0  0  0  0
    1.5750   -1.2080    0.7040 C   0  0  0  0  0  0  0  0  0  0  0  0
    2.5330   -0.3670    1.2560 O   0  0  0  0  0  0  0  0  0  0  0  0
    3.9130   -0.0740    0.5820 P   0  0  0  0  0  0  0  0  0  0  0  0
    4.0100    1.0960   -0.6360 O   0  0  0  0  0  0  0  0  0  0  0  0
    3.8910   -1.2630   -0.3670 O   0  0  0  0  0  0  0  0  0  0  0  0
    5.4200   -0.6020    1.1180 O   0  0  0  0  0  0  0  0  0  0  0  0
    6.6180   -0.1280    0.0870 P   0  0  0  0  0  0  0  0  0  0  0  0
    6.9400    1.4200   -0.2160 O   0  0  0  0  0  0  0  0  0  0  0  0
    7.7040   -1.3200   -0.4570 O   0  0  0  0  0  0  0  0  0  0  0  0
    5.7880   -0.4090   -1.1690 O   0  0  0  0  0  0  0  0  0  0  0  0
    0.3020    0.8550    1.1470 C   0  0  1  0  0  0  0  0  0  0  0  0
    0.7620    2.0900    0.6640 O   0  0  0  0  0  0  0  0  0  0  0  0
   -1.2170    0.8920    1.1700 C   0  0  1  0  0  0  0  0  0  0  0  0
   -1.6930    2.1850    1.2680 O   0  0  0  0  0  0  0  0  0  0  0  0
   -3.7120    1.0220   -1.0670 C   0  0  0  0  0  0  0  0  0  0  0  0
   -3.1290    1.8350   -1.8170 O   0  0  0  0  0  0  0  0  0  0  0  0
   -5.0940    1.0520   -0.8310 N   0  0  0  0  0  0  0  0  0  0  0  0
  2  1  1  6
  2  3  1  0
  2 25  1  0
  3  4  1  0
  4  5  1  0
  6  5  1  1
  5 23  1  0
  6  7  1  0
  6 21  1  0
  7  8  1  0
  8  9  1  1
  8 19  1  0
  9 10  1  0
 10 11  1  0
 11 12  1  0
 11 13  1  0
 11 14  1  0
 14 15  1  0
 15 16  1  0
 15 17  1  0
 15 18  1  0
 19 20  1  6
 19 21  1  0
 21 22  1  6
 23 24  2  0
 23 25  1  0
M  CHG  1   1   1
M  END
