
     RDKit          3D

 24 24  0  0  0  0  0  0  0  0999 V2000
    5.7410    1.8640    0.2540 C   0  0  0  0  0  0  0  0  0  0  0  0
    4.3500    2.2600   -0.2140 C   0  0  0  0  0  0  0  0  0  0  0  0
    3.3660    1.1270    0.0740 C   0  0  0  0  0  0  0  0  0  0  0  0
    3.8890   -0.3970   -0.8150 P   0  0  0  0  0  0  0  0  0  0  0  0
    2.5280   -1.1530   -1.5770 O   0  0  0  0  0  0  0  0  0  0  0  0
    1.9540   -2.0290   -0.6840 C   0  0  1  0  0  0  0  0  0  0  0  0
    0.6150   -1.5600   -0.4650 O   0  0  0  0  0  0  0  0  0  0  0  0
    0.1680   -1.1730    0.7720 C   0  0  0  0  0  0  0  0  0  0  0  0
    0.9020   -1.2090    1.7700 O   0  0  0  0  0  0  0  0  0  0  0  0
   -1.2170   -0.6990    0.9470 C   0  0  0  0  0  0  0  0  0  0  0  0
   -1.6560   -0.3120    2.1960 C   0  0  0  0  0  0  0  0  0  0  0  0
   -2.9480    0.1310    2.3630 C   0  0  0  0  0  0  0  0  0  0  0  0
   -3.8170    0.1950    1.2930 C   0  0  0  0  0  0  0  0  0  0  0  0
   -3.3590   -0.1950    0.0540 C   0  0  0  0  0  0  0  0  0  0  0  0
   -4.2280   -0.1310   -1.0900 N   0  0  0  0  0  0  0  0  0  0  0  0
   -5.4940    0.5450   -1.0770 C   0  0  0  0  0  0  0  0  0  0  0  0
   -5.3870    2.0270   -0.9450 C   0  0  0  0  0  0  0  0  0  0  0  0
   -4.6470    2.5300   -2.0380 O   0  0  0  0  0  0  0  0  0  0  0  0
   -2.0600   -0.6420   -0.1160 C   0  0  0  0  0  0  0  0  0  0  0  0
    1.8930   -3.4150   -1.1950 C   0  0  0  0  0  0  0  0  0  0  0  0
    1.3940   -4.3290   -0.4930 O   0  0  0  0  0  0  0  0  0  0  0  0
    2.3760   -3.7460   -2.4470 O   0  0  0  0  0  0  0  0  0  0  0  0
    4.7970   -1.8740    0.5420 P   0  0  0  0  0  0  0  0  0  0  0  0
    5.2650   -1.4370    1.9580 O   0  0  0  0  0  0  0  0  0  0  0  0
  1  2  1  0
  2  3  1  0
  3  4  1  0
  4  5  1  0
  4 23  1  0
  6  5  1  6
  6  7  1  0
  6 20  1  0
  7  8  1  0
  8  9  2  0
  8 10  1  0
 10 11  2  0
 10 19  1  0
 11 12  1  0
 12 13  2  0
 13 14  1  0
 14 15  1  0
 14 19  2  0
 15 16  1  0
 16 17  1  0
 17 18  1  0
 20 21  2  0
 20 22  1  0
 23 24  2  0
M  END
