
     RDKit          3D

 24 24  0  0  0  0  0  0  0  0999 V2000
   -4.7430    2.9840   -1.3600 C   0  0  0  0  0  0  0  0  0  0  0  0
   -3.6840    2.0160   -0.9740 C   0  0  0  0  0  0  0  0  0  0  0  0
   -3.7710    1.2390    0.1560 C   0  0  0  0  0  0  0  0  0  0  0  0
   -2.7560    0.3510    0.4870 C   0  0  0  0  0  0  0  0  0  0  0  0
   -1.6460    0.2350   -0.3120 C   0  0  0  0  0  0  0  0  0  0  0  0
   -0.5660   -0.7600    0.1600 C   0  0  1  0  0  0  0  0  0  0  0  0
   -0.4020   -0.5420    1.6050 C   0  0  0  0  0  0  0  0  0  0  0  0
   -1.2730   -2.0830   -0.1900 C   0  0  0  0  0  0  0  0  0  0  0  0
   -2.4670   -2.2210    0.5000 O   0  0  0  0  0  0  0  0  0  0  0  0
    0.6410   -0.5470   -0.6580 C   0  0  0  0  0  0  0  0  0  0  0  0
    1.8650   -1.2160   -0.3300 N   0  0  0  0  0  0  0  0  0  0  0  0
    2.2200   -2.5710   -0.8120 C   0  0  0  0  0  0  0  0  0  0  0  0
    1.9930   -3.8060    0.4820 P   0  0  0  0  0  0  0  0  0  0  0  0
    3.4840   -4.5240    1.0410 O   0  0  0  0  0  0  0  0  0  0  0  0
    0.9360   -3.4580    1.7690 O   0  0  0  0  0  0  0  0  0  0  0  0
    2.9340   -0.6330    0.3790 C   0  0  0  0  0  0  0  0  0  0  0  0
    3.8790   -1.3740    0.7570 O   0  0  0  0  0  0  0  0  0  0  0  0
    3.0670    0.7710    0.7290 C   0  0  0  0  0  0  0  0  0  0  0  0
    2.2990    1.6950    0.0830 O   0  0  0  0  0  0  0  0  0  0  0  0
    2.6170    3.3070    0.6090 P   0  0  0  0  0  0  0  0  0  0  0  0
    2.5570    4.4520   -0.7090 O   0  0  0  0  0  0  0  0  0  0  0  0
    4.1440    3.4840    1.4150 O   0  0  0  0  0  0  0  0  0  0  0  0
   -1.5200    0.9820   -1.4380 C   0  0  0  0  0  0  0  0  0  0  0  0
   -2.5480    1.8710   -1.7600 C   0  0  0  0  0  0  0  0  0  0  0  0
  1  2  1  0
  2  3  2  0
  2 24  1  0
  3  4  1  0
  4  5  2  0
  5  6  1  0
  5 23  1  0
  6  7  1  1
  6  8  1  0
  6 10  1  0
  8  9  1  0
 10 11  1  0
 11 12  1  0
 11 16  1  0
 12 13  1  0
 13 14  1  0
 13 15  1  0
 16 17  2  0
 16 18  1  0
 18 19  1  0
 19 20  1  0
 20 21  1  0
 20 22  1  0
 23 24  2  0
M  END
