
     RDKit          3D

 24 24  0  0  0  0  0  0  0  0999 V2000
   -6.9540   -2.4280   -1.5180 O   0  0  0  0  0  0  0  0  0  0  0  0
   -6.7590   -0.9720   -0.9770 P   0  0  0  0  0  0  0  0  0  0  0  0
   -5.7250   -0.7770    0.5420 C   0  0  0  0  0  0  0  0  0  0  0  0
   -6.2500   -0.8950    1.7920 C   0  0  0  0  0  0  0  0  0  0  0  0
   -5.4880   -0.7520    2.9320 C   0  0  0  0  0  0  0  0  0  0  0  0
   -4.1530   -0.4810    2.7660 C   0  0  0  0  0  0  0  0  0  0  0  0
   -3.6040   -0.3580    1.5110 C   0  0  0  0  0  0  0  0  0  0  0  0
   -4.3560   -0.4980    0.3430 C   0  0  0  0  0  0  0  0  0  0  0  0
   -3.9190   -0.4010   -0.8930 O   0  0  0  0  0  0  0  0  0  0  0  0
   -2.9190   -0.1780   -1.7000 C   0  0  0  0  0  0  0  0  0  0  0  0
   -2.2040    1.1350   -1.7770 C   0  0  2  0  0  0  0  0  0  0  0  0
   -1.2370    0.9880   -2.7950 O   0  0  0  0  0  0  0  0  0  0  0  0
   -1.5410    1.6300   -0.5610 C   0  0  0  0  0  0  0  0  0  0  0  0
   -0.5490    0.8150   -0.0330 O   0  0  0  0  0  0  0  0  0  0  0  0
    0.6330    0.5230   -0.6420 C   0  0  0  0  0  0  0  0  0  0  0  0
    0.9960    0.9530   -1.7460 O   0  0  0  0  0  0  0  0  0  0  0  0
    1.6150   -0.3450   -0.0400 N   0  0  0  0  0  0  0  0  0  0  0  0
    2.8420   -0.6810   -0.6140 C   0  0  0  0  0  0  0  0  0  0  0  0
    3.8350    0.3400   -0.9390 C   0  0  0  0  0  0  0  0  0  0  0  0
    4.2800    1.1260    0.2820 C   0  0  0  0  0  0  0  0  0  0  0  0
    4.8900    0.2080    1.2870 C   0  0  0  0  0  0  0  0  0  0  0  0
    6.3630   -0.6320    0.5030 P   0  0  0  0  0  0  0  0  0  0  0  0
    6.8340   -1.9910    1.5000 O   0  0  0  0  0  0  0  0  0  0  0  0
    7.6830    0.4960    0.4160 O   0  0  0  0  0  0  0  0  0  0  0  0
  1  2  2  0
  2  3  1  0
  3  4  2  0
  3  8  1  0
  4  5  1  0
  5  6  2  0
  6  7  1  0
  7  8  2  0
  8  9  1  0
  9 10  1  0
 10 11  1  0
 11 12  1  6
 11 13  1  0
 13 14  1  0
 14 15  1  0
 15 16  2  0
 15 17  1  0
 17 18  1  0
 18 19  1  0
 19 20  1  0
 20 21  1  0
 21 22  1  0
 22 23  1  0
 22 24  1  0
M  END
