
     RDKit          3D

 24 24  0  0  0  0  0  0  0  0999 V2000
   -4.0190   -4.5950   -0.2960 C   0  0  0  0  0  0  0  0  0  0  0  0
   -3.8100   -3.0720   -0.3480 C   0  0  0  0  0  0  0  0  0  0  0  0
   -2.4630   -2.8640   -0.3910 O   0  0  0  0  0  0  0  0  0  0  0  0
   -2.0490   -1.5400   -0.4550 C   0  0  0  0  0  0  0  0  0  0  0  0
   -2.4860   -0.7270    0.7080 C   0  0  0  0  0  0  0  0  0  0  0  0
   -2.0860    0.7010    0.6880 C   0  0  2  0  0  0  0  0  0  0  0  0
   -0.6150    0.8780    0.6360 C   0  0  0  0  0  0  0  0  0  0  0  0
    0.0310    1.2140    1.6920 O   0  0  0  0  0  0  0  0  0  0  0  0
    0.1760    0.6980   -0.5260 N   0  0  0  0  0  0  0  0  0  0  0  0
    1.6110    0.8570   -0.5750 C   0  0  0  0  0  0  0  0  0  0  0  0
    2.2560   -0.1390    0.3740 C   0  0  0  0  0  0  0  0  0  0  0  0
    3.7710    0.0170    0.3280 C   0  0  0  0  0  0  0  0  0  0  0  0
    4.3380   -0.3020   -1.3980 P   0  0  0  0  0  0  0  0  0  0  0  0
    4.1100    1.1080   -2.3920 O   0  0  0  0  0  0  0  0  0  0  0  0
    5.9740   -0.8530   -1.4580 O   0  0  0  0  0  0  0  0  0  0  0  0
    6.4400   -1.0580   -0.1490 C   0  0  0  0  0  0  0  0  0  0  0  0
    7.8610   -1.5400   -0.1330 C   0  0  0  0  0  0  0  0  0  0  0  0
   -2.6240    1.3330    1.9600 C   0  0  0  0  0  0  0  0  0  0  0  0
   -2.1920    2.6120    2.1660 O   0  0  0  0  0  0  0  0  0  0  0  0
   -2.1670    3.5830    0.7510 P   0  0  0  0  0  0  0  0  0  0  0  0
   -3.2940    4.8600    0.7520 O   0  0  0  0  0  0  0  0  0  0  0  0
   -4.4660    4.6010    0.0770 C   0  0  0  0  0  0  0  0  0  0  0  0
   -2.1050    2.6770   -0.6940 O   0  0  0  0  0  0  0  0  0  0  0  0
   -2.7170    1.4210   -0.4840 C   0  0  0  0  0  0  0  0  0  0  0  0
  1  2  1  0
  2  3  1  0
  3  4  1  0
  4  5  1  0
  6  5  1  1
  6  7  1  0
  6 18  1  0
  6 24  1  0
  7  8  2  0
  7  9  1  0
  9 10  1  0
 10 11  1  0
 11 12  1  0
 12 13  1  0
 13 14  1  0
 13 15  1  0
 15 16  1  0
 16 17  1  0
 18 19  1  0
 19 20  1  0
 20 21  1  0
 20 23  1  0
 21 22  1  0
 23 24  1  0
M  END
