
     RDKit          3D

 24 24  0  0  0  0  0  0  0  0999 V2000
    7.5980    0.6710    1.5870 C   0  0  0  0  0  0  0  0  0  0  0  0
    6.3110    1.0610    0.8480 C   0  0  0  0  0  0  0  0  0  0  0  0
    6.2530    0.1880   -0.3690 C   0  0  0  0  0  0  0  0  0  0  0  0
    5.0830    0.4210   -1.2340 C   0  0  0  0  0  0  0  0  0  0  0  0
    5.1630    1.3500   -2.0860 O   0  0  0  0  0  0  0  0  0  0  0  0
    3.8830   -0.3920   -1.1030 C   0  0  0  0  0  0  0  0  0  0  0  0
    3.7220   -1.4070   -0.1840 C   0  0  0  0  0  0  0  0  0  0  0  0
    2.4510   -1.9050   -0.3860 C   0  0  0  0  0  0  0  0  0  0  0  0
    1.8350   -1.2100   -1.4140 C   0  0  0  0  0  0  0  0  0  0  0  0
    0.5460   -1.4840   -1.8470 O   0  0  0  0  0  0  0  0  0  0  0  0
   -0.4800   -0.6920   -1.3570 C   0  0  0  0  0  0  0  0  0  0  0  0
   -0.1550    0.2350   -0.5500 O   0  0  0  0  0  0  0  0  0  0  0  0
   -1.9280   -0.8810   -1.7300 C   0  0  0  0  0  0  0  0  0  0  0  0
   -2.7320    0.1440   -1.0330 C   0  0  0  0  0  0  0  0  0  0  0  0
   -2.4840    1.3750   -1.1040 O   0  0  0  0  0  0  0  0  0  0  0  0
   -3.8110   -0.2570   -0.2580 O   0  0  0  0  0  0  0  0  0  0  0  0
   -4.7590    0.9670    0.5760 P   0  0  0  0  0  0  0  0  0  0  0  0
   -5.3690    2.2650   -0.5980 C   0  0  0  0  0  0  0  0  0  0  0  0
   -6.9850    2.9160    0.0420 P   0  0  0  0  0  0  0  0  0  0  0  0
   -8.2230    1.9870   -0.0270 O   0  0  0  0  0  0  0  0  0  0  0  0
   -6.1190    0.2820    1.3850 O   0  0  0  0  0  0  0  0  0  0  0  0
   -5.8810   -1.0680    1.6250 C   0  0  0  0  0  0  0  0  0  0  0  0
   -7.1100   -1.6280    2.3410 C   0  0  0  0  0  0  0  0  0  0  0  0
    2.7380   -0.3060   -1.8180 N   0  0  0  0  0  0  0  0  0  0  0  0
  1  2  1  0
  2  3  1  0
  3  4  1  0
  4  5  2  0
  4  6  1  0
  6  7  2  0
  6 24  1  0
  7  8  1  0
  8  9  2  0
  9 10  1  0
  9 24  1  0
 10 11  1  0
 11 12  2  0
 11 13  1  0
 13 14  1  0
 14 15  2  0
 14 16  1  0
 16 17  1  0
 17 18  1  0
 17 21  1  0
 18 19  1  0
 19 20  2  0
 21 22  1  0
 22 23  1  0
M  END
