
     RDKit          3D

 24 24  0  0  0  0  0  0  0  0999 V2000
   -4.8910    3.3320    0.7030 C   0  0  0  0  0  0  0  0  0  0  0  0
   -3.4010    3.0450    0.8080 C   0  0  0  0  0  0  0  0  0  0  0  0
   -3.1650    1.7410    0.3490 O   0  0  0  0  0  0  0  0  0  0  0  0
   -1.4780    1.4090    0.4650 P   0  0  0  0  0  0  0  0  0  0  0  0
   -0.6510    2.5120    1.5000 O   0  0  0  0  0  0  0  0  0  0  0  0
   -1.2670   -0.3460    1.0430 C   0  0  1  0  0  0  0  0  0  0  0  0
   -2.3080   -1.1580    0.3610 C   0  0  0  0  0  0  0  0  0  0  0  0
   -3.2400   -1.8550    1.0950 C   0  0  0  0  0  0  0  0  0  0  0  0
   -4.1920   -2.5970    0.4470 C   0  0  0  0  0  0  0  0  0  0  0  0
   -4.2460   -2.6680   -0.9260 C   0  0  0  0  0  0  0  0  0  0  0  0
   -5.2450   -3.4460   -1.5630 N   0  0  0  0  0  0  0  0  0  0  0  0
   -3.3130   -1.9700   -1.6490 C   0  0  0  0  0  0  0  0  0  0  0  0
   -2.3530   -1.2210   -1.0080 C   0  0  0  0  0  0  0  0  0  0  0  0
    0.4270   -0.9790    0.6250 P   0  0  0  0  0  0  0  0  0  0  0  0
    0.2800   -2.1660   -0.6100 O   0  0  0  0  0  0  0  0  0  0  0  0
    1.4630    0.3390    0.1180 O   0  0  0  0  0  0  0  0  0  0  0  0
    2.6050   -0.2280   -0.4000 C   0  0  0  0  0  0  0  0  0  0  0  0
    3.6110    0.7820   -0.8860 C   0  0  0  0  0  0  0  0  0  0  0  0
    4.8070   -0.0140   -1.4230 C   0  0  0  0  0  0  0  0  0  0  0  0
    5.3240   -0.7810   -0.4130 O   0  0  0  0  0  0  0  0  0  0  0  0
    5.7800   -0.1230    0.6920 C   0  0  0  0  0  0  0  0  0  0  0  0
    6.8840    0.8360    0.4400 C   0  0  0  0  0  0  0  0  0  0  0  0
    7.3750    1.5110    1.3960 O   0  0  0  0  0  0  0  0  0  0  0  0
    7.4550    1.0720   -0.8010 O   0  0  0  0  0  0  0  0  0  0  0  0
  1  2  1  0
  2  3  1  0
  3  4  1  0
  4  5  1  0
  6  4  1  6
  6  7  1  0
  6 14  1  0
  7  8  2  0
  7 13  1  0
  8  9  1  0
  9 10  2  0
 10 11  1  0
 10 12  1  0
 12 13  2  0
 14 15  1  0
 14 16  1  0
 16 17  1  0
 17 18  1  0
 18 19  1  0
 19 20  1  0
 20 21  1  0
 21 22  1  0
 22 23  2  0
 22 24  1  0
M  END
