
     RDKit          3D

 20 20  0  0  0  0  0  0  0  0999 V2000
   -0.1650   -1.9740    0.7840 O   0  0  0  0  0  0  0  0  0  0  0  0
   -0.5970   -1.1020   -0.0040 C   0  0  0  0  0  0  0  0  0  0  0  0
    0.1270   -0.6090   -1.2050 C   0  0  0  0  0  0  0  0  0  0  0  0
    1.4320   -1.0550   -1.3420 O   0  0  0  0  0  0  0  0  0  0  0  0
    2.3430   -0.4460   -0.3630 C   0  0  0  0  0  0  0  0  0  0  0  0
    1.9130    0.3990    0.4740 O   0  0  0  0  0  0  0  0  0  0  0  0
    3.6400   -0.8170   -0.3960 O   0  0  0  0  0  0  0  0  0  0  0  0
    4.6300   -0.2970    0.3600 C   0  0  0  0  0  0  0  0  0  0  0  0
    4.9530    1.1760    0.0840 C   0  0  0  0  0  0  0  0  0  0  0  0
    6.0890    1.3000    1.0080 O   0  0  0  0  0  0  0  0  0  0  0  0
    7.1260    1.5240    0.2480 O   0  0  0  0  0  0  0  0  0  0  0  0
   -1.9040   -0.5520    0.2050 N   0  0  0  0  0  0  0  0  0  0  0  0
   -3.0100   -1.3830    0.6420 C   0  0  0  0  0  0  0  0  0  0  0  0
   -2.7020   -2.4990    1.1210 O   0  0  0  0  0  0  0  0  0  0  0  0
   -4.3110   -0.8020    0.4660 C   0  0  0  0  0  0  0  0  0  0  0  0
   -4.7390    0.3690    0.1630 C   0  0  0  0  0  0  0  0  0  0  0  0
   -4.0090    1.5210   -0.0910 O   0  0  0  0  0  0  0  0  0  0  0  0
   -6.3060    0.3030    0.0930 C   0  0  0  0  0  0  0  0  0  0  0  0
   -6.3220   -1.0910   -0.4390 O   0  0  0  0  0  0  0  0  0  0  0  0
   -5.4860   -1.6510    0.6200 O   0  0  0  0  0  0  0  0  0  0  0  0
  1  2  2  0
  2  3  1  0
  2 12  1  0
  3  4  1  0
  4  5  1  0
  5  6  2  0
  5  7  1  0
  7  8  1  0
  8  9  1  0
  9 10  1  0
 10 11  1  0
 12 13  1  0
 13 14  2  0
 13 15  1  0
 15 16  2  0
 15 20  1  0
 16 17  1  0
 16 18  1  0
 18 19  1  0
 19 20  1  0
M  END
