
     RDKit          3D

 23 23  0  0  0  0  0  0  0  0999 V2000
    6.6450   -2.5510    0.3720 C   0  0  0  0  0  0  0  0  0  0  0  0
    5.1510   -2.5460    0.1920 C   0  0  0  0  0  0  0  0  0  0  0  0
    4.5260   -0.8500    0.3960 S   0  0  0  0  0  0  0  0  0  0  0  0
    2.7300   -0.8290    0.1820 C   0  0  0  0  0  0  0  0  0  0  0  0
    2.1110   -1.8790   -0.0670 O   0  0  0  0  0  0  0  0  0  0  0  0
    2.0620    0.4050    0.3040 N   0  0  0  0  0  0  0  0  0  0  0  0
    0.6760    0.6250    0.1800 C   0  0  0  0  0  0  0  0  0  0  0  0
   -0.2320   -0.4050    0.1870 C   0  0  0  0  0  0  0  0  0  0  0  0
   -1.6070   -0.1860    0.1290 C   0  0  0  0  0  0  0  0  0  0  0  0
   -2.5200   -1.3370    0.1400 C   0  0  0  0  0  0  0  0  0  0  0  0
   -2.0470   -2.5040    0.2030 O   0  0  0  0  0  0  0  0  0  0  0  0
   -3.8890   -1.1610    0.0840 O   0  0  0  0  0  0  0  0  0  0  0  0
   -4.8080   -2.2140    0.0900 C   0  0  0  0  0  0  0  0  0  0  0  0
   -4.6090   -3.1310   -1.0880 C   0  0  0  0  0  0  0  0  0  0  0  0
   -5.5890   -4.1420   -0.9670 O   0  0  0  0  0  0  0  0  0  0  0  0
   -2.0360    1.1030    0.0640 C   0  0  0  0  0  0  0  0  0  0  0  0
   -3.4920    1.4120    0.0010 C   0  0  0  0  0  0  0  0  0  0  0  0
   -1.1520    2.1780    0.0540 C   0  0  0  0  0  0  0  0  0  0  0  0
    0.1880    1.9580    0.1100 C   0  0  0  0  0  0  0  0  0  0  0  0
    1.1360    3.0040    0.0380 N   0  0  0  0  0  0  0  0  0  0  0  0
    0.8480    4.3670    0.1470 C   0  0  0  0  0  0  0  0  0  0  0  0
    1.9150    5.4250    0.0530 C   0  0  0  0  0  0  0  0  0  0  0  0
   -0.2930    4.7800    0.3260 O   0  0  0  0  0  0  0  0  0  0  0  0
  1  2  1  0
  2  3  1  0
  3  4  1  0
  4  5  2  0
  4  6  1  0
  6  7  1  0
  7  8  2  0
  7 19  1  0
  8  9  1  0
  9 10  1  0
  9 16  2  0
 10 11  2  0
 10 12  1  0
 12 13  1  0
 13 14  1  0
 14 15  1  0
 16 17  1  0
 16 18  1  0
 18 19  2  0
 19 20  1  0
 20 21  1  0
 21 22  1  0
 21 23  2  0
M  END
