
     RDKit          3D

 23 23  0  0  0  0  0  0  0  0999 V2000
   -4.9890   -0.0560    2.7500 C   0  0  0  0  0  0  0  0  0  0  0  0
   -4.1810   -0.2840    1.5160 C   0  0  0  0  0  0  0  0  0  0  0  0
   -4.9310    0.1640    0.3080 C   0  0  0  0  0  0  0  0  0  0  0  0
   -4.1060   -0.0390   -0.9780 C   0  0  0  0  0  0  0  0  0  0  0  0
   -2.7940    0.7530   -0.8550 C   0  0  0  0  0  0  0  0  0  0  0  0
   -2.9810    2.0570   -0.2830 C   0  0  0  0  0  0  0  0  0  0  0  0
   -1.3780    2.5830   -0.0040 S   0  0  0  0  0  0  0  0  0  0  0  0
   -0.4660    1.0670   -0.6560 C   0  0  0  0  0  0  0  0  0  0  0  0
    0.8740    1.2340   -0.5350 N   0  0  0  0  0  0  0  0  0  0  0  0
    1.9760    0.6210   -1.1360 C   0  0  0  0  0  0  0  0  0  0  0  0
    1.8330   -0.2440   -1.9840 O   0  0  0  0  0  0  0  0  0  0  0  0
    3.3680    0.9880   -0.7710 C   0  0  0  0  0  0  0  0  0  0  0  0
    3.5310    1.9170    0.0440 O   0  0  0  0  0  0  0  0  0  0  0  0
    4.4700    0.3630   -1.2790 O   0  0  0  0  0  0  0  0  0  0  0  0
    5.7910    0.6960   -0.9630 C   0  0  0  0  0  0  0  0  0  0  0  0
    6.1530    0.6120    0.4870 C   0  0  0  0  0  0  0  0  0  0  0  0
    5.9510   -0.7490    1.0140 C   0  0  0  0  0  0  0  0  0  0  0  0
    6.1060   -1.0110    2.3900 N   0  0  0  0  0  0  0  0  0  0  0  0
    5.6390   -1.6620    0.2190 O   0  0  0  0  0  0  0  0  0  0  0  0
   -1.5290    0.3500   -1.0040 C   0  0  0  0  0  0  0  0  0  0  0  0
   -1.2320   -1.0290   -1.5280 C   0  0  0  0  0  0  0  0  0  0  0  0
   -2.2480   -1.7840   -2.2770 C   0  0  0  0  0  0  0  0  0  0  0  0
   -0.1500   -1.5970   -1.3880 O   0  0  0  0  0  0  0  0  0  0  0  0
  1  2  1  0
  2  3  1  0
  3  4  1  0
  4  5  1  0
  5  6  2  0
  5 20  1  0
  6  7  1  0
  7  8  1  0
  8  9  1  0
  8 20  2  0
  9 10  1  0
 10 11  2  0
 10 12  1  0
 12 13  2  0
 12 14  1  0
 14 15  1  0
 15 16  1  0
 16 17  1  0
 17 18  1  0
 17 19  2  0
 20 21  1  0
 21 22  1  0
 21 23  2  0
M  END
