
     RDKit          3D

 22 22  0  0  0  0  0  0  0  0999 V2000
    7.9390   -0.1790   -0.0490 C   0  0  0  0  0  0  0  0  0  0  0  0
    6.4400   -0.2600   -0.0340 C   0  0  0  0  0  0  0  0  0  0  0  0
    5.9840   -1.5080    0.4510 O   0  0  0  0  0  0  0  0  0  0  0  0
    5.6340    0.6780   -0.4120 C   0  0  0  0  0  0  0  0  0  0  0  0
    6.2240    1.9780   -0.9170 C   0  0  0  0  0  0  0  0  0  0  0  0
    7.6110    2.0690   -0.9380 N   0  0  0  0  0  0  0  0  0  0  0  0
    4.2470    0.6530   -0.4180 N   0  0  0  0  0  0  0  0  0  0  0  0
    3.3450   -0.3400   -0.0380 C   0  0  0  0  0  0  0  0  0  0  0  0
    3.7470   -1.4200    0.3920 O   0  0  0  0  0  0  0  0  0  0  0  0
    1.8420   -0.1100   -0.1450 C   0  0  0  0  0  0  0  0  0  0  0  0
    1.0260   -1.5940    0.4290 S   0  0  0  0  0  0  0  0  0  0  0  0
   -0.7350   -1.3630    0.3190 C   0  0  0  0  0  0  0  0  0  0  0  0
   -1.4830   -2.3550   -0.1080 C   0  0  0  0  0  0  0  0  0  0  0  0
   -2.9390   -2.2030   -0.2130 C   0  0  0  0  0  0  0  0  0  0  0  0
   -3.6430   -3.1600   -0.6230 O   0  0  0  0  0  0  0  0  0  0  0  0
   -3.5900   -1.0360    0.1220 O   0  0  0  0  0  0  0  0  0  0  0  0
   -4.9960   -0.8600    0.0300 C   0  0  1  0  0  0  0  0  0  0  0  0
   -5.6500   -0.6060    1.3410 C   0  0  0  0  0  0  0  0  0  0  0  0
   -6.3150    0.7130    1.4780 C   0  0  0  0  0  0  0  0  0  0  0  0
   -7.1590    1.1260    0.3230 C   0  0  0  0  0  0  0  0  0  0  0  0
   -6.8090    0.4350   -0.9670 C   0  0  0  0  0  0  0  0  0  0  0  0
   -5.3250    0.1640   -1.0270 C   0  0  0  0  0  0  0  0  0  0  0  0
  1  2  1  0
  2  3  1  0
  2  4  2  3
  4  5  1  0
  4  7  1  0
  5  6  1  0
  7  8  1  0
  8  9  2  0
  8 10  1  0
 10 11  1  0
 11 12  1  0
 12 13  2  3
 13 14  1  0
 14 15  2  0
 14 16  1  0
 17 16  1  1
 17 18  1  0
 17 22  1  0
 18 19  1  0
 19 20  1  0
 20 21  1  0
 21 22  1  0
M  END
