
     RDKit          3D

 21 22  0  0  0  0  0  0  0  0999 V2000
    3.4590   -2.5860   -0.9400 C   0  0  0  0  0  0  0  0  0  0  0  0
    3.0060   -1.2740   -0.9090 O   0  0  0  0  0  0  0  0  0  0  0  0
    1.7480   -1.2220   -0.3140 C   0  0  2  0  0  0  0  0  0  0  0  0
    0.8260   -0.7460   -1.2760 O   0  0  0  0  0  0  0  0  0  0  0  0
   -0.4490   -0.8160   -0.7810 C   0  0  2  0  0  0  0  0  0  0  0  0
   -1.4170   -0.3030   -1.8270 C   0  0  0  0  0  0  0  0  0  0  0  0
   -2.2480    0.6130   -1.1700 O   0  0  0  0  0  0  0  0  0  0  0  0
   -2.8710    0.0760   -0.0750 C   0  0  2  0  0  0  0  0  0  0  0  0
   -3.7370   -1.1180   -0.4210 C   0  0  0  0  0  0  0  0  0  0  0  0
   -3.6960    1.1310    0.5650 C   0  0  0  0  0  0  0  0  0  0  0  0
   -3.7390    2.2900    0.0920 O   0  0  0  0  0  0  0  0  0  0  0  0
   -4.4530    0.8920    1.7080 O   0  0  0  0  0  0  0  0  0  0  0  0
   -1.9750   -0.3710    0.9140 O   0  0  0  0  0  0  0  0  0  0  0  0
   -0.6970   -0.0170    0.4730 C   0  0  1  0  0  0  0  0  0  0  0  0
    0.3630   -0.3540    1.4720 C   0  0  2  0  0  0  0  0  0  0  0  0
    0.2650    0.3960    2.6370 O   0  0  0  0  0  0  0  0  0  0  0  0
    1.7020   -0.1870    0.7950 C   0  0  2  0  0  0  0  0  0  0  0  0
    1.7450    1.1130    0.1390 N   0  0  0  0  0  0  0  0  0  0  0  0
    2.7440    2.0800    0.4490 C   0  0  0  0  0  0  0  0  0  0  0  0
    2.7530    3.3950   -0.2440 C   0  0  0  0  0  0  0  0  0  0  0  0
    3.6050    1.7850    1.3160 O   0  0  0  0  0  0  0  0  0  0  0  0
  1  2  1  0
  3  2  1  6
  3  4  1  0
  3 17  1  0
  4  5  1  0
  5  6  1  6
  5 14  1  0
  6  7  1  0
  7  8  1  0
  8  9  1  6
  8 10  1  0
  8 13  1  0
 10 11  2  0
 10 12  1  0
 14 13  1  1
 14 15  1  0
 15 16  1  1
 15 17  1  0
 17 18  1  6
 18 19  1  0
 19 20  1  0
 19 21  2  0
M  END
