
     RDKit          3D

 22 22  0  0  0  0  0  0  0  0999 V2000
   -4.1710    1.6550   -0.4700 C   0  0  0  0  0  0  0  0  0  0  0  0
   -3.7570    0.9180    0.7870 C   0  0  2  0  0  0  0  0  0  0  0  0
   -3.8540    1.9290    1.9230 C   0  0  0  0  0  0  0  0  0  0  0  0
   -2.0640    0.3270    0.7190 S   0  0  0  0  0  0  0  0  0  0  0  0
   -1.8080   -0.9440   -0.5260 C   0  0  2  0  0  0  0  0  0  0  0  0
   -1.9830   -0.4330   -1.9390 C   0  0  0  0  0  0  0  0  0  0  0  0
   -2.7210   -2.1290   -0.3380 C   0  0  0  0  0  0  0  0  0  0  0  0
   -0.3870   -1.4580   -0.3350 C   0  0  0  0  0  0  0  0  0  0  0  0
   -0.2300   -2.6650   -0.0790 O   0  0  0  0  0  0  0  0  0  0  0  0
    0.7010   -0.5830   -0.4480 N   0  0  0  0  0  0  0  0  0  0  0  0
    2.0540   -0.9530   -0.2920 C   0  0  0  0  0  0  0  0  0  0  0  0
    2.5140   -2.2170   -0.0190 C   0  0  0  0  0  0  0  0  0  0  0  0
    3.8750   -2.4380    0.1060 C   0  0  0  0  0  0  0  0  0  0  0  0
    4.8170   -1.4440   -0.0290 C   0  0  0  0  0  0  0  0  0  0  0  0
    6.2020   -1.7160    0.1080 N   0  0  0  0  0  0  0  0  0  0  0  0
    4.3200   -0.1880   -0.3030 C   0  0  0  0  0  0  0  0  0  0  0  0
    2.9900    0.0900   -0.4370 C   0  0  0  0  0  0  0  0  0  0  0  0
    2.5430    1.3610   -0.7100 O   0  0  0  0  0  0  0  0  0  0  0  0
    2.2870    2.2550    0.3300 C   0  0  0  0  0  0  0  0  0  0  0  0
    2.4760    1.8680    1.4990 O   0  0  0  0  0  0  0  0  0  0  0  0
    1.8160    3.5850   -0.0140 C   0  0  0  0  0  0  0  0  0  0  0  0
    1.6320    3.9400   -1.2000 O   0  0  0  0  0  0  0  0  0  0  0  0
  2  1  1  6
  2  3  1  0
  2  4  1  0
  4  5  1  0
  5  6  1  6
  5  7  1  0
  5  8  1  0
  8  9  2  0
  8 10  1  0
 10 11  1  0
 11 12  2  0
 11 17  1  0
 12 13  1  0
 13 14  2  0
 14 15  1  0
 14 16  1  0
 16 17  2  0
 17 18  1  0
 18 19  1  0
 19 20  2  0
 19 21  1  0
 21 22  2  0
M  END
