
     RDKit          3D

 23 23  0  0  0  0  0  0  0  0999 V2000
   -4.3700   -2.4120   -0.7100 C   0  0  0  0  0  0  0  0  0  0  0  0
   -4.6370   -0.9350   -0.7380 C   0  0  0  0  0  0  0  0  0  0  0  0
   -5.0220   -0.4920    0.6550 C   0  0  0  0  0  0  0  0  0  0  0  0
   -3.9340   -0.7920    1.5150 O   0  0  0  0  0  0  0  0  0  0  0  0
   -2.7030   -0.1500    1.1830 C   0  0  0  0  0  0  0  0  0  0  0  0
   -1.7430   -0.9510    0.8530 C   0  0  0  0  0  0  0  0  0  0  0  0
   -0.4190   -0.5320    0.4820 C   0  0  0  0  0  0  0  0  0  0  0  0
    0.4670   -1.4560    0.1680 C   0  0  0  0  0  0  0  0  0  0  0  0
    1.8170   -1.0750   -0.2140 C   0  0  0  0  0  0  0  0  0  0  0  0
    2.5960   -2.0470   -0.4990 O   0  0  0  0  0  0  0  0  0  0  0  0
    2.2940    0.2510   -0.2840 N   0  0  0  0  0  0  0  0  0  0  0  0
    3.6490    0.5110   -0.6620 C   0  0  0  0  0  0  0  0  0  0  0  0
    3.9420    1.7540   -1.1510 C   0  0  0  0  0  0  0  0  0  0  0  0
    5.6530    1.7310   -1.4710 S   0  0  0  0  0  0  0  0  0  0  0  0
    5.9090    0.0790   -0.9460 C   0  0  0  0  0  0  0  0  0  0  0  0
    7.1880   -0.6440   -0.9400 C   0  0  0  0  0  0  0  0  0  0  0  0
    8.3380    0.0470   -1.4000 N   0  0  0  0  0  0  0  0  0  0  0  0
    7.2300   -1.8180   -0.5400 O   0  0  0  0  0  0  0  0  0  0  0  0
    4.6740   -0.3350   -0.5650 C   0  0  0  0  0  0  0  0  0  0  0  0
   -2.6600    1.2980    1.2490 C   0  0  0  0  0  0  0  0  0  0  0  0
   -1.6420    1.9420    0.9810 O   0  0  0  0  0  0  0  0  0  0  0  0
   -3.7780    2.0450    1.6240 O   0  0  0  0  0  0  0  0  0  0  0  0
   -3.7520    3.4580    1.6940 C   0  0  0  0  0  0  0  0  0  0  0  0
  1  2  1  0
  2  3  1  0
  3  4  1  0
  4  5  1  0
  5  6  2  3
  5 20  1  0
  6  7  1  0
  7  8  2  3
  8  9  1  0
  9 10  2  0
  9 11  1  0
 11 12  1  0
 12 13  2  0
 12 19  1  0
 13 14  1  0
 14 15  1  0
 15 16  1  0
 15 19  2  0
 16 17  1  0
 16 18  2  0
 20 21  2  0
 20 22  1  0
 22 23  1  0
M  END
