
     RDKit          3D

 23 23  0  0  0  0  0  0  0  0999 V2000
    5.6180    1.6710   -1.2240 C   0  0  0  0  0  0  0  0  0  0  0  0
    5.6610    0.9470   -2.5140 C   0  0  0  0  0  0  0  0  0  0  0  0
    4.8480   -0.0380   -2.8110 C   0  0  0  0  0  0  0  0  0  0  0  0
    3.8160   -0.5130   -1.8850 C   0  0  0  0  0  0  0  0  0  0  0  0
    3.7030    0.0350   -0.7780 O   0  0  0  0  0  0  0  0  0  0  0  0
    2.9410   -1.5750   -2.2070 N   0  0  0  0  0  0  0  0  0  0  0  0
    1.9140   -2.0470   -1.2900 C   0  0  0  0  0  0  0  0  0  0  0  0
    0.9660   -0.9560   -0.9680 C   0  0  0  0  0  0  0  0  0  0  0  0
    1.0760    0.1930   -1.4420 O   0  0  0  0  0  0  0  0  0  0  0  0
   -0.1080   -1.2730   -0.0710 N   0  0  0  0  0  0  0  0  0  0  0  0
   -1.0490   -0.2330    0.2620 C   0  0  0  0  0  0  0  0  0  0  0  0
   -1.0150    1.4040   -0.3200 S   0  0  0  0  0  0  0  0  0  0  0  0
   -2.4520    1.9770    0.5330 C   0  0  0  0  0  0  0  0  0  0  0  0
   -2.9500    3.3540    0.4230 C   0  0  0  0  0  0  0  0  0  0  0  0
   -4.1270    3.4940   -0.4350 C   0  0  0  0  0  0  0  0  0  0  0  0
   -4.5820    2.5010   -0.9700 O   0  0  0  0  0  0  0  0  0  0  0  0
   -2.8530    0.8960    1.1930 C   0  0  0  0  0  0  0  0  0  0  0  0
   -4.1010    1.0000    2.0710 C   0  0  0  0  0  0  0  0  0  0  0  0
   -2.1790   -0.2790    1.1010 C   0  0  0  0  0  0  0  0  0  0  0  0
   -2.5770   -1.5390    1.8180 C   0  0  0  0  0  0  0  0  0  0  0  0
   -3.5820   -1.5430    2.5520 O   0  0  0  0  0  0  0  0  0  0  0  0
   -1.8620   -2.6850    1.6860 O   0  0  0  0  0  0  0  0  0  0  0  0
   -2.1230   -3.9090    2.2910 C   0  0  0  0  0  0  0  0  0  0  0  0
  1  2  1  0
  2  3  2  3
  3  4  1  0
  4  5  2  0
  4  6  1  0
  6  7  1  0
  7  8  1  0
  8  9  2  0
  8 10  1  0
 10 11  1  0
 11 12  1  0
 11 19  2  0
 12 13  1  0
 13 14  1  0
 13 17  2  0
 14 15  1  0
 15 16  2  0
 17 18  1  0
 17 19  1  0
 19 20  1  0
 20 21  2  0
 20 22  1  0
 22 23  1  0
M  END
