
     RDKit          3D

 23 23  0  0  0  0  0  0  0  0999 V2000
   -6.1630    0.7630   -1.5200 C   0  0  0  0  0  0  0  0  0  0  0  0
   -4.7960    0.8610   -1.0010 C   0  0  0  0  0  0  0  0  0  0  0  0
   -3.8910    1.1880   -1.7490 O   0  0  0  0  0  0  0  0  0  0  0  0
   -4.4280    0.5800    0.4210 C   0  0  2  0  0  0  0  0  0  0  0  0
   -4.8210   -0.8210    0.8250 C   0  0  0  0  0  0  0  0  0  0  0  0
   -5.2010    1.5720    1.2670 C   0  0  0  0  0  0  0  0  0  0  0  0
   -3.0280    0.7500    0.6620 N   0  0  0  0  0  0  0  0  0  0  0  0
   -2.0120    0.0130   -0.0040 C   0  0  0  0  0  0  0  0  0  0  0  0
   -2.3440   -0.8430   -0.8590 O   0  0  0  0  0  0  0  0  0  0  0  0
   -0.5880    0.2380    0.2910 C   0  0  0  0  0  0  0  0  0  0  0  0
    0.3250   -0.6330   -0.5110 C   0  0  0  0  0  0  0  0  0  0  0  0
    1.7630   -0.3330   -0.1410 C   0  0  0  0  0  0  0  0  0  0  0  0
    1.9180    0.5430    0.7230 O   0  0  0  0  0  0  0  0  0  0  0  0
    2.8190   -1.0180   -0.7550 N   0  0  0  0  0  0  0  0  0  0  0  0
    4.1730   -0.7930   -0.4620 C   0  0  0  0  0  0  0  0  0  0  0  0
    4.6590    0.1100    0.4460 C   0  0  0  0  0  0  0  0  0  0  0  0
    6.0320    0.2720    0.6780 C   0  0  0  0  0  0  0  0  0  0  0  0
    6.6040    1.4450    1.8550 S   0  0  0  0  0  0  0  0  0  0  0  0
    6.6160    0.9120    3.2610 O   0  0  0  0  0  0  0  0  0  0  0  0
    6.9130   -0.4970   -0.0260 C   0  0  0  0  0  0  0  0  0  0  0  0
    6.4570   -1.4050   -0.9370 C   0  0  0  0  0  0  0  0  0  0  0  0
    5.1100   -1.5630   -1.1630 C   0  0  0  0  0  0  0  0  0  0  0  0
    4.6400   -2.4780   -2.0820 O   0  0  0  0  0  0  0  0  0  0  0  0
  1  2  1  0
  2  3  2  0
  2  4  1  0
  4  5  1  1
  4  6  1  0
  4  7  1  0
  7  8  1  0
  8  9  2  0
  8 10  1  0
 10 11  1  0
 11 12  1  0
 12 13  2  0
 12 14  1  0
 14 15  1  0
 15 16  2  0
 15 22  1  0
 16 17  1  0
 17 18  1  0
 17 20  2  0
 18 19  2  0
 20 21  1  0
 21 22  2  0
 22 23  1  0
M  END
