
     RDKit          3D

 23 23  0  0  0  0  0  0  0  0999 V2000
    7.6510    0.0830   -0.0660 C   0  0  0  0  0  0  0  0  0  0  0  0
    6.5420   -0.5500    0.1830 C   0  0  0  0  0  0  0  0  0  0  0  0
    6.2990   -1.0450    1.4740 O   0  0  0  0  0  0  0  0  0  0  0  0
    5.5270   -0.7570   -0.8840 C   0  0  0  0  0  0  0  0  0  0  0  0
    4.2590   -0.1490   -0.5380 N   0  0  0  0  0  0  0  0  0  0  0  0
    4.1710    1.2280   -0.3040 C   0  0  0  0  0  0  0  0  0  0  0  0
    5.2120    1.9260   -0.4000 O   0  0  0  0  0  0  0  0  0  0  0  0
    2.9180    1.9360    0.0550 C   0  0  0  0  0  0  0  0  0  0  0  0
    1.5060    0.8360    0.1600 S   0  0  0  0  0  0  0  0  0  0  0  0
    0.0500    1.7830    0.5960 C   0  0  0  0  0  0  0  0  0  0  0  0
   -1.1710    0.9720    0.7100 C   0  0  0  0  0  0  0  0  0  0  0  0
   -2.2470    1.5480    1.0130 O   0  0  0  0  0  0  0  0  0  0  0  0
   -1.2280   -0.4340    0.5000 N   0  0  0  0  0  0  0  0  0  0  0  0
   -2.4630   -1.1630    0.6290 C   0  0  0  0  0  0  0  0  0  0  0  0
   -2.5700   -2.1300    1.5130 C   0  0  0  0  0  0  0  0  0  0  0  0
   -3.8180   -2.8580    1.6350 C   0  0  0  0  0  0  0  0  0  0  0  0
   -3.9050   -3.7950    2.4990 O   0  0  0  0  0  0  0  0  0  0  0  0
   -4.9700   -2.5410    0.7930 C   0  0  0  0  0  0  0  0  0  0  0  0
   -4.7210   -1.4560   -0.1400 C   0  0  0  0  0  0  0  0  0  0  0  0
   -3.5810   -0.8180   -0.2260 C   0  0  0  0  0  0  0  0  0  0  0  0
   -3.4580    0.2150   -1.1650 O   0  0  0  0  0  0  0  0  0  0  0  0
   -4.5360    0.9730   -1.6200 C   0  0  0  0  0  0  0  0  0  0  0  0
   -5.2540    1.7270   -0.5270 C   0  0  0  0  0  0  0  0  0  0  0  0
  1  2  2  0
  2  3  1  0
  2  4  1  0
  4  5  1  0
  5  6  1  0
  6  7  2  0
  6  8  1  0
  8  9  1  0
  9 10  1  0
 10 11  1  0
 11 12  2  0
 11 13  1  0
 13 14  1  0
 14 15  2  0
 14 20  1  0
 15 16  1  0
 16 17  2  0
 16 18  1  0
 18 19  1  0
 19 20  2  0
 20 21  1  0
 21 22  1  0
 22 23  1  0
M  END
