
     RDKit          3D

 23 23  0  0  0  0  0  0  0  0999 V2000
   -3.8350    4.8130   -0.3580 C   0  0  0  0  0  0  0  0  0  0  0  0
   -3.8180    4.3970   -1.8110 C   0  0  0  0  0  0  0  0  0  0  0  0
   -3.7410    2.6180   -1.9140 S   0  0  0  0  0  0  0  0  0  0  0  0
   -2.1980    1.9660   -1.2560 C   0  0  0  0  0  0  0  0  0  0  0  0
   -1.3330    2.7260   -0.7600 O   0  0  0  0  0  0  0  0  0  0  0  0
   -1.9240    0.5790   -1.2840 N   0  0  0  0  0  0  0  0  0  0  0  0
   -0.8030   -0.1010   -0.8170 C   0  0  0  0  0  0  0  0  0  0  0  0
    0.0760    0.4550    0.0680 C   0  0  0  0  0  0  0  0  0  0  0  0
    1.1620   -0.2140    0.6110 C   0  0  0  0  0  0  0  0  0  0  0  0
    2.0620    0.4650    1.5520 C   0  0  0  0  0  0  0  0  0  0  0  0
    1.7650    1.6400    1.9790 O   0  0  0  0  0  0  0  0  0  0  0  0
    3.1670   -0.0310    2.0040 O   0  0  0  0  0  0  0  0  0  0  0  0
    4.2370    0.0430    2.7410 C   0  0  0  0  0  0  0  0  0  0  0  0
    4.0010    0.0910    4.2660 C   0  0  0  0  0  0  0  0  0  0  0  0
    5.2510    0.1740    4.8580 O   0  0  0  0  0  0  0  0  0  0  0  0
    1.3510   -1.5140    0.2230 C   0  0  0  0  0  0  0  0  0  0  0  0
    2.4580   -2.3400    0.7460 C   0  0  0  0  0  0  0  0  0  0  0  0
    0.4730   -2.1050   -0.6760 C   0  0  0  0  0  0  0  0  0  0  0  0
   -0.6140   -1.4280   -1.2200 C   0  0  0  0  0  0  0  0  0  0  0  0
   -1.4770   -2.0170   -2.1760 N   0  0  0  0  0  0  0  0  0  0  0  0
   -1.4990   -3.3750   -2.5700 C   0  0  0  0  0  0  0  0  0  0  0  0
   -2.4590   -3.8800   -3.6010 C   0  0  0  0  0  0  0  0  0  0  0  0
   -0.7270   -4.2050   -2.0810 O   0  0  0  0  0  0  0  0  0  0  0  0
  1  2  1  0
  2  3  1  0
  3  4  1  0
  4  5  2  0
  4  6  1  0
  6  7  1  0
  7  8  2  0
  7 19  1  0
  8  9  1  0
  9 10  1  0
  9 16  2  0
 10 11  2  0
 10 12  1  0
 12 13  1  0
 13 14  1  0
 14 15  1  0
 16 17  1  0
 16 18  1  0
 18 19  2  0
 19 20  1  0
 20 21  1  0
 21 22  1  0
 21 23  2  0
M  END
