
     RDKit          3D

 21 22  0  0  0  0  0  0  0  0999 V2000
   -2.4000    2.2640   -2.5640 C   0  0  0  0  0  0  0  0  0  0  0  0
   -2.0250    0.9930   -2.1310 O   0  0  0  0  0  0  0  0  0  0  0  0
   -1.1100    1.0470   -1.0870 C   0  0  2  0  0  0  0  0  0  0  0  0
    0.1190    0.5380   -1.5290 O   0  0  0  0  0  0  0  0  0  0  0  0
    1.0640    0.9250   -0.5720 C   0  0  2  0  0  0  0  0  0  0  0  0
    2.4740    0.7080   -1.0730 C   0  0  0  0  0  0  0  0  0  0  0  0
    3.3570    0.8540   -0.0380 O   0  0  0  0  0  0  0  0  0  0  0  0
    3.0470    0.1460    1.1020 C   0  0  2  0  0  0  0  0  0  0  0  0
    4.0340    0.5800    2.1740 C   0  0  0  0  0  0  0  0  0  0  0  0
    3.1870   -1.3110    0.9640 C   0  0  0  0  0  0  0  0  0  0  0  0
    2.9240   -2.0410    1.9460 O   0  0  0  0  0  0  0  0  0  0  0  0
    3.5990   -1.9070   -0.2100 O   0  0  0  0  0  0  0  0  0  0  0  0
    1.7840    0.4280    1.5940 O   0  0  0  0  0  0  0  0  0  0  0  0
    0.8660    0.0080    0.6100 C   0  0  1  0  0  0  0  0  0  0  0  0
   -0.5410    0.0300    1.1420 C   0  0  2  0  0  0  0  0  0  0  0  0
   -0.7320   -1.1600    1.8410 O   0  0  0  0  0  0  0  0  0  0  0  0
   -1.6000    0.3160    0.1420 C   0  0  2  0  0  0  0  0  0  0  0  0
   -2.3480   -0.8810   -0.2030 N   0  0  0  0  0  0  0  0  0  0  0  0
   -3.7350   -1.0360    0.0730 C   0  0  0  0  0  0  0  0  0  0  0  0
   -4.4680   -2.2940   -0.3020 C   0  0  0  0  0  0  0  0  0  0  0  0
   -4.3230   -0.0820    0.6420 O   0  0  0  0  0  0  0  0  0  0  0  0
  1  2  1  0
  3  2  1  6
  3  4  1  0
  3 17  1  0
  4  5  1  0
  5  6  1  6
  5 14  1  0
  6  7  1  0
  7  8  1  0
  8  9  1  1
  8 10  1  0
  8 13  1  0
 10 11  2  0
 10 12  1  0
 14 13  1  1
 14 15  1  0
 15 16  1  6
 15 17  1  0
 17 18  1  6
 18 19  1  0
 19 20  1  0
 19 21  2  0
M  END
