
     RDKit          3D

 23 23  0  0  0  0  0  0  0  0999 V2000
    7.1960   -1.7160    0.5070 C   0  0  0  0  0  0  0  0  0  0  0  0
    5.7530   -1.7460    0.1740 C   0  0  0  0  0  0  0  0  0  0  0  0
    5.2350   -0.9720   -0.7540 C   0  0  0  0  0  0  0  0  0  0  0  0
    3.8060   -1.0380   -1.0460 C   0  0  0  0  0  0  0  0  0  0  0  0
    3.0620   -1.8280   -0.4190 O   0  0  0  0  0  0  0  0  0  0  0  0
    3.2060   -0.2200   -2.0410 N   0  0  0  0  0  0  0  0  0  0  0  0
    1.7970   -0.2650   -2.3510 C   0  0  0  0  0  0  0  0  0  0  0  0
    0.9500    0.0690   -1.2050 C   0  0  0  0  0  0  0  0  0  0  0  0
    1.4590    0.3540   -0.1000 O   0  0  0  0  0  0  0  0  0  0  0  0
   -0.4750    0.0740   -1.3260 N   0  0  0  0  0  0  0  0  0  0  0  0
   -1.2790    0.4140   -0.1570 C   0  0  0  0  0  0  0  0  0  0  0  0
   -0.5950    0.8240    1.4040 S   0  0  0  0  0  0  0  0  0  0  0  0
   -2.1100    1.0850    2.2260 C   0  0  0  0  0  0  0  0  0  0  0  0
   -2.2730    1.4850    3.6790 C   0  0  0  0  0  0  0  0  0  0  0  0
   -2.6760    0.3300    4.4970 C   0  0  0  0  0  0  0  0  0  0  0  0
   -2.8270   -0.7600    3.9530 O   0  0  0  0  0  0  0  0  0  0  0  0
   -3.0590    0.8440    1.2630 C   0  0  0  0  0  0  0  0  0  0  0  0
   -4.5270    0.9760    1.6230 C   0  0  0  0  0  0  0  0  0  0  0  0
   -2.6070    0.5000    0.0400 C   0  0  0  0  0  0  0  0  0  0  0  0
   -3.5520    0.2190   -1.0790 C   0  0  0  0  0  0  0  0  0  0  0  0
   -4.7950    0.2940   -0.9250 O   0  0  0  0  0  0  0  0  0  0  0  0
   -3.1180   -0.1330   -2.3300 O   0  0  0  0  0  0  0  0  0  0  0  0
   -3.9590   -0.4080   -3.4230 C   0  0  0  0  0  0  0  0  0  0  0  0
  1  2  1  0
  2  3  2  3
  3  4  1  0
  4  5  2  0
  4  6  1  0
  6  7  1  0
  7  8  1  0
  8  9  2  0
  8 10  1  0
 10 11  1  0
 11 12  1  0
 11 19  2  0
 12 13  1  0
 13 14  1  0
 13 17  2  0
 14 15  1  0
 15 16  2  0
 17 18  1  0
 17 19  1  0
 19 20  1  0
 20 21  2  0
 20 22  1  0
 22 23  1  0
M  END
