
     RDKit          3D

 22 22  0  0  0  0  0  0  0  0999 V2000
   -4.3260    1.4690   -1.5520 C   0  0  0  0  0  0  0  0  0  0  0  0
   -3.4160    2.0280   -0.4780 C   0  0  1  0  0  0  0  0  0  0  0  0
   -4.1500    1.8920    0.8370 C   0  0  0  0  0  0  0  0  0  0  0  0
   -1.8360    1.2200   -0.5080 S   0  0  0  0  0  0  0  0  0  0  0  0
   -1.8190   -0.5000   -0.0300 C   0  0  1  0  0  0  0  0  0  0  0  0
   -2.1760   -0.7050    1.4290 C   0  0  0  0  0  0  0  0  0  0  0  0
   -2.8180   -1.2680   -0.8590 C   0  0  0  0  0  0  0  0  0  0  0  0
   -0.4600   -1.0920   -0.3230 C   0  0  0  0  0  0  0  0  0  0  0  0
   -0.3800   -2.0620   -1.1000 O   0  0  0  0  0  0  0  0  0  0  0  0
    0.7100   -0.5800    0.2580 N   0  0  0  0  0  0  0  0  0  0  0  0
    2.0390   -1.0270    0.0800 C   0  0  0  0  0  0  0  0  0  0  0  0
    2.3960   -2.0680   -0.7130 C   0  0  0  0  0  0  0  0  0  0  0  0
    3.7270   -2.4860   -0.8660 C   0  0  0  0  0  0  0  0  0  0  0  0
    4.7440   -1.8410   -0.2010 C   0  0  0  0  0  0  0  0  0  0  0  0
    6.1060   -2.2430   -0.3370 N   0  0  0  0  0  0  0  0  0  0  0  0
    4.3930   -0.7800    0.6090 C   0  0  0  0  0  0  0  0  0  0  0  0
    3.0880   -0.3810    0.7500 C   0  0  0  0  0  0  0  0  0  0  0  0
    2.7860    0.7030    1.5850 O   0  0  0  0  0  0  0  0  0  0  0  0
    2.7830    1.9740    0.9810 C   0  0  0  0  0  0  0  0  0  0  0  0
    3.0450    2.0740   -0.2440 O   0  0  0  0  0  0  0  0  0  0  0  0
    2.4830    3.1690    1.7520 C   0  0  0  0  0  0  0  0  0  0  0  0
    2.2130    3.1490    2.9780 O   0  0  0  0  0  0  0  0  0  0  0  0
  2  1  1  6
  2  3  1  0
  2  4  1  0
  4  5  1  0
  5  6  1  1
  5  7  1  0
  5  8  1  0
  8  9  2  0
  8 10  1  0
 10 11  1  0
 11 12  2  0
 11 17  1  0
 12 13  1  0
 13 14  2  0
 14 15  1  0
 14 16  1  0
 16 17  2  0
 17 18  1  0
 18 19  1  0
 19 20  2  0
 19 21  1  0
 21 22  2  0
M  END
