
     RDKit          3D

 22 22  0  0  0  0  0  0  0  0999 V2000
    4.8960   -0.5340   -1.2380 O   0  0  0  0  0  0  0  0  0  0  0  0
    5.0480   -0.9800   -0.1530 C   0  0  0  0  0  0  0  0  0  0  0  0
    4.0380   -1.6820    0.5720 N   0  0  0  0  0  0  0  0  0  0  0  0
    2.7000   -1.9080    0.0560 C   0  0  0  0  0  0  0  0  0  0  0  0
    2.2040   -0.5370   -0.4590 C   0  0  0  0  0  0  0  0  0  0  0  0
    0.7200   -0.4260   -0.4370 C   0  0  0  0  0  0  0  0  0  0  0  0
    0.3150    0.8320   -1.2330 C   0  0  0  0  0  0  0  0  0  0  0  0
   -0.8760    1.2310   -0.8650 O   0  0  0  0  0  0  0  0  0  0  0  0
   -2.0050    0.7080   -1.1590 O   0  0  0  0  0  0  0  0  0  0  0  0
   -2.7830    1.1790   -0.0570 C   0  0  1  0  0  0  0  0  0  0  0  0
   -2.0770    0.7740    1.1240 F   0  0  0  0  0  0  0  0  0  0  0  0
   -2.8350    2.5130   -0.1700 F   0  0  0  0  0  0  0  0  0  0  0  0
   -4.0450    0.5700    0.1680 C   0  0  0  0  0  0  0  0  0  0  0  0
   -5.3160    1.2280    0.2610 C   0  0  0  0  0  0  0  0  0  0  0  0
   -6.3460    0.5320    0.5890 C   0  0  0  0  0  0  0  0  0  0  0  0
   -7.6940    1.0720    0.7400 O   0  0  0  0  0  0  0  0  0  0  0  0
   -6.2250   -0.8910    0.8570 C   0  0  0  0  0  0  0  0  0  0  0  0
   -7.1300   -1.8660    1.2120 F   0  0  0  0  0  0  0  0  0  0  0  0
   -4.4440   -1.0650    0.5520 S   0  0  0  0  0  0  0  0  0  0  0  0
    6.3150   -0.8140    0.4950 O   0  0  0  0  0  0  0  0  0  0  0  0
    7.2600   -0.1140   -0.1670 O   0  0  0  0  0  0  0  0  0  0  0  0
    7.1340    1.1720    0.1830 O   0  0  0  0  0  0  0  0  0  0  0  0
  1  2  2  0
  2  3  1  0
  2 20  1  0
  3  4  1  0
  4  5  1  0
  5  6  1  0
  6  7  1  0
  7  8  1  0
  8  9  1  0
  9 10  1  0
 10 11  1  1
 10 12  1  0
 10 13  1  0
 13 14  2  0
 13 19  1  0
 14 15  1  0
 15 16  1  0
 15 17  2  0
 17 18  1  0
 17 19  1  0
 20 21  1  0
 21 22  1  0
M  END
