
     RDKit          3D

 22 22  0  0  0  0  0  0  0  0999 V2000
   -3.0670   -1.3110   -0.6160 O   0  0  0  0  0  0  0  0  0  0  0  0
   -1.9610   -1.7390   -0.9490 C   0  0  0  0  0  0  0  0  0  0  0  0
   -1.8890   -2.8320   -1.8310 O   0  0  0  0  0  0  0  0  0  0  0  0
   -3.0340   -3.3480   -2.2600 O   0  0  0  0  0  0  0  0  0  0  0  0
   -0.6890   -1.1560   -0.4650 C   0  0  0  0  0  0  0  0  0  0  0  0
   -0.7910   -0.0860    0.3860 O   0  0  0  0  0  0  0  0  0  0  0  0
   -1.6360    0.9960    0.2010 C   0  0  0  0  0  0  0  0  0  0  0  0
   -1.5180    1.9860    1.3530 C   0  0  0  0  0  0  0  0  0  0  0  0
   -2.3780    3.0620    1.1410 O   0  0  0  0  0  0  0  0  0  0  0  0
   -2.3310    3.9440    2.0860 O   0  0  0  0  0  0  0  0  0  0  0  0
    0.4210   -1.7070   -0.8780 C   0  0  0  0  0  0  0  0  0  0  0  0
    0.2350   -2.8230   -1.7580 O   0  0  0  0  0  0  0  0  0  0  0  0
    1.7650   -1.3540   -0.5790 C   0  0  0  0  0  0  0  0  0  0  0  0
    2.7530   -2.1160   -1.1210 C   0  0  0  0  0  0  0  0  0  0  0  0
    2.4760   -3.1610   -1.9070 F   0  0  0  0  0  0  0  0  0  0  0  0
    4.0380   -1.8060   -0.8590 F   0  0  0  0  0  0  0  0  0  0  0  0
    2.2110   -0.2210    0.2840 C   0  0  0  0  0  0  0  0  0  0  0  0
    2.8680   -0.0290    1.1930 N   0  0  0  0  0  0  0  0  0  0  0  0
    3.1810    1.1250    1.7500 C   0  0  0  0  0  0  0  0  0  0  0  0
    2.6690    2.2160    1.1870 C   0  0  0  0  0  0  0  0  0  0  0  0
    2.7640    3.5550    1.4730 F   0  0  0  0  0  0  0  0  0  0  0  0
    1.7040    1.5390   -0.1930 S   0  0  0  0  0  0  0  0  0  0  0  0
  1  2  2  0
  2  3  1  0
  2  5  1  0
  3  4  1  0
  5  6  1  0
  5 11  2  3
  6  7  1  0
  7  8  1  0
  8  9  1  0
  9 10  1  0
 11 12  1  0
 11 13  1  0
 13 14  2  3
 13 17  1  0
 14 15  1  0
 14 16  1  0
 17 18  2  0
 17 22  1  0
 18 19  1  0
 19 20  2  0
 20 21  1  0
 20 22  1  0
M  END
