
     RDKit          3D

 21 21  0  0  0  0  0  0  0  0999 V2000
   -5.2530    0.3950    0.3920 C   0  0  0  0  0  0  0  0  0  0  0  0
   -4.0050    0.6470   -0.3050 N   0  0  0  0  0  0  0  0  0  0  0  0
   -3.2360    1.5740    0.4670 C   0  0  0  0  0  0  0  0  0  0  0  0
   -3.3420   -0.6290   -0.4810 C   0  0  0  0  0  0  0  0  0  0  0  0
   -2.0490   -0.5160   -1.1840 C   0  0  0  0  0  0  0  0  0  0  0  0
   -0.9550   -0.9120   -0.5810 C   0  0  0  0  0  0  0  0  0  0  0  0
    0.4250   -0.9140   -1.0320 C   0  0  0  0  0  0  0  0  0  0  0  0
    0.6880   -0.6870   -2.3770 F   0  0  0  0  0  0  0  0  0  0  0  0
    1.3190   -1.1320   -0.1170 C   0  0  0  0  0  0  0  0  0  0  0  0
    2.7990   -1.1640   -0.4290 C   0  0  1  0  0  0  0  0  0  0  0  0
    3.3160   -2.4020   -0.0950 F   0  0  0  0  0  0  0  0  0  0  0  0
    3.0400   -0.9850   -1.7750 F   0  0  0  0  0  0  0  0  0  0  0  0
    3.4310   -0.0810    0.3850 C   0  0  0  0  0  0  0  0  0  0  0  0
    4.8130   -0.0070    0.1830 O   0  0  0  0  0  0  0  0  0  0  0  0
    5.5470    1.2290    1.1080 P   0  0  0  0  0  0  0  0  0  0  0  0
    7.2030    0.9360    1.4640 O   0  0  0  0  0  0  0  0  0  0  0  0
    5.2810    2.8060    0.4730 O   0  0  0  0  0  0  0  0  0  0  0  0
    0.8660   -1.3360    1.1680 O   0  0  0  0  0  0  0  0  0  0  0  0
   -0.8120   -1.6010    1.0460 S   0  0  1  0  0  0  0  0  0  0  0  0
   -1.5820   -0.8120    2.0430 O   0  0  0  0  0  0  0  0  0  0  0  0
   -1.0990   -3.0510    1.0580 O   0  0  0  0  0  0  0  0  0  0  0  0
  1  2  1  0
  2  3  1  0
  2  4  1  0
  4  5  1  0
  5  6  2  3
  6  7  1  0
  6 19  1  0
  7  8  1  0
  7  9  2  0
  9 10  1  0
  9 18  1  0
 10 11  1  1
 10 12  1  0
 10 13  1  0
 13 14  1  0
 14 15  1  0
 15 16  1  0
 15 17  1  0
 19 18  1  1
 19 20  2  0
 19 21  2  0
M  END
