
     RDKit          3D

 22 21  0  0  0  0  0  0  0  0999 V2000
   -2.2390    1.2560    1.2850 O   0  0  0  0  0  0  0  0  0  0  0  0
   -2.2220    0.0750    0.7820 C   0  0  0  0  0  0  0  0  0  0  0  0
   -3.3850   -0.3900   -0.0150 C   0  0  0  0  0  0  0  0  0  0  0  0
   -4.4200    0.6810   -0.0820 C   0  0  0  0  0  0  0  0  0  0  0  0
   -5.5470    0.2440   -0.8470 O   0  0  0  0  0  0  0  0  0  0  0  0
   -6.6400    1.0880   -1.0380 C   0  0  0  0  0  0  0  0  0  0  0  0
   -6.5930    2.2390   -0.5130 O   0  0  0  0  0  0  0  0  0  0  0  0
   -7.7360    0.7120   -1.7610 F   0  0  0  0  0  0  0  0  0  0  0  0
   -1.0850   -0.7140    1.0240 N   0  0  0  0  0  0  0  0  0  0  0  0
    0.0560   -0.2770    1.7980 C   0  0  0  0  0  0  0  0  0  0  0  0
    0.8720    1.1710    1.1530 S   0  0  0  0  0  0  0  0  0  0  0  0
    1.6700    0.9570   -0.4060 C   0  0  0  0  0  0  0  0  0  0  0  0
    2.2100    1.9760   -0.8770 O   0  0  0  0  0  0  0  0  0  0  0  0
    1.7370   -0.3070   -1.1590 C   0  0  1  0  0  0  0  0  0  0  0  0
    0.4730   -0.8470   -1.4250 F   0  0  0  0  0  0  0  0  0  0  0  0
    2.2420   -0.0230   -2.4430 F   0  0  0  0  0  0  0  0  0  0  0  0
    2.6640   -1.3380   -0.5460 C   0  0  0  0  0  0  0  0  0  0  0  0
    4.0560   -0.7190   -0.5110 C   0  0  0  0  0  0  0  0  0  0  0  0
    4.0140    0.4470    0.2690 O   0  0  0  0  0  0  0  0  0  0  0  0
    5.1170    1.2520    0.5030 C   0  0  0  0  0  0  0  0  0  0  0  0
    6.2350    0.9480    0.0030 O   0  0  0  0  0  0  0  0  0  0  0  0
    5.0750    2.4080    1.2760 O   0  0  0  0  0  0  0  0  0  0  0  0
  1  2  2  0
  2  3  1  0
  2  9  1  0
  3  4  1  0
  4  5  1  0
  5  6  1  0
  6  7  2  0
  6  8  1  0
  9 10  1  0
 10 11  1  0
 11 12  1  0
 12 13  2  0
 12 14  1  0
 14 15  1  6
 14 16  1  0
 14 17  1  0
 17 18  1  0
 18 19  1  0
 19 20  1  0
 20 21  2  0
 20 22  1  0
M  END
