
     RDKit          3D

 28 29  0  0  0  0  0  0  0  0999 V2000
    1.5740   -1.0410    1.1420 O   0  0  0  0  0  0  0  0  0  0  0  0
    1.3320    0.0030    0.4100 C   0  0  0  0  0  0  0  0  0  0  0  0
   -0.0230    0.0450   -0.0390 N   0  0  0  0  0  0  0  0  0  0  0  0
   -0.9780   -1.0360    0.4010 C   0  0  0  0  0  0  0  0  0  0  0  0
   -1.1360   -2.3180   -0.0190 C   0  0  0  0  0  0  0  0  0  0  0  0
   -1.9670   -3.0090    0.7740 N   0  0  0  0  0  0  0  0  0  0  0  0
   -2.3590   -2.1970    1.6400 O   0  0  0  0  0  0  0  0  0  0  0  0
   -1.8720   -0.9800    1.5190 C   0  0  0  0  0  0  0  0  0  0  0  0
   -2.3210    0.0340    2.3100 C   0  0  0  0  0  0  0  0  0  0  0  0
   -1.8830   -0.6020    3.7500 O   0  0  0  0  0  0  0  0  0  0  0  0
   -2.7690    1.0430    3.0980 O   0  0  0  0  0  0  0  0  0  0  0  0
   -3.6710    1.9580    2.2570 C   0  0  0  0  0  0  0  0  0  0  0  0
   -4.1020    1.2490    0.9860 C   0  0  0  0  0  0  0  0  0  0  0  0
   -3.2460    0.7750    0.1070 O   0  0  0  0  0  0  0  0  0  0  0  0
   -3.4550    0.1940   -1.0990 C   0  0  0  0  0  0  0  0  0  0  0  0
   -2.8640   -1.0410   -1.3680 O   0  0  0  0  0  0  0  0  0  0  0  0
   -2.0030   -1.2390   -2.3720 C   0  0  0  0  0  0  0  0  0  0  0  0
   -1.1830   -2.4950   -2.4820 C   0  0  0  0  0  0  0  0  0  0  0  0
   -0.5780   -2.9440   -1.2090 O   0  0  0  0  0  0  0  0  0  0  0  0
    2.3660    0.8540    0.1950 O   0  0  0  0  0  0  0  0  0  0  0  0
    3.6810    0.5660    0.6950 C   0  0  1  0  0  0  0  0  0  0  0  0
    4.6870    0.6390   -0.3970 C   0  0  0  0  0  0  0  0  0  0  0  0
    4.3180   -0.2520   -1.3960 O   0  0  0  0  0  0  0  0  0  0  0  0
    5.1250   -0.3060   -2.3900 O   0  0  0  0  0  0  0  0  0  0  0  0
    5.6000    0.8610   -2.6670 O   0  0  0  0  0  0  0  0  0  0  0  0
    4.0510    1.3630    1.8800 C   0  0  0  0  0  0  0  0  0  0  0  0
    3.2330    2.1600    2.4000 O   0  0  0  0  0  0  0  0  0  0  0  0
    5.3090    1.2300    2.4180 O   0  0  0  0  0  0  0  0  0  0  0  0
  1  2  2  0
  2  3  1  0
  2 20  1  0
  3  4  1  0
  4  5  1  0
  4  8  2  0
  5  6  2  0
  5 19  1  0
  6  7  1  0
  7  8  1  0
  8  9  1  0
  9 10  2  0
  9 11  1  0
 11 12  1  0
 12 13  1  0
 13 14  1  0
 14 15  1  0
 15 16  1  0
 16 17  1  0
 17 18  1  0
 18 19  1  0
 20 21  1  0
 21 22  1  6
 21 26  1  0
 22 23  1  0
 23 24  1  0
 24 25  1  0
 26 27  2  0
 26 28  1  0
M  END
