
     RDKit          3D

 28 29  0  0  0  0  0  0  0  0999 V2000
   -5.8890    2.4490   -0.9980 O   0  0  0  0  0  0  0  0  0  0  0  0
   -6.3480    2.5600    0.1840 C   0  0  0  0  0  0  0  0  0  0  0  0
   -7.7170    2.5240    0.3270 O   0  0  0  0  0  0  0  0  0  0  0  0
   -5.4600    2.7070    1.2250 O   0  0  0  0  0  0  0  0  0  0  0  0
   -4.0740    2.7410    1.0520 C   0  0  0  0  0  0  0  0  0  0  0  0
   -3.5620    1.4770    0.4270 C   0  0  0  0  0  0  0  0  0  0  0  0
   -4.4110    0.5850    0.1490 O   0  0  0  0  0  0  0  0  0  0  0  0
   -2.2170    1.2920    0.1630 O   0  0  0  0  0  0  0  0  0  0  0  0
   -1.7780    0.0890   -0.4260 C   0  0  1  0  0  0  0  0  0  0  0  0
   -1.1960    0.4000   -1.7740 C   0  0  0  0  0  0  0  0  0  0  0  0
    0.1700    0.7310   -1.7320 O   0  0  0  0  0  0  0  0  0  0  0  0
    1.0440    0.2350   -0.7690 C   0  0  0  0  0  0  0  0  0  0  0  0
    2.4840    0.4810   -0.9940 C   0  0  0  0  0  0  0  0  0  0  0  0
    3.2980   -0.0460    0.0110 O   0  0  0  0  0  0  0  0  0  0  0  0
    4.6860    0.1530   -0.1400 C   0  0  0  0  0  0  0  0  0  0  0  0
    5.1070    0.7770   -1.1450 O   0  0  0  0  0  0  0  0  0  0  0  0
    5.5970   -0.3040    0.7590 O   0  0  0  0  0  0  0  0  0  0  0  0
    6.9780   -0.1820    0.7470 C   0  0  0  0  0  0  0  0  0  0  0  0
    7.5030    1.0800    0.7810 O   0  0  0  0  0  0  0  0  0  0  0  0
    7.2050    1.8800   -0.1790 O   0  0  0  0  0  0  0  0  0  0  0  0
    0.5500   -0.3860    0.2200 N   0  0  0  0  0  0  0  0  0  0  0  0
   -0.8260   -0.6470    0.4790 C   0  0  2  0  0  0  0  0  0  0  0  0
   -1.1300   -2.1280    0.4250 C   0  0  1  0  0  0  0  0  0  0  0  0
   -0.9850   -2.6910   -0.9720 C   0  0  0  0  0  0  0  0  0  0  0  0
   -0.7300   -4.0640   -0.7040 O   0  0  0  0  0  0  0  0  0  0  0  0
   -0.2130   -4.2140    0.5740 C   0  0  0  0  0  0  0  0  0  0  0  0
    0.1540   -5.3180    1.0890 O   0  0  0  0  0  0  0  0  0  0  0  0
   -0.1810   -2.9130    1.1670 N   0  0  0  0  0  0  0  0  0  0  0  0
  1  2  2  0
  2  3  1  0
  2  4  1  0
  4  5  1  0
  5  6  1  0
  6  7  2  0
  6  8  1  0
  9  8  1  1
  9 10  1  0
  9 22  1  0
 10 11  1  0
 11 12  1  0
 12 13  1  0
 12 21  2  0
 13 14  1  0
 14 15  1  0
 15 16  2  0
 15 17  1  0
 17 18  1  0
 18 19  1  0
 19 20  1  0
 22 21  1  6
 22 23  1  0
 23 24  1  6
 23 28  1  0
 24 25  1  0
 25 26  1  0
 26 27  2  0
 26 28  1  0
M  END
