
     RDKit          3D

 29 30  0  0  0  0  0  0  0  0999 V2000
   -7.9100   -0.0240   -0.2360 C   0  0  0  0  0  0  0  0  0  0  0  0
   -6.6190    0.7490   -0.1660 C   0  0  0  0  0  0  0  0  0  0  0  0
   -5.4500    0.1030    0.0320 C   0  0  0  0  0  0  0  0  0  0  0  0
   -4.2730    0.6930    0.1830 N   0  0  0  0  0  0  0  0  0  0  0  0
   -3.1660   -0.0180    0.6570 C   0  0  1  0  0  0  0  0  0  0  0  0
   -2.9070   -1.3970    0.2890 C   0  0  0  0  0  0  0  0  0  0  0  0
   -1.6020   -1.2380   -0.5350 C   0  0  2  0  0  0  0  0  0  0  0  0
   -0.9440   -2.4680   -0.4530 O   0  0  0  0  0  0  0  0  0  0  0  0
   -1.0180   -0.1170    0.1920 C   0  0  1  0  0  0  0  0  0  0  0  0
    0.2030    0.5770   -0.3760 C   0  0  0  0  0  0  0  0  0  0  0  0
    1.1410   -0.4120   -0.6000 O   0  0  0  0  0  0  0  0  0  0  0  0
    2.4780   -0.4620    0.0590 P   0  0  0  0  0  0  0  0  0  0  0  0
    1.8960   -1.5270    1.2470 O   0  0  0  0  0  0  0  0  0  0  0  0
    2.4530    1.1540    0.4570 O   0  0  0  0  0  0  0  0  0  0  0  0
    3.2880   -0.9920   -1.2120 O   0  0  0  0  0  0  0  0  0  0  0  0
    4.7470   -0.2540   -1.5120 P   0  0  0  0  0  0  0  0  0  0  0  0
    4.8480    1.3990   -1.4280 O   0  0  0  0  0  0  0  0  0  0  0  0
    6.0470   -1.1120   -2.0010 O   0  0  0  0  0  0  0  0  0  0  0  0
    5.1630   -0.3790   -0.0480 O   0  0  0  0  0  0  0  0  0  0  0  0
    6.5840   -0.1220    0.4870 P   0  0  0  0  0  0  0  0  0  0  0  0
    6.9430   -1.6560   -0.1030 O   0  0  0  0  0  0  0  0  0  0  0  0
    6.7780    1.1660   -0.4700 O   0  0  0  0  0  0  0  0  0  0  0  0
    7.9860   -0.1060    1.1390 O   0  0  0  0  0  0  0  0  0  0  0  0
   -2.0140    0.7770    0.4240 O   0  0  0  0  0  0  0  0  0  0  0  0
   -4.2410    2.0490    0.1010 C   0  0  0  0  0  0  0  0  0  0  0  0
   -3.1620    2.6810    0.2330 O   0  0  0  0  0  0  0  0  0  0  0  0
   -5.3690    2.7670   -0.1180 N   0  0  0  0  0  0  0  0  0  0  0  0
   -6.5680    2.1190   -0.2450 C   0  0  0  0  0  0  0  0  0  0  0  0
   -7.6430    2.7490   -0.4450 O   0  0  0  0  0  0  0  0  0  0  0  0
  1  2  1  0
  2  3  2  0
  2 28  1  0
  3  4  1  0
  5  4  1  6
  4 25  1  0
  5  6  1  0
  5 24  1  0
  6  7  1  0
  7  8  1  1
  7  9  1  0
  9 10  1  6
  9 24  1  0
 10 11  1  0
 11 12  1  0
 12 13  1  0
 12 14  1  0
 12 15  1  0
 15 16  1  0
 16 17  1  0
 16 18  1  0
 16 19  1  0
 19 20  1  0
 20 21  1  0
 20 22  1  0
 20 23  1  0
 25 26  2  0
 25 27  1  0
 27 28  1  0
 28 29  2  0
M  END
