
     RDKit          3D

 28 29  0  0  0  0  0  0  0  0999 V2000
    5.9460    3.8100    0.0590 O   0  0  0  0  0  0  0  0  0  0  0  0
    6.0440    2.5820    0.0380 C   0  0  0  0  0  0  0  0  0  0  0  0
    5.3650    1.6540    1.0220 C   0  0  0  0  0  0  0  0  0  0  0  0
    5.0250    0.5930    0.0110 C   0  0  2  0  0  0  0  0  0  0  0  0
    4.3620   -0.5350    0.5090 O   0  0  0  0  0  0  0  0  0  0  0  0
    3.1650   -0.3190    0.3450 O   0  0  0  0  0  0  0  0  0  0  0  0
    1.9730   -0.9190    0.4790 C   0  0  0  0  0  0  0  0  0  0  0  0
    1.9200   -2.1240    0.8540 O   0  0  0  0  0  0  0  0  0  0  0  0
    0.7650   -0.1790    0.1730 N   0  0  0  0  0  0  0  0  0  0  0  0
   -0.5320   -0.7980    0.3360 C   0  0  0  0  0  0  0  0  0  0  0  0
   -0.6470   -2.0820    0.4390 N   0  0  0  0  0  0  0  0  0  0  0  0
   -2.0460   -2.6220    0.6880 C   0  0  2  0  0  0  0  0  0  0  0  0
   -1.8850   -4.1390    0.4100 C   0  0  0  0  0  0  0  0  0  0  0  0
   -1.7320   -4.1890   -0.9490 O   0  0  0  0  0  0  0  0  0  0  0  0
   -0.6340   -4.7050   -1.3680 O   0  0  0  0  0  0  0  0  0  0  0  0
   -2.8440   -2.0130   -0.3380 O   0  0  0  0  0  0  0  0  0  0  0  0
   -2.7650   -0.6660   -0.4450 C   0  0  0  0  0  0  0  0  0  0  0  0
   -3.6990    0.2820   -0.8880 O   0  0  0  0  0  0  0  0  0  0  0  0
   -4.8200    0.3810    0.0350 C   0  0  0  0  0  0  0  0  0  0  0  0
   -5.3940    1.7560    0.0530 C   0  0  0  0  0  0  0  0  0  0  0  0
   -4.3550    2.5770    0.5760 O   0  0  0  0  0  0  0  0  0  0  0  0
   -4.6370    3.8060    0.6980 O   0  0  0  0  0  0  0  0  0  0  0  0
   -1.6000    0.0450   -0.1190 C   0  0  0  0  0  0  0  0  0  0  0  0
   -1.6260    1.4160   -0.5280 C   0  0  0  0  0  0  0  0  0  0  0  0
   -2.4720    1.9780   -1.2180 O   0  0  0  0  0  0  0  0  0  0  0  0
   -0.5370    2.2450   -0.1010 O   0  0  0  0  0  0  0  0  0  0  0  0
    6.2000    0.4310   -0.8150 C   0  0  0  0  0  0  0  0  0  0  0  0
    6.7740    1.7640   -0.8040 O   0  0  0  0  0  0  0  0  0  0  0  0
  1  2  2  0
  2  3  1  0
  2 28  1  0
  3  4  1  0
  4  5  1  1
  4 27  1  0
  5  6  1  0
  6  7  1  0
  7  8  2  0
  7  9  1  0
  9 10  1  0
 10 11  2  0
 10 23  1  0
 11 12  1  0
 12 13  1  6
 12 16  1  0
 13 14  1  0
 14 15  1  0
 16 17  1  0
 17 18  1  0
 17 23  2  0
 18 19  1  0
 19 20  1  0
 20 21  1  0
 21 22  1  0
 23 24  1  0
 24 25  2  0
 24 26  1  0
 27 28  1  0
M  END
