
     RDKit          3D

 28 29  0  0  0  0  0  0  0  0999 V2000
   -1.4500   -0.1320   -3.7990 O   0  0  0  0  0  0  0  0  0  0  0  0
   -1.3320    0.3130   -2.5960 C   0  0  0  0  0  0  0  0  0  0  0  0
   -2.4180   -0.1920   -1.7150 C   0  0  0  0  0  0  0  0  0  0  0  0
   -2.5610    0.7080   -0.6860 O   0  0  0  0  0  0  0  0  0  0  0  0
   -3.6250    0.5540    0.1400 C   0  0  1  0  0  0  0  0  0  0  0  0
   -4.7920    1.1950   -0.2530 O   0  0  0  0  0  0  0  0  0  0  0  0
   -3.7900   -0.7640    0.8100 C   0  0  0  0  0  0  0  0  0  0  0  0
   -2.9700   -0.3430    1.9480 N   0  0  0  0  0  0  0  0  0  0  0  0
   -3.1290    0.9690    1.5460 C   0  0  0  0  0  0  0  0  0  0  0  0
   -2.3890   -1.1540    2.8800 C   0  0  0  0  0  0  0  0  0  0  0  0
   -2.3010   -0.9490    4.1630 O   0  0  0  0  0  0  0  0  0  0  0  0
   -1.8210   -2.3570    2.3920 O   0  0  0  0  0  0  0  0  0  0  0  0
   -0.7400   -2.5560    1.6940 O   0  0  0  0  0  0  0  0  0  0  0  0
   -0.1600   -2.0050    0.6020 C   0  0  0  0  0  0  0  0  0  0  0  0
   -0.0850   -2.7380   -0.4330 O   0  0  0  0  0  0  0  0  0  0  0  0
    0.3380   -0.6310    0.6740 C   0  0  0  0  0  0  0  0  0  0  0  0
    1.1330   -0.1360   -0.4920 C   0  0  2  0  0  0  0  0  0  0  0  0
    1.3660   -1.1180   -1.5960 C   0  0  0  0  0  0  0  0  0  0  0  0
    2.1460   -0.4620   -2.5810 O   0  0  0  0  0  0  0  0  0  0  0  0
    2.5200    0.1890    0.0630 C   0  0  0  0  0  0  0  0  0  0  0  0
    3.3830    0.6600   -0.8830 O   0  0  0  0  0  0  0  0  0  0  0  0
    4.6370    0.9480   -0.3570 C   0  0  0  0  0  0  0  0  0  0  0  0
    4.5690    1.9230    0.6490 O   0  0  0  0  0  0  0  0  0  0  0  0
    5.8220    2.1010    1.0600 O   0  0  0  0  0  0  0  0  0  0  0  0
    6.0210    1.4300    2.1870 O   0  0  0  0  0  0  0  0  0  0  0  0
    0.5300    1.1290   -1.0650 C   0  0  0  0  0  0  0  0  0  0  0  0
    0.8140    2.1710   -0.4050 O   0  0  0  0  0  0  0  0  0  0  0  0
   -0.2760    1.1730   -2.2220 N   0  0  0  0  0  0  0  0  0  0  0  0
  1  2  2  0
  2  3  1  0
  2 28  1  0
  3  4  1  0
  4  5  1  0
  5  6  1  6
  5  7  1  0
  5  9  1  0
  7  8  1  0
  8  9  1  0
  8 10  1  0
 10 11  2  0
 10 12  1  0
 12 13  1  0
 13 14  1  0
 14 15  2  0
 14 16  1  0
 16 17  1  0
 17 18  1  6
 17 20  1  0
 17 26  1  0
 18 19  1  0
 20 21  1  0
 21 22  1  0
 22 23  1  0
 23 24  1  0
 24 25  1  0
 26 27  2  0
 26 28  1  0
M  END
