
     RDKit          3D

 30 32  0  0  0  0  0  0  0  0999 V2000
    2.5750    0.0720    3.3500 C   0  0  0  0  0  0  0  0  0  0  0  0
    3.6260    0.0280    2.3470 C   0  0  0  0  0  0  0  0  0  0  0  0
    3.3630    0.0850    1.0290 C   0  0  0  0  0  0  0  0  0  0  0  0
    1.9920    0.1940    0.6120 C   0  0  0  0  0  0  0  0  0  0  0  0
    1.6950    0.2360   -0.6040 O   0  0  0  0  0  0  0  0  0  0  0  0
    0.9310    0.2590    1.5490 O   0  0  0  0  0  0  0  0  0  0  0  0
   -0.3270    0.3600    0.9810 C   0  0  0  0  0  0  0  0  0  0  0  0
   -0.7330    1.5710    0.4680 C   0  0  0  0  0  0  0  0  0  0  0  0
   -1.9720    1.6710   -0.0960 C   0  0  0  0  0  0  0  0  0  0  0  0
   -2.8120    0.5670   -0.1490 C   0  0  0  0  0  0  0  0  0  0  0  0
   -4.1210    0.7110   -0.7510 C   0  0  0  0  0  0  0  0  0  0  0  0
   -5.2250    0.2430   -0.0930 C   0  0  0  0  0  0  0  0  0  0  0  0
   -6.5070    0.3470   -0.6310 C   0  0  0  0  0  0  0  0  0  0  0  0
   -6.6140    0.9460   -1.8650 C   0  0  0  0  0  0  0  0  0  0  0  0
   -7.8790    1.0680   -2.4340 O   0  0  0  0  0  0  0  0  0  0  0  0
   -5.4810    1.4190   -2.5230 C   0  0  0  0  0  0  0  0  0  0  0  0
   -4.2170    1.3150   -1.9880 C   0  0  0  0  0  0  0  0  0  0  0  0
   -2.3730   -0.6300    0.3760 C   0  0  0  0  0  0  0  0  0  0  0  0
   -2.9350   -1.8920    0.4870 C   0  0  0  0  0  0  0  0  0  0  0  0
   -2.0600   -2.6920    1.0890 O   0  0  0  0  0  0  0  0  0  0  0  0
   -0.9660   -2.0550    1.3820 C   0  0  0  0  0  0  0  0  0  0  0  0
   -1.1210   -0.7510    0.9490 C   0  0  0  0  0  0  0  0  0  0  0  0
    4.4900    0.0680    0.1060 C   0  0  0  0  0  0  0  0  0  0  0  0
    4.3830    0.1060   -1.1790 C   0  0  0  0  0  0  0  0  0  0  0  0
    5.5170    0.0880   -2.0220 O   0  0  0  0  0  0  0  0  0  0  0  0
    6.3410   -1.3800   -2.4470 P   0  0  0  0  0  0  0  0  0  0  0  0
    8.0180   -1.1550   -2.7370 O   0  0  0  0  0  0  0  0  0  0  0  0
    5.9570   -2.7160   -1.4500 O   0  0  0  0  0  0  0  0  0  0  0  0
    6.1980    0.0210    0.8280 P   0  0  0  0  0  0  0  0  0  0  0  0
    7.1820    1.2160    0.5520 O   0  0  0  0  0  0  0  0  0  0  0  0
  1  2  1  0
  2  3  2  3
  3  4  1  0
  3 23  1  0
  4  5  2  0
  4  6  1  0
  6  7  1  0
  7  8  2  0
  7 22  1  0
  8  9  1  0
  9 10  2  0
 10 11  1  0
 10 18  1  0
 11 12  2  0
 11 17  1  0
 12 13  1  0
 13 14  2  0
 14 15  1  0
 14 16  1  0
 16 17  2  0
 18 19  2  0
 18 22  1  0
 19 20  1  0
 20 21  1  0
 21 22  2  0
 23 24  2  3
 23 29  1  0
 24 25  1  0
 25 26  1  0
 26 27  1  0
 26 28  1  0
 29 30  2  0
M  END
