
     RDKit          3D

 28 29  0  0  0  0  0  0  0  0999 V2000
   -4.2950   -1.9270   -1.0580 O   0  0  0  0  0  0  0  0  0  0  0  0
   -4.4020   -3.0820   -0.4560 C   0  0  0  0  0  0  0  0  0  0  0  0
   -5.6720   -3.4030   -0.0970 O   0  0  0  0  0  0  0  0  0  0  0  0
   -3.3090   -3.7880   -0.2540 O   0  0  0  0  0  0  0  0  0  0  0  0
   -1.9280   -3.7630   -0.4310 C   0  0  0  0  0  0  0  0  0  0  0  0
   -1.2630   -2.5880    0.2180 C   0  0  2  0  0  0  0  0  0  0  0  0
   -2.0560   -2.0640    1.4670 C   0  0  0  0  0  0  0  0  0  0  0  0
   -1.4440   -0.9130    1.8200 O   0  0  0  0  0  0  0  0  0  0  0  0
   -0.2570   -0.7120    1.3290 O   0  0  0  0  0  0  0  0  0  0  0  0
   -0.3520   -0.5300   -0.1550 C   0  0  2  0  0  0  0  0  0  0  0  0
    0.9480   -0.9670   -0.6680 C   0  0  0  0  0  0  0  0  0  0  0  0
    1.9550    0.0390   -0.2310 O   0  0  0  0  0  0  0  0  0  0  0  0
    3.0340   -0.7710   -0.1400 C   0  0  0  0  0  0  0  0  0  0  0  0
    4.2230   -0.0870    0.5970 C   0  0  0  0  0  0  0  0  0  0  0  0
    5.0480   -1.2240    0.4860 O   0  0  0  0  0  0  0  0  0  0  0  0
    6.0870   -1.2690   -0.0650 O   0  0  0  0  0  0  0  0  0  0  0  0
    6.9630   -0.4900   -0.3610 O   0  0  0  0  0  0  0  0  0  0  0  0
    7.5250    0.0710    0.7040 O   0  0  0  0  0  0  0  0  0  0  0  0
   -0.7420    0.9380   -0.4130 C   0  0  0  0  0  0  0  0  0  0  0  0
   -1.0050    1.1010   -1.5740 O   0  0  0  0  0  0  0  0  0  0  0  0
   -0.7630    1.8330    0.5810 N   0  0  0  0  0  0  0  0  0  0  0  0
   -1.2090    3.1200    0.1950 C   0  0  0  0  0  0  0  0  0  0  0  0
   -1.0710    3.5580   -1.0350 C   0  0  0  0  0  0  0  0  0  0  0  0
   -1.5900    5.0560   -1.2040 C   0  0  0  0  0  0  0  0  0  0  0  0
   -1.6290    5.7810   -0.1390 O   0  0  0  0  0  0  0  0  0  0  0  0
   -1.8080    5.2330    1.1650 C   0  0  0  0  0  0  0  0  0  0  0  0
   -1.5640    4.0020    1.2370 N   0  0  0  0  0  0  0  0  0  0  0  0
   -1.3860   -1.4090   -0.5870 O   0  0  0  0  0  0  0  0  0  0  0  0
  1  2  2  0
  2  3  1  0
  2  4  1  0
  4  5  1  0
  6  5  1  6
  6  7  1  0
  6 28  1  0
  7  8  1  0
  8  9  1  0
  9 10  1  0
 10 11  1  6
 10 19  1  0
 10 28  1  0
 11 12  1  0
 12 13  1  0
 13 14  1  0
 14 15  1  0
 15 16  1  0
 16 17  1  0
 17 18  1  0
 19 20  2  0
 19 21  1  0
 21 22  1  0
 22 23  2  0
 22 27  1  0
 23 24  1  0
 24 25  1  0
 25 26  1  0
 26 27  2  0
M  END
