
     RDKit          3D

 28 29  0  0  0  0  0  0  0  0999 V2000
    4.0300    0.2290   -1.0310 O   0  0  0  0  0  0  0  0  0  0  0  0
    3.9090   -0.5830   -0.0750 C   0  0  0  0  0  0  0  0  0  0  0  0
    2.6050   -1.0140    0.4970 C   0  0  0  0  0  0  0  0  0  0  0  0
    1.5080   -0.3230   -0.3280 C   0  0  1  0  0  0  0  0  0  0  0  0
    1.6250    1.0770   -0.2720 O   0  0  0  0  0  0  0  0  0  0  0  0
    1.2970    1.9010    0.7970 C   0  0  0  0  0  0  0  0  0  0  0  0
    2.2120    2.6310    1.3620 O   0  0  0  0  0  0  0  0  0  0  0  0
   -0.0080    2.0230    1.3520 N   0  0  0  0  0  0  0  0  0  0  0  0
   -1.2310    2.3530    0.7000 C   0  0  0  0  0  0  0  0  0  0  0  0
   -2.2240    1.2680    0.5400 C   0  0  1  0  0  0  0  0  0  0  0  0
   -1.8950    0.3930   -0.4750 O   0  0  0  0  0  0  0  0  0  0  0  0
   -2.9520   -0.5140   -0.4090 C   0  0  1  0  0  0  0  0  0  0  0  0
   -2.5740   -1.8010   -1.0740 C   0  0  0  0  0  0  0  0  0  0  0  0
   -1.1930   -1.8050   -1.2660 O   0  0  0  0  0  0  0  0  0  0  0  0
   -0.9300   -1.1360   -2.4410 C   0  0  0  0  0  0  0  0  0  0  0  0
    0.3820   -0.6290   -2.5130 O   0  0  0  0  0  0  0  0  0  0  0  0
    1.4480   -0.8700   -1.7060 C   0  0  0  0  0  0  0  0  0  0  0  0
    2.4650   -1.5760   -2.0670 O   0  0  0  0  0  0  0  0  0  0  0  0
   -3.1350   -0.6320    1.0910 C   0  0  2  0  0  0  0  0  0  0  0  0
   -4.6170   -0.5380    1.3840 C   0  0  0  0  0  0  0  0  0  0  0  0
   -5.1640    0.6270    0.8210 O   0  0  0  0  0  0  0  0  0  0  0  0
   -6.4500    0.7100    1.0720 O   0  0  0  0  0  0  0  0  0  0  0  0
   -7.0680    1.4000    0.1190 O   0  0  0  0  0  0  0  0  0  0  0  0
   -2.4400    0.4590    1.6150 O   0  0  0  0  0  0  0  0  0  0  0  0
    5.1530   -1.0840    0.4440 N   0  0  0  0  0  0  0  0  0  0  0  0
    6.4260   -0.6680   -0.1110 C   0  0  0  0  0  0  0  0  0  0  0  0
    6.5840    0.7120   -0.0010 O   0  0  0  0  0  0  0  0  0  0  0  0
    7.7400    1.0730   -0.5060 O   0  0  0  0  0  0  0  0  0  0  0  0
  1  2  2  0
  2  3  1  0
  2 25  1  0
  4  3  1  6
  4  5  1  0
  4 17  1  0
  5  6  1  0
  6  7  2  0
  6  8  1  0
  8  9  1  0
 10  9  1  1
 10 11  1  0
 10 24  1  0
 11 12  1  0
 12 13  1  1
 12 19  1  0
 13 14  1  0
 14 15  1  0
 15 16  1  0
 16 17  1  0
 17 18  2  0
 19 20  1  6
 19 24  1  0
 20 21  1  0
 21 22  1  0
 22 23  1  0
 25 26  1  0
 26 27  1  0
 27 28  1  0
M  END
