
     RDKit          3D

 28 29  0  0  0  0  0  0  0  0999 V2000
    1.5560   -1.3050   -2.9560 O   0  0  0  0  0  0  0  0  0  0  0  0
    1.2610   -0.9860   -1.7960 C   0  0  0  0  0  0  0  0  0  0  0  0
    0.9560   -1.9920   -0.9070 O   0  0  0  0  0  0  0  0  0  0  0  0
    1.2250    0.4380   -1.3300 C   0  0  0  0  0  0  0  0  0  0  0  0
    0.8240    0.5710    0.0410 N   0  0  0  0  0  0  0  0  0  0  0  0
    1.8290    0.5720    1.0810 C   0  0  0  0  0  0  0  0  0  0  0  0
    1.4500    0.6930    2.2660 O   0  0  0  0  0  0  0  0  0  0  0  0
    3.2530    0.4360    0.8070 C   0  0  0  0  0  0  0  0  0  0  0  0
    4.1060    0.5380    2.0470 C   0  0  0  0  0  0  0  0  0  0  0  0
    3.7940   -0.4470    2.9840 O   0  0  0  0  0  0  0  0  0  0  0  0
    4.5730   -0.2950    4.0280 O   0  0  0  0  0  0  0  0  0  0  0  0
    4.8690    0.9550    4.2580 O   0  0  0  0  0  0  0  0  0  0  0  0
   -0.5120    0.6920    0.4210 C   0  0  0  0  0  0  0  0  0  0  0  0
   -0.6720    0.8100    1.7300 O   0  0  0  0  0  0  0  0  0  0  0  0
   -1.7660    0.7190   -0.2890 C   0  0  2  0  0  0  0  0  0  0  0  0
   -2.7560   -0.3390    0.2220 C   0  0  0  0  0  0  0  0  0  0  0  0
   -2.2940   -1.6880    0.1060 N   0  0  0  0  0  0  0  0  0  0  0  0
   -2.4840   -2.5890   -1.0250 C   0  0  0  0  0  0  0  0  0  0  0  0
   -1.6520   -3.6690   -0.8460 O   0  0  0  0  0  0  0  0  0  0  0  0
   -1.3530   -3.6930    0.4560 O   0  0  0  0  0  0  0  0  0  0  0  0
   -1.5670   -2.4580    1.0520 C   0  0  0  0  0  0  0  0  0  0  0  0
   -1.1610   -2.1710    2.2060 O   0  0  0  0  0  0  0  0  0  0  0  0
   -1.7880    0.8150   -1.7680 C   0  0  0  0  0  0  0  0  0  0  0  0
   -3.1830    0.8690   -2.1140 O   0  0  0  0  0  0  0  0  0  0  0  0
   -3.6350    2.1980   -1.9570 C   0  0  0  0  0  0  0  0  0  0  0  0
   -3.1280    2.7640   -0.7500 O   0  0  0  0  0  0  0  0  0  0  0  0
   -2.4250    2.0330    0.1540 C   0  0  0  0  0  0  0  0  0  0  0  0
   -2.2780    2.3630    1.3320 O   0  0  0  0  0  0  0  0  0  0  0  0
  1  2  2  0
  2  3  1  0
  2  4  1  0
  4  5  1  0
  5  6  1  0
  5 13  1  0
  6  7  2  0
  6  8  1  0
  8  9  1  0
  9 10  1  0
 10 11  1  0
 11 12  1  0
 13 14  2  0
 13 15  1  0
 15 16  1  6
 15 23  1  0
 15 27  1  0
 16 17  1  0
 17 18  1  0
 17 21  1  0
 18 19  1  0
 19 20  1  0
 20 21  1  0
 21 22  2  0
 23 24  1  0
 24 25  1  0
 25 26  1  0
 26 27  1  0
 27 28  2  0
M  END
