
     RDKit          3D

 30 32  0  0  0  0  0  0  0  0999 V2000
   -1.2200    0.0980    0.1960 O   0  0  0  0  0  0  0  0  0  0  0  0
   -1.1660   -1.1310   -0.0750 C   0  0  0  0  0  0  0  0  0  0  0  0
   -2.3050   -1.7110   -0.6930 N   0  0  0  0  0  0  0  0  0  0  0  0
   -3.4610   -1.0020   -0.9940 O   0  0  0  0  0  0  0  0  0  0  0  0
   -4.2760   -0.5460    0.0400 C   0  0  0  0  0  0  0  0  0  0  0  0
   -3.8750   -0.8220    1.2070 O   0  0  0  0  0  0  0  0  0  0  0  0
   -5.4750    0.1750   -0.1410 N   0  0  0  0  0  0  0  0  0  0  0  0
   -6.2270    0.6020    1.0070 C   0  0  0  0  0  0  0  0  0  0  0  0
   -7.2950    1.4080    0.6910 O   0  0  0  0  0  0  0  0  0  0  0  0
   -7.0270    2.3580   -0.2620 C   0  0  0  0  0  0  0  0  0  0  0  0
   -6.2480    1.8890   -1.4440 C   0  0  0  0  0  0  0  0  0  0  0  0
   -5.9460    0.4730   -1.4130 N   0  0  0  0  0  0  0  0  0  0  0  0
   -0.0390   -1.8560    0.2300 O   0  0  0  0  0  0  0  0  0  0  0  0
    1.0850   -1.3660    0.8210 C   0  0  0  0  0  0  0  0  0  0  0  0
    1.2860   -0.9340    2.1290 C   0  0  0  0  0  0  0  0  0  0  0  0
    2.5290   -0.5440    2.2620 O   0  0  0  0  0  0  0  0  0  0  0  0
    3.1950   -0.6790    1.1390 C   0  0  0  0  0  0  0  0  0  0  0  0
    2.3110   -1.1950    0.2070 C   0  0  0  0  0  0  0  0  0  0  0  0
    2.6350   -1.4820   -1.1120 O   0  0  0  0  0  0  0  0  0  0  0  0
    3.7600   -2.0710   -1.6970 C   0  0  0  0  0  0  0  0  0  0  0  0
    5.0510   -1.5410   -1.2540 C   0  0  0  0  0  0  0  0  0  0  0  0
    6.0160   -1.8180   -2.0140 O   0  0  0  0  0  0  0  0  0  0  0  0
    5.4260   -0.7670   -0.1180 N   0  0  0  0  0  0  0  0  0  0  0  0
    6.8130   -0.3750   -0.0530 C   0  0  0  0  0  0  0  0  0  0  0  0
    6.9900    0.8340   -0.6780 O   0  0  0  0  0  0  0  0  0  0  0  0
    6.3130    1.8140   -0.1690 O   0  0  0  0  0  0  0  0  0  0  0  0
    5.1960    2.0790   -0.8100 O   0  0  0  0  0  0  0  0  0  0  0  0
    4.7050    3.1710   -0.2230 O   0  0  0  0  0  0  0  0  0  0  0  0
    4.6070   -0.3360    0.9530 C   0  0  0  0  0  0  0  0  0  0  0  0
    5.1210    0.3990    1.8180 O   0  0  0  0  0  0  0  0  0  0  0  0
  1  2  2  0
  2  3  1  0
  2 13  1  0
  3  4  1  0
  4  5  1  0
  5  6  2  0
  5  7  1  0
  7  8  1  0
  7 12  1  0
  8  9  1  0
  9 10  1  0
 10 11  1  0
 11 12  1  0
 13 14  1  0
 14 15  2  0
 14 18  1  0
 15 16  1  0
 16 17  1  0
 17 18  2  0
 17 29  1  0
 18 19  1  0
 19 20  1  0
 20 21  1  0
 21 22  2  0
 21 23  1  0
 23 24  1  0
 23 29  1  0
 24 25  1  0
 25 26  1  0
 26 27  1  0
 27 28  1  0
 29 30  2  0
M  END
