
     RDKit          3D

 31 31  0  0  0  0  0  0  0  0999 V2000
    0.5690   -4.4800    2.2280 O   0  0  0  0  0  0  0  0  0  0  0  0
    0.5010   -4.5520    0.9830 C   0  0  0  0  0  0  0  0  0  0  0  0
    0.1570   -5.7310    0.2960 O   0  0  0  0  0  0  0  0  0  0  0  0
    0.8010   -3.3240    0.2020 C   0  0  0  0  0  0  0  0  0  0  0  0
    1.1200   -2.2610    1.0420 O   0  0  0  0  0  0  0  0  0  0  0  0
    1.4000   -1.1310    0.3910 N   0  0  0  0  0  0  0  0  0  0  0  0
    2.7020   -0.6070    0.3840 C   0  0  0  0  0  0  0  0  0  0  0  0
    3.6060   -1.2270    1.0040 O   0  0  0  0  0  0  0  0  0  0  0  0
    3.0700    0.5640   -0.2660 O   0  0  0  0  0  0  0  0  0  0  0  0
    4.4280    0.9780   -0.1800 C   0  0  0  0  0  0  0  0  0  0  0  0
    4.6630    2.2610   -0.9400 C   0  0  0  0  0  0  0  0  0  0  0  0
    6.1100    2.6790   -0.8130 C   0  0  0  0  0  0  0  0  0  0  0  0
    6.3250    3.8570   -1.5180 O   0  0  0  0  0  0  0  0  0  0  0  0
    7.5660    4.2500   -1.4300 O   0  0  0  0  0  0  0  0  0  0  0  0
    7.7010    5.1100   -0.4270 O   0  0  0  0  0  0  0  0  0  0  0  0
    0.3780   -0.3960   -0.3230 C   0  0  0  0  0  0  0  0  0  0  0  0
    0.6030    0.6530   -0.9540 O   0  0  0  0  0  0  0  0  0  0  0  0
   -0.9390   -0.8860   -0.3100 O   0  0  0  0  0  0  0  0  0  0  0  0
   -1.9390   -0.1850   -1.0110 C   0  0  0  0  0  0  0  0  0  0  0  0
   -3.2750   -0.8730   -0.8220 C   0  0  0  0  0  0  0  0  0  0  0  0
   -3.8830   -1.4430   -1.7820 N   0  0  0  0  0  0  0  0  0  0  0  0
   -5.1040   -2.1020   -1.7330 N   0  0  0  0  0  0  0  0  0  0  0  0
   -5.7330   -2.1320   -0.4400 C   0  0  0  0  0  0  0  0  0  0  0  0
   -6.8630   -2.7230   -0.3150 O   0  0  0  0  0  0  0  0  0  0  0  0
   -5.0940   -1.5160    0.6460 N   0  0  0  0  0  0  0  0  0  0  0  0
   -3.8300   -0.8500    0.5380 C   0  0  2  0  0  0  0  0  0  0  0  0
   -3.9370    0.5920    1.0600 C   0  0  0  0  0  0  0  0  0  0  0  0
   -4.8780    1.3190    0.3390 O   0  0  0  0  0  0  0  0  0  0  0  0
   -5.2140    2.6280    0.5420 C   0  0  0  0  0  0  0  0  0  0  0  0
   -4.6480    3.2740    1.4490 O   0  0  0  0  0  0  0  0  0  0  0  0
   -6.1660    3.2580   -0.2310 O   0  0  0  0  0  0  0  0  0  0  0  0
  1  2  2  0
  2  3  1  0
  2  4  1  0
  4  5  1  0
  5  6  1  0
  6  7  1  0
  6 16  1  0
  7  8  2  0
  7  9  1  0
  9 10  1  0
 10 11  1  0
 11 12  1  0
 12 13  1  0
 13 14  1  0
 14 15  1  0
 16 17  2  0
 16 18  1  0
 18 19  1  0
 19 20  1  0
 20 21  2  0
 20 26  1  0
 21 22  1  0
 22 23  1  0
 23 24  2  0
 23 25  1  0
 25 26  1  0
 26 27  1  6
 27 28  1  0
 28 29  1  0
 29 30  2  0
 29 31  1  0
M  END
