
     RDKit          3D

 31 33  0  0  0  0  0  0  0  0999 V2000
   -8.0560    2.8170   -0.9230 O   0  0  0  0  0  0  0  0  0  0  0  0
   -7.3140    2.0970   -0.3410 C   0  0  0  0  0  0  0  0  0  0  0  0
   -7.8260    1.2130    0.5340 N   0  0  0  0  0  0  0  0  0  0  0  0
   -7.1050    0.3840    1.2580 C   0  0  0  0  0  0  0  0  0  0  0  0
   -5.7370    0.3500    1.1480 N   0  0  0  0  0  0  0  0  0  0  0  0
   -5.1960    1.2060    0.2970 C   0  0  0  0  0  0  0  0  0  0  0  0
   -5.9530    2.0560   -0.4400 C   0  0  0  0  0  0  0  0  0  0  0  0
   -5.1090    2.7870   -1.2480 N   0  0  0  0  0  0  0  0  0  0  0  0
   -3.8270    2.3360   -0.9740 C   0  0  0  0  0  0  0  0  0  0  0  0
   -3.8960    1.3850   -0.0370 N   0  0  0  0  0  0  0  0  0  0  0  0
   -2.8730    0.5110    0.4070 C   0  0  2  0  0  0  0  0  0  0  0  0
   -1.6790    0.9100    0.8330 O   0  0  0  0  0  0  0  0  0  0  0  0
   -0.8650   -0.1310    0.5830 C   0  0  2  0  0  0  0  0  0  0  0  0
    0.6330   -0.0630    0.7760 C   0  0  0  0  0  0  0  0  0  0  0  0
    1.0620   -0.8660   -0.3230 O   0  0  0  0  0  0  0  0  0  0  0  0
    2.1740   -1.9730   -0.0660 P   0  0  0  0  0  0  0  0  0  0  0  0
    2.9290   -2.2680    1.3140 O   0  0  0  0  0  0  0  0  0  0  0  0
    2.1960   -3.2280   -1.2800 O   0  0  0  0  0  0  0  0  0  0  0  0
    3.2960   -1.3580   -0.7910 O   0  0  0  0  0  0  0  0  0  0  0  0
    4.4800   -0.6080   -0.1290 P   0  0  0  0  0  0  0  0  0  0  0  0
    4.8230   -1.9300    0.8040 O   0  0  0  0  0  0  0  0  0  0  0  0
    3.3630    0.4820    0.4520 O   0  0  0  0  0  0  0  0  0  0  0  0
    5.5160    0.2220    0.6500 O   0  0  0  0  0  0  0  0  0  0  0  0
    6.8560    0.7200    0.1400 P   0  0  0  0  0  0  0  0  0  0  0  0
    6.1040    1.1320   -1.3200 O   0  0  0  0  0  0  0  0  0  0  0  0
    6.9950    1.8510    1.3230 O   0  0  0  0  0  0  0  0  0  0  0  0
    7.5590   -0.7420    0.3110 O   0  0  0  0  0  0  0  0  0  0  0  0
   -1.2610   -0.8980   -0.6470 C   0  0  1  0  0  0  0  0  0  0  0  0
   -1.6170   -2.1970   -0.3650 O   0  0  0  0  0  0  0  0  0  0  0  0
   -2.4550   -0.1480   -1.0560 C   0  0  1  0  0  0  0  0  0  0  0  0
   -3.5890   -0.8990   -1.3370 O   0  0  0  0  0  0  0  0  0  0  0  0
  1  2  2  0
  2  3  1  0
  2  7  1  0
  3  4  1  0
  4  5  2  0
  5  6  1  0
  6  7  2  0
  6 10  1  0
  7  8  1  0
  8  9  2  0
  9 10  1  0
 11 10  1  6
 11 12  1  0
 11 30  1  0
 12 13  1  0
 13 14  1  6
 13 28  1  0
 14 15  1  0
 15 16  1  0
 16 17  1  0
 16 18  1  0
 16 19  1  0
 19 20  1  0
 20 21  1  0
 20 22  1  0
 20 23  1  0
 23 24  1  0
 24 25  1  0
 24 26  1  0
 24 27  1  0
 28 29  1  1
 28 30  1  0
 30 31  1  1
M  END
