
     RDKit          3D

 30 31  0  0  0  0  0  0  0  0999 V2000
    3.2810   -5.3230    0.7630 O   0  0  0  0  0  0  0  0  0  0  0  0
    2.0960   -4.8960    0.6470 C   0  0  0  0  0  0  0  0  0  0  0  0
    0.9570   -5.6720    1.2030 C   0  0  0  0  0  0  0  0  0  0  0  0
    0.2010   -4.7550    1.9620 O   0  0  0  0  0  0  0  0  0  0  0  0
   -0.2030   -3.8190    1.1010 O   0  0  0  0  0  0  0  0  0  0  0  0
    0.6390   -3.1480    0.2280 C   0  0  0  0  0  0  0  0  0  0  0  0
    0.1950   -1.9410   -0.3470 N   0  0  0  0  0  0  0  0  0  0  0  0
    1.0590   -1.1990   -1.2770 C   0  0  0  0  0  0  0  0  0  0  0  0
    1.8700   -0.2520   -0.4440 C   0  0  0  0  0  0  0  0  0  0  0  0
    2.7380    0.5230   -1.1720 O   0  0  0  0  0  0  0  0  0  0  0  0
    3.4270    1.3530   -0.2890 C   0  0  0  0  0  0  0  0  0  0  0  0
    4.3870    2.2110   -1.0900 C   0  0  0  0  0  0  0  0  0  0  0  0
    5.0930    3.0570   -0.2220 O   0  0  0  0  0  0  0  0  0  0  0  0
    5.9020    3.7670   -0.9860 O   0  0  0  0  0  0  0  0  0  0  0  0
    5.1730    4.3880   -1.9070 O   0  0  0  0  0  0  0  0  0  0  0  0
   -1.0820   -1.4040   -0.0540 C   0  0  0  0  0  0  0  0  0  0  0  0
   -1.8280   -2.0330    0.7430 O   0  0  0  0  0  0  0  0  0  0  0  0
   -1.4960   -0.2100   -0.6340 O   0  0  0  0  0  0  0  0  0  0  0  0
   -2.7650    0.2890   -0.3210 C   0  0  1  0  0  0  0  0  0  0  0  0
   -2.7300    1.6650    0.2930 C   0  0  0  0  0  0  0  0  0  0  0  0
   -4.0850    2.0170    0.6630 N   0  0  0  0  0  0  0  0  0  0  0  0
   -4.3170    2.6600    1.9260 C   0  0  0  0  0  0  0  0  0  0  0  0
   -5.4850    2.9730    2.2660 O   0  0  0  0  0  0  0  0  0  0  0  0
   -3.2630    2.9390    2.7770 O   0  0  0  0  0  0  0  0  0  0  0  0
   -5.1560    1.7320   -0.2040 C   0  0  0  0  0  0  0  0  0  0  0  0
   -6.3120    2.2190    0.0280 O   0  0  0  0  0  0  0  0  0  0  0  0
   -4.9460    0.9020   -1.3360 N   0  0  0  0  0  0  0  0  0  0  0  0
   -3.6340    0.3890   -1.5410 C   0  0  0  0  0  0  0  0  0  0  0  0
   -3.2350    0.0410   -2.6800 O   0  0  0  0  0  0  0  0  0  0  0  0
    1.7920   -3.6720   -0.0100 N   0  0  0  0  0  0  0  0  0  0  0  0
  1  2  2  0
  2  3  1  0
  2 30  1  0
  3  4  1  0
  4  5  1  0
  5  6  1  0
  6  7  1  0
  6 30  2  0
  7  8  1  0
  7 16  1  0
  8  9  1  0
  9 10  1  0
 10 11  1  0
 11 12  1  0
 12 13  1  0
 13 14  1  0
 14 15  1  0
 16 17  2  0
 16 18  1  0
 19 18  1  6
 19 20  1  0
 19 28  1  0
 20 21  1  0
 21 22  1  0
 21 25  1  0
 22 23  2  0
 22 24  1  0
 25 26  2  0
 25 27  1  0
 27 28  1  0
 28 29  2  0
M  END
