
     RDKit          3D

 30 32  0  0  0  0  0  0  0  0999 V2000
   -4.0020   -2.2730   -1.6750 O   0  0  0  0  0  0  0  0  0  0  0  0
   -3.5530   -1.1130   -1.5900 C   0  0  0  0  0  0  0  0  0  0  0  0
   -4.1830   -0.0890   -2.2690 O   0  0  0  0  0  0  0  0  0  0  0  0
   -2.4380   -0.8800   -0.8210 O   0  0  0  0  0  0  0  0  0  0  0  0
   -1.7390   -1.8730   -0.0990 C   0  0  2  0  0  0  0  0  0  0  0  0
   -1.8390   -1.6840    1.3690 C   0  0  0  0  0  0  0  0  0  0  0  0
   -2.2080   -0.5790    1.8360 N   0  0  0  0  0  0  0  0  0  0  0  0
   -2.5790    0.6260    1.2260 C   0  0  0  0  0  0  0  0  0  0  0  0
   -3.8120    1.2330    1.2310 N   0  0  0  0  0  0  0  0  0  0  0  0
   -3.7820    2.3610    0.5520 N   0  0  0  0  0  0  0  0  0  0  0  0
   -2.5110    2.5080    0.0900 C   0  0  0  0  0  0  0  0  0  0  0  0
   -1.7630    1.4330    0.5060 C   0  0  0  0  0  0  0  0  0  0  0  0
   -0.4270    1.2590    0.2130 O   0  0  0  0  0  0  0  0  0  0  0  0
    0.2080    2.2370   -0.5540 N   0  0  0  0  0  0  0  0  0  0  0  0
    1.6180    2.0860   -0.8780 C   0  0  0  0  0  0  0  0  0  0  0  0
    2.3250    1.9410    0.4330 C   0  0  0  0  0  0  0  0  0  0  0  0
    3.1130    2.8570    0.8570 O   0  0  0  0  0  0  0  0  0  0  0  0
    2.0810    0.7800    1.1500 O   0  0  0  0  0  0  0  0  0  0  0  0
    2.0980   -0.4650    0.5190 C   0  0  1  0  0  0  0  0  0  0  0  0
    3.4880   -1.0770    0.7040 C   0  0  0  0  0  0  0  0  0  0  0  0
    3.7640   -1.2310    2.0480 O   0  0  0  0  0  0  0  0  0  0  0  0
    4.9450   -1.7510    2.2070 O   0  0  0  0  0  0  0  0  0  0  0  0
    5.3410   -2.2520    1.0400 O   0  0  0  0  0  0  0  0  0  0  0  0
    1.1610   -1.3760    1.2550 C   0  0  0  0  0  0  0  0  0  0  0  0
    1.0720   -1.1940    2.4990 O   0  0  0  0  0  0  0  0  0  0  0  0
    0.4660   -2.3370    0.5510 O   0  0  0  0  0  0  0  0  0  0  0  0
   -0.3500   -2.0380   -0.5930 C   0  0  0  0  0  0  0  0  0  0  0  0
   -0.5200    3.3710   -1.0110 C   0  0  0  0  0  0  0  0  0  0  0  0
    0.0320    4.2810   -1.7130 O   0  0  0  0  0  0  0  0  0  0  0  0
   -1.8580    3.4620   -0.6690 O   0  0  0  0  0  0  0  0  0  0  0  0
  1  2  2  0
  2  3  1  0
  2  4  1  0
  5  4  1  6
  5  6  1  0
  5 27  1  0
  6  7  2  0
  7  8  1  0
  8  9  2  0
  8 12  1  0
  9 10  1  0
 10 11  1  0
 11 12  2  0
 11 30  1  0
 12 13  1  0
 13 14  1  0
 14 15  1  0
 14 28  1  0
 15 16  1  0
 16 17  2  0
 16 18  1  0
 18 19  1  0
 19 20  1  1
 19 24  1  0
 20 21  1  0
 21 22  1  0
 22 23  1  0
 24 25  2  0
 24 26  1  0
 26 27  1  0
 28 29  2  0
 28 30  1  0
M  END
