
     RDKit          3D

 30 31  0  0  0  0  0  0  0  0999 V2000
   -0.2640   -3.0420    0.9900 O   0  0  0  0  0  0  0  0  0  0  0  0
   -0.2890   -1.9490    1.6650 C   0  0  0  0  0  0  0  0  0  0  0  0
   -1.7140   -1.4890    1.9190 C   0  0  0  0  0  0  0  0  0  0  0  0
   -2.1260   -0.8220    0.8040 O   0  0  0  0  0  0  0  0  0  0  0  0
   -2.9340   -1.5490   -0.0520 C   0  0  1  0  0  0  0  0  0  0  0  0
   -4.0930   -0.5960   -0.4010 C   0  0  0  0  0  0  0  0  0  0  0  0
   -3.4930    0.7610   -0.5530 C   0  0  2  0  0  0  0  0  0  0  0  0
   -4.4120    1.7850   -0.7550 O   0  0  0  0  0  0  0  0  0  0  0  0
   -4.5410    2.8440    0.1320 C   0  0  0  0  0  0  0  0  0  0  0  0
   -3.7720    2.8240    1.1360 O   0  0  0  0  0  0  0  0  0  0  0  0
   -5.4610    3.8450   -0.0950 O   0  0  0  0  0  0  0  0  0  0  0  0
   -2.4390    0.7360   -1.6090 C   0  0  0  0  0  0  0  0  0  0  0  0
   -2.2870    1.7560   -2.3110 O   0  0  0  0  0  0  0  0  0  0  0  0
   -1.6280   -0.4690   -1.7870 N   0  0  0  0  0  0  0  0  0  0  0  0
   -0.4210   -0.1950   -2.3140 O   0  0  0  0  0  0  0  0  0  0  0  0
    0.6500   -0.5640   -1.5480 C   0  0  0  0  0  0  0  0  0  0  0  0
    0.8930    0.4580   -0.4910 C   0  0  0  0  0  0  0  0  0  0  0  0
    1.9470    0.0580    0.4400 N   0  0  0  0  0  0  0  0  0  0  0  0
    3.2830    0.2480   -0.0250 C   0  0  0  0  0  0  0  0  0  0  0  0
    3.4690    0.7290   -1.1640 O   0  0  0  0  0  0  0  0  0  0  0  0
    4.4160   -0.0920    0.7660 N   0  0  0  0  0  0  0  0  0  0  0  0
    5.7060    0.1350    0.2150 C   0  0  0  0  0  0  0  0  0  0  0  0
    5.8410    0.6260   -0.9480 O   0  0  0  0  0  0  0  0  0  0  0  0
    6.8630   -0.1640    0.9100 O   0  0  0  0  0  0  0  0  0  0  0  0
    8.0910    0.0500    0.3900 O   0  0  0  0  0  0  0  0  0  0  0  0
    7.9420    0.9340   -0.5710 O   0  0  0  0  0  0  0  0  0  0  0  0
    1.6840   -0.4850    1.7270 C   0  0  0  0  0  0  0  0  0  0  0  0
    0.7880   -1.2620    2.1140 N   0  0  0  0  0  0  0  0  0  0  0  0
   -2.2040   -1.6790   -1.3810 C   0  0  0  0  0  0  0  0  0  0  0  0
   -2.2500   -2.8190   -1.8630 O   0  0  0  0  0  0  0  0  0  0  0  0
  1  2  2  0
  2  3  1  0
  2 28  1  0
  3  4  1  0
  4  5  1  0
  5  6  1  6
  5 29  1  0
  6  7  1  0
  7  8  1  6
  7 12  1  0
  8  9  1  0
  9 10  2  0
  9 11  1  0
 12 13  2  0
 12 14  1  0
 14 15  1  0
 14 29  1  0
 15 16  1  0
 16 17  1  0
 17 18  1  0
 18 19  1  0
 18 27  1  0
 19 20  2  0
 19 21  1  0
 21 22  1  0
 22 23  2  0
 22 24  1  0
 24 25  1  0
 25 26  1  0
 27 28  2  0
 29 30  2  0
M  END
