
     RDKit          3D

 30 31  0  0  0  0  0  0  0  0999 V2000
    6.0370    0.8130    2.0190 O   0  0  0  0  0  0  0  0  0  0  0  0
    5.9990    0.2960    0.8860 C   0  0  0  0  0  0  0  0  0  0  0  0
    4.7430   -0.2030    0.3830 N   0  0  0  0  0  0  0  0  0  0  0  0
    3.5870   -0.1070    1.1540 C   0  0  0  0  0  0  0  0  0  0  0  0
    3.7090    0.4430    2.2990 O   0  0  0  0  0  0  0  0  0  0  0  0
    2.3340   -0.5780    0.7310 N   0  0  0  0  0  0  0  0  0  0  0  0
    1.2230   -0.3890    1.6310 C   0  0  0  0  0  0  0  0  0  0  0  0
    1.3270    0.4010    2.6310 O   0  0  0  0  0  0  0  0  0  0  0  0
   -0.0790   -1.0720    1.4710 C   0  0  0  0  0  0  0  0  0  0  0  0
   -1.1030   -0.1640    1.8670 O   0  0  0  0  0  0  0  0  0  0  0  0
   -1.8570    0.6030    1.0220 C   0  0  0  0  0  0  0  0  0  0  0  0
   -1.9290    1.8790    1.0870 O   0  0  0  0  0  0  0  0  0  0  0  0
   -2.6830   -0.0120   -0.0780 C   0  0  1  0  0  0  0  0  0  0  0  0
   -4.0330   -0.2470    0.3640 N   0  0  0  0  0  0  0  0  0  0  0  0
   -5.0410    0.6700    0.8650 C   0  0  0  0  0  0  0  0  0  0  0  0
   -6.2980    0.0770    0.2490 C   0  0  0  0  0  0  0  0  0  0  0  0
   -6.0460   -1.3170    0.3730 O   0  0  0  0  0  0  0  0  0  0  0  0
   -4.6650   -1.5190    0.3940 C   0  0  0  0  0  0  0  0  0  0  0  0
   -4.0980   -2.6550    0.4330 O   0  0  0  0  0  0  0  0  0  0  0  0
   -2.7450    0.9530   -1.2300 C   0  0  0  0  0  0  0  0  0  0  0  0
   -3.8200    1.6080   -1.4590 O   0  0  0  0  0  0  0  0  0  0  0  0
   -1.6520    1.1840   -2.1010 N   0  0  0  0  0  0  0  0  0  0  0  0
   -0.7240    0.1230   -2.4190 C   0  0  0  0  0  0  0  0  0  0  0  0
    0.5880    0.3160   -1.6720 C   0  0  0  0  0  0  0  0  0  0  0  0
    1.1450   -0.9460   -1.4260 O   0  0  0  0  0  0  0  0  0  0  0  0
    2.1840   -1.2080   -0.5250 C   0  0  0  0  0  0  0  0  0  0  0  0
    3.0310   -2.0890   -0.9150 O   0  0  0  0  0  0  0  0  0  0  0  0
    7.1160    0.1800    0.0870 O   0  0  0  0  0  0  0  0  0  0  0  0
    8.3230    0.6290    0.5040 O   0  0  0  0  0  0  0  0  0  0  0  0
    9.1830    0.2780   -0.4170 O   0  0  0  0  0  0  0  0  0  0  0  0
  1  2  2  0
  2  3  1  0
  2 28  1  0
  3  4  1  0
  4  5  2  0
  4  6  1  0
  6  7  1  0
  6 26  1  0
  7  8  2  0
  7  9  1  0
  9 10  1  0
 10 11  1  0
 11 12  2  0
 11 13  1  0
 13 14  1  1
 13 20  1  0
 14 15  1  0
 14 18  1  0
 15 16  1  0
 16 17  1  0
 17 18  1  0
 18 19  2  0
 20 21  2  0
 20 22  1  0
 22 23  1  0
 23 24  1  0
 24 25  1  0
 25 26  1  0
 26 27  2  0
 28 29  1  0
 29 30  1  0
M  END
