
     RDKit          3D

 31 32  0  0  0  0  0  0  0  0999 V2000
   -3.1670    3.3450   -0.1690 O   0  0  0  0  0  0  0  0  0  0  0  0
   -2.8030    3.1990   -1.3630 C   0  0  0  0  0  0  0  0  0  0  0  0
   -3.3810    3.9730   -2.3570 O   0  0  0  0  0  0  0  0  0  0  0  0
   -1.7650    2.2030   -1.6900 C   0  0  0  0  0  0  0  0  0  0  0  0
   -1.3240    1.5230   -0.4540 N   0  0  0  0  0  0  0  0  0  0  0  0
   -2.0680    0.3490   -0.1330 C   0  0  0  0  0  0  0  0  0  0  0  0
   -2.5980   -0.2830   -1.0850 O   0  0  0  0  0  0  0  0  0  0  0  0
   -2.2680   -0.1870    1.2350 C   0  0  0  0  0  0  0  0  0  0  0  0
   -2.9960   -1.3320    1.2520 O   0  0  0  0  0  0  0  0  0  0  0  0
   -2.8240   -2.6510    1.1330 C   0  0  0  0  0  0  0  0  0  0  0  0
   -2.8530   -3.4420    2.1180 O   0  0  0  0  0  0  0  0  0  0  0  0
   -2.5860   -3.2620   -0.1960 C   0  0  0  0  0  0  0  0  0  0  0  0
   -1.3310   -3.0720   -0.7080 O   0  0  0  0  0  0  0  0  0  0  0  0
   -0.4110   -3.8110    0.0320 C   0  0  0  0  0  0  0  0  0  0  0  0
    0.4830   -2.8500    0.7190 C   0  0  0  0  0  0  0  0  0  0  0  0
    1.2690   -2.8830    1.8230 N   0  0  0  0  0  0  0  0  0  0  0  0
    1.8350   -1.7210    1.9500 O   0  0  0  0  0  0  0  0  0  0  0  0
    1.4600   -0.9220    0.9850 C   0  0  0  0  0  0  0  0  0  0  0  0
    0.6180   -1.6290    0.2200 N   0  0  0  0  0  0  0  0  0  0  0  0
    1.7570    0.4520    0.6240 C   0  0  1  0  0  0  0  0  0  0  0  0
    3.1380    0.7720    1.2320 C   0  0  0  0  0  0  0  0  0  0  0  0
    3.4990    2.0100    0.7180 O   0  0  0  0  0  0  0  0  0  0  0  0
    4.6540    2.4330    1.1350 O   0  0  0  0  0  0  0  0  0  0  0  0
    5.2620    1.5940    1.9340 O   0  0  0  0  0  0  0  0  0  0  0  0
    1.9910    0.5110   -0.8680 C   0  0  0  0  0  0  0  0  0  0  0  0
    0.8320    0.2730   -1.5660 O   0  0  0  0  0  0  0  0  0  0  0  0
    0.9680    0.3110   -2.8530 O   0  0  0  0  0  0  0  0  0  0  0  0
    2.0880   -0.2880   -3.1850 O   0  0  0  0  0  0  0  0  0  0  0  0
    0.8050    1.4380    0.9830 N   0  0  0  0  0  0  0  0  0  0  0  0
   -0.2500    2.0520    0.3030 C   0  0  0  0  0  0  0  0  0  0  0  0
   -0.2480    3.3410    0.3800 O   0  0  0  0  0  0  0  0  0  0  0  0
  1  2  2  0
  2  3  1  0
  2  4  1  0
  4  5  1  0
  5  6  1  0
  5 30  1  0
  6  7  2  0
  6  8  1  0
  8  9  1  0
  9 10  1  0
 10 11  2  0
 10 12  1  0
 12 13  1  0
 13 14  1  0
 14 15  1  0
 15 16  2  0
 15 19  1  0
 16 17  1  0
 17 18  1  0
 18 19  2  0
 18 20  1  0
 20 21  1  1
 20 25  1  0
 20 29  1  0
 21 22  1  0
 22 23  1  0
 23 24  1  0
 25 26  1  0
 26 27  1  0
 27 28  1  0
 29 30  1  0
 30 31  2  0
M  END
