
     RDKit          3D

 18 19  0  0  0  0  0  0  0  0999 V2000
   -4.3970    0.9560   -0.9310 C   0  0  0  0  0  0  0  0  0  0  0  0
   -2.9460    0.6590   -0.6460 C   0  0  0  0  0  0  0  0  0  0  0  0
   -1.9310    1.3740   -0.9370 N   0  0  0  0  0  0  0  0  0  0  0  0
   -0.7080    0.7730   -0.5070 C   0  0  0  0  0  0  0  0  0  0  0  0
    0.4770    1.3130   -0.6470 C   0  0  0  0  0  0  0  0  0  0  0  0
    1.7190    0.7020   -0.2170 C   0  0  0  0  0  0  0  0  0  0  0  0
    2.5870    1.4450    0.5920 C   0  0  0  0  0  0  0  0  0  0  0  0
    3.7980    0.9590    1.0270 C   0  0  0  0  0  0  0  0  0  0  0  0
    4.6270    1.7180    1.8200 F   0  0  0  0  0  0  0  0  0  0  0  0
    4.1690   -0.3290    0.6420 C   0  0  0  0  0  0  0  0  0  0  0  0
    5.4070   -0.7990    1.1020 O   0  0  0  0  0  0  0  0  0  0  0  0
    3.3400   -1.0880   -0.1530 C   0  0  0  0  0  0  0  0  0  0  0  0
    3.7530   -2.3340   -0.4940 F   0  0  0  0  0  0  0  0  0  0  0  0
    2.1400   -0.5580   -0.5630 C   0  0  0  0  0  0  0  0  0  0  0  0
   -1.0930   -0.4730    0.1220 C   0  0  0  0  0  0  0  0  0  0  0  0
   -0.3560   -1.3340    0.6490 O   0  0  0  0  0  0  0  0  0  0  0  0
   -2.5320   -0.5190    0.0180 N   0  0  0  0  0  0  0  0  0  0  0  0
   -3.2980   -1.6170    0.5380 C   0  0  0  0  0  0  0  0  0  0  0  0
  1  2  1  0
  2  3  2  0
  2 17  1  0
  3  4  1  0
  4  5  2  3
  4 15  1  0
  5  6  1  0
  6  7  2  0
  6 14  1  0
  7  8  1  0
  8  9  1  0
  8 10  2  0
 10 11  1  0
 10 12  1  0
 12 13  1  0
 12 14  2  0
 15 16  2  0
 15 17  1  0
 17 18  1  0
M  END
