
     RDKit          3D

 20 19  0  0  0  0  0  0  0  0999 V2000
    4.8890    3.2740   -0.7670 C   0  0  0  0  0  0  0  0  0  0  0  0
    3.8450    2.2960   -0.8770 O   0  0  0  0  0  0  0  0  0  0  0  0
    3.5270    1.4510    0.1660 C   0  0  0  0  0  0  0  0  0  0  0  0
    4.1930    1.5670    1.2320 O   0  0  0  0  0  0  0  0  0  0  0  0
    2.5430    0.4970    0.1270 O   0  0  0  0  0  0  0  0  0  0  0  0
    2.2260   -0.3610    1.1980 C   0  0  0  0  0  0  0  0  0  0  0  0
    1.1200   -1.3170    0.9270 C   0  0  0  0  0  0  0  0  0  0  0  0
   -0.2190   -0.7280    0.6220 C   0  0  1  0  0  0  0  0  0  0  0  0
   -0.1790    0.1340   -0.5820 C   0  0  0  0  0  0  0  0  0  0  0  0
   -1.5390    0.7250   -0.9260 C   0  0  0  0  0  0  0  0  0  0  0  0
   -2.0380    1.5740    0.2330 C   0  0  0  0  0  0  0  0  0  0  0  0
   -3.6310    2.2770   -0.1570 S   0  0  1  0  0  0  0  0  0  0  0  0
   -4.1500    3.2250    1.1780 N   0  0  0  0  0  0  0  0  0  0  0  0
   -3.5160    3.1630   -1.3660 O   0  0  0  0  0  0  0  0  0  0  0  0
   -4.5810    1.1510   -0.4350 O   0  0  0  0  0  0  0  0  0  0  0  0
   -1.1520   -1.8370    0.4990 N   0  0  0  0  0  0  0  0  0  0  0  0
   -0.9320   -2.6490   -0.6550 C   0  0  0  0  0  0  0  0  0  0  0  0
   -0.7430   -4.0570   -0.2600 C   0  0  0  0  0  0  0  0  0  0  0  0
   -0.5100   -5.0330   -1.2520 N   0  0  0  0  0  0  0  0  0  0  0  0
   -0.7870   -4.3840    0.9370 O   0  0  0  0  0  0  0  0  0  0  0  0
  1  2  1  0
  2  3  1  0
  3  4  2  0
  3  5  1  0
  5  6  1  0
  6  7  1  0
  8  7  1  6
  8  9  1  0
  8 16  1  0
  9 10  1  0
 10 11  1  0
 11 12  1  0
 12 13  1  1
 12 14  2  0
 12 15  2  0
 16 17  1  0
 17 18  1  0
 18 19  1  0
 18 20  2  0
M  CHG  1  16   1
M  END
