
     RDKit          3D

 20 19  0  0  0  0  0  0  0  0999 V2000
    1.6210    1.4580    2.1790 N   0  0  0  0  0  0  0  0  0  0  0  0
    1.8730    0.0330    2.2940 C   0  0  0  0  0  0  0  0  0  0  0  0
    1.2780   -0.6660    1.1300 C   0  0  2  0  0  0  0  0  0  0  0  0
    1.8480   -0.1350   -0.1540 C   0  0  0  0  0  0  0  0  0  0  0  0
    3.3010   -0.2970   -0.3150 C   0  0  0  0  0  0  0  0  0  0  0  0
    4.0350   -0.8960    0.5100 O   0  0  0  0  0  0  0  0  0  0  0  0
    3.9620    0.2460   -1.4700 N   0  0  0  0  0  0  0  0  0  0  0  0
    5.3620    0.0630   -1.5770 C   0  0  0  0  0  0  0  0  0  0  0  0
    6.0510   -0.5500   -0.7130 O   0  0  0  0  0  0  0  0  0  0  0  0
    6.2100    0.7290   -3.0030 S   0  0  0  0  0  0  0  0  0  0  0  0
    5.6120    2.0730   -3.4010 O   0  0  0  0  0  0  0  0  0  0  0  0
   -0.0990   -0.5020    1.0250 O   0  0  0  0  0  0  0  0  0  0  0  0
   -0.7920   -1.6950    0.9730 C   0  0  0  0  0  0  0  0  0  0  0  0
   -2.2660   -1.3580    0.8610 C   0  0  0  0  0  0  0  0  0  0  0  0
   -2.5160   -0.5590   -0.3780 C   0  0  0  0  0  0  0  0  0  0  0  0
   -3.9620   -0.2390   -0.4720 C   0  0  0  0  0  0  0  0  0  0  0  0
   -4.7550   -0.6300    0.4120 O   0  0  0  0  0  0  0  0  0  0  0  0
   -4.5010    0.5180   -1.5560 N   0  0  0  0  0  0  0  0  0  0  0  0
   -5.9240    0.7930   -1.5810 C   0  0  0  0  0  0  0  0  0  0  0  0
   -6.3040    1.5130   -0.4490 O   0  0  0  0  0  0  0  0  0  0  0  0
  1  2  1  0
  3  2  1  1
  3  4  1  0
  3 12  1  0
  4  5  1  0
  5  6  2  0
  5  7  1  0
  7  8  1  0
  8  9  2  0
  8 10  1  0
 10 11  2  0
 12 13  1  0
 13 14  1  0
 14 15  1  0
 15 16  1  0
 16 17  2  0
 16 18  1  0
 18 19  1  0
 19 20  1  0
M  CHG  1   1   1
M  END
