
     RDKit          3D

 20 19  0  0  0  0  0  0  0  0999 V2000
    3.9140   -3.6750    3.7200 N   0  0  0  0  0  0  0  0  0  0  0  0
    3.5750   -3.3450    2.5900 C   0  0  0  0  0  0  0  0  0  0  0  0
    3.1700   -2.9550    1.2810 C   0  0  2  0  0  0  0  0  0  0  0  0
    1.7260   -2.7770    1.2650 O   0  0  0  0  0  0  0  0  0  0  0  0
    3.4300   -4.0130    0.2640 C   0  0  0  0  0  0  0  0  0  0  0  0
    4.7540   -4.3450    0.1570 O   0  0  0  0  0  0  0  0  0  0  0  0
    3.7590   -1.6680    0.8840 C   0  0  0  0  0  0  0  0  0  0  0  0
    4.9390   -1.4280    0.9870 O   0  0  0  0  0  0  0  0  0  0  0  0
    2.8910   -0.5760    0.3230 C   0  0  0  0  0  0  0  0  0  0  0  0
    1.5880   -1.0440    0.0300 O   0  0  0  0  0  0  0  0  0  0  0  0
    0.7070   -0.1280   -0.4860 C   0  0  0  0  0  0  0  0  0  0  0  0
    0.7680    0.2280   -2.0750 S   0  0  0  0  0  0  0  0  0  0  0  0
   -0.2530    0.5040    0.3700 N   0  0  0  0  0  0  0  0  0  0  0  0
   -1.1680    1.4650   -0.1650 C   0  0  0  0  0  0  0  0  0  0  0  0
   -1.1040    1.7400   -1.3720 O   0  0  0  0  0  0  0  0  0  0  0  0
   -2.1700    2.1150    0.7100 C   0  0  0  0  0  0  0  0  0  0  0  0
   -2.9640    2.9890   -0.1610 N   0  0  0  0  0  0  0  0  0  0  0  0
   -4.1190    2.2510   -0.6710 C   0  0  0  0  0  0  0  0  0  0  0  0
   -4.2890    2.4560   -2.1570 C   0  0  0  0  0  0  0  0  0  0  0  0
   -4.4840    3.7880   -2.4550 O   0  0  0  0  0  0  0  0  0  0  0  0
  1  2  3  0
  2  3  1  0
  3  4  1  1
  3  5  1  0
  3  7  1  0
  5  6  1  0
  7  8  2  0
  7  9  1  0
  9 10  1  0
 10 11  1  0
 11 12  2  0
 11 13  1  0
 13 14  1  0
 14 15  2  0
 14 16  1  0
 16 17  1  0
 17 18  1  0
 18 19  1  0
 19 20  1  0
M  CHG  1  17   1
M  END
