
     RDKit          3D

 17 18  0  0  0  0  0  0  0  0999 V2000
    4.6180    0.6720   -0.5470 C   0  0  0  0  0  0  0  0  0  0  0  0
    4.0650    0.8510    0.8420 C   0  0  0  0  0  0  0  0  0  0  0  0
    2.6830    1.0110    0.7980 O   0  0  0  0  0  0  0  0  0  0  0  0
    1.7990    0.0800    0.2860 C   0  0  0  0  0  0  0  0  0  0  0  0
    2.2720   -0.9680   -0.1630 O   0  0  0  0  0  0  0  0  0  0  0  0
    0.3800    0.3860    0.3060 C   0  0  0  0  0  0  0  0  0  0  0  0
   -0.5550   -0.4390   -0.1630 C   0  0  0  0  0  0  0  0  0  0  0  0
   -0.1310   -1.7360   -0.7360 C   0  0  0  0  0  0  0  0  0  0  0  0
   -1.6700   -2.4070   -1.4050 S   0  0  0  0  0  0  0  0  0  0  0  0
   -2.7300   -1.1170   -0.7750 C   0  0  0  0  0  0  0  0  0  0  0  0
   -1.9570   -0.1970   -0.1670 C   0  0  0  0  0  0  0  0  0  0  0  0
   -2.6470    0.8560    0.3690 N   0  0  0  0  0  0  0  0  0  0  0  0
   -3.9750    0.9790    0.3050 C   0  0  0  0  0  0  0  0  0  0  0  0
   -4.5760    1.9680    0.8130 O   0  0  0  0  0  0  0  0  0  0  0  0
   -4.7440    0.0650   -0.3000 N   0  0  0  0  0  0  0  0  0  0  0  0
   -4.0980   -0.9820   -0.8370 C   0  0  0  0  0  0  0  0  0  0  0  0
   -4.8100   -1.8590   -1.4150 O   0  0  0  0  0  0  0  0  0  0  0  0
  1  2  1  0
  2  3  1  0
  3  4  1  0
  4  5  2  0
  4  6  1  0
  6  7  2  3
  7  8  1  0
  7 11  1  0
  8  9  1  0
  9 10  1  0
 10 11  2  0
 10 16  1  0
 11 12  1  0
 12 13  1  0
 13 14  2  0
 13 15  1  0
 15 16  1  0
 16 17  2  0
M  END
