
     RDKit          3D

 22 23  0  0  0  0  0  0  0  0999 V2000
    5.0500    2.6320   -0.2270 C   0  0  0  0  0  0  0  0  0  0  0  0
    4.4490    1.2970    0.0380 C   0  0  0  0  0  0  0  0  0  0  0  0
    5.1540    0.1150   -0.1480 C   0  0  0  0  0  0  0  0  0  0  0  0
    4.2640   -0.8800    0.2000 C   0  0  0  0  0  0  0  0  0  0  0  0
    3.0770   -0.2860    0.5760 C   0  0  0  0  0  0  0  0  0  0  0  0
    1.8350   -1.0100    1.0310 C   0  0  1  0  0  0  0  0  0  0  0  0
    1.7860   -0.9100    2.5450 C   0  0  0  0  0  0  0  0  0  0  0  0
    0.6550   -0.4940    0.4250 N   0  0  0  0  0  0  0  0  0  0  0  0
   -0.1830   -1.2980   -0.3830 C   0  0  0  0  0  0  0  0  0  0  0  0
    0.0860   -2.5180   -0.6010 O   0  0  0  0  0  0  0  0  0  0  0  0
   -1.3950   -0.7390   -0.9970 C   0  0  2  0  0  0  0  0  0  0  0  0
   -1.1180    0.4230   -1.9250 C   0  0  1  0  0  0  0  0  0  0  0  0
    0.0320    0.1530   -2.8560 C   0  0  0  0  0  0  0  0  0  0  0  0
   -2.3370    0.6610   -2.6740 N   0  0  0  0  0  0  0  0  0  0  0  0
   -3.3930    1.0440   -1.7890 C   0  0  0  0  0  0  0  0  0  0  0  0
   -3.6730    0.0350   -0.6970 C   0  0  0  0  0  0  0  0  0  0  0  0
   -2.3910   -0.2170    0.0490 C   0  0  2  0  0  0  0  0  0  0  0  0
   -1.8950    0.9840    0.5240 O   0  0  0  0  0  0  0  0  0  0  0  0
   -2.5310   -1.1910    1.1840 C   0  0  0  0  0  0  0  0  0  0  0  0
   -3.5210   -0.6200    2.1770 C   0  0  0  0  0  0  0  0  0  0  0  0
   -3.6640   -1.5170    3.2510 O   0  0  0  0  0  0  0  0  0  0  0  0
    3.2450    0.9950    0.4610 O   0  0  0  0  0  0  0  0  0  0  0  0
  1  2  1  0
  2  3  2  0
  2 22  1  0
  3  4  1  0
  4  5  2  0
  5  6  1  0
  5 22  1  0
  6  7  1  1
  6  8  1  0
  8  9  1  0
  9 10  2  0
 11  9  1  1
 11 12  1  0
 11 17  1  0
 12 13  1  6
 12 14  1  0
 14 15  1  0
 15 16  1  0
 16 17  1  0
 17 18  1  1
 17 19  1  0
 19 20  1  0
 20 21  1  0
M  END
