
     RDKit          3D

 21 23  0  0  0  0  0  0  0  0999 V2000
    3.7320   -1.7670    1.8110 C   0  0  0  0  0  0  0  0  0  0  0  0
    2.9170   -0.9440    0.8550 C   0  0  0  0  0  0  0  0  0  0  0  0
    3.4840    0.0120    0.1340 C   0  0  0  0  0  0  0  0  0  0  0  0
    4.8910    0.4440    0.1050 C   0  0  0  0  0  0  0  0  0  0  0  0
    5.0110    1.1450   -1.2230 C   0  0  0  0  0  0  0  0  0  0  0  0
    3.6530    1.7820   -1.4320 C   0  0  0  0  0  0  0  0  0  0  0  0
    2.7600    0.8140   -0.7780 N   0  0  0  0  0  0  0  0  0  0  0  0
    1.3610    0.6150   -0.9560 C   0  0  0  0  0  0  0  0  0  0  0  0
    0.7600    1.3390   -1.7650 O   0  0  0  0  0  0  0  0  0  0  0  0
    0.6370   -0.4110   -0.2120 C   0  0  0  0  0  0  0  0  0  0  0  0
   -0.6360   -0.6630   -0.3120 C   0  0  0  0  0  0  0  0  0  0  0  0
   -1.1280   -1.7360    0.5360 N   0  0  0  0  0  0  0  0  0  0  0  0
   -1.6590   -0.0620   -1.1290 C   0  0  0  0  0  0  0  0  0  0  0  0
   -2.8080    0.5990   -0.3800 C   0  0  1  0  0  0  0  0  0  0  0  0
   -3.7320    1.1570   -1.4380 C   0  0  0  0  0  0  0  0  0  0  0  0
   -4.9100    0.2220   -1.5240 C   0  0  0  0  0  0  0  0  0  0  0  0
   -5.0800   -0.1600   -0.0660 C   0  0  0  0  0  0  0  0  0  0  0  0
   -3.6430   -0.3370    0.4190 C   0  0  2  0  0  0  0  0  0  0  0  0
   -3.6360   -0.0150    1.7750 O   0  0  0  0  0  0  0  0  0  0  0  0
    1.5030   -1.1840    0.7100 C   0  0  0  0  0  0  0  0  0  0  0  0
    1.0030   -2.1150    1.4260 O   0  0  0  0  0  0  0  0  0  0  0  0
  1  2  1  0
  2  3  2  0
  2 20  1  0
  3  4  1  0
  3  7  1  0
  4  5  1  0
  5  6  1  0
  6  7  1  0
  7  8  1  0
  8  9  2  0
  8 10  1  0
 10 11  2  3
 10 20  1  0
 11 12  1  0
 11 13  1  0
 14 13  1  6
 14 15  1  0
 14 18  1  0
 15 16  1  0
 16 17  1  0
 17 18  1  0
 18 19  1  1
 20 21  2  0
M  END
