
     RDKit          3D

 22 24  0  0  0  0  0  0  0  0999 V2000
   -0.3640   -2.7890   -0.2670 N   0  0  0  0  0  0  0  0  0  0  0  0
    0.1910   -1.4780   -0.2570 C   0  0  0  0  0  0  0  0  0  0  0  0
    1.5540   -1.3260   -0.3150 C   0  0  0  0  0  0  0  0  0  0  0  0
    2.1820   -0.1030   -0.3100 C   0  0  0  0  0  0  0  0  0  0  0  0
    3.6490    0.0070   -0.3740 C   0  0  0  0  0  0  0  0  0  0  0  0
    4.3540    1.0880   -0.3770 N   0  0  0  0  0  0  0  0  0  0  0  0
    5.7620    0.7920   -0.4480 C   0  0  1  0  0  0  0  0  0  0  0  0
    6.4380    0.8190    0.9040 C   0  0  0  0  0  0  0  0  0  0  0  0
    7.7890    0.5160    0.6790 O   0  0  0  0  0  0  0  0  0  0  0  0
    5.7680   -0.6380   -0.9350 C   0  0  0  0  0  0  0  0  0  0  0  0
    4.5010   -1.0890   -0.4410 O   0  0  0  0  0  0  0  0  0  0  0  0
    1.3750    1.0130   -0.2440 C   0  0  0  0  0  0  0  0  0  0  0  0
   -0.0230    0.8800   -0.1850 C   0  0  0  0  0  0  0  0  0  0  0  0
   -0.6110   -0.3590   -0.1910 C   0  0  0  0  0  0  0  0  0  0  0  0
   -1.9620   -0.5400   -0.1350 O   0  0  0  0  0  0  0  0  0  0  0  0
   -2.9300    0.4400   -0.0660 C   0  0  2  0  0  0  0  0  0  0  0  0
   -3.6760    0.3260    1.2750 C   0  0  0  0  0  0  0  0  0  0  0  0
   -4.8850    1.2530    1.1370 C   0  0  0  0  0  0  0  0  0  0  0  0
   -5.9030    0.5010    0.3100 C   0  0  0  0  0  0  0  0  0  0  0  0
   -5.2330   -0.2080   -0.8210 C   0  0  2  0  0  0  0  0  0  0  0  0
   -5.0900   -1.5820   -0.5610 O   0  0  0  0  0  0  0  0  0  0  0  0
   -3.9140    0.4040   -1.2150 C   0  0  0  0  0  0  0  0  0  0  0  0
  1  2  1  0
  2  3  2  0
  2 14  1  0
  3  4  1  0
  4  5  1  0
  4 12  2  0
  5  6  2  0
  5 11  1  0
  6  7  1  0
  7  8  1  1
  7 10  1  0
  8  9  1  0
 10 11  1  0
 12 13  1  0
 13 14  2  0
 14 15  1  0
 16 15  1  6
 16 17  1  0
 16 22  1  0
 17 18  1  0
 18 19  1  0
 19 20  1  0
 20 21  1  1
 20 22  1  0
M  END
