
     RDKit          3D

 22 23  0  0  0  0  0  0  0  0999 V2000
    0.0830   -3.5510   -0.6460 C   0  0  0  0  0  0  0  0  0  0  0  0
    0.0840   -2.2190   -1.1190 O   0  0  0  0  0  0  0  0  0  0  0  0
   -1.0020   -1.4080   -0.7540 C   0  0  0  0  0  0  0  0  0  0  0  0
   -2.2150   -1.8700   -0.7970 C   0  0  0  0  0  0  0  0  0  0  0  0
   -3.3460   -1.0600   -0.4310 C   0  0  0  0  0  0  0  0  0  0  0  0
   -4.5200   -1.5200   -0.4780 O   0  0  0  0  0  0  0  0  0  0  0  0
   -3.1250    0.3640    0.0170 C   0  0  0  0  0  0  0  0  0  0  0  0
   -4.1840    1.0640    0.2440 C   0  0  0  0  0  0  0  0  0  0  0  0
   -4.4790    2.4090    0.6600 C   0  0  0  0  0  0  0  0  0  0  0  0
   -5.4410    0.2970    0.0510 N   0  0  0  0  0  0  0  0  0  0  0  0
   -1.7110    0.8040    0.0470 C   0  0  0  0  0  0  0  0  0  0  0  0
   -1.3200    2.0080    0.7030 C   0  0  0  0  0  0  0  0  0  0  0  0
   -0.0250    2.6130    0.7500 N   0  0  0  0  0  0  0  0  0  0  0  0
   -2.1160    2.7260    1.3580 O   0  0  0  0  0  0  0  0  0  0  0  0
   -0.7160   -0.0120   -0.3170 C   0  0  0  0  0  0  0  0  0  0  0  0
    0.6740    0.3920   -0.4010 C   0  0  0  0  0  0  0  0  0  0  0  0
    1.5950   -0.2430    0.6260 C   0  0  0  0  0  0  0  0  0  0  0  0
    3.0080    0.2710    0.4170 C   0  0  1  0  0  0  0  0  0  0  0  0
    3.9650   -0.3360    1.4200 C   0  0  0  0  0  0  0  0  0  0  0  0
    5.3030   -0.1240    0.7120 C   0  0  0  0  0  0  0  0  0  0  0  0
    4.8860   -0.0250   -0.7360 C   0  0  0  0  0  0  0  0  0  0  0  0
    3.5170   -0.2200   -0.7850 O   0  0  0  0  0  0  0  0  0  0  0  0
  1  2  1  0
  2  3  1  0
  3  4  2  0
  3 15  1  0
  4  5  1  0
  5  6  2  0
  5  7  1  0
  7  8  2  3
  7 11  1  0
  8  9  1  0
  8 10  1  0
 11 12  1  0
 11 15  2  0
 12 13  1  0
 12 14  2  0
 15 16  1  0
 16 17  1  0
 18 17  1  1
 18 19  1  0
 18 22  1  0
 19 20  1  0
 20 21  1  0
 21 22  1  0
M  END
