
     RDKit          3D

 22 24  0  0  0  0  0  0  0  0999 V2000
   -2.1340    0.4980   -2.2340 C   0  0  0  0  0  0  0  0  0  0  0  0
   -1.7240    0.0310   -0.8390 C   0  0  1  0  0  0  0  0  0  0  0  0
   -0.3610    0.5000   -0.5910 N   0  0  0  0  0  0  0  0  0  0  0  0
    0.6360   -0.4440   -0.3250 C   0  0  0  0  0  0  0  0  0  0  0  0
    0.2920   -1.6810   -0.3150 O   0  0  0  0  0  0  0  0  0  0  0  0
    2.0330   -0.1500   -0.0580 C   0  0  0  0  0  0  0  0  0  0  0  0
    2.8880   -1.2030    0.2760 C   0  0  0  0  0  0  0  0  0  0  0  0
    4.1960   -0.9740    0.5410 C   0  0  0  0  0  0  0  0  0  0  0  0
    4.7410    0.2800    0.4960 C   0  0  0  0  0  0  0  0  0  0  0  0
    3.9320    1.2910    0.1780 N   0  0  0  0  0  0  0  0  0  0  0  0
    2.6040    1.0970   -0.0960 C   0  0  0  0  0  0  0  0  0  0  0  0
    1.9150    2.0960   -0.3860 O   0  0  0  0  0  0  0  0  0  0  0  0
    6.1850    0.2340    0.8290 C   0  0  0  0  0  0  0  0  0  0  0  0
    6.5460   -1.2280    0.6830 C   0  0  0  0  0  0  0  0  0  0  0  0
    5.2560   -1.9720    0.9130 C   0  0  0  0  0  0  0  0  0  0  0  0
   -2.6540    0.5730    0.2260 C   0  0  1  0  0  0  0  0  0  0  0  0
   -2.7000    1.9630    0.2350 O   0  0  0  0  0  0  0  0  0  0  0  0
   -3.9640   -0.1120    0.3160 C   0  0  2  0  0  0  0  0  0  0  0  0
   -4.8370   -0.0910   -0.8850 C   0  0  0  0  0  0  0  0  0  0  0  0
   -6.2240   -0.0600   -0.2450 C   0  0  0  0  0  0  0  0  0  0  0  0
   -6.0590    0.1140    1.1050 O   0  0  0  0  0  0  0  0  0  0  0  0
   -4.8040    0.6130    1.3560 C   0  0  0  0  0  0  0  0  0  0  0  0
  2  1  1  6
  2  3  1  0
  2 16  1  0
  3  4  1  0
  4  5  2  0
  4  6  1  0
  6  7  2  0
  6 11  1  0
  7  8  1  0
  8  9  2  0
  8 15  1  0
  9 10  1  0
  9 13  1  0
 10 11  1  0
 11 12  2  0
 13 14  1  0
 14 15  1  0
 16 17  1  6
 16 18  1  0
 18 19  1  6
 18 22  1  0
 19 20  1  0
 20 21  1  0
 21 22  1  0
M  END
