
     RDKit          3D

 25 27  0  0  0  0  0  0  0  0999 V2000
    6.7120   -1.5660    1.8070 C   0  0  0  0  0  0  0  0  0  0  0  0
    6.0960   -0.2920    1.2350 C   0  0  0  0  0  0  0  0  0  0  0  0
    4.5830   -0.4650    1.3020 C   0  0  2  0  0  0  0  0  0  0  0  0
    3.8100    0.7230    0.7650 C   0  0  0  0  0  0  0  0  0  0  0  0
    2.8150    0.7660    1.8790 C   0  0  1  0  0  0  0  0  0  0  0  0
    1.5300    0.0310    1.5880 C   0  0  0  0  0  0  0  0  0  0  0  0
    1.2140   -0.9290    2.3180 O   0  0  0  0  0  0  0  0  0  0  0  0
    0.6890    0.3970    0.5260 N   0  0  0  0  0  0  0  0  0  0  0  0
   -0.5250   -0.1820    0.1260 C   0  0  0  0  0  0  0  0  0  0  0  0
   -1.0540   -1.2690    0.7590 C   0  0  0  0  0  0  0  0  0  0  0  0
   -2.2670   -1.8010    0.3070 C   0  0  0  0  0  0  0  0  0  0  0  0
   -2.9240   -1.2290   -0.7740 C   0  0  0  0  0  0  0  0  0  0  0  0
   -2.4050   -0.1350   -1.4210 C   0  0  0  0  0  0  0  0  0  0  0  0
   -2.9910    0.4600   -2.4670 O   0  0  0  0  0  0  0  0  0  0  0  0
   -4.1490    0.2400   -3.1700 C   0  0  0  0  0  0  0  0  0  0  0  0
   -5.4180    0.3610   -2.4210 C   0  0  0  0  0  0  0  0  0  0  0  0
   -6.1040    1.5450   -2.1470 C   0  0  0  0  0  0  0  0  0  0  0  0
   -7.2430    1.2470   -1.4280 C   0  0  0  0  0  0  0  0  0  0  0  0
   -7.2010   -0.1230   -1.2940 C   0  0  0  0  0  0  0  0  0  0  0  0
   -6.1230   -0.5930   -1.8870 O   0  0  0  0  0  0  0  0  0  0  0  0
   -1.2070    0.3680   -0.9520 C   0  0  0  0  0  0  0  0  0  0  0  0
   -0.6300    1.5360   -1.6280 C   0  0  0  0  0  0  0  0  0  0  0  0
    3.9230   -0.1540    2.9070 S   0  0  1  0  0  0  0  0  0  0  0  0
    3.3340   -1.3910    3.5270 O   0  0  0  0  0  0  0  0  0  0  0  0
    4.7520    0.6910    3.8090 O   0  0  0  0  0  0  0  0  0  0  0  0
  1  2  1  0
  3  2  1  1
  3  4  1  0
 23  3  1  6
  4  5  1  0
  5  6  1  6
  5 23  1  0
  6  7  2  0
  6  8  1  0
  8  9  1  0
  9 10  2  0
  9 21  1  0
 10 11  1  0
 11 12  2  0
 12 13  1  0
 13 14  1  0
 13 21  2  0
 14 15  1  0
 15 16  1  0
 16 17  2  0
 16 20  1  0
 17 18  1  0
 18 19  2  0
 19 20  1  0
 21 22  1  0
 23 24  2  0
 23 25  2  0
M  END
