
     RDKit          3D

 26 28  0  0  0  0  0  0  0  0999 V2000
   -7.2350    1.2570    1.0210 O   0  0  0  0  0  0  0  0  0  0  0  0
   -6.3840    1.9000    0.3570 C   0  0  0  0  0  0  0  0  0  0  0  0
   -6.2290    3.2400    0.6150 O   0  0  0  0  0  0  0  0  0  0  0  0
   -5.6330    1.2300   -0.6130 O   0  0  0  0  0  0  0  0  0  0  0  0
   -5.8830   -0.1690   -0.7930 C   0  0  0  0  0  0  0  0  0  0  0  0
   -4.9450   -0.6530   -1.8950 C   0  0  0  0  0  0  0  0  0  0  0  0
   -3.5730   -0.4360   -1.5050 N   0  0  0  0  0  0  0  0  0  0  0  0
   -2.9190   -1.1780   -0.4870 C   0  0  0  0  0  0  0  0  0  0  0  0
   -3.4830   -2.2500    0.1350 C   0  0  0  0  0  0  0  0  0  0  0  0
   -2.7910   -2.9550    1.1120 C   0  0  0  0  0  0  0  0  0  0  0  0
   -1.5240   -2.5860    1.4730 C   0  0  0  0  0  0  0  0  0  0  0  0
   -0.9370   -1.4880    0.8420 C   0  0  0  0  0  0  0  0  0  0  0  0
   -1.6230   -0.7950   -0.1240 C   0  0  0  0  0  0  0  0  0  0  0  0
   -1.0870    0.2740   -0.7530 O   0  0  0  0  0  0  0  0  0  0  0  0
    0.1830    0.7930   -0.5730 C   0  0  0  0  0  0  0  0  0  0  0  0
    1.2490   -0.1630   -1.0440 C   0  0  0  0  0  0  0  0  0  0  0  0
    2.6000    0.4510   -0.8080 C   0  0  1  0  0  0  0  0  0  0  0  0
    2.9330    0.7730    0.6050 C   0  0  0  0  0  0  0  0  0  0  0  0
    4.1120    1.5700    0.6210 O   0  0  0  0  0  0  0  0  0  0  0  0
    5.3290    1.1070    0.1570 C   0  0  0  0  0  0  0  0  0  0  0  0
    6.4780    1.7150    0.6930 C   0  0  0  0  0  0  0  0  0  0  0  0
    7.7020    1.2690    0.2440 C   0  0  0  0  0  0  0  0  0  0  0  0
    7.8170    0.2660   -0.6940 C   0  0  0  0  0  0  0  0  0  0  0  0
    6.6610   -0.2980   -1.1890 C   0  0  0  0  0  0  0  0  0  0  0  0
    5.4290    0.1070   -0.7780 C   0  0  0  0  0  0  0  0  0  0  0  0
    3.9350   -0.6220   -1.4160 S   0  0  0  0  0  0  0  0  0  0  0  0
  1  2  2  0
  2  3  1  0
  2  4  1  0
  4  5  1  0
  5  6  1  0
  6  7  1  0
  7  8  1  0
  8  9  2  0
  8 13  1  0
  9 10  1  0
 10 11  2  0
 11 12  1  0
 12 13  2  0
 13 14  1  0
 14 15  1  0
 15 16  1  0
 17 16  1  1
 17 18  1  0
 17 26  1  0
 18 19  1  0
 19 20  1  0
 20 21  2  0
 20 25  1  0
 21 22  1  0
 22 23  2  0
 23 24  1  0
 24 25  2  0
 25 26  1  0
M  END
