
     RDKit          3D

 12 12  0  0  0  0  0  0  0  0999 V2000
   -0.1440    1.4220    2.0170 O   0  0  0  0  0  0  0  0  0  0  0  0
    0.2790    0.7390    1.0290 C   0  0  0  0  0  0  0  0  0  0  0  0
   -0.2580   -0.5380    0.4880 C   0  0  1  0  0  0  0  0  0  0  0  0
   -1.9790   -0.2560    0.0300 P   0  0  2  0  0  0  0  0  0  0  0  0
   -2.1460    1.2160   -0.3280 O   0  0  0  0  0  0  0  0  0  0  0  0
   -2.9740   -0.5660    1.3570 O   0  0  0  0  0  0  0  0  0  0  0  0
   -2.4370   -1.2150   -1.2690 O   0  0  0  0  0  0  0  0  0  0  0  0
    0.5330   -0.6600   -0.8240 C   0  0  0  0  0  0  0  0  0  0  0  0
    1.8570   -0.0710   -0.3840 C   0  0  2  0  0  0  0  0  0  0  0  0
    2.3720   -0.8970    0.6070 O   0  0  0  0  0  0  0  0  0  0  0  0
    1.4070    1.1480    0.2620 N   0  0  0  0  0  0  0  0  0  0  0  0
    1.9550    2.3860    0.1430 O   0  0  0  0  0  0  0  0  0  0  0  0
  1  2  2  0
  2  3  1  0
  2 11  1  0
  3  4  1  0
  3  8  1  6
  4  5  2  0
  4  6  1  1
  4  7  1  0
  8  9  1  0
  9 10  1  1
  9 11  1  0
 11 12  1  0
M  END
