
     RDKit          3D

 26 28  0  0  0  0  0  0  0  0999 V2000
    5.7130    3.5310    0.5300 C   0  0  0  0  0  0  0  0  0  0  0  0
    5.5880    2.1940   -0.1340 C   0  0  0  0  0  0  0  0  0  0  0  0
    4.5830    1.4030    0.4860 O   0  0  0  0  0  0  0  0  0  0  0  0
    4.3370    0.1290   -0.0080 C   0  0  0  0  0  0  0  0  0  0  0  0
    4.9350   -0.5300   -1.0520 C   0  0  0  0  0  0  0  0  0  0  0  0
    4.3340   -1.7670   -1.1380 C   0  0  0  0  0  0  0  0  0  0  0  0
    3.4220   -1.8620   -0.2050 O   0  0  0  0  0  0  0  0  0  0  0  0
    3.3850   -0.7600    0.4950 C   0  0  0  0  0  0  0  0  0  0  0  0
    2.4930   -0.4540    1.6480 C   0  0  0  0  0  0  0  0  0  0  0  0
    1.3920   -1.8170    2.0190 S   0  0  0  0  0  0  0  0  0  0  0  0
    0.1830   -2.1280    0.7420 C   0  0  0  0  0  0  0  0  0  0  0  0
    0.3960   -3.0230   -0.2800 C   0  0  0  0  0  0  0  0  0  0  0  0
   -0.5890   -3.2090   -1.2440 C   0  0  0  0  0  0  0  0  0  0  0  0
   -1.7800   -2.5340   -1.2260 C   0  0  0  0  0  0  0  0  0  0  0  0
   -2.0150   -1.6160   -0.1900 C   0  0  0  0  0  0  0  0  0  0  0  0
   -3.2720   -0.9580   -0.2320 N   0  0  0  0  0  0  0  0  0  0  0  0
   -3.7220    0.0780    0.5970 C   0  0  0  0  0  0  0  0  0  0  0  0
   -2.9500    0.5050    1.4940 O   0  0  0  0  0  0  0  0  0  0  0  0
   -5.0350    0.6820    0.4710 C   0  0  0  0  0  0  0  0  0  0  0  0
   -6.0160    0.2410   -0.3850 C   0  0  0  0  0  0  0  0  0  0  0  0
   -7.2500    0.8690   -0.4570 C   0  0  0  0  0  0  0  0  0  0  0  0
   -7.4840    1.9010    0.3050 O   0  0  0  0  0  0  0  0  0  0  0  0
   -6.5910    2.3730    1.1430 C   0  0  0  0  0  0  0  0  0  0  0  0
   -6.8590    3.3710    1.8580 O   0  0  0  0  0  0  0  0  0  0  0  0
   -5.3410    1.7750    1.2480 C   0  0  0  0  0  0  0  0  0  0  0  0
   -1.0440   -1.4480    0.7400 C   0  0  0  0  0  0  0  0  0  0  0  0
  1  2  1  0
  2  3  1  0
  3  4  1  0
  4  5  1  0
  4  8  2  0
  5  6  2  0
  6  7  1  0
  7  8  1  0
  8  9  1  0
  9 10  1  0
 10 11  1  0
 11 12  2  0
 11 26  1  0
 12 13  1  0
 13 14  2  0
 14 15  1  0
 15 16  1  0
 15 26  2  0
 16 17  1  0
 17 18  2  0
 17 19  1  0
 19 20  1  0
 19 25  2  0
 20 21  2  0
 21 22  1  0
 22 23  1  0
 23 24  2  0
 23 25  1  0
M  END
