
     RDKit          3D

 26 28  0  0  0  0  0  0  0  0999 V2000
    1.1030    1.7250   -1.2830 O   0  0  0  0  0  0  0  0  0  0  0  0
    0.4140    0.6900   -1.4020 C   0  0  0  0  0  0  0  0  0  0  0  0
   -0.9170    0.7150   -1.0530 O   0  0  0  0  0  0  0  0  0  0  0  0
   -1.5860    1.8450   -0.5570 C   0  0  0  0  0  0  0  0  0  0  0  0
   -3.0290    1.5000   -0.2850 C   0  0  0  0  0  0  0  0  0  0  0  0
   -3.0680    0.4040    0.7450 C   0  0  2  0  0  0  0  0  0  0  0  0
   -2.3820   -0.8580    0.3560 C   0  0  0  0  0  0  0  0  0  0  0  0
   -3.0460   -1.8210    1.1930 O   0  0  0  0  0  0  0  0  0  0  0  0
   -4.3770   -1.3920    1.2810 C   0  0  0  0  0  0  0  0  0  0  0  0
   -5.5390   -2.1030    1.5780 C   0  0  0  0  0  0  0  0  0  0  0  0
   -6.7430   -1.4360    1.6020 C   0  0  0  0  0  0  0  0  0  0  0  0
   -6.8030   -0.0860    1.3360 C   0  0  0  0  0  0  0  0  0  0  0  0
   -5.6650    0.6310    1.0400 C   0  0  0  0  0  0  0  0  0  0  0  0
   -4.4570   -0.0490    1.0190 C   0  0  0  0  0  0  0  0  0  0  0  0
    1.0040   -0.5270   -1.9020 C   0  0  0  0  0  0  0  0  0  0  0  0
    0.0230   -2.0000   -2.0720 S   0  0  0  0  0  0  0  0  0  0  0  0
    2.2710   -0.5500   -2.2350 C   0  0  0  0  0  0  0  0  0  0  0  0
    3.1340    0.5710   -2.1360 N   0  0  0  0  0  0  0  0  0  0  0  0
    4.2530    0.4690   -1.2640 C   0  0  0  0  0  0  0  0  0  0  0  0
    5.1180    1.5360   -1.1380 C   0  0  0  0  0  0  0  0  0  0  0  0
    6.2010    1.4350   -0.2910 C   0  0  0  0  0  0  0  0  0  0  0  0
    6.4540    0.2860    0.4450 C   0  0  0  0  0  0  0  0  0  0  0  0
    7.5550    0.1950    1.3000 O   0  0  0  0  0  0  0  0  0  0  0  0
    7.5320   -0.7200    2.2870 O   0  0  0  0  0  0  0  0  0  0  0  0
    5.5920   -0.7730    0.3180 C   0  0  0  0  0  0  0  0  0  0  0  0
    4.5190   -0.6620   -0.5260 C   0  0  0  0  0  0  0  0  0  0  0  0
  1  2  2  0
  2  3  1  0
  2 15  1  0
  3  4  1  0
  4  5  1  0
  6  5  1  6
  6  7  1  0
  6 14  1  0
  7  8  1  0
  8  9  1  0
  9 10  2  0
  9 14  1  0
 10 11  1  0
 11 12  2  0
 12 13  1  0
 13 14  2  0
 15 16  1  0
 15 17  2  3
 17 18  1  0
 18 19  1  0
 19 20  2  0
 19 26  1  0
 20 21  1  0
 21 22  2  0
 22 23  1  0
 22 25  1  0
 23 24  1  0
 25 26  2  0
M  END
