
     RDKit          3D

 26 27  0  0  0  0  0  0  0  0999 V2000
   -1.8020    4.7660    0.2510 C   0  0  0  0  0  0  0  0  0  0  0  0
   -1.8310    3.7000   -0.8190 C   0  0  0  0  0  0  0  0  0  0  0  0
   -0.7990    2.6140   -0.4820 C   0  0  0  0  0  0  0  0  0  0  0  0
   -1.1980    1.4080   -0.3070 C   0  0  0  0  0  0  0  0  0  0  0  0
   -0.6360    0.1510    0.0040 C   0  0  0  0  0  0  0  0  0  0  0  0
   -1.5460   -0.9000    0.0470 C   0  0  0  0  0  0  0  0  0  0  0  0
   -2.9000   -0.8470   -0.1760 N   0  0  0  0  0  0  0  0  0  0  0  0
   -3.7020   -2.0750   -0.0840 C   0  0  0  0  0  0  0  0  0  0  0  0
   -3.0720   -3.1100    0.1990 O   0  0  0  0  0  0  0  0  0  0  0  0
   -5.1580   -2.0170   -0.3240 C   0  0  2  0  0  0  0  0  0  0  0  0
   -5.7410   -1.0130    0.6460 C   0  0  0  0  0  0  0  0  0  0  0  0
   -5.6840   -3.3000   -0.1790 O   0  0  0  0  0  0  0  0  0  0  0  0
   -6.2800   -4.0180   -1.1920 C   0  0  0  0  0  0  0  0  0  0  0  0
   -6.3550   -3.4800   -2.3260 O   0  0  0  0  0  0  0  0  0  0  0  0
    0.7190   -0.2380    0.2480 C   0  0  0  0  0  0  0  0  0  0  0  0
    1.9110    0.1470    0.3780 C   0  0  0  0  0  0  0  0  0  0  0  0
    2.5020    1.4300    0.3270 C   0  0  0  0  0  0  0  0  0  0  0  0
    3.7520    1.8040    0.2530 C   0  0  0  0  0  0  0  0  0  0  0  0
    4.8400    0.8500    0.2270 C   0  0  0  0  0  0  0  0  0  0  0  0
    6.1460    1.1210    0.1200 O   0  0  0  0  0  0  0  0  0  0  0  0
    6.8430    0.0180    0.1120 C   0  0  0  0  0  0  0  0  0  0  0  0
    5.9860   -1.0510    0.2200 C   0  0  0  0  0  0  0  0  0  0  0  0
    6.2420   -2.4140    0.2540 O   0  0  0  0  0  0  0  0  0  0  0  0
    7.6180   -2.7930    0.1640 C   0  0  0  0  0  0  0  0  0  0  0  0
    4.7150   -0.5060    0.2950 C   0  0  0  0  0  0  0  0  0  0  0  0
    3.1420   -1.2270    0.5620 S   0  0  0  0  0  0  0  0  0  0  0  0
  1  2  1  0
  2  3  1  0
  3  4  2  3
  4  5  1  0
  5  6  2  3
  5 15  1  0
  6  7  1  0
  7  8  1  0
  8  9  2  0
  8 10  1  0
 10 11  1  1
 10 12  1  0
 12 13  1  0
 13 14  2  0
 15 16  2  3
 16 17  1  0
 16 26  1  0
 17 18  2  0
 18 19  1  0
 19 20  1  0
 19 25  2  0
 20 21  1  0
 21 22  2  0
 22 23  1  0
 22 25  1  0
 23 24  1  0
 25 26  1  0
M  END
