
     RDKit          3D

 26 27  0  0  0  0  0  0  0  0999 V2000
    5.6540   -2.6660    5.4840 C   0  0  0  0  0  0  0  0  0  0  0  0
    6.1560   -1.5430    5.0770 C   0  0  0  0  0  0  0  0  0  0  0  0
    5.8370   -0.7230    3.9650 C   0  0  0  0  0  0  0  0  0  0  0  0
    6.6040    0.3870    3.8340 C   0  0  0  0  0  0  0  0  0  0  0  0
    4.7940   -0.8070    2.9840 C   0  0  0  0  0  0  0  0  0  0  0  0
    4.8000    0.1300    2.0800 O   0  0  0  0  0  0  0  0  0  0  0  0
    3.7540   -1.7330    2.8400 N   0  0  0  0  0  0  0  0  0  0  0  0
    2.7480   -1.6450    1.7920 C   0  0  0  0  0  0  0  0  0  0  0  0
    2.0960   -2.7680    1.3360 C   0  0  0  0  0  0  0  0  0  0  0  0
    1.0890   -2.7520    0.3840 C   0  0  0  0  0  0  0  0  0  0  0  0
    0.7110   -1.5390   -0.1440 C   0  0  0  0  0  0  0  0  0  0  0  0
   -0.3820   -1.4390   -1.1250 C   0  0  0  0  0  0  0  0  0  0  0  0
   -0.9920   -2.5140   -1.4020 O   0  0  0  0  0  0  0  0  0  0  0  0
   -0.7340   -0.1240   -1.7450 C   0  0  0  0  0  0  0  0  0  0  0  0
   -1.9310    0.0990   -2.7610 S   0  0  0  0  0  0  0  0  0  0  0  0
   -1.5150    0.3420   -4.5000 O   0  0  0  0  0  0  0  0  0  0  0  0
   -2.0670   -1.3190   -3.2740 O   0  0  0  0  0  0  0  0  0  0  0  0
   -3.5300    0.2800   -2.4160 C   0  0  0  0  0  0  0  0  0  0  0  0
   -3.9060    1.5420   -1.6000 C   0  0  2  0  0  0  0  0  0  0  0  0
   -5.3730    1.4640   -1.2130 C   0  0  0  0  0  0  0  0  0  0  0  0
   -5.7580    2.7000   -0.3890 C   0  0  0  0  0  0  0  0  0  0  0  0
   -3.8060    2.7670   -2.5210 C   0  0  0  0  0  0  0  0  0  0  0  0
   -2.6920    2.4480   -3.4990 C   0  0  0  0  0  0  0  0  0  0  0  0
   -1.7760    1.6140   -2.8590 O   0  0  0  0  0  0  0  0  0  0  0  0
    1.3340   -0.3850    0.2790 C   0  0  0  0  0  0  0  0  0  0  0  0
    2.3600   -0.4440    1.2540 C   0  0  0  0  0  0  0  0  0  0  0  0
  1  2  2  0
  2  3  1  0
  3  4  2  0
  3  5  1  0
  5  6  2  0
  5  7  1  0
  7  8  1  0
  8  9  2  0
  8 26  1  0
  9 10  1  0
 10 11  2  0
 11 12  1  0
 11 25  1  0
 12 13  2  0
 12 14  1  0
 14 15  1  0
 15 16  2  0
 15 17  1  0
 15 18  1  0
 15 24  1  0
 18 19  1  0
 19 20  1  6
 19 22  1  0
 20 21  1  0
 22 23  1  0
 23 24  1  0
 25 26  2  0
M  END
