
     RDKit          3D

 26 27  0  0  0  0  0  0  0  0999 V2000
   -8.0670   -2.2670    1.7770 C   0  0  0  0  0  0  0  0  0  0  0  0
   -7.1670   -1.6220    0.9340 C   0  0  0  0  0  0  0  0  0  0  0  0
   -5.7900   -1.6800    1.2910 C   0  0  0  0  0  0  0  0  0  0  0  0
   -4.7250   -1.2390    0.7390 C   0  0  0  0  0  0  0  0  0  0  0  0
   -3.4330   -1.4930    1.4320 C   0  0  0  0  0  0  0  0  0  0  0  0
   -2.3200   -1.0830    0.8630 C   0  0  0  0  0  0  0  0  0  0  0  0
   -2.3050   -0.3950   -0.4120 C   0  0  0  0  0  0  0  0  0  0  0  0
   -1.1100    0.0090   -0.9560 O   0  0  0  0  0  0  0  0  0  0  0  0
   -0.5160    1.1600   -0.4050 C   0  0  0  0  0  0  0  0  0  0  0  0
    0.7480    1.1750   -0.1090 C   0  0  0  0  0  0  0  0  0  0  0  0
    1.3940    2.3590    0.4660 C   0  0  0  0  0  0  0  0  0  0  0  0
    2.6180    2.6420   -0.3330 C   0  0  0  0  0  0  0  0  0  0  0  0
    3.7440    1.5830   -0.0440 C   0  0  2  0  0  0  0  0  0  0  0  0
    4.9680    2.2540   -0.5320 C   0  0  0  0  0  0  0  0  0  0  0  0
    6.3230    1.7880   -0.3870 C   0  0  0  0  0  0  0  0  0  0  0  0
    6.7310    0.5590   -0.7890 O   0  0  0  0  0  0  0  0  0  0  0  0
    6.5640   -0.6740   -0.2190 C   0  0  0  0  0  0  0  0  0  0  0  0
    5.9340   -0.7090    0.8850 O   0  0  0  0  0  0  0  0  0  0  0  0
    7.0600   -1.8200   -0.8250 O   0  0  0  0  0  0  0  0  0  0  0  0
    6.8290   -3.0530   -0.1450 C   0  0  0  0  0  0  0  0  0  0  0  0
    3.3840    0.4150   -0.9470 C   0  0  0  0  0  0  0  0  0  0  0  0
    1.7540   -0.2490   -0.3890 S   0  0  0  0  0  0  0  0  0  0  0  0
   -3.4250   -0.1520   -1.0570 C   0  0  0  0  0  0  0  0  0  0  0  0
   -4.6800   -0.5650   -0.5080 N   0  0  0  0  0  0  0  0  0  0  0  0
   -7.8350   -0.9620   -0.1900 C   0  0  0  0  0  0  0  0  0  0  0  0
   -7.6030    0.4060   -0.1660 O   0  0  0  0  0  0  0  0  0  0  0  0
  1  2  2  0
  2  3  1  0
  2 25  1  0
  3  4  2  3
  4  5  1  0
  4 24  1  0
  5  6  2  0
  6  7  1  0
  7  8  1  0
  7 23  2  0
  8  9  1  0
  9 10  2  3
 10 11  1  0
 10 22  1  0
 11 12  1  0
 12 13  1  0
 13 14  1  6
 13 21  1  0
 14 15  1  0
 15 16  1  0
 16 17  1  0
 17 18  2  0
 17 19  1  0
 19 20  1  0
 21 22  1  0
 23 24  1  0
 25 26  1  0
M  END
