
     RDKit          3D

 16 17  0  0  0  0  0  0  0  0999 V2000
   -3.4060   -0.9720   -0.1940 C   0  0  0  0  0  0  0  0  0  0  0  0
   -3.3710    0.5140   -0.4000 C   0  0  0  0  0  0  0  0  0  0  0  0
   -2.1790    0.9240   -1.0410 O   0  0  0  0  0  0  0  0  0  0  0  0
   -0.9190    0.7200   -0.5340 C   0  0  0  0  0  0  0  0  0  0  0  0
   -0.3550    1.6570    0.2810 C   0  0  0  0  0  0  0  0  0  0  0  0
   -1.1260    2.8810    0.6000 C   0  0  0  0  0  0  0  0  0  0  0  0
    0.9010    1.5230    0.8250 C   0  0  0  0  0  0  0  0  0  0  0  0
    1.6420    0.3980    0.5480 C   0  0  0  0  0  0  0  0  0  0  0  0
    2.8980    0.2300    1.0740 C   0  0  0  0  0  0  0  0  0  0  0  0
    3.6380   -0.8840    0.8020 C   0  0  0  0  0  0  0  0  0  0  0  0
    3.1190   -1.8670   -0.0170 C   0  0  0  0  0  0  0  0  0  0  0  0
    3.8940   -2.9790   -0.2700 O   0  0  0  0  0  0  0  0  0  0  0  0
    1.8380   -1.7160   -0.5640 C   0  0  0  0  0  0  0  0  0  0  0  0
    1.0960   -0.5850   -0.2840 C   0  0  0  0  0  0  0  0  0  0  0  0
   -0.1630   -0.4260   -0.8160 C   0  0  0  0  0  0  0  0  0  0  0  0
   -0.7090   -1.3800   -1.6320 O   0  0  0  0  0  0  0  0  0  0  0  0
  1  2  1  0
  2  3  1  0
  3  4  1  0
  4  5  2  0
  4 15  1  0
  5  6  1  0
  5  7  1  0
  7  8  2  0
  8  9  1  0
  8 14  1  0
  9 10  2  0
 10 11  1  0
 11 12  1  0
 11 13  2  0
 13 14  1  0
 14 15  2  0
 15 16  1  0
M  END
