
     RDKit          3D

 17 18  0  0  0  0  0  0  0  0999 V2000
    4.0690   -0.5110    1.0760 C   0  0  0  0  0  0  0  0  0  0  0  0
    3.3840    0.4870    0.5470 C   0  0  0  0  0  0  0  0  0  0  0  0
    3.9660    1.7270    0.0880 C   0  0  0  0  0  0  0  0  0  0  0  0
    2.9780    2.4260   -0.4480 C   0  0  0  0  0  0  0  0  0  0  0  0
    1.7220    1.6480   -0.3480 C   0  0  0  0  0  0  0  0  0  0  0  0
    1.9110    0.5050    0.2330 C   0  0  0  0  0  0  0  0  0  0  0  0
    1.0830   -0.6430    0.6120 C   0  0  2  0  0  0  0  0  0  0  0  0
    1.7900   -1.7330   -0.0560 O   0  0  0  0  0  0  0  0  0  0  0  0
   -0.2960   -0.7010    0.2420 C   0  0  0  0  0  0  0  0  0  0  0  0
   -0.8160   -1.9760   -0.0820 C   0  0  0  0  0  0  0  0  0  0  0  0
   -2.0790   -2.1970   -0.4900 C   0  0  0  0  0  0  0  0  0  0  0  0
   -2.9300   -1.1300   -0.6100 C   0  0  0  0  0  0  0  0  0  0  0  0
   -4.2210   -1.2810   -1.0340 O   0  0  0  0  0  0  0  0  0  0  0  0
   -2.4840    0.1450   -0.3060 C   0  0  0  0  0  0  0  0  0  0  0  0
   -3.3010    1.3280   -0.5600 C   0  0  0  0  0  0  0  0  0  0  0  0
   -4.5720    1.3330    0.0500 O   0  0  0  0  0  0  0  0  0  0  0  0
   -1.1740    0.3310    0.1210 C   0  0  0  0  0  0  0  0  0  0  0  0
  1  2  2  0
  2  3  1  0
  2  6  1  0
  3  4  2  0
  4  5  1  0
  5  6  2  0
  6  7  1  0
  7  8  1  6
  7  9  1  0
  9 10  2  0
  9 17  1  0
 10 11  1  0
 11 12  2  0
 12 13  1  0
 12 14  1  0
 14 15  1  0
 14 17  2  0
 15 16  1  0
M  END
