
     RDKit          3D

 13 13  0  0  0  0  0  0  0  0999 V2000
   -3.2450   -0.1680   -0.0970 O   0  0  0  0  0  0  0  0  0  0  0  0
   -2.3720    0.7360   -0.0300 C   0  0  0  0  0  0  0  0  0  0  0  0
   -2.6290    1.9090    0.6700 O   0  0  0  0  0  0  0  0  0  0  0  0
   -1.0820    0.4900   -0.7240 C   0  0  1  0  0  0  0  0  0  0  0  0
   -0.2400    1.6250   -0.5290 O   0  0  0  0  0  0  0  0  0  0  0  0
    1.0180    1.5350    0.0450 C   0  0  0  0  0  0  0  0  0  0  0  0
    1.5000    2.4680    0.7370 O   0  0  0  0  0  0  0  0  0  0  0  0
    1.8270    0.3240   -0.1480 C   0  0  2  0  0  0  0  0  0  0  0  0
    2.9130    0.5090   -0.9930 O   0  0  0  0  0  0  0  0  0  0  0  0
    0.9890   -0.7940   -0.7490 C   0  0  1  0  0  0  0  0  0  0  0  0
    1.6210   -2.0230   -0.5640 O   0  0  0  0  0  0  0  0  0  0  0  0
   -0.3730   -0.7270   -0.1380 C   0  0  2  0  0  0  0  0  0  0  0  0
   -1.1570   -1.8400   -0.3800 O   0  0  0  0  0  0  0  0  0  0  0  0
  1  2  2  0
  2  3  1  0
  4  2  1  1
  4  5  1  0
  4 12  1  0
  5  6  1  0
  6  7  2  0
  6  8  1  0
  8  9  1  6
  8 10  1  0
 10 11  1  1
 10 12  1  0
 12 13  1  6
M  END
