
     RDKit          3D

 17 18  0  0  0  0  0  0  0  0999 V2000
    5.5580    0.6560    0.4510 C   0  0  0  0  0  0  0  0  0  0  0  0
    4.1310    0.6320    0.3790 O   0  0  0  0  0  0  0  0  0  0  0  0
    3.4580   -0.5080   -0.0470 C   0  0  0  0  0  0  0  0  0  0  0  0
    4.2000   -1.4950   -0.3570 O   0  0  0  0  0  0  0  0  0  0  0  0
    2.0040   -0.5670   -0.1320 C   0  0  0  0  0  0  0  0  0  0  0  0
    1.4660   -1.7040   -0.5520 C   0  0  0  0  0  0  0  0  0  0  0  0
    0.0190   -1.8730   -0.6750 C   0  0  0  0  0  0  0  0  0  0  0  0
   -0.7690   -0.8620   -0.3580 C   0  0  0  0  0  0  0  0  0  0  0  0
   -2.2110   -0.7300   -0.3770 C   0  0  0  0  0  0  0  0  0  0  0  0
   -3.1510   -1.8050   -0.7920 C   0  0  0  0  0  0  0  0  0  0  0  0
   -2.8650   -2.1420   -2.1050 O   0  0  0  0  0  0  0  0  0  0  0  0
   -2.5150    0.4890    0.0330 C   0  0  0  0  0  0  0  0  0  0  0  0
   -3.8940    1.0460    0.1650 C   0  0  0  0  0  0  0  0  0  0  0  0
   -1.2580    1.1930    0.3340 C   0  0  0  0  0  0  0  0  0  0  0  0
   -1.2150    2.6130    0.8290 C   0  0  0  0  0  0  0  0  0  0  0  0
   -0.2370    0.4070    0.1060 C   0  0  0  0  0  0  0  0  0  0  0  0
    1.2230    0.6100    0.2420 C   0  0  0  0  0  0  0  0  0  0  0  0
  1  2  1  0
  2  3  1  0
  3  4  2  0
  3  5  1  0
  5  6  2  0
  5 17  1  0
  6  7  1  0
  7  8  2  0
  8  9  1  0
  8 16  1  0
  9 10  1  0
  9 12  2  0
 10 11  1  0
 12 13  1  0
 12 14  1  0
 14 15  1  0
 14 16  2  0
 16 17  1  0
M  END
