
     RDKit          3D

 17 18  0  0  0  0  0  0  0  0999 V2000
   -4.7900    0.8200   -0.8830 C   0  0  0  0  0  0  0  0  0  0  0  0
   -3.3150    0.6410   -0.7210 C   0  0  0  0  0  0  0  0  0  0  0  0
   -2.4040    1.1200   -1.6030 C   0  0  0  0  0  0  0  0  0  0  0  0
   -1.0350    0.9450   -1.4380 C   0  0  0  0  0  0  0  0  0  0  0  0
   -0.6190    0.2560   -0.3290 C   0  0  0  0  0  0  0  0  0  0  0  0
    0.8030    0.0510   -0.1210 C   0  0  0  0  0  0  0  0  0  0  0  0
    1.7100    0.5120   -0.9670 C   0  0  0  0  0  0  0  0  0  0  0  0
    3.1420    0.2820   -0.7180 C   0  0  0  0  0  0  0  0  0  0  0  0
    4.0640    1.1210   -1.1490 C   0  0  0  0  0  0  0  0  0  0  0  0
    5.3940    0.8400   -0.8780 O   0  0  0  0  0  0  0  0  0  0  0  0
    3.5410   -0.9150    0.0290 C   0  0  0  0  0  0  0  0  0  0  0  0
    2.4200   -1.5020    0.8480 C   0  0  0  0  0  0  0  0  0  0  0  0
    1.3210   -0.6340    0.9640 O   0  0  0  0  0  0  0  0  0  0  0  0
   -1.5470   -0.2390    0.5810 C   0  0  0  0  0  0  0  0  0  0  0  0
   -1.0350   -0.9740    1.7600 C   0  0  0  0  0  0  0  0  0  0  0  0
   -2.9050   -0.0650    0.4160 C   0  0  0  0  0  0  0  0  0  0  0  0
   -3.8660   -0.5420    1.2980 O   0  0  0  0  0  0  0  0  0  0  0  0
  1  2  1  0
  2  3  2  0
  2 16  1  0
  3  4  1  0
  4  5  2  0
  5  6  1  0
  5 14  1  0
  6  7  2  0
  6 13  1  0
  7  8  1  0
  8  9  2  3
  8 11  1  0
  9 10  1  0
 11 12  1  0
 12 13  1  0
 14 15  1  0
 14 16  2  0
 16 17  1  0
M  END
