
     RDKit          3D

 17 18  0  0  0  0  0  0  0  0999 V2000
    5.2270   -0.9380    0.0410 O   0  0  0  0  0  0  0  0  0  0  0  0
    3.9700   -1.3930    0.5120 C   0  0  0  0  0  0  0  0  0  0  0  0
    2.9080   -0.3790    0.2940 C   0  0  0  0  0  0  0  0  0  0  0  0
    3.1100    0.9150    0.7210 C   0  0  0  0  0  0  0  0  0  0  0  0
    2.1540    1.8680    0.5190 C   0  0  0  0  0  0  0  0  0  0  0  0
    0.9240    1.6100   -0.1210 C   0  0  0  0  0  0  0  0  0  0  0  0
    0.0400    2.5930   -0.2890 O   0  0  0  0  0  0  0  0  0  0  0  0
    0.7270    0.3000   -0.5470 C   0  0  0  0  0  0  0  0  0  0  0  0
   -0.5030   -0.0900   -1.1890 C   0  0  0  0  0  0  0  0  0  0  0  0
   -1.7020   -0.2630   -0.6410 C   0  0  0  0  0  0  0  0  0  0  0  0
   -2.7810   -0.6640   -1.5710 C   0  0  0  0  0  0  0  0  0  0  0  0
   -3.9810   -0.9790   -1.1550 C   0  0  0  0  0  0  0  0  0  0  0  0
   -4.3000   -0.9330    0.2600 C   0  0  0  0  0  0  0  0  0  0  0  0
   -3.3940   -0.5640    1.1130 C   0  0  0  0  0  0  0  0  0  0  0  0
   -2.0130   -0.1570    0.7860 C   0  0  2  0  0  0  0  0  0  0  0  0
   -1.9300    1.1750    1.2720 O   0  0  0  0  0  0  0  0  0  0  0  0
    1.7230   -0.6510   -0.3270 C   0  0  0  0  0  0  0  0  0  0  0  0
  1  2  1  0
  2  3  1  0
  3  4  2  0
  3 17  1  0
  4  5  1  0
  5  6  2  0
  6  7  1  0
  6  8  1  0
  8  9  1  0
  8 17  2  0
  9 10  2  3
 10 11  1  0
 10 15  1  0
 11 12  2  0
 12 13  1  0
 13 14  2  0
 14 15  1  0
 15 16  1  6
M  END
