
     RDKit          3D

 17 17  0  0  0  0  0  0  0  0999 V2000
   -5.7980   -0.5090    0.2310 C   0  0  0  0  0  0  0  0  0  0  0  0
   -4.4740    0.1390    0.2700 C   0  0  0  0  0  0  0  0  0  0  0  0
   -4.3960    1.4940    0.5210 O   0  0  0  0  0  0  0  0  0  0  0  0
   -3.3640   -0.5370    0.0720 C   0  0  0  0  0  0  0  0  0  0  0  0
   -2.0400    0.1360    0.1160 C   0  0  0  0  0  0  0  0  0  0  0  0
   -0.9880   -0.5650   -0.0830 C   0  0  0  0  0  0  0  0  0  0  0  0
   -1.3090   -1.9630   -0.3290 O   0  0  0  0  0  0  0  0  0  0  0  0
    0.4250   -0.2360   -0.1070 C   0  0  0  0  0  0  0  0  0  0  0  0
    1.3430   -1.2710   -0.4210 C   0  0  0  0  0  0  0  0  0  0  0  0
    2.6970   -1.0710   -0.4650 C   0  0  0  0  0  0  0  0  0  0  0  0
    3.6350   -2.1770   -0.7980 C   0  0  0  0  0  0  0  0  0  0  0  0
    3.2480    0.1610   -0.2040 C   0  0  0  0  0  0  0  0  0  0  0  0
    4.7120    0.3800   -0.2510 C   0  0  0  0  0  0  0  0  0  0  0  0
    2.3860    1.1700    0.1000 C   0  0  0  0  0  0  0  0  0  0  0  0
    0.9880    0.9710    0.1470 C   0  0  0  0  0  0  0  0  0  0  0  0
    0.1540    2.1360    0.5030 C   0  0  0  0  0  0  0  0  0  0  0  0
    0.9930    3.2640    0.7140 O   0  0  0  0  0  0  0  0  0  0  0  0
  1  2  1  0
  2  3  1  0
  2  4  2  3
  4  5  1  0
  5  6  2  3
  6  7  1  0
  6  8  1  0
  8  9  2  0
  8 15  1  0
  9 10  1  0
 10 11  1  0
 10 12  2  0
 12 13  1  0
 12 14  1  0
 14 15  2  0
 15 16  1  0
 16 17  1  0
M  END
