
     RDKit          3D

 34 37  0  0  0  0  0  0  0  0999 V2000
    5.7060    2.9980   -0.5410 C   0  0  0  0  0  0  0  0  0  0  0  0
    4.7930    1.7780   -0.2820 C   0  0  0  0  0  0  0  0  0  0  0  0
    5.4480    1.0050    0.8040 C   0  0  0  0  0  0  0  0  0  0  0  0
    4.7460   -0.2360    1.2640 C   0  0  0  0  0  0  0  0  0  0  0  0
    4.5580   -1.2270    0.1780 C   0  0  0  0  0  0  0  0  0  0  0  0
    5.4690   -2.2870    0.0640 C   0  0  0  0  0  0  0  0  0  0  0  0
    5.3540   -3.2200   -0.9380 C   0  0  0  0  0  0  0  0  0  0  0  0
    4.3270   -3.1220   -1.8540 C   0  0  0  0  0  0  0  0  0  0  0  0
    3.4020   -2.0970   -1.7870 C   0  0  0  0  0  0  0  0  0  0  0  0
    2.2910   -1.9900   -2.7770 C   0  0  0  0  0  0  0  0  0  0  0  0
    3.5580   -1.1820   -0.7600 C   0  0  0  0  0  0  0  0  0  0  0  0
    2.6220   -0.1600   -0.7000 O   0  0  0  0  0  0  0  0  0  0  0  0
    1.4310   -0.3020    0.0310 C   0  0  0  0  0  0  0  0  0  0  0  0
    0.5580    0.7710    0.0520 C   0  0  0  0  0  0  0  0  0  0  0  0
   -0.6340    0.6570    0.7710 C   0  0  0  0  0  0  0  0  0  0  0  0
   -0.9820   -0.4740    1.4610 C   0  0  0  0  0  0  0  0  0  0  0  0
   -2.2320   -0.5580    2.1980 C   0  0  0  0  0  0  0  0  0  0  0  0
   -2.4560   -1.6550    2.8160 O   0  0  0  0  0  0  0  0  0  0  0  0
   -3.2010    0.4230    2.2990 N   0  0  0  0  0  0  0  0  0  0  0  0
   -3.9050    1.0220    1.4530 C   0  0  0  0  0  0  0  0  0  0  0  0
   -4.8380    2.0170    1.9390 N   0  0  0  0  0  0  0  0  0  0  0  0
   -4.9090    2.2720    3.3690 C   0  0  0  0  0  0  0  0  0  0  0  0
   -5.6910    2.7620    1.0650 C   0  0  0  0  0  0  0  0  0  0  0  0
   -5.4260    2.6010   -0.3930 C   0  0  0  0  0  0  0  0  0  0  0  0
   -4.0620    2.0660   -0.7360 C   0  0  0  0  0  0  0  0  0  0  0  0
   -3.8840    0.8360    0.0420 N   0  0  0  0  0  0  0  0  0  0  0  0
   -3.6840   -0.4120   -0.5380 C   0  0  0  0  0  0  0  0  0  0  0  0
   -3.0600   -0.5270   -1.7730 C   0  0  0  0  0  0  0  0  0  0  0  0
   -2.8650   -1.7330   -2.3940 C   0  0  0  0  0  0  0  0  0  0  0  0
   -3.2950   -2.8970   -1.7900 C   0  0  0  0  0  0  0  0  0  0  0  0
   -3.9210   -2.7920   -0.5530 C   0  0  0  0  0  0  0  0  0  0  0  0
   -4.1070   -1.5650    0.0530 C   0  0  0  0  0  0  0  0  0  0  0  0
   -0.0830   -1.5340    1.4200 C   0  0  0  0  0  0  0  0  0  0  0  0
    1.0970   -1.4300    0.7120 C   0  0  0  0  0  0  0  0  0  0  0  0
  1  2  1  0
  2  3  1  0
  3  4  1  0
  4  5  1  0
  5  6  2  0
  5 11  1  0
  6  7  1  0
  7  8  2  0
  8  9  1  0
  9 10  1  0
  9 11  2  0
 11 12  1  0
 12 13  1  0
 13 14  2  0
 13 34  1  0
 14 15  1  0
 15 16  2  0
 16 17  1  0
 16 33  1  0
 17 18  2  0
 17 19  1  0
 19 20  2  3
 20 21  1  0
 20 26  1  0
 21 22  1  0
 21 23  1  0
 23 24  1  0
 24 25  1  0
 25 26  1  0
 26 27  1  0
 27 28  2  0
 27 32  1  0
 28 29  1  0
 29 30  2  0
 30 31  1  0
 31 32  2  0
 33 34  2  0
M  END
