
     RDKit          3D

 35 38  0  0  0  0  0  0  0  0999 V2000
    8.5870    2.1100    2.8460 C   0  0  0  0  0  0  0  0  0  0  0  0
    7.2080    2.1980    3.4540 C   0  0  0  0  0  0  0  0  0  0  0  0
    6.3220    1.1070    2.9220 C   0  0  0  0  0  0  0  0  0  0  0  0
    6.2490   -0.1200    3.5530 C   0  0  0  0  0  0  0  0  0  0  0  0
    5.4570   -1.1030    3.0840 N   0  0  0  0  0  0  0  0  0  0  0  0
    4.6940   -0.9590    1.9870 C   0  0  0  0  0  0  0  0  0  0  0  0
    3.8790   -1.9550    1.4970 C   0  0  0  0  0  0  0  0  0  0  0  0
    3.0940   -1.7980    0.3640 C   0  0  0  0  0  0  0  0  0  0  0  0
    2.2540   -2.9370   -0.0680 C   0  0  0  0  0  0  0  0  0  0  0  0
    3.1660   -0.5650   -0.2700 C   0  0  0  0  0  0  0  0  0  0  0  0
    2.3230   -0.4030   -1.4640 C   0  0  2  0  0  0  0  0  0  0  0  0
    2.5280    0.8240   -2.2820 C   0  0  0  0  0  0  0  0  0  0  0  0
    2.6910    0.3660   -3.7480 C   0  0  0  0  0  0  0  0  0  0  0  0
    1.3180    0.1230   -4.2890 C   0  0  0  0  0  0  0  0  0  0  0  0
    0.6220   -1.0600   -3.7080 C   0  0  0  0  0  0  0  0  0  0  0  0
    0.0680   -0.7540   -2.3360 C   0  0  0  0  0  0  0  0  0  0  0  0
   -1.2400   -0.7840   -2.2990 C   0  0  0  0  0  0  0  0  0  0  0  0
   -2.0260   -0.5280   -1.1160 C   0  0  0  0  0  0  0  0  0  0  0  0
   -1.4560   -0.2480   -0.0400 O   0  0  0  0  0  0  0  0  0  0  0  0
   -3.4670   -0.5920   -1.1660 N   0  0  0  0  0  0  0  0  0  0  0  0
   -4.1130   -0.9270   -2.4210 C   0  0  0  0  0  0  0  0  0  0  0  0
   -4.2020   -0.3120    0.0370 C   0  0  0  0  0  0  0  0  0  0  0  0
   -4.5500    1.1650    0.1530 C   0  0  0  0  0  0  0  0  0  0  0  0
   -5.3190    1.4200    1.4310 C   0  0  0  0  0  0  0  0  0  0  0  0
   -6.5610    0.6300    1.4410 C   0  0  0  0  0  0  0  0  0  0  0  0
   -7.7130    0.8830    0.7370 C   0  0  0  0  0  0  0  0  0  0  0  0
   -8.0040    1.9970   -0.2020 C   0  0  0  0  0  0  0  0  0  0  0  0
   -8.5710   -0.1000    1.0610 N   0  0  0  0  0  0  0  0  0  0  0  0
   -8.0060   -0.9070    1.9000 O   0  0  0  0  0  0  0  0  0  0  0  0
   -6.7830   -0.5180    2.1720 C   0  0  0  0  0  0  0  0  0  0  0  0
   -5.8240   -1.2040    3.1020 C   0  0  0  0  0  0  0  0  0  0  0  0
    0.8430   -0.4470   -1.1170 C   0  0  0  0  0  0  0  0  0  0  0  0
    3.9600    0.4430    0.1850 C   0  0  0  0  0  0  0  0  0  0  0  0
    4.7400    0.2500    1.3320 C   0  0  0  0  0  0  0  0  0  0  0  0
    5.5450    1.2790    1.7910 C   0  0  0  0  0  0  0  0  0  0  0  0
  1  2  1  0
  2  3  1  0
  3  4  2  0
  3 35  1  0
  4  5  1  0
  5  6  2  0
  6  7  1  0
  6 34  1  0
  7  8  2  0
  8  9  1  0
  8 10  1  0
 11 10  1  1
 10 33  2  0
 11 12  1  0
 11 32  1  0
 12 13  1  0
 13 14  1  0
 14 15  1  0
 15 16  1  0
 16 17  2  3
 16 32  1  0
 17 18  1  0
 18 19  2  0
 18 20  1  0
 20 21  1  0
 20 22  1  0
 22 23  1  0
 23 24  1  0
 24 25  1  0
 25 26  1  0
 25 30  2  0
 26 27  1  0
 26 28  2  0
 28 29  1  0
 29 30  1  0
 30 31  1  0
 33 34  1  0
 34 35  2  0
M  END
