
     RDKit          3D

 34 39  0  0  0  0  0  0  0  0999 V2000
   -4.8520   -4.4750   -0.0950 C   0  0  0  0  0  0  0  0  0  0  0  0
   -4.3430   -3.0940    0.1740 C   0  0  0  0  0  0  0  0  0  0  0  0
   -3.6340   -2.4170   -0.7630 C   0  0  0  0  0  0  0  0  0  0  0  0
   -3.1260   -1.1260   -0.5940 C   0  0  0  0  0  0  0  0  0  0  0  0
   -2.3480   -0.5290   -1.6950 C   0  0  0  0  0  0  0  0  0  0  0  0
   -0.9580   -0.3400   -1.3380 N   0  0  0  0  0  0  0  0  0  0  0  0
   -0.4170    0.7880   -0.8580 C   0  0  0  0  0  0  0  0  0  0  0  0
   -1.0320    2.0820   -0.6780 N   0  0  0  0  0  0  0  0  0  0  0  0
   -0.5440    3.3070   -0.0960 C   0  0  0  0  0  0  0  0  0  0  0  0
   -1.8490    3.9160   -0.2310 C   0  0  1  0  0  0  0  0  0  0  0  0
   -2.6260    4.3680    0.9490 C   0  0  0  0  0  0  0  0  0  0  0  0
   -2.3140    5.7490    0.5440 N   0  0  0  0  0  0  0  0  0  0  0  0
   -2.0010    5.2760   -0.8120 C   0  0  0  0  0  0  0  0  0  0  0  0
   -2.2710    2.7420   -0.9840 C   0  0  0  0  0  0  0  0  0  0  0  0
    0.8730    0.4820   -0.6160 N   0  0  0  0  0  0  0  0  0  0  0  0
    1.1520   -0.7900   -0.9290 C   0  0  0  0  0  0  0  0  0  0  0  0
    2.3060   -1.5060   -0.8470 C   0  0  0  0  0  0  0  0  0  0  0  0
    3.5330   -0.9830   -0.3700 N   0  0  0  0  0  0  0  0  0  0  0  0
    3.5800   -0.4630    0.9670 C   0  0  0  0  0  0  0  0  0  0  0  0
    4.9110    0.0410    1.4060 C   0  0  0  0  0  0  0  0  0  0  0  0
    5.9410   -0.8120    0.8450 N   0  0  2  0  0  0  0  0  0  0  0  0
    7.2410   -0.4250    1.3620 C   0  0  0  0  0  0  0  0  0  0  0  0
    5.9440   -0.5590   -0.5860 C   0  0  0  0  0  0  0  0  0  0  0  0
    4.6750   -0.9930   -1.2390 C   0  0  0  0  0  0  0  0  0  0  0  0
    2.3200   -2.8390   -1.2480 C   0  0  0  0  0  0  0  0  0  0  0  0
    1.1420   -3.3740   -1.7160 C   0  0  0  0  0  0  0  0  0  0  0  0
    1.1650   -5.0670   -2.2260 Cl  0  0  0  0  0  0  0  0  0  0  0  0
   -0.0190   -2.6350   -1.7920 C   0  0  0  0  0  0  0  0  0  0  0  0
   -0.0330   -1.3180   -1.3960 C   0  0  0  0  0  0  0  0  0  0  0  0
   -3.3660   -0.5080    0.6100 C   0  0  0  0  0  0  0  0  0  0  0  0
   -4.0930   -1.1950    1.5820 C   0  0  0  0  0  0  0  0  0  0  0  0
   -4.3850   -0.5890    2.9170 C   0  0  0  0  0  0  0  0  0  0  0  0
   -4.5830   -2.4750    1.3810 C   0  0  0  0  0  0  0  0  0  0  0  0
   -5.2840   -3.1460    2.3090 F   0  0  0  0  0  0  0  0  0  0  0  0
  1  2  1  0
  2  3  2  0
  2 33  1  0
  3  4  1  0
  4  5  1  0
  4 30  2  0
  5  6  1  0
  6  7  1  0
  6 29  1  0
  7  8  1  0
  7 15  2  0
  8  9  1  0
  8 14  1  0
 10  9  1  1
 10 11  1  0
 10 13  1  0
 10 14  1  0
 11 12  1  0
 12 13  1  0
 15 16  1  0
 16 17  2  0
 16 29  1  0
 17 18  1  0
 17 25  1  0
 18 19  1  0
 18 24  1  0
 19 20  1  0
 20 21  1  0
 21 22  1  1
 21 23  1  0
 23 24  1  0
 25 26  2  0
 26 27  1  0
 26 28  1  0
 28 29  2  0
 30 31  1  0
 31 32  1  0
 31 33  2  0
 33 34  1  0
M  CHG  2  12   1  21   1
M  END
