
     RDKit          3D

 35 37  0  0  0  0  0  0  0  0999 V2000
    9.0840   -2.1840   -0.3760 C   0  0  0  0  0  0  0  0  0  0  0  0
    8.1100   -1.2780    0.3200 C   0  0  0  0  0  0  0  0  0  0  0  0
    7.0590   -2.0550    1.0860 C   0  0  0  0  0  0  0  0  0  0  0  0
    6.2720   -2.9470    0.1260 C   0  0  0  0  0  0  0  0  0  0  0  0
    5.4350   -2.0880   -1.1330 S   0  0  0  0  0  0  0  0  0  0  0  0
    4.1660   -0.8860   -0.6230 C   0  0  0  0  0  0  0  0  0  0  0  0
    3.9640    0.2230   -1.5510 C   0  0  0  0  0  0  0  0  0  0  0  0
    2.7920    0.9690   -1.5380 N   0  0  0  0  0  0  0  0  0  0  0  0
    2.6890    2.1490   -2.4120 C   0  0  0  0  0  0  0  0  0  0  0  0
    3.7210    2.3720   -3.1050 O   0  0  0  0  0  0  0  0  0  0  0  0
    1.5820    2.9750   -2.5040 N   0  0  0  0  0  0  0  0  0  0  0  0
    1.7290    4.1190   -3.4550 C   0  0  0  0  0  0  0  0  0  0  0  0
    0.3220    2.8840   -1.8280 C   0  0  1  0  0  0  0  0  0  0  0  0
   -0.5020    1.6840   -2.1430 C   0  0  0  0  0  0  0  0  0  0  0  0
   -1.1080    1.0150   -0.9100 C   0  0  0  0  0  0  0  0  0  0  0  0
   -1.6220    1.9030    0.0530 N   0  0  0  0  0  0  0  0  0  0  0  0
   -2.5900    1.5810    1.0170 C   0  0  0  0  0  0  0  0  0  0  0  0
   -2.9800    2.6070    1.7730 O   0  0  0  0  0  0  0  0  0  0  0  0
   -3.2310    0.3990    1.3450 N   0  0  0  0  0  0  0  0  0  0  0  0
   -2.9330   -0.8870    0.7720 C   0  0  0  0  0  0  0  0  0  0  0  0
   -4.1500   -1.2130   -0.0780 C   0  0  0  0  0  0  0  0  0  0  0  0
   -5.3010   -1.4290    0.8710 C   0  0  2  0  0  0  0  0  0  0  0  0
   -6.4730   -1.6310    0.0060 N   0  0  0  0  0  0  0  0  0  0  0  0
   -7.8210   -1.3810    0.3570 C   0  0  0  0  0  0  0  0  0  0  0  0
   -8.6620   -1.6930   -0.5040 O   0  0  0  0  0  0  0  0  0  0  0  0
   -8.3950   -0.7980    1.6140 C   0  0  0  0  0  0  0  0  0  0  0  0
   -7.5960   -1.3160    2.6900 N   0  0  0  0  0  0  0  0  0  0  0  0
   -6.4000   -0.6010    2.9610 C   0  0  0  0  0  0  0  0  0  0  0  0
   -5.5490   -0.2730    1.7520 C   0  0  1  0  0  0  0  0  0  0  0  0
   -4.3450    0.4450    2.3040 C   0  0  0  0  0  0  0  0  0  0  0  0
   -1.1040    3.2870    0.0720 C   0  0  0  0  0  0  0  0  0  0  0  0
    0.3770    3.1640   -0.3340 C   0  0  0  0  0  0  0  0  0  0  0  0
    3.4160   -1.1880    0.4060 C   0  0  0  0  0  0  0  0  0  0  0  0
    3.5400   -2.4980    1.1700 C   0  0  0  0  0  0  0  0  0  0  0  0
    2.4600   -0.2240    1.0460 C   0  0  0  0  0  0  0  0  0  0  0  0
  1  2  1  0
  2  3  1  0
  3  4  1  0
  4  5  1  0
  5  6  1  0
  6  7  1  0
  6 33  2  3
  7  8  1  0
  8  9  1  0
  9 10  2  0
  9 11  1  0
 11 12  1  0
 13 11  1  1
 13 14  1  0
 13 32  1  0
 14 15  1  0
 15 16  1  0
 16 17  1  0
 16 31  1  0
 17 18  2  0
 17 19  1  0
 19 20  1  0
 19 30  1  0
 20 21  1  0
 22 21  1  6
 22 23  1  0
 22 29  1  0
 23 24  1  0
 24 25  2  0
 24 26  1  0
 26 27  1  0
 27 28  1  0
 29 28  1  1
 29 30  1  0
 31 32  1  0
 33 34  1  0
 33 35  1  0
M  CHG  1  27   1
M  END
