
     RDKit          3D

 35 38  0  0  0  0  0  0  0  0999 V2000
    9.1520    0.1580   -1.8610 C   0  0  0  0  0  0  0  0  0  0  0  0
    8.0200    0.2140   -0.8500 C   0  0  0  0  0  0  0  0  0  0  0  0
    6.8210   -0.5560   -1.3240 C   0  0  1  0  0  0  0  0  0  0  0  0
    6.3770    0.0900   -2.6450 C   0  0  0  0  0  0  0  0  0  0  0  0
    7.2350   -1.9560   -1.6530 C   0  0  0  0  0  0  0  0  0  0  0  0
    5.7850   -0.4400   -0.4560 O   0  0  0  0  0  0  0  0  0  0  0  0
    5.9680   -0.8700    0.8220 C   0  0  0  0  0  0  0  0  0  0  0  0
    4.6940   -0.6420    1.5730 C   0  0  0  0  0  0  0  0  0  0  0  0
    3.7320   -1.6250    1.6880 C   0  0  0  0  0  0  0  0  0  0  0  0
    2.5520   -1.4220    2.3800 C   0  0  0  0  0  0  0  0  0  0  0  0
    2.2880   -0.2130    2.9900 C   0  0  0  0  0  0  0  0  0  0  0  0
    1.0190    0.0170    3.7420 C   0  0  0  0  0  0  0  0  0  0  0  0
    0.0170    0.5200    2.7860 C   0  0  0  0  0  0  0  0  0  0  0  0
   -0.1010    1.8730    2.5800 C   0  0  0  0  0  0  0  0  0  0  0  0
   -1.0250    2.3800    1.6980 C   0  0  0  0  0  0  0  0  0  0  0  0
   -1.8800    1.5040    0.9800 C   0  0  0  0  0  0  0  0  0  0  0  0
   -2.7620    2.0950    0.0090 C   0  0  0  0  0  0  0  0  0  0  0  0
   -2.4320    3.3010   -0.4260 O   0  0  0  0  0  0  0  0  0  0  0  0
   -3.9170    1.5190   -0.5080 N   0  0  0  0  0  0  0  0  0  0  0  0
   -4.5630    2.2920   -1.6050 C   0  0  0  0  0  0  0  0  0  0  0  0
   -4.6250    0.3820   -0.0250 C   0  0  2  0  0  0  0  0  0  0  0  0
   -4.6170   -0.7650   -1.0160 C   0  0  0  0  0  0  0  0  0  0  0  0
   -5.9660   -1.3460   -1.3110 C   0  0  1  0  0  0  0  0  0  0  0  0
   -6.7090   -0.6230   -2.4130 C   0  0  0  0  0  0  0  0  0  0  0  0
   -5.7650   -2.7770   -1.7990 C   0  0  0  0  0  0  0  0  0  0  0  0
   -6.8220   -1.4130   -0.0610 C   0  0  0  0  0  0  0  0  0  0  0  0
   -7.0590   -0.0080    0.3000 N   0  0  0  0  0  0  0  0  0  0  0  0
   -8.1400    0.6540    0.6350 N   0  0  0  0  0  0  0  0  0  0  0  0
   -7.8460    1.9510    0.8750 C   0  0  0  0  0  0  0  0  0  0  0  0
   -6.4740    2.0610    0.6630 C   0  0  0  0  0  0  0  0  0  0  0  0
   -6.0180    0.8280    0.3070 C   0  0  0  0  0  0  0  0  0  0  0  0
   -1.7170    0.1730    1.2220 C   0  0  0  0  0  0  0  0  0  0  0  0
   -0.7820   -0.3480    2.1160 C   0  0  0  0  0  0  0  0  0  0  0  0
    3.2480    0.7710    2.8760 C   0  0  0  0  0  0  0  0  0  0  0  0
    4.4290    0.5680    2.1840 C   0  0  0  0  0  0  0  0  0  0  0  0
  1  2  1  0
  2  3  1  0
  3  4  1  6
  3  5  1  0
  3  6  1  0
  6  7  1  0
  7  8  1  0
  8  9  2  0
  8 35  1  0
  9 10  1  0
 10 11  2  0
 11 12  1  0
 11 34  1  0
 12 13  1  0
 13 14  2  0
 13 33  1  0
 14 15  1  0
 15 16  2  0
 16 17  1  0
 16 32  1  0
 17 18  2  0
 17 19  1  0
 19 20  1  0
 21 19  1  6
 21 22  1  0
 21 31  1  0
 22 23  1  0
 23 24  1  6
 23 25  1  0
 23 26  1  0
 26 27  1  0
 27 28  1  0
 27 31  1  0
 28 29  2  0
 29 30  1  0
 30 31  2  0
 32 33  2  0
 34 35  2  0
M  END
