
     RDKit          3D

 35 38  0  0  0  0  0  0  0  0999 V2000
    6.9050    0.0470    0.7870 C   0  0  0  0  0  0  0  0  0  0  0  0
    5.8870    0.9920    0.3450 C   0  0  0  0  0  0  0  0  0  0  0  0
    4.6830    0.7150    0.0120 C   0  0  0  0  0  0  0  0  0  0  0  0
    3.9510   -0.5450   -0.0470 C   0  0  0  0  0  0  0  0  0  0  0  0
    4.4960   -1.7830    0.0780 C   0  0  0  0  0  0  0  0  0  0  0  0
    3.7030   -2.9370    0.0900 C   0  0  0  0  0  0  0  0  0  0  0  0
    2.3480   -2.8740   -0.0260 C   0  0  0  0  0  0  0  0  0  0  0  0
    1.5360   -4.1260   -0.0510 C   0  0  0  0  0  0  0  0  0  0  0  0
    1.7330   -1.5980   -0.1610 C   0  0  0  0  0  0  0  0  0  0  0  0
    0.2880   -1.6430   -0.0650 C   0  0  2  0  0  0  0  0  0  0  0  0
   -0.5940   -2.0210   -1.2040 C   0  0  0  0  0  0  0  0  0  0  0  0
   -1.7280   -2.7330   -0.3780 C   0  0  0  0  0  0  0  0  0  0  0  0
   -2.0690   -3.8770   -0.6420 O   0  0  0  0  0  0  0  0  0  0  0  0
   -2.2630   -1.9440    0.6380 N   0  0  0  0  0  0  0  0  0  0  0  0
   -3.4430   -2.3500    1.3840 C   0  0  0  0  0  0  0  0  0  0  0  0
   -4.6860   -1.9320    0.7030 C   0  0  0  0  0  0  0  0  0  0  0  0
   -4.9870   -2.6310   -0.6050 C   0  0  0  0  0  0  0  0  0  0  0  0
   -5.2150   -4.1120   -0.2900 C   0  0  0  0  0  0  0  0  0  0  0  0
   -1.6130   -0.6550    1.0720 C   0  0  0  0  0  0  0  0  0  0  0  0
   -2.1870   -0.0760    1.9410 O   0  0  0  0  0  0  0  0  0  0  0  0
   -0.3580   -0.3240    0.3200 C   0  0  0  0  0  0  0  0  0  0  0  0
   -0.3410    0.7930   -0.3400 C   0  0  0  0  0  0  0  0  0  0  0  0
    0.2880    0.8210   -1.6410 N   0  0  0  0  0  0  0  0  0  0  0  0
    0.4580    2.0060   -2.3390 C   0  0  0  0  0  0  0  0  0  0  0  0
    1.1290    1.9280   -3.6740 C   0  0  0  0  0  0  0  0  0  0  0  0
    0.0840    3.1960   -1.9200 C   0  0  0  0  0  0  0  0  0  0  0  0
    0.3180    4.4000   -2.7670 C   0  0  0  0  0  0  0  0  0  0  0  0
   -0.5500    3.2850   -0.6040 C   0  0  0  0  0  0  0  0  0  0  0  0
   -0.8090    4.4810   -0.1340 C   0  0  0  0  0  0  0  0  0  0  0  0
   -1.4300    4.6740    1.1750 C   0  0  0  0  0  0  0  0  0  0  0  0
   -1.5670    3.4510    1.9540 C   0  0  0  0  0  0  0  0  0  0  0  0
   -2.0780    3.5680    3.3710 C   0  0  0  0  0  0  0  0  0  0  0  0
   -1.2490    2.2780    1.4550 C   0  0  0  0  0  0  0  0  0  0  0  0
   -0.7340    2.0650    0.1360 N   0  0  0  0  0  0  0  0  0  0  0  0
    2.5410   -0.4930   -0.1670 C   0  0  0  0  0  0  0  0  0  0  0  0
  1  2  1  0
  2  3  2  3
  3  4  1  0
  4  5  2  0
  4 35  1  0
  5  6  1  0
  6  7  2  0
  7  8  1  0
  7  9  1  0
 10  9  1  6
  9 35  2  0
 10 11  1  0
 10 21  1  0
 11 12  1  0
 12 13  2  0
 12 14  1  0
 14 15  1  0
 14 19  1  0
 15 16  1  0
 16 17  1  0
 17 18  1  0
 19 20  2  0
 19 21  1  0
 21 22  2  3
 22 23  1  0
 22 34  1  0
 23 24  1  0
 24 25  1  0
 24 26  2  0
 26 27  1  0
 26 28  1  0
 28 29  2  0
 28 34  1  0
 29 30  1  0
 30 31  1  0
 31 32  1  0
 31 33  2  0
 33 34  1  0
M  END
