
     RDKit          3D

 35 38  0  0  0  0  0  0  0  0999 V2000
   -5.1650    5.7250   -0.2300 C   0  0  0  0  0  0  0  0  0  0  0  0
   -6.1970    4.6360   -0.0230 C   0  0  0  0  0  0  0  0  0  0  0  0
   -5.5910    3.4310    0.5700 C   0  0  0  0  0  0  0  0  0  0  0  0
   -5.0640    2.3810   -0.1550 C   0  0  0  0  0  0  0  0  0  0  0  0
   -4.5000    1.2800    0.4660 C   0  0  0  0  0  0  0  0  0  0  0  0
   -4.4540    1.2130    1.8250 C   0  0  0  0  0  0  0  0  0  0  0  0
   -3.8410    0.0400    2.5770 C   0  0  0  0  0  0  0  0  0  0  0  0
   -3.4030   -0.8850    1.7960 O   0  0  0  0  0  0  0  0  0  0  0  0
   -2.9950   -1.7960    1.0220 C   0  0  0  0  0  0  0  0  0  0  0  0
   -3.8610   -2.4960    0.1480 C   0  0  0  0  0  0  0  0  0  0  0  0
   -3.3780   -3.4780   -0.6700 C   0  0  0  0  0  0  0  0  0  0  0  0
   -2.0480   -3.8030   -0.6610 C   0  0  0  0  0  0  0  0  0  0  0  0
   -1.1310   -3.1430    0.1860 C   0  0  0  0  0  0  0  0  0  0  0  0
   -1.6360   -2.1740    0.9860 C   0  0  0  0  0  0  0  0  0  0  0  0
   -0.7630   -1.3720    1.9140 C   0  0  1  0  0  0  0  0  0  0  0  0
   -0.6520   -1.9700    3.2740 C   0  0  0  0  0  0  0  0  0  0  0  0
    0.5560   -1.4200    1.1870 N   0  0  0  0  0  0  0  0  0  0  0  0
    1.0490   -0.2610    0.6580 C   0  0  0  0  0  0  0  0  0  0  0  0
    0.3010    0.8080    0.9220 O   0  0  0  0  0  0  0  0  0  0  0  0
    2.1980    0.0990   -0.1350 C   0  0  0  0  0  0  0  0  0  0  0  0
    3.1420   -0.6560   -0.5970 C   0  0  0  0  0  0  0  0  0  0  0  0
    4.3100   -0.3780   -1.3930 C   0  0  0  0  0  0  0  0  0  0  0  0
    5.3200   -1.3670   -1.4130 C   0  0  0  0  0  0  0  0  0  0  0  0
    6.4650   -1.2960   -2.1320 C   0  0  0  0  0  0  0  0  0  0  0  0
    7.4640   -2.3200   -2.1120 N   0  0  0  0  0  0  0  0  0  0  0  0
    8.6190   -2.0140   -1.6610 N   0  0  0  0  0  0  0  0  0  0  0  0
    8.9050   -0.6750   -1.1860 C   0  0  0  0  0  0  0  0  0  0  0  0
    6.6430   -0.1580   -2.9040 C   0  0  0  0  0  0  0  0  0  0  0  0
    5.7140    0.8400   -2.9380 C   0  0  0  0  0  0  0  0  0  0  0  0
    4.5410    0.7120   -2.1700 C   0  0  0  0  0  0  0  0  0  0  0  0
    3.5670    1.8000   -2.3300 C   0  0  0  0  0  0  0  0  0  0  0  0
    1.0860   -2.7430    1.1600 C   0  0  0  0  0  0  0  0  0  0  0  0
    0.2980   -3.5760    0.1300 C   0  0  0  0  0  0  0  0  0  0  0  0
   -4.9690    2.2390    2.5630 C   0  0  0  0  0  0  0  0  0  0  0  0
   -5.5380    3.3480    1.9580 C   0  0  0  0  0  0  0  0  0  0  0  0
  1  2  1  0
  2  3  1  0
  3  4  2  0
  3 35  1  0
  4  5  1  0
  5  6  2  0
  6  7  1  0
  6 34  1  0
  7  8  1  0
  8  9  1  0
  9 10  2  0
  9 14  1  0
 10 11  1  0
 11 12  2  0
 12 13  1  0
 13 14  2  0
 13 33  1  0
 14 15  1  0
 15 16  1  1
 15 17  1  0
 17 18  1  0
 17 32  1  0
 18 19  2  0
 18 20  1  0
 20 21  2  3
 21 22  1  0
 22 23  2  0
 22 30  1  0
 23 24  1  0
 24 25  1  0
 24 28  2  0
 25 26  2  3
 26 27  1  0
 28 29  1  0
 29 30  2  0
 30 31  1  0
 32 33  1  0
 34 35  2  0
M  END
