
     RDKit          3D

 35 38  0  0  0  0  0  0  0  0999 V2000
    7.8750    0.8310   -1.1520 C   0  0  0  0  0  0  0  0  0  0  0  0
    6.6600    1.5350   -1.0770 O   0  0  0  0  0  0  0  0  0  0  0  0
    5.5250    0.9150   -0.5950 C   0  0  0  0  0  0  0  0  0  0  0  0
    4.3270    1.6110   -0.5220 C   0  0  0  0  0  0  0  0  0  0  0  0
    3.1810    1.0160   -0.0450 C   0  0  0  0  0  0  0  0  0  0  0  0
    3.2390   -0.2990    0.3640 C   0  0  0  0  0  0  0  0  0  0  0  0
    2.0720   -1.0070    0.8680 C   0  0  0  0  0  0  0  0  0  0  0  0
    0.8340   -0.9530    0.3450 C   0  0  0  0  0  0  0  0  0  0  0  0
    0.6830   -0.1030   -0.8260 C   0  0  0  0  0  0  0  0  0  0  0  0
    1.5820   -0.4580   -1.7460 O   0  0  0  0  0  0  0  0  0  0  0  0
   -0.1510    0.9370   -1.1680 N   0  0  0  0  0  0  0  0  0  0  0  0
   -0.5080    2.2200   -0.6150 C   0  0  0  0  0  0  0  0  0  0  0  0
   -0.4630    3.3290   -1.4950 C   0  0  0  0  0  0  0  0  0  0  0  0
   -0.7640    4.6130   -1.1610 C   0  0  0  0  0  0  0  0  0  0  0  0
   -0.6900    5.9450   -2.3000 Cl  0  0  0  0  0  0  0  0  0  0  0  0
   -1.1460    4.8750    0.1330 C   0  0  0  0  0  0  0  0  0  0  0  0
   -1.1980    3.8070    1.0070 C   0  0  0  0  0  0  0  0  0  0  0  0
   -0.8900    2.4950    0.6640 C   0  0  0  0  0  0  0  0  0  0  0  0
   -1.0590    1.5100    1.7770 C   0  0  0  0  0  0  0  0  0  0  0  0
   -2.2960    0.6650    1.6000 C   0  0  0  0  0  0  0  0  0  0  0  0
   -2.6220    0.4050    0.1810 C   0  0  0  0  0  0  0  0  0  0  0  0
   -2.7460   -0.7080   -0.4700 C   0  0  0  0  0  0  0  0  0  0  0  0
   -2.6050   -2.1030   -0.0190 C   0  0  1  0  0  0  0  0  0  0  0  0
   -3.7560   -2.4830    0.9000 C   0  0  0  0  0  0  0  0  0  0  0  0
   -4.1380   -3.9210    0.8570 C   0  0  0  0  0  0  0  0  0  0  0  0
   -4.7450   -4.1660   -0.4750 C   0  0  0  0  0  0  0  0  0  0  0  0
   -5.8140   -4.7880   -0.6120 O   0  0  0  0  0  0  0  0  0  0  0  0
   -4.0050   -3.6330   -1.5650 N   0  0  0  0  0  0  0  0  0  0  0  0
   -2.8150   -2.9510   -1.2410 C   0  0  0  0  0  0  0  0  0  0  0  0
   -1.8150   -3.0420   -2.0300 O   0  0  0  0  0  0  0  0  0  0  0  0
   -1.3140   -2.4460    0.5620 N   0  0  0  0  0  0  0  0  0  0  0  0
   -0.2170   -1.7640    0.9970 C   0  0  0  0  0  0  0  0  0  0  0  0
   -0.0220   -1.8230    2.2970 O   0  0  0  0  0  0  0  0  0  0  0  0
    4.4730   -0.9590    0.2700 C   0  0  0  0  0  0  0  0  0  0  0  0
    5.5670   -0.3650   -0.1930 N   0  0  0  0  0  0  0  0  0  0  0  0
  1  2  1  0
  2  3  1  0
  3  4  2  0
  3 35  1  0
  4  5  1  0
  5  6  2  0
  6  7  1  0
  6 34  1  0
  7  8  2  3
  8  9  1  0
  8 32  1  0
  9 10  2  0
  9 11  1  0
 11 12  1  0
 12 13  2  0
 12 18  1  0
 13 14  1  0
 14 15  1  0
 14 16  2  0
 16 17  1  0
 17 18  2  0
 18 19  1  0
 19 20  1  0
 20 21  1  0
 21 22  2  0
 22 23  1  0
 23 24  1  1
 23 29  1  0
 23 31  1  0
 24 25  1  0
 25 26  1  0
 26 27  2  0
 26 28  1  0
 28 29  1  0
 29 30  2  0
 31 32  1  0
 32 33  2  0
 34 35  2  0
M  END
