
     RDKit          3D

 35 39  0  0  0  0  0  0  0  0999 V2000
   -2.4620    2.5440   -1.2600 N   0  0  0  0  0  0  0  0  0  0  0  0
   -2.4110    1.1620   -1.5650 C   0  0  0  0  0  0  0  0  0  0  0  0
   -2.4550    0.8270   -2.7570 O   0  0  0  0  0  0  0  0  0  0  0  0
   -2.3080    0.1180   -0.4850 C   0  0  2  0  0  0  0  0  0  0  0  0
   -3.4020    0.3900    0.4530 C   0  0  0  0  0  0  0  0  0  0  0  0
   -3.1850    1.0060    1.6770 C   0  0  0  0  0  0  0  0  0  0  0  0
   -4.2020    1.3000    2.5600 C   0  0  0  0  0  0  0  0  0  0  0  0
   -5.4850    0.9770    2.2310 C   0  0  0  0  0  0  0  0  0  0  0  0
   -5.7840    0.3560    1.0190 C   0  0  0  0  0  0  0  0  0  0  0  0
   -7.0900    0.0310    0.7170 C   0  0  0  0  0  0  0  0  0  0  0  0
   -7.3900   -0.5880   -0.4630 C   0  0  0  0  0  0  0  0  0  0  0  0
   -8.7190   -0.9310   -0.7980 O   0  0  0  0  0  0  0  0  0  0  0  0
   -6.3570   -0.8690   -1.3220 C   0  0  0  0  0  0  0  0  0  0  0  0
   -5.0400   -0.5430   -1.0180 C   0  0  0  0  0  0  0  0  0  0  0  0
   -4.7360    0.0770    0.1610 C   0  0  0  0  0  0  0  0  0  0  0  0
   -0.9210    0.1630    0.0670 C   0  0  1  0  0  0  0  0  0  0  0  0
   -0.5060    1.3440    0.6090 O   0  0  0  0  0  0  0  0  0  0  0  0
   -0.6590   -0.9490    1.0630 C   0  0  0  0  0  0  0  0  0  0  0  0
   -0.7800   -2.3210    0.4290 C   0  0  0  0  0  0  0  0  0  0  0  0
    0.3970   -2.5010   -0.5070 C   0  0  0  0  0  0  0  0  0  0  0  0
    0.9950   -1.1550   -0.7410 N   0  0  0  0  0  0  0  0  0  0  0  0
    2.4060   -1.0260   -0.5910 C   0  0  0  0  0  0  0  0  0  0  0  0
    2.9860   -2.1000   -0.2960 O   0  0  0  0  0  0  0  0  0  0  0  0
    3.0840    0.2090   -0.7630 C   0  0  0  0  0  0  0  0  0  0  0  0
    4.3010    0.6330   -0.7370 C   0  0  0  0  0  0  0  0  0  0  0  0
    5.5680    0.0190   -0.5240 C   0  0  0  0  0  0  0  0  0  0  0  0
    5.8910   -1.3050   -0.6120 C   0  0  0  0  0  0  0  0  0  0  0  0
    7.1420   -1.8220   -0.2920 C   0  0  0  0  0  0  0  0  0  0  0  0
    8.1370   -1.0010    0.1360 C   0  0  0  0  0  0  0  0  0  0  0  0
    7.8500    0.3420    0.2350 C   0  0  0  0  0  0  0  0  0  0  0  0
    6.6320    0.8600   -0.0730 C   0  0  0  0  0  0  0  0  0  0  0  0
    6.7150    2.2280    0.1460 O   0  0  0  0  0  0  0  0  0  0  0  0
    7.9540    2.5720    0.7210 C   0  0  0  0  0  0  0  0  0  0  0  0
    8.6910    1.3900    0.6460 O   0  0  0  0  0  0  0  0  0  0  0  0
    0.0450   -0.1410   -1.1060 C   0  0  0  0  0  0  0  0  0  0  0  0
  1  2  1  0
  2  3  2  0
  4  2  1  6
  4  5  1  0
  4 16  1  0
  5  6  2  0
  5 15  1  0
  6  7  1  0
  7  8  2  0
  8  9  1  0
  9 10  2  0
  9 15  1  0
 10 11  1  0
 11 12  1  0
 11 13  2  0
 13 14  1  0
 14 15  2  0
 16 17  1  1
 16 18  1  0
 16 35  1  0
 18 19  1  0
 19 20  1  0
 20 21  1  0
 21 22  1  0
 21 35  1  0
 22 23  2  0
 22 24  1  0
 24 25  2  3
 25 26  1  0
 26 27  2  0
 26 31  1  0
 27 28  1  0
 28 29  2  0
 29 30  1  0
 30 31  2  0
 30 34  1  0
 31 32  1  0
 32 33  1  0
 33 34  1  0
M  END
