
     RDKit          3D

 35 38  0  0  0  0  0  0  0  0999 V2000
    7.2460   -0.9180    0.8020 C   0  0  0  0  0  0  0  0  0  0  0  0
    6.4010   -0.8660   -0.4530 C   0  0  0  0  0  0  0  0  0  0  0  0
    5.0220   -0.8470   -0.1440 O   0  0  0  0  0  0  0  0  0  0  0  0
    4.4130    0.1230    0.6030 C   0  0  0  0  0  0  0  0  0  0  0  0
    5.0900    1.0740    1.0600 O   0  0  0  0  0  0  0  0  0  0  0  0
    2.9910    0.0880    0.8870 N   0  0  0  0  0  0  0  0  0  0  0  0
    2.3840    1.1230    1.6750 C   0  0  0  0  0  0  0  0  0  0  0  0
    1.1710    1.5360    0.8720 C   0  0  0  0  0  0  0  0  0  0  0  0
    0.1880    0.3380    0.8070 C   0  0  1  0  0  0  0  0  0  0  0  0
    0.3040   -0.1330    2.1680 O   0  0  0  0  0  0  0  0  0  0  0  0
   -1.0680    0.9260    0.6290 N   0  0  0  0  0  0  0  0  0  0  0  0
   -1.6720    1.7940   -0.3010 C   0  0  0  0  0  0  0  0  0  0  0  0
   -2.4610    2.9210    0.2950 C   0  0  0  0  0  0  0  0  0  0  0  0
   -2.6370    3.2190    1.5670 C   0  0  0  0  0  0  0  0  0  0  0  0
   -3.4890    4.4100    1.6410 C   0  0  0  0  0  0  0  0  0  0  0  0
   -3.2230    5.0510    0.4390 O   0  0  0  0  0  0  0  0  0  0  0  0
   -3.2210    3.9800   -0.4500 C   0  0  0  0  0  0  0  0  0  0  0  0
   -1.6680    1.7210   -1.6150 C   0  0  0  0  0  0  0  0  0  0  0  0
   -1.0650    0.7530   -2.4900 C   0  0  0  0  0  0  0  0  0  0  0  0
   -1.4370   -0.4990   -2.7370 C   0  0  0  0  0  0  0  0  0  0  0  0
   -2.5290   -1.1810   -2.1950 N   0  0  0  0  0  0  0  0  0  0  0  0
   -3.0570   -1.3140   -0.8860 C   0  0  0  0  0  0  0  0  0  0  0  0
   -4.3870   -0.8810   -0.7670 C   0  0  0  0  0  0  0  0  0  0  0  0
   -5.1090   -0.9160    0.3990 C   0  0  0  0  0  0  0  0  0  0  0  0
   -4.5000   -1.4050    1.5230 C   0  0  0  0  0  0  0  0  0  0  0  0
   -3.1940   -1.8360    1.4210 C   0  0  0  0  0  0  0  0  0  0  0  0
   -2.5330   -2.4620    2.9370 Cl  0  0  0  0  0  0  0  0  0  0  0  0
   -2.4560   -1.8010    0.2360 C   0  0  0  0  0  0  0  0  0  0  0  0
   -1.1180   -2.3330    0.3480 C   0  0  0  0  0  0  0  0  0  0  0  0
   -1.0440   -3.4270    1.0600 O   0  0  0  0  0  0  0  0  0  0  0  0
    0.1420   -1.9440   -0.1370 N   0  0  0  0  0  0  0  0  0  0  0  0
    0.9120   -3.0000   -0.7730 C   0  0  0  0  0  0  0  0  0  0  0  0
    0.7010   -3.1230   -2.2530 C   0  0  0  0  0  0  0  0  0  0  0  0
    0.7840   -0.6530   -0.0690 C   0  0  2  0  0  0  0  0  0  0  0  0
    2.2170   -0.9760    0.3790 C   0  0  0  0  0  0  0  0  0  0  0  0
  1  2  1  0
  2  3  1  0
  3  4  1  0
  4  5  2  0
  4  6  1  0
  6  7  1  0
  6 35  1  0
  7  8  1  0
  8  9  1  0
  9 10  1  1
  9 11  1  0
  9 34  1  0
 11 12  1  0
 12 13  1  0
 12 18  2  0
 13 14  2  0
 13 17  1  0
 14 15  1  0
 15 16  1  0
 16 17  1  0
 18 19  1  0
 19 20  2  0
 20 21  1  0
 21 22  1  0
 22 23  2  0
 22 28  1  0
 23 24  1  0
 24 25  2  0
 25 26  1  0
 26 27  1  0
 26 28  2  0
 28 29  1  0
 29 30  2  0
 29 31  1  0
 31 32  1  0
 31 34  1  0
 32 33  1  0
 34 35  1  1
M  END
