
     RDKit          3D

 34 39  0  0  0  0  0  0  0  0999 V2000
   -3.5120   -5.1190    0.4140 C   0  0  0  0  0  0  0  0  0  0  0  0
   -3.2970   -3.6660    0.1320 C   0  0  0  0  0  0  0  0  0  0  0  0
   -2.5130   -2.9130    0.9610 C   0  0  0  0  0  0  0  0  0  0  0  0
   -2.3140   -1.5750    0.7030 C   0  0  0  0  0  0  0  0  0  0  0  0
   -1.4660   -0.7850    1.5650 C   0  0  0  0  0  0  0  0  0  0  0  0
   -0.1830   -0.4030    1.1030 N   0  0  0  0  0  0  0  0  0  0  0  0
    0.1510    0.7560    0.5420 C   0  0  0  0  0  0  0  0  0  0  0  0
   -0.6760    1.8980    0.3680 N   0  0  0  0  0  0  0  0  0  0  0  0
   -1.5140    2.5620   -0.6080 C   0  0  0  0  0  0  0  0  0  0  0  0
   -1.3570    3.8030    0.2220 C   0  0  1  0  0  0  0  0  0  0  0  0
   -0.5060    4.8990   -0.2520 C   0  0  0  0  0  0  0  0  0  0  0  0
   -1.7190    5.7310   -0.3340 N   0  0  0  0  0  0  0  0  0  0  0  0
   -2.5150    4.6980    0.3510 C   0  0  0  0  0  0  0  0  0  0  0  0
   -0.9540    2.9600    1.3770 C   0  0  0  0  0  0  0  0  0  0  0  0
    1.4760    0.6990    0.1870 N   0  0  0  0  0  0  0  0  0  0  0  0
    1.9480   -0.5100    0.5410 C   0  0  0  0  0  0  0  0  0  0  0  0
    3.2100   -1.0840    0.4190 C   0  0  0  0  0  0  0  0  0  0  0  0
    4.3030   -0.3480   -0.1990 C   0  0  0  0  0  0  0  0  0  0  0  0
    5.2140    0.4920    0.4030 C   0  0  0  0  0  0  0  0  0  0  0  0
    5.2520    0.8300    1.8550 C   0  0  0  0  0  0  0  0  0  0  0  0
    6.0240    0.9210   -0.5810 N   0  0  0  0  0  0  0  0  0  0  0  0
    5.6600    0.3920   -1.7420 N   0  0  0  0  0  0  0  0  0  0  0  0
    4.5890   -0.4100   -1.5590 C   0  0  0  0  0  0  0  0  0  0  0  0
    3.8840   -1.1840   -2.5930 C   0  0  0  0  0  0  0  0  0  0  0  0
    3.3570   -2.3690    0.9030 C   0  0  0  0  0  0  0  0  0  0  0  0
    2.3220   -3.0700    1.4810 C   0  0  0  0  0  0  0  0  0  0  0  0
    2.5700   -4.7040    2.0780 Cl  0  0  0  0  0  0  0  0  0  0  0  0
    1.0770   -2.5010    1.6000 C   0  0  0  0  0  0  0  0  0  0  0  0
    0.9190   -1.2220    1.1220 C   0  0  0  0  0  0  0  0  0  0  0  0
   -2.9230   -1.0360   -0.3990 C   0  0  0  0  0  0  0  0  0  0  0  0
   -3.7270   -1.7870   -1.2570 C   0  0  0  0  0  0  0  0  0  0  0  0
   -4.3710   -1.1490   -2.4610 C   0  0  0  0  0  0  0  0  0  0  0  0
   -3.9020   -3.1120   -0.9700 C   0  0  0  0  0  0  0  0  0  0  0  0
   -4.6820   -3.8720   -1.7910 F   0  0  0  0  0  0  0  0  0  0  0  0
  1  2  1  0
  2  3  2  0
  2 33  1  0
  3  4  1  0
  4  5  1  0
  4 30  2  0
  5  6  1  0
  6  7  1  0
  6 29  1  0
  7  8  1  0
  7 15  2  0
  8  9  1  0
  8 14  1  0
 10  9  1  6
 10 11  1  0
 10 13  1  0
 10 14  1  0
 11 12  1  0
 12 13  1  0
 15 16  1  0
 16 17  2  0
 16 29  1  0
 17 18  1  0
 17 25  1  0
 18 19  1  0
 18 23  2  0
 19 20  1  0
 19 21  2  0
 21 22  1  0
 22 23  1  0
 23 24  1  0
 25 26  2  0
 26 27  1  0
 26 28  1  0
 28 29  2  0
 30 31  1  0
 31 32  1  0
 31 33  2  0
 33 34  1  0
M  CHG  1  12   1
M  END
