
     RDKit          3D

 35 39  0  0  0  0  0  0  0  0999 V2000
    5.5710    2.5230    2.4710 N   0  0  0  0  0  0  0  0  0  0  0  0
    5.9950    1.8000    1.3060 C   0  0  0  0  0  0  0  0  0  0  0  0
    6.9800    2.3260    0.5010 C   0  0  0  0  0  0  0  0  0  0  0  0
    7.3730    1.6190   -0.6110 C   0  0  0  0  0  0  0  0  0  0  0  0
    6.8020    0.3850   -0.9460 C   0  0  0  0  0  0  0  0  0  0  0  0
    5.8220   -0.1450   -0.1490 C   0  0  0  0  0  0  0  0  0  0  0  0
    5.4330    0.5900    0.9820 C   0  0  0  0  0  0  0  0  0  0  0  0
    5.2320   -1.4400   -0.4660 C   0  0  1  0  0  0  0  0  0  0  0  0
    3.8850   -1.6220    0.1380 C   0  0  0  0  0  0  0  0  0  0  0  0
    3.4700   -2.5360    0.9950 C   0  0  0  0  0  0  0  0  0  0  0  0
    2.0590   -2.3260    1.3140 C   0  0  0  0  0  0  0  0  0  0  0  0
    1.5830   -1.2810    0.6600 C   0  0  0  0  0  0  0  0  0  0  0  0
    0.2820   -0.8240    0.7480 O   0  0  0  0  0  0  0  0  0  0  0  0
   -0.7390   -1.2520   -0.0720 C   0  0  0  0  0  0  0  0  0  0  0  0
   -0.4470   -2.1120   -0.9480 O   0  0  0  0  0  0  0  0  0  0  0  0
   -2.1330   -0.7580    0.0270 C   0  0  0  0  0  0  0  0  0  0  0  0
   -2.9760   -1.3630   -0.9310 O   0  0  0  0  0  0  0  0  0  0  0  0
   -4.3060   -1.0780   -1.0460 C   0  0  0  0  0  0  0  0  0  0  0  0
   -5.0700   -1.7060   -2.0020 C   0  0  0  0  0  0  0  0  0  0  0  0
   -6.4120   -1.4070   -2.1070 C   0  0  0  0  0  0  0  0  0  0  0  0
   -7.0300   -0.4780   -1.2650 C   0  0  0  0  0  0  0  0  0  0  0  0
   -6.2520    0.1520   -0.3020 C   0  0  0  0  0  0  0  0  0  0  0  0
   -6.8670    1.1210    0.5860 C   0  0  0  0  0  0  0  0  0  0  0  0
   -8.1370    1.4350    0.5250 C   0  0  0  0  0  0  0  0  0  0  0  0
   -8.8020    2.4340    1.4290 C   0  0  0  0  0  0  0  0  0  0  0  0
   -7.9170    2.9980    2.3490 O   0  0  0  0  0  0  0  0  0  0  0  0
   -6.5900    2.6950    2.4420 C   0  0  0  0  0  0  0  0  0  0  0  0
   -6.0580    1.7860    1.5960 C   0  0  0  0  0  0  0  0  0  0  0  0
   -4.9130   -0.1500   -0.2020 C   0  0  0  0  0  0  0  0  0  0  0  0
    2.7210   -0.7860   -0.1170 C   0  0  0  0  0  0  0  0  0  0  0  0
    2.6460    0.2140   -0.8730 O   0  0  0  0  0  0  0  0  0  0  0  0
    5.2040   -1.6470   -1.9600 C   0  0  0  0  0  0  0  0  0  0  0  0
    6.6010   -1.5390   -2.4450 C   0  0  0  0  0  0  0  0  0  0  0  0
    7.1550   -2.4470   -3.0560 O   0  0  0  0  0  0  0  0  0  0  0  0
    7.2450   -0.2870   -2.1390 N   0  0  0  0  0  0  0  0  0  0  0  0
  1  2  1  0
  2  3  2  0
  2  7  1  0
  3  4  1  0
  4  5  2  0
  5  6  1  0
  5 35  1  0
  6  7  2  0
  6  8  1  0
  8  9  1  6
  8 32  1  0
  9 10  2  0
  9 30  1  0
 10 11  1  0
 11 12  2  0
 12 13  1  0
 12 30  1  0
 13 14  1  0
 14 15  2  0
 14 16  1  0
 16 17  1  0
 17 18  1  0
 18 19  2  0
 18 29  1  0
 19 20  1  0
 20 21  2  0
 21 22  1  0
 22 23  1  0
 22 29  2  0
 23 24  2  0
 23 28  1  0
 24 25  1  0
 25 26  1  0
 26 27  1  0
 27 28  2  0
 30 31  2  0
 32 33  1  0
 33 34  2  0
 33 35  1  0
M  END
