
     RDKit          3D

 35 38  0  0  0  0  0  0  0  0999 V2000
    5.1490    2.9540    2.6470 C   0  0  0  0  0  0  0  0  0  0  0  0
    4.8550    2.5530    1.2290 C   0  0  2  0  0  0  0  0  0  0  0  0
    4.5110    3.7420    0.3830 C   0  0  0  0  0  0  0  0  0  0  0  0
    4.4700    3.3730   -1.0780 C   0  0  0  0  0  0  0  0  0  0  0  0
    3.7430    2.1000   -1.2770 C   0  0  0  0  0  0  0  0  0  0  0  0
    3.5720    1.6150   -2.4050 O   0  0  0  0  0  0  0  0  0  0  0  0
    3.1940    1.3620   -0.1200 C   0  0  0  0  0  0  0  0  0  0  0  0
    2.1530    0.4670   -0.2740 C   0  0  0  0  0  0  0  0  0  0  0  0
    1.6250   -0.2340    0.7930 C   0  0  0  0  0  0  0  0  0  0  0  0
    0.5120   -1.1830    0.5910 C   0  0  1  0  0  0  0  0  0  0  0  0
   -0.5320   -0.6510   -0.2580 N   0  0  0  0  0  0  0  0  0  0  0  0
   -1.8600   -0.4040    0.1880 C   0  0  0  0  0  0  0  0  0  0  0  0
   -2.1660   -0.6530    1.3770 O   0  0  0  0  0  0  0  0  0  0  0  0
   -2.8820    0.1300   -0.6900 C   0  0  0  0  0  0  0  0  0  0  0  0
   -2.6120    0.3920   -1.8900 O   0  0  0  0  0  0  0  0  0  0  0  0
   -4.1860    0.3540   -0.1870 N   0  0  0  0  0  0  0  0  0  0  0  0
   -5.2550    0.8890   -1.0250 C   0  0  1  0  0  0  0  0  0  0  0  0
   -6.3580   -0.1490   -1.0650 C   0  0  0  0  0  0  0  0  0  0  0  0
   -6.8250   -0.3870    0.2290 O   0  0  0  0  0  0  0  0  0  0  0  0
   -5.7310    2.1560   -0.4060 C   0  0  0  0  0  0  0  0  0  0  0  0
   -7.0540    2.4820   -0.2560 C   0  0  0  0  0  0  0  0  0  0  0  0
   -7.0930    3.7160    0.3500 C   0  0  0  0  0  0  0  0  0  0  0  0
   -5.7910    4.0730    0.5340 C   0  0  0  0  0  0  0  0  0  0  0  0
   -5.0220    3.1320    0.0780 O   0  0  0  0  0  0  0  0  0  0  0  0
    0.9680   -2.5150    0.1600 C   0  0  0  0  0  0  0  0  0  0  0  0
    1.1650   -3.5400    1.0340 C   0  0  0  0  0  0  0  0  0  0  0  0
    1.6000   -4.7960    0.5820 C   0  0  0  0  0  0  0  0  0  0  0  0
    1.8380   -5.0200   -0.7570 C   0  0  0  0  0  0  0  0  0  0  0  0
    2.3050   -6.3690   -1.2430 C   0  0  0  0  0  0  0  0  0  0  0  0
    1.2520   -7.1920   -1.5560 O   0  0  0  0  0  0  0  0  0  0  0  0
    1.6370   -3.9810   -1.6380 C   0  0  0  0  0  0  0  0  0  0  0  0
    1.2070   -2.7460   -1.1730 C   0  0  0  0  0  0  0  0  0  0  0  0
    2.1920    0.0060    2.0310 C   0  0  0  0  0  0  0  0  0  0  0  0
    3.2330    0.8950    2.2110 C   0  0  0  0  0  0  0  0  0  0  0  0
    3.7380    1.5780    1.1300 C   0  0  0  0  0  0  0  0  0  0  0  0
  2  1  1  1
  2  3  1  0
  2 35  1  0
  3  4  1  0
  4  5  1  0
  5  6  2  0
  5  7  1  0
  7  8  2  0
  7 35  1  0
  8  9  1  0
  9 10  1  0
  9 33  2  0
 10 11  1  6
 10 25  1  0
 11 12  1  0
 12 13  2  0
 12 14  1  0
 14 15  2  0
 14 16  1  0
 16 17  1  0
 17 18  1  1
 17 20  1  0
 18 19  1  0
 20 21  2  0
 20 24  1  0
 21 22  1  0
 22 23  2  0
 23 24  1  0
 25 26  2  0
 25 32  1  0
 26 27  1  0
 27 28  2  0
 28 29  1  0
 28 31  1  0
 29 30  1  0
 31 32  2  0
 33 34  1  0
 34 35  2  0
M  END
