
     RDKit          3D

 35 38  0  0  0  0  0  0  0  0999 V2000
    4.6450    1.3980   -1.1260 C   0  0  0  0  0  0  0  0  0  0  0  0
    4.0670    0.2960   -0.3400 C   0  0  1  0  0  0  0  0  0  0  0  0
    4.9520   -0.4660    0.5830 C   0  0  0  0  0  0  0  0  0  0  0  0
    6.1070   -0.9830    0.1610 O   0  0  0  0  0  0  0  0  0  0  0  0
    7.3190   -0.7020   -0.3210 C   0  0  0  0  0  0  0  0  0  0  0  0
    7.8500    0.5330   -0.5590 C   0  0  0  0  0  0  0  0  0  0  0  0
    9.1160    0.6780   -1.0560 C   0  0  0  0  0  0  0  0  0  0  0  0
    9.9020   -0.4170   -1.3340 C   0  0  0  0  0  0  0  0  0  0  0  0
    9.3890   -1.6700   -1.1030 C   0  0  0  0  0  0  0  0  0  0  0  0
    8.1320   -1.8190   -0.6090 C   0  0  0  0  0  0  0  0  0  0  0  0
    7.6080   -3.1190   -0.3720 N   0  0  0  0  0  0  0  0  0  0  0  0
    2.8560    0.7740    0.3180 N   0  0  0  0  0  0  0  0  0  0  0  0
    1.5910    0.2300   -0.0580 C   0  0  0  0  0  0  0  0  0  0  0  0
    1.4770   -0.6580   -0.9420 O   0  0  0  0  0  0  0  0  0  0  0  0
    0.4520    0.7820    0.6580 C   0  0  0  0  0  0  0  0  0  0  0  0
   -0.8300    0.3050    0.3500 O   0  0  0  0  0  0  0  0  0  0  0  0
   -1.8000    1.1860   -0.2360 C   0  0  0  0  0  0  0  0  0  0  0  0
   -3.0710    0.4520   -0.4680 C   0  0  0  0  0  0  0  0  0  0  0  0
   -3.2960   -0.2080   -1.6730 C   0  0  0  0  0  0  0  0  0  0  0  0
   -4.4850   -0.8800   -1.8570 C   0  0  0  0  0  0  0  0  0  0  0  0
   -5.4610   -0.9130   -0.8660 C   0  0  0  0  0  0  0  0  0  0  0  0
   -5.2550   -0.2670    0.3310 C   0  0  0  0  0  0  0  0  0  0  0  0
   -4.0490    0.3970    0.4780 C   0  0  0  0  0  0  0  0  0  0  0  0
   -5.9300   -0.0240    1.6020 C   0  0  1  0  0  0  0  0  0  0  0  0
   -6.3270    1.3290    1.7460 O   0  0  0  0  0  0  0  0  0  0  0  0
   -7.0150   -0.9670    1.9710 C   0  0  0  0  0  0  0  0  0  0  0  0
   -8.0480   -1.2500    0.9690 C   0  0  0  0  0  0  0  0  0  0  0  0
   -8.1870   -0.2700   -0.1490 C   0  0  0  0  0  0  0  0  0  0  0  0
   -7.8840   -0.9960   -1.4430 C   0  0  0  0  0  0  0  0  0  0  0  0
   -6.5740   -1.7120   -1.4100 C   0  0  0  0  0  0  0  0  0  0  0  0
    0.5700    1.7050    1.5780 C   0  0  0  0  0  0  0  0  0  0  0  0
    1.8270    2.3110    2.0210 C   0  0  2  0  0  0  0  0  0  0  0  0
    1.7550    3.7080    1.9230 O   0  0  0  0  0  0  0  0  0  0  0  0
    2.9870    1.7710    1.3080 C   0  0  0  0  0  0  0  0  0  0  0  0
    4.1760    2.2000    1.5700 O   0  0  0  0  0  0  0  0  0  0  0  0
  2  1  1  1
  2  3  1  0
  2 12  1  0
  3  4  1  0
  4  5  1  0
  5  6  2  0
  5 10  1  0
  6  7  1  0
  7  8  2  0
  8  9  1  0
  9 10  2  0
 10 11  1  0
 12 13  1  0
 12 34  1  0
 13 14  2  0
 13 15  1  0
 15 16  1  0
 15 31  2  0
 16 17  1  0
 17 18  1  0
 18 19  2  0
 18 23  1  0
 19 20  1  0
 20 21  2  0
 21 22  1  0
 21 30  1  0
 22 23  2  0
 22 24  1  0
 24 25  1  6
 24 26  1  0
 26 27  1  0
 27 28  1  0
 28 29  1  0
 29 30  1  0
 31 32  1  0
 32 33  1  6
 32 34  1  0
 34 35  2  0
M  END
