
     RDKit          3D

 35 38  0  0  0  0  0  0  0  0999 V2000
    5.9800   -1.6100    1.8550 C   0  0  0  0  0  0  0  0  0  0  0  0
    5.1290   -0.9680    0.8960 O   0  0  0  0  0  0  0  0  0  0  0  0
    3.8190   -0.6450    1.2080 C   0  0  0  0  0  0  0  0  0  0  0  0
    3.4270   -0.9440    2.3650 O   0  0  0  0  0  0  0  0  0  0  0  0
    2.9020    0.0310    0.2150 C   0  0  1  0  0  0  0  0  0  0  0  0
    2.9070   -0.8330   -0.9920 C   0  0  0  0  0  0  0  0  0  0  0  0
    2.2380   -2.1600   -0.8600 C   0  0  0  0  0  0  0  0  0  0  0  0
    2.0460   -2.7190   -2.2660 C   0  0  0  0  0  0  0  0  0  0  0  0
    0.7510   -2.2630   -2.8290 C   0  0  0  0  0  0  0  0  0  0  0  0
    0.8480   -1.6210   -3.9440 O   0  0  0  0  0  0  0  0  0  0  0  0
   -0.5270   -2.4460   -2.3060 N   0  0  0  0  0  0  0  0  0  0  0  0
   -1.1260   -2.0600   -1.1070 C   0  0  0  0  0  0  0  0  0  0  0  0
   -1.2690   -0.8380   -0.6120 C   0  0  0  0  0  0  0  0  0  0  0  0
   -1.9330   -0.6820    0.6760 C   0  0  0  0  0  0  0  0  0  0  0  0
   -2.7850    0.2790    0.8910 N   0  0  0  0  0  0  0  0  0  0  0  0
   -3.4130    0.3920    2.1710 C   0  0  1  0  0  0  0  0  0  0  0  0
   -4.4720    1.4240    2.4120 C   0  0  0  0  0  0  0  0  0  0  0  0
   -4.8840   -0.0060    2.3030 C   0  0  0  0  0  0  0  0  0  0  0  0
   -1.6010   -1.6690    1.7640 C   0  0  0  0  0  0  0  0  0  0  0  0
   -1.2380   -3.0040    1.1820 C   0  0  0  0  0  0  0  0  0  0  0  0
   -1.7640   -3.1190   -0.2290 C   0  0  0  0  0  0  0  0  0  0  0  0
   -0.8170    0.4180   -1.3020 C   0  0  1  0  0  0  0  0  0  0  0  0
   -1.4030    0.3490   -2.7200 C   0  0  0  0  0  0  0  0  0  0  0  0
   -1.2640    1.5390   -0.6150 O   0  0  0  0  0  0  0  0  0  0  0  0
   -0.9600    2.8690   -0.5740 C   0  0  0  0  0  0  0  0  0  0  0  0
   -1.7790    3.7660   -1.2920 C   0  0  0  0  0  0  0  0  0  0  0  0
   -1.5970    5.1250   -1.3520 C   0  0  0  0  0  0  0  0  0  0  0  0
   -0.5320    5.6420   -0.6530 C   0  0  0  0  0  0  0  0  0  0  0  0
   -0.2800    7.3770   -0.7180 Cl  0  0  0  0  0  0  0  0  0  0  0  0
    0.2720    4.8000    0.0490 C   0  0  0  0  0  0  0  0  0  0  0  0
    0.1110    3.4030    0.1310 C   0  0  0  0  0  0  0  0  0  0  0  0
    1.0050    2.6920    0.9890 N   0  0  0  0  0  0  0  0  0  0  0  0
    1.0950    1.3900    1.4560 C   0  0  0  0  0  0  0  0  0  0  0  0
    0.5960    1.1410    2.6790 O   0  0  0  0  0  0  0  0  0  0  0  0
    1.6410    0.2160    0.8710 N   0  0  0  0  0  0  0  0  0  0  0  0
  1  2  1  0
  2  3  1  0
  3  4  2  0
  5  3  1  1
  5  6  1  0
  5 35  1  0
  6  7  1  0
  7  8  1  0
  8  9  1  0
  9 10  2  0
  9 11  1  0
 11 12  1  0
 12 13  2  0
 12 21  1  0
 13 14  1  0
 13 22  1  0
 14 15  2  3
 14 19  1  0
 16 15  1  6
 16 17  1  0
 16 18  1  0
 17 18  1  0
 19 20  1  0
 20 21  1  0
 22 23  1  6
 22 24  1  0
 24 25  1  0
 25 26  2  0
 25 31  1  0
 26 27  1  0
 27 28  2  0
 28 29  1  0
 28 30  1  0
 30 31  2  0
 31 32  1  0
 32 33  1  0
 33 34  2  0
 33 35  1  0
M  END
