
     RDKit          3D

 32 35  0  0  0  0  0  0  0  0999 V2000
    9.9100    0.4180    2.8310 C   0  0  0  0  0  0  0  0  0  0  0  0
    8.5530    0.0650    3.0800 O   0  0  0  0  0  0  0  0  0  0  0  0
    7.5940    0.2270    2.0650 C   0  0  0  0  0  0  0  0  0  0  0  0
    7.9300    0.6740    0.9630 O   0  0  0  0  0  0  0  0  0  0  0  0
    6.2200   -0.1380    2.3350 C   0  0  0  0  0  0  0  0  0  0  0  0
    5.8710   -0.5900    3.4430 O   0  0  0  0  0  0  0  0  0  0  0  0
    5.2490    0.0230    1.3170 N   0  0  0  0  0  0  0  0  0  0  0  0
    3.8780   -0.3260    1.5440 C   0  0  0  0  0  0  0  0  0  0  0  0
    3.0940   -0.0460    0.2880 C   0  0  0  0  0  0  0  0  0  0  0  0
    3.6940    0.4080   -0.6820 O   0  0  0  0  0  0  0  0  0  0  0  0
    1.7150   -0.2900    0.2050 N   0  0  0  0  0  0  0  0  0  0  0  0
    0.8530   -0.0790   -0.8900 C   0  0  0  0  0  0  0  0  0  0  0  0
    1.2340    0.4910   -2.0720 C   0  0  0  0  0  0  0  0  0  0  0  0
    0.3360    0.6710   -3.1320 C   0  0  0  0  0  0  0  0  0  0  0  0
   -0.9730    0.2550   -2.9620 C   0  0  0  0  0  0  0  0  0  0  0  0
   -1.8240    0.4170   -3.9890 N   0  0  0  0  0  0  0  0  0  0  0  0
   -3.0940    0.0280   -3.9080 C   0  0  0  0  0  0  0  0  0  0  0  0
   -4.1580    0.0480   -4.7330 N   0  0  0  0  0  0  0  0  0  0  0  0
   -5.2420   -0.4800   -4.1660 C   0  0  0  0  0  0  0  0  0  0  0  0
   -4.8840   -0.8740   -2.8920 C   0  0  0  0  0  0  0  0  0  0  0  0
   -3.5560   -0.5910   -2.6500 C   0  0  0  0  0  0  0  0  0  0  0  0
   -2.6970   -0.7620   -1.5920 C   0  0  0  0  0  0  0  0  0  0  0  0
   -3.1190   -1.3310   -0.4280 O   0  0  0  0  0  0  0  0  0  0  0  0
   -3.8210   -0.7330    0.6010 C   0  0  0  0  0  0  0  0  0  0  0  0
   -3.2060    0.1340    1.4700 C   0  0  0  0  0  0  0  0  0  0  0  0
   -3.9630    0.7060    2.4920 C   0  0  0  0  0  0  0  0  0  0  0  0
   -5.2990    0.4380    2.6660 C   0  0  0  0  0  0  0  0  0  0  0  0
   -6.0610    1.0380    3.7250 N   0  0  0  0  0  0  0  0  0  0  0  0
   -5.8670   -0.4370    1.7670 C   0  0  0  0  0  0  0  0  0  0  0  0
   -5.1610   -1.0220    0.7490 C   0  0  0  0  0  0  0  0  0  0  0  0
   -1.3790   -0.3250   -1.7700 C   0  0  0  0  0  0  0  0  0  0  0  0
   -0.4870   -0.4920   -0.7500 C   0  0  0  0  0  0  0  0  0  0  0  0
  1  2  1  0
  2  3  1  0
  3  4  2  0
  3  5  1  0
  5  6  2  0
  5  7  1  0
  7  8  1  0
  8  9  1  0
  9 10  2  0
  9 11  1  0
 11 12  1  0
 12 13  2  0
 12 32  1  0
 13 14  1  0
 14 15  2  0
 15 16  1  0
 15 31  1  0
 16 17  1  0
 17 18  2  0
 17 21  1  0
 18 19  1  0
 19 20  2  0
 20 21  1  0
 21 22  2  0
 22 23  1  0
 22 31  1  0
 23 24  1  0
 24 25  2  0
 24 30  1  0
 25 26  1  0
 26 27  2  0
 27 28  1  0
 27 29  1  0
 29 30  2  0
 31 32  2  0
M  CHG  1  18   1
M  END
