
     RDKit          3D

 32 35  0  0  0  0  0  0  0  0999 V2000
   -7.4840    0.5310   -1.9250 C   0  0  0  0  0  0  0  0  0  0  0  0
   -7.4240   -0.6820   -0.9950 C   0  0  0  0  0  0  0  0  0  0  0  0
   -6.3220   -1.3940   -1.0530 O   0  0  0  0  0  0  0  0  0  0  0  0
   -5.2350   -2.0690   -1.1020 C   0  0  0  0  0  0  0  0  0  0  0  0
   -4.0000   -1.5040   -0.7750 C   0  0  0  0  0  0  0  0  0  0  0  0
   -2.8280   -2.1720   -0.8180 C   0  0  0  0  0  0  0  0  0  0  0  0
   -1.5140   -1.8080   -0.5410 C   0  0  0  0  0  0  0  0  0  0  0  0
   -1.0830   -0.5440   -0.0910 N   0  0  0  0  0  0  0  0  0  0  0  0
    0.2590   -0.1680    0.1080 C   0  0  0  0  0  0  0  0  0  0  0  0
    1.1390   -1.0160   -0.1440 O   0  0  0  0  0  0  0  0  0  0  0  0
    0.7180    1.0910    0.5690 N   0  0  0  0  0  0  0  0  0  0  0  0
    2.1160    1.3740    0.7070 C   0  0  0  0  0  0  0  0  0  0  0  0
    3.0060    0.8610   -0.2330 C   0  0  0  0  0  0  0  0  0  0  0  0
    4.3780    1.0560   -0.1480 C   0  0  0  0  0  0  0  0  0  0  0  0
    5.2730    0.5310   -1.1070 N   0  0  0  0  0  0  0  0  0  0  0  0
    4.8160    1.7760    0.9050 N   0  0  0  0  0  0  0  0  0  0  0  0
    3.9670    2.2930    1.8470 C   0  0  0  0  0  0  0  0  0  0  0  0
    4.5610    3.0340    2.9530 C   0  0  0  0  0  0  0  0  0  0  0  0
    4.0600    3.1560    4.0850 O   0  0  0  0  0  0  0  0  0  0  0  0
    5.8620    3.6860    2.7040 C   0  0  0  0  0  0  0  0  0  0  0  0
    6.2640    4.2820    1.5050 C   0  0  0  0  0  0  0  0  0  0  0  0
    7.5580    4.7670    1.6530 C   0  0  0  0  0  0  0  0  0  0  0  0
    7.9360    4.4580    2.9520 C   0  0  0  0  0  0  0  0  0  0  0  0
    6.9030    3.8250    3.5230 N   0  0  0  0  0  0  0  0  0  0  0  0
    2.6030    2.1030    1.7650 C   0  0  0  0  0  0  0  0  0  0  0  0
   -0.7910   -2.9560   -0.7860 C   0  0  0  0  0  0  0  0  0  0  0  0
   -1.6090   -3.9100   -1.1720 O   0  0  0  0  0  0  0  0  0  0  0  0
   -2.8390   -3.5160   -1.2140 C   0  0  0  0  0  0  0  0  0  0  0  0
   -4.0320   -4.1330   -1.5490 C   0  0  0  0  0  0  0  0  0  0  0  0
   -3.9360   -5.5520   -1.9690 C   0  0  0  0  0  0  0  0  0  0  0  0
   -5.1750   -3.4290   -1.4910 C   0  0  0  0  0  0  0  0  0  0  0  0
   -6.3810   -4.0190   -1.8200 O   0  0  0  0  0  0  0  0  0  0  0  0
  1  2  1  0
  2  3  1  0
  3  4  1  0
  4  5  2  0
  4 31  1  0
  5  6  1  0
  6  7  1  0
  6 28  2  0
  7  8  1  0
  7 26  2  0
  8  9  1  0
  9 10  2  0
  9 11  1  0
 11 12  1  0
 12 13  2  0
 12 25  1  0
 13 14  1  0
 14 15  1  0
 14 16  2  0
 16 17  1  0
 17 18  1  0
 17 25  2  0
 18 19  2  0
 18 20  1  0
 20 21  2  0
 20 24  1  0
 21 22  1  0
 22 23  2  0
 23 24  1  0
 26 27  1  0
 27 28  1  0
 28 29  1  0
 29 30  1  0
 29 31  2  0
 31 32  1  0
M  CHG  1  16   1
M  END
