
     RDKit          3D

 33 36  0  0  0  0  0  0  0  0999 V2000
    9.8020   -0.2050   -0.5360 C   0  0  0  0  0  0  0  0  0  0  0  0
    9.0390    0.0770    0.7350 C   0  0  0  0  0  0  0  0  0  0  0  0
    7.5990    0.0570    0.4350 C   0  0  0  0  0  0  0  0  0  0  0  0
    6.9060   -1.0470    0.8100 N   0  0  0  0  0  0  0  0  0  0  0  0
    5.6020   -1.1490    0.5740 C   0  0  0  0  0  0  0  0  0  0  0  0
    4.7010   -2.5750    1.0580 Cl  0  0  0  0  0  0  0  0  0  0  0  0
    4.9410   -0.1210   -0.0590 C   0  0  0  0  0  0  0  0  0  0  0  0
    3.4920   -0.2510   -0.3130 C   0  0  0  0  0  0  0  0  0  0  0  0
    3.0920   -0.7740   -1.3980 O   0  0  0  0  0  0  0  0  0  0  0  0
    2.5340    0.1860    0.6080 N   0  0  0  0  0  0  0  0  0  0  0  0
    1.1630    0.0300    0.2990 C   0  0  0  0  0  0  0  0  0  0  0  0
    0.4660   -0.4260   -0.6400 N   0  0  0  0  0  0  0  0  0  0  0  0
   -0.8410   -0.4700   -0.7210 C   0  0  0  0  0  0  0  0  0  0  0  0
   -1.5010   -1.2420   -1.8330 C   0  0  0  0  0  0  0  0  0  0  0  0
   -2.6170   -1.9910   -1.8450 C   0  0  0  0  0  0  0  0  0  0  0  0
   -2.8130   -2.5250   -3.1210 C   0  0  0  0  0  0  0  0  0  0  0  0
   -1.7490   -2.0440   -3.8430 C   0  0  0  0  0  0  0  0  0  0  0  0
   -1.0140   -1.3070   -3.0620 O   0  0  0  0  0  0  0  0  0  0  0  0
   -1.5260    0.0730    0.3880 C   0  0  0  0  0  0  0  0  0  0  0  0
   -2.8860    0.2670    0.7540 C   0  0  0  0  0  0  0  0  0  0  0  0
   -3.0640    0.6310    1.9860 O   0  0  0  0  0  0  0  0  0  0  0  0
   -4.0790    0.1590    0.0550 N   0  0  0  0  0  0  0  0  0  0  0  0
   -5.3940    0.3840    0.6150 C   0  0  1  0  0  0  0  0  0  0  0  0
   -6.1310    1.5040   -0.0640 C   0  0  0  0  0  0  0  0  0  0  0  0
   -7.3260    1.8530    0.7630 C   0  0  0  0  0  0  0  0  0  0  0  0
   -8.2110    0.6740    1.0630 C   0  0  0  0  0  0  0  0  0  0  0  0
   -7.4370   -0.5370    1.5230 C   0  0  0  0  0  0  0  0  0  0  0  0
   -6.2690   -0.8300    0.5800 C   0  0  1  0  0  0  0  0  0  0  0  0
   -6.8260   -0.9600   -0.6910 O   0  0  0  0  0  0  0  0  0  0  0  0
   -0.1350    0.5720    1.4270 S   0  0  0  0  0  0  0  0  0  0  0  0
    5.6340    1.0000   -0.4420 C   0  0  0  0  0  0  0  0  0  0  0  0
    6.9870    1.1070   -0.1980 C   0  0  0  0  0  0  0  0  0  0  0  0
    7.7590    2.3250   -0.6050 C   0  0  0  0  0  0  0  0  0  0  0  0
  1  2  1  0
  2  3  1  0
  3  4  2  0
  3 32  1  0
  4  5  1  0
  5  6  1  0
  5  7  2  0
  7  8  1  0
  7 31  1  0
  8  9  2  0
  8 10  1  0
 10 11  1  0
 11 12  2  0
 11 30  1  0
 12 13  1  0
 13 14  1  0
 13 19  2  0
 14 15  2  0
 14 18  1  0
 15 16  1  0
 16 17  2  0
 17 18  1  0
 19 20  1  0
 19 30  1  0
 20 21  2  0
 20 22  1  0
 23 22  1  6
 23 24  1  0
 23 28  1  0
 24 25  1  0
 25 26  1  0
 26 27  1  0
 27 28  1  0
 28 29  1  6
 31 32  2  0
 32 33  1  0
M  END
