
     RDKit          3D

 32 34  0  0  0  0  0  0  0  0999 V2000
    4.3810   -2.7680   -3.4290 C   0  0  0  0  0  0  0  0  0  0  0  0
    3.3470   -1.9500   -2.9400 O   0  0  0  0  0  0  0  0  0  0  0  0
    3.2870   -1.4820   -1.6410 C   0  0  0  0  0  0  0  0  0  0  0  0
    4.2030   -1.7960   -0.8390 O   0  0  0  0  0  0  0  0  0  0  0  0
    2.1610   -0.6300   -1.2280 C   0  0  0  0  0  0  0  0  0  0  0  0
    2.0700   -0.1210    0.1350 C   0  0  0  0  0  0  0  0  0  0  0  0
    1.0970    0.5980    0.4520 O   0  0  0  0  0  0  0  0  0  0  0  0
    3.0790   -0.4200    1.1490 C   0  0  0  0  0  0  0  0  0  0  0  0
    4.1940    0.3690    1.3600 C   0  0  0  0  0  0  0  0  0  0  0  0
    4.5650    1.6270    0.6220 C   0  0  0  0  0  0  0  0  0  0  0  0
    4.8810   -0.2100    2.3540 N   0  0  0  0  0  0  0  0  0  0  0  0
    4.2520   -1.3250    2.7770 C   0  0  0  0  0  0  0  0  0  0  0  0
    4.6350   -2.2350    3.8070 N   0  0  0  0  0  0  0  0  0  0  0  0
    3.1060   -1.4800    2.0300 C   0  0  0  0  0  0  0  0  0  0  0  0
    2.0790   -2.5710    2.1330 C   0  0  0  0  0  0  0  0  0  0  0  0
    1.2380   -0.3380   -2.1130 C   0  0  0  0  0  0  0  0  0  0  0  0
    1.3530   -0.8540   -3.4430 N   0  0  0  0  0  0  0  0  0  0  0  0
    0.1520    0.4860   -1.7250 N   0  0  0  0  0  0  0  0  0  0  0  0
   -1.1440    0.0380   -1.5800 N   0  0  0  0  0  0  0  0  0  0  0  0
   -2.1850    0.9750   -1.9810 C   0  0  0  0  0  0  0  0  0  0  0  0
   -2.0530    1.5210   -3.1430 C   0  0  0  0  0  0  0  0  0  0  0  0
   -2.8600    2.4620   -3.8430 C   0  0  0  0  0  0  0  0  0  0  0  0
   -3.9160    2.9660   -3.4340 O   0  0  0  0  0  0  0  0  0  0  0  0
   -3.2640    1.2100   -1.0620 C   0  0  0  0  0  0  0  0  0  0  0  0
   -3.2230    0.5430    0.1070 C   0  0  0  0  0  0  0  0  0  0  0  0
   -4.2900    0.7440    1.0720 C   0  0  0  0  0  0  0  0  0  0  0  0
   -5.2920    1.5480    0.8540 C   0  0  0  0  0  0  0  0  0  0  0  0
   -6.2180    1.5590    1.9940 C   0  0  0  0  0  0  0  0  0  0  0  0
   -5.3820    1.0220    3.1310 C   0  0  0  0  0  0  0  0  0  0  0  0
   -4.4260    0.0960    2.4170 C   0  0  0  0  0  0  0  0  0  0  0  0
   -5.3720    2.2920   -0.4270 C   0  0  0  0  0  0  0  0  0  0  0  0
   -4.3200    2.0520   -1.2770 O   0  0  0  0  0  0  0  0  0  0  0  0
  1  2  1  0
  2  3  1  0
  3  4  2  0
  3  5  1  0
  5  6  1  0
  5 16  2  3
  6  7  2  0
  6  8  1  0
  8  9  2  0
  8 14  1  0
  9 10  1  0
  9 11  1  0
 11 12  1  0
 12 13  1  0
 12 14  2  0
 14 15  1  0
 16 17  1  0
 16 18  1  0
 18 19  1  0
 19 20  1  0
 20 21  2  3
 20 24  1  0
 21 22  1  0
 22 23  2  0
 24 25  2  0
 24 32  1  0
 25 26  1  0
 26 27  2  0
 26 30  1  0
 27 28  1  0
 27 31  1  0
 28 29  1  0
 29 30  1  0
 31 32  1  0
M  END
