
     RDKit          3D

 33 36  0  0  0  0  0  0  0  0999 V2000
    7.2330    3.0610   -2.4790 C   0  0  0  0  0  0  0  0  0  0  0  0
    6.0280    3.8910   -2.8200 C   0  0  0  0  0  0  0  0  0  0  0  0
    4.8160    3.2280   -2.7780 O   0  0  0  0  0  0  0  0  0  0  0  0
    4.3150    2.6510   -1.6180 C   0  0  0  0  0  0  0  0  0  0  0  0
    4.9850    2.7090   -0.4220 C   0  0  0  0  0  0  0  0  0  0  0  0
    4.4590    2.1280    0.6860 C   0  0  0  0  0  0  0  0  0  0  0  0
    3.2110    1.4340    0.7010 C   0  0  0  0  0  0  0  0  0  0  0  0
    2.8010    0.9080    1.8250 O   0  0  0  0  0  0  0  0  0  0  0  0
    1.9770    0.1810    2.4950 C   0  0  1  0  0  0  0  0  0  0  0  0
    2.5730   -0.5850    3.7000 C   0  0  0  0  0  0  0  0  0  0  0  0
    1.3090   -1.2700    4.2060 C   0  0  0  0  0  0  0  0  0  0  0  0
    0.1890   -0.2570    3.9330 C   0  0  0  0  0  0  0  0  0  0  0  0
    0.8760    0.9320    3.2810 C   0  0  0  0  0  0  0  0  0  0  0  0
    2.5510    1.3970   -0.5380 C   0  0  0  0  0  0  0  0  0  0  0  0
    1.2660    0.8040   -0.5490 N   0  0  0  0  0  0  0  0  0  0  0  0
    0.4960    0.4450   -1.6680 C   0  0  0  0  0  0  0  0  0  0  0  0
    0.9490    0.6440   -2.8230 O   0  0  0  0  0  0  0  0  0  0  0  0
   -0.8290   -0.1590   -1.5070 C   0  0  0  0  0  0  0  0  0  0  0  0
   -1.2650   -0.3510   -0.3530 O   0  0  0  0  0  0  0  0  0  0  0  0
   -1.6370   -0.5340   -2.5980 N   0  0  0  0  0  0  0  0  0  0  0  0
   -2.9280   -1.1230   -2.3960 C   0  0  0  0  0  0  0  0  0  0  0  0
   -3.6350   -1.4410   -1.5580 N   0  0  0  0  0  0  0  0  0  0  0  0
   -4.8300   -1.9880   -1.6090 C   0  0  0  0  0  0  0  0  0  0  0  0
   -5.6170   -2.3410   -0.4100 C   0  0  0  0  0  0  0  0  0  0  0  0
   -5.1540   -2.1200    0.8200 C   0  0  0  0  0  0  0  0  0  0  0  0
   -5.8980   -2.4540    1.9620 N   0  0  0  0  0  0  0  0  0  0  0  0
   -7.0540   -2.9850    1.9080 C   0  0  0  0  0  0  0  0  0  0  0  0
   -7.9310   -3.3780    3.3700 Cl  0  0  0  0  0  0  0  0  0  0  0  0
   -7.6890   -3.2910    0.6200 C   0  0  0  0  0  0  0  0  0  0  0  0
   -6.9390   -2.9450   -0.6010 C   0  0  0  0  0  0  0  0  0  0  0  0
   -5.2910   -2.2070   -2.8810 C   0  0  0  0  0  0  0  0  0  0  0  0
   -3.9260   -1.5890   -3.9270 S   0  0  0  0  0  0  0  0  0  0  0  0
    3.1090    1.9910   -1.6370 C   0  0  0  0  0  0  0  0  0  0  0  0
  1  2  1  0
  2  3  1  0
  3  4  1  0
  4  5  2  0
  4 33  1  0
  5  6  1  0
  6  7  2  0
  7  8  1  0
  7 14  1  0
  9  8  1  1
  9 10  1  0
  9 13  1  0
 10 11  1  0
 11 12  1  0
 12 13  1  0
 14 15  1  0
 14 33  2  0
 15 16  1  0
 16 17  2  0
 16 18  1  0
 18 19  2  0
 18 20  1  0
 20 21  1  0
 21 22  2  0
 21 32  1  0
 22 23  1  0
 23 24  1  0
 23 31  2  0
 24 25  2  0
 24 30  1  0
 25 26  1  0
 26 27  2  0
 27 28  1  0
 27 29  1  0
 29 30  1  0
 31 32  1  0
M  END
