
     RDKit          3D

 32 35  0  0  0  0  0  0  0  0999 V2000
    7.1700    4.2290    0.9110 C   0  0  0  0  0  0  0  0  0  0  0  0
    7.3630    2.8270    0.8550 O   0  0  0  0  0  0  0  0  0  0  0  0
    6.3060    1.9450    0.5870 C   0  0  0  0  0  0  0  0  0  0  0  0
    5.1980    2.4750    0.4020 O   0  0  0  0  0  0  0  0  0  0  0  0
    6.4940    0.5470    0.5330 N   0  0  0  0  0  0  0  0  0  0  0  0
    5.5060   -0.4050    0.2750 C   0  0  0  0  0  0  0  0  0  0  0  0
    4.2110   -0.1160    0.0230 C   0  0  0  0  0  0  0  0  0  0  0  0
    3.2370   -1.1020   -0.2270 C   0  0  0  0  0  0  0  0  0  0  0  0
    1.9170   -0.6680   -0.5030 N   0  0  0  0  0  0  0  0  0  0  0  0
    0.7330   -1.4400   -0.4100 C   0  0  0  0  0  0  0  0  0  0  0  0
    0.8270   -2.6330   -0.0390 O   0  0  0  0  0  0  0  0  0  0  0  0
   -0.5820   -0.8540   -0.7430 C   0  0  0  0  0  0  0  0  0  0  0  0
   -0.7980    0.2140   -1.5780 C   0  0  0  0  0  0  0  0  0  0  0  0
   -2.1300    0.4440   -1.6080 N   0  0  0  0  0  0  0  0  0  0  0  0
   -2.7970   -0.4230   -0.8310 C   0  0  0  0  0  0  0  0  0  0  0  0
   -4.2220   -0.5540   -0.5490 C   0  0  0  0  0  0  0  0  0  0  0  0
   -5.0290    0.4870   -0.4020 C   0  0  0  0  0  0  0  0  0  0  0  0
   -5.1280    1.9420   -0.3990 C   0  0  0  0  0  0  0  0  0  0  0  0
   -4.1850    2.7360   -0.5900 O   0  0  0  0  0  0  0  0  0  0  0  0
   -6.5060    2.2480   -0.1350 N   0  0  0  0  0  0  0  0  0  0  0  0
   -7.2050    1.0130    0.0140 C   0  0  0  0  0  0  0  0  0  0  0  0
   -8.6750    0.8520    0.2980 C   0  0  0  0  0  0  0  0  0  0  0  0
   -9.0310    1.4800    1.5540 N   0  0  0  0  0  0  0  0  0  0  0  0
   -6.3740   -0.0030   -0.1350 C   0  0  0  0  0  0  0  0  0  0  0  0
   -6.2840   -1.4580   -0.1400 C   0  0  0  0  0  0  0  0  0  0  0  0
   -5.0230   -1.7560   -0.3820 C   0  0  0  0  0  0  0  0  0  0  0  0
   -1.8090   -1.2480   -0.2810 C   0  0  0  0  0  0  0  0  0  0  0  0
    3.6370   -2.3970   -0.2120 C   0  0  0  0  0  0  0  0  0  0  0  0
    4.9560   -2.7490    0.0420 C   0  0  0  0  0  0  0  0  0  0  0  0
    5.8620   -1.7440    0.2800 C   0  0  0  0  0  0  0  0  0  0  0  0
    7.1990   -2.0470    0.5390 O   0  0  0  0  0  0  0  0  0  0  0  0
    7.7160   -3.3420    0.5780 C   0  0  0  0  0  0  0  0  0  0  0  0
  1  2  1  0
  2  3  1  0
  3  4  2  0
  3  5  1  0
  5  6  1  0
  6  7  2  0
  6 30  1  0
  7  8  1  0
  8  9  1  0
  8 28  2  0
  9 10  1  0
 10 11  2  0
 10 12  1  0
 12 13  2  0
 12 27  1  0
 13 14  1  0
 14 15  1  0
 15 16  1  0
 15 27  2  0
 16 17  2  0
 16 26  1  0
 17 18  1  0
 17 24  1  0
 18 19  2  0
 18 20  1  0
 20 21  1  0
 21 22  1  0
 21 24  2  0
 22 23  1  0
 24 25  1  0
 25 26  2  0
 28 29  1  0
 29 30  2  0
 30 31  1  0
 31 32  1  0
M  CHG  1  23   1
M  END
