
     RDKit          3D

 33 35  0  0  0  0  0  0  0  0999 V2000
   -6.7290    4.3110   -0.0260 C   0  0  0  0  0  0  0  0  0  0  0  0
   -5.7970    3.7070   -0.7390 C   0  0  0  0  0  0  0  0  0  0  0  0
   -6.0110    2.2990   -1.1720 C   0  0  0  0  0  0  0  0  0  0  0  0
   -4.9370    1.4130   -0.6270 C   0  0  0  0  0  0  0  0  0  0  0  0
   -5.0760    0.7940    0.5860 C   0  0  0  0  0  0  0  0  0  0  0  0
   -4.0750   -0.0180    1.0690 C   0  0  0  0  0  0  0  0  0  0  0  0
   -2.8980   -0.2510    0.3730 C   0  0  0  0  0  0  0  0  0  0  0  0
   -1.8520   -1.0790    0.8600 N   0  0  0  0  0  0  0  0  0  0  0  0
   -1.0270   -0.6600    1.8360 N   0  0  0  0  0  0  0  0  0  0  0  0
   -0.1310   -1.6040    2.1180 C   0  0  0  0  0  0  0  0  0  0  0  0
    0.9800   -1.5770    3.1340 C   0  0  0  0  0  0  0  0  0  0  0  0
    2.2460   -1.0180    2.5130 C   0  0  1  0  0  0  0  0  0  0  0  0
    1.9340    0.2630    2.0940 O   0  0  0  0  0  0  0  0  0  0  0  0
    3.2380   -0.9260    3.6760 C   0  0  0  0  0  0  0  0  0  0  0  0
    3.5380   -2.2030    4.0800 O   0  0  0  0  0  0  0  0  0  0  0  0
    2.7570   -1.8650    1.4080 C   0  0  0  0  0  0  0  0  0  0  0  0
    3.9590   -1.4230    0.7560 N   0  0  0  0  0  0  0  0  0  0  0  0
    4.1200   -0.2070    0.0420 C   0  0  0  0  0  0  0  0  0  0  0  0
    3.1750    0.6030   -0.0870 O   0  0  0  0  0  0  0  0  0  0  0  0
    5.3550    0.1700   -0.5690 N   0  0  0  0  0  0  0  0  0  0  0  0
    5.5150    1.4110   -1.2960 C   0  0  0  0  0  0  0  0  0  0  0  0
    4.9100    1.3780   -2.6290 C   0  0  0  0  0  0  0  0  0  0  0  0
    4.8800    2.4170   -3.5280 C   0  0  0  0  0  0  0  0  0  0  0  0
    4.2210    1.9680   -4.6530 C   0  0  0  0  0  0  0  0  0  0  0  0
    3.8690    0.7000   -4.4270 N   0  0  0  0  0  0  0  0  0  0  0  0
    4.2850    0.3440   -3.2060 N   0  0  0  0  0  0  0  0  0  0  0  0
   -0.4150   -2.6550    1.2770 C   0  0  0  0  0  0  0  0  0  0  0  0
   -1.5130   -2.3190    0.4750 C   0  0  0  0  0  0  0  0  0  0  0  0
   -2.1150   -3.1690   -0.5410 C   0  0  0  0  0  0  0  0  0  0  0  0
   -3.2750   -2.7790   -1.3650 C   0  0  0  0  0  0  0  0  0  0  0  0
   -1.6320   -4.3110   -0.7420 O   0  0  0  0  0  0  0  0  0  0  0  0
   -2.7700    0.3860   -0.8610 C   0  0  0  0  0  0  0  0  0  0  0  0
   -3.7730    1.2000   -1.3460 C   0  0  0  0  0  0  0  0  0  0  0  0
  1  2  2  0
  2  3  1  0
  3  4  1  0
  4  5  2  0
  4 33  1  0
  5  6  1  0
  6  7  2  0
  7  8  1  0
  7 32  1  0
  8  9  1  0
  8 28  1  0
  9 10  2  0
 10 11  1  0
 10 27  1  0
 11 12  1  0
 12 13  1  6
 12 14  1  0
 12 16  1  0
 14 15  1  0
 16 17  1  0
 17 18  1  0
 18 19  2  0
 18 20  1  0
 20 21  1  0
 21 22  1  0
 22 23  1  0
 22 26  2  0
 23 24  2  0
 24 25  1  0
 25 26  1  0
 27 28  2  0
 28 29  1  0
 29 30  1  0
 29 31  2  0
 32 33  2  0
M  END
