
     RDKit          3D

 33 35  0  0  0  0  0  0  0  0999 V2000
    7.5990   -1.2900   -0.9170 C   0  0  0  0  0  0  0  0  0  0  0  0
    6.4000   -0.8610   -0.0750 C   0  0  0  0  0  0  0  0  0  0  0  0
    6.3930    0.6460   -0.0400 C   0  0  2  0  0  0  0  0  0  0  0  0
    7.7210    1.0820    0.5960 C   0  0  0  0  0  0  0  0  0  0  0  0
    5.3140    1.2170    0.8410 C   0  0  0  0  0  0  0  0  0  0  0  0
    3.9300    0.8070    0.3910 C   0  0  0  0  0  0  0  0  0  0  0  0
    2.8820    1.3790    1.2670 C   0  0  0  0  0  0  0  0  0  0  0  0
    3.2250    2.0980    2.2290 O   0  0  0  0  0  0  0  0  0  0  0  0
    1.4580    1.1390    1.0540 C   0  0  0  0  0  0  0  0  0  0  0  0
    1.0820    0.3480   -0.0050 C   0  0  0  0  0  0  0  0  0  0  0  0
   -0.2930    0.0940   -0.2410 C   0  0  0  0  0  0  0  0  0  0  0  0
   -0.6250   -0.7560   -1.2930 N   0  0  0  0  0  0  0  0  0  0  0  0
    0.1280   -0.8880   -2.5570 C   0  0  0  0  0  0  0  0  0  0  0  0
    0.2720   -2.3760   -2.7320 C   0  0  0  0  0  0  0  0  0  0  0  0
   -0.9800   -2.9220   -2.1210 C   0  0  0  0  0  0  0  0  0  0  0  0
   -1.6680   -1.7370   -1.4310 C   0  0  0  0  0  0  0  0  0  0  0  0
   -1.1480    0.6860    0.6440 C   0  0  0  0  0  0  0  0  0  0  0  0
   -2.5720    0.5210    0.4550 N   0  0  0  0  0  0  0  0  0  0  0  0
   -3.4880    1.0980    1.3570 C   0  0  0  0  0  0  0  0  0  0  0  0
   -3.0640    1.7500    2.3460 O   0  0  0  0  0  0  0  0  0  0  0  0
   -4.9240    0.9590    1.1760 C   0  0  0  0  0  0  0  0  0  0  0  0
   -5.4910    0.3110    0.1960 C   0  0  0  0  0  0  0  0  0  0  0  0
   -6.9150    0.1670    0.0070 C   0  0  0  0  0  0  0  0  0  0  0  0
   -7.3550   -0.5710   -1.1100 C   0  0  0  0  0  0  0  0  0  0  0  0
   -8.6560   -0.7530   -1.3590 N   0  0  0  0  0  0  0  0  0  0  0  0
   -9.6130   -0.2480   -0.5690 C   0  0  0  0  0  0  0  0  0  0  0  0
  -10.8420   -0.4500   -0.8490 O   0  0  0  0  0  0  0  0  0  0  0  0
   -9.2400    0.4550    0.4960 N   0  0  0  0  0  0  0  0  0  0  0  0
   -7.9190    0.6660    0.7890 C   0  0  0  0  0  0  0  0  0  0  0  0
   -7.6360    1.3400    1.8120 O   0  0  0  0  0  0  0  0  0  0  0  0
   -0.7350    1.4690    1.6900 N   0  0  0  0  0  0  0  0  0  0  0  0
    0.5540    1.7110    1.9180 C   0  0  0  0  0  0  0  0  0  0  0  0
    0.9890    2.5370    3.0200 N   0  0  0  0  0  0  0  0  0  0  0  0
  1  2  1  0
  2  3  1  0
  3  4  1  1
  3  5  1  0
  5  6  1  0
  6  7  1  0
  7  8  2  0
  7  9  1  0
  9 10  2  0
  9 32  1  0
 10 11  1  0
 11 12  1  0
 11 17  2  0
 12 13  1  0
 12 16  1  0
 13 14  1  0
 14 15  1  0
 15 16  1  0
 17 18  1  0
 17 31  1  0
 18 19  1  0
 19 20  2  0
 19 21  1  0
 21 22  2  3
 22 23  1  0
 23 24  2  0
 23 29  1  0
 24 25  1  0
 25 26  1  0
 26 27  2  0
 26 28  1  0
 28 29  1  0
 29 30  2  0
 31 32  2  0
 32 33  1  0
M  END
