
     RDKit          3D

 32 36  0  0  0  0  0  0  0  0999 V2000
    8.4290    1.4280   -0.1410 C   0  0  0  0  0  0  0  0  0  0  0  0
    8.0170    0.0500   -0.6300 C   0  0  0  0  0  0  0  0  0  0  0  0
    6.6390   -0.2470   -0.1160 C   0  0  0  0  0  0  0  0  0  0  0  0
    6.4980   -0.8770    1.1120 C   0  0  0  0  0  0  0  0  0  0  0  0
    5.2440   -1.1500    1.5840 C   0  0  0  0  0  0  0  0  0  0  0  0
    4.1250   -0.8100    0.8660 C   0  0  0  0  0  0  0  0  0  0  0  0
    4.2240   -0.1800   -0.3630 C   0  0  0  0  0  0  0  0  0  0  0  0
    3.1240    0.1960   -1.1520 N   0  0  0  0  0  0  0  0  0  0  0  0
    2.0040   -0.7070   -1.0680 C   0  0  0  0  0  0  0  0  0  0  0  0
    0.9350   -0.0550   -0.2570 C   0  0  2  0  0  0  0  0  0  0  0  0
   -0.3010   -0.9580   -0.1200 C   0  0  0  0  0  0  0  0  0  0  0  0
   -1.2800    0.1200    0.3280 N   0  0  2  0  0  0  0  0  0  0  0  0
   -2.5600   -0.4070    0.3630 C   0  0  1  0  0  0  0  0  0  0  0  0
   -2.8210   -1.6450    1.1930 C   0  0  0  0  0  0  0  0  0  0  0  0
   -3.6600   -2.5990    0.3600 C   0  0  2  0  0  0  0  0  0  0  0  0
   -2.7350   -3.5660   -0.3470 C   0  0  0  0  0  0  0  0  0  0  0  0
   -4.4960   -1.9270   -0.7020 C   0  0  0  0  0  0  0  0  0  0  0  0
   -4.8410   -0.5240   -0.3140 C   0  0  0  0  0  0  0  0  0  0  0  0
   -6.0550   -0.0410   -0.4820 N   0  0  0  0  0  0  0  0  0  0  0  0
   -6.4110    1.1960   -0.1100 C   0  0  0  0  0  0  0  0  0  0  0  0
   -7.5660    1.6720   -0.2640 O   0  0  0  0  0  0  0  0  0  0  0  0
   -5.4520    1.9910    0.4760 C   0  0  0  0  0  0  0  0  0  0  0  0
   -5.7720    3.2760    0.9000 C   0  0  0  0  0  0  0  0  0  0  0  0
   -4.8420    4.0820    1.5050 C   0  0  0  0  0  0  0  0  0  0  0  0
   -3.5640    3.6130    1.7000 C   0  0  0  0  0  0  0  0  0  0  0  0
   -3.2140    2.3560    1.2960 C   0  0  0  0  0  0  0  0  0  0  0  0
   -4.1630    1.5510    0.6830 C   0  0  0  0  0  0  0  0  0  0  0  0
   -3.8300    0.2790    0.2870 C   0  0  0  0  0  0  0  0  0  0  0  0
   -1.1030    0.9390   -0.8300 C   0  0  0  0  0  0  0  0  0  0  0  0
   -1.9720    1.4500   -1.5590 O   0  0  0  0  0  0  0  0  0  0  0  0
    0.3010    1.0570   -0.9890 N   0  0  0  0  0  0  0  0  0  0  0  0
    5.5100    0.0900   -0.8290 C   0  0  0  0  0  0  0  0  0  0  0  0
  1  2  1  0
  2  3  1  0
  3  4  2  0
  3 32  1  0
  4  5  1  0
  5  6  2  0
  6  7  1  0
  7  8  1  0
  7 32  2  0
  8  9  1  0
 10  9  1  6
 10 11  1  0
 10 31  1  0
 12 11  1  6
 12 13  1  0
 12 29  1  0
 13 14  1  1
 13 28  1  0
 14 15  1  0
 15 16  1  6
 15 17  1  0
 17 18  1  0
 18 19  1  0
 18 28  2  0
 19 20  1  0
 20 21  2  0
 20 22  1  0
 22 23  2  0
 22 27  1  0
 23 24  1  0
 24 25  2  0
 25 26  1  0
 26 27  2  0
 27 28  1  0
 29 30  2  0
 29 31  1  0
M  CHG  2   8   1  12   1
M  END
