
     RDKit          3D

 33 35  0  0  0  0  0  0  0  0999 V2000
   -6.6250    2.4140    0.0670 C   0  0  0  0  0  0  0  0  0  0  0  0
   -6.8610    1.4970    1.1510 N   0  0  0  0  0  0  0  0  0  0  0  0
   -5.9840    0.4240    1.4010 C   0  0  0  0  0  0  0  0  0  0  0  0
   -6.1650   -0.4800    2.4250 C   0  0  0  0  0  0  0  0  0  0  0  0
   -5.2360   -1.5030    2.5750 C   0  0  0  0  0  0  0  0  0  0  0  0
   -4.1850   -1.6510    1.7800 N   0  0  0  0  0  0  0  0  0  0  0  0
   -3.9770   -0.7760    0.7580 C   0  0  0  0  0  0  0  0  0  0  0  0
   -2.7960   -0.9900   -0.0990 C   0  0  2  0  0  0  0  0  0  0  0  0
   -3.1380   -2.0790   -1.0970 C   0  0  0  0  0  0  0  0  0  0  0  0
   -4.2960   -1.5980   -1.8960 C   0  0  0  0  0  0  0  0  0  0  0  0
   -5.5060   -2.1320   -2.0200 C   0  0  0  0  0  0  0  0  0  0  0  0
   -6.3650   -1.3320   -2.9170 C   0  0  0  0  0  0  0  0  0  0  0  0
   -5.4570   -0.2320   -3.3090 C   0  0  0  0  0  0  0  0  0  0  0  0
   -4.2880   -0.3870   -2.7290 C   0  0  0  0  0  0  0  0  0  0  0  0
   -1.5830   -1.2620    0.6160 N   0  0  0  0  0  0  0  0  0  0  0  0
   -0.3970   -0.5190    0.4020 C   0  0  0  0  0  0  0  0  0  0  0  0
   -0.4560    0.4030   -0.4560 O   0  0  0  0  0  0  0  0  0  0  0  0
    0.8710   -0.7910    1.1350 C   0  0  0  0  0  0  0  0  0  0  0  0
    1.9770    0.0440    0.6530 C   0  0  0  0  0  0  0  0  0  0  0  0
    1.7300    0.8660   -0.2910 O   0  0  0  0  0  0  0  0  0  0  0  0
    3.2920   -0.0250    1.1830 N   0  0  0  0  0  0  0  0  0  0  0  0
    4.2620    0.8210    0.6310 N   0  0  0  0  0  0  0  0  0  0  0  0
    5.6560    0.5280    0.7350 C   0  0  0  0  0  0  0  0  0  0  0  0
    5.9430   -0.5180    1.3480 O   0  0  0  0  0  0  0  0  0  0  0  0
    6.6580    1.3480    0.1910 N   0  0  0  0  0  0  0  0  0  0  0  0
    8.0560    1.1350    0.2470 C   0  0  0  0  0  0  0  0  0  0  0  0
    8.6780    0.0920    0.8700 C   0  0  0  0  0  0  0  0  0  0  0  0
   10.0760   -0.0450    0.8800 C   0  0  0  0  0  0  0  0  0  0  0  0
   10.8950    0.8710    0.2600 C   0  0  0  0  0  0  0  0  0  0  0  0
   10.2780    1.9220   -0.3680 C   0  0  0  0  0  0  0  0  0  0  0  0
    8.9110    2.0560   -0.3780 C   0  0  0  0  0  0  0  0  0  0  0  0
    8.2930    3.1330   -1.0230 O   0  0  0  0  0  0  0  0  0  0  0  0
   -4.8880    0.2490    0.5910 C   0  0  0  0  0  0  0  0  0  0  0  0
  1  2  1  0
  2  3  1  0
  3  4  2  0
  3 33  1  0
  4  5  1  0
  5  6  2  0
  6  7  1  0
  7  8  1  0
  7 33  2  0
  8  9  1  6
  8 15  1  0
  9 10  1  0
 10 11  2  0
 10 14  1  0
 11 12  1  0
 12 13  1  0
 13 14  2  0
 15 16  1  0
 16 17  2  0
 16 18  1  0
 18 19  1  0
 19 20  2  0
 19 21  1  0
 21 22  1  0
 22 23  1  0
 23 24  2  0
 23 25  1  0
 25 26  1  0
 26 27  2  0
 26 31  1  0
 27 28  1  0
 28 29  2  0
 29 30  1  0
 30 31  2  0
 31 32  1  0
M  END
