
     RDKit          3D

 33 37  0  0  0  0  0  0  0  0999 V2000
   -2.5510    1.0720    1.6980 O   0  0  0  0  0  0  0  0  0  0  0  0
   -3.3840    0.7200    0.8470 C   0  0  0  0  0  0  0  0  0  0  0  0
   -4.4400    1.7530    0.5520 C   0  0  0  0  0  0  0  0  0  0  0  0
   -5.3900    1.3460   -0.4210 N   0  0  0  0  0  0  0  0  0  0  0  0
   -6.4100    0.4360    0.0630 C   0  0  1  0  0  0  0  0  0  0  0  0
   -7.6540    1.1820    0.5000 C   0  0  0  0  0  0  0  0  0  0  0  0
   -8.4440    1.4960   -0.7390 C   0  0  0  0  0  0  0  0  0  0  0  0
   -7.8640    0.6290   -1.8320 C   0  0  0  0  0  0  0  0  0  0  0  0
   -6.9270   -0.3380   -1.1300 C   0  0  0  0  0  0  0  0  0  0  0  0
   -3.3220   -0.5270    0.2380 N   0  0  0  0  0  0  0  0  0  0  0  0
   -2.4050   -1.5690    0.3880 C   0  0  0  0  0  0  0  0  0  0  0  0
   -1.0120   -1.4410   -0.0500 C   0  0  0  0  0  0  0  0  0  0  0  0
   -0.1120   -0.4930    0.5880 C   0  0  1  0  0  0  0  0  0  0  0  0
    0.1130   -0.7140    2.0790 C   0  0  0  0  0  0  0  0  0  0  0  0
    0.5660   -2.1230    2.2660 C   0  0  0  0  0  0  0  0  0  0  0  0
    1.6810   -2.5230    1.3680 C   0  0  0  0  0  0  0  0  0  0  0  0
    2.0330   -1.6320    0.2830 C   0  0  2  0  0  0  0  0  0  0  0  0
    3.4130   -1.1110    0.3420 C   0  0  0  0  0  0  0  0  0  0  0  0
    4.2830   -1.2650    1.4480 C   0  0  0  0  0  0  0  0  0  0  0  0
    5.4680   -0.8820    1.6480 N   0  0  0  0  0  0  0  0  0  0  0  0
    6.3730   -0.1780    0.8930 C   0  0  0  0  0  0  0  0  0  0  0  0
    7.2400   -0.8870    0.0490 C   0  0  0  0  0  0  0  0  0  0  0  0
    8.1770   -0.2260   -0.7140 C   0  0  0  0  0  0  0  0  0  0  0  0
    8.3030    1.1450   -0.6810 C   0  0  0  0  0  0  0  0  0  0  0  0
    7.4590    1.8580    0.1430 C   0  0  0  0  0  0  0  0  0  0  0  0
    6.5100    1.2160    0.9170 C   0  0  0  0  0  0  0  0  0  0  0  0
    7.7940    3.2020   -0.0130 O   0  0  0  0  0  0  0  0  0  0  0  0
    8.7240    3.3630   -1.0470 C   0  0  0  0  0  0  0  0  0  0  0  0
    9.1410    2.0500   -1.3300 O   0  0  0  0  0  0  0  0  0  0  0  0
    3.7550   -0.4580   -0.7560 C   0  0  0  0  0  0  0  0  0  0  0  0
    2.7330   -0.3370   -1.8700 C   0  0  0  0  0  0  0  0  0  0  0  0
    1.3340   -0.1140   -1.3430 C   0  0  0  0  0  0  0  0  0  0  0  0
    1.2280   -0.4630    0.0430 N   0  0  1  0  0  0  0  0  0  0  0  0
  1  2  2  0
  2  3  1  0
  2 10  1  0
  3  4  1  0
  5  4  1  6
  5  6  1  0
  5  9  1  0
  6  7  1  0
  7  8  1  0
  8  9  1  0
 10 11  1  0
 11 12  1  0
 13 12  1  6
 13 14  1  0
 13 33  1  0
 14 15  1  0
 15 16  1  0
 17 16  1  1
 17 18  1  0
 17 33  1  0
 18 19  1  0
 18 30  2  0
 19 20  2  3
 20 21  1  0
 21 22  2  0
 21 26  1  0
 22 23  1  0
 23 24  2  0
 24 25  1  0
 24 29  1  0
 25 26  2  0
 25 27  1  0
 27 28  1  0
 28 29  1  0
 30 31  1  0
 31 32  1  0
 33 32  1  6
M  CHG  2   4   1  33   1
M  END
