
     RDKit          3D

 33 35  0  0  0  0  0  0  0  0999 V2000
    7.3450   -2.2300   -1.9330 C   0  0  0  0  0  0  0  0  0  0  0  0
    7.1610   -0.8820   -1.4600 N   0  0  0  0  0  0  0  0  0  0  0  0
    8.3140   -0.0630   -1.1370 C   0  0  0  0  0  0  0  0  0  0  0  0
    8.7090   -0.2390    0.3180 C   0  0  0  0  0  0  0  0  0  0  0  0
    9.8830    0.5980    0.6360 C   0  0  0  0  0  0  0  0  0  0  0  0
   10.4170    0.5770    1.9420 N   0  0  0  0  0  0  0  0  0  0  0  0
   10.3860    1.3140   -0.2560 O   0  0  0  0  0  0  0  0  0  0  0  0
    5.8600   -0.3410   -1.3000 C   0  0  0  0  0  0  0  0  0  0  0  0
    5.6980    0.8410   -0.8900 O   0  0  0  0  0  0  0  0  0  0  0  0
    4.7320   -1.1320   -1.6030 N   0  0  0  0  0  0  0  0  0  0  0  0
    3.4300   -0.5970   -1.4450 C   0  0  0  0  0  0  0  0  0  0  0  0
    2.6030   -1.1760   -0.6040 C   0  0  0  0  0  0  0  0  0  0  0  0
    1.3010   -0.6370   -0.4500 N   0  0  0  0  0  0  0  0  0  0  0  0
    0.8000   -0.1380    0.7730 C   0  0  0  0  0  0  0  0  0  0  0  0
    1.5840   -0.1890    1.7610 O   0  0  0  0  0  0  0  0  0  0  0  0
   -0.5360    0.4200    0.9600 C   0  0  0  0  0  0  0  0  0  0  0  0
   -1.5260    0.3340    0.0090 C   0  0  0  0  0  0  0  0  0  0  0  0
   -2.8070    0.8710    0.1890 C   0  0  0  0  0  0  0  0  0  0  0  0
   -3.8390    0.7110   -0.8760 C   0  0  0  0  0  0  0  0  0  0  0  0
   -4.7880   -0.4180   -0.5440 C   0  0  0  0  0  0  0  0  0  0  0  0
   -5.8460   -0.6020   -1.5850 C   0  0  0  0  0  0  0  0  0  0  0  0
   -6.6840   -1.7210   -1.1310 N   0  0  0  0  0  0  0  0  0  0  0  0
   -7.7490   -2.0060   -2.0410 C   0  0  2  0  0  0  0  0  0  0  0  0
   -8.7840   -0.9630   -2.2890 C   0  0  0  0  0  0  0  0  0  0  0  0
   -9.1100   -2.1740   -1.4700 C   0  0  0  0  0  0  0  0  0  0  0  0
   -3.1080    1.5230    1.3730 C   0  0  0  0  0  0  0  0  0  0  0  0
   -2.1180    1.6120    2.3310 C   0  0  0  0  0  0  0  0  0  0  0  0
   -0.8520    1.0710    2.1340 C   0  0  0  0  0  0  0  0  0  0  0  0
   -2.3510    2.2980    3.6410 C   0  0  0  0  0  0  0  0  0  0  0  0
   -3.8200    2.3230    3.9740 C   0  0  0  0  0  0  0  0  0  0  0  0
   -4.6310    2.7570    2.8130 C   0  0  0  0  0  0  0  0  0  0  0  0
   -5.4970    3.6700    2.8670 O   0  0  0  0  0  0  0  0  0  0  0  0
   -4.4010    2.0880    1.5680 N   0  0  0  0  0  0  0  0  0  0  0  0
  1  2  1  0
  2  3  1  0
  2  8  1  0
  3  4  1  0
  4  5  1  0
  5  6  1  0
  5  7  2  0
  8  9  2  0
  8 10  1  0
 10 11  1  0
 11 12  2  3
 12 13  1  0
 13 14  1  0
 14 15  2  0
 14 16  1  0
 16 17  2  0
 16 28  1  0
 17 18  1  0
 18 19  1  0
 18 26  2  0
 19 20  1  0
 20 21  1  0
 21 22  1  0
 23 22  1  1
 23 24  1  0
 23 25  1  0
 24 25  1  0
 26 27  1  0
 26 33  1  0
 27 28  2  0
 27 29  1  0
 29 30  1  0
 30 31  1  0
 31 32  2  0
 31 33  1  0
M  END
