
     RDKit          3D

 33 37  0  0  0  0  0  0  0  0999 V2000
    4.8950   -2.8060    1.8030 C   0  0  0  0  0  0  0  0  0  0  0  0
    4.2080   -1.6030    1.2080 C   0  0  0  0  0  0  0  0  0  0  0  0
    3.0450   -1.1160    1.7500 C   0  0  0  0  0  0  0  0  0  0  0  0
    2.3960   -0.0270    1.2350 C   0  0  0  0  0  0  0  0  0  0  0  0
    1.1580    0.4450    1.8280 C   0  0  0  0  0  0  0  0  0  0  0  0
   -0.0570    0.0760    1.1560 N   0  0  0  0  0  0  0  0  0  0  0  0
   -0.7240    0.7830    0.2300 C   0  0  0  0  0  0  0  0  0  0  0  0
   -0.4750    2.0590   -0.3390 N   0  0  0  0  0  0  0  0  0  0  0  0
    0.1500    2.2960   -1.6200 C   0  0  0  0  0  0  0  0  0  0  0  0
    0.9510    3.5740   -1.5060 C   0  0  0  0  0  0  0  0  0  0  0  0
    0.0700    4.7260   -1.4000 N   0  0  0  0  0  0  0  0  0  0  0  0
   -1.1010    4.3920   -0.6520 C   0  0  0  0  0  0  0  0  0  0  0  0
   -0.8540    3.2910    0.3780 C   0  0  0  0  0  0  0  0  0  0  0  0
   -1.8110    0.0430   -0.1450 N   0  0  0  0  0  0  0  0  0  0  0  0
   -1.8440   -1.1140    0.5240 C   0  0  0  0  0  0  0  0  0  0  0  0
   -2.7010   -2.1910    0.5210 C   0  0  0  0  0  0  0  0  0  0  0  0
   -3.8500   -2.1640   -0.3680 C   0  0  0  0  0  0  0  0  0  0  0  0
   -3.7500   -1.8100   -1.7040 C   0  0  0  0  0  0  0  0  0  0  0  0
   -4.8790   -1.8150   -2.5240 C   0  0  0  0  0  0  0  0  0  0  0  0
   -6.1250   -2.1630   -2.0590 C   0  0  0  0  0  0  0  0  0  0  0  0
   -6.2310   -2.5140   -0.7360 C   0  0  0  0  0  0  0  0  0  0  0  0
   -5.1130   -2.5120    0.0850 C   0  0  0  0  0  0  0  0  0  0  0  0
   -5.2810   -2.9560    1.7820 Cl  0  0  0  0  0  0  0  0  0  0  0  0
   -2.4300   -3.2490    1.3580 C   0  0  0  0  0  0  0  0  0  0  0  0
   -1.3310   -3.2440    2.1830 C   0  0  0  0  0  0  0  0  0  0  0  0
   -0.9770   -4.5830    3.2490 Cl  0  0  0  0  0  0  0  0  0  0  0  0
   -0.4690   -2.1660    2.1890 C   0  0  0  0  0  0  0  0  0  0  0  0
   -0.7120   -1.0800    1.3560 C   0  0  0  0  0  0  0  0  0  0  0  0
    2.9580    0.5730    0.1430 C   0  0  0  0  0  0  0  0  0  0  0  0
    4.1400    0.1080   -0.4370 C   0  0  0  0  0  0  0  0  0  0  0  0
    4.7200    0.7860   -1.6340 C   0  0  0  0  0  0  0  0  0  0  0  0
    4.7450   -0.9790    0.1130 C   0  0  0  0  0  0  0  0  0  0  0  0
    5.9100   -1.4810   -0.4160 F   0  0  0  0  0  0  0  0  0  0  0  0
  1  2  1  0
  2  3  2  0
  2 32  1  0
  3  4  1  0
  4  5  1  0
  4 29  2  0
  5  6  1  0
  6  7  1  0
  6 28  1  0
  7  8  1  0
  7 14  2  0
  8  9  1  0
  8 13  1  0
  9 10  1  0
 10 11  1  0
 11 12  1  0
 12 13  1  0
 14 15  1  0
 15 16  2  0
 15 28  1  0
 16 17  1  0
 16 24  1  0
 17 18  2  0
 17 22  1  0
 18 19  1  0
 19 20  2  0
 20 21  1  0
 21 22  2  0
 22 23  1  0
 24 25  2  0
 25 26  1  0
 25 27  1  0
 27 28  2  0
 29 30  1  0
 30 31  1  0
 30 32  2  0
 32 33  1  0
M  CHG  1  11   1
M  END
