
     RDKit          3D

 32 36  0  0  0  0  0  0  0  0999 V2000
    3.2530    1.6990   -2.8090 O   0  0  0  0  0  0  0  0  0  0  0  0
    3.4020    1.2150   -1.3780 S   0  0  2  0  0  0  0  0  0  0  0  0
    4.2030    2.2950   -0.6730 O   0  0  0  0  0  0  0  0  0  0  0  0
    4.3670   -0.2610   -1.4330 C   0  0  0  0  0  0  0  0  0  0  0  0
    4.6650   -0.8530   -0.0770 C   0  0  1  0  0  0  0  0  0  0  0  0
    5.5000   -2.1020   -0.1790 C   0  0  0  0  0  0  0  0  0  0  0  0
    6.9320   -1.9260   -0.4560 C   0  0  0  0  0  0  0  0  0  0  0  0
    7.3980   -0.6770   -0.9010 N   0  0  0  0  0  0  0  0  0  0  0  0
    7.2570    0.4300   -0.0320 C   0  0  0  0  0  0  0  0  0  0  0  0
    6.4030    0.0950    1.1550 C   0  0  0  0  0  0  0  0  0  0  0  0
    5.0720    0.0580    0.8490 O   0  0  0  0  0  0  0  0  0  0  0  0
    1.8920    1.1040   -0.6860 N   0  0  0  0  0  0  0  0  0  0  0  0
    1.0010    0.2240   -1.3160 C   0  0  0  0  0  0  0  0  0  0  0  0
   -0.3630    0.2410   -0.7000 C   0  0  0  0  0  0  0  0  0  0  0  0
   -0.6120    0.7800    0.4450 C   0  0  0  0  0  0  0  0  0  0  0  0
   -1.9840    0.7650    1.0010 C   0  0  0  0  0  0  0  0  0  0  0  0
   -2.2060    1.3510    2.2320 C   0  0  0  0  0  0  0  0  0  0  0  0
   -3.4740    1.3770    2.8050 C   0  0  0  0  0  0  0  0  0  0  0  0
   -4.5070    0.8210    2.1490 N   0  0  0  0  0  0  0  0  0  0  0  0
   -4.3450    0.2380    0.9490 C   0  0  0  0  0  0  0  0  0  0  0  0
   -5.4450   -0.3580    0.2300 C   0  0  0  0  0  0  0  0  0  0  0  0
   -5.4700   -1.4610   -0.5070 C   0  0  0  0  0  0  0  0  0  0  0  0
   -4.1470   -2.5230   -0.8190 Cl  0  0  0  0  0  0  0  0  0  0  0  0
   -6.8750   -1.6950   -1.0690 C   0  0  0  0  0  0  0  0  0  0  0  0
   -7.6660   -1.0520    0.0060 C   0  0  2  0  0  0  0  0  0  0  0  0
   -8.9830   -0.5710   -0.1080 C   0  0  0  0  0  0  0  0  0  0  0  0
   -9.0080    0.7610   -0.0050 C   0  0  0  0  0  0  0  0  0  0  0  0
   -7.6310    1.2100    0.1670 C   0  0  0  0  0  0  0  0  0  0  0  0
   -6.8040    0.2090    0.1570 C   0  0  0  0  0  0  0  0  0  0  0  0
   -3.0560    0.2110    0.3660 C   0  0  0  0  0  0  0  0  0  0  0  0
    0.4410    1.4320    1.2500 C   0  0  0  0  0  0  0  0  0  0  0  0
    1.8120    1.2790    0.6940 C   0  0  0  0  0  0  0  0  0  0  0  0
  1  2  2  0
  2  3  2  0
  2  4  1  6
  2 12  1  0
  5  4  1  6
  5  6  1  0
  5 11  1  0
  6  7  1  0
  7  8  1  0
  8  9  1  0
  9 10  1  0
 10 11  1  0
 12 13  1  0
 12 32  1  0
 13 14  1  0
 14 15  2  0
 15 16  1  0
 15 31  1  0
 16 17  2  0
 16 30  1  0
 17 18  1  0
 18 19  2  0
 19 20  1  0
 20 21  1  0
 20 30  2  0
 21 22  2  0
 21 29  1  0
 22 23  1  0
 22 24  1  0
 25 24  1  6
 25 26  1  0
 25 29  1  0
 26 27  2  0
 27 28  1  0
 28 29  2  0
 31 32  1  0
M  CHG  1  19   1
M  END
