
     RDKit          3D

 33 36  0  0  0  0  0  0  0  0999 V2000
    6.8670    1.2690   -0.1680 C   0  0  0  0  0  0  0  0  0  0  0  0
    6.6010    0.0320   -0.4940 C   0  0  0  0  0  0  0  0  0  0  0  0
    5.5590   -0.7220    0.1400 C   0  0  0  0  0  0  0  0  0  0  0  0
    5.3400   -1.9820   -0.2400 C   0  0  0  0  0  0  0  0  0  0  0  0
    6.1360   -2.6060   -1.2820 C   0  0  0  0  0  0  0  0  0  0  0  0
    4.2530   -2.6900    0.4570 C   0  0  0  0  0  0  0  0  0  0  0  0
    2.9740   -1.7950    0.4460 C   0  0  0  0  0  0  0  0  0  0  0  0
    3.2790   -0.4520    0.7800 N   0  0  0  0  0  0  0  0  0  0  0  0
    2.4400    0.6360    0.7690 C   0  0  0  0  0  0  0  0  0  0  0  0
    2.9770    1.7650    1.1100 O   0  0  0  0  0  0  0  0  0  0  0  0
    1.0510    0.7180    0.4350 C   0  0  0  0  0  0  0  0  0  0  0  0
    0.2410   -0.3240    0.0800 C   0  0  0  0  0  0  0  0  0  0  0  0
   -1.1110   -0.1860   -0.2460 C   0  0  0  0  0  0  0  0  0  0  0  0
   -1.8860   -1.3100   -0.6320 N   0  0  0  0  0  0  0  0  0  0  0  0
   -3.2890   -1.3160   -0.5460 C   0  0  0  0  0  0  0  0  0  0  0  0
   -3.7640   -0.6890    0.5300 N   0  0  0  0  0  0  0  0  0  0  0  0
   -5.1740   -0.6990    0.5870 C   0  0  0  0  0  0  0  0  0  0  0  0
   -5.9280    0.3550    0.7810 C   0  0  0  0  0  0  0  0  0  0  0  0
   -7.0920    0.5000   -0.1880 C   0  0  0  0  0  0  0  0  0  0  0  0
   -6.3840   -0.2670   -1.7200 S   0  0  0  0  0  0  0  0  0  0  0  0
   -5.6380   -1.8620   -1.3270 C   0  0  1  0  0  0  0  0  0  0  0  0
   -4.1580   -1.9440   -1.5480 C   0  0  0  0  0  0  0  0  0  0  0  0
   -5.8310   -1.9890    0.2300 C   0  0  2  0  0  0  0  0  0  0  0  0
   -7.1360   -2.0860    0.5570 F   0  0  0  0  0  0  0  0  0  0  0  0
   -4.9550   -3.4220    0.7220 Cl  0  0  0  0  0  0  0  0  0  0  0  0
   -1.6690    1.0570   -0.2140 C   0  0  0  0  0  0  0  0  0  0  0  0
   -0.9150    2.1390    0.1330 C   0  0  0  0  0  0  0  0  0  0  0  0
   -1.5530    3.4690    0.1570 C   0  0  0  0  0  0  0  0  0  0  0  0
   -2.7510    3.6110   -0.1290 O   0  0  0  0  0  0  0  0  0  0  0  0
   -0.7920    4.5620    0.5070 O   0  0  0  0  0  0  0  0  0  0  0  0
   -1.3210    5.8840    0.5590 C   0  0  0  0  0  0  0  0  0  0  0  0
    0.4050    1.9730    0.4470 C   0  0  0  0  0  0  0  0  0  0  0  0
    4.6910   -0.2040    1.2030 C   0  0  0  0  0  0  0  0  0  0  0  0
  1  2  2  0
  2  3  1  0
  3  4  2  0
  3 33  1  0
  4  5  1  0
  4  6  1  0
  6  7  1  0
  7  8  1  0
  8  9  1  0
  8 33  1  0
  9 10  2  0
  9 11  1  0
 11 12  2  0
 11 32  1  0
 12 13  1  0
 13 14  1  0
 13 26  2  0
 14 15  1  0
 15 16  2  0
 15 22  1  0
 16 17  1  0
 17 18  2  0
 17 23  1  0
 18 19  1  0
 19 20  1  0
 20 21  1  0
 21 22  1  1
 21 23  1  0
 23 24  1  6
 23 25  1  0
 26 27  1  0
 27 28  1  0
 27 32  2  0
 28 29  2  0
 28 30  1  0
 30 31  1  0
M  CHG  1  16   1
M  END
