
     RDKit          3D

 33 37  0  0  0  0  0  0  0  0999 V2000
   -3.3950   -2.6740    0.7230 C   0  0  0  0  0  0  0  0  0  0  0  0
   -4.0070   -1.9510   -0.4180 C   0  0  0  0  0  0  0  0  0  0  0  0
   -4.5600   -2.7190   -1.4490 C   0  0  0  0  0  0  0  0  0  0  0  0
   -5.1370   -2.0680   -2.4980 C   0  0  0  0  0  0  0  0  0  0  0  0
   -5.1780   -0.7120   -2.5550 C   0  0  0  0  0  0  0  0  0  0  0  0
   -4.6180    0.0890   -1.5130 C   0  0  0  0  0  0  0  0  0  0  0  0
   -4.7260    1.5010   -1.7580 C   0  0  0  0  0  0  0  0  0  0  0  0
   -4.5700    2.5270   -1.0070 C   0  0  0  0  0  0  0  0  0  0  0  0
   -4.2540    2.6500    0.2780 F   0  0  0  0  0  0  0  0  0  0  0  0
   -4.0330   -0.5460   -0.4500 C   0  0  0  0  0  0  0  0  0  0  0  0
   -3.3720    0.1600    0.5840 N   0  0  0  0  0  0  0  0  0  0  0  0
   -2.0280    0.6850    0.4250 C   0  0  0  0  0  0  0  0  0  0  0  0
   -1.5860    0.4850   -0.6920 O   0  0  0  0  0  0  0  0  0  0  0  0
   -1.3660    1.3720    1.5670 C   0  0  0  0  0  0  0  0  0  0  0  0
   -2.2210    1.9750    2.4930 C   0  0  0  0  0  0  0  0  0  0  0  0
   -1.1810    2.8950    3.6750 S   0  0  0  0  0  0  0  0  0  0  0  0
    0.3410    2.3880    2.8200 C   0  0  0  0  0  0  0  0  0  0  0  0
   -0.0500    1.5630    1.7140 C   0  0  0  0  0  0  0  0  0  0  0  0
    1.1040    0.9340    1.0190 C   0  0  2  0  0  0  0  0  0  0  0  0
    2.2600    1.8660    0.8440 C   0  0  0  0  0  0  0  0  0  0  0  0
    3.3550    1.0850    0.3060 N   0  0  0  0  0  0  0  0  0  0  0  0
    4.3360    1.7220   -0.5020 C   0  0  0  0  0  0  0  0  0  0  0  0
    4.0890    2.8100   -1.0640 O   0  0  0  0  0  0  0  0  0  0  0  0
    5.6000    1.1490   -0.6890 O   0  0  0  0  0  0  0  0  0  0  0  0
    5.8760   -0.0280    0.0650 C   0  0  2  0  0  0  0  0  0  0  0  0
    6.1750    0.3990    1.7630 Cl  0  0  0  0  0  0  0  0  0  0  0  0
    6.9790   -0.7960   -0.5430 C   0  0  0  0  0  0  0  0  0  0  0  0
    6.4700   -1.9540   -0.8960 C   0  0  0  0  0  0  0  0  0  0  0  0
    5.0450   -2.0220   -0.5540 C   0  0  0  0  0  0  0  0  0  0  0  0
    4.6680   -0.8790    0.0270 C   0  0  0  0  0  0  0  0  0  0  0  0
    3.4220   -0.3430    0.6060 C   0  0  2  0  0  0  0  0  0  0  0  0
    2.1740   -1.0380    0.2270 C   0  0  0  0  0  0  0  0  0  0  0  0
    0.9850   -0.1130    0.1470 N   0  0  0  0  0  0  0  0  0  0  0  0
  1  2  1  0
  2  3  2  0
  2 10  1  0
  3  4  1  0
  4  5  2  0
  5  6  1  0
  6  7  1  0
  6 10  2  0
  7  8  2  3
  8  9  1  0
 10 11  1  0
 11 12  1  0
 12 13  2  0
 12 14  1  0
 14 15  2  0
 14 18  1  0
 15 16  1  0
 16 17  1  0
 17 18  2  0
 19 18  1  6
 19 20  1  0
 19 33  1  0
 20 21  1  0
 21 22  1  0
 21 31  1  0
 22 23  2  0
 22 24  1  0
 24 25  1  0
 25 26  1  1
 25 27  1  0
 25 30  1  0
 27 28  2  0
 28 29  1  0
 29 30  2  0
 30 31  1  0
 31 32  1  6
 32 33  1  0
M  CHG  1  33   1
M  END
