
     RDKit          3D

 32 36  0  0  0  0  0  0  0  0999 V2000
   -7.0680   -2.6600    0.2710 C   0  0  0  0  0  0  0  0  0  0  0  0
   -5.9320   -1.9450    0.9310 C   0  0  0  0  0  0  0  0  0  0  0  0
   -5.6600   -0.6170    0.3380 C   0  0  0  0  0  0  0  0  0  0  0  0
   -6.4630    0.4690    0.5980 C   0  0  0  0  0  0  0  0  0  0  0  0
   -7.8390    0.2670    1.6550 Cl  0  0  0  0  0  0  0  0  0  0  0  0
   -6.1960    1.7090    0.0370 C   0  0  0  0  0  0  0  0  0  0  0  0
   -5.1140    1.8670   -0.7940 C   0  0  0  0  0  0  0  0  0  0  0  0
   -4.2690    0.7840   -1.0840 C   0  0  0  0  0  0  0  0  0  0  0  0
   -2.8750    1.0240   -2.1210 S   0  0  2  0  0  0  0  0  0  0  0  0
   -2.9650    2.4230   -2.6800 O   0  0  0  0  0  0  0  0  0  0  0  0
   -3.0320    0.0550   -3.2690 O   0  0  0  0  0  0  0  0  0  0  0  0
   -1.4420    0.7680   -1.2770 N   0  0  0  0  0  0  0  0  0  0  0  0
   -0.3920   -0.2340   -1.4930 C   0  0  0  0  0  0  0  0  0  0  0  0
    0.1990   -0.4570   -0.1120 C   0  0  1  0  0  0  0  0  0  0  0  0
    1.6490   -0.7280   -0.1150 C   0  0  0  0  0  0  0  0  0  0  0  0
    2.4140   -0.1260    0.9460 N   0  0  0  0  0  0  0  0  0  0  0  0
    3.1360    1.0390    0.4920 C   0  0  0  0  0  0  0  0  0  0  0  0
    4.2640    0.7720   -0.4410 C   0  0  0  0  0  0  0  0  0  0  0  0
    5.3590   -0.0720    0.0880 C   0  0  1  0  0  0  0  0  0  0  0  0
    5.0010   -1.4560    0.5160 C   0  0  0  0  0  0  0  0  0  0  0  0
    6.2770   -2.2720    0.2700 C   0  0  0  0  0  0  0  0  0  0  0  0
    7.1330   -1.3960   -0.5760 C   0  0  0  0  0  0  0  0  0  0  0  0
    6.3450   -0.2780   -0.9870 N   0  0  0  0  0  0  0  0  0  0  0  0
    1.6440    0.3050    2.1050 C   0  0  0  0  0  0  0  0  0  0  0  0
    0.5880    1.2510    1.6250 C   0  0  0  0  0  0  0  0  0  0  0  0
    0.2960    2.4740    2.2050 C   0  0  0  0  0  0  0  0  0  0  0  0
   -0.6960    3.2300    1.5720 C   0  0  0  0  0  0  0  0  0  0  0  0
   -1.3450    2.7710    0.4280 C   0  0  0  0  0  0  0  0  0  0  0  0
   -1.0370    1.5480   -0.1320 C   0  0  0  0  0  0  0  0  0  0  0  0
   -0.0710    0.8400    0.5080 C   0  0  0  0  0  0  0  0  0  0  0  0
   -4.5720   -0.4140   -0.5100 C   0  0  0  0  0  0  0  0  0  0  0  0
   -3.7950   -1.5360   -0.7440 O   0  0  0  0  0  0  0  0  0  0  0  0
  1  2  1  0
  2  3  1  0
  3  4  2  0
  3 31  1  0
  4  5  1  0
  4  6  1  0
  6  7  2  0
  7  8  1  0
  8  9  1  0
  8 31  2  0
  9 10  2  0
  9 11  2  0
  9 12  1  1
 12 13  1  0
 12 29  1  0
 14 13  1  6
 14 15  1  0
 14 30  1  0
 15 16  1  0
 16 17  1  0
 16 24  1  0
 17 18  1  0
 19 18  1  6
 19 20  1  0
 19 23  1  0
 20 21  1  0
 21 22  1  0
 22 23  1  0
 24 25  1  0
 25 26  1  0
 25 30  2  0
 26 27  2  0
 27 28  1  0
 28 29  2  0
 29 30  1  0
 31 32  1  0
M  CHG  1  23   1
M  END
