
     RDKit          3D

 33 37  0  0  0  0  0  0  0  0999 V2000
   -4.8900   -3.8600   -1.6560 C   0  0  0  0  0  0  0  0  0  0  0  0
   -4.7520   -3.0380   -0.3820 C   0  0  0  0  0  0  0  0  0  0  0  0
   -3.8450   -2.1200   -0.1580 N   0  0  0  0  0  0  0  0  0  0  0  0
   -3.6550   -1.4520    0.7520 C   0  0  0  0  0  0  0  0  0  0  0  0
   -2.8240   -0.3690    1.3860 C   0  0  2  0  0  0  0  0  0  0  0  0
   -3.1870    0.9070    0.6680 C   0  0  0  0  0  0  0  0  0  0  0  0
   -2.4740    2.1210    1.1490 C   0  0  0  0  0  0  0  0  0  0  0  0
   -2.9260    3.2920    0.3650 C   0  0  0  0  0  0  0  0  0  0  0  0
   -3.9860    4.1480    0.6420 C   0  0  0  0  0  0  0  0  0  0  0  0
   -4.0220    5.0580   -0.3350 N   0  0  0  0  0  0  0  0  0  0  0  0
   -3.0640    4.8420   -1.2120 N   0  0  0  0  0  0  0  0  0  0  0  0
   -2.3650    3.7530   -0.8060 C   0  0  0  0  0  0  0  0  0  0  0  0
   -1.4450   -0.7340    1.0690 N   0  0  0  0  0  0  0  0  0  0  0  0
   -0.5660   -0.4680    2.1840 C   0  0  0  0  0  0  0  0  0  0  0  0
    0.8070   -0.0290    1.6710 C   0  0  0  0  0  0  0  0  0  0  0  0
    1.4140   -1.1140    0.8700 C   0  0  0  0  0  0  0  0  0  0  0  0
    0.8370   -2.2860    0.6440 N   0  0  0  0  0  0  0  0  0  0  0  0
    1.6450   -3.0850   -0.1340 N   0  0  0  0  0  0  0  0  0  0  0  0
    2.7440   -2.4850   -0.4350 C   0  0  0  0  0  0  0  0  0  0  0  0
    2.6790   -1.1470    0.1990 C   0  0  0  0  0  0  0  0  0  0  0  0
    3.6590   -0.2420    0.1140 C   0  0  0  0  0  0  0  0  0  0  0  0
    3.6510    1.0310    0.7140 N   0  0  0  0  0  0  0  0  0  0  0  0
    4.7640    1.9290    0.5450 C   0  0  0  0  0  0  0  0  0  0  0  0
    4.7260    3.0690    1.0990 O   0  0  0  0  0  0  0  0  0  0  0  0
    5.9110    1.5350   -0.2480 C   0  0  0  0  0  0  0  0  0  0  0  0
    5.8980    0.3440   -0.7990 C   0  0  0  0  0  0  0  0  0  0  0  0
    7.1760    0.1170   -1.5830 C   0  0  0  0  0  0  0  0  0  0  0  0
    7.6900    1.5280   -1.7640 C   0  0  0  0  0  0  0  0  0  0  0  0
    7.1810    2.2840   -0.5700 C   0  0  0  0  0  0  0  0  0  0  0  0
    4.8270   -0.5650   -0.6560 N   0  0  0  0  0  0  0  0  0  0  0  0
   -5.0340   -2.0400    1.8820 S   0  0  0  0  0  0  0  0  0  0  0  0
   -5.6440   -3.2580    0.6400 C   0  0  0  0  0  0  0  0  0  0  0  0
   -6.7920   -4.1510    0.8410 C   0  0  0  0  0  0  0  0  0  0  0  0
  1  2  1  0
  2  3  1  0
  2 32  2  0
  3  4  2  0
  4  5  1  0
  4 31  1  0
  5  6  1  6
  5 13  1  0
  6  7  1  0
  7  8  1  0
  8  9  1  0
  8 12  2  0
  9 10  2  0
 10 11  1  0
 11 12  1  0
 13 14  1  0
 14 15  1  0
 15 16  1  0
 16 17  2  0
 16 20  1  0
 17 18  1  0
 18 19  2  0
 19 20  1  0
 20 21  2  3
 21 22  1  0
 21 30  1  0
 22 23  1  0
 23 24  2  0
 23 25  1  0
 25 26  2  0
 25 29  1  0
 26 27  1  0
 26 30  1  0
 27 28  1  0
 28 29  1  0
 31 32  1  0
 32 33  1  0
M  CHG  1  13   1
M  END
