
     RDKit          3D

 26 29  0  0  0  0  0  0  0  0999 V2000
   -4.9980    1.6670   -1.5900 C   0  0  0  0  0  0  0  0  0  0  0  0
   -4.1280    1.1760   -0.4870 C   0  0  0  0  0  0  0  0  0  0  0  0
   -4.5680    1.2330    0.8190 C   0  0  0  0  0  0  0  0  0  0  0  0
   -3.7770    0.7850    1.8470 C   0  0  0  0  0  0  0  0  0  0  0  0
   -4.1700    0.8190    3.1400 F   0  0  0  0  0  0  0  0  0  0  0  0
   -2.5160    0.2700    1.5260 C   0  0  0  0  0  0  0  0  0  0  0  0
   -1.6930   -0.1770    2.5910 N   0  0  0  0  0  0  0  0  0  0  0  0
   -0.4010   -0.7610    2.4640 C   0  0  1  0  0  0  0  0  0  0  0  0
   -0.3960   -2.1370    1.8330 C   0  0  0  0  0  0  0  0  0  0  0  0
    1.0180   -2.6470    1.7320 C   0  0  0  0  0  0  0  0  0  0  0  0
    1.7540   -1.8800    0.6920 C   0  0  0  0  0  0  0  0  0  0  0  0
    1.5310   -0.4270    0.8820 C   0  0  0  0  0  0  0  0  0  0  0  0
    0.5490    0.0920    1.6910 C   0  0  0  0  0  0  0  0  0  0  0  0
    0.7030    1.4640    1.5700 C   0  0  0  0  0  0  0  0  0  0  0  0
    1.7220    1.7120    0.7310 N   0  0  0  0  0  0  0  0  0  0  0  0
    2.2470    0.5850    0.2960 N   0  0  0  0  0  0  0  0  0  0  0  0
    3.3320    0.4260   -0.6170 C   0  0  0  0  0  0  0  0  0  0  0  0
    3.1280   -0.1470   -1.8520 C   0  0  0  0  0  0  0  0  0  0  0  0
    4.1840   -0.2940   -2.7260 C   0  0  0  0  0  0  0  0  0  0  0  0
    5.4580    0.1150   -2.4090 C   0  0  0  0  0  0  0  0  0  0  0  0
    6.7910   -0.0900   -3.5600 Cl  0  0  0  0  0  0  0  0  0  0  0  0
    5.6700    0.6880   -1.1770 C   0  0  0  0  0  0  0  0  0  0  0  0
    4.5960    0.8370   -0.2920 C   0  0  0  0  0  0  0  0  0  0  0  0
   -2.1210    0.2320    0.2280 N   0  0  0  0  0  0  0  0  0  0  0  0
   -2.8880    0.6690   -0.7960 C   0  0  0  0  0  0  0  0  0  0  0  0
   -2.3940    0.5970   -2.2040 C   0  0  0  0  0  0  0  0  0  0  0  0
  1  2  1  0
  2  3  2  0
  2 25  1  0
  3  4  1  0
  4  5  1  0
  4  6  2  0
  6  7  1  0
  6 24  1  0
  8  7  1  6
  8  9  1  0
  8 13  1  0
  9 10  1  0
 10 11  1  0
 11 12  1  0
 12 13  2  0
 12 16  1  0
 13 14  1  0
 14 15  2  0
 15 16  1  0
 16 17  1  0
 17 18  2  0
 17 23  1  0
 18 19  1  0
 19 20  2  0
 20 21  1  0
 20 22  1  0
 22 23  2  0
 24 25  2  0
 25 26  1  0
M  CHG  1  24   1
M  END
