
     RDKit          3D

 26 29  0  0  0  0  0  0  0  0999 V2000
    5.1450   -0.9620   -1.7490 C   0  0  0  0  0  0  0  0  0  0  0  0
    3.8480   -0.7870   -1.0280 C   0  0  0  0  0  0  0  0  0  0  0  0
    2.7080   -0.3690   -1.6460 C   0  0  0  0  0  0  0  0  0  0  0  0
    1.5100   -0.2080   -0.9520 C   0  0  0  0  0  0  0  0  0  0  0  0
    0.3220    0.3150   -1.6880 C   0  0  0  0  0  0  0  0  0  0  0  0
   -0.5230    1.0060   -0.7130 N   0  0  0  0  0  0  0  0  0  0  0  0
   -1.6110    0.5690   -0.0880 C   0  0  0  0  0  0  0  0  0  0  0  0
   -2.2860   -0.6500   -0.3300 N   0  0  0  0  0  0  0  0  0  0  0  0
   -3.5800   -0.5850   -1.0160 C   0  0  0  0  0  0  0  0  0  0  0  0
   -4.5740   -1.0220    0.0790 C   0  0  0  0  0  0  0  0  0  0  0  0
   -4.2650   -2.3770    0.4070 N   0  0  0  0  0  0  0  0  0  0  0  0
   -2.9290   -2.6540    0.7980 C   0  0  0  0  0  0  0  0  0  0  0  0
   -1.8480   -1.9670    0.0170 C   0  0  0  0  0  0  0  0  0  0  0  0
   -1.9560    1.5500    0.7890 N   0  0  0  0  0  0  0  0  0  0  0  0
   -1.1060    2.5860    0.7170 C   0  0  0  0  0  0  0  0  0  0  0  0
   -1.0100    3.7900    1.3810 C   0  0  0  0  0  0  0  0  0  0  0  0
    0.0030    4.6910    1.1130 C   0  0  0  0  0  0  0  0  0  0  0  0
    0.9080    4.3120    0.1410 C   0  0  0  0  0  0  0  0  0  0  0  0
    2.2370    5.3870   -0.2560 Cl  0  0  0  0  0  0  0  0  0  0  0  0
    0.8210    3.1190   -0.5250 C   0  0  0  0  0  0  0  0  0  0  0  0
   -0.1950    2.2210   -0.2490 C   0  0  0  0  0  0  0  0  0  0  0  0
    1.5270   -0.4900    0.3900 C   0  0  0  0  0  0  0  0  0  0  0  0
    2.6670   -0.9140    1.0400 C   0  0  0  0  0  0  0  0  0  0  0  0
    2.6430   -1.2050    2.4990 C   0  0  0  0  0  0  0  0  0  0  0  0
    3.8370   -1.0640    0.3280 C   0  0  0  0  0  0  0  0  0  0  0  0
    4.9740   -1.4810    0.9330 F   0  0  0  0  0  0  0  0  0  0  0  0
  1  2  1  0
  2  3  2  0
  2 25  1  0
  3  4  1  0
  4  5  1  0
  4 22  2  0
  5  6  1  0
  6  7  1  0
  6 21  1  0
  7  8  1  0
  7 14  2  0
  8  9  1  0
  8 13  1  0
  9 10  1  0
 10 11  1  0
 11 12  1  0
 12 13  1  0
 14 15  1  0
 15 16  2  0
 15 21  1  0
 16 17  1  0
 17 18  2  0
 18 19  1  0
 18 20  1  0
 20 21  2  0
 22 23  1  0
 23 24  1  0
 23 25  2  0
 25 26  1  0
M  CHG  1  11   1
M  END
