
     RDKit          3D

 26 29  0  0  0  0  0  0  0  0999 V2000
   -4.1050    1.7370   -1.7020 F   0  0  0  0  0  0  0  0  0  0  0  0
   -4.4470    1.2040   -0.4650 C   0  0  0  0  0  0  0  0  0  0  0  0
   -5.1600    1.9350    0.4610 C   0  0  0  0  0  0  0  0  0  0  0  0
   -5.4880    1.4370    1.6890 C   0  0  0  0  0  0  0  0  0  0  0  0
   -5.0850    0.1590    1.9970 C   0  0  0  0  0  0  0  0  0  0  0  0
   -4.3530   -0.6090    1.0720 C   0  0  0  0  0  0  0  0  0  0  0  0
   -4.0640   -0.0450   -0.1260 C   0  0  0  0  0  0  0  0  0  0  0  0
   -3.3070   -0.8600   -1.1540 C   0  0  0  0  0  0  0  0  0  0  0  0
   -1.9520   -0.9300   -0.7840 N   0  0  0  0  0  0  0  0  0  0  0  0
   -1.1980   -1.8120   -1.5430 C   0  0  0  0  0  0  0  0  0  0  0  0
   -0.5660   -2.8440   -0.5880 C   0  0  0  0  0  0  0  0  0  0  0  0
    0.7070   -2.2590   -0.2540 N   0  0  0  0  0  0  0  0  0  0  0  0
    0.9660   -0.8540   -0.0050 C   0  0  0  0  0  0  0  0  0  0  0  0
    2.2670   -0.6560    0.1160 N   0  0  0  0  0  0  0  0  0  0  0  0
    2.7270    0.5770    0.4240 C   0  0  0  0  0  0  0  0  0  0  0  0
    4.1850    0.6400    0.4640 C   0  0  0  0  0  0  0  0  0  0  0  0
    4.8150    0.7250    1.6670 C   0  0  0  0  0  0  0  0  0  0  0  0
    6.2090    0.7040    1.7350 C   0  0  0  0  0  0  0  0  0  0  0  0
    6.9170    0.6030    0.6040 N   0  0  0  0  0  0  0  0  0  0  0  0
    6.3330    0.5190   -0.6020 C   0  0  0  0  0  0  0  0  0  0  0  0
    4.9620    0.5390   -0.6680 C   0  0  0  0  0  0  0  0  0  0  0  0
    1.9030    1.6350    0.6160 C   0  0  0  0  0  0  0  0  0  0  0  0
    2.5290    3.2410    1.0580 Cl  0  0  0  0  0  0  0  0  0  0  0  0
    0.5220    1.4160    0.4830 C   0  0  0  0  0  0  0  0  0  0  0  0
    0.0330    0.1640    0.1670 C   0  0  0  0  0  0  0  0  0  0  0  0
   -1.4140    0.0740    0.0260 C   0  0  0  0  0  0  0  0  0  0  0  0
  1  2  1  0
  2  3  2  0
  2  7  1  0
  3  4  1  0
  4  5  2  0
  5  6  1  0
  6  7  2  0
  7  8  1  0
  8  9  1  0
  9 10  1  0
  9 26  1  0
 10 11  1  0
 11 12  1  0
 12 13  1  0
 13 14  2  0
 13 25  1  0
 14 15  1  0
 15 16  1  0
 15 22  2  0
 16 17  2  0
 16 21  1  0
 17 18  1  0
 18 19  2  0
 19 20  1  0
 20 21  2  0
 22 23  1  0
 22 24  1  0
 24 25  2  0
 25 26  1  0
M  CHG  1  19   1
M  END
