
     RDKit          3D

 26 28  0  0  0  0  0  0  0  0999 V2000
    3.4320    4.4390    0.7200 C   0  0  0  0  0  0  0  0  0  0  0  0
    2.1140    3.7300    0.5320 C   0  0  0  0  0  0  0  0  0  0  0  0
    0.8600    4.5050   -0.4040 Cl  0  0  0  0  0  0  0  0  0  0  0  0
    1.8910    2.5410    1.0580 C   0  0  0  0  0  0  0  0  0  0  0  0
    0.6500    1.9220    0.8550 N   0  0  0  0  0  0  0  0  0  0  0  0
    0.4710    0.6780    0.6380 C   0  0  0  0  0  0  0  0  0  0  0  0
    1.5030   -0.2970    0.5630 N   0  0  0  0  0  0  0  0  0  0  0  0
    2.5520   -0.0340   -0.1180 C   0  0  0  0  0  0  0  0  0  0  0  0
    3.6260   -0.9860   -0.2260 C   0  0  0  0  0  0  0  0  0  0  0  0
    4.7400   -0.6660   -0.9690 C   0  0  0  0  0  0  0  0  0  0  0  0
    5.8180   -1.5370   -1.1190 C   0  0  0  0  0  0  0  0  0  0  0  0
    5.7300   -2.7070   -0.5070 N   0  0  0  0  0  0  0  0  0  0  0  0
    4.6670   -3.0640    0.2280 C   0  0  0  0  0  0  0  0  0  0  0  0
    3.5770   -2.2020    0.3870 C   0  0  0  0  0  0  0  0  0  0  0  0
   -0.8700    0.1820    0.4460 N   0  0  0  0  0  0  0  0  0  0  0  0
   -1.2310   -1.0170    1.1350 C   0  0  0  0  0  0  0  0  0  0  0  0
   -1.7880    0.8830   -0.4030 C   0  0  0  0  0  0  0  0  0  0  0  0
   -3.1040    0.1970   -0.4740 C   0  0  0  0  0  0  0  0  0  0  0  0
   -4.2940    0.6880   -0.1120 C   0  0  0  0  0  0  0  0  0  0  0  0
   -5.3340   -0.3060   -0.3420 C   0  0  0  0  0  0  0  0  0  0  0  0
   -6.6090   -0.6400   -0.2850 C   0  0  0  0  0  0  0  0  0  0  0  0
   -6.8200   -1.9960   -0.7760 C   0  0  0  0  0  0  0  0  0  0  0  0
   -5.6530   -2.5020   -1.1400 C   0  0  0  0  0  0  0  0  0  0  0  0
   -4.6480   -1.4650   -0.8880 C   0  0  0  0  0  0  0  0  0  0  0  0
   -3.3580   -1.1440   -0.9530 C   0  0  0  0  0  0  0  0  0  0  0  0
   -2.4310   -2.0290   -1.4310 F   0  0  0  0  0  0  0  0  0  0  0  0
  1  2  1  0
  2  3  1  0
  2  4  2  3
  4  5  1  0
  5  6  2  3
  6  7  1  0
  6 15  1  0
  7  8  2  3
  8  9  1  0
  9 10  2  0
  9 14  1  0
 10 11  1  0
 11 12  2  0
 12 13  1  0
 13 14  2  0
 15 16  1  0
 15 17  1  0
 17 18  1  0
 18 19  2  0
 18 25  1  0
 19 20  1  0
 20 21  2  0
 20 24  1  0
 21 22  1  0
 22 23  2  0
 23 24  1  0
 24 25  2  0
 25 26  1  0
M  CHG  1   7   1
M  END
