
     RDKit          3D

 26 29  0  0  0  0  0  0  0  0999 V2000
    6.4150    1.1490    0.1440 C   0  0  0  0  0  0  0  0  0  0  0  0
    5.8590    0.1810   -0.5600 C   0  0  0  0  0  0  0  0  0  0  0  0
    4.7970    0.6500   -1.5000 C   0  0  0  0  0  0  0  0  0  0  0  0
    3.6890   -0.3890   -1.6150 C   0  0  0  0  0  0  0  0  0  0  0  0
    3.3190   -0.7660   -0.2720 N   0  0  0  0  0  0  0  0  0  0  0  0
    1.9970   -0.4480    0.1200 C   0  0  0  0  0  0  0  0  0  0  0  0
    1.5640   -0.7400    1.3610 N   0  0  0  0  0  0  0  0  0  0  0  0
    0.3100   -0.4440    1.7450 C   0  0  0  0  0  0  0  0  0  0  0  0
   -0.2420   -0.8270    3.3580 Cl  0  0  0  0  0  0  0  0  0  0  0  0
   -0.5440    0.1770    0.8270 C   0  0  0  0  0  0  0  0  0  0  0  0
   -0.0900    0.4680   -0.4330 C   0  0  0  0  0  0  0  0  0  0  0  0
    1.1720    0.1480   -0.7570 N   0  0  0  0  0  0  0  0  0  0  0  0
   -1.0110    1.1300   -1.4090 C   0  0  0  0  0  0  0  0  0  0  0  0
   -2.1120    1.7980   -0.6150 C   0  0  0  0  0  0  0  0  0  0  0  0
   -2.7710    0.7480    0.1390 N   0  0  2  0  0  0  0  0  0  0  0  0
   -4.0700    1.1600    0.6180 C   0  0  2  0  0  0  0  0  0  0  0  0
   -4.6820    0.0750    1.4650 C   0  0  0  0  0  0  0  0  0  0  0  0
   -4.7630   -1.2300    0.7030 C   0  0  0  0  0  0  0  0  0  0  0  0
   -5.5560   -1.0670   -0.5750 C   0  0  0  0  0  0  0  0  0  0  0  0
   -5.2010    0.1420   -1.3710 C   0  0  0  0  0  0  0  0  0  0  0  0
   -5.0520    1.3830   -0.5150 C   0  0  0  0  0  0  0  0  0  0  0  0
   -1.9270    0.4900    1.2870 C   0  0  0  0  0  0  0  0  0  0  0  0
    4.1200   -1.4260    0.7250 C   0  0  0  0  0  0  0  0  0  0  0  0
    5.2810   -2.1390    0.0620 C   0  0  0  0  0  0  0  0  0  0  0  0
    6.3900   -1.1740   -0.2850 C   0  0  2  0  0  0  0  0  0  0  0  0
    7.3030   -1.1380    0.7350 F   0  0  0  0  0  0  0  0  0  0  0  0
  1  2  2  0
  2  3  1  0
  2 25  1  0
  3  4  1  0
  4  5  1  0
  5  6  1  0
  5 23  1  0
  6  7  2  0
  6 12  1  0
  7  8  1  0
  8  9  1  0
  8 10  2  0
 10 11  1  0
 10 22  1  0
 11 12  2  0
 11 13  1  0
 13 14  1  0
 15 14  1  6
 15 16  1  0
 15 22  1  0
 16 17  1  1
 16 21  1  0
 17 18  1  0
 18 19  1  0
 19 20  1  0
 20 21  1  0
 23 24  1  0
 24 25  1  0
 25 26  1  1
M  CHG  1  15   1
M  END
