
     RDKit          3D

 26 29  0  0  0  0  0  0  0  0999 V2000
   -5.8810    0.7470    1.1150 F   0  0  0  0  0  0  0  0  0  0  0  0
   -5.4300    0.8280   -0.1820 C   0  0  0  0  0  0  0  0  0  0  0  0
   -5.1650   -0.5550   -0.7310 C   0  0  0  0  0  0  0  0  0  0  0  0
   -4.1850   -1.3110   -0.0270 N   0  0  2  0  0  0  0  0  0  0  0  0
   -3.8550   -0.7150    1.2360 C   0  0  0  0  0  0  0  0  0  0  0  0
   -2.5830   -1.3480    1.7670 C   0  0  0  0  0  0  0  0  0  0  0  0
   -1.4030   -0.8250    0.9450 C   0  0  2  0  0  0  0  0  0  0  0  0
   -0.9680    0.4390    1.4900 N   0  0  0  0  0  0  0  0  0  0  0  0
    0.2120    1.0660    1.0200 C   0  0  0  0  0  0  0  0  0  0  0  0
    0.4570    2.4030    1.3680 C   0  0  0  0  0  0  0  0  0  0  0  0
    1.5930    3.0580    0.9520 C   0  0  0  0  0  0  0  0  0  0  0  0
    1.8750    4.7470    1.4080 Cl  0  0  0  0  0  0  0  0  0  0  0  0
    2.5510    2.4420    0.1740 C   0  0  0  0  0  0  0  0  0  0  0  0
    2.3220    1.1280   -0.1750 C   0  0  0  0  0  0  0  0  0  0  0  0
    3.2390    0.3850   -0.9760 N   0  0  0  0  0  0  0  0  0  0  0  0
    2.9440   -0.0160   -2.2010 N   0  0  0  0  0  0  0  0  0  0  0  0
    3.7660   -0.7130   -2.9950 C   0  0  0  0  0  0  0  0  0  0  0  0
    5.0190   -1.0730   -2.5740 C   0  0  0  0  0  0  0  0  0  0  0  0
    5.4190   -0.7010   -1.3100 C   0  0  0  0  0  0  0  0  0  0  0  0
    6.5390   -0.8470   -0.5220 C   0  0  0  0  0  0  0  0  0  0  0  0
    6.3080   -0.2220    0.6990 C   0  0  0  0  0  0  0  0  0  0  0  0
    5.0430    0.3360    0.7240 C   0  0  0  0  0  0  0  0  0  0  0  0
    4.4720    0.0570   -0.5000 C   0  0  0  0  0  0  0  0  0  0  0  0
    1.1750    0.4640    0.2440 C   0  0  0  0  0  0  0  0  0  0  0  0
   -1.8770   -0.5480   -0.4820 C   0  0  0  0  0  0  0  0  0  0  0  0
   -3.0230   -1.4580   -0.8790 C   0  0  0  0  0  0  0  0  0  0  0  0
  1  2  1  0
  2  3  1  0
  4  3  1  6
  4  5  1  0
  4 26  1  0
  5  6  1  0
  6  7  1  0
  7  8  1  1
  7 25  1  0
  8  9  1  0
  9 10  2  0
  9 24  1  0
 10 11  1  0
 11 12  1  0
 11 13  2  0
 13 14  1  0
 14 15  1  0
 14 24  2  0
 15 16  1  0
 15 23  1  0
 16 17  2  0
 17 18  1  0
 18 19  2  0
 19 20  1  0
 19 23  1  0
 20 21  2  0
 21 22  1  0
 22 23  2  0
 25 26  1  0
M  CHG  1   4   1
M  END
