
     RDKit          3D

 26 29  0  0  0  0  0  0  0  0999 V2000
   -4.5610    1.3200    3.4810 F   0  0  0  0  0  0  0  0  0  0  0  0
   -4.1150    0.4910    2.4840 C   0  0  0  0  0  0  0  0  0  0  0  0
   -4.4730   -0.7740    2.5830 C   0  0  0  0  0  0  0  0  0  0  0  0
   -4.1640   -1.8700    1.6760 N   0  0  0  0  0  0  0  0  0  0  0  0
   -4.1100   -1.6750    0.2490 C   0  0  0  0  0  0  0  0  0  0  0  0
   -4.5510   -2.4630   -0.6470 N   0  0  0  0  0  0  0  0  0  0  0  0
   -4.3350   -1.9480   -1.9650 C   0  0  0  0  0  0  0  0  0  0  0  0
   -3.6050   -0.6790   -1.7220 C   0  0  0  0  0  0  0  0  0  0  0  0
   -3.4830   -0.5080   -0.4300 C   0  0  0  0  0  0  0  0  0  0  0  0
   -2.9550    0.6860    0.2160 C   0  0  0  0  0  0  0  0  0  0  0  0
   -2.1430    1.6260   -0.5070 C   0  0  0  0  0  0  0  0  0  0  0  0
   -0.7030    1.4350   -0.3970 N   0  0  2  0  0  0  0  0  0  0  0  0
    0.0160    1.1810   -1.5630 C   0  0  0  0  0  0  0  0  0  0  0  0
    1.1950    0.1640   -1.2700 C   0  0  0  0  0  0  0  0  0  0  0  0
    1.9000    0.6820   -0.2320 N   0  0  0  0  0  0  0  0  0  0  0  0
    3.1720    1.2480   -0.1430 C   0  0  0  0  0  0  0  0  0  0  0  0
    4.1830    0.1490   -0.1620 C   0  0  0  0  0  0  0  0  0  0  0  0
    4.2480   -0.8110   -1.0910 C   0  0  0  0  0  0  0  0  0  0  0  0
    5.2070   -1.8560   -1.0240 C   0  0  0  0  0  0  0  0  0  0  0  0
    6.0630   -1.8250    0.0470 C   0  0  0  0  0  0  0  0  0  0  0  0
    6.0310   -0.8270    1.0390 C   0  0  0  0  0  0  0  0  0  0  0  0
    5.0910    0.1650    0.9410 C   0  0  0  0  0  0  0  0  0  0  0  0
    4.9160    1.4640    2.1080 Cl  0  0  0  0  0  0  0  0  0  0  0  0
    1.1410    0.8690    0.9760 C   0  0  0  0  0  0  0  0  0  0  0  0
   -0.3490    0.5950    0.7210 C   0  0  0  0  0  0  0  0  0  0  0  0
   -3.2570    1.0900    1.4740 C   0  0  0  0  0  0  0  0  0  0  0  0
  1  2  1  0
  2  3  2  0
  2 26  1  0
  3  4  1  0
  4  5  1  0
  5  6  2  0
  5  9  1  0
  6  7  1  0
  7  8  1  0
  8  9  2  0
  9 10  1  0
 10 11  1  0
 10 26  2  0
 12 11  1  6
 12 13  1  0
 12 25  1  0
 13 14  1  0
 14 15  1  0
 15 16  1  0
 15 24  1  0
 16 17  1  0
 17 18  2  0
 17 22  1  0
 18 19  1  0
 19 20  2  0
 20 21  1  0
 21 22  2  0
 22 23  1  0
 24 25  1  0
M  CHG  1  12   1
M  END
