
     RDKit          3D

 27 28  0  0  0  0  0  0  0  0999 V2000
   -2.8810    2.6260    0.6470 C   0  0  0  0  0  0  0  0  0  0  0  0
   -1.9330    1.5710    1.1560 C   0  0  0  0  0  0  0  0  0  0  0  0
   -2.0920    0.3780    0.2040 C   0  0  0  0  0  0  0  0  0  0  0  0
   -1.0040    0.0540   -0.4130 C   0  0  0  0  0  0  0  0  0  0  0  0
   -0.7260   -0.9790   -1.3560 C   0  0  0  0  0  0  0  0  0  0  0  0
    0.5290   -1.0740   -1.8590 C   0  0  0  0  0  0  0  0  0  0  0  0
    0.8320   -2.1370   -2.8350 C   0  0  0  0  0  0  0  0  0  0  0  0
    1.5510   -0.1700   -1.4630 N   0  0  0  0  0  0  0  0  0  0  0  0
    2.5780   -0.5620   -0.5370 C   0  0  0  0  0  0  0  0  0  0  0  0
    2.5800   -1.8330   -0.0220 C   0  0  0  0  0  0  0  0  0  0  0  0
    3.5580   -2.2250    0.8680 C   0  0  0  0  0  0  0  0  0  0  0  0
    3.5510   -4.0140    1.5850 Br  0  0  0  0  0  0  0  0  0  0  0  0
    4.5320   -1.3230    1.2320 C   0  0  0  0  0  0  0  0  0  0  0  0
    4.5510   -0.0320    0.7250 C   0  0  0  0  0  0  0  0  0  0  0  0
    5.6210    0.8650    1.1630 C   0  0  0  0  0  0  0  0  0  0  0  0
    5.7510    2.1060    0.7610 C   0  0  0  0  0  0  0  0  0  0  0  0
    6.8400    2.9240    1.2450 C   0  0  0  0  0  0  0  0  0  0  0  0
    7.6750    2.4570    2.0560 O   0  0  0  0  0  0  0  0  0  0  0  0
    3.5660    0.3120   -0.1500 C   0  0  0  0  0  0  0  0  0  0  0  0
   -3.4360   -0.1060    0.0790 C   0  0  0  0  0  0  0  0  0  0  0  0
   -4.3860    0.2050    1.0700 C   0  0  0  0  0  0  0  0  0  0  0  0
   -5.6690   -0.1670    0.9910 N   0  0  0  0  0  0  0  0  0  0  0  0
   -6.1340   -0.8680   -0.0490 C   0  0  0  0  0  0  0  0  0  0  0  0
   -7.8600   -1.3440   -0.1080 S   0  0  0  0  0  0  0  0  0  0  0  0
   -5.2470   -1.1890   -1.0320 C   0  0  0  0  0  0  0  0  0  0  0  0
   -5.6420   -1.8450   -2.0240 O   0  0  0  0  0  0  0  0  0  0  0  0
   -3.9350   -0.8070   -0.9500 N   0  0  0  0  0  0  0  0  0  0  0  0
  1  2  1  0
  2  3  1  0
  3  4  2  3
  3 20  1  0
  4  5  1  0
  5  6  2  3
  6  7  1  0
  6  8  1  0
  8  9  1  0
  9 10  2  0
  9 19  1  0
 10 11  1  0
 11 12  1  0
 11 13  2  0
 13 14  1  0
 14 15  1  0
 14 19  2  0
 15 16  2  3
 16 17  1  0
 17 18  2  0
 20 21  2  0
 20 27  1  0
 21 22  1  0
 22 23  2  0
 23 24  1  0
 23 25  1  0
 25 26  2  0
 25 27  1  0
M  CHG  1  22   1
M  END
