
     RDKit          3D

 27 29  0  0  0  0  0  0  0  0999 V2000
    5.2040    0.5150    1.4150 C   0  0  0  0  0  0  0  0  0  0  0  0
    4.3830    1.7810    1.4840 C   0  0  0  0  0  0  0  0  0  0  0  0
    3.4980    1.9240    0.2650 C   0  0  2  0  0  0  0  0  0  0  0  0
    2.5570    0.7810    0.1450 C   0  0  0  0  0  0  0  0  0  0  0  0
    1.7600    0.7920   -0.9290 C   0  0  0  0  0  0  0  0  0  0  0  0
    0.8360   -0.2150   -1.1620 N   0  0  0  0  0  0  0  0  0  0  0  0
   -0.2430   -0.5030   -0.5580 C   0  0  0  0  0  0  0  0  0  0  0  0
   -0.7560    0.2310    0.5870 C   0  0  0  0  0  0  0  0  0  0  0  0
   -0.0190    1.3820    1.0100 N   0  0  0  0  0  0  0  0  0  0  0  0
   -0.9040    2.0050    2.3860 S   0  0  2  0  0  0  0  0  0  0  0  0
   -0.1660    3.2140    2.8810 O   0  0  0  0  0  0  0  0  0  0  0  0
   -0.8910    0.9600    3.4420 O   0  0  0  0  0  0  0  0  0  0  0  0
   -2.5420    2.4840    1.9310 C   0  0  1  0  0  0  0  0  0  0  0  0
   -3.6050    1.4180    2.1800 C   0  0  0  0  0  0  0  0  0  0  0  0
   -3.5100    2.5430    3.1260 C   0  0  0  0  0  0  0  0  0  0  0  0
   -1.0270   -1.6430   -1.0270 C   0  0  0  0  0  0  0  0  0  0  0  0
   -2.2120   -2.0360   -0.4360 C   0  0  0  0  0  0  0  0  0  0  0  0
   -2.9500   -3.1090   -0.8770 C   0  0  0  0  0  0  0  0  0  0  0  0
   -4.2150   -3.5020   -0.2200 C   0  0  0  0  0  0  0  0  0  0  0  0
   -2.4960   -3.8290   -1.9550 C   0  0  0  0  0  0  0  0  0  0  0  0
   -3.2800   -4.9990   -2.4530 C   0  0  0  0  0  0  0  0  0  0  0  0
   -1.3100   -3.4660   -2.5750 C   0  0  0  0  0  0  0  0  0  0  0  0
   -0.7030   -4.4670   -4.0520 Br  0  0  0  0  0  0  0  0  0  0  0  0
   -0.6010   -2.3840   -2.1020 C   0  0  0  0  0  0  0  0  0  0  0  0
    1.9690    1.9710   -1.8380 C   0  0  0  0  0  0  0  0  0  0  0  0
    3.4400    2.2300   -2.0840 C   0  0  0  0  0  0  0  0  0  0  0  0
    4.2790    1.9390   -0.9590 N   0  0  0  0  0  0  0  0  0  0  0  0
  1  2  1  0
  3  2  1  1
  3  4  1  0
  3 27  1  0
  4  5  2  0
  5  6  1  0
  5 25  1  0
  6  7  2  3
  7  8  1  0
  7 16  1  0
  8  9  1  0
 10  9  1  6
 10 11  2  0
 10 12  2  0
 10 13  1  0
 13 14  1  6
 13 15  1  0
 14 15  1  0
 16 17  2  0
 16 24  1  0
 17 18  1  0
 18 19  1  0
 18 20  2  0
 20 21  1  0
 20 22  1  0
 22 23  1  0
 22 24  2  0
 25 26  1  0
 26 27  1  0
M  CHG  1  27   1
M  END
