
     RDKit          3D

 27 29  0  0  0  0  0  0  0  0999 V2000
   -7.5220    0.3980    0.4580 C   0  0  0  0  0  0  0  0  0  0  0  0
   -6.4810    1.3340   -0.1470 C   0  0  0  0  0  0  0  0  0  0  0  0
   -5.4720    0.5610   -0.8420 N   0  0  0  0  0  0  0  0  0  0  0  0
   -4.4780    0.0330    0.0660 C   0  0  0  0  0  0  0  0  0  0  0  0
   -3.4810   -0.8120   -0.6540 C   0  0  0  0  0  0  0  0  0  0  0  0
   -3.6420   -0.9650   -2.0370 C   0  0  0  0  0  0  0  0  0  0  0  0
   -2.7150   -1.7540   -2.7100 C   0  0  0  0  0  0  0  0  0  0  0  0
   -1.6800   -2.3580   -2.0360 C   0  0  0  0  0  0  0  0  0  0  0  0
   -1.5840   -2.1710   -0.7170 N   0  0  0  0  0  0  0  0  0  0  0  0
   -2.4400   -1.4270   -0.0140 C   0  0  0  0  0  0  0  0  0  0  0  0
   -2.2220   -1.2410    1.7270 S   0  0  0  0  0  0  0  0  0  0  0  0
   -1.1680    0.2090    1.9950 C   0  0  0  0  0  0  0  0  0  0  0  0
    0.2100   -0.0280    1.4690 C   0  0  0  0  0  0  0  0  0  0  0  0
    0.4830   -1.1280    0.9280 O   0  0  0  0  0  0  0  0  0  0  0  0
    1.2440    0.9370    1.5490 N   0  0  0  0  0  0  0  0  0  0  0  0
    2.5670    0.7020    1.0410 C   0  0  0  0  0  0  0  0  0  0  0  0
    3.6300    0.7320    1.8070 C   0  0  0  0  0  0  0  0  0  0  0  0
    4.9600    0.4910    1.2710 C   0  0  0  0  0  0  0  0  0  0  0  0
    6.0850    0.5230    2.0800 C   0  0  0  0  0  0  0  0  0  0  0  0
    7.3130    0.2890    1.5240 C   0  0  0  0  0  0  0  0  0  0  0  0
    8.8780    0.3240    2.5990 Br  0  0  0  0  0  0  0  0  0  0  0  0
    7.4460    0.0230    0.1790 C   0  0  0  0  0  0  0  0  0  0  0  0
    6.3460   -0.0130   -0.6400 C   0  0  0  0  0  0  0  0  0  0  0  0
    6.4580   -0.2970   -2.0920 C   0  0  0  0  0  0  0  0  0  0  0  0
    5.0900    0.2260   -0.0720 C   0  0  0  0  0  0  0  0  0  0  0  0
    3.9750    0.1950   -0.8690 O   0  0  0  0  0  0  0  0  0  0  0  0
    2.6840    0.4260   -0.3930 C   0  0  0  0  0  0  0  0  0  0  0  0
  1  2  1  0
  2  3  1  0
  3  4  1  0
  4  5  1  0
  5  6  2  0
  5 10  1  0
  6  7  1  0
  7  8  2  0
  8  9  1  0
  9 10  2  0
 10 11  1  0
 11 12  1  0
 12 13  1  0
 13 14  2  0
 13 15  1  0
 15 16  1  0
 16 17  2  0
 16 27  1  0
 17 18  1  0
 18 19  2  0
 18 25  1  0
 19 20  1  0
 20 21  1  0
 20 22  2  0
 22 23  1  0
 23 24  1  0
 23 25  2  0
 25 26  1  0
 26 27  1  0
M  CHG  1   3   1
M  END
