
     RDKit          3D

 27 28  0  0  0  0  0  0  0  0999 V2000
    4.4340    4.7630    0.2050 C   0  0  0  0  0  0  0  0  0  0  0  0
    3.9990    3.4970    0.3050 C   0  0  0  0  0  0  0  0  0  0  0  0
    2.6720    3.2370   -0.1620 C   0  0  0  0  0  0  0  0  0  0  0  0
    2.0050    2.1010   -0.1810 C   0  0  0  0  0  0  0  0  0  0  0  0
    0.6370    2.0280   -0.7040 C   0  0  0  0  0  0  0  0  0  0  0  0
   -0.1080    0.9390   -0.7540 C   0  0  0  0  0  0  0  0  0  0  0  0
   -1.4590    0.9610   -1.3090 C   0  0  0  0  0  0  0  0  0  0  0  0
   -1.7760    1.7540   -2.4280 C   0  0  0  0  0  0  0  0  0  0  0  0
   -0.6340    2.8700   -3.4560 Br  0  0  0  0  0  0  0  0  0  0  0  0
   -3.1050    1.5680   -2.6830 C   0  0  0  0  0  0  0  0  0  0  0  0
   -3.6280    0.6870   -1.7580 C   0  0  0  0  0  0  0  0  0  0  0  0
   -5.0480    0.2590   -1.7260 C   0  0  0  0  0  0  0  0  0  0  0  0
   -2.5870    0.3370   -0.9240 N   0  0  0  0  0  0  0  0  0  0  0  0
   -2.8280   -0.3750    0.2780 C   0  0  0  0  0  0  0  0  0  0  0  0
   -2.1750   -0.1370    1.3970 C   0  0  0  0  0  0  0  0  0  0  0  0
   -2.4190   -0.8750    2.6410 C   0  0  0  0  0  0  0  0  0  0  0  0
   -3.8070   -1.4820    0.3190 C   0  0  0  0  0  0  0  0  0  0  0  0
   -3.4500   -2.5060   -0.6760 N   0  0  0  0  0  0  0  0  0  0  0  0
    0.4960   -0.2780   -0.2640 C   0  0  0  0  0  0  0  0  0  0  0  0
   -0.1070   -1.3740   -0.2820 O   0  0  0  0  0  0  0  0  0  0  0  0
    1.8290   -0.3200    0.2660 N   0  0  0  0  0  0  0  0  0  0  0  0
    2.4230   -1.5350    0.7560 C   0  0  0  0  0  0  0  0  0  0  0  0
    3.1480   -2.2590   -0.3520 C   0  0  0  0  0  0  0  0  0  0  0  0
    3.8930   -3.7930    0.2910 S   0  0  0  0  0  0  0  0  0  0  0  0
    5.1860   -3.3270    1.4690 C   0  0  0  0  0  0  0  0  0  0  0  0
    2.5920    0.8840    0.3110 C   0  0  0  0  0  0  0  0  0  0  0  0
    3.7480    0.8140    0.7830 O   0  0  0  0  0  0  0  0  0  0  0  0
  1  2  2  0
  2  3  1  0
  3  4  2  3
  4  5  1  0
  4 26  1  0
  5  6  2  0
  6  7  1  0
  6 19  1  0
  7  8  2  0
  7 13  1  0
  8  9  1  0
  8 10  1  0
 10 11  2  0
 11 12  1  0
 11 13  1  0
 13 14  1  0
 14 15  2  3
 14 17  1  0
 15 16  1  0
 17 18  1  0
 19 20  2  0
 19 21  1  0
 21 22  1  0
 21 26  1  0
 22 23  1  0
 23 24  1  0
 24 25  1  0
 26 27  2  0
M  CHG  1  18   1
M  END
