
     RDKit          3D

 27 29  0  0  0  0  0  0  0  0999 V2000
   -2.5600    0.1840    1.3580 C   0  0  0  0  0  0  0  0  0  0  0  0
   -2.5880   -0.6980    0.1640 C   0  0  1  0  0  0  0  0  0  0  0  0
   -3.7070   -1.7380    0.4680 C   0  0  0  0  0  0  0  0  0  0  0  0
   -3.1200    0.1640   -0.9880 C   0  0  0  0  0  0  0  0  0  0  0  0
   -4.5070    0.6190   -0.7960 C   0  0  0  0  0  0  0  0  0  0  0  0
   -4.9170    1.7470   -0.4210 N   0  0  0  0  0  0  0  0  0  0  0  0
   -6.3220    1.7570   -0.3680 C   0  0  0  0  0  0  0  0  0  0  0  0
   -7.1180    2.7530    0.0200 C   0  0  0  0  0  0  0  0  0  0  0  0
   -6.3420    4.4080    0.5990 Br  0  0  0  0  0  0  0  0  0  0  0  0
   -6.7460    0.4310   -0.7760 C   0  0  0  0  0  0  0  0  0  0  0  0
   -5.6660   -0.2640   -1.0350 C   0  0  0  0  0  0  0  0  0  0  0  0
   -1.4790   -1.4290   -0.2090 N   0  0  0  0  0  0  0  0  0  0  0  0
   -0.2240   -1.0940    0.3380 N   0  0  0  0  0  0  0  0  0  0  0  0
    0.7430   -2.1260    0.3720 C   0  0  0  0  0  0  0  0  0  0  0  0
    0.4190   -3.2980   -0.0660 O   0  0  0  0  0  0  0  0  0  0  0  0
    2.1170   -1.9970    0.8520 C   0  0  0  0  0  0  0  0  0  0  0  0
    3.1310   -1.6910   -0.6050 S   0  0  0  0  0  0  0  0  0  0  0  0
    3.1260   -0.0440   -1.2760 C   0  0  0  0  0  0  0  0  0  0  0  0
    3.9630    0.8910   -0.4770 C   0  0  0  0  0  0  0  0  0  0  0  0
    3.6840    2.0990    0.0320 C   0  0  0  0  0  0  0  0  0  0  0  0
    4.8100    2.6040    0.5570 O   0  0  0  0  0  0  0  0  0  0  0  0
    5.7870    1.7640    0.4010 C   0  0  0  0  0  0  0  0  0  0  0  0
    7.1440    1.7510    0.7440 C   0  0  0  0  0  0  0  0  0  0  0  0
    7.9690    0.6740    0.4470 C   0  0  0  0  0  0  0  0  0  0  0  0
    7.4210   -0.4140   -0.2110 C   0  0  0  0  0  0  0  0  0  0  0  0
    6.0780   -0.4360   -0.5670 C   0  0  0  0  0  0  0  0  0  0  0  0
    5.3140    0.6690   -0.2430 C   0  0  0  0  0  0  0  0  0  0  0  0
  2  1  1  1
  2  3  1  0
  2  4  1  0
  2 12  1  0
  4  5  1  0
  5  6  2  0
  5 11  1  0
  6  7  1  0
  7  8  2  3
  7 10  1  0
  8  9  1  0
 10 11  2  0
 12 13  1  0
 13 14  1  0
 14 15  2  0
 14 16  1  0
 16 17  1  0
 17 18  1  0
 18 19  1  0
 19 20  2  0
 19 27  1  0
 20 21  1  0
 21 22  1  0
 22 23  2  0
 22 27  1  0
 23 24  1  0
 24 25  2  0
 25 26  1  0
 26 27  2  0
M  CHG  1  12   1
M  END
