
     RDKit          3D

 27 29  0  0  0  0  0  0  0  0999 V2000
   -4.0210    1.6100    2.8050 C   0  0  0  0  0  0  0  0  0  0  0  0
   -4.7030    0.5710    2.3960 C   0  0  0  0  0  0  0  0  0  0  0  0
   -4.6050    0.0320    1.0350 C   0  0  0  0  0  0  0  0  0  0  0  0
   -5.3690   -1.0100    0.7810 C   0  0  0  0  0  0  0  0  0  0  0  0
   -5.4920   -1.7660   -0.4760 C   0  0  0  0  0  0  0  0  0  0  0  0
   -4.9840   -3.6100   -0.0330 Br  0  0  0  0  0  0  0  0  0  0  0  0
   -3.7440    0.6150    0.0110 C   0  0  0  0  0  0  0  0  0  0  0  0
   -2.3160    0.5520    0.3030 N   0  0  2  0  0  0  0  0  0  0  0  0
   -1.6470    1.7650   -0.0390 C   0  0  0  0  0  0  0  0  0  0  0  0
   -1.1110    1.7740   -1.4790 C   0  0  0  0  0  0  0  0  0  0  0  0
   -0.0790    0.7080   -1.4780 C   0  0  0  0  0  0  0  0  0  0  0  0
   -0.4390   -0.4840   -0.9080 C   0  0  0  0  0  0  0  0  0  0  0  0
    0.4650   -1.4700   -0.8750 N   0  0  0  0  0  0  0  0  0  0  0  0
    1.6990   -1.3180   -1.3820 C   0  0  0  0  0  0  0  0  0  0  0  0
    2.8930   -2.6800   -1.3250 S   0  0  0  0  0  0  0  0  0  0  0  0
    3.8780   -2.5670    0.2020 C   0  0  0  0  0  0  0  0  0  0  0  0
    4.7080   -1.3410    0.1240 C   0  0  0  0  0  0  0  0  0  0  0  0
    5.9680   -1.3790   -0.4240 C   0  0  0  0  0  0  0  0  0  0  0  0
    6.7210   -0.2210   -0.4850 C   0  0  0  0  0  0  0  0  0  0  0  0
    6.2350    0.9800   -0.0070 C   0  0  0  0  0  0  0  0  0  0  0  0
    4.9790    1.0230    0.5400 C   0  0  0  0  0  0  0  0  0  0  0  0
    4.4920    2.2230    1.0180 O   0  0  0  0  0  0  0  0  0  0  0  0
    4.2320   -0.1450    0.5970 C   0  0  0  0  0  0  0  0  0  0  0  0
    2.0450   -0.1440   -1.9400 N   0  0  0  0  0  0  0  0  0  0  0  0
    1.1760    0.8750   -1.9970 C   0  0  0  0  0  0  0  0  0  0  0  0
    1.5280    1.9850   -2.5340 O   0  0  0  0  0  0  0  0  0  0  0  0
   -1.8140   -0.6130   -0.3780 C   0  0  0  0  0  0  0  0  0  0  0  0
  1  2  2  0
  2  3  1  0
  3  4  2  3
  3  7  1  0
  4  5  1  0
  5  6  1  0
  8  7  1  6
  8  9  1  0
  8 27  1  0
  9 10  1  0
 10 11  1  0
 11 12  2  0
 11 25  1  0
 12 13  1  0
 12 27  1  0
 13 14  2  0
 14 15  1  0
 14 24  1  0
 15 16  1  0
 16 17  1  0
 17 18  2  0
 17 23  1  0
 18 19  1  0
 19 20  2  0
 20 21  1  0
 21 22  1  0
 21 23  2  0
 24 25  1  0
 25 26  2  0
M  CHG  1   8   1
M  END
