
     RDKit          3D

 27 29  0  0  0  0  0  0  0  0999 V2000
   -8.3310   -2.8300    0.2950 C   0  0  0  0  0  0  0  0  0  0  0  0
   -7.3370   -2.0330    0.1270 C   0  0  0  0  0  0  0  0  0  0  0  0
   -6.2340   -1.1320   -0.0490 C   0  0  0  0  0  0  0  0  0  0  0  0
   -6.6070    0.2040   -0.2300 O   0  0  0  0  0  0  0  0  0  0  0  0
   -5.6030    1.1950   -0.2030 C   0  0  0  0  0  0  0  0  0  0  0  0
   -4.3080    0.8250   -0.0770 C   0  0  0  0  0  0  0  0  0  0  0  0
   -3.2990    1.7880   -0.0000 C   0  0  0  0  0  0  0  0  0  0  0  0
   -1.9110    1.2280    0.2070 C   0  0  0  0  0  0  0  0  0  0  0  0
   -1.3900    0.2590    0.4830 N   0  0  0  0  0  0  0  0  0  0  0  0
   -0.0900   -0.0120    0.6050 C   0  0  0  0  0  0  0  0  0  0  0  0
    0.7150    1.0840    0.3330 C   0  0  0  0  0  0  0  0  0  0  0  0
    2.2090    1.1780    0.2170 C   0  0  0  0  0  0  0  0  0  0  0  0
    2.6520   -0.1020   -0.1350 N   0  0  2  0  0  0  0  0  0  0  0  0
    2.8600   -0.8820    1.0880 C   0  0  0  0  0  0  0  0  0  0  0  0
    3.7100   -0.3390   -1.0510 C   0  0  0  0  0  0  0  0  0  0  0  0
    4.9830   -0.6700   -0.3540 C   0  0  0  0  0  0  0  0  0  0  0  0
    5.8400    0.1220    0.3330 C   0  0  0  0  0  0  0  0  0  0  0  0
    7.0050   -0.6350    0.5780 C   0  0  0  0  0  0  0  0  0  0  0  0
    8.6040   -0.0620    1.4100 Br  0  0  0  0  0  0  0  0  0  0  0  0
    6.7700   -1.8600    0.0180 N   0  0  0  0  0  0  0  0  0  0  0  0
    5.5890   -1.8940   -0.5300 C   0  0  0  0  0  0  0  0  0  0  0  0
    4.9400   -3.0660   -1.2120 C   0  0  0  0  0  0  0  0  0  0  0  0
   -0.4440    2.3620   -0.0350 S   0  0  0  0  0  0  0  0  0  0  0  0
   -3.5560    3.1080   -0.0700 C   0  0  0  0  0  0  0  0  0  0  0  0
   -4.8660    3.5100   -0.2120 C   0  0  0  0  0  0  0  0  0  0  0  0
   -5.9360    2.5440   -0.2760 C   0  0  0  0  0  0  0  0  0  0  0  0
   -7.2190    2.9700   -0.4220 O   0  0  0  0  0  0  0  0  0  0  0  0
  1  2  3  0
  2  3  1  0
  3  4  1  0
  4  5  1  0
  5  6  2  0
  5 26  1  0
  6  7  1  0
  7  8  1  0
  7 24  2  0
  8  9  2  0
  8 23  1  0
  9 10  1  0
 10 11  2  0
 11 12  1  0
 11 23  1  0
 12 13  1  0
 13 14  1  1
 13 15  1  0
 15 16  1  0
 16 17  1  0
 16 21  2  0
 17 18  2  0
 18 19  1  0
 18 20  1  0
 20 21  1  0
 21 22  1  0
 24 25  1  0
 25 26  2  0
 26 27  1  0
M  CHG  1  13   1
M  END
