
     RDKit          3D

 27 29  0  0  0  0  0  0  0  0999 V2000
    6.1720    2.1120    0.1300 C   0  0  0  0  0  0  0  0  0  0  0  0
    5.0450    2.7670    0.8170 C   0  0  0  0  0  0  0  0  0  0  0  0
    4.0230    1.9190    1.4810 C   0  0  0  0  0  0  0  0  0  0  0  0
    3.2930    1.0380    0.8030 O   0  0  0  0  0  0  0  0  0  0  0  0
    3.3030   -0.0790    0.0700 C   0  0  0  0  0  0  0  0  0  0  0  0
    4.4290   -0.7970   -0.2100 C   0  0  0  0  0  0  0  0  0  0  0  0
    4.3820   -1.9400   -0.9740 C   0  0  0  0  0  0  0  0  0  0  0  0
    3.1820   -2.3800   -1.4730 C   0  0  0  0  0  0  0  0  0  0  0  0
    2.0310   -1.6770   -1.2060 C   0  0  0  0  0  0  0  0  0  0  0  0
    2.0520   -0.5510   -0.4570 C   0  0  0  0  0  0  0  0  0  0  0  0
    0.9880    0.1760   -0.1570 O   0  0  0  0  0  0  0  0  0  0  0  0
   -0.3080    0.4250   -0.2050 C   0  0  0  0  0  0  0  0  0  0  0  0
   -1.3060   -0.5340    0.3600 C   0  0  1  0  0  0  0  0  0  0  0  0
   -2.7160    0.0540    0.1920 C   0  0  0  0  0  0  0  0  0  0  0  0
   -2.8820    1.6190    1.0420 S   0  0  0  0  0  0  0  0  0  0  0  0
   -4.5390    2.2340    0.8000 C   0  0  0  0  0  0  0  0  0  0  0  0
   -5.5050    1.6670    0.1200 C   0  0  0  0  0  0  0  0  0  0  0  0
   -6.7100    2.5210    0.1810 C   0  0  0  0  0  0  0  0  0  0  0  0
   -6.2940    3.6700    1.0000 C   0  0  0  0  0  0  0  0  0  0  0  0
   -5.0330    3.4890    1.3520 C   0  0  0  0  0  0  0  0  0  0  0  0
   -4.0600    4.7430    2.4340 Br  0  0  0  0  0  0  0  0  0  0  0  0
   -1.3370   -1.8170   -0.2740 N   0  0  0  0  0  0  0  0  0  0  0  0
   -1.7630   -2.0020   -1.6440 C   0  0  0  0  0  0  0  0  0  0  0  0
   -1.4420   -3.4210   -1.9440 C   0  0  0  0  0  0  0  0  0  0  0  0
   -1.0540   -3.9950   -0.6850 N   0  0  0  0  0  0  0  0  0  0  0  0
   -0.9990   -3.0970    0.2290 C   0  0  0  0  0  0  0  0  0  0  0  0
   -0.6510   -3.3170    1.5780 N   0  0  0  0  0  0  0  0  0  0  0  0
  1  2  1  0
  2  3  1  0
  3  4  1  0
  4  5  1  0
  5  6  2  0
  5 10  1  0
  6  7  1  0
  7  8  2  0
  8  9  1  0
  9 10  2  0
 10 11  1  0
 11 12  1  0
 13 12  1  6
 13 14  1  0
 13 22  1  0
 14 15  1  0
 15 16  1  0
 16 17  2  0
 16 20  1  0
 17 18  1  0
 18 19  1  0
 19 20  2  0
 20 21  1  0
 22 23  1  0
 22 26  1  0
 23 24  1  0
 24 25  1  0
 25 26  2  0
 26 27  1  0
M  CHG  1  25   1
M  END
