
     RDKit          3D

 13 14  0  0  0  0  0  0  0  0999 V2000
    4.4140   -0.7600    0.0200 N   0  0  0  0  0  0  0  0  0  0  0  0
    3.1220   -0.1720    0.0040 C   0  0  0  0  0  0  0  0  0  0  0  0
    2.8800    1.1250   -0.1920 N   0  0  0  0  0  0  0  0  0  0  0  0
    1.5510    1.3740   -0.1500 C   0  0  0  0  0  0  0  0  0  0  0  0
    0.9470    0.1590    0.0850 C   0  0  0  0  0  0  0  0  0  0  0  0
   -0.5070   -0.0180    0.2050 C   0  0  0  0  0  0  0  0  0  0  0  0
   -1.0640   -1.2580    0.4420 C   0  0  0  0  0  0  0  0  0  0  0  0
   -2.4370   -1.4140    0.5520 C   0  0  0  0  0  0  0  0  0  0  0  0
   -3.3010   -0.3420    0.4310 C   0  0  0  0  0  0  0  0  0  0  0  0
   -2.7460    0.8980    0.1940 C   0  0  0  0  0  0  0  0  0  0  0  0
   -3.6080    1.9780    0.0710 O   0  0  0  0  0  0  0  0  0  0  0  0
   -1.3790    1.0440    0.0850 C   0  0  0  0  0  0  0  0  0  0  0  0
    1.9120   -0.7450    0.1730 N   0  0  0  0  0  0  0  0  0  0  0  0
  1  2  1  0
  2  3  2  0
  2 13  1  0
  3  4  1  0
  4  5  2  0
  5  6  1  0
  5 13  1  0
  6  7  2  0
  6 12  1  0
  7  8  1  0
  8  9  2  0
  9 10  1  0
 10 11  1  0
 10 12  2  0
M  END
