
     RDKit          3D

 13 13  0  0  0  0  0  0  0  0999 V2000
    4.9300    0.5030   -0.0400 N   0  0  0  0  0  0  0  0  0  0  0  0
    3.5300    0.7440   -0.1060 C   0  0  0  0  0  0  0  0  0  0  0  0
    2.9700    2.2760   -0.1210 S   0  0  0  0  0  0  0  0  0  0  0  0
    2.6240   -0.4210   -0.1580 C   0  0  0  0  0  0  0  0  0  0  0  0
    1.2110   -0.0250   -0.2240 C   0  0  0  0  0  0  0  0  0  0  0  0
    0.9000    1.1850   -0.2300 O   0  0  0  0  0  0  0  0  0  0  0  0
    0.1760   -0.9800   -0.2810 N   0  0  0  0  0  0  0  0  0  0  0  0
   -1.1750   -0.5120   -0.3430 C   0  0  0  0  0  0  0  0  0  0  0  0
   -2.0430   -0.8370    0.5980 C   0  0  0  0  0  0  0  0  0  0  0  0
   -3.4340   -0.4080    0.6180 C   0  0  0  0  0  0  0  0  0  0  0  0
   -3.8210    0.4240   -0.4950 N   0  0  0  0  0  0  0  0  0  0  0  0
   -2.8570    0.7450   -1.4780 C   0  0  0  0  0  0  0  0  0  0  0  0
   -1.6200    0.3260   -1.4380 C   0  0  0  0  0  0  0  0  0  0  0  0
  1  2  1  0
  2  3  2  0
  2  4  1  0
  4  5  1  0
  5  6  2  0
  5  7  1  0
  7  8  1  0
  8  9  2  0
  8 13  1  0
  9 10  1  0
 10 11  1  0
 11 12  1  0
 12 13  2  0
M  END
