
     RDKit          3D

 13 13  0  0  0  0  0  0  0  0999 V2000
    4.4980   -1.4270    0.4960 N   0  0  0  0  0  0  0  0  0  0  0  0
    3.3540   -0.7690    0.0050 C   0  0  0  0  0  0  0  0  0  0  0  0
    2.4180   -1.5010   -1.0930 S   0  0  0  0  0  0  0  0  0  0  0  0
    3.0150    0.5780    0.4860 C   0  0  0  0  0  0  0  0  0  0  0  0
    1.8090    1.1060   -0.0770 N   0  0  0  0  0  0  0  0  0  0  0  0
    0.5210    0.4810    0.0820 C   0  0  0  0  0  0  0  0  0  0  0  0
    0.4750   -0.5650    0.7440 O   0  0  0  0  0  0  0  0  0  0  0  0
   -0.6460    1.0230   -0.4850 N   0  0  0  0  0  0  0  0  0  0  0  0
   -1.9280    0.4450   -0.3560 C   0  0  0  0  0  0  0  0  0  0  0  0
   -2.2940   -0.6450    0.2750 C   0  0  0  0  0  0  0  0  0  0  0  0
   -3.7530   -0.8540    0.1340 C   0  0  0  0  0  0  0  0  0  0  0  0
   -4.1840    0.2850   -0.6780 C   0  0  0  0  0  0  0  0  0  0  0  0
   -3.1330    1.0320   -0.9590 C   0  0  0  0  0  0  0  0  0  0  0  0
  1  2  1  0
  2  3  2  0
  2  4  1  0
  4  5  1  0
  5  6  1  0
  6  7  2  0
  6  8  1  0
  8  9  1  0
  9 10  2  0
  9 13  1  0
 10 11  1  0
 11 12  1  0
 12 13  2  0
M  END
