
     RDKit          3D

 13 13  0  0  0  0  0  0  0  0999 V2000
   -3.4820    1.6500    3.2700 N   0  0  0  0  0  0  0  0  0  0  0  0
   -2.5070    0.6240    3.1700 C   0  0  0  0  0  0  0  0  0  0  0  0
   -2.2680   -0.1410    4.1660 O   0  0  0  0  0  0  0  0  0  0  0  0
   -1.7350    0.3610    2.0060 N   0  0  0  0  0  0  0  0  0  0  0  0
   -0.7730   -0.6670    1.9440 C   0  0  0  0  0  0  0  0  0  0  0  0
   -0.4830   -1.6420    3.2490 S   0  0  0  0  0  0  0  0  0  0  0  0
    0.0280   -0.8560    0.7950 N   0  0  0  0  0  0  0  0  0  0  0  0
   -0.1210   -0.0100   -0.3570 C   0  0  0  0  0  0  0  0  0  0  0  0
    0.9900   -0.2100   -1.3320 C   0  0  0  0  0  0  0  0  0  0  0  0
    1.8370    0.7360   -1.7550 C   0  0  0  0  0  0  0  0  0  0  0  0
    2.8120    0.1750   -2.7180 C   0  0  0  0  0  0  0  0  0  0  0  0
    2.4100   -1.2450   -2.7890 C   0  0  0  0  0  0  0  0  0  0  0  0
    1.3720   -1.4330   -1.9920 C   0  0  0  0  0  0  0  0  0  0  0  0
  1  2  1  0
  2  3  2  0
  2  4  1  0
  4  5  1  0
  5  6  2  0
  5  7  1  0
  7  8  1  0
  8  9  1  0
  9 10  2  0
  9 13  1  0
 10 11  1  0
 11 12  1  0
 12 13  2  0
M  END
