
     RDKit          3D

 18 21  0  0  0  0  0  0  0  0999 V2000
   -4.8190   -0.7000   -0.8460 C   0  0  0  0  0  0  0  0  0  0  0  0
   -3.8270    0.0750   -0.1410 N   0  0  0  0  0  0  0  0  0  0  0  0
   -4.1050    0.9190    1.0010 C   0  0  0  0  0  0  0  0  0  0  0  0
   -2.8700    0.6640    1.8320 C   0  0  0  0  0  0  0  0  0  0  0  0
   -1.8280    0.5630    0.7850 C   0  0  0  0  0  0  0  0  0  0  0  0
   -2.4290    0.2170   -0.3480 C   0  0  0  0  0  0  0  0  0  0  0  0
   -1.6570    0.0220   -1.6280 C   0  0  0  0  0  0  0  0  0  0  0  0
   -0.2870   -0.4940   -1.1870 C   0  0  0  0  0  0  0  0  0  0  0  0
    0.3490    0.6420   -0.4010 C   0  0  2  0  0  0  0  0  0  0  0  0
    1.7750    0.2880   -0.1790 C   0  0  0  0  0  0  0  0  0  0  0  0
    2.2730   -0.8180    0.4690 C   0  0  0  0  0  0  0  0  0  0  0  0
    3.6290   -0.7590    0.4500 N   0  0  0  0  0  0  0  0  0  0  0  0
    3.9890    0.3590   -0.1960 C   0  0  0  0  0  0  0  0  0  0  0  0
    2.8480    0.9840   -0.5710 N   0  0  0  0  0  0  0  0  0  0  0  0
    5.4690    0.4130   -0.2100 C   0  0  0  0  0  0  0  0  0  0  0  0
    5.8810   -0.8130    0.5060 C   0  0  0  0  0  0  0  0  0  0  0  0
    4.7820   -1.4460    0.8610 C   0  0  0  0  0  0  0  0  0  0  0  0
   -0.3690    0.7890    0.9010 C   0  0  0  0  0  0  0  0  0  0  0  0
  1  2  1  0
  2  3  1  0
  2  6  1  0
  3  4  1  0
  4  5  1  0
  5  6  2  0
  5 18  1  0
  6  7  1  0
  7  8  1  0
  8  9  1  0
  9 10  1  1
  9 18  1  0
 10 11  2  0
 10 14  1  0
 11 12  1  0
 12 13  1  0
 12 17  1  0
 13 14  2  0
 13 15  1  0
 15 16  1  0
 16 17  2  0
M  END
