
     RDKit          3D

 24 25  0  0  0  0  0  0  0  0999 V2000
   -4.5560    1.5140   -1.9360 N   0  0  0  0  0  0  0  0  0  0  0  0
   -3.3090    1.0170   -1.4880 C   0  0  0  0  0  0  0  0  0  0  0  0
   -3.1310    0.3680   -0.3540 C   0  0  0  0  0  0  0  0  0  0  0  0
   -4.6200    0.1340    0.6440 S   0  0  0  0  0  0  0  0  0  0  0  0
   -4.5000   -1.4850    1.4920 C   0  0  0  0  0  0  0  0  0  0  0  0
   -3.1330   -2.0230    1.0520 C   0  0  1  0  0  0  0  0  0  0  0  0
   -3.2570   -2.2780   -0.3220 O   0  0  0  0  0  0  0  0  0  0  0  0
   -2.0470   -1.0250    1.2910 C   0  0  2  0  0  0  0  0  0  0  0  0
   -2.2940   -0.2030    2.3890 O   0  0  0  0  0  0  0  0  0  0  0  0
   -1.8070   -0.1440    0.0880 C   0  0  1  0  0  0  0  0  0  0  0  0
   -1.2660   -0.8290   -0.9930 O   0  0  0  0  0  0  0  0  0  0  0  0
   -0.8800    0.9980    0.4110 C   0  0  2  0  0  0  0  0  0  0  0  0
   -0.7640    1.8660   -0.7010 O   0  0  0  0  0  0  0  0  0  0  0  0
    0.4720    0.6100    0.7770 C   0  0  0  0  0  0  0  0  0  0  0  0
    0.6640   -0.1580    1.7540 O   0  0  0  0  0  0  0  0  0  0  0  0
    1.6400    1.0500    0.0850 N   0  0  0  0  0  0  0  0  0  0  0  0
    2.9740    0.6790    0.4310 C   0  0  2  0  0  0  0  0  0  0  0  0
    3.8330    1.8630    0.8190 C   0  0  0  0  0  0  0  0  0  0  0  0
    3.9560    2.7980   -0.1900 O   0  0  0  0  0  0  0  0  0  0  0  0
    3.6710   -0.0770   -0.6880 C   0  0  1  0  0  0  0  0  0  0  0  0
    5.0020   -0.5930   -0.1820 C   0  0  0  0  0  0  0  0  0  0  0  0
    5.0850   -1.9180   -0.5930 O   0  0  0  0  0  0  0  0  0  0  0  0
    3.9320   -2.2100   -1.2800 C   0  0  0  0  0  0  0  0  0  0  0  0
    2.9920   -1.2440   -1.0050 O   0  0  0  0  0  0  0  0  0  0  0  0
  1  2  1  0
  2  3  2  3
  3  4  1  0
  3 10  1  0
  4  5  1  0
  5  6  1  0
  6  7  1  6
  6  8  1  0
  8  9  1  1
  8 10  1  0
 10 11  1  6
 10 12  1  0
 12 13  1  6
 12 14  1  0
 14 15  2  0
 14 16  1  0
 16 17  1  0
 17 18  1  6
 17 20  1  0
 18 19  1  0
 20 21  1  1
 20 24  1  0
 21 22  1  0
 22 23  1  0
 23 24  1  0
M  END
