
     RDKit          3D

 13 14  0  0  0  0  0  0  0  0999 V2000
   -4.4780   -0.6620   -0.4000 N   0  0  0  0  0  0  0  0  0  0  0  0
   -3.2640   -0.2970    0.3050 C   0  0  0  0  0  0  0  0  0  0  0  0
   -3.3200    0.0830    1.4950 O   0  0  0  0  0  0  0  0  0  0  0  0
   -2.0290   -0.3750   -0.3600 N   0  0  0  0  0  0  0  0  0  0  0  0
   -0.7650   -0.0510    0.1880 C   0  0  0  0  0  0  0  0  0  0  0  0
   -0.5680    0.5490    1.3910 C   0  0  0  0  0  0  0  0  0  0  0  0
    0.7120    0.8340    1.8850 C   0  0  0  0  0  0  0  0  0  0  0  0
    1.7870    0.4930    1.1220 C   0  0  0  0  0  0  0  0  0  0  0  0
    1.6620   -0.1130   -0.0980 C   0  0  0  0  0  0  0  0  0  0  0  0
    0.3560   -0.3750   -0.5420 C   0  0  0  0  0  0  0  0  0  0  0  0
    2.8510   -0.4140   -0.7680 N   0  0  0  0  0  0  0  0  0  0  0  0
    3.9490    0.4740   -0.4510 C   0  0  0  0  0  0  0  0  0  0  0  0
    3.5780    0.6880    1.3490 S   0  0  0  0  0  0  0  0  0  0  0  0
  1  2  1  0
  2  3  2  0
  2  4  1  0
  4  5  1  0
  5  6  2  0
  5 10  1  0
  6  7  1  0
  7  8  2  0
  8  9  1  0
  8 13  1  0
  9 10  2  0
  9 11  1  0
 11 12  1  0
 12 13  1  0
M  END
