
     RDKit          3D

 18 20  0  0  0  0  0  0  0  0999 V2000
    4.1350    0.6460    1.4280 C   0  0  0  0  0  0  0  0  0  0  0  0
    2.9640   -0.0500    1.7120 O   0  0  0  0  0  0  0  0  0  0  0  0
    1.8290    0.6090    1.3380 C   0  0  0  0  0  0  0  0  0  0  0  0
    1.5480    0.8110   -0.0940 C   0  0  0  0  0  0  0  0  0  0  0  0
    1.2820   -0.3970   -0.9390 C   0  0  1  0  0  0  0  0  0  0  0  0
    2.3780   -1.3390   -0.9610 C   0  0  0  0  0  0  0  0  0  0  0  0
    1.6940   -2.8820   -0.1940 S   0  0  0  0  0  0  0  0  0  0  0  0
    0.0170   -2.4380   -0.7160 C   0  0  0  0  0  0  0  0  0  0  0  0
   -1.1350   -2.8880   -1.0710 N   0  0  0  0  0  0  0  0  0  0  0  0
   -1.9900   -1.7850   -1.3430 C   0  0  0  0  0  0  0  0  0  0  0  0
   -2.9910   -1.7610   -2.0860 O   0  0  0  0  0  0  0  0  0  0  0  0
   -1.3780   -0.6720   -0.5080 C   0  0  1  0  0  0  0  0  0  0  0  0
   -1.8050    0.5940   -1.1280 C   0  0  0  0  0  0  0  0  0  0  0  0
   -2.2780    1.6890   -0.2450 C   0  0  0  0  0  0  0  0  0  0  0  0
   -3.2220    1.0770    0.7710 C   0  0  0  0  0  0  0  0  0  0  0  0
   -2.3330    0.2240    1.6520 C   0  0  0  0  0  0  0  0  0  0  0  0
   -1.7120   -0.9150    0.9070 C   0  0  0  0  0  0  0  0  0  0  0  0
    0.0200   -1.0250   -0.7250 N   0  0  0  0  0  0  0  0  0  0  0  0
  1  2  1  0
  2  3  1  0
  3  4  1  0
  5  4  1  1
  5  6  1  0
  5 18  1  0
  6  7  1  0
  7  8  1  0
  8  9  2  0
  8 18  1  0
  9 10  1  0
 10 11  2  0
 10 12  1  0
 12 13  1  6
 12 17  1  0
 12 18  1  0
 13 14  1  0
 14 15  1  0
 15 16  1  0
 16 17  1  0
M  END
