
     RDKit          3D

 19 21  0  0  0  0  0  0  0  0999 V2000
    4.9200   -2.7400    0.1710 O   0  0  0  0  0  0  0  0  0  0  0  0
    4.0810   -1.8080    0.2520 C   0  0  0  0  0  0  0  0  0  0  0  0
    2.9650   -1.4550   -0.6710 C   0  0  0  0  0  0  0  0  0  0  0  0
    2.7040   -0.0110   -0.3070 C   0  0  1  0  0  0  0  0  0  0  0  0
    1.3360    0.3700   -0.4690 N   0  0  0  0  0  0  0  0  0  0  0  0
    0.1910   -0.2420    0.2220 C   0  0  0  0  0  0  0  0  0  0  0  0
   -0.7700    0.9120    0.2460 C   0  0  2  0  0  0  0  0  0  0  0  0
   -2.1740    0.4950    0.5220 C   0  0  0  0  0  0  0  0  0  0  0  0
   -2.4690   -0.7300    0.8370 C   0  0  0  0  0  0  0  0  0  0  0  0
   -3.7520   -1.3610    1.1460 C   0  0  0  0  0  0  0  0  0  0  0  0
   -5.1330   -0.2290    1.0700 S   0  0  0  0  0  0  0  0  0  0  0  0
   -4.4610    1.3670    0.6230 C   0  0  0  0  0  0  0  0  0  0  0  0
   -3.1740    1.5430    0.4160 C   0  0  0  0  0  0  0  0  0  0  0  0
   -0.6100    1.4640   -1.1600 C   0  0  0  0  0  0  0  0  0  0  0  0
    0.8650    1.4000   -1.3240 C   0  0  0  0  0  0  0  0  0  0  0  0
    1.5320    2.1380   -2.0860 O   0  0  0  0  0  0  0  0  0  0  0  0
    3.1490    0.1410    1.0880 C   0  0  0  0  0  0  0  0  0  0  0  0
    2.7630    1.0060    1.8920 O   0  0  0  0  0  0  0  0  0  0  0  0
    4.0920   -0.8730    1.3490 N   0  0  0  0  0  0  0  0  0  0  0  0
  1  2  2  0
  2  3  1  0
  2 19  1  0
  3  4  1  0
  4  5  1  1
  4 17  1  0
  5  6  1  0
  5 15  1  0
  6  7  1  0
  7  8  1  6
  7 14  1  0
  8  9  2  0
  8 13  1  0
  9 10  1  0
 10 11  1  0
 11 12  1  0
 12 13  2  0
 14 15  1  0
 15 16  2  0
 17 18  2  0
 17 19  1  0
M  END
