
     RDKit          3D

 19 21  0  0  0  0  0  0  0  0999 V2000
    4.3180    0.2050   -0.3640 C   0  0  0  0  0  0  0  0  0  0  0  0
    2.9030    0.7840   -0.4870 C   0  0  2  0  0  0  0  0  0  0  0  0
    2.7090    1.6740    0.7160 C   0  0  0  0  0  0  0  0  0  0  0  0
    1.9640   -0.4140   -0.4420 C   0  0  1  0  0  0  0  0  0  0  0  0
    2.1490   -1.0950    0.8000 N   0  0  0  0  0  0  0  0  0  0  0  0
    1.1300   -2.5220    0.7920 S   0  0  1  0  0  0  0  0  0  0  0  0
    1.5550   -3.4750   -0.2590 O   0  0  0  0  0  0  0  0  0  0  0  0
    1.0930   -3.1270    2.1670 O   0  0  0  0  0  0  0  0  0  0  0  0
   -0.4860   -1.8680    0.4750 C   0  0  0  0  0  0  0  0  0  0  0  0
   -1.5720   -2.5700    0.6650 C   0  0  0  0  0  0  0  0  0  0  0  0
   -2.8840   -1.9870    0.3880 C   0  0  0  0  0  0  0  0  0  0  0  0
   -2.8590   -0.6490   -0.2670 C   0  0  0  0  0  0  0  0  0  0  0  0
   -1.7270    0.2150    0.2410 C   0  0  2  0  0  0  0  0  0  0  0  0
   -1.7490    1.5910   -0.3300 C   0  0  2  0  0  0  0  0  0  0  0  0
   -3.0390    2.3770   -0.0250 C   0  0  0  0  0  0  0  0  0  0  0  0
   -2.6350    2.0070   -1.4150 C   0  0  0  0  0  0  0  0  0  0  0  0
   -0.5130   -0.5190   -0.0050 N   0  0  0  0  0  0  0  0  0  0  0  0
    0.5850    0.0640   -0.6890 C   0  0  0  0  0  0  0  0  0  0  0  0
    0.4020    1.0010   -1.5200 O   0  0  0  0  0  0  0  0  0  0  0  0
  2  1  1  1
  2  3  1  0
  2  4  1  0
  4  5  1  1
  4 18  1  0
  6  5  1  1
  6  7  2  0
  6  8  2  0
  6  9  1  0
  9 10  2  0
  9 17  1  0
 10 11  1  0
 11 12  1  0
 13 12  1  6
 13 14  1  0
 13 17  1  0
 14 15  1  1
 14 16  1  0
 15 16  1  0
 17 18  1  0
 18 19  2  0
M  END
