
     RDKit          3D

 19 20  0  0  0  0  0  0  0  0999 V2000
    1.8320   -0.3010    3.4510 C   0  0  0  0  0  0  0  0  0  0  0  0
    2.2740   -0.2670    2.2240 C   0  0  0  0  0  0  0  0  0  0  0  0
    3.5080    0.3420    2.0070 O   0  0  0  0  0  0  0  0  0  0  0  0
    1.5090   -0.8510    1.0810 C   0  0  0  0  0  0  0  0  0  0  0  0
    2.0580   -0.7690   -0.1350 C   0  0  0  0  0  0  0  0  0  0  0  0
    1.6160   -1.2220   -1.4100 C   0  0  0  0  0  0  0  0  0  0  0  0
    0.6360   -1.1500   -2.2100 C   0  0  0  0  0  0  0  0  0  0  0  0
   -0.6620   -0.5040   -2.2370 C   0  0  0  0  0  0  0  0  0  0  0  0
   -0.9000    0.7520   -1.8640 C   0  0  0  0  0  0  0  0  0  0  0  0
   -2.3250    1.1180   -2.0180 C   0  0  0  0  0  0  0  0  0  0  0  0
   -3.0090   -0.2240   -2.1820 C   0  0  0  0  0  0  0  0  0  0  0  0
   -1.9290   -1.0740   -2.6600 N   0  0  0  0  0  0  0  0  0  0  0  0
    0.4170    1.8160   -1.2170 S   0  0  0  0  0  0  0  0  0  0  0  0
    0.0020    2.2160    0.5300 C   0  0  0  0  0  0  0  0  0  0  0  0
   -1.2340    1.4320    0.9100 C   0  0  0  0  0  0  0  0  0  0  0  0
   -2.1460    2.0000    1.5640 O   0  0  0  0  0  0  0  0  0  0  0  0
   -1.3200    0.1330    0.5290 O   0  0  0  0  0  0  0  0  0  0  0  0
   -0.9590   -1.0040    1.1410 N   0  0  0  0  0  0  0  0  0  0  0  0
    0.2320   -1.4460    1.3910 C   0  0  0  0  0  0  0  0  0  0  0  0
  1  2  2  0
  2  3  1  0
  2  4  1  0
  4  5  2  0
  4 19  1  0
  5  6  1  0
  6  7  2  0
  7  8  1  0
  8  9  2  0
  8 12  1  0
  9 10  1  0
  9 13  1  0
 10 11  1  0
 11 12  1  0
 13 14  1  0
 14 15  1  0
 15 16  2  0
 15 17  1  0
 17 18  1  0
 18 19  2  0
M  END
