
     RDKit          3D

 29 31  0  0  0  0  0  0  0  0999 V2000
   -5.1110   -2.7250   -2.1840 C   0  0  0  0  0  0  0  0  0  0  0  0
   -4.3010   -1.5240   -2.5340 C   0  0  0  0  0  0  0  0  0  0  0  0
   -3.6570   -0.8940   -1.4750 O   0  0  0  0  0  0  0  0  0  0  0  0
   -4.2230   -0.3260   -0.3600 C   0  0  0  0  0  0  0  0  0  0  0  0
   -5.6110   -0.3500   -0.2180 C   0  0  0  0  0  0  0  0  0  0  0  0
   -6.2450    0.1880    0.8500 C   0  0  0  0  0  0  0  0  0  0  0  0
   -5.4810    0.7800    1.8270 C   0  0  0  0  0  0  0  0  0  0  0  0
   -4.1110    0.8200    1.7140 C   0  0  0  0  0  0  0  0  0  0  0  0
   -3.4520    0.2570    0.5990 C   0  0  0  0  0  0  0  0  0  0  0  0
   -2.0050    0.3390    0.5510 C   0  0  0  0  0  0  0  0  0  0  0  0
   -1.3750    0.9170    1.5240 O   0  0  0  0  0  0  0  0  0  0  0  0
   -1.1860   -0.1640   -0.4810 N   0  0  0  0  0  0  0  0  0  0  0  0
    0.2300   -0.0150   -0.4010 N   0  0  0  0  0  0  0  0  0  0  0  0
    0.8540    1.2380   -0.3980 C   0  0  0  0  0  0  0  0  0  0  0  0
    0.1390    2.2670   -0.4660 O   0  0  0  0  0  0  0  0  0  0  0  0
    2.3180    1.3850   -0.3170 C   0  0  0  0  0  0  0  0  0  0  0  0
    3.3030    0.4540   -0.2370 C   0  0  0  0  0  0  0  0  0  0  0  0
    4.5740    0.8460   -0.1760 C   0  0  0  0  0  0  0  0  0  0  0  0
    5.7620   -0.0670   -0.0860 C   0  0  0  0  0  0  0  0  0  0  0  0
    5.5640   -1.3010   -0.0580 O   0  0  0  0  0  0  0  0  0  0  0  0
    7.0440    0.3880   -0.0320 O   0  0  0  0  0  0  0  0  0  0  0  0
    8.1510   -0.4900    0.0530 C   0  0  2  0  0  0  0  0  0  0  0  0
    9.0420   -0.1550    1.2040 C   0  0  0  0  0  0  0  0  0  0  0  0
    8.9350   -0.2920   -1.2510 C   0  0  0  0  0  0  0  0  0  0  0  0
    4.8230    2.2220   -0.2000 C   0  0  0  0  0  0  0  0  0  0  0  0
    3.2080    2.9400   -0.3090 S   0  0  0  0  0  0  0  0  0  0  0  0
   -6.3540    1.2590    2.8190 O   0  0  0  0  0  0  0  0  0  0  0  0
   -7.6370    1.4390    2.2480 C   0  0  0  0  0  0  0  0  0  0  0  0
   -7.6890    0.3050    1.2630 C   0  0  0  0  0  0  0  0  0  0  0  0
  1  2  1  0
  2  3  1  0
  3  4  1  0
  4  5  2  0
  4  9  1  0
  5  6  1  0
  6  7  2  0
  6 29  1  0
  7  8  1  0
  7 27  1  0
  8  9  2  0
  9 10  1  0
 10 11  2  0
 10 12  1  0
 12 13  1  0
 13 14  1  0
 14 15  2  0
 14 16  1  0
 16 17  2  0
 16 26  1  0
 17 18  1  0
 18 19  1  0
 18 25  2  0
 19 20  2  0
 19 21  1  0
 21 22  1  0
 22 23  1  1
 22 24  1  0
 25 26  1  0
 27 28  1  0
 28 29  1  0
M  END
