
     RDKit          3D

 29 31  0  0  0  0  0  0  0  0999 V2000
    3.7550   -1.8100    2.4350 C   0  0  0  0  0  0  0  0  0  0  0  0
    2.6850   -2.3650    1.5490 C   0  0  0  0  0  0  0  0  0  0  0  0
    2.1280   -1.3390    0.6220 C   0  0  0  0  0  0  0  0  0  0  0  0
    1.2180   -1.6570   -0.1870 O   0  0  0  0  0  0  0  0  0  0  0  0
    2.5640   -0.0290    0.5980 O   0  0  0  0  0  0  0  0  0  0  0  0
    2.0150    0.8930   -0.2840 C   0  0  0  0  0  0  0  0  0  0  0  0
    0.9160    1.6320    0.1090 C   0  0  0  0  0  0  0  0  0  0  0  0
    0.3950    2.5470   -0.8060 C   0  0  0  0  0  0  0  0  0  0  0  0
   -1.0000    3.4990   -0.3350 S   0  0  2  0  0  0  0  0  0  0  0  0
   -0.9160    4.7950   -1.0830 O   0  0  0  0  0  0  0  0  0  0  0  0
   -0.9530    3.8340    1.1290 O   0  0  0  0  0  0  0  0  0  0  0  0
   -2.4430    2.6980   -0.7500 N   0  0  0  0  0  0  0  0  0  0  0  0
   -2.8230    1.4280   -0.2310 C   0  0  0  0  0  0  0  0  0  0  0  0
   -2.7210    1.0960    1.1080 C   0  0  0  0  0  0  0  0  0  0  0  0
   -3.1000   -0.1500    1.5820 C   0  0  0  0  0  0  0  0  0  0  0  0
   -2.9620   -0.4340    3.0290 C   0  0  0  0  0  0  0  0  0  0  0  0
   -3.5970   -1.1030    0.7150 C   0  0  0  0  0  0  0  0  0  0  0  0
   -3.7100   -0.7930   -0.6370 C   0  0  0  0  0  0  0  0  0  0  0  0
   -3.3230    0.4540   -1.0690 C   0  0  0  0  0  0  0  0  0  0  0  0
   -4.2590   -1.9500   -1.3670 C   0  0  0  0  0  0  0  0  0  0  0  0
   -4.7490   -2.8520   -0.2660 C   0  0  0  0  0  0  0  0  0  0  0  0
   -4.0520   -2.4330    0.9280 N   0  0  0  0  0  0  0  0  0  0  0  0
    0.9510    2.7110   -2.0580 C   0  0  0  0  0  0  0  0  0  0  0  0
    2.0480    1.9730   -2.4490 C   0  0  0  0  0  0  0  0  0  0  0  0
    2.5650    1.0650   -1.5400 C   0  0  0  0  0  0  0  0  0  0  0  0
    3.6680    0.2830   -1.8550 O   0  0  0  0  0  0  0  0  0  0  0  0
    4.9610    0.7070   -1.5940 C   0  0  0  0  0  0  0  0  0  0  0  0
    6.1800   -0.0810   -1.9060 C   0  0  0  0  0  0  0  0  0  0  0  0
    5.1150    1.8310   -1.0570 O   0  0  0  0  0  0  0  0  0  0  0  0
  1  2  1  0
  2  3  1  0
  3  4  2  0
  3  5  1  0
  5  6  1  0
  6  7  2  0
  6 25  1  0
  7  8  1  0
  8  9  1  0
  8 23  2  0
  9 10  2  0
  9 11  2  0
  9 12  1  1
 12 13  1  0
 13 14  2  0
 13 19  1  0
 14 15  1  0
 15 16  1  0
 15 17  2  0
 17 18  1  0
 17 22  1  0
 18 19  2  0
 18 20  1  0
 20 21  1  0
 21 22  1  0
 23 24  1  0
 24 25  2  0
 25 26  1  0
 26 27  1  0
 27 28  1  0
 27 29  2  0
M  END
