
     RDKit          3D

 29 31  0  0  0  0  0  0  0  0999 V2000
   -4.4170   -1.5690    1.5340 C   0  0  0  0  0  0  0  0  0  0  0  0
   -4.1530   -2.0380    0.2910 O   0  0  0  0  0  0  0  0  0  0  0  0
   -2.8300   -2.1020   -0.1360 C   0  0  0  0  0  0  0  0  0  0  0  0
   -2.2330   -0.7270   -0.1940 C   0  0  0  0  0  0  0  0  0  0  0  0
   -3.0840    0.2290    0.1960 O   0  0  0  0  0  0  0  0  0  0  0  0
   -2.8130    1.5000    0.2590 C   0  0  0  0  0  0  0  0  0  0  0  0
   -3.7850    2.4790    0.6840 C   0  0  0  0  0  0  0  0  0  0  0  0
   -3.3920    3.6490    0.8440 O   0  0  0  0  0  0  0  0  0  0  0  0
   -5.1000    2.1630    0.9020 O   0  0  0  0  0  0  0  0  0  0  0  0
   -5.9850    3.2070    1.2850 C   0  0  0  0  0  0  0  0  0  0  0  0
   -1.5370    1.8970   -0.1110 C   0  0  0  0  0  0  0  0  0  0  0  0
   -0.6060    0.9950   -0.5310 C   0  0  0  0  0  0  0  0  0  0  0  0
    0.5370    1.3890   -0.8730 O   0  0  0  0  0  0  0  0  0  0  0  0
   -0.9930   -0.3740   -0.5660 C   0  0  0  0  0  0  0  0  0  0  0  0
    0.0240   -1.2600   -1.0470 C   0  0  2  0  0  0  0  0  0  0  0  0
   -0.0160   -2.6790   -1.3050 C   0  0  0  0  0  0  0  0  0  0  0  0
    0.9630   -2.9230   -2.4560 C   0  0  0  0  0  0  0  0  0  0  0  0
    0.6370   -3.6220   -3.4100 O   0  0  0  0  0  0  0  0  0  0  0  0
    2.2500   -2.2970   -2.3280 N   0  0  0  0  0  0  0  0  0  0  0  0
    2.4290   -1.3300   -1.2760 C   0  0  0  0  0  0  0  0  0  0  0  0
    3.7200   -0.8950   -0.8900 C   0  0  0  0  0  0  0  0  0  0  0  0
    3.9120   -0.1980    0.2840 C   0  0  0  0  0  0  0  0  0  0  0  0
    5.2860    0.1000    0.7610 C   0  0  0  0  0  0  0  0  0  0  0  0
    5.8790    1.7310    0.3290 S   0  0  0  0  0  0  0  0  0  0  0  0
    5.7970    2.2150   -1.3200 N   0  0  0  0  0  0  0  0  0  0  0  0
    2.8250    0.0800    1.1030 C   0  0  0  0  0  0  0  0  0  0  0  0
    3.0290    0.9060    2.3280 C   0  0  0  0  0  0  0  0  0  0  0  0
    1.5730   -0.3370    0.7230 C   0  0  0  0  0  0  0  0  0  0  0  0
    1.3900   -1.0120   -0.4330 C   0  0  0  0  0  0  0  0  0  0  0  0
  1  2  1  0
  2  3  1  0
  3  4  1  0
  4  5  1  0
  4 14  2  0
  5  6  1  0
  6  7  1  0
  6 11  2  0
  7  8  2  0
  7  9  1  0
  9 10  1  0
 11 12  1  0
 12 13  2  0
 12 14  1  0
 15 14  1  1
 15 16  1  0
 15 29  1  0
 16 17  1  0
 17 18  2  0
 17 19  1  0
 19 20  1  0
 20 21  2  0
 20 29  1  0
 21 22  1  0
 22 23  1  0
 22 26  2  0
 23 24  1  0
 24 25  1  0
 26 27  1  0
 26 28  1  0
 28 29  2  0
M  END
