
     RDKit          3D

 31 34  0  0  0  0  0  0  0  0999 V2000
   -4.0960   -0.2900   -4.1160 C   0  0  0  0  0  0  0  0  0  0  0  0
   -3.9380   -0.1480   -2.8130 C   0  0  0  0  0  0  0  0  0  0  0  0
   -2.6850    0.0090   -2.1020 N   0  0  0  0  0  0  0  0  0  0  0  0
   -2.9750    0.1280   -0.7230 C   0  0  0  0  0  0  0  0  0  0  0  0
   -2.2260    0.2090    0.3930 C   0  0  0  0  0  0  0  0  0  0  0  0
   -0.7850    0.1800    0.2780 C   0  0  0  0  0  0  0  0  0  0  0  0
   -0.2490    0.0770   -0.8580 O   0  0  0  0  0  0  0  0  0  0  0  0
    0.0770    0.2670    1.4480 C   0  0  0  0  0  0  0  0  0  0  0  0
    1.5050    0.2110    1.0680 N   0  0  0  0  0  0  0  0  0  0  0  0
    2.5270    0.2780    2.0430 C   0  0  0  0  0  0  0  0  0  0  0  0
    2.1650    0.3870    3.2370 O   0  0  0  0  0  0  0  0  0  0  0  0
    3.9610    0.2310    1.7560 C   0  0  0  0  0  0  0  0  0  0  0  0
    4.8370    0.3070    2.8160 C   0  0  0  0  0  0  0  0  0  0  0  0
    6.1880    0.2670    2.6070 C   0  0  0  0  0  0  0  0  0  0  0  0
    6.6670    0.1520    1.3570 N   0  0  0  0  0  0  0  0  0  0  0  0
    5.8130    0.0760    0.2960 C   0  0  0  0  0  0  0  0  0  0  0  0
    6.3560   -0.0440   -1.0080 N   0  0  0  0  0  0  0  0  0  0  0  0
    7.7470   -0.0880   -1.2490 C   0  0  0  0  0  0  0  0  0  0  0  0
    8.3180   -0.2150   -2.6300 C   0  0  0  0  0  0  0  0  0  0  0  0
    8.5360   -0.0170   -0.2730 O   0  0  0  0  0  0  0  0  0  0  0  0
    4.4530    0.1150    0.4930 C   0  0  0  0  0  0  0  0  0  0  0  0
   -2.9500    0.2960    1.6510 C   0  0  0  0  0  0  0  0  0  0  0  0
   -2.2350    0.3720    2.8820 N   0  0  0  0  0  0  0  0  0  0  0  0
   -4.2650    0.3080    1.7160 N   0  0  0  0  0  0  0  0  0  0  0  0
   -5.1160    0.2500    0.5970 C   0  0  2  0  0  0  0  0  0  0  0  0
   -6.3020   -0.6320    0.5580 C   0  0  2  0  0  0  0  0  0  0  0  0
   -5.8890   -2.0550    0.3190 C   0  0  0  0  0  0  0  0  0  0  0  0
   -7.0390   -0.1620   -0.6160 O   0  0  0  0  0  0  0  0  0  0  0  0
   -6.3290   -0.2430   -1.8320 C   0  0  0  0  0  0  0  0  0  0  0  0
   -5.0070   -0.1190   -1.8120 C   0  0  0  0  0  0  0  0  0  0  0  0
   -4.3390    0.0570   -0.5840 N   0  0  0  0  0  0  0  0  0  0  0  0
  1  2  2  0
  2  3  1  0
  2 30  1  0
  3  4  1  0
  4  5  2  0
  4 31  1  0
  5  6  1  0
  5 22  1  0
  6  7  2  0
  6  8  1  0
  8  9  1  0
  9 10  1  0
 10 11  2  0
 10 12  1  0
 12 13  2  0
 12 21  1  0
 13 14  1  0
 14 15  2  0
 15 16  1  0
 16 17  1  0
 16 21  2  0
 17 18  1  0
 18 19  1  0
 18 20  2  0
 22 23  1  0
 22 24  2  0
 25 24  1  1
 25 26  1  0
 25 31  1  0
 26 27  1  6
 26 28  1  0
 28 29  1  0
 29 30  2  0
 30 31  1  0
M  END
