
     RDKit          3D

 30 34  0  0  0  0  0  0  0  0999 V2000
   -3.6880   -4.2590   -4.0050 C   0  0  0  0  0  0  0  0  0  0  0  0
   -3.2100   -2.9530   -3.8830 O   0  0  0  0  0  0  0  0  0  0  0  0
   -3.1090   -2.3010   -2.6610 C   0  0  0  0  0  0  0  0  0  0  0  0
   -3.4840   -2.9360   -1.5150 C   0  0  0  0  0  0  0  0  0  0  0  0
   -3.3790   -2.2820   -0.3110 C   0  0  0  0  0  0  0  0  0  0  0  0
   -2.8900   -0.9730   -0.2730 C   0  0  0  0  0  0  0  0  0  0  0  0
   -2.5030   -0.2940   -1.3880 C   0  0  0  0  0  0  0  0  0  0  0  0
   -2.0120    1.0600   -1.4800 C   0  0  0  0  0  0  0  0  0  0  0  0
   -1.5950    1.4310   -2.6890 O   0  0  0  0  0  0  0  0  0  0  0  0
   -1.9220    2.0100   -0.4820 N   0  0  0  0  0  0  0  0  0  0  0  0
   -2.2950    1.9380    0.8710 C   0  0  0  0  0  0  0  0  0  0  0  0
   -1.2680    1.4160    1.8070 C   0  0  0  0  0  0  0  0  0  0  0  0
   -1.4510    1.5600    3.1640 C   0  0  0  0  0  0  0  0  0  0  0  0
   -0.5390    1.0950    4.0890 C   0  0  0  0  0  0  0  0  0  0  0  0
    0.5830    0.4710    3.6420 C   0  0  0  0  0  0  0  0  0  0  0  0
    0.8160    0.3010    2.2940 C   0  0  0  0  0  0  0  0  0  0  0  0
    2.0270   -0.3710    1.8410 C   0  0  0  0  0  0  0  0  0  0  0  0
    2.3980   -0.6140    0.5350 C   0  0  0  0  0  0  0  0  0  0  0  0
    3.5880   -1.2610    0.5160 N   0  0  0  0  0  0  0  0  0  0  0  0
    3.9650   -1.4250    1.7950 C   0  0  0  0  0  0  0  0  0  0  0  0
    3.0150   -0.8830    2.5920 N   0  0  0  0  0  0  0  0  0  0  0  0
    5.2680   -2.1290    1.8860 C   0  0  0  0  0  0  0  0  0  0  0  0
    5.4270   -2.7080    0.5160 C   0  0  0  0  0  0  0  0  0  0  0  0
    4.5900   -1.8330   -0.3710 C   0  0  0  0  0  0  0  0  0  0  0  0
   -0.1250    0.7820    1.3810 C   0  0  0  0  0  0  0  0  0  0  0  0
   -1.3270    3.3180   -0.9430 C   0  0  0  0  0  0  0  0  0  0  0  0
    0.1570    3.3060   -0.7770 C   0  0  1  0  0  0  0  0  0  0  0  0
    0.8260    4.6050   -1.2250 C   0  0  0  0  0  0  0  0  0  0  0  0
    0.8730    4.1510    0.1830 C   0  0  0  0  0  0  0  0  0  0  0  0
   -2.6390   -1.0290   -2.5850 C   0  0  0  0  0  0  0  0  0  0  0  0
  1  2  1  0
  2  3  1  0
  3  4  2  0
  3 30  1  0
  4  5  1  0
  5  6  2  0
  6  7  1  0
  7  8  1  0
  7 30  2  0
  8  9  2  0
  8 10  1  0
 10 11  1  0
 10 26  1  0
 11 12  1  0
 12 13  2  0
 12 25  1  0
 13 14  1  0
 14 15  2  0
 15 16  1  0
 16 17  1  0
 16 25  2  0
 17 18  2  0
 17 21  1  0
 18 19  1  0
 19 20  1  0
 19 24  1  0
 20 21  2  0
 20 22  1  0
 22 23  1  0
 23 24  1  0
 27 26  1  1
 27 28  1  0
 27 29  1  0
 28 29  1  0
M  END
