
     RDKit          3D

 28 30  0  0  0  0  0  0  0  0999 V2000
    8.4030   -1.9940    0.2420 C   0  0  0  0  0  0  0  0  0  0  0  0
    7.8920   -0.5690    0.1720 C   0  0  2  0  0  0  0  0  0  0  0  0
    8.6890    0.2910    1.1470 C   0  0  0  0  0  0  0  0  0  0  0  0
    6.5240   -0.4730    0.4080 O   0  0  0  0  0  0  0  0  0  0  0  0
    5.6680   -0.0040   -0.5560 C   0  0  0  0  0  0  0  0  0  0  0  0
    6.0490    0.3680   -1.7010 O   0  0  0  0  0  0  0  0  0  0  0  0
    4.2160    0.1020   -0.3140 C   0  0  0  0  0  0  0  0  0  0  0  0
    3.4610   -0.2070    0.7970 C   0  0  0  0  0  0  0  0  0  0  0  0
    2.1360   -0.0040    0.7270 C   0  0  0  0  0  0  0  0  0  0  0  0
    1.6020    0.4910   -0.4230 C   0  0  0  0  0  0  0  0  0  0  0  0
    0.1900    0.7930   -0.7290 C   0  0  0  0  0  0  0  0  0  0  0  0
    0.0110    1.2400   -1.8930 O   0  0  0  0  0  0  0  0  0  0  0  0
   -0.7920    0.5650    0.2650 C   0  0  0  0  0  0  0  0  0  0  0  0
   -2.0880    0.7900    0.1130 C   0  0  0  0  0  0  0  0  0  0  0  0
   -2.7270    1.3060   -1.0910 C   0  0  0  0  0  0  0  0  0  0  0  0
   -4.0010    0.5530   -1.3400 C   0  0  0  0  0  0  0  0  0  0  0  0
   -4.2890    0.1990   -2.5050 O   0  0  0  0  0  0  0  0  0  0  0  0
   -4.8290    0.2830   -0.1710 C   0  0  0  0  0  0  0  0  0  0  0  0
   -6.2410    0.0150   -0.3880 C   0  0  0  0  0  0  0  0  0  0  0  0
   -6.9580    0.7460   -1.3120 C   0  0  0  0  0  0  0  0  0  0  0  0
   -8.3100    0.5010   -1.5420 C   0  0  0  0  0  0  0  0  0  0  0  0
   -8.9300   -0.4780   -0.8420 N   0  0  0  0  0  0  0  0  0  0  0  0
   -8.2380   -1.1820    0.0470 C   0  0  0  0  0  0  0  0  0  0  0  0
   -6.8910   -0.9750    0.3120 C   0  0  0  0  0  0  0  0  0  0  0  0
   -4.3050    0.2740    1.0400 C   0  0  0  0  0  0  0  0  0  0  0  0
   -5.1460    0.0060    2.1860 N   0  0  0  0  0  0  0  0  0  0  0  0
   -2.9610    0.5220    1.1920 O   0  0  0  0  0  0  0  0  0  0  0  0
    2.9780    0.6890   -1.4600 S   0  0  0  0  0  0  0  0  0  0  0  0
  2  1  1  1
  2  3  1  0
  2  4  1  0
  4  5  1  0
  5  6  2  0
  5  7  1  0
  7  8  2  0
  7 28  1  0
  8  9  1  0
  9 10  2  0
 10 11  1  0
 10 28  1  0
 11 12  2  0
 11 13  1  0
 13 14  2  3
 14 15  1  0
 14 27  1  0
 15 16  1  0
 16 17  2  0
 16 18  1  0
 18 19  1  0
 18 25  2  0
 19 20  2  0
 19 24  1  0
 20 21  1  0
 21 22  2  0
 22 23  1  0
 23 24  2  0
 25 26  1  0
 25 27  1  0
M  END
