
     RDKit          3D

 29 31  0  0  0  0  0  0  0  0999 V2000
   -4.3070    5.1010    3.0470 C   0  0  0  0  0  0  0  0  0  0  0  0
   -3.2110    4.3450    2.3150 C   0  0  0  0  0  0  0  0  0  0  0  0
   -3.7820    3.1570    1.6680 C   0  0  0  0  0  0  0  0  0  0  0  0
   -4.9950    2.9070    1.7710 O   0  0  0  0  0  0  0  0  0  0  0  0
   -2.9480    2.2460    0.8930 C   0  0  0  0  0  0  0  0  0  0  0  0
   -1.6290    2.2750    0.6220 C   0  0  0  0  0  0  0  0  0  0  0  0
   -1.0900    1.2930   -0.1330 C   0  0  0  0  0  0  0  0  0  0  0  0
    0.3620    1.2580   -0.4740 C   0  0  0  0  0  0  0  0  0  0  0  0
    1.0860    2.1710   -0.0390 O   0  0  0  0  0  0  0  0  0  0  0  0
    0.9570    0.2980   -1.2270 O   0  0  0  0  0  0  0  0  0  0  0  0
    2.2580    0.1560   -1.6040 C   0  0  0  0  0  0  0  0  0  0  0  0
    3.3180   -0.1370   -0.6540 C   0  0  0  0  0  0  0  0  0  0  0  0
    3.3090   -0.3330    0.6380 C   0  0  0  0  0  0  0  0  0  0  0  0
    2.4770   -0.4050    1.8330 C   0  0  0  0  0  0  0  0  0  0  0  0
    1.2380   -0.2830    1.9140 O   0  0  0  0  0  0  0  0  0  0  0  0
    3.3780   -0.6500    2.9120 N   0  0  0  0  0  0  0  0  0  0  0  0
    4.6960   -0.7270    2.4090 C   0  0  0  0  0  0  0  0  0  0  0  0
    4.6970   -0.5510    1.1120 C   0  0  0  0  0  0  0  0  0  0  0  0
    5.5340   -0.4800   -0.1050 C   0  0  1  0  0  0  0  0  0  0  0  0
    6.2420   -1.7940   -0.3400 C   0  0  0  0  0  0  0  0  0  0  0  0
    4.6590   -0.2480   -1.1470 O   0  0  0  0  0  0  0  0  0  0  0  0
   -1.8960    0.3200   -0.5890 C   0  0  0  0  0  0  0  0  0  0  0  0
   -1.6810   -0.8420   -1.3910 N   0  0  0  0  0  0  0  0  0  0  0  0
   -2.7590   -1.7000   -1.7120 C   0  0  0  0  0  0  0  0  0  0  0  0
   -3.8990   -1.4010   -1.2680 O   0  0  0  0  0  0  0  0  0  0  0  0
   -2.5620   -2.9310   -2.5550 C   0  0  1  0  0  0  0  0  0  0  0  0
   -1.5900   -3.8800   -1.9220 C   0  0  0  0  0  0  0  0  0  0  0  0
   -3.8790   -3.5580   -2.8830 C   0  0  0  0  0  0  0  0  0  0  0  0
   -3.4910    0.7860    0.0630 S   0  0  0  0  0  0  0  0  0  0  0  0
  1  2  1  0
  2  3  1  0
  3  4  2  0
  3  5  1  0
  5  6  2  0
  5 29  1  0
  6  7  1  0
  7  8  1  0
  7 22  2  0
  8  9  2  0
  8 10  1  0
 10 11  1  0
 11 12  1  0
 12 13  2  0
 12 21  1  0
 13 14  1  0
 13 18  1  0
 14 15  2  0
 14 16  1  0
 16 17  1  0
 17 18  2  0
 18 19  1  0
 19 20  1  6
 19 21  1  0
 22 23  1  0
 22 29  1  0
 23 24  1  0
 24 25  2  0
 24 26  1  0
 26 27  1  1
 26 28  1  0
M  END
