
     RDKit          3D

 33 35  0  0  0  0  0  0  0  0999 V2000
    4.6110   -2.7740   -0.7440 C   0  0  0  0  0  0  0  0  0  0  0  0
    5.1120   -2.4080    0.4060 C   0  0  0  0  0  0  0  0  0  0  0  0
    4.5590   -1.3340    1.2150 C   0  0  0  0  0  0  0  0  0  0  0  0
    5.1250   -1.0500    2.3510 C   0  0  0  0  0  0  0  0  0  0  0  0
    6.3120   -1.8010    2.8250 C   0  0  0  0  0  0  0  0  0  0  0  0
    3.3730   -0.5930    0.6590 C   0  0  2  0  0  0  0  0  0  0  0  0
    3.8830    0.1450   -0.5560 C   0  0  0  0  0  0  0  0  0  0  0  0
    2.7620    0.2450    1.6380 N   0  0  0  0  0  0  0  0  0  0  0  0
    1.3670    0.5310    1.4500 C   0  0  0  0  0  0  0  0  0  0  0  0
    0.9310    0.6630    0.0280 C   0  0  0  0  0  0  0  0  0  0  0  0
   -0.5010    0.9680   -0.1480 C   0  0  0  0  0  0  0  0  0  0  0  0
   -1.3600   -0.0280   -0.4150 N   0  0  0  0  0  0  0  0  0  0  0  0
   -2.6710    0.1140   -0.5860 C   0  0  0  0  0  0  0  0  0  0  0  0
   -3.5370   -0.9790   -0.8650 N   0  0  0  0  0  0  0  0  0  0  0  0
   -3.3600   -1.8730   -1.8550 C   0  0  0  0  0  0  0  0  0  0  0  0
   -2.2340   -1.8560   -2.8110 C   0  0  0  0  0  0  0  0  0  0  0  0
   -1.0520   -2.6620   -2.3050 C   0  0  0  0  0  0  0  0  0  0  0  0
   -4.3630   -2.7290   -1.7910 N   0  0  0  0  0  0  0  0  0  0  0  0
   -5.2010   -2.4030   -0.7620 C   0  0  0  0  0  0  0  0  0  0  0  0
   -4.6760   -1.2790   -0.1620 C   0  0  0  0  0  0  0  0  0  0  0  0
   -5.2200   -0.6760    0.8730 C   0  0  0  0  0  0  0  0  0  0  0  0
   -6.4510   -1.1580    1.4820 C   0  0  0  0  0  0  0  0  0  0  0  0
   -7.0470   -2.3670    0.8660 C   0  0  0  0  0  0  0  0  0  0  0  0
   -6.3100   -2.9190   -0.2870 C   0  0  0  0  0  0  0  0  0  0  0  0
   -3.1510    1.3700   -0.4790 N   0  0  0  0  0  0  0  0  0  0  0  0
   -2.3470    2.4130   -0.2140 C   0  0  0  0  0  0  0  0  0  0  0  0
   -2.7810    3.5870   -0.1110 O   0  0  0  0  0  0  0  0  0  0  0  0
   -0.9650    2.2400   -0.0370 C   0  0  0  0  0  0  0  0  0  0  0  0
   -0.1590    3.4220    0.2400 C   0  0  0  0  0  0  0  0  0  0  0  0
    0.0020    3.7760    1.4270 O   0  0  0  0  0  0  0  0  0  0  0  0
    0.4390    4.1740   -0.7680 O   0  0  0  0  0  0  0  0  0  0  0  0
    1.2220    5.3230   -0.4900 C   0  0  0  0  0  0  0  0  0  0  0  0
    1.7120    5.8890   -1.8130 C   0  0  0  0  0  0  0  0  0  0  0  0
  1  2  2  0
  2  3  1  0
  3  4  2  3
  3  6  1  0
  4  5  1  0
  6  7  1  6
  6  8  1  0
  8  9  1  0
  9 10  1  0
 10 11  1  0
 11 12  1  0
 11 28  2  0
 12 13  2  0
 13 14  1  0
 13 25  1  0
 14 15  1  0
 14 20  1  0
 15 16  1  0
 15 18  2  0
 16 17  1  0
 18 19  1  0
 19 20  1  0
 19 24  2  0
 20 21  2  0
 21 22  1  0
 22 23  1  0
 23 24  1  0
 25 26  1  0
 26 27  2  0
 26 28  1  0
 28 29  1  0
 29 30  2  0
 29 31  1  0
 31 32  1  0
 32 33  1  0
M  CHG  1   8   1
M  END
