
     RDKit          3D

 33 35  0  0  0  0  0  0  0  0999 V2000
   -2.9960    2.7080    0.4080 C   0  0  0  0  0  0  0  0  0  0  0  0
   -4.0000    1.6670    0.3490 C   0  0  0  0  0  0  0  0  0  0  0  0
   -3.7440    0.4050    0.0310 C   0  0  0  0  0  0  0  0  0  0  0  0
   -2.4020   -0.0170   -0.2730 C   0  0  0  0  0  0  0  0  0  0  0  0
   -2.1960   -1.0830   -0.8930 O   0  0  0  0  0  0  0  0  0  0  0  0
   -1.2090    0.6410    0.0660 N   0  0  0  0  0  0  0  0  0  0  0  0
    0.0840    0.0540   -0.3620 C   0  0  2  0  0  0  0  0  0  0  0  0
    0.7830   -0.4350    0.9110 C   0  0  0  0  0  0  0  0  0  0  0  0
    0.9020    1.0890   -1.0620 C   0  0  0  0  0  0  0  0  0  0  0  0
    2.2100    0.6500   -1.5500 C   0  0  0  0  0  0  0  0  0  0  0  0
    2.3320   -0.3770   -2.2740 O   0  0  0  0  0  0  0  0  0  0  0  0
    3.4050    1.3100   -1.2670 O   0  0  0  0  0  0  0  0  0  0  0  0
    4.6720    0.9310   -1.7190 C   0  0  1  0  0  0  0  0  0  0  0  0
    5.2090    2.0550   -2.5760 C   0  0  0  0  0  0  0  0  0  0  0  0
    5.6110    0.5440   -0.6320 C   0  0  0  0  0  0  0  0  0  0  0  0
    5.6180    1.2290    0.5600 C   0  0  0  0  0  0  0  0  0  0  0  0
    6.4860    0.9020    1.5950 C   0  0  0  0  0  0  0  0  0  0  0  0
    7.3690   -0.1410    1.4220 C   0  0  0  0  0  0  0  0  0  0  0  0
    7.3450   -0.8120    0.2220 C   0  0  0  0  0  0  0  0  0  0  0  0
    8.3000   -1.9280    0.0250 C   0  0  0  0  0  0  0  0  0  0  0  0
    9.2680   -1.9850    1.0950 N   0  0  0  0  0  0  0  0  0  0  0  0
    6.4920   -0.4690   -0.7580 N   0  0  0  0  0  0  0  0  0  0  0  0
   -4.8030   -0.5940   -0.2230 C   0  0  0  0  0  0  0  0  0  0  0  0
   -4.5810   -1.8850   -0.0820 C   0  0  0  0  0  0  0  0  0  0  0  0
   -3.3440   -2.5410    0.3600 C   0  0  0  0  0  0  0  0  0  0  0  0
   -3.9670   -3.3070    1.5000 O   0  0  0  0  0  0  0  0  0  0  0  0
   -5.7620   -2.8030   -0.4320 C   0  0  0  0  0  0  0  0  0  0  0  0
   -6.9630   -2.2440    0.1540 N   0  0  0  0  0  0  0  0  0  0  0  0
   -7.2020   -0.8440    0.0130 C   0  0  0  0  0  0  0  0  0  0  0  0
   -8.6020   -0.3100    0.0730 C   0  0  0  0  0  0  0  0  0  0  0  0
   -6.1920   -0.0870   -0.1640 C   0  0  0  0  0  0  0  0  0  0  0  0
   -6.3850    1.4120   -0.2850 C   0  0  0  0  0  0  0  0  0  0  0  0
   -5.4140    2.0460    0.6830 C   0  0  0  0  0  0  0  0  0  0  0  0
  1  2  1  0
  2  3  2  0
  2 33  1  0
  3  4  1  0
  3 23  1  0
  4  5  2  0
  4  6  1  0
  6  7  1  0
  7  8  1  1
  7  9  1  0
  9 10  1  0
 10 11  2  0
 10 12  1  0
 12 13  1  0
 13 14  1  1
 13 15  1  0
 15 16  2  0
 15 22  1  0
 16 17  1  0
 17 18  2  0
 18 19  1  0
 19 20  1  0
 19 22  2  0
 20 21  1  0
 23 24  2  0
 23 31  1  0
 24 25  1  0
 24 27  1  0
 25 26  1  0
 27 28  1  0
 28 29  1  0
 29 30  1  0
 29 31  2  0
 31 32  1  0
 32 33  1  0
M  CHG  2  21   1  26  -1
M  END
