
     RDKit          3D

 32 36  0  0  0  0  0  0  0  0999 V2000
   -6.5650    0.6110    2.9700 C   0  0  0  0  0  0  0  0  0  0  0  0
   -6.0010   -0.5750    3.0130 C   0  0  0  0  0  0  0  0  0  0  0  0
   -5.0530   -1.0110    1.9750 C   0  0  0  0  0  0  0  0  0  0  0  0
   -4.9250    0.0210    0.9210 C   0  0  0  0  0  0  0  0  0  0  0  0
   -4.0040   -0.3410   -0.1420 N   0  0  0  0  0  0  0  0  0  0  0  0
   -2.7190    0.0270   -0.0050 C   0  0  0  0  0  0  0  0  0  0  0  0
   -1.7630   -0.2550   -0.9540 C   0  0  0  0  0  0  0  0  0  0  0  0
   -0.3760    0.1640   -0.7650 C   0  0  0  0  0  0  0  0  0  0  0  0
    0.5050   -0.5110    0.0270 C   0  0  0  0  0  0  0  0  0  0  0  0
    1.8360   -0.0960    0.2090 C   0  0  0  0  0  0  0  0  0  0  0  0
    2.7110   -0.8950    1.0290 C   0  0  0  0  0  0  0  0  0  0  0  0
    2.2100   -2.0710    1.3130 O   0  0  0  0  0  0  0  0  0  0  0  0
    3.9570   -0.6470    1.5600 N   0  0  0  0  0  0  0  0  0  0  0  0
    4.5560   -1.8110    2.3210 C   0  0  0  0  0  0  0  0  0  0  0  0
    6.0580   -1.6550    2.2020 C   0  0  0  0  0  0  0  0  0  0  0  0
    6.3100   -1.2120    0.8840 O   0  0  0  0  0  0  0  0  0  0  0  0
    6.1120    0.1750    0.8250 C   0  0  0  0  0  0  0  0  0  0  0  0
    4.8190    0.4810    1.6030 C   0  0  0  0  0  0  0  0  0  0  0  0
    2.2960    1.0290   -0.4250 C   0  0  0  0  0  0  0  0  0  0  0  0
    1.3920    1.7260   -1.2400 C   0  0  0  0  0  0  0  0  0  0  0  0
    0.1020    1.2960   -1.3960 C   0  0  0  0  0  0  0  0  0  0  0  0
   -0.5520    2.1360   -2.2250 N   0  0  0  0  0  0  0  0  0  0  0  0
    0.3360    3.0830   -2.5800 C   0  0  0  0  0  0  0  0  0  0  0  0
    1.5210    2.8510   -1.9920 N   0  0  0  0  0  0  0  0  0  0  0  0
    2.7570    3.5960   -2.0820 C   0  0  0  0  0  0  0  0  0  0  0  0
   -2.1430   -0.9400   -2.0840 C   0  0  0  0  0  0  0  0  0  0  0  0
   -1.4880   -1.3850   -3.2160 C   0  0  0  0  0  0  0  0  0  0  0  0
   -2.4140   -2.0280   -4.0300 C   0  0  0  0  0  0  0  0  0  0  0  0
   -3.6000   -1.9870   -3.4320 N   0  0  0  0  0  0  0  0  0  0  0  0
   -3.4710   -1.3410   -2.2630 C   0  0  0  0  0  0  0  0  0  0  0  0
   -4.3560   -1.0040   -1.2420 C   0  0  0  0  0  0  0  0  0  0  0  0
   -5.5560   -1.3650   -1.4010 O   0  0  0  0  0  0  0  0  0  0  0  0
  1  2  2  0
  2  3  1  0
  3  4  1  0
  4  5  1  0
  5  6  1  0
  5 31  1  0
  6  7  2  0
  7  8  1  0
  7 26  1  0
  8  9  2  0
  8 21  1  0
  9 10  1  0
 10 11  1  0
 10 19  2  0
 11 12  2  0
 11 13  1  0
 13 14  1  0
 13 18  1  0
 14 15  1  0
 15 16  1  0
 16 17  1  0
 17 18  1  0
 19 20  1  0
 20 21  2  0
 20 24  1  0
 21 22  1  0
 22 23  2  0
 23 24  1  0
 24 25  1  0
 26 27  1  0
 26 30  2  0
 27 28  2  0
 28 29  1  0
 29 30  1  0
 30 31  1  0
 31 32  2  0
M  END
