
     RDKit          3D

 33 35  0  0  0  0  0  0  0  0999 V2000
  -11.1500    0.4040   -0.9770 C   0  0  0  0  0  0  0  0  0  0  0  0
  -10.2160    0.3100    0.0340 O   0  0  0  0  0  0  0  0  0  0  0  0
   -9.0380   -0.2970   -0.3670 C   0  0  0  0  0  0  0  0  0  0  0  0
   -8.3260    0.4300   -1.4820 C   0  0  1  0  0  0  0  0  0  0  0  0
   -8.1020    1.8460   -1.0790 C   0  0  0  0  0  0  0  0  0  0  0  0
   -7.1140   -0.3000   -1.8060 N   0  0  0  0  0  0  0  0  0  0  0  0
   -6.0160   -0.0060   -0.8880 C   0  0  0  0  0  0  0  0  0  0  0  0
   -5.1010   -1.1860   -0.8440 C   0  0  0  0  0  0  0  0  0  0  0  0
   -3.9920   -0.8980    0.0870 N   0  0  0  0  0  0  0  0  0  0  0  0
   -4.1560   -0.6580    1.4490 C   0  0  0  0  0  0  0  0  0  0  0  0
   -5.4340   -0.7330    1.7980 O   0  0  0  0  0  0  0  0  0  0  0  0
   -3.2680   -0.3590    2.5050 C   0  0  0  0  0  0  0  0  0  0  0  0
   -2.0210   -0.1870    2.6490 C   0  0  0  0  0  0  0  0  0  0  0  0
   -0.8680   -0.2150    1.7700 C   0  0  0  0  0  0  0  0  0  0  0  0
   -0.8930   -0.4420    0.5460 O   0  0  0  0  0  0  0  0  0  0  0  0
    0.4550    0.0330    2.2820 N   0  0  0  0  0  0  0  0  0  0  0  0
    1.6400    0.0420    1.5100 C   0  0  0  0  0  0  0  0  0  0  0  0
    1.7240    0.2060    0.1500 C   0  0  0  0  0  0  0  0  0  0  0  0
    2.9670    0.1710   -0.4970 C   0  0  0  0  0  0  0  0  0  0  0  0
    4.1530   -0.0220    0.1600 C   0  0  0  0  0  0  0  0  0  0  0  0
    5.3740   -0.0550   -0.4830 C   0  0  0  0  0  0  0  0  0  0  0  0
    6.5720   -0.2500    0.1800 C   0  0  0  0  0  0  0  0  0  0  0  0
    7.8500   -0.2570   -0.5700 C   0  0  0  0  0  0  0  0  0  0  0  0
    8.0350    0.4130   -1.6530 N   0  0  0  0  0  0  0  0  0  0  0  0
    9.3510    0.2480   -2.1960 C   0  0  1  0  0  0  0  0  0  0  0  0
    9.9310    1.5650   -2.6750 C   0  0  0  0  0  0  0  0  0  0  0  0
   10.1350   -0.3050   -1.0260 C   0  0  0  0  0  0  0  0  0  0  0  0
    9.0340   -0.9570   -0.2940 N   0  0  0  0  0  0  0  0  0  0  0  0
    6.4980   -0.4130    1.5410 C   0  0  0  0  0  0  0  0  0  0  0  0
    7.7390   -0.6110    2.3250 C   0  0  0  0  0  0  0  0  0  0  0  0
    5.2730   -0.3810    2.1920 C   0  0  0  0  0  0  0  0  0  0  0  0
    4.0760   -0.1870    1.5280 C   0  0  0  0  0  0  0  0  0  0  0  0
    2.8710   -0.1550    2.1710 C   0  0  0  0  0  0  0  0  0  0  0  0
  1  2  1  0
  2  3  1  0
  3  4  1  0
  4  5  1  1
  4  6  1  0
  6  7  1  0
  7  8  1  0
  8  9  1  0
  9 10  1  0
 10 11  2  0
 10 12  1  0
 12 13  2  3
 13 14  1  0
 14 15  2  0
 14 16  1  0
 16 17  1  0
 17 18  2  0
 17 33  1  0
 18 19  1  0
 19 20  2  0
 20 21  1  0
 20 32  1  0
 21 22  2  0
 22 23  1  0
 22 29  1  0
 23 24  2  0
 23 28  1  0
 24 25  1  0
 25 26  1  1
 25 27  1  0
 27 28  1  0
 29 30  1  0
 29 31  2  0
 31 32  1  0
 32 33  2  0
M  CHG  1   6   1
M  END
