
     RDKit          3D

 33 35  0  0  0  0  0  0  0  0999 V2000
    8.0600    1.5780    0.3140 C   0  0  0  0  0  0  0  0  0  0  0  0
    6.9980    2.5020    0.5790 O   0  0  0  0  0  0  0  0  0  0  0  0
    5.7500    2.2670   -0.0170 C   0  0  0  0  0  0  0  0  0  0  0  0
    4.7650    3.1870    0.2730 C   0  0  0  0  0  0  0  0  0  0  0  0
    3.5350    2.9690   -0.3060 C   0  0  0  0  0  0  0  0  0  0  0  0
    3.3360    1.8610   -1.1380 C   0  0  0  0  0  0  0  0  0  0  0  0
    4.3430    0.9630   -1.4060 C   0  0  0  0  0  0  0  0  0  0  0  0
    4.1660   -0.2310   -2.2830 C   0  0  0  0  0  0  0  0  0  0  0  0
    4.1370   -1.4430   -1.4520 N   0  0  0  0  0  0  0  0  0  0  0  0
    3.0780   -1.5880   -0.4770 C   0  0  0  0  0  0  0  0  0  0  0  0
    1.9160   -1.0860   -0.7080 N   0  0  0  0  0  0  0  0  0  0  0  0
    0.8840   -1.2520    0.2940 C   0  0  0  0  0  0  0  0  0  0  0  0
   -0.4080   -0.6830   -0.0610 C   0  0  0  0  0  0  0  0  0  0  0  0
   -1.6320   -1.1010    0.6340 C   0  0  1  0  0  0  0  0  0  0  0  0
   -2.6920   -0.2010    0.0490 N   0  0  0  0  0  0  0  0  0  0  0  0
   -3.4640    0.5570    0.9330 C   0  0  0  0  0  0  0  0  0  0  0  0
   -3.2230    0.4420    2.1880 O   0  0  0  0  0  0  0  0  0  0  0  0
   -4.5270    1.4790    0.6060 C   0  0  0  0  0  0  0  0  0  0  0  0
   -5.1820    2.1410    1.6210 C   0  0  0  0  0  0  0  0  0  0  0  0
   -6.2170    3.0420    1.3590 C   0  0  0  0  0  0  0  0  0  0  0  0
   -6.5990    3.2800    0.0680 C   0  0  0  0  0  0  0  0  0  0  0  0
   -7.6910    4.2230   -0.2920 C   0  0  0  0  0  0  0  0  0  0  0  0
   -5.9510    2.6260   -0.9270 C   0  0  0  0  0  0  0  0  0  0  0  0
   -4.9210    1.7290   -0.6700 C   0  0  0  0  0  0  0  0  0  0  0  0
   -4.3380    1.1250   -1.7690 O   0  0  0  0  0  0  0  0  0  0  0  0
   -2.2000   -2.4490    0.2580 C   0  0  2  0  0  0  0  0  0  0  0  0
   -1.3100   -3.6150    0.4740 C   0  0  0  0  0  0  0  0  0  0  0  0
   -2.6710   -2.4900   -1.1810 C   0  0  0  0  0  0  0  0  0  0  0  0
    1.1200   -1.8960    1.4100 C   0  0  0  0  0  0  0  0  0  0  0  0
    2.4130   -2.4900    1.7330 C   0  0  1  0  0  0  0  0  0  0  0  0
    2.2130   -4.0200    1.8570 C   0  0  0  0  0  0  0  0  0  0  0  0
    3.3800   -2.2950    0.7000 N   0  0  0  0  0  0  0  0  0  0  0  0
    5.5500    1.2070   -0.8170 N   0  0  0  0  0  0  0  0  0  0  0  0
  1  2  1  0
  2  3  1  0
  3  4  2  0
  3 33  1  0
  4  5  1  0
  5  6  2  0
  6  7  1  0
  7  8  1  0
  7 33  2  0
  8  9  1  0
  9 10  1  0
 10 11  2  0
 10 32  1  0
 11 12  1  0
 12 13  1  0
 12 29  2  0
 14 13  1  6
 14 15  1  0
 14 26  1  0
 15 16  1  0
 16 17  2  0
 16 18  1  0
 18 19  2  0
 18 24  1  0
 19 20  1  0
 20 21  2  0
 21 22  1  0
 21 23  1  0
 23 24  2  0
 24 25  1  0
 26 27  1  6
 26 28  1  0
 29 30  1  0
 30 31  1  6
 30 32  1  0
M  CHG  1  11   1
M  END
