
     RDKit          3D

 39 42  0  0  0  0  0  0  0  0999 V2000
    3.5960   -2.4780   -2.0520 C   0  0  0  0  0  0  0  0  0  0  0  0
    4.3660   -1.3310   -1.3710 C   0  0  1  0  0  0  0  0  0  0  0  0
    3.9930    0.1750   -2.2660 S   0  0  0  0  0  0  0  0  0  0  0  0
    3.2170    1.3280   -1.1530 C   0  0  0  0  0  0  0  0  0  0  0  0
    3.2420    2.5410   -1.4130 O   0  0  0  0  0  0  0  0  0  0  0  0
    2.5940    0.7930   -0.0010 N   0  0  0  0  0  0  0  0  0  0  0  0
    1.4910    1.5550    0.5550 C   0  0  0  0  0  0  0  0  0  0  0  0
    0.1540    1.2650   -0.0150 C   0  0  2  0  0  0  0  0  0  0  0  0
   -0.8650    2.0450    0.6050 O   0  0  0  0  0  0  0  0  0  0  0  0
   -1.6030    2.9970   -0.0410 C   0  0  0  0  0  0  0  0  0  0  0  0
   -1.3800    3.2060   -1.2570 O   0  0  0  0  0  0  0  0  0  0  0  0
   -2.6650    3.8100    0.6070 C   0  0  0  0  0  0  0  0  0  0  0  0
   -3.2900    4.7630   -0.3100 C   0  0  0  0  0  0  0  0  0  0  0  0
   -3.3340    6.0800   -0.2150 C   0  0  0  0  0  0  0  0  0  0  0  0
   -4.0610    6.6740   -1.3460 C   0  0  0  0  0  0  0  0  0  0  0  0
   -4.4530    5.4840   -2.1480 C   0  0  0  0  0  0  0  0  0  0  0  0
   -3.9990    4.4110   -1.5330 C   0  0  0  0  0  0  0  0  0  0  0  0
   -4.2380    2.7640   -2.1450 Cl  0  0  0  0  0  0  0  0  0  0  0  0
   -0.2130   -0.1830   -0.0700 C   0  0  0  0  0  0  0  0  0  0  0  0
    0.5300   -1.0080   -0.6280 O   0  0  0  0  0  0  0  0  0  0  0  0
   -1.4240   -0.6410    0.5180 N   0  0  0  0  0  0  0  0  0  0  0  0
   -1.9300   -1.9330    0.5680 C   0  0  0  0  0  0  0  0  0  0  0  0
   -1.2430   -2.9910    0.0260 C   0  0  0  0  0  0  0  0  0  0  0  0
   -1.7100   -4.3150    0.0540 C   0  0  0  0  0  0  0  0  0  0  0  0
   -2.9090   -4.5610    0.6510 C   0  0  0  0  0  0  0  0  0  0  0  0
   -3.6210   -3.5480    1.1990 C   0  0  0  0  0  0  0  0  0  0  0  0
   -3.1530   -2.2330    1.1690 C   0  0  0  0  0  0  0  0  0  0  0  0
   -4.0070   -1.2580    1.7830 C   0  0  0  0  0  0  0  0  0  0  0  0
   -3.7650   -0.0520    1.8510 O   0  0  0  0  0  0  0  0  0  0  0  0
   -4.7860   -4.1440    1.7190 O   0  0  0  0  0  0  0  0  0  0  0  0
   -4.9070   -5.4520    1.1950 C   0  0  0  0  0  0  0  0  0  0  0  0
   -3.5810   -5.7800    0.8050 O   0  0  0  0  0  0  0  0  0  0  0  0
    3.0690   -0.4020    0.5740 C   0  0  0  0  0  0  0  0  0  0  0  0
    2.4960   -0.7370    1.6730 O   0  0  0  0  0  0  0  0  0  0  0  0
    4.1220   -1.3020    0.0860 C   0  0  1  0  0  0  0  0  0  0  0  0
    3.6650   -2.7300    0.4720 C   0  0  0  0  0  0  0  0  0  0  0  0
    5.3730   -1.0900    0.9110 C   0  0  0  0  0  0  0  0  0  0  0  0
    6.1050    0.1710    0.6830 C   0  0  0  0  0  0  0  0  0  0  0  0
    6.7160    0.4080   -0.9570 Cl  0  0  0  0  0  0  0  0  0  0  0  0
  2  1  1  6
  2  3  1  0
  2 35  1  0
  3  4  1  0
  4  5  2  0
  4  6  1  0
  6  7  1  0
  6 33  1  0
  8  7  1  1
  8  9  1  0
  8 19  1  0
  9 10  1  0
 10 11  2  0
 10 12  1  0
 12 13  1  0
 13 14  2  0
 13 17  1  0
 14 15  1  0
 15 16  1  0
 16 17  2  0
 17 18  1  0
 19 20  2  0
 19 21  1  0
 21 22  1  0
 22 23  2  0
 22 27  1  0
 23 24  1  0
 24 25  2  0
 25 26  1  0
 25 32  1  0
 26 27  2  0
 26 30  1  0
 27 28  1  0
 28 29  2  0
 30 31  1  0
 31 32  1  0
 33 34  2  0
 33 35  1  0
 35 36  1  1
 35 37  1  0
 37 38  1  0
 38 39  1  0
M  END
