
     RDKit          3D

 39 42  0  0  0  0  0  0  0  0999 V2000
   10.9360    2.3910    0.7820 C   0  0  0  0  0  0  0  0  0  0  0  0
    9.5120    1.9910    0.5960 C   0  0  0  0  0  0  0  0  0  0  0  0
    8.7950    1.5940    1.7010 C   0  0  0  0  0  0  0  0  0  0  0  0
    9.5260    1.5530    3.3050 Cl  0  0  0  0  0  0  0  0  0  0  0  0
    7.4670    1.2250    1.5000 C   0  0  0  0  0  0  0  0  0  0  0  0
    6.8960    1.2540    0.2580 C   0  0  0  0  0  0  0  0  0  0  0  0
    5.5250    0.8810    0.0010 C   0  0  0  0  0  0  0  0  0  0  0  0
    4.7290    0.4600    1.1190 N   0  0  0  0  0  0  0  0  0  0  0  0
    3.3680    0.0660    0.9600 C   0  0  0  0  0  0  0  0  0  0  0  0
    2.4090   -0.3640    1.8280 C   0  0  0  0  0  0  0  0  0  0  0  0
    1.1970   -0.6610    1.3280 C   0  0  0  0  0  0  0  0  0  0  0  0
    0.9510   -0.5370    0.0300 C   0  0  0  0  0  0  0  0  0  0  0  0
   -0.2780   -0.7880   -0.7850 C   0  0  1  0  0  0  0  0  0  0  0  0
    0.1420   -0.8210   -2.2370 C   0  0  0  0  0  0  0  0  0  0  0  0
    1.0290   -1.9120   -2.5520 N   0  0  0  0  0  0  0  0  0  0  0  0
    0.8570   -3.0610   -1.6920 C   0  0  0  0  0  0  0  0  0  0  0  0
   -0.6200   -3.1060   -1.3200 C   0  0  0  0  0  0  0  0  0  0  0  0
   -0.8920   -2.0200   -0.3990 N   0  0  0  0  0  0  0  0  0  0  0  0
   -2.6560   -1.7250   -0.5680 S   0  0  1  0  0  0  0  0  0  0  0  0
   -2.8380   -0.5550    0.3810 O   0  0  0  0  0  0  0  0  0  0  0  0
   -2.7990   -1.3080   -1.9880 O   0  0  0  0  0  0  0  0  0  0  0  0
   -3.4440   -3.1790   -0.0930 C   0  0  0  0  0  0  0  0  0  0  0  0
   -4.8950   -3.3130   -0.1810 C   0  0  0  0  0  0  0  0  0  0  0  0
   -5.6850   -2.3770    0.5320 N   0  0  0  0  0  0  0  0  0  0  0  0
   -5.9070   -1.0180    0.2510 C   0  0  0  0  0  0  0  0  0  0  0  0
   -5.4110   -0.4900   -0.7470 O   0  0  0  0  0  0  0  0  0  0  0  0
   -6.7370   -0.1980    1.1500 C   0  0  0  0  0  0  0  0  0  0  0  0
   -7.2510   -0.6960    2.1690 O   0  0  0  0  0  0  0  0  0  0  0  0
   -6.9640    1.1600    0.8730 N   0  0  0  0  0  0  0  0  0  0  0  0
   -6.4080    1.8440   -0.2980 C   0  0  0  0  0  0  0  0  0  0  0  0
   -7.0120    3.2260   -0.3300 C   0  0  0  0  0  0  0  0  0  0  0  0
   -6.8320    3.9580    0.8160 O   0  0  0  0  0  0  0  0  0  0  0  0
   -6.9560    3.2560    1.9870 C   0  0  0  0  0  0  0  0  0  0  0  0
   -7.7750    1.9910    1.7410 C   0  0  0  0  0  0  0  0  0  0  0  0
    2.4580    0.0270   -0.6150 S   0  0  0  0  0  0  0  0  0  0  0  0
    7.6490    1.6630   -0.8550 C   0  0  0  0  0  0  0  0  0  0  0  0
    6.8860    1.6910   -2.4480 Cl  0  0  0  0  0  0  0  0  0  0  0  0
    8.9460    2.0240   -0.6660 C   0  0  0  0  0  0  0  0  0  0  0  0
    9.6650    2.4190   -1.7540 F   0  0  0  0  0  0  0  0  0  0  0  0
  1  2  1  0
  2  3  2  0
  2 38  1  0
  3  4  1  0
  3  5  1  0
  5  6  2  0
  6  7  1  0
  6 36  1  0
  7  8  1  0
  8  9  1  0
  9 10  2  0
  9 35  1  0
 10 11  1  0
 11 12  2  0
 13 12  1  1
 12 35  1  0
 13 14  1  0
 13 18  1  0
 14 15  1  0
 15 16  1  0
 16 17  1  0
 17 18  1  0
 18 19  1  0
 19 20  2  0
 19 21  2  0
 19 22  1  1
 22 23  1  0
 23 24  1  0
 24 25  1  0
 25 26  2  0
 25 27  1  0
 27 28  2  0
 27 29  1  0
 29 30  1  0
 29 34  1  0
 30 31  1  0
 31 32  1  0
 32 33  1  0
 33 34  1  0
 36 37  1  0
 36 38  2  0
 38 39  1  0
M  CHG  1  15   1
M  END
