
     RDKit          3D

 39 42  0  0  0  0  0  0  0  0999 V2000
   -6.2450    0.0330    1.7760 N   0  0  0  0  0  0  0  0  0  0  0  0
   -5.5350    0.2150    0.5860 C   0  0  0  0  0  0  0  0  0  0  0  0
   -5.5300   -0.7230   -0.3810 C   0  0  0  0  0  0  0  0  0  0  0  0
   -6.4660   -2.1480   -0.0220 Cl  0  0  0  0  0  0  0  0  0  0  0  0
   -4.7870   -0.5150   -1.6080 C   0  0  0  0  0  0  0  0  0  0  0  0
   -4.6740   -1.2920   -2.6190 C   0  0  0  0  0  0  0  0  0  0  0  0
   -5.2720   -2.6070   -2.8030 C   0  0  1  0  0  0  0  0  0  0  0  0
   -4.9480   -3.4570   -1.7700 F   0  0  0  0  0  0  0  0  0  0  0  0
   -7.0360   -2.4490   -2.9020 Cl  0  0  0  0  0  0  0  0  0  0  0  0
   -4.0910    0.7840   -1.6270 N   0  0  0  0  0  0  0  0  0  0  0  0
   -4.6130    1.9330   -2.2310 C   0  0  0  0  0  0  0  0  0  0  0  0
   -4.3090    3.2130   -1.5010 C   0  0  0  0  0  0  0  0  0  0  0  0
   -3.0230    3.2240   -0.8300 C   0  0  0  0  0  0  0  0  0  0  0  0
   -2.3010    4.3080   -0.3450 C   0  0  0  0  0  0  0  0  0  0  0  0
   -1.1970    3.8580    0.1830 O   0  0  0  0  0  0  0  0  0  0  0  0
   -1.1400    2.5520    0.0800 C   0  0  0  0  0  0  0  0  0  0  0  0
   -2.2960    2.1060   -0.5650 C   0  0  0  0  0  0  0  0  0  0  0  0
   -2.7850    0.7910   -0.9500 C   0  0  0  0  0  0  0  0  0  0  0  0
   -2.2200   -0.2720   -0.7650 N   0  0  0  0  0  0  0  0  0  0  0  0
   -0.8300   -0.8760   -0.1060 S   0  0  1  0  0  0  0  0  0  0  0  0
   -0.6970   -2.4050   -0.4110 O   0  0  0  0  0  0  0  0  0  0  0  0
    0.4390   -0.3290   -0.7460 O   0  0  0  0  0  0  0  0  0  0  0  0
   -0.6900   -0.7570    1.6380 C   0  0  0  0  0  0  0  0  0  0  0  0
    0.5700   -1.3620    2.2200 C   0  0  0  0  0  0  0  0  0  0  0  0
    1.8130   -0.7230    1.7830 C   0  0  0  0  0  0  0  0  0  0  0  0
    1.7030    0.4630    1.2890 O   0  0  0  0  0  0  0  0  0  0  0  0
    3.1140   -1.2200    1.8330 N   0  0  0  0  0  0  0  0  0  0  0  0
    4.1920   -0.2900    1.3470 C   0  0  0  0  0  0  0  0  0  0  0  0
    4.3610   -0.5350   -0.1210 C   0  0  0  0  0  0  0  0  0  0  0  0
    3.6630   -1.3910   -0.7050 O   0  0  0  0  0  0  0  0  0  0  0  0
    5.3170    0.2050   -0.8570 N   0  0  0  0  0  0  0  0  0  0  0  0
    5.4600   -0.0510   -2.2690 C   0  0  0  0  0  0  0  0  0  0  0  0
    6.4440    0.8880   -2.9210 C   0  0  0  0  0  0  0  0  0  0  0  0
    5.9140    2.5840   -2.4720 S   0  0  0  0  0  0  0  0  0  0  0  0
    5.8060    2.6070   -0.6440 C   0  0  0  0  0  0  0  0  0  0  0  0
    6.1310    1.2040   -0.1760 C   0  0  0  0  0  0  0  0  0  0  0  0
    3.5750   -2.5110    2.2590 C   0  0  2  0  0  0  0  0  0  0  0  0
    2.8420   -3.7610    1.8270 C   0  0  0  0  0  0  0  0  0  0  0  0
    2.8410   -3.3650    3.2380 C   0  0  0  0  0  0  0  0  0  0  0  0
  1  2  1  0
  2  3  2  3
  3  4  1  0
  3  5  1  0
  5  6  2  3
  5 10  1  0
  6  7  1  0
  7  8  1  1
  7  9  1  0
 10 11  1  0
 10 18  1  0
 11 12  1  0
 12 13  1  0
 13 14  2  0
 13 17  1  0
 14 15  1  0
 15 16  1  0
 16 17  2  0
 17 18  1  0
 18 19  2  3
 19 20  1  0
 20 21  2  0
 20 22  2  0
 20 23  1  1
 23 24  1  0
 24 25  1  0
 25 26  2  0
 25 27  1  0
 27 28  1  0
 37 27  1  6
 28 29  1  0
 29 30  2  0
 29 31  1  0
 31 32  1  0
 31 36  1  0
 32 33  1  0
 33 34  1  0
 34 35  1  0
 35 36  1  0
 37 38  1  0
 37 39  1  0
 38 39  1  0
M  CHG  1   1   1
M  END
