
     RDKit          3D

 39 42  0  0  0  0  0  0  0  0999 V2000
   10.2890    0.2550    0.9480 C   0  0  0  0  0  0  0  0  0  0  0  0
    8.8140    0.2370    0.8970 C   0  0  0  0  0  0  0  0  0  0  0  0
    8.1670   -0.9550    0.6800 C   0  0  0  0  0  0  0  0  0  0  0  0
    6.7990   -0.9560    0.6350 C   0  0  0  0  0  0  0  0  0  0  0  0
    6.0270    0.1690    0.7950 C   0  0  0  0  0  0  0  0  0  0  0  0
    4.5830    0.0610    0.7310 C   0  0  0  0  0  0  0  0  0  0  0  0
    3.8930    1.0820    0.8760 O   0  0  0  0  0  0  0  0  0  0  0  0
    3.9680   -1.1070    0.5190 O   0  0  0  0  0  0  0  0  0  0  0  0
    2.7130   -1.5770    0.3910 C   0  0  0  0  0  0  0  0  0  0  0  0
    1.8410   -1.2070   -0.7160 C   0  0  0  0  0  0  0  0  0  0  0  0
    1.4260   -2.2130   -1.4920 C   0  0  0  0  0  0  0  0  0  0  0  0
    1.9360   -3.8740   -1.1530 Cl  0  0  0  0  0  0  0  0  0  0  0  0
    0.5480   -2.0170   -2.6190 C   0  0  0  0  0  0  0  0  0  0  0  0
    0.1570   -2.9830   -3.3570 O   0  0  0  0  0  0  0  0  0  0  0  0
    0.1000   -0.6720   -2.9160 C   0  0  0  0  0  0  0  0  0  0  0  0
   -0.6630   -0.4140   -3.8780 O   0  0  0  0  0  0  0  0  0  0  0  0
    0.5990    0.3890   -2.0130 C   0  0  0  0  0  0  0  0  0  0  0  0
    0.2130    1.6770   -2.2440 O   0  0  0  0  0  0  0  0  0  0  0  0
   -0.3590    2.5320   -1.3310 C   0  0  0  0  0  0  0  0  0  0  0  0
   -1.6780    2.0500   -0.8260 C   0  0  1  0  0  0  0  0  0  0  0  0
   -2.6350    1.8370   -1.8070 O   0  0  0  0  0  0  0  0  0  0  0  0
   -1.5300    0.8370    0.0410 C   0  0  0  0  0  0  0  0  0  0  0  0
   -2.8370    0.6420    0.6770 N   0  0  0  0  0  0  0  0  0  0  0  0
   -3.2950    1.1740    1.9080 C   0  0  0  0  0  0  0  0  0  0  0  0
   -2.5710    1.9220    2.6300 O   0  0  0  0  0  0  0  0  0  0  0  0
   -4.6270    0.7340    2.1490 N   0  0  0  0  0  0  0  0  0  0  0  0
   -5.1100    0.2630    0.8650 C   0  0  2  0  0  0  0  0  0  0  0  0
   -5.8800    1.3360    0.1300 C   0  0  0  0  0  0  0  0  0  0  0  0
   -7.0160    0.6240   -0.5690 C   0  0  0  0  0  0  0  0  0  0  0  0
   -6.7680   -0.8580   -0.3550 C   0  0  0  0  0  0  0  0  0  0  0  0
   -6.0910   -0.8530    0.9970 C   0  0  1  0  0  0  0  0  0  0  0  0
   -5.4930   -2.1830    1.3670 C   0  0  0  0  0  0  0  0  0  0  0  0
   -6.8710   -3.3860    1.4730 S   0  0  0  0  0  0  0  0  0  0  0  0
   -3.9050   -0.1440    0.1440 C   0  0  0  0  0  0  0  0  0  0  0  0
   -3.7840   -1.0220   -0.7850 O   0  0  0  0  0  0  0  0  0  0  0  0
    1.4110    0.1240   -0.9890 C   0  0  0  0  0  0  0  0  0  0  0  0
    6.6860    1.3600    1.0130 C   0  0  0  0  0  0  0  0  0  0  0  0
    8.0720    1.4020    1.0650 C   0  0  0  0  0  0  0  0  0  0  0  0
    8.9220    2.9090    1.3400 Cl  0  0  0  0  0  0  0  0  0  0  0  0
  1  2  1  0
  2  3  2  0
  2 38  1  0
  3  4  1  0
  4  5  2  0
  5  6  1  0
  5 37  1  0
  6  7  2  0
  6  8  1  0
  8  9  1  0
  9 10  1  0
 10 11  2  0
 10 36  1  0
 11 12  1  0
 11 13  1  0
 13 14  2  0
 13 15  1  0
 15 16  2  0
 15 17  1  0
 17 18  1  0
 17 36  2  0
 18 19  1  0
 19 20  1  0
 20 21  1  6
 20 22  1  0
 22 23  1  0
 23 24  1  0
 23 34  1  0
 24 25  2  0
 24 26  1  0
 26 27  1  0
 27 28  1  6
 27 31  1  0
 27 34  1  0
 28 29  1  0
 29 30  1  0
 30 31  1  0
 31 32  1  6
 32 33  1  0
 34 35  2  0
 37 38  2  0
 38 39  1  0
M  END
