
     RDKit          3D

 39 41  0  0  0  0  0  0  0  0999 V2000
   -2.9050   -3.1170   -2.3840 C   0  0  0  0  0  0  0  0  0  0  0  0
   -3.9090   -2.8730   -1.2660 C   0  0  1  0  0  0  0  0  0  0  0  0
   -4.1760   -4.1840   -0.5140 C   0  0  0  0  0  0  0  0  0  0  0  0
   -3.3780   -1.8530   -0.3540 C   0  0  0  0  0  0  0  0  0  0  0  0
   -3.9600   -0.6970   -0.1170 C   0  0  0  0  0  0  0  0  0  0  0  0
   -5.2130   -0.2530   -0.7210 C   0  0  0  0  0  0  0  0  0  0  0  0
   -5.7000    0.9150   -0.4140 C   0  0  0  0  0  0  0  0  0  0  0  0
   -4.8430    1.9600    0.7330 S   0  0  0  0  0  0  0  0  0  0  0  0
   -5.8350    3.4630    0.8760 C   0  0  0  0  0  0  0  0  0  0  0  0
   -5.4090    4.4630    1.7040 C   0  0  0  0  0  0  0  0  0  0  0  0
   -6.1370    5.6210    1.8400 C   0  0  0  0  0  0  0  0  0  0  0  0
   -5.5830    6.9020    2.9060 Cl  0  0  0  0  0  0  0  0  0  0  0  0
   -7.3110    5.8140    1.1530 C   0  0  0  0  0  0  0  0  0  0  0  0
   -8.2510    7.2930    1.3200 Cl  0  0  0  0  0  0  0  0  0  0  0  0
   -7.7120    4.7940    0.3310 C   0  0  0  0  0  0  0  0  0  0  0  0
   -6.9940    3.6010    0.1700 C   0  0  0  0  0  0  0  0  0  0  0  0
   -7.5290    2.6170   -0.7240 N   0  0  0  0  0  0  0  0  0  0  0  0
   -6.9400    1.3740   -1.0000 C   0  0  0  0  0  0  0  0  0  0  0  0
   -7.5050    0.5640   -1.8200 O   0  0  0  0  0  0  0  0  0  0  0  0
   -2.1200   -2.1510    0.3330 C   0  0  0  0  0  0  0  0  0  0  0  0
   -1.5480   -3.2250    0.1340 O   0  0  0  0  0  0  0  0  0  0  0  0
   -1.5360   -1.2500    1.2170 O   0  0  0  0  0  0  0  0  0  0  0  0
   -0.3210   -1.5380    1.8790 C   0  0  0  0  0  0  0  0  0  0  0  0
    0.7760   -1.7680    0.9050 C   0  0  0  0  0  0  0  0  0  0  0  0
    0.5430   -1.6890   -0.3250 O   0  0  0  0  0  0  0  0  0  0  0  0
    2.0460   -2.0650    1.3150 O   0  0  0  0  0  0  0  0  0  0  0  0
    3.1260   -2.2920    0.4310 C   0  0  2  0  0  0  0  0  0  0  0  0
    3.6130   -3.7230    0.6010 C   0  0  0  0  0  0  0  0  0  0  0  0
    4.1970   -1.3200    0.7660 C   0  0  0  0  0  0  0  0  0  0  0  0
    4.0660   -0.4790    1.6990 O   0  0  0  0  0  0  0  0  0  0  0  0
    5.4330   -1.2780    0.0570 N   0  0  0  0  0  0  0  0  0  0  0  0
    6.4750   -0.3240    0.3920 C   0  0  1  0  0  0  0  0  0  0  0  0
    7.7060   -1.1300    0.7490 C   0  0  0  0  0  0  0  0  0  0  0  0
    6.7790    0.5050   -0.8450 C   0  0  1  0  0  0  0  0  0  0  0  0
    5.5460    1.1200   -1.4400 C   0  0  0  0  0  0  0  0  0  0  0  0
    5.2100    2.3410   -0.9120 O   0  0  0  0  0  0  0  0  0  0  0  0
    6.3070    3.2160   -0.8470 C   0  0  0  0  0  0  0  0  0  0  0  0
    7.2950    2.5490    0.1150 C   0  0  0  0  0  0  0  0  0  0  0  0
    7.7690    1.4180   -0.5450 O   0  0  0  0  0  0  0  0  0  0  0  0
  2  1  1  6
  2  3  1  0
  2  4  1  0
  4  5  2  3
  4 20  1  0
  5  6  1  0
  6  7  2  3
  7  8  1  0
  7 18  1  0
  8  9  1  0
  9 10  2  0
  9 16  1  0
 10 11  1  0
 11 12  1  0
 11 13  2  0
 13 14  1  0
 13 15  1  0
 15 16  2  0
 16 17  1  0
 17 18  1  0
 18 19  2  0
 20 21  2  0
 20 22  1  0
 22 23  1  0
 23 24  1  0
 24 25  2  0
 24 26  1  0
 26 27  1  0
 27 28  1  1
 27 29  1  0
 29 30  2  0
 29 31  1  0
 31 32  1  0
 32 33  1  6
 32 34  1  0
 34 35  1  1
 34 39  1  0
 35 36  1  0
 36 37  1  0
 37 38  1  0
 38 39  1  0
M  END
