
     RDKit          3D

 39 43  0  0  0  0  0  0  0  0999 V2000
   -8.5500   -1.5470   -0.1200 C   0  0  0  0  0  0  0  0  0  0  0  0
   -7.3350   -1.1810   -0.4340 C   0  0  0  0  0  0  0  0  0  0  0  0
   -6.9340   -1.0480   -1.7510 O   0  0  0  0  0  0  0  0  0  0  0  0
   -5.6170   -0.7210   -2.0720 C   0  0  0  0  0  0  0  0  0  0  0  0
   -4.6390   -1.3610   -1.1620 C   0  0  0  0  0  0  0  0  0  0  0  0
   -4.9600   -1.4250    0.2910 C   0  0  1  0  0  0  0  0  0  0  0  0
   -3.7050   -0.8700    1.4000 S   0  0  0  0  0  0  0  0  0  0  0  0
   -3.2750    0.8430    1.4580 C   0  0  0  0  0  0  0  0  0  0  0  0
   -2.7030    1.3310    0.2070 N   0  0  0  0  0  0  0  0  0  0  0  0
   -3.5150    1.9700   -0.6760 C   0  0  0  0  0  0  0  0  0  0  0  0
   -4.7300    2.1370   -0.3360 O   0  0  0  0  0  0  0  0  0  0  0  0
   -3.0570    2.4090   -1.8520 N   0  0  0  0  0  0  0  0  0  0  0  0
   -1.7780    2.2180   -2.1650 C   0  0  0  0  0  0  0  0  0  0  0  0
   -1.0490    2.5460   -3.3090 C   0  0  0  0  0  0  0  0  0  0  0  0
    0.1410    2.1310   -3.1220 O   0  0  0  0  0  0  0  0  0  0  0  0
    0.2960    1.5330   -1.9210 C   0  0  0  0  0  0  0  0  0  0  0  0
    1.5460    0.9720   -1.4590 C   0  0  0  0  0  0  0  0  0  0  0  0
    2.2600    0.3990   -2.3670 O   0  0  0  0  0  0  0  0  0  0  0  0
    2.0560    0.9940   -0.1540 N   0  0  0  0  0  0  0  0  0  0  0  0
    3.3520    0.3570    0.1550 C   0  0  1  0  0  0  0  0  0  0  0  0
    4.3030    1.3470    0.7590 C   0  0  0  0  0  0  0  0  0  0  0  0
    5.6730    0.9060    0.5960 N   0  0  0  0  0  0  0  0  0  0  0  0
    5.9930   -0.2270    1.1470 C   0  0  0  0  0  0  0  0  0  0  0  0
    7.3120   -0.7260    1.0340 N   0  0  0  0  0  0  0  0  0  0  0  0
    7.6730   -2.1220    0.9430 C   0  0  0  0  0  0  0  0  0  0  0  0
    8.7160   -2.0920   -0.1670 C   0  0  0  0  0  0  0  0  0  0  0  0
    9.3020   -0.7100   -0.1040 C   0  0  0  0  0  0  0  0  0  0  0  0
    8.5430    0.0290    0.9860 C   0  0  0  0  0  0  0  0  0  0  0  0
    4.6980   -1.0860    2.0290 S   0  0  0  0  0  0  0  0  0  0  0  0
    3.1450   -0.7830    1.1410 C   0  0  0  0  0  0  0  0  0  0  0  0
   -0.9130    1.5680   -1.2800 C   0  0  0  0  0  0  0  0  0  0  0  0
   -1.4050    1.1190   -0.0720 C   0  0  0  0  0  0  0  0  0  0  0  0
   -0.6670    0.5230    0.7510 O   0  0  0  0  0  0  0  0  0  0  0  0
   -6.3470   -0.8960    0.6000 C   0  0  0  0  0  0  0  0  0  0  0  0
   -6.5990   -0.2100    1.6720 C   0  0  0  0  0  0  0  0  0  0  0  0
   -7.8090    0.4400    2.1460 C   0  0  2  0  0  0  0  0  0  0  0  0
   -8.6910    0.8520    1.1680 F   0  0  0  0  0  0  0  0  0  0  0  0
   -7.2510    2.0100    2.8920 Cl  0  0  0  0  0  0  0  0  0  0  0  0
   -8.6010   -0.4230    3.4820 Cl  0  0  0  0  0  0  0  0  0  0  0  0
  1  2  2  0
  2  3  1  0
  2 34  1  0
  3  4  1  0
  4  5  1  0
  5  6  1  0
  6  7  1  1
  6 34  1  0
  7  8  1  0
  8  9  1  0
  9 10  1  0
  9 32  1  0
 10 11  2  0
 10 12  1  0
 12 13  1  0
 13 14  2  0
 13 31  1  0
 14 15  1  0
 15 16  1  0
 16 17  1  0
 16 31  2  0
 17 18  2  0
 17 19  1  0
 20 19  1  1
 20 21  1  0
 20 30  1  0
 21 22  1  0
 22 23  2  0
 23 24  1  0
 23 29  1  0
 24 25  1  0
 24 28  1  0
 25 26  1  0
 26 27  1  0
 27 28  1  0
 29 30  1  0
 31 32  1  0
 32 33  2  0
 34 35  2  3
 35 36  1  0
 36 37  1  6
 36 38  1  0
 36 39  1  0
M  CHG  1  22   1
M  END
