
     RDKit          3D

 39 42  0  0  0  0  0  0  0  0999 V2000
   -6.1670    1.0070   -2.9710 C   0  0  0  0  0  0  0  0  0  0  0  0
   -4.7680    1.0170   -3.4990 C   0  0  0  0  0  0  0  0  0  0  0  0
   -3.8030    0.2790   -2.6040 C   0  0  2  0  0  0  0  0  0  0  0  0
   -4.1440   -1.1510   -2.4100 C   0  0  0  0  0  0  0  0  0  0  0  0
   -3.5410    0.9800   -1.3180 C   0  0  0  0  0  0  0  0  0  0  0  0
   -2.6600    0.3620   -0.4050 N   0  0  0  0  0  0  0  0  0  0  0  0
   -1.4630    1.1040   -0.0840 C   0  0  0  0  0  0  0  0  0  0  0  0
   -0.2280    0.2660   -0.1540 C   0  0  1  0  0  0  0  0  0  0  0  0
   -0.0740   -0.2250   -1.4500 O   0  0  0  0  0  0  0  0  0  0  0  0
    0.9830    1.0930    0.1810 C   0  0  2  0  0  0  0  0  0  0  0  0
    1.1190    2.3550   -0.6180 C   0  0  0  0  0  0  0  0  0  0  0  0
    2.3490    3.1110   -0.2420 C   0  0  0  0  0  0  0  0  0  0  0  0
    3.5120    2.8390   -0.9310 C   0  0  0  0  0  0  0  0  0  0  0  0
    4.6490    3.5350   -0.5820 C   0  0  0  0  0  0  0  0  0  0  0  0
    4.6740    4.4820    0.4150 C   0  0  0  0  0  0  0  0  0  0  0  0
    3.5020    4.7350    1.0860 C   0  0  0  0  0  0  0  0  0  0  0  0
    2.3490    4.0410    0.7460 C   0  0  0  0  0  0  0  0  0  0  0  0
    2.1930    0.2630    0.0960 N   0  0  0  0  0  0  0  0  0  0  0  0
    2.9680   -0.0220    1.2400 C   0  0  0  0  0  0  0  0  0  0  0  0
    2.6660    0.4180    2.3800 O   0  0  0  0  0  0  0  0  0  0  0  0
    4.0950   -0.7960    1.1640 O   0  0  0  0  0  0  0  0  0  0  0  0
    4.9450   -1.1550    2.2120 C   0  0  1  0  0  0  0  0  0  0  0  0
    5.1120   -2.6080    2.4360 C   0  0  0  0  0  0  0  0  0  0  0  0
    6.2880   -2.6610    3.1990 O   0  0  0  0  0  0  0  0  0  0  0  0
    7.1800   -1.8060    2.5190 C   0  0  1  0  0  0  0  0  0  0  0  0
    7.7920   -2.4320    1.4650 O   0  0  0  0  0  0  0  0  0  0  0  0
    7.8000   -1.5940    0.3880 C   0  0  0  0  0  0  0  0  0  0  0  0
    6.6990   -0.5860    0.5510 C   0  0  0  0  0  0  0  0  0  0  0  0
    6.3650   -0.6740    2.0050 C   0  0  1  0  0  0  0  0  0  0  0  0
   -3.3330   -0.2740    1.0220 S   0  0  2  0  0  0  0  0  0  0  0  0
   -3.9840    0.9040    1.7510 O   0  0  0  0  0  0  0  0  0  0  0  0
   -2.1890   -0.7230    1.9130 O   0  0  0  0  0  0  0  0  0  0  0  0
   -4.4970   -1.5270    0.8240 C   0  0  0  0  0  0  0  0  0  0  0  0
   -5.8420   -1.1480    0.7860 C   0  0  0  0  0  0  0  0  0  0  0  0
   -6.8430   -2.0790    0.6300 C   0  0  0  0  0  0  0  0  0  0  0  0
   -6.5430   -3.4180    0.5060 C   0  0  0  0  0  0  0  0  0  0  0  0
   -7.5490   -4.3970    0.3440 N   0  0  0  0  0  0  0  0  0  0  0  0
   -5.2220   -3.7630    0.5470 C   0  0  0  0  0  0  0  0  0  0  0  0
   -4.2090   -2.8500    0.7010 C   0  0  0  0  0  0  0  0  0  0  0  0
  1  2  1  0
  2  3  1  0
  3  4  1  1
  3  5  1  0
  5  6  1  0
  6  7  1  0
 30  6  1  6
  7  8  1  0
  8  9  1  6
  8 10  1  0
 10 11  1  6
 10 18  1  0
 11 12  1  0
 12 13  2  0
 12 17  1  0
 13 14  1  0
 14 15  2  0
 15 16  1  0
 16 17  2  0
 18 19  1  0
 19 20  2  0
 19 21  1  0
 22 21  1  6
 22 23  1  0
 22 29  1  0
 23 24  1  0
 25 24  1  6
 25 26  1  0
 25 29  1  0
 26 27  1  0
 27 28  1  0
 29 28  1  6
 30 31  2  0
 30 32  2  0
 30 33  1  0
 33 34  2  0
 33 39  1  0
 34 35  1  0
 35 36  2  0
 36 37  1  0
 36 38  1  0
 38 39  2  0
M  END
