
     RDKit          3D

 38 41  0  0  0  0  0  0  0  0999 V2000
   -6.3010   -0.0570   -3.9400 C   0  0  0  0  0  0  0  0  0  0  0  0
   -5.3560   -0.1160   -3.0340 O   0  0  0  0  0  0  0  0  0  0  0  0
   -4.1460   -0.4110   -2.6060 C   0  0  0  0  0  0  0  0  0  0  0  0
   -3.1640   -0.9550   -3.3500 N   0  0  0  0  0  0  0  0  0  0  0  0
   -1.9560   -1.2310   -2.8120 C   0  0  0  0  0  0  0  0  0  0  0  0
   -1.6840   -0.9770   -1.5270 C   0  0  0  0  0  0  0  0  0  0  0  0
   -2.6550   -0.4020   -0.6450 C   0  0  0  0  0  0  0  0  0  0  0  0
   -2.2160   -0.1390    0.6930 C   0  0  0  0  0  0  0  0  0  0  0  0
   -0.9660    0.2190    0.9570 C   0  0  0  0  0  0  0  0  0  0  0  0
    0.4220    0.5000   -0.1210 S   0  0  0  0  0  0  0  0  0  0  0  0
    1.6670    0.5080    1.1410 C   0  0  0  0  0  0  0  0  0  0  0  0
    3.0380    0.6010    1.0020 N   0  0  0  0  0  0  0  0  0  0  0  0
    3.9170    0.6020    2.1830 C   0  0  0  0  0  0  0  0  0  0  0  0
    4.7970   -0.6180    2.0820 C   0  0  0  0  0  0  0  0  0  0  0  0
    5.6230   -0.5970    0.8130 C   0  0  2  0  0  0  0  0  0  0  0  0
    6.5590    0.5070    0.8840 N   0  0  1  0  0  0  0  0  0  0  0  0
    7.1470    0.4980    2.2260 C   0  0  0  0  0  0  0  0  0  0  0  0
    7.8490    0.3240   -0.2350 S   0  0  1  0  0  0  0  0  0  0  0  0
    8.0810    1.6430   -0.8940 O   0  0  0  0  0  0  0  0  0  0  0  0
    9.1210   -0.1410    0.4410 O   0  0  0  0  0  0  0  0  0  0  0  0
    7.4970   -0.8020   -1.4300 O   0  0  0  0  0  0  0  0  0  0  0  0
    7.8030   -0.2940   -2.6850 C   0  0  0  0  0  0  0  0  0  0  0  0
    4.6690   -0.5190   -0.3390 C   0  0  0  0  0  0  0  0  0  0  0  0
    3.7070    0.6610   -0.2610 C   0  0  0  0  0  0  0  0  0  0  0  0
    1.0440    0.3570    2.2730 N   0  0  0  0  0  0  0  0  0  0  0  0
   -0.3100    0.2120    2.2960 C   0  0  0  0  0  0  0  0  0  0  0  0
   -0.9950    0.0760    3.3560 O   0  0  0  0  0  0  0  0  0  0  0  0
   -3.8420   -0.1460   -1.2340 C   0  0  0  0  0  0  0  0  0  0  0  0
   -4.9430    0.5320   -0.5300 C   0  0  0  0  0  0  0  0  0  0  0  0
   -5.1950   -0.2570    0.6830 N   0  0  0  0  0  0  0  0  0  0  0  0
   -6.6200   -0.2000    1.0050 C   0  0  0  0  0  0  0  0  0  0  0  0
   -7.0840    0.0740    2.2350 C   0  0  0  0  0  0  0  0  0  0  0  0
   -8.4650    0.1500    2.4430 C   0  0  0  0  0  0  0  0  0  0  0  0
   -9.3560   -0.0500    1.4010 C   0  0  0  0  0  0  0  0  0  0  0  0
  -11.0750    0.0950    1.6610 Cl  0  0  0  0  0  0  0  0  0  0  0  0
   -8.8700   -0.3340    0.1290 C   0  0  0  0  0  0  0  0  0  0  0  0
   -9.9640   -0.5770   -1.2070 Cl  0  0  0  0  0  0  0  0  0  0  0  0
   -7.5080   -0.4060   -0.0440 C   0  0  0  0  0  0  0  0  0  0  0  0
  1  2  1  0
  2  3  1  0
  3  4  2  0
  3 28  1  0
  4  5  1  0
  5  6  2  0
  6  7  1  0
  7  8  1  0
  7 28  2  0
  8  9  2  3
  9 10  1  0
  9 26  1  0
 10 11  1  0
 11 12  1  0
 11 25  2  0
 12 13  1  0
 12 24  1  0
 13 14  1  0
 15 14  1  1
 15 16  1  0
 15 23  1  0
 16 17  1  1
 16 18  1  0
 18 19  2  0
 18 20  2  0
 18 21  1  6
 21 22  1  0
 23 24  1  0
 25 26  1  0
 26 27  2  0
 28 29  1  0
 29 30  1  0
 30 31  1  0
 31 32  2  0
 31 38  1  0
 32 33  1  0
 33 34  2  0
 34 35  1  0
 34 36  1  0
 36 37  1  0
 36 38  2  0
M  CHG  1  16   1
M  END
