
     RDKit          3D

 40 41  0  0  0  0  0  0  0  0999 V2000
    8.9730    1.8490   -1.1210 C   0  0  0  0  0  0  0  0  0  0  0  0
    9.0020    1.9260    0.7190 S   0  0  0  0  0  0  0  0  0  0  0  0
    8.0320    3.3290    1.2170 C   0  0  0  0  0  0  0  0  0  0  0  0
    6.6030    3.2370    1.0870 C   0  0  0  0  0  0  0  0  0  0  0  0
    5.8370    2.2500    0.7730 C   0  0  0  0  0  0  0  0  0  0  0  0
    6.1790    0.9160    0.4630 C   0  0  0  0  0  0  0  0  0  0  0  0
    5.2550   -0.0150    0.1250 C   0  0  0  0  0  0  0  0  0  0  0  0
    3.8560    0.1980    0.0330 C   0  0  0  0  0  0  0  0  0  0  0  0
    2.8720   -0.5770   -0.2700 C   0  0  0  0  0  0  0  0  0  0  0  0
    2.7980   -1.9570   -0.6320 C   0  0  0  0  0  0  0  0  0  0  0  0
    1.6130   -2.4730   -0.8940 O   0  0  0  0  0  0  0  0  0  0  0  0
    3.8420   -2.8770   -0.7510 N   0  0  0  0  0  0  0  0  0  0  0  0
    3.5750   -4.2790   -1.1380 C   0  0  0  0  0  0  0  0  0  0  0  0
    4.8770   -5.0640   -1.1980 C   0  0  0  0  0  0  0  0  0  0  0  0
    5.4720   -5.0240    0.0730 O   0  0  0  0  0  0  0  0  0  0  0  0
    1.5080    0.1290   -0.2340 C   0  0  0  0  0  0  0  0  0  0  0  0
    1.4280    1.3140    0.0740 O   0  0  0  0  0  0  0  0  0  0  0  0
    0.3780   -0.5670   -0.5470 O   0  0  0  0  0  0  0  0  0  0  0  0
   -0.9420   -0.0700   -0.5630 C   0  0  0  0  0  0  0  0  0  0  0  0
   -1.8960   -1.1660   -0.9950 C   0  0  0  0  0  0  0  0  0  0  0  0
   -3.3100   -0.7160   -1.0380 C   0  0  0  0  0  0  0  0  0  0  0  0
   -3.6200    0.4500   -0.6920 O   0  0  0  0  0  0  0  0  0  0  0  0
   -4.3450   -1.5810   -1.4690 N   0  0  0  0  0  0  0  0  0  0  0  0
   -5.6610   -1.2820   -1.5520 O   0  0  0  0  0  0  0  0  0  0  0  0
   -6.3330   -0.2400   -0.9680 C   0  0  0  0  0  0  0  0  0  0  0  0
   -6.3900    1.0080   -1.5350 C   0  0  0  0  0  0  0  0  0  0  0  0
   -7.0500    2.0680   -0.9720 C   0  0  0  0  0  0  0  0  0  0  0  0
   -7.0870    3.4160   -1.6360 C   0  0  0  0  0  0  0  0  0  0  0  0
   -7.6770    1.8350    0.2220 C   0  0  0  0  0  0  0  0  0  0  0  0
   -7.6390    0.5690    0.8310 C   0  0  0  0  0  0  0  0  0  0  0  0
   -8.3910    0.4240    2.1160 C   0  0  0  0  0  0  0  0  0  0  0  0
   -6.9730   -0.4890    0.2580 C   0  0  0  0  0  0  0  0  0  0  0  0
   -6.9490   -1.8130    0.8210 C   0  0  0  0  0  0  0  0  0  0  0  0
   -7.2690   -2.2580    2.0160 C   0  0  0  0  0  0  0  0  0  0  0  0
   -7.0530   -3.7270    2.0550 C   0  0  0  0  0  0  0  0  0  0  0  0
   -6.3080   -3.9200    0.9930 C   0  0  0  0  0  0  0  0  0  0  0  0
   -6.5790   -3.0240    0.0470 C   0  0  0  0  0  0  0  0  0  0  0  0
    5.8760    4.5420    1.3800 C   0  0  0  0  0  0  0  0  0  0  0  0
    6.6600    5.6530    1.7290 N   0  0  0  0  0  0  0  0  0  0  0  0
    4.6310    4.6000    1.3060 O   0  0  0  0  0  0  0  0  0  0  0  0
  1  2  1  0
  2  3  1  0
  3  4  1  0
  4  5  2  3
  4 38  1  0
  5  6  1  0
  6  7  2  3
  7  8  1  0
  8  9  2  3
  9 10  1  0
  9 16  1  0
 10 11  2  0
 10 12  1  0
 12 13  1  0
 13 14  1  0
 14 15  1  0
 16 17  2  0
 16 18  1  0
 18 19  1  0
 19 20  1  0
 20 21  1  0
 21 22  2  0
 21 23  1  0
 23 24  1  0
 24 25  1  0
 25 26  2  0
 25 32  1  0
 26 27  1  0
 27 28  1  0
 27 29  2  0
 29 30  1  0
 30 31  1  0
 30 32  2  0
 32 33  1  0
 33 34  2  0
 33 37  1  0
 34 35  1  0
 35 36  2  0
 36 37  2  0
 38 39  1  0
 38 40  2  0
M  END
