
     RDKit          3D

 40 42  0  0  0  0  0  0  0  0999 V2000
   -4.4750   -0.6630   -5.2760 C   0  0  0  0  0  0  0  0  0  0  0  0
   -5.8630   -0.8880   -4.1330 S   0  0  0  0  0  0  0  0  0  0  0  0
   -5.8230    0.2370   -2.7390 C   0  0  0  0  0  0  0  0  0  0  0  0
   -4.6860   -0.0730   -1.8700 C   0  0  0  0  0  0  0  0  0  0  0  0
   -3.8550   -1.1240   -2.2010 C   0  0  0  0  0  0  0  0  0  0  0  0
   -2.7670   -1.4890   -1.4670 C   0  0  0  0  0  0  0  0  0  0  0  0
   -2.4420   -0.7710   -0.2920 C   0  0  0  0  0  0  0  0  0  0  0  0
   -1.3500   -1.1530    0.4310 O   0  0  0  0  0  0  0  0  0  0  0  0
   -0.8150   -0.6040    1.5750 C   0  0  0  0  0  0  0  0  0  0  0  0
   -0.2700    0.8050    1.4400 C   0  0  0  0  0  0  0  0  0  0  0  0
    0.7270    0.9910    0.5300 O   0  0  0  0  0  0  0  0  0  0  0  0
    1.9850    0.4670    0.5270 C   0  0  0  0  0  0  0  0  0  0  0  0
    2.5220   -0.3530    1.4830 C   0  0  0  0  0  0  0  0  0  0  0  0
    3.8340   -0.8330    1.3620 C   0  0  0  0  0  0  0  0  0  0  0  0
    4.6420   -0.5100    0.2920 C   0  0  0  0  0  0  0  0  0  0  0  0
    5.9810   -1.0400    0.2370 C   0  0  0  0  0  0  0  0  0  0  0  0
    6.4750   -1.6320    1.2190 O   0  0  0  0  0  0  0  0  0  0  0  0
    6.8140   -0.9190   -0.9410 N   0  0  0  0  0  0  0  0  0  0  0  0
    8.1340   -1.4470   -0.9810 C   0  0  0  0  0  0  0  0  0  0  0  0
    9.1230   -0.8440   -0.1080 C   0  0  0  0  0  0  0  0  0  0  0  0
    9.0710    0.2390    0.6080 C   0  0  0  0  0  0  0  0  0  0  0  0
    7.9970    1.2030    0.7450 C   0  0  0  0  0  0  0  0  0  0  0  0
    7.5140    1.3260    2.0320 O   0  0  0  0  0  0  0  0  0  0  0  0
   10.4130   -1.6240   -0.0420 C   0  0  0  0  0  0  0  0  0  0  0  0
   11.4290   -1.1150    0.7770 N   0  0  0  0  0  0  0  0  0  0  0  0
   10.5360   -2.6680   -0.6960 O   0  0  0  0  0  0  0  0  0  0  0  0
    4.0760    0.3160   -0.6520 C   0  0  0  0  0  0  0  0  0  0  0  0
    2.8010    0.8010   -0.5650 C   0  0  0  0  0  0  0  0  0  0  0  0
   -3.2810    0.2680    0.0210 C   0  0  0  0  0  0  0  0  0  0  0  0
   -4.3920    0.6450   -0.7250 C   0  0  0  0  0  0  0  0  0  0  0  0
   -5.2380    1.7770   -0.2880 C   0  0  2  0  0  0  0  0  0  0  0  0
   -4.4940    2.6600    0.5270 O   0  0  0  0  0  0  0  0  0  0  0  0
   -6.4170    1.3660    0.5120 C   0  0  0  0  0  0  0  0  0  0  0  0
   -6.8640    0.0980    0.6800 C   0  0  0  0  0  0  0  0  0  0  0  0
   -7.9630   -0.1960    1.4340 C   0  0  0  0  0  0  0  0  0  0  0  0
   -8.4600   -1.5900    1.6230 C   0  0  0  0  0  0  0  0  0  0  0  0
   -8.6300    0.7910    2.0320 N   0  0  0  0  0  0  0  0  0  0  0  0
   -8.2400    2.0910    1.9080 C   0  0  0  0  0  0  0  0  0  0  0  0
   -8.9210    2.9720    2.5040 O   0  0  0  0  0  0  0  0  0  0  0  0
   -7.1290    2.3800    1.1450 C   0  0  0  0  0  0  0  0  0  0  0  0
  1  2  1  0
  2  3  1  0
  3  4  1  0
  4  5  2  0
  4 30  1  0
  5  6  1  0
  6  7  2  0
  7  8  1  0
  7 29  1  0
  8  9  1  0
  9 10  1  0
 10 11  1  0
 11 12  1  0
 12 13  2  0
 12 28  1  0
 13 14  1  0
 14 15  2  0
 15 16  1  0
 15 27  1  0
 16 17  2  0
 16 18  1  0
 18 19  1  0
 19 20  1  0
 20 21  2  3
 20 24  1  0
 21 22  1  0
 22 23  1  0
 24 25  1  0
 24 26  2  0
 27 28  2  0
 29 30  2  0
 30 31  1  0
 31 32  1  1
 31 33  1  0
 33 34  1  0
 33 40  2  0
 34 35  2  0
 35 36  1  0
 35 37  1  0
 37 38  1  0
 38 39  2  0
 38 40  1  0
M  END
