
     RDKit          3D

 40 42  0  0  0  0  0  0  0  0999 V2000
   11.3780    0.3130   -1.2040 C   0  0  0  0  0  0  0  0  0  0  0  0
    9.8880    0.6460   -1.0540 C   0  0  2  0  0  0  0  0  0  0  0  0
    9.8280    1.4720    0.0870 O   0  0  0  0  0  0  0  0  0  0  0  0
    9.1070   -0.6150   -0.8490 C   0  0  0  0  0  0  0  0  0  0  0  0
    7.7310   -0.2790   -0.5820 N   0  0  0  0  0  0  0  0  0  0  0  0
    6.9240    0.4180   -1.5020 C   0  0  0  0  0  0  0  0  0  0  0  0
    7.3990    0.7630   -2.5980 O   0  0  0  0  0  0  0  0  0  0  0  0
    5.5550    0.7270   -1.1710 C   0  0  0  0  0  0  0  0  0  0  0  0
    4.8740    1.6070   -2.0200 C   0  0  0  0  0  0  0  0  0  0  0  0
    3.5700    1.9500   -1.7740 C   0  0  0  0  0  0  0  0  0  0  0  0
    2.9320    1.4180   -0.6760 C   0  0  0  0  0  0  0  0  0  0  0  0
    3.5410    0.5490    0.1980 C   0  0  0  0  0  0  0  0  0  0  0  0
    2.8610   -0.0140    1.3620 C   0  0  0  0  0  0  0  0  0  0  0  0
    3.5150   -0.7830    2.0780 O   0  0  0  0  0  0  0  0  0  0  0  0
    1.4670    0.3920    1.5630 C   0  0  0  0  0  0  0  0  0  0  0  0
    0.7890   -0.1780    2.7510 C   0  0  0  0  0  0  0  0  0  0  0  0
    0.7010   -1.6730    2.7890 C   0  0  0  0  0  0  0  0  0  0  0  0
   -0.0420   -2.2610    1.6520 C   0  0  0  0  0  0  0  0  0  0  0  0
    0.5700   -2.6030    0.4690 C   0  0  0  0  0  0  0  0  0  0  0  0
   -0.1950   -3.1470   -0.5350 C   0  0  0  0  0  0  0  0  0  0  0  0
   -1.5490   -3.3710   -0.4200 C   0  0  0  0  0  0  0  0  0  0  0  0
   -2.1820   -3.0260    0.7800 C   0  0  0  0  0  0  0  0  0  0  0  0
   -3.5730   -3.2560    0.9140 N   0  0  0  0  0  0  0  0  0  0  0  0
   -4.6480   -2.0960    1.5830 S   0  0  2  0  0  0  0  0  0  0  0  0
   -3.9960   -1.2440    2.6480 O   0  0  0  0  0  0  0  0  0  0  0  0
   -5.7860   -2.8090    2.3080 O   0  0  0  0  0  0  0  0  0  0  0  0
   -5.3130   -1.0290    0.4220 N   0  0  0  0  0  0  0  0  0  0  0  0
   -4.5390    0.1480    0.2140 C   0  0  0  0  0  0  0  0  0  0  0  0
   -5.1250    1.0700   -0.7950 C   0  0  0  0  0  0  0  0  0  0  0  0
   -6.4730    1.5690   -0.5200 C   0  0  0  0  0  0  0  0  0  0  0  0
   -6.5570    2.7110    0.2670 C   0  0  0  0  0  0  0  0  0  0  0  0
   -7.7890    3.1850    0.6200 C   0  0  0  0  0  0  0  0  0  0  0  0
   -8.9560    2.5750    0.2260 C   0  0  0  0  0  0  0  0  0  0  0  0
   -8.8690    1.4470   -0.5530 C   0  0  0  0  0  0  0  0  0  0  0  0
  -10.0080    0.7840   -0.9840 O   0  0  0  0  0  0  0  0  0  0  0  0
   -7.6050    0.9430   -0.9280 C   0  0  0  0  0  0  0  0  0  0  0  0
   -7.5610   -0.2240   -1.8320 C   0  0  0  0  0  0  0  0  0  0  0  0
   -8.8880   -0.6470   -2.0930 O   0  0  0  0  0  0  0  0  0  0  0  0
   -1.3990   -2.4810    1.7740 C   0  0  0  0  0  0  0  0  0  0  0  0
    4.8730    0.2240   -0.0880 C   0  0  0  0  0  0  0  0  0  0  0  0
  2  1  1  1
  2  3  1  0
  2  4  1  0
  4  5  1  0
  5  6  1  0
  6  7  2  0
  6  8  1  0
  8  9  2  0
  8 40  1  0
  9 10  1  0
 10 11  2  0
 11 12  1  0
 12 13  1  0
 12 40  2  0
 13 14  2  0
 13 15  1  0
 15 16  1  0
 16 17  1  0
 17 18  1  0
 18 19  2  0
 18 39  1  0
 19 20  1  0
 20 21  2  0
 21 22  1  0
 22 23  1  0
 22 39  2  0
 24 23  1  6
 24 25  2  0
 24 26  2  0
 24 27  1  0
 27 28  1  0
 28 29  1  0
 29 30  1  0
 30 31  2  0
 30 36  1  0
 31 32  1  0
 32 33  2  0
 33 34  1  0
 34 35  1  0
 34 36  2  0
 36 37  1  0
 37 38  1  0
M  END
