
     RDKit          3D

 40 42  0  0  0  0  0  0  0  0999 V2000
   -6.1810    2.6090    0.2980 C   0  0  0  0  0  0  0  0  0  0  0  0
   -6.5370    1.7860   -0.6520 C   0  0  0  0  0  0  0  0  0  0  0  0
   -5.6810    1.3990   -1.7440 C   0  0  0  0  0  0  0  0  0  0  0  0
   -6.2130    0.5390   -2.6400 C   0  0  0  0  0  0  0  0  0  0  0  0
   -4.0820    1.9920   -1.9110 S   0  0  1  0  0  0  0  0  0  0  0  0
   -3.8800    2.0510   -3.4740 O   0  0  0  0  0  0  0  0  0  0  0  0
   -4.0980    3.4830   -1.5870 O   0  0  0  0  0  0  0  0  0  0  0  0
   -2.7900    1.1980   -1.3220 N   0  0  0  0  0  0  0  0  0  0  0  0
   -2.5210    0.8760    0.0360 C   0  0  2  0  0  0  0  0  0  0  0  0
   -2.4780    2.1200    0.8540 C   0  0  0  0  0  0  0  0  0  0  0  0
   -2.3710    2.0860    2.2650 N   0  0  0  0  0  0  0  0  0  0  0  0
   -2.5360    3.2190    0.2980 O   0  0  0  0  0  0  0  0  0  0  0  0
   -1.0560    0.4720    0.0190 C   0  0  0  0  0  0  0  0  0  0  0  0
   -0.1610    1.4730   -0.3930 C   0  0  0  0  0  0  0  0  0  0  0  0
    1.2030    1.2880   -0.4400 C   0  0  0  0  0  0  0  0  0  0  0  0
    1.7280    0.0900   -0.0760 C   0  0  0  0  0  0  0  0  0  0  0  0
    3.1150   -0.1630   -0.0770 N   0  0  0  0  0  0  0  0  0  0  0  0
    4.0870    0.8490   -0.0600 C   0  0  0  0  0  0  0  0  0  0  0  0
    3.7810    2.0690   -0.0350 O   0  0  0  0  0  0  0  0  0  0  0  0
    5.5290    0.5310   -0.0720 C   0  0  0  0  0  0  0  0  0  0  0  0
    5.9230   -0.7980   -0.0980 C   0  0  0  0  0  0  0  0  0  0  0  0
    7.2700   -1.1450   -0.1090 C   0  0  0  0  0  0  0  0  0  0  0  0
    7.6970   -2.5690   -0.1370 C   0  0  0  0  0  0  0  0  0  0  0  0
    7.8360   -3.0510   -1.4310 O   0  0  0  0  0  0  0  0  0  0  0  0
    8.1940   -0.1400   -0.0920 C   0  0  0  0  0  0  0  0  0  0  0  0
    7.8070    1.1600   -0.0660 C   0  0  0  0  0  0  0  0  0  0  0  0
    8.7340    2.2030   -0.0490 O   0  0  0  0  0  0  0  0  0  0  0  0
   10.1170    2.0030   -0.0570 C   0  0  0  0  0  0  0  0  0  0  0  0
    6.4540    1.5480   -0.0550 C   0  0  0  0  0  0  0  0  0  0  0  0
    6.1530    2.8530   -0.0300 O   0  0  0  0  0  0  0  0  0  0  0  0
    0.8390   -0.9150    0.3370 C   0  0  0  0  0  0  0  0  0  0  0  0
   -0.5330   -0.7090    0.3770 C   0  0  0  0  0  0  0  0  0  0  0  0
   -3.4410   -0.1580    0.5520 C   0  0  2  0  0  0  0  0  0  0  0  0
   -3.1670   -0.5570    1.9780 C   0  0  0  0  0  0  0  0  0  0  0  0
   -3.6510   -1.3220   -0.3370 C   0  0  0  0  0  0  0  0  0  0  0  0
   -4.6200   -2.3490    0.1420 C   0  0  0  0  0  0  0  0  0  0  0  0
   -5.3710   -2.3660    1.2160 C   0  0  0  0  0  0  0  0  0  0  0  0
   -6.1730   -3.6260    1.2480 C   0  0  0  0  0  0  0  0  0  0  0  0
   -5.7500   -4.3090    0.0180 C   0  0  0  0  0  0  0  0  0  0  0  0
   -4.8600   -3.6010   -0.6370 C   0  0  0  0  0  0  0  0  0  0  0  0
  1  2  2  0
  2  3  1  0
  3  4  2  0
  3  5  1  0
  5  6  2  0
  5  7  2  0
  5  8  1  1
  9  8  1  6
  9 10  1  0
  9 13  1  0
  9 33  1  0
 10 11  1  0
 10 12  2  0
 13 14  2  0
 13 32  1  0
 14 15  1  0
 15 16  2  0
 16 17  1  0
 16 31  1  0
 17 18  1  0
 18 19  2  0
 18 20  1  0
 20 21  2  0
 20 29  1  0
 21 22  1  0
 22 23  1  0
 22 25  2  0
 23 24  1  0
 25 26  1  0
 26 27  1  0
 26 29  2  0
 27 28  1  0
 29 30  1  0
 31 32  2  0
 33 34  1  1
 33 35  1  0
 35 36  1  0
 36 37  2  0
 36 40  1  0
 37 38  1  0
 38 39  1  0
 39 40  2  0
M  END
