
     RDKit          3D

 40 42  0  0  0  0  0  0  0  0999 V2000
    4.2630   -1.5220   -0.4630 C   0  0  0  0  0  0  0  0  0  0  0  0
    4.1740   -0.1020   -0.7820 C   0  0  0  0  0  0  0  0  0  0  0  0
    4.8610    0.7840   -0.1480 C   0  0  0  0  0  0  0  0  0  0  0  0
    5.7920    0.6550    0.9180 C   0  0  0  0  0  0  0  0  0  0  0  0
    6.3470    1.7520    1.4030 O   0  0  0  0  0  0  0  0  0  0  0  0
    6.2760   -0.5440    1.6160 C   0  0  0  0  0  0  0  0  0  0  0  0
    7.0560   -0.1420    2.8700 C   0  0  1  0  0  0  0  0  0  0  0  0
    7.5510   -1.3690    3.5840 C   0  0  0  0  0  0  0  0  0  0  0  0
    8.4440    0.9020    2.4950 S   0  0  0  0  0  0  0  0  0  0  0  0
    8.3950    2.2500    3.1880 O   0  0  0  0  0  0  0  0  0  0  0  0
    3.2140    0.3030   -1.8820 C   0  0  1  0  0  0  0  0  0  0  0  0
    3.5840   -0.4730   -3.0460 N   0  0  0  0  0  0  0  0  0  0  0  0
    4.2880    0.0980   -4.1680 C   0  0  0  0  0  0  0  0  0  0  0  0
    4.5920   -0.7500   -5.2370 N   0  0  0  0  0  0  0  0  0  0  0  0
    4.5690    1.3060   -4.0930 O   0  0  0  0  0  0  0  0  0  0  0  0
    1.8060    0.1180   -1.6310 C   0  0  0  0  0  0  0  0  0  0  0  0
    1.1990   -0.9910   -1.0940 C   0  0  0  0  0  0  0  0  0  0  0  0
   -0.1680   -1.0300   -0.9120 C   0  0  0  0  0  0  0  0  0  0  0  0
   -1.0140    0.0070   -1.2430 C   0  0  0  0  0  0  0  0  0  0  0  0
   -2.3730   -0.0710   -1.0460 O   0  0  0  0  0  0  0  0  0  0  0  0
   -3.0500    0.2980    0.0780 C   0  0  0  0  0  0  0  0  0  0  0  0
   -2.3940    0.8090    1.1770 C   0  0  0  0  0  0  0  0  0  0  0  0
   -3.1040    1.1770    2.3080 C   0  0  0  0  0  0  0  0  0  0  0  0
   -4.4710    1.0500    2.3760 C   0  0  0  0  0  0  0  0  0  0  0  0
   -5.2150    1.4390    3.5700 C   0  0  0  0  0  0  0  0  0  0  0  0
   -4.5950    1.9010    4.5570 O   0  0  0  0  0  0  0  0  0  0  0  0
   -6.6850    1.3050    3.6520 C   0  0  0  0  0  0  0  0  0  0  0  0
   -7.1620    1.7780    4.9890 C   0  0  0  0  0  0  0  0  0  0  0  0
   -6.6210    1.0650    6.0370 O   0  0  0  0  0  0  0  0  0  0  0  0
   -5.1200    0.5310    1.2550 C   0  0  0  0  0  0  0  0  0  0  0  0
   -4.4350    0.1530    0.1070 C   0  0  0  0  0  0  0  0  0  0  0  0
   -5.0620   -0.3730   -1.0370 N   0  0  0  0  0  0  0  0  0  0  0  0
   -6.4310   -0.6080   -1.2600 C   0  0  0  0  0  0  0  0  0  0  0  0
   -7.2530   -0.3340   -0.3660 O   0  0  0  0  0  0  0  0  0  0  0  0
   -6.9470   -1.1790   -2.5440 C   0  0  1  0  0  0  0  0  0  0  0  0
   -6.2390   -0.9270   -3.8100 C   0  0  0  0  0  0  0  0  0  0  0  0
   -6.2050   -2.2900   -3.1950 C   0  0  0  0  0  0  0  0  0  0  0  0
   -0.4010    1.1240   -1.7850 C   0  0  0  0  0  0  0  0  0  0  0  0
    0.9550    1.1890   -1.9760 C   0  0  0  0  0  0  0  0  0  0  0  0
    1.5180    2.4360   -2.5660 C   0  0  0  0  0  0  0  0  0  0  0  0
  1  2  1  0
  2  3  2  3
  2 11  1  0
  3  4  1  0
  4  5  2  0
  4  6  1  0
  6  7  1  0
  7  8  1  6
  7  9  1  0
  9 10  2  0
 11 12  1  6
 11 16  1  0
 12 13  1  0
 13 14  1  0
 13 15  2  0
 16 17  2  0
 16 39  1  0
 17 18  1  0
 18 19  2  0
 19 20  1  0
 19 38  1  0
 20 21  1  0
 21 22  2  0
 21 31  1  0
 22 23  1  0
 23 24  2  0
 24 25  1  0
 24 30  1  0
 25 26  2  0
 25 27  1  0
 27 28  1  0
 28 29  1  0
 30 31  2  0
 31 32  1  0
 32 33  1  0
 33 34  2  0
 35 33  1  1
 35 36  1  0
 35 37  1  0
 36 37  1  0
 38 39  2  0
 39 40  1  0
M  END
