
     RDKit          3D

 40 42  0  0  0  0  0  0  0  0999 V2000
    6.3080    1.2010   -1.9380 C   0  0  0  0  0  0  0  0  0  0  0  0
    6.2650    0.0210   -1.0380 C   0  0  0  0  0  0  0  0  0  0  0  0
    7.4640   -0.5440   -0.5560 C   0  0  0  0  0  0  0  0  0  0  0  0
    7.5030   -1.6390    0.2270 C   0  0  0  0  0  0  0  0  0  0  0  0
    8.7550   -2.1760    0.7780 C   0  0  2  0  0  0  0  0  0  0  0  0
    9.9700   -1.4360    0.3120 C   0  0  0  0  0  0  0  0  0  0  0  0
    8.8630   -3.5240    0.4420 O   0  0  0  0  0  0  0  0  0  0  0  0
    6.2780   -2.2380    0.5620 C   0  0  0  0  0  0  0  0  0  0  0  0
    5.1100   -1.7100    0.1140 C   0  0  0  0  0  0  0  0  0  0  0  0
    5.1010   -0.5770   -0.6840 C   0  0  0  0  0  0  0  0  0  0  0  0
    3.7720   -0.0540   -1.0280 C   0  0  0  0  0  0  0  0  0  0  0  0
    3.2680    1.0520   -0.1100 C   0  0  0  0  0  0  0  0  0  0  0  0
    1.9060    1.4320   -0.6550 C   0  0  0  0  0  0  0  0  0  0  0  0
    1.8770    2.2250   -1.7900 C   0  0  0  0  0  0  0  0  0  0  0  0
    2.9240    2.8380   -2.5870 C   0  0  0  0  0  0  0  0  0  0  0  0
    2.2610    3.6350   -3.5870 O   0  0  0  0  0  0  0  0  0  0  0  0
    0.1210    2.3620   -2.0770 S   0  0  0  0  0  0  0  0  0  0  0  0
   -0.4200    1.4070   -0.7560 C   0  0  0  0  0  0  0  0  0  0  0  0
   -1.8070    1.0930   -0.4300 N   0  0  0  0  0  0  0  0  0  0  0  0
   -2.8160    1.5960   -1.2710 C   0  0  0  0  0  0  0  0  0  0  0  0
   -2.3590    2.3010   -2.2700 O   0  0  0  0  0  0  0  0  0  0  0  0
   -4.2600    1.4600   -1.1910 C   0  0  0  0  0  0  0  0  0  0  0  0
   -5.0090    0.7970   -0.3990 O   0  0  0  0  0  0  0  0  0  0  0  0
   -5.6810   -0.0900    0.3180 C   0  0  0  0  0  0  0  0  0  0  0  0
   -5.4570   -1.4470    0.0760 C   0  0  0  0  0  0  0  0  0  0  0  0
   -6.1680   -2.3730    0.7910 C   0  0  0  0  0  0  0  0  0  0  0  0
   -6.0280   -3.8150    0.4690 C   0  0  0  0  0  0  0  0  0  0  0  0
   -7.0830   -4.6370    0.9700 N   0  0  0  0  0  0  0  0  0  0  0  0
   -7.0300   -5.1730    2.3140 C   0  0  0  0  0  0  0  0  0  0  0  0
   -6.1210   -4.9610    3.0250 O   0  0  0  0  0  0  0  0  0  0  0  0
   -7.0890   -1.9690    1.7430 C   0  0  0  0  0  0  0  0  0  0  0  0
   -7.2990   -0.6440    1.9760 C   0  0  0  0  0  0  0  0  0  0  0  0
   -6.5940    0.3500    1.2630 C   0  0  0  0  0  0  0  0  0  0  0  0
   -6.7760    1.6090    1.4670 O   0  0  0  0  0  0  0  0  0  0  0  0
   -6.9720    2.8730    1.6840 C   0  0  0  0  0  0  0  0  0  0  0  0
   -6.0830    3.7600    0.7800 C   0  0  0  0  0  0  0  0  0  0  0  0
   -6.2280    5.0910    0.9660 O   0  0  0  0  0  0  0  0  0  0  0  0
    0.7670    0.9880   -0.0860 C   0  0  0  0  0  0  0  0  0  0  0  0
    0.6820    0.2920    1.0080 C   0  0  0  0  0  0  0  0  0  0  0  0
    0.6010   -0.4850    2.2450 N   0  0  0  0  0  0  0  0  0  0  0  0
  1  2  1  0
  2  3  2  0
  2 10  1  0
  3  4  1  0
  4  5  1  0
  4  8  2  0
  5  6  1  6
  5  7  1  0
  8  9  1  0
  9 10  2  0
 10 11  1  0
 11 12  1  0
 12 13  1  0
 13 14  2  0
 13 38  1  0
 14 15  1  0
 14 17  1  0
 15 16  1  0
 17 18  1  0
 18 19  1  0
 18 38  2  0
 19 20  1  0
 20 21  2  0
 20 22  1  0
 22 23  1  0
 23 24  1  0
 24 25  2  0
 24 33  1  0
 25 26  1  0
 26 27  1  0
 26 31  2  0
 27 28  1  0
 28 29  1  0
 29 30  2  0
 31 32  1  0
 32 33  2  0
 33 34  1  0
 34 35  1  0
 35 36  1  0
 36 37  1  0
 38 39  1  0
 39 40  3  0
M  END
