
     RDKit          3D

 40 42  0  0  0  0  0  0  0  0999 V2000
   11.4230    0.7870    0.6600 C   0  0  0  0  0  0  0  0  0  0  0  0
   10.2000    0.3450    1.3340 N   0  0  0  0  0  0  0  0  0  0  0  0
    9.0140    1.1090    1.2810 C   0  0  0  0  0  0  0  0  0  0  0  0
    8.9960    2.1810    0.6500 O   0  0  0  0  0  0  0  0  0  0  0  0
    7.8080    0.6290    1.9720 C   0  0  0  0  0  0  0  0  0  0  0  0
    6.7060    1.4270    1.8600 O   0  0  0  0  0  0  0  0  0  0  0  0
    6.2150    1.6460    0.6020 C   0  0  0  0  0  0  0  0  0  0  0  0
    5.7930    0.3650   -0.1170 C   0  0  1  0  0  0  0  0  0  0  0  0
    4.8160   -0.2740    0.5720 O   0  0  0  0  0  0  0  0  0  0  0  0
    5.5510    0.6310   -1.5770 C   0  0  0  0  0  0  0  0  0  0  0  0
    4.4690    1.3730   -1.8600 O   0  0  0  0  0  0  0  0  0  0  0  0
    3.2170    0.9760   -1.6600 C   0  0  0  0  0  0  0  0  0  0  0  0
    2.6510   -0.1270   -2.5320 C   0  0  2  0  0  0  0  0  0  0  0  0
    3.3980   -1.4470   -2.4170 C   0  0  0  0  0  0  0  0  0  0  0  0
    2.6520    0.2310   -3.9050 N   0  0  0  0  0  0  0  0  0  0  0  0
    1.4870    0.3250   -4.6850 C   0  0  0  0  0  0  0  0  0  0  0  0
    0.2970    0.0780   -4.1700 C   0  0  0  0  0  0  0  0  0  0  0  0
    0.2320   -0.2950   -2.7700 C   0  0  0  0  0  0  0  0  0  0  0  0
    1.2930   -0.3910   -2.0210 C   0  0  0  0  0  0  0  0  0  0  0  0
    1.1000   -0.8750   -0.2640 S   0  0  0  0  0  0  0  0  0  0  0  0
   -0.6180   -1.1050    0.1040 C   0  0  0  0  0  0  0  0  0  0  0  0
   -1.2700   -2.3090   -0.0380 C   0  0  0  0  0  0  0  0  0  0  0  0
   -2.6260   -2.4270    0.2720 C   0  0  0  0  0  0  0  0  0  0  0  0
   -3.3290   -1.3500    0.7220 C   0  0  0  0  0  0  0  0  0  0  0  0
   -4.7450   -1.4040    1.0630 C   0  0  0  0  0  0  0  0  0  0  0  0
   -5.4110   -2.4830    0.9480 O   0  0  0  0  0  0  0  0  0  0  0  0
   -5.4440   -0.3090    1.5240 O   0  0  0  0  0  0  0  0  0  0  0  0
   -6.7860   -0.3400    1.8510 C   0  0  0  0  0  0  0  0  0  0  0  0
   -7.1840   -0.6540    3.1250 C   0  0  0  0  0  0  0  0  0  0  0  0
   -8.5040   -0.6980    3.5010 C   0  0  0  0  0  0  0  0  0  0  0  0
   -9.4760   -0.4190    2.5810 C   0  0  0  0  0  0  0  0  0  0  0  0
  -10.8360   -0.4450    2.8970 O   0  0  0  0  0  0  0  0  0  0  0  0
   -9.1190   -0.0900    1.2580 C   0  0  0  0  0  0  0  0  0  0  0  0
  -10.2110    0.2040    0.3030 C   0  0  0  0  0  0  0  0  0  0  0  0
   -9.8010    0.5290   -1.0220 N   0  0  0  0  0  0  0  0  0  0  0  0
   -7.7980   -0.0560    0.9210 C   0  0  0  0  0  0  0  0  0  0  0  0
   -7.3560    0.2920   -0.4690 C   0  0  0  0  0  0  0  0  0  0  0  0
   -2.6770   -0.1460    0.8650 C   0  0  0  0  0  0  0  0  0  0  0  0
   -1.3360    0.0030    0.5660 C   0  0  0  0  0  0  0  0  0  0  0  0
   -0.6980    1.3320    0.7440 C   0  0  0  0  0  0  0  0  0  0  0  0
  1  2  1  0
  2  3  1  0
  3  4  2  0
  3  5  1  0
  5  6  1  0
  6  7  1  0
  7  8  1  0
  8  9  1  1
  8 10  1  0
 10 11  1  0
 11 12  1  0
 12 13  1  0
 13 14  1  6
 13 15  1  0
 13 19  1  0
 15 16  1  0
 16 17  2  0
 17 18  1  0
 18 19  2  0
 19 20  1  0
 20 21  1  0
 21 22  2  0
 21 39  1  0
 22 23  1  0
 23 24  2  0
 24 25  1  0
 24 38  1  0
 25 26  2  0
 25 27  1  0
 27 28  1  0
 28 29  2  0
 28 36  1  0
 29 30  1  0
 30 31  2  0
 31 32  1  0
 31 33  1  0
 33 34  1  0
 33 36  2  0
 34 35  1  0
 36 37  1  0
 38 39  2  0
 39 40  1  0
M  END
