
     RDKit          3D

 39 41  0  0  0  0  0  0  0  0999 V2000
   -6.6330   -4.0650    1.5020 C   0  0  0  0  0  0  0  0  0  0  0  0
   -5.4820   -3.2880    0.8150 C   0  0  0  0  0  0  0  0  0  0  0  0
   -6.1210   -2.0890    0.2410 C   0  0  0  0  0  0  0  0  0  0  0  0
   -5.1580   -1.1420   -0.5340 C   0  0  1  0  0  0  0  0  0  0  0  0
   -6.1150   -0.0500   -0.9980 C   0  0  0  0  0  0  0  0  0  0  0  0
   -5.6420    1.0570   -1.7970 C   0  0  0  0  0  0  0  0  0  0  0  0
   -4.7090    2.0470   -1.2580 C   0  0  0  0  0  0  0  0  0  0  0  0
   -3.6560    2.6180   -2.0500 N   0  0  0  0  0  0  0  0  0  0  0  0
   -4.7930    2.4440   -0.0830 O   0  0  0  0  0  0  0  0  0  0  0  0
   -4.0140   -0.7460    0.2760 C   0  0  0  0  0  0  0  0  0  0  0  0
   -2.6320   -0.8480   -0.3190 C   0  0  2  0  0  0  0  0  0  0  0  0
   -1.8900    0.3360   -0.2280 O   0  0  0  0  0  0  0  0  0  0  0  0
   -0.6500    0.5240    0.3130 C   0  0  0  0  0  0  0  0  0  0  0  0
    0.0850   -0.4670    0.8900 C   0  0  0  0  0  0  0  0  0  0  0  0
    1.3500   -0.2610    1.4390 C   0  0  0  0  0  0  0  0  0  0  0  0
    2.2780   -1.5700    2.1900 S   0  0  0  0  0  0  0  0  0  0  0  0
    3.3240   -2.4730    1.0520 C   0  0  0  0  0  0  0  0  0  0  0  0
    4.4560   -1.6440    0.5090 C   0  0  0  0  0  0  0  0  0  0  0  0
    4.2880   -0.9660   -0.5170 O   0  0  0  0  0  0  0  0  0  0  0  0
    5.6990   -1.6470    1.1720 N   0  0  0  0  0  0  0  0  0  0  0  0
    6.8390   -0.9150    0.7710 C   0  0  0  0  0  0  0  0  0  0  0  0
    8.0760   -1.1920    1.3900 C   0  0  0  0  0  0  0  0  0  0  0  0
    9.2210   -0.5220    1.0700 C   0  0  0  0  0  0  0  0  0  0  0  0
    9.2150    0.4640    0.1170 C   0  0  0  0  0  0  0  0  0  0  0  0
   10.4550    1.2000   -0.2400 C   0  0  0  0  0  0  0  0  0  0  0  0
    8.0390    0.7730   -0.5170 C   0  0  0  0  0  0  0  0  0  0  0  0
    7.9950    1.7690   -1.4920 O   0  0  0  0  0  0  0  0  0  0  0  0
    6.8810    0.0720   -0.1700 C   0  0  0  0  0  0  0  0  0  0  0  0
    1.8520    1.0130    1.3780 C   0  0  0  0  0  0  0  0  0  0  0  0
    1.1150    2.0370    0.7920 C   0  0  0  0  0  0  0  0  0  0  0  0
   -0.1280    1.8300    0.2550 C   0  0  0  0  0  0  0  0  0  0  0  0
   -0.8720    2.8390   -0.3270 O   0  0  0  0  0  0  0  0  0  0  0  0
   -0.5250    4.1760   -0.4500 C   0  0  0  0  0  0  0  0  0  0  0  0
   -0.3260    4.8890    0.8170 C   0  0  0  0  0  0  0  0  0  0  0  0
   -0.5140    4.2810    2.0710 N   0  0  0  0  0  0  0  0  0  0  0  0
    0.0300    6.1030    0.8180 O   0  0  0  0  0  0  0  0  0  0  0  0
   -2.6770   -1.2220   -1.7900 C   0  0  0  0  0  0  0  0  0  0  0  0
   -3.6750   -2.3540   -1.9150 C   0  0  0  0  0  0  0  0  0  0  0  0
   -4.8980   -1.8510   -1.6990 O   0  0  0  0  0  0  0  0  0  0  0  0
  1  2  1  0
  2  3  1  0
  4  3  1  1
  4  5  1  0
  4 10  1  0
  4 39  1  0
  5  6  1  0
  6  7  1  0
  7  8  1  0
  7  9  2  0
 10 11  1  0
 11 12  1  6
 11 37  1  0
 12 13  1  0
 13 14  2  0
 13 31  1  0
 14 15  1  0
 15 16  1  0
 15 29  2  0
 16 17  1  0
 17 18  1  0
 18 19  2  0
 18 20  1  0
 20 21  1  0
 21 22  2  0
 21 28  1  0
 22 23  1  0
 23 24  2  0
 24 25  1  0
 24 26  1  0
 26 27  1  0
 26 28  2  0
 29 30  1  0
 30 31  2  0
 31 32  1  0
 32 33  1  0
 33 34  1  0
 34 35  1  0
 34 36  2  0
 37 38  1  0
 38 39  1  0
M  END
