
     RDKit          3D

 38 43  0  0  0  0  0  0  0  0999 V2000
   -8.6900    2.9500    0.0680 C   0  0  0  0  0  0  0  0  0  0  0  0
   -8.4790    2.3050   -1.2710 C   0  0  0  0  0  0  0  0  0  0  0  0
   -7.3400    1.4860   -1.3140 O   0  0  0  0  0  0  0  0  0  0  0  0
   -7.3830    0.5410   -0.2750 C   0  0  0  0  0  0  0  0  0  0  0  0
   -6.2490   -0.4020   -0.3210 C   0  0  0  0  0  0  0  0  0  0  0  0
   -6.3990   -1.7420   -0.3020 O   0  0  0  0  0  0  0  0  0  0  0  0
   -5.2180   -2.2770   -0.3370 C   0  0  0  0  0  0  0  0  0  0  0  0
   -5.0100   -3.6860   -0.3160 O   0  0  0  0  0  0  0  0  0  0  0  0
   -4.7500   -4.2430    1.0000 C   0  0  0  0  0  0  0  0  0  0  0  0
   -4.2470   -1.3350   -0.3900 C   0  0  0  0  0  0  0  0  0  0  0  0
   -2.8190   -1.4680   -0.4850 C   0  0  0  0  0  0  0  0  0  0  0  0
   -1.9700   -0.4240   -0.5410 N   0  0  0  0  0  0  0  0  0  0  0  0
   -0.6960   -0.8360   -0.6460 C   0  0  0  0  0  0  0  0  0  0  0  0
    0.5200   -0.2250   -0.7360 C   0  0  0  0  0  0  0  0  0  0  0  0
    1.6730   -0.9580   -0.8390 C   0  0  0  0  0  0  0  0  0  0  0  0
    1.6220   -2.3250   -0.8550 N   0  0  0  0  0  0  0  0  0  0  0  0
    0.4160   -2.9020   -0.7650 C   0  0  0  0  0  0  0  0  0  0  0  0
   -0.7350   -2.2000   -0.6580 C   0  0  0  0  0  0  0  0  0  0  0  0
   -2.0360   -2.5710   -0.5600 N   0  0  0  0  0  0  0  0  0  0  0  0
    2.8720   -0.0910   -0.9250 C   0  0  2  0  0  0  0  0  0  0  0  0
    3.8840   -0.6340   -0.0190 N   0  0  0  0  0  0  0  0  0  0  0  0
    4.9090    0.3140    0.2390 C   0  0  0  0  0  0  0  0  0  0  0  0
    5.9200    0.4720   -0.8630 C   0  0  2  0  0  0  0  0  0  0  0  0
    6.6330   -0.7160   -1.1360 O   0  0  0  0  0  0  0  0  0  0  0  0
    7.7380   -0.7480   -0.2440 C   0  0  0  0  0  0  0  0  0  0  0  0
    8.6010   -1.7120    0.2040 C   0  0  0  0  0  0  0  0  0  0  0  0
    9.6000   -1.4030    1.1040 C   0  0  0  0  0  0  0  0  0  0  0  0
    9.7990   -0.1470    1.6030 C   0  0  0  0  0  0  0  0  0  0  0  0
    8.9370    0.8290    1.1580 C   0  0  0  0  0  0  0  0  0  0  0  0
    7.9160    0.5590    0.2500 C   0  0  0  0  0  0  0  0  0  0  0  0
    6.9360    1.3100   -0.3580 O   0  0  0  0  0  0  0  0  0  0  0  0
    2.3730    1.2440   -0.4740 C   0  0  0  0  0  0  0  0  0  0  0  0
    0.8930    1.1970   -0.7580 C   0  0  2  0  0  0  0  0  0  0  0  0
    0.1430    2.0370    0.1520 N   0  0  2  0  0  0  0  0  0  0  0  0
   -0.4350    1.3940    1.2730 C   0  0  0  0  0  0  0  0  0  0  0  0
   -0.8230    2.7920   -0.6130 C   0  0  0  0  0  0  0  0  0  0  0  0
   -4.9190   -0.1130   -0.3770 C   0  0  0  0  0  0  0  0  0  0  0  0
   -4.1990    1.4870   -0.4290 Cl  0  0  0  0  0  0  0  0  0  0  0  0
  1  2  1  0
  2  3  1  0
  3  4  1  0
  4  5  1  0
  5  6  1  0
  5 37  2  0
  6  7  1  0
  7  8  1  0
  7 10  2  0
  8  9  1  0
 10 11  1  0
 10 37  1  0
 11 12  2  0
 11 19  1  0
 12 13  1  0
 13 14  2  0
 13 18  1  0
 14 15  1  0
 14 33  1  0
 15 16  2  0
 15 20  1  0
 16 17  1  0
 17 18  2  0
 18 19  1  0
 20 21  1  1
 20 32  1  0
 21 22  1  0
 23 22  1  1
 23 24  1  0
 23 31  1  0
 24 25  1  0
 25 26  2  0
 25 30  1  0
 26 27  1  0
 27 28  2  0
 28 29  1  0
 29 30  2  0
 30 31  1  0
 33 32  1  1
 33 34  1  0
 34 35  1  1
 34 36  1  0
 37 38  1  0
M  CHG  2  21   1  34   1
M  END
