
     RDKit          3D

 38 42  0  0  0  0  0  0  0  0999 V2000
   -8.0700   -0.2650   -2.1560 C   0  0  0  0  0  0  0  0  0  0  0  0
   -7.1860   -0.4340   -0.9920 N   0  0  2  0  0  0  0  0  0  0  0  0
   -7.8760   -1.3130   -0.0630 C   0  0  0  0  0  0  0  0  0  0  0  0
   -6.8740   -1.6580    1.0190 C   0  0  0  0  0  0  0  0  0  0  0  0
   -6.2710   -0.4380    1.6440 C   0  0  0  0  0  0  0  0  0  0  0  0
   -6.7170    0.8640    1.0710 C   0  0  1  0  0  0  0  0  0  0  0  0
   -5.6870    1.9060    1.3240 C   0  0  0  0  0  0  0  0  0  0  0  0
   -5.9580    2.8310    2.1790 O   0  0  0  0  0  0  0  0  0  0  0  0
   -4.4270    1.9950    0.7250 N   0  0  0  0  0  0  0  0  0  0  0  0
   -3.4060    2.9870    0.9750 C   0  0  0  0  0  0  0  0  0  0  0  0
   -2.1210    2.3880    0.4090 C   0  0  0  0  0  0  0  0  0  0  0  0
   -2.4970    0.9910    0.2490 N   0  0  2  0  0  0  0  0  0  0  0  0
   -1.6380    0.3140   -0.6990 C   0  0  0  0  0  0  0  0  0  0  0  0
   -0.3150    0.0820   -0.0140 C   0  0  0  0  0  0  0  0  0  0  0  0
    0.6340   -0.5750   -0.8280 O   0  0  0  0  0  0  0  0  0  0  0  0
    1.0950   -0.0650   -2.0280 C   0  0  0  0  0  0  0  0  0  0  0  0
    0.6410    1.0420   -2.4110 O   0  0  0  0  0  0  0  0  0  0  0  0
    2.1100   -0.8090   -2.8550 C   0  0  0  0  0  0  0  0  0  0  0  0
    3.4500   -0.4090   -2.4520 N   0  0  0  0  0  0  0  0  0  0  0  0
    4.1250    0.5960   -2.9780 N   0  0  0  0  0  0  0  0  0  0  0  0
    5.3410    0.6950   -2.3690 C   0  0  0  0  0  0  0  0  0  0  0  0
    5.4140   -0.3160   -1.4090 C   0  0  0  0  0  0  0  0  0  0  0  0
    6.3880   -0.6890   -0.5100 C   0  0  0  0  0  0  0  0  0  0  0  0
    6.1690   -1.7540    0.3320 C   0  0  0  0  0  0  0  0  0  0  0  0
    7.1260   -2.1700    1.2610 O   0  0  0  0  0  0  0  0  0  0  0  0
    8.3120   -1.4640    1.3220 C   0  0  0  0  0  0  0  0  0  0  0  0
    9.3860   -1.8200    0.5500 C   0  0  0  0  0  0  0  0  0  0  0  0
   10.5800   -1.1060    0.6140 C   0  0  0  0  0  0  0  0  0  0  0  0
   10.7290   -0.0280    1.4430 C   0  0  0  0  0  0  0  0  0  0  0  0
   11.9420    0.6520    1.4700 O   0  0  0  0  0  0  0  0  0  0  0  0
    9.6490    0.3320    2.2210 C   0  0  0  0  0  0  0  0  0  0  0  0
    9.7880    1.7010    3.2970 Cl  0  0  0  0  0  0  0  0  0  0  0  0
    8.4630   -0.3640    2.1690 C   0  0  0  0  0  0  0  0  0  0  0  0
    4.9560   -2.4180    0.2380 C   0  0  0  0  0  0  0  0  0  0  0  0
    3.9730   -2.0600   -0.6520 C   0  0  0  0  0  0  0  0  0  0  0  0
    4.1980   -0.9870   -1.4980 C   0  0  0  0  0  0  0  0  0  0  0  0
   -3.8680    1.1390   -0.2790 C   0  0  0  0  0  0  0  0  0  0  0  0
   -7.0510    0.8670   -0.3830 C   0  0  0  0  0  0  0  0  0  0  0  0
  2  1  1  6
  2  3  1  0
  2 38  1  0
  3  4  1  0
  4  5  1  0
  5  6  1  0
  6  7  1  6
  6 38  1  0
  7  8  2  0
  7  9  1  0
  9 10  1  0
  9 37  1  0
 10 11  1  0
 11 12  1  0
 12 13  1  6
 12 37  1  0
 13 14  1  0
 14 15  1  0
 15 16  1  0
 16 17  2  0
 16 18  1  0
 18 19  1  0
 19 20  1  0
 19 36  1  0
 20 21  2  0
 21 22  1  0
 22 23  2  0
 22 36  1  0
 23 24  1  0
 24 25  1  0
 24 34  2  0
 25 26  1  0
 26 27  2  0
 26 33  1  0
 27 28  1  0
 28 29  2  0
 29 30  1  0
 29 31  1  0
 31 32  1  0
 31 33  2  0
 34 35  1  0
 35 36  2  0
M  CHG  2   2   1  12   1
M  END
