
     RDKit          3D

 38 42  0  0  0  0  0  0  0  0999 V2000
   10.7590   -1.7300    1.6870 C   0  0  0  0  0  0  0  0  0  0  0  0
    9.6700   -1.6770    0.7140 N   0  0  0  0  0  0  0  0  0  0  0  0
    9.8290   -0.4740   -0.0670 C   0  0  0  0  0  0  0  0  0  0  0  0
    8.4900    0.0180   -0.4520 C   0  0  0  0  0  0  0  0  0  0  0  0
    7.8460    0.8970    0.3870 C   0  0  0  0  0  0  0  0  0  0  0  0
    6.5880    1.3940    0.0760 C   0  0  0  0  0  0  0  0  0  0  0  0
    5.9830    1.0050   -1.0790 C   0  0  0  0  0  0  0  0  0  0  0  0
    4.7450    1.4680   -1.4290 O   0  0  0  0  0  0  0  0  0  0  0  0
    3.5570    0.8520   -1.0720 C   0  0  0  0  0  0  0  0  0  0  0  0
    2.9910   -0.1190   -1.8780 C   0  0  0  0  0  0  0  0  0  0  0  0
    1.8360   -0.6890   -1.4930 C   0  0  0  0  0  0  0  0  0  0  0  0
    1.1260   -0.3680   -0.2900 C   0  0  0  0  0  0  0  0  0  0  0  0
   -0.0150   -1.0590   -0.0940 O   0  0  0  0  0  0  0  0  0  0  0  0
   -1.2860   -0.6540    0.0490 C   0  0  0  0  0  0  0  0  0  0  0  0
   -2.0350   -0.4700   -1.1130 N   0  0  0  0  0  0  0  0  0  0  0  0
   -3.2830   -0.0840   -1.0820 N   0  0  0  0  0  0  0  0  0  0  0  0
   -3.9400    0.1650    0.0570 C   0  0  0  0  0  0  0  0  0  0  0  0
   -5.3080    0.6320    0.0810 N   0  0  0  0  0  0  0  0  0  0  0  0
   -6.2640   -0.1930    0.1520 C   0  0  0  0  0  0  0  0  0  0  0  0
   -5.9060   -1.6080    0.2120 C   0  0  0  0  0  0  0  0  0  0  0  0
   -4.6710   -1.8450    0.1140 O   0  0  0  0  0  0  0  0  0  0  0  0
   -6.7170   -2.7520    0.3630 O   0  0  0  0  0  0  0  0  0  0  0  0
   -8.0780   -2.8130   -0.0070 C   0  0  0  0  0  0  0  0  0  0  0  0
   -8.8330   -1.8030    0.8280 C   0  0  0  0  0  0  0  0  0  0  0  0
   -8.9240   -0.4670    0.1840 C   0  0  0  0  0  0  0  0  0  0  0  0
   -7.6580    0.2900    0.1130 C   0  0  0  0  0  0  0  0  0  0  0  0
   -7.9310    1.5660   -0.0010 C   0  0  0  0  0  0  0  0  0  0  0  0
   -6.8920    2.5800   -0.1010 C   0  0  0  0  0  0  0  0  0  0  0  0
   -5.5220    2.0620    0.0720 C   0  0  2  0  0  0  0  0  0  0  0  0
   -4.5410    2.7100   -0.9180 C   0  0  0  0  0  0  0  0  0  0  0  0
   -3.2860    0.0080    1.2050 N   0  0  0  0  0  0  0  0  0  0  0  0
   -1.9760   -0.3980    1.2000 C   0  0  0  0  0  0  0  0  0  0  0  0
   -1.4210   -0.5380    2.3270 O   0  0  0  0  0  0  0  0  0  0  0  0
    1.7200    0.5850    0.4600 C   0  0  0  0  0  0  0  0  0  0  0  0
    1.0290    1.1350    1.9610 Cl  0  0  0  0  0  0  0  0  0  0  0  0
    2.9360    1.2140    0.0970 C   0  0  0  0  0  0  0  0  0  0  0  0
    6.6220    0.1180   -1.9350 C   0  0  0  0  0  0  0  0  0  0  0  0
    7.8710   -0.3760   -1.6260 C   0  0  0  0  0  0  0  0  0  0  0  0
  1  2  1  0
  2  3  1  0
  3  4  1  0
  4  5  2  0
  4 38  1  0
  5  6  1  0
  6  7  2  0
  7  8  1  0
  7 37  1  0
  8  9  1  0
  9 10  2  0
  9 36  1  0
 10 11  1  0
 11 12  2  0
 12 13  1  0
 12 34  1  0
 13 14  1  0
 14 15  2  0
 14 32  1  0
 15 16  1  0
 16 17  2  0
 17 18  1  0
 17 31  1  0
 18 19  2  0
 18 29  1  0
 19 20  1  0
 19 26  1  0
 20 21  2  0
 20 22  1  0
 22 23  1  0
 23 24  1  0
 24 25  1  0
 25 26  1  0
 26 27  2  0
 27 28  1  0
 28 29  1  0
 29 30  1  6
 31 32  1  0
 32 33  2  0
 34 35  1  0
 34 36  2  0
 37 38  2  0
M  CHG  2   2   1  18   1
M  END
