
     RDKit          3D

 37 42  0  0  0  0  0  0  0  0999 V2000
    9.0920   -0.3480    2.5480 C   0  0  0  0  0  0  0  0  0  0  0  0
    9.1620   -1.3420    1.4670 N   0  0  0  0  0  0  0  0  0  0  0  0
    8.0570   -1.1600    0.5470 C   0  0  0  0  0  0  0  0  0  0  0  0
    7.7010    0.3150    0.4460 C   0  0  0  0  0  0  0  0  0  0  0  0
    6.5690    0.4820   -0.5020 C   0  0  0  0  0  0  0  0  0  0  0  0
    6.8920    0.6810   -1.8290 C   0  0  0  0  0  0  0  0  0  0  0  0
    5.9040    0.8420   -2.7560 C   0  0  0  0  0  0  0  0  0  0  0  0
    4.5620    0.8030   -2.3520 C   0  0  0  0  0  0  0  0  0  0  0  0
    4.1950    0.6070   -1.0450 C   0  0  0  0  0  0  0  0  0  0  0  0
    2.9840    0.5590   -0.5910 O   0  0  0  0  0  0  0  0  0  0  0  0
    1.6840    0.6060   -0.7530 C   0  0  0  0  0  0  0  0  0  0  0  0
    1.0340    0.8020   -1.9510 C   0  0  0  0  0  0  0  0  0  0  0  0
   -0.3620    0.8400   -2.0390 C   0  0  0  0  0  0  0  0  0  0  0  0
   -1.1270    0.6830   -0.9340 C   0  0  0  0  0  0  0  0  0  0  0  0
   -0.5170    0.4820    0.3030 C   0  0  0  0  0  0  0  0  0  0  0  0
    0.8440    0.4470    0.3780 C   0  0  0  0  0  0  0  0  0  0  0  0
    1.4660    0.2480    1.6010 O   0  0  0  0  0  0  0  0  0  0  0  0
    1.7340   -1.0950    1.9790 C   0  0  0  0  0  0  0  0  0  0  0  0
    0.5450   -1.8170    2.0530 O   0  0  0  0  0  0  0  0  0  0  0  0
   -1.3280    0.3200    1.4420 O   0  0  0  0  0  0  0  0  0  0  0  0
   -2.7210    0.3570    1.3760 C   0  0  0  0  0  0  0  0  0  0  0  0
   -3.7240    0.2400    2.1890 N   0  0  0  0  0  0  0  0  0  0  0  0
   -4.9540    0.3570    1.4780 N   0  0  0  0  0  0  0  0  0  0  0  0
   -6.1360    0.1580    2.2760 C   0  0  0  0  0  0  0  0  0  0  0  0
   -7.3890    0.6140    1.6220 C   0  0  0  0  0  0  0  0  0  0  0  0
   -7.8060   -0.0180    0.4260 N   0  0  1  0  0  0  0  0  0  0  0  0
   -7.8610    0.9870   -0.6290 C   0  0  0  0  0  0  0  0  0  0  0  0
   -7.1960   -1.2380    0.0420 C   0  0  0  0  0  0  0  0  0  0  0  0
   -6.2390   -1.1430   -1.1390 C   0  0  0  0  0  0  0  0  0  0  0  0
   -5.2290   -0.1730   -0.9290 N   0  0  0  0  0  0  0  0  0  0  0  0
   -4.5660   -0.0220   -2.2120 C   0  0  0  0  0  0  0  0  0  0  0  0
   -4.9840   -0.5880   -3.2240 O   0  0  0  0  0  0  0  0  0  0  0  0
   -3.3270    0.8480   -2.3330 C   0  0  0  0  0  0  0  0  0  0  0  0
   -2.5690    0.7340   -1.0460 C   0  0  0  0  0  0  0  0  0  0  0  0
   -3.2440    0.5830    0.0510 C   0  0  0  0  0  0  0  0  0  0  0  0
   -4.7280    0.6310    0.1160 C   0  0  2  0  0  0  0  0  0  0  0  0
    5.2590    0.4470   -0.1270 C   0  0  0  0  0  0  0  0  0  0  0  0
  1  2  1  0
  2  3  1  0
  3  4  1  0
  4  5  1  0
  5  6  2  0
  5 37  1  0
  6  7  1  0
  7  8  2  0
  8  9  1  0
  9 10  1  0
  9 37  2  0
 10 11  1  0
 11 12  2  0
 11 16  1  0
 12 13  1  0
 13 14  2  0
 14 15  1  0
 14 34  1  0
 15 16  2  0
 15 20  1  0
 16 17  1  0
 17 18  1  0
 18 19  1  0
 20 21  1  0
 21 22  2  0
 21 35  1  0
 22 23  1  0
 23 24  1  0
 36 23  1  1
 24 25  1  0
 25 26  1  0
 26 27  1  6
 26 28  1  0
 28 29  1  0
 29 30  1  0
 30 31  1  0
 30 36  1  0
 31 32  2  0
 31 33  1  0
 33 34  1  0
 34 35  2  0
 35 36  1  0
M  CHG  2   2   1  26   1
M  END
