
     RDKit          3D

 38 41  0  0  0  0  0  0  0  0999 V2000
    3.0650    0.3840    2.9300 C   0  0  0  0  0  0  0  0  0  0  0  0
    3.8150   -0.6590    2.1480 C   0  0  2  0  0  0  0  0  0  0  0  0
    5.2040   -0.1440    1.9520 C   0  0  0  0  0  0  0  0  0  0  0  0
    3.1390   -1.2990    1.0240 C   0  0  0  0  0  0  0  0  0  0  0  0
    2.6550   -0.5940   -0.0870 N   0  0  0  0  0  0  0  0  0  0  0  0
    1.6350    0.3520    0.1410 C   0  0  0  0  0  0  0  0  0  0  0  0
    0.3620    0.3000   -0.5940 C   0  0  1  0  0  0  0  0  0  0  0  0
    0.4350    0.4010   -1.9750 O   0  0  0  0  0  0  0  0  0  0  0  0
   -0.6970   -0.6460   -0.1100 C   0  0  2  0  0  0  0  0  0  0  0  0
   -0.6110   -2.0370   -0.6270 C   0  0  0  0  0  0  0  0  0  0  0  0
   -1.7090   -2.8930   -0.0880 C   0  0  0  0  0  0  0  0  0  0  0  0
   -1.6200   -3.6310    1.0690 C   0  0  0  0  0  0  0  0  0  0  0  0
   -2.6410   -4.4180    1.5670 C   0  0  0  0  0  0  0  0  0  0  0  0
   -3.8240   -4.4690    0.8590 C   0  0  0  0  0  0  0  0  0  0  0  0
   -3.9510   -3.7420   -0.3080 C   0  0  0  0  0  0  0  0  0  0  0  0
   -2.9080   -2.9600   -0.7820 C   0  0  0  0  0  0  0  0  0  0  0  0
   -1.9630   -0.0870   -0.6150 N   0  0  0  0  0  0  0  0  0  0  0  0
   -2.9520    0.4400    0.2700 C   0  0  0  0  0  0  0  0  0  0  0  0
   -2.7360    0.4140    1.5090 O   0  0  0  0  0  0  0  0  0  0  0  0
   -4.1390    0.9800   -0.1590 O   0  0  0  0  0  0  0  0  0  0  0  0
   -5.1400    1.5050    0.6960 C   0  0  1  0  0  0  0  0  0  0  0  0
   -5.1630    3.0160    0.3690 C   0  0  0  0  0  0  0  0  0  0  0  0
   -6.4310    3.4010    0.7820 O   0  0  0  0  0  0  0  0  0  0  0  0
   -7.2160    2.4600    0.1070 C   0  0  1  0  0  0  0  0  0  0  0  0
   -7.1460    2.7880   -1.2480 O   0  0  0  0  0  0  0  0  0  0  0  0
   -7.3650    1.5690   -1.8800 C   0  0  0  0  0  0  0  0  0  0  0  0
   -6.5700    0.5500   -1.1250 C   0  0  0  0  0  0  0  0  0  0  0  0
   -6.5230    1.1240    0.2770 C   0  0  1  0  0  0  0  0  0  0  0  0
    3.6300   -0.4000   -1.4340 S   0  0  2  0  0  0  0  0  0  0  0  0
    2.9110    0.1420   -2.6490 O   0  0  0  0  0  0  0  0  0  0  0  0
    4.0060   -1.8260   -1.8750 O   0  0  0  0  0  0  0  0  0  0  0  0
    5.1000    0.4560   -1.3100 C   0  0  0  0  0  0  0  0  0  0  0  0
    5.0030    1.8650   -1.3300 C   0  0  0  0  0  0  0  0  0  0  0  0
    6.1530    2.6170   -1.2580 C   0  0  0  0  0  0  0  0  0  0  0  0
    7.3710    2.0190   -1.1680 C   0  0  0  0  0  0  0  0  0  0  0  0
    8.5430    2.8290   -1.0920 N   0  0  0  0  0  0  0  0  0  0  0  0
    7.4470    0.6400   -1.1500 C   0  0  0  0  0  0  0  0  0  0  0  0
    6.3250   -0.1550   -1.2190 C   0  0  0  0  0  0  0  0  0  0  0  0
  2  1  1  6
  2  3  1  0
  2  4  1  0
  4  5  1  0
  5  6  1  0
 29  5  1  1
  6  7  1  0
  7  8  1  6
  7  9  1  0
  9 10  1  6
  9 17  1  0
 10 11  1  0
 11 12  2  0
 11 16  1  0
 12 13  1  0
 13 14  2  0
 14 15  1  0
 15 16  2  0
 17 18  1  0
 18 19  2  0
 18 20  1  0
 21 20  1  6
 21 22  1  0
 21 28  1  0
 22 23  1  0
 24 23  1  1
 24 25  1  0
 24 28  1  0
 25 26  1  0
 26 27  1  0
 28 27  1  6
 29 30  2  0
 29 31  2  0
 29 32  1  0
 32 33  2  0
 32 38  1  0
 33 34  1  0
 34 35  2  0
 35 36  1  0
 35 37  1  0
 37 38  2  0
M  END
