
     RDKit          3D

 38 42  0  0  0  0  0  0  0  0999 V2000
   -8.2250   -3.7350   -1.4820 C   0  0  0  0  0  0  0  0  0  0  0  0
   -7.9170   -2.3880   -1.6730 O   0  0  0  0  0  0  0  0  0  0  0  0
   -7.2290   -1.8800   -0.5940 C   0  0  2  0  0  0  0  0  0  0  0  0
   -7.9220   -0.7210    0.0510 C   0  0  0  0  0  0  0  0  0  0  0  0
   -5.8430   -1.4430   -1.0140 C   0  0  0  0  0  0  0  0  0  0  0  0
   -5.1730   -0.9260    0.1310 O   0  0  0  0  0  0  0  0  0  0  0  0
   -3.8700   -0.4450    0.0450 C   0  0  0  0  0  0  0  0  0  0  0  0
   -3.2820   -0.4730   -1.0730 O   0  0  0  0  0  0  0  0  0  0  0  0
   -3.1560    0.0920    1.2040 C   0  0  0  0  0  0  0  0  0  0  0  0
   -1.7990    0.5240    0.8100 N   0  0  0  0  0  0  0  0  0  0  0  0
   -0.7730   -0.2950    0.8580 C   0  0  0  0  0  0  0  0  0  0  0  0
   -0.9040   -1.4810    1.2420 O   0  0  0  0  0  0  0  0  0  0  0  0
    0.5540    0.0980    0.4810 C   0  0  0  0  0  0  0  0  0  0  0  0
    1.5190   -0.9580    0.6140 C   0  0  0  0  0  0  0  0  0  0  0  0
    2.8550   -1.0390    0.3660 N   0  0  2  0  0  0  0  0  0  0  0  0
    3.2370   -1.3420   -1.0170 C   0  0  0  0  0  0  0  0  0  0  0  0
    4.7370   -1.1780   -1.0980 C   0  0  0  0  0  0  0  0  0  0  0  0
    5.3450   -1.2460    0.2240 N   0  0  0  0  0  0  0  0  0  0  0  0
    6.7270   -1.6500    0.0740 C   0  0  0  0  0  0  0  0  0  0  0  0
    6.7700   -3.0860    0.1630 N   0  0  0  0  0  0  0  0  0  0  0  0
    5.4070   -3.5330    0.3870 C   0  0  0  0  0  0  0  0  0  0  0  0
    4.7830   -2.3080    1.0140 C   0  0  1  0  0  0  0  0  0  0  0  0
    5.3170   -2.2020    2.4270 C   0  0  0  0  0  0  0  0  0  0  0  0
    3.3000   -2.3470    1.0430 C   0  0  0  0  0  0  0  0  0  0  0  0
    0.6860    1.3830    0.0680 C   0  0  0  0  0  0  0  0  0  0  0  0
    1.9400    1.8160   -0.3020 C   0  0  0  0  0  0  0  0  0  0  0  0
    2.1030    3.1110   -0.7210 C   0  0  0  0  0  0  0  0  0  0  0  0
    1.0470    3.9750   -0.7780 C   0  0  0  0  0  0  0  0  0  0  0  0
    1.2460    5.2730   -1.2050 C   0  0  0  0  0  0  0  0  0  0  0  0
    0.1770    6.1270   -1.2560 C   0  0  0  0  0  0  0  0  0  0  0  0
    0.3850    7.7960   -1.7970 Cl  0  0  0  0  0  0  0  0  0  0  0  0
   -1.0660    5.6840   -0.8850 C   0  0  0  0  0  0  0  0  0  0  0  0
   -2.2440    6.5720   -0.9250 C   0  0  0  0  0  0  0  0  0  0  0  0
   -1.2850    4.3670   -0.4480 C   0  0  0  0  0  0  0  0  0  0  0  0
   -0.2230    3.5040   -0.3930 C   0  0  0  0  0  0  0  0  0  0  0  0
   -0.3980    2.2150    0.0270 N   0  0  0  0  0  0  0  0  0  0  0  0
   -1.6120    1.7960    0.3900 C   0  0  0  0  0  0  0  0  0  0  0  0
   -2.6420    2.4830    0.3820 O   0  0  0  0  0  0  0  0  0  0  0  0
  1  2  1  0
  2  3  1  0
  3  4  1  6
  3  5  1  0
  5  6  1  0
  6  7  1  0
  7  8  2  0
  7  9  1  0
  9 10  1  0
 10 11  1  0
 10 37  1  0
 11 12  2  0
 11 13  1  0
 13 14  1  0
 13 25  2  0
 15 14  1  6
 15 16  1  0
 15 24  1  0
 16 17  1  0
 17 18  1  0
 18 19  1  0
 18 22  1  0
 19 20  1  0
 20 21  1  0
 21 22  1  0
 22 23  1  1
 22 24  1  0
 25 26  1  0
 25 36  1  0
 26 27  2  0
 27 28  1  0
 28 29  2  0
 28 35  1  0
 29 30  1  0
 30 31  1  0
 30 32  2  0
 32 33  1  0
 32 34  1  0
 34 35  2  0
 35 36  1  0
 36 37  1  0
 37 38  2  0
M  CHG  2  15   1  20   1
M  END
