
     RDKit          3D

 39 42  0  0  0  0  0  0  0  0999 V2000
   -2.8800   -3.4910    1.9060 C   0  0  0  0  0  0  0  0  0  0  0  0
   -3.1820   -2.1940    1.2090 C   0  0  1  0  0  0  0  0  0  0  0  0
   -2.6580   -0.7890    2.2430 S   0  0  0  0  0  0  0  0  0  0  0  0
   -0.9330   -0.5390    1.8410 C   0  0  0  0  0  0  0  0  0  0  0  0
   -0.3000    0.2650    2.5310 O   0  0  0  0  0  0  0  0  0  0  0  0
   -0.3370   -1.2570    0.7640 N   0  0  0  0  0  0  0  0  0  0  0  0
    1.0930   -1.1220    0.5940 C   0  0  0  0  0  0  0  0  0  0  0  0
    1.5440   -0.0450   -0.3600 C   0  0  2  0  0  0  0  0  0  0  0  0
    2.9990   -0.1160   -0.3190 O   0  0  0  0  0  0  0  0  0  0  0  0
    3.6150   -0.4120   -1.5200 C   0  0  0  0  0  0  0  0  0  0  0  0
    2.9120   -0.6170   -2.5730 O   0  0  0  0  0  0  0  0  0  0  0  0
    5.0820   -0.5150   -1.6860 C   0  0  0  0  0  0  0  0  0  0  0  0
    5.5890   -1.7180   -0.9560 C   0  0  0  0  0  0  0  0  0  0  0  0
    4.8720   -2.5930   -0.2460 C   0  0  0  0  0  0  0  0  0  0  0  0
    5.7390   -3.6470    0.3250 C   0  0  0  0  0  0  0  0  0  0  0  0
    7.0800   -3.2520   -0.1600 C   0  0  0  0  0  0  0  0  0  0  0  0
    6.9710   -2.1610   -0.8800 C   0  0  0  0  0  0  0  0  0  0  0  0
    8.2920   -1.3020   -1.6780 Cl  0  0  0  0  0  0  0  0  0  0  0  0
    1.2090    1.3230    0.0780 C   0  0  0  0  0  0  0  0  0  0  0  0
    2.0860    2.0290    0.5990 O   0  0  0  0  0  0  0  0  0  0  0  0
   -0.1190    1.8250   -0.1070 N   0  0  0  0  0  0  0  0  0  0  0  0
   -0.5660    3.1140    0.2860 C   0  0  0  0  0  0  0  0  0  0  0  0
    0.1200    3.8170    1.2560 C   0  0  0  0  0  0  0  0  0  0  0  0
   -0.3620    5.0360    1.7190 C   0  0  0  0  0  0  0  0  0  0  0  0
   -1.5280    5.5820    1.2340 C   0  0  0  0  0  0  0  0  0  0  0  0
   -2.2100    4.8870    0.2700 C   0  0  0  0  0  0  0  0  0  0  0  0
   -1.7270    3.6530   -0.2040 C   0  0  0  0  0  0  0  0  0  0  0  0
   -2.4900    3.0670   -1.2630 C   0  0  0  0  0  0  0  0  0  0  0  0
   -2.1710    2.0450   -1.8760 O   0  0  0  0  0  0  0  0  0  0  0  0
   -3.3240    5.6620   -0.0230 O   0  0  0  0  0  0  0  0  0  0  0  0
   -3.1920    6.9570    0.5340 C   0  0  0  0  0  0  0  0  0  0  0  0
   -2.2150    6.7750    1.5330 O   0  0  0  0  0  0  0  0  0  0  0  0
   -1.0770   -2.0800   -0.1100 C   0  0  0  0  0  0  0  0  0  0  0  0
   -0.4200   -2.8300   -0.8780 O   0  0  0  0  0  0  0  0  0  0  0  0
   -2.5310   -2.0970   -0.1590 C   0  0  1  0  0  0  0  0  0  0  0  0
   -2.9720   -3.3590   -0.8860 C   0  0  0  0  0  0  0  0  0  0  0  0
   -3.1090   -0.9060   -0.8740 C   0  0  0  0  0  0  0  0  0  0  0  0
   -4.5720   -0.9320   -1.1030 C   0  0  0  0  0  0  0  0  0  0  0  0
   -5.1470   -2.2830   -2.0940 Cl  0  0  0  0  0  0  0  0  0  0  0  0
  2  1  1  1
  2  3  1  0
  2 35  1  0
  3  4  1  0
  4  5  2  0
  4  6  1  0
  6  7  1  0
  6 33  1  0
  8  7  1  1
  8  9  1  0
  8 19  1  0
  9 10  1  0
 10 11  2  0
 10 12  1  0
 12 13  1  0
 13 14  2  0
 13 17  1  0
 14 15  1  0
 15 16  1  0
 16 17  2  0
 17 18  1  0
 19 20  2  0
 19 21  1  0
 21 22  1  0
 22 23  2  0
 22 27  1  0
 23 24  1  0
 24 25  2  0
 25 26  1  0
 25 32  1  0
 26 27  2  0
 26 30  1  0
 27 28  1  0
 28 29  2  0
 30 31  1  0
 31 32  1  0
 33 34  2  0
 33 35  1  0
 35 36  1  6
 35 37  1  0
 37 38  1  0
 38 39  1  0
M  END
