
     RDKit          3D

 39 42  0  0  0  0  0  0  0  0999 V2000
    4.8300   -0.0250    3.8540 C   0  0  0  0  0  0  0  0  0  0  0  0
    5.2490    0.2200    2.4590 C   0  0  0  0  0  0  0  0  0  0  0  0
    4.5060    1.0550    1.6640 C   0  0  0  0  0  0  0  0  0  0  0  0
    3.0810    1.8020    2.3430 Cl  0  0  0  0  0  0  0  0  0  0  0  0
    4.8550    1.3190    0.3500 C   0  0  0  0  0  0  0  0  0  0  0  0
    5.9760    0.7230   -0.1600 C   0  0  0  0  0  0  0  0  0  0  0  0
    6.3740    1.0100   -1.5630 C   0  0  0  0  0  0  0  0  0  0  0  0
    5.4580    1.8800   -2.2380 N   0  0  0  0  0  0  0  0  0  0  0  0
    4.1530    1.4410   -2.5240 C   0  0  0  0  0  0  0  0  0  0  0  0
    3.1020    2.0040   -3.1160 C   0  0  0  0  0  0  0  0  0  0  0  0
    1.9490    1.3370   -3.2650 C   0  0  0  0  0  0  0  0  0  0  0  0
    1.8620    0.0450   -2.7940 C   0  0  0  0  0  0  0  0  0  0  0  0
    0.8340   -0.9700   -2.7660 C   0  0  1  0  0  0  0  0  0  0  0  0
    1.2680   -2.1440   -1.9160 C   0  0  0  0  0  0  0  0  0  0  0  0
    0.2110   -3.0240   -1.5420 N   0  0  0  0  0  0  0  0  0  0  0  0
   -0.9540   -2.9370   -2.3880 C   0  0  0  0  0  0  0  0  0  0  0  0
   -1.4410   -1.5230   -2.5760 C   0  0  0  0  0  0  0  0  0  0  0  0
   -0.4480   -0.5370   -2.3660 N   0  0  0  0  0  0  0  0  0  0  0  0
   -0.5980    0.4730   -1.0400 S   0  0  1  0  0  0  0  0  0  0  0  0
    0.4270    1.5680   -0.9820 O   0  0  0  0  0  0  0  0  0  0  0  0
   -1.9440    1.1890   -1.1120 O   0  0  0  0  0  0  0  0  0  0  0  0
   -0.5730   -0.3350    0.5390 C   0  0  0  0  0  0  0  0  0  0  0  0
   -0.7200    0.6580    1.6670 C   0  0  0  0  0  0  0  0  0  0  0  0
   -1.9540    1.4050    1.6090 N   0  0  0  0  0  0  0  0  0  0  0  0
   -3.2180    0.7670    1.6700 C   0  0  0  0  0  0  0  0  0  0  0  0
   -3.2690   -0.4850    1.7790 O   0  0  0  0  0  0  0  0  0  0  0  0
   -4.4720    1.5010    1.6120 C   0  0  0  0  0  0  0  0  0  0  0  0
   -4.4020    2.7490    1.5010 O   0  0  0  0  0  0  0  0  0  0  0  0
   -5.7510    0.8990    1.6740 N   0  0  0  0  0  0  0  0  0  0  0  0
   -6.9350    1.7050    1.6090 C   0  0  0  0  0  0  0  0  0  0  0  0
   -8.1470    1.0000    1.0900 C   0  0  0  0  0  0  0  0  0  0  0  0
   -7.9020   -0.3080    0.7020 O   0  0  0  0  0  0  0  0  0  0  0  0
   -7.2990   -0.9340    1.8040 C   0  0  0  0  0  0  0  0  0  0  0  0
   -5.8570   -0.5340    1.8030 C   0  0  0  0  0  0  0  0  0  0  0  0
    3.5220   -0.2040   -2.1090 S   0  0  0  0  0  0  0  0  0  0  0  0
    6.7500   -0.1280    0.6230 C   0  0  0  0  0  0  0  0  0  0  0  0
    8.1590   -0.8380   -0.1160 Cl  0  0  0  0  0  0  0  0  0  0  0  0
    6.3630   -0.3550    1.9100 C   0  0  0  0  0  0  0  0  0  0  0  0
    7.1220   -1.1870    2.6730 F   0  0  0  0  0  0  0  0  0  0  0  0
  1  2  1  0
  2  3  2  0
  2 38  1  0
  3  4  1  0
  3  5  1  0
  5  6  2  0
  6  7  1  0
  6 36  1  0
  7  8  1  0
  8  9  1  0
  9 10  2  0
  9 35  1  0
 10 11  1  0
 11 12  2  0
 13 12  1  1
 12 35  1  0
 13 14  1  0
 13 18  1  0
 14 15  1  0
 15 16  1  0
 16 17  1  0
 17 18  1  0
 18 19  1  0
 19 20  2  0
 19 21  2  0
 19 22  1  1
 22 23  1  0
 23 24  1  0
 24 25  1  0
 25 26  2  0
 25 27  1  0
 27 28  2  0
 27 29  1  0
 29 30  1  0
 29 34  1  0
 30 31  1  0
 31 32  1  0
 32 33  1  0
 33 34  1  0
 36 37  1  0
 36 38  2  0
 38 39  1  0
M  CHG  1  15   1
M  END
