
     RDKit          3D

 39 41  0  0  0  0  0  0  0  0999 V2000
   -7.1220   -2.6390    1.9140 C   0  0  0  0  0  0  0  0  0  0  0  0
   -5.8460   -2.0810    2.4400 C   0  0  0  0  0  0  0  0  0  0  0  0
   -5.9030   -1.3050    3.4500 O   0  0  0  0  0  0  0  0  0  0  0  0
   -4.6480   -2.3770    1.8760 N   0  0  0  0  0  0  0  0  0  0  0  0
   -3.9410   -1.8780    0.9940 C   0  0  0  0  0  0  0  0  0  0  0  0
   -2.3650   -2.5670    0.4990 S   0  0  0  0  0  0  0  0  0  0  0  0
   -1.9910   -1.3560   -0.7430 C   0  0  0  0  0  0  0  0  0  0  0  0
   -0.7690   -1.3340   -1.5830 C   0  0  0  0  0  0  0  0  0  0  0  0
    0.0730   -2.2400   -1.4080 O   0  0  0  0  0  0  0  0  0  0  0  0
   -0.5780   -0.3220   -2.5390 N   0  0  0  0  0  0  0  0  0  0  0  0
    0.6240   -0.2960   -3.3670 C   0  0  0  0  0  0  0  0  0  0  0  0
    1.8330   -0.1690   -2.4860 C   0  0  0  0  0  0  0  0  0  0  0  0
    1.8040    0.0490   -1.1410 C   0  0  0  0  0  0  0  0  0  0  0  0
    3.1260    0.0950   -0.7430 C   0  0  0  0  0  0  0  0  0  0  0  0
    3.9030   -0.0920   -1.8370 C   0  0  0  0  0  0  0  0  0  0  0  0
    5.3340   -0.1410   -2.0240 C   0  0  0  0  0  0  0  0  0  0  0  0
    5.7640   -0.3470   -3.2260 O   0  0  0  0  0  0  0  0  0  0  0  0
    6.3330    0.0070   -1.0630 N   0  0  0  0  0  0  0  0  0  0  0  0
    7.7410   -0.0820   -1.4570 C   0  0  0  0  0  0  0  0  0  0  0  0
    8.4630   -1.1120   -0.6070 C   0  0  0  0  0  0  0  0  0  0  0  0
    8.1440   -0.8920    0.8640 C   0  0  1  0  0  0  0  0  0  0  0  0
    7.2840   -1.9020    1.2480 F   0  0  0  0  0  0  0  0  0  0  0  0
    9.5970   -0.9630    1.8800 Cl  0  0  0  0  0  0  0  0  0  0  0  0
    7.4050    0.4240    1.0440 C   0  0  2  0  0  0  0  0  0  0  0  0
    7.2100    0.7060    2.4330 N   0  0  0  0  0  0  0  0  0  0  0  0
    7.0600    2.4470    2.6240 S   0  0  0  0  0  0  0  0  0  0  0  0
    5.5980    2.8280    2.3550 O   0  0  0  0  0  0  0  0  0  0  0  0
    6.0560    0.2500    0.3180 C   0  0  0  0  0  0  0  0  0  0  0  0
    3.0610   -0.2450   -2.8540 O   0  0  0  0  0  0  0  0  0  0  0  0
   -2.9870   -0.5060   -0.7680 C   0  0  0  0  0  0  0  0  0  0  0  0
   -4.0880   -0.6850    0.1180 C   0  0  0  0  0  0  0  0  0  0  0  0
   -5.1480    0.0800    0.2050 C   0  0  0  0  0  0  0  0  0  0  0  0
   -5.4980    1.2550   -0.5200 C   0  0  0  0  0  0  0  0  0  0  0  0
   -4.7620    1.9580   -1.5920 C   0  0  0  0  0  0  0  0  0  0  0  0
   -6.6910    1.8790   -0.2250 C   0  0  0  0  0  0  0  0  0  0  0  0
   -7.2230    3.3110   -1.0380 Cl  0  0  0  0  0  0  0  0  0  0  0  0
   -7.4780    1.2890    0.7870 N   0  0  0  0  0  0  0  0  0  0  0  0
   -8.4740    0.3100    0.4020 C   0  0  0  0  0  0  0  0  0  0  0  0
   -7.2900    1.6540    2.1690 C   0  0  0  0  0  0  0  0  0  0  0  0
  1  2  1  0
  2  3  2  0
  2  4  1  0
  4  5  2  3
  5  6  1  0
  5 31  1  0
  6  7  1  0
  7  8  1  0
  7 30  2  0
  8  9  2  0
  8 10  1  0
 10 11  1  0
 11 12  1  0
 12 13  2  0
 12 29  1  0
 13 14  1  0
 14 15  2  0
 15 16  1  0
 15 29  1  0
 16 17  2  0
 16 18  1  0
 18 19  1  0
 18 28  1  0
 19 20  1  0
 20 21  1  0
 21 22  1  1
 21 23  1  0
 21 24  1  0
 24 25  1  1
 24 28  1  0
 25 26  1  0
 26 27  2  0
 30 31  1  0
 31 32  2  3
 32 33  1  0
 33 34  1  0
 33 35  2  3
 35 36  1  0
 35 37  1  0
 37 38  1  0
 37 39  1  0
M  CHG  1  25   1
M  END
