
     RDKit          3D

 40 42  0  0  0  0  0  0  0  0999 V2000
  -11.2590    2.9910   -0.2240 C   0  0  0  0  0  0  0  0  0  0  0  0
  -10.0620    2.0370   -0.3970 C   0  0  2  0  0  0  0  0  0  0  0  0
  -10.2990    1.1850   -1.4320 O   0  0  0  0  0  0  0  0  0  0  0  0
   -9.6960    1.4150    0.9140 C   0  0  0  0  0  0  0  0  0  0  0  0
   -8.4870    0.6470    0.8060 N   0  0  0  0  0  0  0  0  0  0  0  0
   -8.2650   -0.5010    0.0240 C   0  0  0  0  0  0  0  0  0  0  0  0
   -9.2370   -0.9310   -0.6740 O   0  0  0  0  0  0  0  0  0  0  0  0
   -7.0010   -1.2220   -0.0330 C   0  0  0  0  0  0  0  0  0  0  0  0
   -6.8790   -2.3080   -0.8690 C   0  0  0  0  0  0  0  0  0  0  0  0
   -5.7180   -3.0510   -0.9570 C   0  0  0  0  0  0  0  0  0  0  0  0
   -4.6470   -2.6780   -0.1690 C   0  0  0  0  0  0  0  0  0  0  0  0
   -4.7150   -1.6100    0.6770 C   0  0  0  0  0  0  0  0  0  0  0  0
   -3.6500   -1.1830    1.5550 C   0  0  0  0  0  0  0  0  0  0  0  0
   -3.8110   -0.1200    2.2400 O   0  0  0  0  0  0  0  0  0  0  0  0
   -2.3630   -1.8660    1.7530 C   0  0  0  0  0  0  0  0  0  0  0  0
   -1.2250   -1.2070    1.0550 C   0  0  0  0  0  0  0  0  0  0  0  0
   -1.3620   -1.2100   -0.4390 C   0  0  0  0  0  0  0  0  0  0  0  0
   -0.1950   -0.4980   -1.0310 C   0  0  0  0  0  0  0  0  0  0  0  0
   -0.2620    0.8110   -1.4490 C   0  0  0  0  0  0  0  0  0  0  0  0
    0.8250    1.4700   -1.9690 C   0  0  0  0  0  0  0  0  0  0  0  0
    2.0300    0.8100   -2.0800 C   0  0  0  0  0  0  0  0  0  0  0  0
    2.1430   -0.4990   -1.6720 C   0  0  0  0  0  0  0  0  0  0  0  0
    3.4140   -1.1020   -1.7410 N   0  0  0  0  0  0  0  0  0  0  0  0
    4.0410   -1.7660   -0.2630 S   0  0  1  0  0  0  0  0  0  0  0  0
    2.8940   -2.2530    0.5540 O   0  0  0  0  0  0  0  0  0  0  0  0
    5.0470   -2.8230   -0.5130 O   0  0  0  0  0  0  0  0  0  0  0  0
    4.7570   -0.4140    0.5950 N   0  0  0  0  0  0  0  0  0  0  0  0
    6.1300   -0.1790    0.1360 C   0  0  0  0  0  0  0  0  0  0  0  0
    6.7250    0.9880    0.8590 C   0  0  0  0  0  0  0  0  0  0  0  0
    8.1010    1.3300    0.4970 C   0  0  0  0  0  0  0  0  0  0  0  0
    8.3000    2.2500   -0.5130 C   0  0  0  0  0  0  0  0  0  0  0  0
    9.5340    2.6080   -0.9620 C   0  0  0  0  0  0  0  0  0  0  0  0
   10.6310    2.0390   -0.3980 C   0  0  0  0  0  0  0  0  0  0  0  0
   10.4630    1.0940    0.6380 C   0  0  0  0  0  0  0  0  0  0  0  0
   11.6040    0.5690    1.1550 O   0  0  0  0  0  0  0  0  0  0  0  0
    9.2070    0.7290    1.0980 C   0  0  0  0  0  0  0  0  0  0  0  0
    8.9840   -0.2480    2.2080 C   0  0  0  0  0  0  0  0  0  0  0  0
   10.1110   -0.7660    2.7660 O   0  0  0  0  0  0  0  0  0  0  0  0
    1.0390   -1.1330   -1.1580 C   0  0  0  0  0  0  0  0  0  0  0  0
   -5.9140   -0.8910    0.7270 C   0  0  0  0  0  0  0  0  0  0  0  0
  2  1  1  1
  2  3  1  0
  2  4  1  0
  4  5  1  0
  5  6  1  0
  6  7  2  0
  6  8  1  0
  8  9  2  0
  8 40  1  0
  9 10  1  0
 10 11  2  0
 11 12  1  0
 12 13  1  0
 12 40  2  0
 13 14  2  0
 13 15  1  0
 15 16  1  0
 16 17  1  0
 17 18  1  0
 18 19  2  0
 18 39  1  0
 19 20  1  0
 20 21  2  0
 21 22  1  0
 22 23  1  0
 22 39  2  0
 24 23  1  6
 24 25  2  0
 24 26  2  0
 24 27  1  0
 27 28  1  0
 28 29  1  0
 29 30  1  0
 30 31  2  0
 30 36  1  0
 31 32  1  0
 32 33  2  0
 33 34  1  0
 34 35  1  0
 34 36  2  0
 36 37  1  0
 37 38  1  0
M  END
