
     RDKit          3D

 39 41  0  0  0  0  0  0  0  0999 V2000
   -4.0000    1.7110    1.5780 C   0  0  0  0  0  0  0  0  0  0  0  0
   -4.8640    0.5980    2.1030 C   0  0  0  0  0  0  0  0  0  0  0  0
   -4.4600   -0.7560    1.7150 C   0  0  0  0  0  0  0  0  0  0  0  0
   -4.4520   -1.2480    0.3490 C   0  0  1  0  0  0  0  0  0  0  0  0
   -5.6800   -1.3380   -0.4680 C   0  0  0  0  0  0  0  0  0  0  0  0
   -6.7810   -2.2300   -0.0950 C   0  0  0  0  0  0  0  0  0  0  0  0
   -7.5270   -2.0990    1.1320 C   0  0  0  0  0  0  0  0  0  0  0  0
   -8.2860   -3.2240    1.6290 N   0  0  0  0  0  0  0  0  0  0  0  0
   -7.5950   -1.0940    1.8280 O   0  0  0  0  0  0  0  0  0  0  0  0
   -3.4180   -0.5620   -0.5130 C   0  0  0  0  0  0  0  0  0  0  0  0
   -1.9890   -0.8670   -0.1070 C   0  0  2  0  0  0  0  0  0  0  0  0
   -1.1760   -0.1460   -0.9910 O   0  0  0  0  0  0  0  0  0  0  0  0
   -0.1690    0.7220   -0.7160 C   0  0  0  0  0  0  0  0  0  0  0  0
    0.1710    0.9970    0.5900 C   0  0  0  0  0  0  0  0  0  0  0  0
    1.2040    1.8850    0.8440 C   0  0  0  0  0  0  0  0  0  0  0  0
    1.6050    2.2180    2.5540 S   0  0  0  0  0  0  0  0  0  0  0  0
    2.9950    3.3720    2.6680 C   0  0  0  0  0  0  0  0  0  0  0  0
    4.2590    2.7220    2.1490 C   0  0  0  0  0  0  0  0  0  0  0  0
    5.3060    3.3990    2.1340 O   0  0  0  0  0  0  0  0  0  0  0  0
    4.2530    1.3830    1.6930 N   0  0  0  0  0  0  0  0  0  0  0  0
    5.3540    0.6660    1.1910 C   0  0  0  0  0  0  0  0  0  0  0  0
    5.1070   -0.6280    0.7220 C   0  0  0  0  0  0  0  0  0  0  0  0
    6.1130   -1.4170    0.2160 C   0  0  0  0  0  0  0  0  0  0  0  0
    7.4180   -0.9890    0.1370 C   0  0  0  0  0  0  0  0  0  0  0  0
    8.5110   -1.8340   -0.4070 C   0  0  0  0  0  0  0  0  0  0  0  0
    7.6780    0.2800    0.5940 C   0  0  0  0  0  0  0  0  0  0  0  0
    8.9800    0.7520    0.5340 O   0  0  0  0  0  0  0  0  0  0  0  0
    6.6510    1.0850    1.1110 C   0  0  0  0  0  0  0  0  0  0  0  0
    1.8710    2.4770   -0.2080 C   0  0  0  0  0  0  0  0  0  0  0  0
    1.5220    2.1950   -1.5270 C   0  0  0  0  0  0  0  0  0  0  0  0
    0.5040    1.3190   -1.7840 C   0  0  0  0  0  0  0  0  0  0  0  0
    0.0900    0.9770   -3.0570 O   0  0  0  0  0  0  0  0  0  0  0  0
    0.6290    1.4360   -4.2510 C   0  0  0  0  0  0  0  0  0  0  0  0
    2.0400    1.0750   -4.4380 C   0  0  0  0  0  0  0  0  0  0  0  0
    2.7450    1.5090   -5.5810 N   0  0  0  0  0  0  0  0  0  0  0  0
    2.6340    0.3780   -3.5870 O   0  0  0  0  0  0  0  0  0  0  0  0
   -1.8090   -2.3690   -0.4200 C   0  0  0  0  0  0  0  0  0  0  0  0
   -3.1820   -3.0050   -0.5290 C   0  0  0  0  0  0  0  0  0  0  0  0
   -4.0410   -2.6410    0.4770 O   0  0  0  0  0  0  0  0  0  0  0  0
  1  2  1  0
  2  3  1  0
  4  3  1  1
  4  5  1  0
  4 10  1  0
  4 39  1  0
  5  6  1  0
  6  7  1  0
  7  8  1  0
  7  9  2  0
 10 11  1  0
 11 12  1  6
 11 37  1  0
 12 13  1  0
 13 14  2  0
 13 31  1  0
 14 15  1  0
 15 16  1  0
 15 29  2  0
 16 17  1  0
 17 18  1  0
 18 19  2  0
 18 20  1  0
 20 21  1  0
 21 22  2  0
 21 28  1  0
 22 23  1  0
 23 24  2  0
 24 25  1  0
 24 26  1  0
 26 27  1  0
 26 28  2  0
 29 30  1  0
 30 31  2  0
 31 32  1  0
 32 33  1  0
 33 34  1  0
 34 35  1  0
 34 36  2  0
 37 38  1  0
 38 39  1  0
M  END
