
     RDKit          3D

 40 42  0  0  0  0  0  0  0  0999 V2000
    4.8040    1.5210    0.7130 C   0  0  0  0  0  0  0  0  0  0  0  0
    5.5010    0.2210    0.4470 C   0  0  0  0  0  0  0  0  0  0  0  0
    6.8430    0.2280    0.1330 C   0  0  0  0  0  0  0  0  0  0  0  0
    7.5710   -0.8910   -0.1330 C   0  0  0  0  0  0  0  0  0  0  0  0
    9.0010   -0.9010   -0.5360 C   0  0  2  0  0  0  0  0  0  0  0  0
    9.0870   -1.6060   -1.8890 C   0  0  0  0  0  0  0  0  0  0  0  0
    9.7610   -1.7120    0.3360 O   0  0  0  0  0  0  0  0  0  0  0  0
    6.8720   -2.1240   -0.0700 C   0  0  0  0  0  0  0  0  0  0  0  0
    5.5400   -2.1360    0.2380 C   0  0  0  0  0  0  0  0  0  0  0  0
    4.8130   -0.9600    0.5040 C   0  0  0  0  0  0  0  0  0  0  0  0
    3.3880   -1.0020    0.7500 C   0  0  0  0  0  0  0  0  0  0  0  0
    2.8320   -0.9820    2.1330 C   0  0  0  0  0  0  0  0  0  0  0  0
    1.2870   -0.9580    1.8590 C   0  0  0  0  0  0  0  0  0  0  0  0
    0.6570   -2.0980    1.5210 C   0  0  0  0  0  0  0  0  0  0  0  0
    1.0710   -3.5280    1.5530 C   0  0  0  0  0  0  0  0  0  0  0  0
    0.0270   -4.3520    1.1320 O   0  0  0  0  0  0  0  0  0  0  0  0
   -0.9440   -1.5840    1.0580 S   0  0  0  0  0  0  0  0  0  0  0  0
   -0.6920    0.2160    1.3550 C   0  0  0  0  0  0  0  0  0  0  0  0
   -1.6950    1.1450    1.0580 N   0  0  0  0  0  0  0  0  0  0  0  0
   -1.7580    2.5200    1.1610 C   0  0  0  0  0  0  0  0  0  0  0  0
   -0.8000    3.1440    1.6260 O   0  0  0  0  0  0  0  0  0  0  0  0
   -2.9530    3.3470    0.7290 C   0  0  0  0  0  0  0  0  0  0  0  0
   -3.8570    2.7390   -0.0010 O   0  0  0  0  0  0  0  0  0  0  0  0
   -4.7800    1.8890   -0.3510 C   0  0  0  0  0  0  0  0  0  0  0  0
   -5.3040    0.8650    0.4480 C   0  0  0  0  0  0  0  0  0  0  0  0
   -6.2690   -0.0200    0.0580 C   0  0  0  0  0  0  0  0  0  0  0  0
   -6.7530   -1.1000    0.9840 C   0  0  0  0  0  0  0  0  0  0  0  0
   -7.9290   -1.7560    0.5130 N   0  0  0  0  0  0  0  0  0  0  0  0
   -7.8910   -2.7790   -0.4930 C   0  0  0  0  0  0  0  0  0  0  0  0
   -6.8170   -3.1470   -1.0020 O   0  0  0  0  0  0  0  0  0  0  0  0
   -6.7690    0.1060   -1.2250 C   0  0  0  0  0  0  0  0  0  0  0  0
   -6.2970    1.0910   -2.0550 C   0  0  0  0  0  0  0  0  0  0  0  0
   -5.3290    1.9810   -1.6690 C   0  0  0  0  0  0  0  0  0  0  0  0
   -4.8160    2.9760   -2.4190 O   0  0  0  0  0  0  0  0  0  0  0  0
   -4.9370    3.4810   -3.6630 C   0  0  0  0  0  0  0  0  0  0  0  0
   -4.5110    2.5450   -4.7380 C   0  0  0  0  0  0  0  0  0  0  0  0
   -4.6760    3.1770   -5.9850 O   0  0  0  0  0  0  0  0  0  0  0  0
    0.6140    0.2270    1.7890 C   0  0  0  0  0  0  0  0  0  0  0  0
    1.1370    1.3790    2.3700 C   0  0  0  0  0  0  0  0  0  0  0  0
    1.6420    2.4830    2.9270 N   0  0  0  0  0  0  0  0  0  0  0  0
  1  2  1  0
  2  3  2  0
  2 10  1  0
  3  4  1  0
  4  5  1  0
  4  8  2  0
  5  6  1  6
  5  7  1  0
  8  9  1  0
  9 10  2  0
 10 11  1  0
 11 12  1  0
 12 13  1  0
 13 14  2  0
 13 38  1  0
 14 15  1  0
 14 17  1  0
 15 16  1  0
 17 18  1  0
 18 19  1  0
 18 38  2  0
 19 20  1  0
 20 21  2  0
 20 22  1  0
 22 23  1  0
 23 24  1  0
 24 25  2  0
 24 33  1  0
 25 26  1  0
 26 27  1  0
 26 31  2  0
 27 28  1  0
 28 29  1  0
 29 30  2  0
 31 32  1  0
 32 33  2  0
 33 34  1  0
 34 35  1  0
 35 36  1  0
 36 37  1  0
 38 39  1  0
 39 40  3  0
M  END
