
     RDKit          3D

 40 42  0  0  0  0  0  0  0  0999 V2000
   -5.5730   -3.0350   -2.5930 C   0  0  0  0  0  0  0  0  0  0  0  0
   -6.2050   -2.5140   -1.5790 C   0  0  0  0  0  0  0  0  0  0  0  0
   -5.7490   -2.4780   -0.2010 C   0  0  0  0  0  0  0  0  0  0  0  0
   -6.5370   -1.9020    0.6880 C   0  0  0  0  0  0  0  0  0  0  0  0
   -4.2310   -3.1670    0.2930 S   0  0  2  0  0  0  0  0  0  0  0  0
   -3.9380   -4.3870   -0.5860 O   0  0  0  0  0  0  0  0  0  0  0  0
   -4.5710   -3.8630    1.6500 O   0  0  0  0  0  0  0  0  0  0  0  0
   -2.9450   -2.1350    0.5000 N   0  0  0  0  0  0  0  0  0  0  0  0
   -2.4110   -1.3400   -0.5530 C   0  0  2  0  0  0  0  0  0  0  0  0
   -2.1640   -2.2460   -1.6860 C   0  0  0  0  0  0  0  0  0  0  0  0
   -2.3620   -1.8690   -3.0230 N   0  0  0  0  0  0  0  0  0  0  0  0
   -1.7550   -3.4350   -1.4960 O   0  0  0  0  0  0  0  0  0  0  0  0
   -1.0130   -0.8700   -0.1500 C   0  0  0  0  0  0  0  0  0  0  0  0
   -0.6610   -0.7510    1.1710 C   0  0  0  0  0  0  0  0  0  0  0  0
    0.6180   -0.3650    1.5360 C   0  0  0  0  0  0  0  0  0  0  0  0
    1.5680   -0.0920    0.5430 C   0  0  0  0  0  0  0  0  0  0  0  0
    2.8690    0.3040    0.9560 N   0  0  0  0  0  0  0  0  0  0  0  0
    4.0540    0.1270    0.2370 C   0  0  0  0  0  0  0  0  0  0  0  0
    3.9840   -0.4480   -0.9000 O   0  0  0  0  0  0  0  0  0  0  0  0
    5.3880    0.5410    0.6710 C   0  0  0  0  0  0  0  0  0  0  0  0
    5.5860    1.1830    1.8810 C   0  0  0  0  0  0  0  0  0  0  0  0
    6.8380    1.5670    2.2920 C   0  0  0  0  0  0  0  0  0  0  0  0
    7.0770    2.2600    3.5830 C   0  0  0  0  0  0  0  0  0  0  0  0
    8.3730    1.9670    4.0240 O   0  0  0  0  0  0  0  0  0  0  0  0
    7.9120    1.2850    1.4360 C   0  0  0  0  0  0  0  0  0  0  0  0
    7.7710    0.6530    0.2300 C   0  0  0  0  0  0  0  0  0  0  0  0
    8.8160    0.3750   -0.6100 O   0  0  0  0  0  0  0  0  0  0  0  0
   10.1590    0.6490   -0.4340 C   0  0  0  0  0  0  0  0  0  0  0  0
    6.4720    0.2930   -0.1230 C   0  0  0  0  0  0  0  0  0  0  0  0
    6.2920   -0.3520   -1.3490 O   0  0  0  0  0  0  0  0  0  0  0  0
    1.2260   -0.2070   -0.7820 C   0  0  0  0  0  0  0  0  0  0  0  0
   -0.0780   -0.6000   -1.1110 C   0  0  0  0  0  0  0  0  0  0  0  0
   -3.2780   -0.1560   -0.7970 C   0  0  2  0  0  0  0  0  0  0  0  0
   -2.8110    0.8140   -1.8230 C   0  0  0  0  0  0  0  0  0  0  0  0
   -3.7060    0.4840    0.5170 C   0  0  0  0  0  0  0  0  0  0  0  0
   -4.5710    1.6680    0.3780 C   0  0  0  0  0  0  0  0  0  0  0  0
   -5.8270    1.7210    0.8560 C   0  0  0  0  0  0  0  0  0  0  0  0
   -6.4140    3.0250    0.5620 C   0  0  0  0  0  0  0  0  0  0  0  0
   -5.3430    3.7540   -0.1400 C   0  0  0  0  0  0  0  0  0  0  0  0
   -4.2820    2.9520   -0.2410 C   0  0  0  0  0  0  0  0  0  0  0  0
  1  2  2  0
  2  3  1  0
  3  4  2  0
  3  5  1  0
  5  6  2  0
  5  7  2  0
  5  8  1  1
  9  8  1  1
  9 10  1  0
  9 13  1  0
  9 33  1  0
 10 11  1  0
 10 12  2  0
 13 14  2  0
 13 32  1  0
 14 15  1  0
 15 16  2  0
 16 17  1  0
 16 31  1  0
 17 18  1  0
 18 19  2  0
 18 20  1  0
 20 21  2  0
 20 29  1  0
 21 22  1  0
 22 23  1  0
 22 25  2  0
 23 24  1  0
 25 26  1  0
 26 27  1  0
 26 29  2  0
 27 28  1  0
 29 30  1  0
 31 32  2  0
 33 34  1  6
 33 35  1  0
 35 36  1  0
 36 37  2  0
 36 40  1  0
 37 38  1  0
 38 39  1  0
 39 40  2  0
M  END
