
     RDKit          3D

 40 42  0  0  0  0  0  0  0  0999 V2000
    3.7090    0.1430    2.8040 C   0  0  0  0  0  0  0  0  0  0  0  0
    3.9340   -0.2380    1.3890 C   0  0  0  0  0  0  0  0  0  0  0  0
    4.7360    0.4890    0.6440 C   0  0  0  0  0  0  0  0  0  0  0  0
    5.4750    1.6640    0.9890 C   0  0  0  0  0  0  0  0  0  0  0  0
    5.4480    2.1950    2.1190 O   0  0  0  0  0  0  0  0  0  0  0  0
    6.3470    2.3390   -0.0210 C   0  0  0  0  0  0  0  0  0  0  0  0
    7.7720    1.8460    0.1060 C   0  0  1  0  0  0  0  0  0  0  0  0
    8.6410    2.5460   -0.9450 C   0  0  0  0  0  0  0  0  0  0  0  0
    8.5040    2.1670    1.6920 S   0  0  0  0  0  0  0  0  0  0  0  0
    9.3010    1.0150    2.2320 O   0  0  0  0  0  0  0  0  0  0  0  0
    3.2690   -1.4140    0.7510 C   0  0  1  0  0  0  0  0  0  0  0  0
    3.5520   -2.5760    1.6200 N   0  0  0  0  0  0  0  0  0  0  0  0
    4.3860   -3.6430    1.2620 C   0  0  0  0  0  0  0  0  0  0  0  0
    4.5870   -4.7090    2.1720 N   0  0  0  0  0  0  0  0  0  0  0  0
    4.9410   -3.6390    0.1420 O   0  0  0  0  0  0  0  0  0  0  0  0
    1.8330   -1.3480    0.6130 C   0  0  0  0  0  0  0  0  0  0  0  0
    0.9530   -0.9730    1.5840 C   0  0  0  0  0  0  0  0  0  0  0  0
   -0.4360   -0.9360    1.4130 C   0  0  0  0  0  0  0  0  0  0  0  0
   -0.9250   -1.3040    0.1830 C   0  0  0  0  0  0  0  0  0  0  0  0
   -2.2850   -1.2980   -0.0710 O   0  0  0  0  0  0  0  0  0  0  0  0
   -2.8730   -0.1240   -0.5190 C   0  0  0  0  0  0  0  0  0  0  0  0
   -2.0910    0.9890   -0.6910 C   0  0  0  0  0  0  0  0  0  0  0  0
   -2.6940    2.1470   -1.1350 C   0  0  0  0  0  0  0  0  0  0  0  0
   -4.0450    2.2070   -1.4050 C   0  0  0  0  0  0  0  0  0  0  0  0
   -4.6130    3.4670   -1.8590 C   0  0  0  0  0  0  0  0  0  0  0  0
   -3.8770    4.4950   -1.9760 O   0  0  0  0  0  0  0  0  0  0  0  0
   -6.0600    3.5140   -2.1780 C   0  0  0  0  0  0  0  0  0  0  0  0
   -6.8880    3.7940   -0.9300 C   0  0  0  0  0  0  0  0  0  0  0  0
   -8.2440    3.8310   -1.2440 O   0  0  0  0  0  0  0  0  0  0  0  0
   -4.7760    1.0500   -1.2100 C   0  0  0  0  0  0  0  0  0  0  0  0
   -4.2590   -0.1390   -0.7730 C   0  0  0  0  0  0  0  0  0  0  0  0
   -4.9310   -1.3370   -0.5590 N   0  0  0  0  0  0  0  0  0  0  0  0
   -6.3120   -1.5180   -0.7590 C   0  0  0  0  0  0  0  0  0  0  0  0
   -7.0510   -0.5920   -1.1530 O   0  0  0  0  0  0  0  0  0  0  0  0
   -6.9480   -2.8730   -0.4950 C   0  0  2  0  0  0  0  0  0  0  0  0
   -8.1810   -3.1320   -1.2750 C   0  0  0  0  0  0  0  0  0  0  0  0
   -8.2670   -2.8200    0.1870 C   0  0  0  0  0  0  0  0  0  0  0  0
   -0.0740   -1.6910   -0.8320 C   0  0  0  0  0  0  0  0  0  0  0  0
    1.2870   -1.7150   -0.6240 C   0  0  0  0  0  0  0  0  0  0  0  0
    2.1770   -2.1210   -1.6940 C   0  0  0  0  0  0  0  0  0  0  0  0
  1  2  1  0
  2  3  2  3
  2 11  1  0
  3  4  1  0
  4  5  2  0
  4  6  1  0
  6  7  1  0
  7  8  1  6
  7  9  1  0
  9 10  2  0
 11 12  1  1
 11 16  1  0
 12 13  1  0
 13 14  1  0
 13 15  2  0
 16 17  2  0
 16 39  1  0
 17 18  1  0
 18 19  2  0
 19 20  1  0
 19 38  1  0
 20 21  1  0
 21 22  2  0
 21 31  1  0
 22 23  1  0
 23 24  2  0
 24 25  1  0
 24 30  1  0
 25 26  2  0
 25 27  1  0
 27 28  1  0
 28 29  1  0
 30 31  2  0
 31 32  1  0
 32 33  1  0
 33 34  2  0
 35 33  1  6
 35 36  1  0
 35 37  1  0
 36 37  1  0
 38 39  2  0
 39 40  1  0
M  END
