
     RDKit          3D

 42 46  0  0  0  0  0  0  0  0999 V2000
   -1.3390   -1.3840    0.4300 O   0  0  0  0  0  0  0  0  0  0  0  0
   -1.6180   -0.9000   -0.6960 C   0  0  0  0  0  0  0  0  0  0  0  0
   -0.9640   -1.4310   -1.7920 C   0  0  0  0  0  0  0  0  0  0  0  0
   -1.2510   -0.9180   -3.0460 C   0  0  0  0  0  0  0  0  0  0  0  0
   -0.6080   -1.4340   -4.1580 C   0  0  0  0  0  0  0  0  0  0  0  0
    0.3090   -2.4500   -3.9950 C   0  0  0  0  0  0  0  0  0  0  0  0
    0.5740   -2.9390   -2.7380 C   0  0  0  0  0  0  0  0  0  0  0  0
    1.3980   -3.8620   -2.5380 O   0  0  0  0  0  0  0  0  0  0  0  0
   -0.0550   -2.4370   -1.6440 N   0  0  0  0  0  0  0  0  0  0  0  0
    0.1820   -2.9340   -0.3510 C   0  0  0  0  0  0  0  0  0  0  0  0
   -0.5200   -3.9210    0.1890 N   0  0  0  0  0  0  0  0  0  0  0  0
   -0.2760   -4.3960    1.4320 C   0  0  0  0  0  0  0  0  0  0  0  0
    0.7290   -3.8610    2.1960 C   0  0  0  0  0  0  0  0  0  0  0  0
    1.4830   -2.8320    1.6700 C   0  0  0  0  0  0  0  0  0  0  0  0
    1.2340   -2.3380    0.3850 C   0  0  0  0  0  0  0  0  0  0  0  0
    1.8840   -1.3780   -0.1970 O   0  0  0  0  0  0  0  0  0  0  0  0
    2.8620   -0.5020   -0.1120 C   0  0  0  0  0  0  0  0  0  0  0  0
    3.7500   -0.3030    0.9160 C   0  0  0  0  0  0  0  0  0  0  0  0
    4.7630    0.6500    0.9340 C   0  0  0  0  0  0  0  0  0  0  0  0
    5.6960    0.7540    2.4040 Cl  0  0  0  0  0  0  0  0  0  0  0  0
    4.9440    1.4800   -0.1210 C   0  0  0  0  0  0  0  0  0  0  0  0
    6.0420    2.4500   -0.2730 C   0  0  0  0  0  0  0  0  0  0  0  0
    7.1450    2.3810    0.4110 C   0  0  0  0  0  0  0  0  0  0  0  0
    8.3150    3.2520    0.3790 C   0  0  0  0  0  0  0  0  0  0  0  0
    9.4250    2.4210    0.0490 F   0  0  0  0  0  0  0  0  0  0  0  0
    5.7670    3.5540   -1.2370 C   0  0  1  0  0  0  0  0  0  0  0  0
    6.5150    4.6650   -1.0170 F   0  0  0  0  0  0  0  0  0  0  0  0
    5.9990    3.0610   -2.5240 F   0  0  0  0  0  0  0  0  0  0  0  0
    4.4090    3.8880   -1.1430 F   0  0  0  0  0  0  0  0  0  0  0  0
    4.0730    1.3280   -1.1960 C   0  0  0  0  0  0  0  0  0  0  0  0
    3.0810    0.3920   -1.2040 C   0  0  0  0  0  0  0  0  0  0  0  0
    2.0080    0.2320   -2.5620 Cl  0  0  0  0  0  0  0  0  0  0  0  0
   -2.1540    0.0720   -3.1360 N   0  0  0  0  0  0  0  0  0  0  0  0
   -2.7630    0.5540   -2.0410 C   0  0  0  0  0  0  0  0  0  0  0  0
   -2.5260    0.0980   -0.8000 N   0  0  0  0  0  0  0  0  0  0  0  0
   -3.2090    0.6550    0.3490 C   0  0  0  0  0  0  0  0  0  0  0  0
   -4.4880   -0.1170    0.5930 C   0  0  0  0  0  0  0  0  0  0  0  0
   -5.2130    0.4120    1.7420 N   0  0  0  0  0  0  0  0  0  0  0  0
   -5.7050    1.7360    1.4000 C   0  0  0  0  0  0  0  0  0  0  0  0
   -6.8780    1.8560    2.3800 C   0  0  0  0  0  0  0  0  0  0  0  0
   -7.5440    0.5090    2.1890 C   0  0  0  0  0  0  0  0  0  0  0  0
   -6.3790   -0.4130    1.9320 C   0  0  0  0  0  0  0  0  0  0  0  0
  1  2  2  0
  2  3  1  0
  2 35  1  0
  3  4  2  0
  3  9  1  0
  4  5  1  0
  4 33  1  0
  5  6  2  0
  6  7  1  0
  7  8  2  0
  7  9  1  0
  9 10  1  0
 10 11  2  0
 10 15  1  0
 11 12  1  0
 12 13  2  0
 13 14  1  0
 14 15  2  0
 15 16  1  0
 16 17  1  0
 17 18  2  0
 17 31  1  0
 18 19  1  0
 19 20  1  0
 19 21  2  0
 21 22  1  0
 21 30  1  0
 22 23  2  3
 22 26  1  0
 23 24  1  0
 24 25  1  0
 26 27  1  1
 26 28  1  0
 26 29  1  0
 30 31  2  0
 31 32  1  0
 33 34  2  0
 34 35  1  0
 35 36  1  0
 36 37  1  0
 37 38  1  0
 38 39  1  0
 38 42  1  0
 39 40  1  0
 40 41  1  0
 41 42  1  0
M  END
