
     RDKit          3D

 41 45  0  0  0  0  0  0  0  0999 V2000
   -3.3960   -1.0530    1.7470 C   0  0  0  0  0  0  0  0  0  0  0  0
   -1.9800   -0.7960    1.3510 C   0  0  0  0  0  0  0  0  0  0  0  0
   -1.7770   -0.0780    0.0850 C   0  0  0  0  0  0  0  0  0  0  0  0
   -1.9430    1.2760   -0.0990 C   0  0  0  0  0  0  0  0  0  0  0  0
   -2.3850    2.1380    1.0080 C   0  0  0  0  0  0  0  0  0  0  0  0
   -3.8270    2.3390    1.1970 C   0  0  0  0  0  0  0  0  0  0  0  0
   -4.0060    3.1910    2.3250 O   0  0  0  0  0  0  0  0  0  0  0  0
   -5.3910    3.4350    2.4750 C   0  0  0  0  0  0  0  0  0  0  0  0
   -1.7530    1.9200   -1.3260 C   0  0  0  0  0  0  0  0  0  0  0  0
   -1.3830    1.1660   -2.4050 C   0  0  0  0  0  0  0  0  0  0  0  0
   -1.1500    1.9670   -3.9670 Cl  0  0  0  0  0  0  0  0  0  0  0  0
   -1.2070   -0.2000   -2.2530 C   0  0  0  0  0  0  0  0  0  0  0  0
   -1.4010   -0.8310   -1.0120 C   0  0  0  0  0  0  0  0  0  0  0  0
   -1.1960   -2.2070   -0.9130 N   0  0  0  0  0  0  0  0  0  0  0  0
   -0.0870   -2.7260   -0.4370 C   0  0  0  0  0  0  0  0  0  0  0  0
    0.9810   -1.9810    0.0600 N   0  0  0  0  0  0  0  0  0  0  0  0
    1.3660   -2.0340    1.4940 C   0  0  0  0  0  0  0  0  0  0  0  0
    2.8980   -2.0970    1.3290 C   0  0  0  0  0  0  0  0  0  0  0  0
    3.0880   -1.0220    0.3860 N   0  0  0  0  0  0  0  0  0  0  0  0
    4.1190   -0.0590    0.2230 C   0  0  0  0  0  0  0  0  0  0  0  0
    3.9940    1.2490    0.6260 C   0  0  0  0  0  0  0  0  0  0  0  0
    5.0010    2.1890    0.4150 C   0  0  0  0  0  0  0  0  0  0  0  0
    4.8060    3.6100    0.8710 C   0  0  1  0  0  0  0  0  0  0  0  0
    4.8870    4.5130   -0.3460 C   0  0  0  0  0  0  0  0  0  0  0  0
    3.5060    3.7270    1.3610 F   0  0  0  0  0  0  0  0  0  0  0  0
    5.6800    3.9530    1.8680 F   0  0  0  0  0  0  0  0  0  0  0  0
    6.1750    1.8320   -0.2160 C   0  0  0  0  0  0  0  0  0  0  0  0
    7.4470    2.9970   -0.4930 Cl  0  0  0  0  0  0  0  0  0  0  0  0
    6.2920    0.5140   -0.6140 C   0  0  0  0  0  0  0  0  0  0  0  0
    5.2920   -0.4160   -0.4040 C   0  0  0  0  0  0  0  0  0  0  0  0
    5.4170   -1.7150   -0.8040 F   0  0  0  0  0  0  0  0  0  0  0  0
    1.9280   -1.0890   -0.4940 C   0  0  0  0  0  0  0  0  0  0  0  0
    1.8090   -0.4620   -1.5510 O   0  0  0  0  0  0  0  0  0  0  0  0
    0.0690   -4.0920   -0.3780 N   0  0  0  0  0  0  0  0  0  0  0  0
   -0.8600   -4.9490   -0.7850 C   0  0  0  0  0  0  0  0  0  0  0  0
   -0.7090   -6.2050   -0.7310 O   0  0  0  0  0  0  0  0  0  0  0  0
   -2.0350   -4.4310   -1.2890 C   0  0  0  0  0  0  0  0  0  0  0  0
   -3.1610   -5.0250   -1.7750 N   0  0  0  0  0  0  0  0  0  0  0  0
   -4.0150   -4.0400   -2.1340 C   0  0  0  0  0  0  0  0  0  0  0  0
   -3.4200   -2.8310   -1.8700 C   0  0  0  0  0  0  0  0  0  0  0  0
   -2.1740   -3.0520   -1.3400 C   0  0  0  0  0  0  0  0  0  0  0  0
  1  2  1  0
  2  3  1  0
  3  4  2  0
  3 13  1  0
  4  5  1  0
  4  9  1  0
  5  6  1  0
  6  7  1  0
  7  8  1  0
  9 10  2  0
 10 11  1  0
 10 12  1  0
 12 13  2  0
 13 14  1  0
 14 15  1  0
 14 41  1  0
 15 16  1  0
 15 34  2  0
 16 17  1  0
 16 32  1  0
 17 18  1  0
 18 19  1  0
 19 20  1  0
 19 32  1  0
 20 21  2  0
 20 30  1  0
 21 22  1  0
 22 23  1  0
 22 27  2  0
 23 24  1  6
 23 25  1  0
 23 26  1  0
 27 28  1  0
 27 29  1  0
 29 30  2  0
 30 31  1  0
 32 33  2  0
 34 35  1  0
 35 36  2  0
 35 37  1  0
 37 38  1  0
 37 41  2  0
 38 39  1  0
 39 40  2  0
 40 41  1  0
M  END
