
     RDKit          3D

 42 48  0  0  0  0  0  0  0  0999 V2000
    2.2320    0.2300    2.1170 C   0  0  0  0  0  0  0  0  0  0  0  0
    2.8880   -0.1400    0.8530 C   0  0  0  0  0  0  0  0  0  0  0  0
    2.4720   -1.1420   -0.0180 C   0  0  0  0  0  0  0  0  0  0  0  0
    1.3380   -2.0190    0.2050 C   0  0  0  0  0  0  0  0  0  0  0  0
    0.0590   -1.3600    0.2700 N   0  0  0  0  0  0  0  0  0  0  0  0
   -1.0010   -2.2290    0.6080 C   0  0  0  0  0  0  0  0  0  0  0  0
   -2.2770   -1.9580   -0.1910 C   0  0  0  0  0  0  0  0  0  0  0  0
   -2.4510   -0.4910    0.0690 N   0  0  0  0  0  0  0  0  0  0  0  0
   -3.3440   -0.1210    1.0500 C   0  0  0  0  0  0  0  0  0  0  0  0
   -2.9310    0.5480    2.1750 N   0  0  0  0  0  0  0  0  0  0  0  0
   -3.7910    0.8430    3.1560 C   0  0  0  0  0  0  0  0  0  0  0  0
   -5.1210    0.5040    3.1420 C   0  0  0  0  0  0  0  0  0  0  0  0
   -5.5770   -0.1800    1.9990 C   0  0  0  0  0  0  0  0  0  0  0  0
   -4.7330   -0.4750    0.9950 C   0  0  0  0  0  0  0  0  0  0  0  0
   -5.1520   -1.1790   -0.2530 C   0  0  0  0  0  0  0  0  0  0  0  0
   -6.4670   -0.7860   -0.6560 N   0  0  1  0  0  0  0  0  0  0  0  0
   -7.6440   -0.7120    0.0010 C   0  0  0  0  0  0  0  0  0  0  0  0
   -8.6400    0.0940   -0.9410 C   0  0  0  0  0  0  0  0  0  0  0  0
   -8.3110    1.5650   -0.6000 C   0  0  0  0  0  0  0  0  0  0  0  0
   -6.7780    1.6900   -0.5090 C   0  0  0  0  0  0  0  0  0  0  0  0
   -6.1470    0.5830   -1.2670 C   0  0  0  0  0  0  0  0  0  0  0  0
   -1.5260    0.2680   -0.7170 C   0  0  0  0  0  0  0  0  0  0  0  0
   -0.1080   -0.0540   -0.1100 C   0  0  0  0  0  0  0  0  0  0  0  0
    3.3550   -1.2290   -1.0100 N   0  0  0  0  0  0  0  0  0  0  0  0
    3.5790   -2.0480   -2.1140 C   0  0  0  0  0  0  0  0  0  0  0  0
    2.7110   -2.9080   -2.3620 O   0  0  0  0  0  0  0  0  0  0  0  0
    4.6890   -1.8780   -2.8500 N   0  0  0  0  0  0  0  0  0  0  0  0
    4.9390   -2.8600   -3.9400 C   0  0  0  0  0  0  0  0  0  0  0  0
    5.6430   -0.9630   -2.6430 C   0  0  0  0  0  0  0  0  0  0  0  0
    6.6760   -0.8050   -3.3580 O   0  0  0  0  0  0  0  0  0  0  0  0
    5.4280   -0.1360   -1.5280 C   0  0  0  0  0  0  0  0  0  0  0  0
    6.3440    0.7960   -1.1350 C   0  0  0  0  0  0  0  0  0  0  0  0
    6.1080    1.5330    0.0380 C   0  0  0  0  0  0  0  0  0  0  0  0
    7.1480    2.3390    0.5090 N   0  0  0  0  0  0  0  0  0  0  0  0
    8.1060    1.7020    1.5130 C   0  0  0  0  0  0  0  0  0  0  0  0
    9.4030    2.1790    0.8650 C   0  0  0  0  0  0  0  0  0  0  0  0
    9.0890    3.5780    0.6820 N   0  0  0  0  0  0  0  0  0  0  0  0
    7.6700    3.6090    0.3380 C   0  0  0  0  0  0  0  0  0  0  0  0
    7.0150    4.6140   -0.0470 O   0  0  0  0  0  0  0  0  0  0  0  0
    4.9810    1.3500    0.7970 C   0  0  0  0  0  0  0  0  0  0  0  0
    4.0580    0.3930    0.3700 C   0  0  0  0  0  0  0  0  0  0  0  0
    4.3190   -0.3180   -0.7930 C   0  0  0  0  0  0  0  0  0  0  0  0
  1  2  1  0
  2  3  2  0
  2 41  1  0
  3  4  1  0
  3 24  1  0
  4  5  1  0
  5  6  1  0
  5 23  1  0
  6  7  1  0
  7  8  1  0
  8  9  1  0
  8 22  1  0
  9 10  2  0
  9 14  1  0
 10 11  1  0
 11 12  2  0
 12 13  1  0
 13 14  2  0
 14 15  1  0
 16 15  1  1
 16 17  1  0
 16 21  1  0
 17 18  1  0
 18 19  1  0
 19 20  1  0
 20 21  1  0
 22 23  1  0
 24 25  1  0
 24 42  1  0
 25 26  2  0
 25 27  1  0
 27 28  1  0
 27 29  1  0
 29 30  2  0
 29 31  1  0
 31 32  1  0
 31 42  2  0
 32 33  2  0
 33 34  1  0
 33 40  1  0
 34 35  1  0
 34 38  1  0
 35 36  1  0
 36 37  1  0
 37 38  1  0
 38 39  2  0
 40 41  2  0
 41 42  1  0
M  CHG  2  10   1  16   1
M  END
