
     RDKit          3D

 42 46  0  0  0  0  0  0  0  0999 V2000
    6.7950    2.8080   -2.6010 N   0  0  0  0  0  0  0  0  0  0  0  0
    7.3310    2.3160   -1.5070 C   0  0  0  0  0  0  0  0  0  0  0  0
    6.7440    1.4150   -0.6340 O   0  0  0  0  0  0  0  0  0  0  0  0
    7.5860    1.1000    0.4200 C   0  0  0  0  0  0  0  0  0  0  0  0
    7.3530    0.2480    1.4750 C   0  0  0  0  0  0  0  0  0  0  0  0
    6.0970   -0.4900    1.6350 C   0  0  0  0  0  0  0  0  0  0  0  0
    5.0260   -0.4630    0.8210 N   0  0  0  0  0  0  0  0  0  0  0  0
    4.0700   -1.2690    1.2960 C   0  0  0  0  0  0  0  0  0  0  0  0
    2.7190   -1.5570    0.7350 C   0  0  0  0  0  0  0  0  0  0  0  0
    1.9280   -2.3730    1.3410 C   0  0  0  0  0  0  0  0  0  0  0  0
    0.6090   -2.7680    0.9570 C   0  0  0  0  0  0  0  0  0  0  0  0
   -0.0760   -3.6890    1.7810 C   0  0  0  0  0  0  0  0  0  0  0  0
   -1.3420   -4.1330    1.5080 C   0  0  0  0  0  0  0  0  0  0  0  0
   -2.0370   -3.7090    0.4030 C   0  0  0  0  0  0  0  0  0  0  0  0
   -1.4060   -2.8170   -0.4180 C   0  0  0  0  0  0  0  0  0  0  0  0
   -2.1310   -2.3590   -1.5920 C   0  0  0  0  0  0  0  0  0  0  0  0
   -2.0260   -2.9780   -2.6610 O   0  0  0  0  0  0  0  0  0  0  0  0
   -2.9710   -1.2140   -1.5760 N   0  0  0  0  0  0  0  0  0  0  0  0
   -3.6950   -0.7610   -2.7500 C   0  0  0  0  0  0  0  0  0  0  0  0
   -4.1360    0.6660   -2.6200 C   0  0  0  0  0  0  0  0  0  0  0  0
   -4.8350    0.9880   -1.4180 N   0  0  0  0  0  0  0  0  0  0  0  0
   -6.2480    1.2460   -1.6510 C   0  0  0  0  0  0  0  0  0  0  0  0
   -6.8610    1.6250   -0.3020 C   0  0  0  0  0  0  0  0  0  0  0  0
   -7.8060    0.8720    0.1640 C   0  0  0  0  0  0  0  0  0  0  0  0
   -8.5620    0.9860    1.4000 C   0  0  0  0  0  0  0  0  0  0  0  0
   -9.9150    1.1240    1.1030 F   0  0  0  0  0  0  0  0  0  0  0  0
   -6.3090    2.8370    0.3260 C   0  0  2  0  0  0  0  0  0  0  0  0
   -6.7970    3.1300    1.5420 F   0  0  0  0  0  0  0  0  0  0  0  0
   -6.6530    4.2180   -0.7860 Cl  0  0  0  0  0  0  0  0  0  0  0  0
   -4.6660   -0.0400   -0.3940 C   0  0  0  0  0  0  0  0  0  0  0  0
   -3.1800   -0.3940   -0.3760 C   0  0  0  0  0  0  0  0  0  0  0  0
   -0.1060   -2.3580   -0.1410 C   0  0  0  0  0  0  0  0  0  0  0  0
    0.5870   -1.2260   -1.2580 Cl  0  0  0  0  0  0  0  0  0  0  0  0
    4.5740   -1.7970    2.4230 N   0  0  0  0  0  0  0  0  0  0  0  0
    5.7790   -1.3190    2.6040 O   0  0  0  0  0  0  0  0  0  0  0  0
    8.3710    0.1140    2.3950 C   0  0  0  0  0  0  0  0  0  0  0  0
    9.5620    0.7990    2.2640 C   0  0  0  0  0  0  0  0  0  0  0  0
    9.7560    1.6410    1.1940 C   0  0  0  0  0  0  0  0  0  0  0  0
    8.7520    1.7960    0.2550 C   0  0  0  0  0  0  0  0  0  0  0  0
    8.6780    2.6180   -0.9730 C   0  0  1  0  0  0  0  0  0  0  0  0
    9.6210    2.2620   -1.9070 F   0  0  0  0  0  0  0  0  0  0  0  0
    8.7230    3.9730   -0.6850 F   0  0  0  0  0  0  0  0  0  0  0  0
  1  2  2  0
  2  3  1  0
  2 40  1  0
  3  4  1  0
  4  5  2  0
  4 39  1  0
  5  6  1  0
  5 36  1  0
  6  7  2  0
  6 35  1  0
  7  8  1  0
  8  9  1  0
  8 34  2  0
  9 10  2  3
 10 11  1  0
 11 12  2  0
 11 32  1  0
 12 13  1  0
 13 14  2  0
 14 15  1  0
 15 16  1  0
 15 32  2  0
 16 17  2  0
 16 18  1  0
 18 19  1  0
 18 31  1  0
 19 20  1  0
 20 21  1  0
 21 22  1  0
 21 30  1  0
 22 23  1  0
 23 24  2  3
 23 27  1  0
 24 25  1  0
 25 26  1  0
 27 28  1  1
 27 29  1  0
 30 31  1  0
 32 33  1  0
 34 35  1  0
 36 37  2  0
 37 38  1  0
 38 39  2  0
 39 40  1  0
 40 41  1  6
 40 42  1  0
M  END
