
     RDKit          3D

 41 45  0  0  0  0  0  0  0  0999 V2000
   -2.9640   -3.8600   -3.6060 C   0  0  0  0  0  0  0  0  0  0  0  0
   -2.5990   -3.5500   -2.3010 O   0  0  0  0  0  0  0  0  0  0  0  0
   -1.9070   -2.3200   -2.2380 C   0  0  0  0  0  0  0  0  0  0  0  0
   -1.5940   -2.1190   -0.7740 C   0  0  2  0  0  0  0  0  0  0  0  0
   -2.8150   -2.2320    0.0060 C   0  0  0  0  0  0  0  0  0  0  0  0
   -4.0550   -2.1500   -0.5660 C   0  0  0  0  0  0  0  0  0  0  0  0
   -5.2270   -2.2520    0.1760 C   0  0  0  0  0  0  0  0  0  0  0  0
   -6.4920   -2.1720   -0.3900 O   0  0  0  0  0  0  0  0  0  0  0  0
   -5.1390   -2.4430    1.5350 C   0  0  0  0  0  0  0  0  0  0  0  0
   -6.6210   -2.5770    2.4860 Cl  0  0  0  0  0  0  0  0  0  0  0  0
   -3.8990   -2.5280    2.1260 C   0  0  0  0  0  0  0  0  0  0  0  0
   -2.7330   -2.4260    1.3840 C   0  0  0  0  0  0  0  0  0  0  0  0
   -1.5330   -2.5380    2.0360 F   0  0  0  0  0  0  0  0  0  0  0  0
   -0.8820   -0.8480   -0.6640 N   0  0  0  0  0  0  0  0  0  0  0  0
   -1.5440    0.3530   -1.0200 C   0  0  0  0  0  0  0  0  0  0  0  0
   -2.1410    1.1560    0.0430 C   0  0  0  0  0  0  0  0  0  0  0  0
   -2.0700    0.9430    1.3900 C   0  0  0  0  0  0  0  0  0  0  0  0
   -2.6650    1.8250    2.3000 C   0  0  0  0  0  0  0  0  0  0  0  0
   -2.5810    1.5960    3.6360 F   0  0  0  0  0  0  0  0  0  0  0  0
   -3.3480    2.9460    1.8880 C   0  0  0  0  0  0  0  0  0  0  0  0
   -4.0750    4.0230    3.0550 Cl  0  0  0  0  0  0  0  0  0  0  0  0
   -3.4200    3.1630    0.5340 C   0  0  0  0  0  0  0  0  0  0  0  0
   -2.8380    2.3000   -0.3660 C   0  0  0  0  0  0  0  0  0  0  0  0
   -2.9490    2.5820   -1.6890 F   0  0  0  0  0  0  0  0  0  0  0  0
    0.4660   -0.8720   -0.2830 C   0  0  0  0  0  0  0  0  0  0  0  0
    0.9990   -2.0200   -0.0740 O   0  0  0  0  0  0  0  0  0  0  0  0
    1.3500    0.2550   -0.0890 C   0  0  0  0  0  0  0  0  0  0  0  0
    2.6680    0.1190    0.3210 C   0  0  0  0  0  0  0  0  0  0  0  0
    3.4910    1.2060    0.5270 C   0  0  0  0  0  0  0  0  0  0  0  0
    4.8670    1.0330    0.9640 C   0  0  0  0  0  0  0  0  0  0  0  0
    5.3100    0.1440    1.9520 C   0  0  0  0  0  0  0  0  0  0  0  0
    6.6440    0.2920    2.0590 N   0  0  0  0  0  0  0  0  0  0  0  0
    7.0780    1.2080    1.2110 N   0  0  0  0  0  0  0  0  0  0  0  0
    8.3200    1.6690    0.9880 C   0  0  0  0  0  0  0  0  0  0  0  0
    8.4750    2.6460    0.0290 C   0  0  0  0  0  0  0  0  0  0  0  0
    7.3680    3.1110   -0.6570 C   0  0  0  0  0  0  0  0  0  0  0  0
    6.1390    2.6290   -0.4090 N   0  0  0  0  0  0  0  0  0  0  0  0
    6.0090    1.6710    0.5340 C   0  0  0  0  0  0  0  0  0  0  0  0
    2.9450    2.4630    0.3040 C   0  0  0  0  0  0  0  0  0  0  0  0
    1.6270    2.6080   -0.1070 C   0  0  0  0  0  0  0  0  0  0  0  0
    0.8950    1.4910   -0.2830 N   0  0  0  0  0  0  0  0  0  0  0  0
  1  2  1  0
  2  3  1  0
  4  3  1  6
  4  5  1  0
  4 14  1  0
  5  6  2  0
  5 12  1  0
  6  7  1  0
  7  8  1  0
  7  9  2  0
  9 10  1  0
  9 11  1  0
 11 12  2  0
 12 13  1  0
 14 15  1  0
 14 25  1  0
 15 16  1  0
 16 17  2  0
 16 23  1  0
 17 18  1  0
 18 19  1  0
 18 20  2  0
 20 21  1  0
 20 22  1  0
 22 23  2  0
 23 24  1  0
 25 26  2  0
 25 27  1  0
 27 28  2  0
 27 41  1  0
 28 29  1  0
 29 30  1  0
 29 39  2  0
 30 31  1  0
 30 38  2  0
 31 32  2  0
 32 33  1  0
 33 34  1  0
 33 38  1  0
 34 35  2  0
 35 36  1  0
 36 37  2  0
 37 38  1  0
 39 40  1  0
 40 41  2  0
M  END
