
     RDKit          3D

 41 45  0  0  0  0  0  0  0  0999 V2000
    9.7030    2.4100   -1.5520 C   0  0  0  0  0  0  0  0  0  0  0  0
    8.5270    1.6550   -1.5930 O   0  0  0  0  0  0  0  0  0  0  0  0
    8.4000    0.3760   -1.0500 C   0  0  0  0  0  0  0  0  0  0  0  0
    9.4340   -0.0910   -0.4970 O   0  0  0  0  0  0  0  0  0  0  0  0
    7.1800   -0.3270   -1.1290 N   0  0  0  0  0  0  0  0  0  0  0  0
    6.0480    0.2770   -1.7760 C   0  0  0  0  0  0  0  0  0  0  0  0
    4.9590    0.4600   -0.7330 C   0  0  0  0  0  0  0  0  0  0  0  0
    4.6880   -0.9150   -0.1780 C   0  0  0  0  0  0  0  0  0  0  0  0
    3.4100   -1.2180    0.2760 C   0  0  0  0  0  0  0  0  0  0  0  0
    3.0430   -2.4330    0.8020 C   0  0  0  0  0  0  0  0  0  0  0  0
    1.8350   -2.8070    1.2650 O   0  0  0  0  0  0  0  0  0  0  0  0
    0.6140   -2.2360    1.4180 C   0  0  0  0  0  0  0  0  0  0  0  0
    0.6170   -1.0800    2.3650 C   0  0  0  0  0  0  0  0  0  0  0  0
   -0.7310   -0.5000    2.5210 N   0  0  0  0  0  0  0  0  0  0  0  0
   -1.3140    0.1510    1.4240 C   0  0  0  0  0  0  0  0  0  0  0  0
   -0.6000    0.5490    0.2750 C   0  0  0  0  0  0  0  0  0  0  0  0
   -1.4950    1.1960   -0.5160 C   0  0  0  0  0  0  0  0  0  0  0  0
   -2.7190    1.2340    0.0490 N   0  0  0  0  0  0  0  0  0  0  0  0
   -3.8690    1.7510   -0.3640 N   0  0  0  0  0  0  0  0  0  0  0  0
   -5.0200    1.7040    0.3150 C   0  0  0  0  0  0  0  0  0  0  0  0
   -6.2560    2.2950   -0.1980 C   0  0  0  0  0  0  0  0  0  0  0  0
   -7.3620    1.4070   -0.5300 C   0  0  0  0  0  0  0  0  0  0  0  0
   -8.4630    1.3100    0.3420 C   0  0  0  0  0  0  0  0  0  0  0  0
   -9.5530    0.5220    0.0620 C   0  0  0  0  0  0  0  0  0  0  0  0
   -9.5910   -0.1940   -1.0870 N   0  0  0  0  0  0  0  0  0  0  0  0
   -8.5650   -0.1260   -1.9340 C   0  0  0  0  0  0  0  0  0  0  0  0
   -7.4410    0.6740   -1.6640 C   0  0  0  0  0  0  0  0  0  0  0  0
   -6.3580    0.6200   -2.6550 C   0  0  0  0  0  0  0  0  0  0  0  0
   -5.1740   -0.6210   -2.1340 Cl  0  0  0  0  0  0  0  0  0  0  0  0
   -4.9560    1.0570    1.5380 C   0  0  0  0  0  0  0  0  0  0  0  0
   -3.7570    0.5080    1.9900 C   0  0  0  0  0  0  0  0  0  0  0  0
   -3.7550   -0.1900    3.2920 C   0  0  1  0  0  0  0  0  0  0  0  0
   -3.3960   -1.5080    3.2210 F   0  0  0  0  0  0  0  0  0  0  0  0
   -3.1470    0.5560    4.2670 F   0  0  0  0  0  0  0  0  0  0  0  0
   -5.4950   -0.2620    3.8340 Cl  0  0  0  0  0  0  0  0  0  0  0  0
   -2.6190    0.6010    1.2300 C   0  0  0  0  0  0  0  0  0  0  0  0
    4.0800   -3.3950    0.8570 C   0  0  0  0  0  0  0  0  0  0  0  0
    5.3310   -3.0950    0.4110 C   0  0  0  0  0  0  0  0  0  0  0  0
    6.2990   -4.0670    0.4890 F   0  0  0  0  0  0  0  0  0  0  0  0
    5.6680   -1.8650   -0.1110 C   0  0  0  0  0  0  0  0  0  0  0  0
    7.0590   -1.6450   -0.5660 C   0  0  0  0  0  0  0  0  0  0  0  0
  1  2  1  0
  2  3  1  0
  3  4  2  0
  3  5  1  0
  5  6  1  0
  5 41  1  0
  6  7  1  0
  7  8  1  0
  8  9  2  0
  8 40  1  0
  9 10  1  0
 10 11  1  0
 10 37  2  0
 11 12  1  0
 12 13  1  0
 13 14  1  0
 14 15  1  0
 15 16  1  0
 15 36  2  0
 16 17  2  0
 17 18  1  0
 18 19  1  0
 18 36  1  0
 19 20  2  0
 20 21  1  0
 20 30  1  0
 21 22  1  0
 22 23  2  0
 22 27  1  0
 23 24  1  0
 24 25  2  0
 25 26  1  0
 26 27  2  0
 27 28  1  0
 28 29  1  0
 30 31  2  0
 31 32  1  0
 31 36  1  0
 32 33  1  6
 32 34  1  0
 32 35  1  0
 37 38  1  0
 38 39  1  0
 38 40  2  0
 40 41  1  0
M  END
