
     RDKit          3D

 42 46  0  0  0  0  0  0  0  0999 V2000
    6.2180   -4.4070   -3.2540 C   0  0  0  0  0  0  0  0  0  0  0  0
    5.1840   -3.7520   -2.4200 C   0  0  0  0  0  0  0  0  0  0  0  0
    4.2290   -2.9040   -2.9760 C   0  0  0  0  0  0  0  0  0  0  0  0
    3.2700   -2.2960   -2.2060 C   0  0  0  0  0  0  0  0  0  0  0  0
    3.2810   -2.5540   -0.8440 C   0  0  0  0  0  0  0  0  0  0  0  0
    2.3090   -1.9160    0.0190 N   0  0  0  0  0  0  0  0  0  0  0  0
    2.6920   -0.8000    0.8280 C   0  0  0  0  0  0  0  0  0  0  0  0
    4.0600   -0.2530    0.5590 C   0  0  0  0  0  0  0  0  0  0  0  0
    4.3230    0.8680    1.4430 N   0  0  0  0  0  0  0  0  0  0  0  0
    5.5710    1.5660    1.3890 C   0  0  0  0  0  0  0  0  0  0  0  0
    6.4240    1.1900    0.5700 O   0  0  0  0  0  0  0  0  0  0  0  0
    5.8380    2.6300    2.2160 O   0  0  0  0  0  0  0  0  0  0  0  0
    6.9990    3.3860    2.2590 C   0  0  0  0  0  0  0  0  0  0  0  0
    7.3560    4.1370    1.0180 C   0  0  2  0  0  0  0  0  0  0  0  0
    6.3280    5.0130    0.7210 F   0  0  0  0  0  0  0  0  0  0  0  0
    7.6160    3.3180   -0.0510 F   0  0  0  0  0  0  0  0  0  0  0  0
    8.5220    4.8880    1.2010 F   0  0  0  0  0  0  0  0  0  0  0  0
    0.9800   -2.4610    0.0670 C   0  0  0  0  0  0  0  0  0  0  0  0
    0.0820   -1.6860    0.9290 C   0  0  0  0  0  0  0  0  0  0  0  0
    0.3410   -1.3120    2.1870 N   0  0  0  0  0  0  0  0  0  0  0  0
   -0.6970   -0.6390    2.6220 N   0  0  0  0  0  0  0  0  0  0  0  0
   -1.6240   -0.5740    1.6570 C   0  0  0  0  0  0  0  0  0  0  0  0
   -2.9210    0.0920    1.7600 C   0  0  0  0  0  0  0  0  0  0  0  0
   -3.2570    0.7490    2.9230 C   0  0  0  0  0  0  0  0  0  0  0  0
   -4.4920    1.3850    3.0450 C   0  0  0  0  0  0  0  0  0  0  0  0
   -5.3700    1.3360    1.9640 C   0  0  0  0  0  0  0  0  0  0  0  0
   -6.9050    2.1220    2.1020 Cl  0  0  0  0  0  0  0  0  0  0  0  0
   -5.0510    0.6850    0.7960 C   0  0  0  0  0  0  0  0  0  0  0  0
   -6.0050    0.6830   -0.2510 N   0  0  0  0  0  0  0  0  0  0  0  0
   -7.3440    0.1420   -0.1210 C   0  0  0  0  0  0  0  0  0  0  0  0
   -8.1550    1.1880   -0.8270 C   0  0  0  0  0  0  0  0  0  0  0  0
   -9.3590    1.7040   -0.8850 C   0  0  0  0  0  0  0  0  0  0  0  0
   -9.3630    2.7820   -1.9130 C   0  0  0  0  0  0  0  0  0  0  0  0
   -7.9670    2.7570   -2.3930 C   0  0  0  0  0  0  0  0  0  0  0  0
   -7.4960    3.5890   -3.3580 F   0  0  0  0  0  0  0  0  0  0  0  0
   -7.2530    1.8340   -1.7700 C   0  0  0  0  0  0  0  0  0  0  0  0
   -5.9270    1.1670   -1.6120 C   0  0  0  0  0  0  0  0  0  0  0  0
   -3.8220    0.0630    0.7000 C   0  0  0  0  0  0  0  0  0  0  0  0
   -1.1200   -1.2220    0.6350 O   0  0  0  0  0  0  0  0  0  0  0  0
    4.2210   -3.3910   -0.2900 C   0  0  0  0  0  0  0  0  0  0  0  0
    4.2330   -3.7620    1.4300 Cl  0  0  0  0  0  0  0  0  0  0  0  0
    5.1850   -4.0010   -1.0640 C   0  0  0  0  0  0  0  0  0  0  0  0
  1  2  1  0
  2  3  2  0
  2 42  1  0
  3  4  1  0
  4  5  2  0
  5  6  1  0
  5 40  1  0
  6  7  1  0
  6 18  1  0
  7  8  1  0
  8  9  1  0
  9 10  1  0
 10 11  2  0
 10 12  1  0
 12 13  1  0
 13 14  1  0
 14 15  1  6
 14 16  1  0
 14 17  1  0
 18 19  1  0
 19 20  2  0
 19 39  1  0
 20 21  1  0
 21 22  2  0
 22 23  1  0
 22 39  1  0
 23 24  2  0
 23 38  1  0
 24 25  1  0
 25 26  2  0
 26 27  1  0
 26 28  1  0
 28 29  1  0
 28 38  2  0
 29 30  1  0
 29 37  1  0
 30 31  1  0
 31 32  2  0
 31 36  1  0
 32 33  1  0
 33 34  1  0
 34 35  1  0
 34 36  2  0
 36 37  1  0
 40 41  1  0
 40 42  2  0
M  END
