
     RDKit          3D

 42 46  0  0  0  0  0  0  0  0999 V2000
    9.4070   -2.7130    2.2580 N   0  0  0  0  0  0  0  0  0  0  0  0
    9.3530   -1.8510    1.2910 C   0  0  0  0  0  0  0  0  0  0  0  0
    8.2210   -1.2220    0.7970 O   0  0  0  0  0  0  0  0  0  0  0  0
    8.5440   -0.3620   -0.2420 C   0  0  0  0  0  0  0  0  0  0  0  0
    7.7530    0.4570   -1.0180 C   0  0  0  0  0  0  0  0  0  0  0  0
    6.3200    0.5110   -0.8010 C   0  0  0  0  0  0  0  0  0  0  0  0
    5.5700   -0.1380    0.0800 N   0  0  0  0  0  0  0  0  0  0  0  0
    4.2320    0.2250   -0.0720 C   0  0  0  0  0  0  0  0  0  0  0  0
    3.1830   -0.2890    0.7830 C   0  0  0  0  0  0  0  0  0  0  0  0
    1.9320   -0.2060    0.8200 C   0  0  0  0  0  0  0  0  0  0  0  0
    0.9340    0.4450    0.0100 C   0  0  0  0  0  0  0  0  0  0  0  0
    1.1150    0.9300   -1.2430 C   0  0  0  0  0  0  0  0  0  0  0  0
    0.0950    1.6160   -1.9080 C   0  0  0  0  0  0  0  0  0  0  0  0
   -1.1390    1.8430   -1.3560 C   0  0  0  0  0  0  0  0  0  0  0  0
   -1.3290    1.3510   -0.0850 C   0  0  0  0  0  0  0  0  0  0  0  0
   -2.6110    1.5410    0.5910 C   0  0  0  0  0  0  0  0  0  0  0  0
   -2.7860    2.5570    1.2880 O   0  0  0  0  0  0  0  0  0  0  0  0
   -3.6120    0.5720    0.4350 N   0  0  0  0  0  0  0  0  0  0  0  0
   -3.4150   -0.6150   -0.3760 C   0  0  0  0  0  0  0  0  0  0  0  0
   -4.7250   -0.8220   -1.1390 C   0  0  0  0  0  0  0  0  0  0  0  0
   -5.8170   -1.0850   -0.2580 N   0  0  0  0  0  0  0  0  0  0  0  0
   -7.0610   -0.5100   -0.7440 C   0  0  0  0  0  0  0  0  0  0  0  0
   -8.1830   -0.7960    0.1890 C   0  0  0  0  0  0  0  0  0  0  0  0
   -8.9100    0.1140    0.8110 C   0  0  0  0  0  0  0  0  0  0  0  0
   -8.7700    1.5720    0.7190 C   0  0  0  0  0  0  0  0  0  0  0  0
   -9.9830    2.0730    0.2270 F   0  0  0  0  0  0  0  0  0  0  0  0
   -8.4780   -2.2680    0.4110 C   0  0  2  0  0  0  0  0  0  0  0  0
   -8.8110   -2.8700   -0.7930 F   0  0  0  0  0  0  0  0  0  0  0  0
   -9.7850   -2.4150    1.6030 Cl  0  0  0  0  0  0  0  0  0  0  0  0
   -5.5230   -0.6850    1.0930 C   0  0  0  0  0  0  0  0  0  0  0  0
   -4.9050    0.7070    1.0810 C   0  0  0  0  0  0  0  0  0  0  0  0
   -0.3370    0.6760    0.5820 C   0  0  0  0  0  0  0  0  0  0  0  0
   -0.6200    0.0700    2.2110 Cl  0  0  0  0  0  0  0  0  0  0  0  0
    4.2910    1.0950   -1.0700 N   0  0  0  0  0  0  0  0  0  0  0  0
    5.4960    1.2590   -1.4900 O   0  0  0  0  0  0  0  0  0  0  0  0
    8.3790    1.2100   -1.9930 C   0  0  0  0  0  0  0  0  0  0  0  0
    9.7170    1.1840   -2.2230 C   0  0  0  0  0  0  0  0  0  0  0  0
   10.4990    0.3620   -1.4420 C   0  0  0  0  0  0  0  0  0  0  0  0
    9.9190   -0.4180   -0.4450 C   0  0  0  0  0  0  0  0  0  0  0  0
   10.5070   -1.3660    0.5180 C   0  0  1  0  0  0  0  0  0  0  0  0
   11.4600   -0.7470    1.3250 F   0  0  0  0  0  0  0  0  0  0  0  0
   11.0800   -2.4180   -0.1810 F   0  0  0  0  0  0  0  0  0  0  0  0
  1  2  2  0
  2  3  1  0
  2 40  1  0
  3  4  1  0
  4  5  2  0
  4 39  1  0
  5  6  1  0
  5 36  1  0
  6  7  2  0
  6 35  1  0
  7  8  1  0
  8  9  1  0
  8 34  2  0
  9 10  2  3
 10 11  1  0
 11 12  2  0
 11 32  1  0
 12 13  1  0
 13 14  2  0
 14 15  1  0
 15 16  1  0
 15 32  2  0
 16 17  2  0
 16 18  1  0
 18 19  1  0
 18 31  1  0
 19 20  1  0
 20 21  1  0
 21 22  1  0
 21 30  1  0
 22 23  1  0
 23 24  2  3
 23 27  1  0
 24 25  1  0
 25 26  1  0
 27 28  1  6
 27 29  1  0
 30 31  1  0
 32 33  1  0
 34 35  1  0
 36 37  2  0
 37 38  1  0
 38 39  2  0
 39 40  1  0
 40 41  1  1
 40 42  1  0
M  END
