
     RDKit          3D

 42 45  0  0  0  0  0  0  0  0999 V2000
    4.2220    1.2370   -3.3130 C   0  0  0  0  0  0  0  0  0  0  0  0
    4.2870    0.6620   -1.9040 C   0  0  0  0  0  0  0  0  0  0  0  0
    3.0010    0.9920   -1.2330 N   0  0  0  0  0  0  0  0  0  0  0  0
    2.9150    2.2330   -0.5390 C   0  0  0  0  0  0  0  0  0  0  0  0
    3.1530    1.9980    0.9390 C   0  0  0  0  0  0  0  0  0  0  0  0
    4.4390    1.4510    1.2620 N   0  0  0  0  0  0  0  0  0  0  0  0
    5.6090    2.2640    1.1660 C   0  0  0  0  0  0  0  0  0  0  0  0
    6.8140    1.7910    1.4180 C   0  0  0  0  0  0  0  0  0  0  0  0
    8.1920    2.9110    1.2580 Cl  0  0  0  0  0  0  0  0  0  0  0  0
    6.9900    0.4790    1.7900 O   0  0  0  0  0  0  0  0  0  0  0  0
    5.9290   -0.3950    1.9150 C   0  0  0  0  0  0  0  0  0  0  0  0
    6.1330   -1.6600    2.2800 C   0  0  0  0  0  0  0  0  0  0  0  0
    5.0910   -2.5210    2.4060 O   0  0  0  0  0  0  0  0  0  0  0  0
    3.7480   -2.1980    2.1560 C   0  0  0  0  0  0  0  0  0  0  0  0
    3.5710   -0.7580    1.7520 C   0  0  0  0  0  0  0  0  0  0  0  0
    4.5790    0.0970    1.6400 C   0  0  0  0  0  0  0  0  0  0  0  0
    2.0070    0.0340   -1.3780 C   0  0  0  0  0  0  0  0  0  0  0  0
    2.4270   -1.0230   -2.0730 O   0  0  0  0  0  0  0  0  0  0  0  0
    0.6620   -0.0400   -0.9330 C   0  0  0  0  0  0  0  0  0  0  0  0
   -0.0730    0.9840   -0.3730 C   0  0  0  0  0  0  0  0  0  0  0  0
   -1.3290    0.8260    0.0480 N   0  0  0  0  0  0  0  0  0  0  0  0
   -1.9810   -0.3220   -0.0320 C   0  0  0  0  0  0  0  0  0  0  0  0
   -3.2970   -0.5090    0.3790 N   0  0  0  0  0  0  0  0  0  0  0  0
   -4.1760    0.4810    0.9540 C   0  0  0  0  0  0  0  0  0  0  0  0
   -3.5560    1.4350    1.6850 C   0  0  0  0  0  0  0  0  0  0  0  0
   -4.1670    2.5660    2.3590 C   0  0  2  0  0  0  0  0  0  0  0  0
   -5.2790    3.0710    1.7090 F   0  0  0  0  0  0  0  0  0  0  0  0
   -3.2330    3.6750    2.2450 F   0  0  0  0  0  0  0  0  0  0  0  0
   -4.3260    2.4070    3.6880 F   0  0  0  0  0  0  0  0  0  0  0  0
   -5.5600    0.2360    0.9880 C   0  0  0  0  0  0  0  0  0  0  0  0
   -6.2580    1.0580    2.5620 Cl  0  0  0  0  0  0  0  0  0  0  0  0
   -6.4850   -0.4410    0.4310 C   0  0  0  0  0  0  0  0  0  0  0  0
   -6.6690   -1.4020   -0.6520 C   0  0  0  0  0  0  0  0  0  0  0  0
   -7.8720   -2.0020   -0.8730 C   0  0  0  0  0  0  0  0  0  0  0  0
   -7.7690   -2.9160   -2.0290 C   0  0  0  0  0  0  0  0  0  0  0  0
   -6.4220   -2.7600   -2.5200 C   0  0  0  0  0  0  0  0  0  0  0  0
   -5.7990   -1.8750   -1.6920 C   0  0  0  0  0  0  0  0  0  0  0  0
   -4.5460   -1.4970   -1.9900 F   0  0  0  0  0  0  0  0  0  0  0  0
   -1.3110   -1.4440   -0.5980 C   0  0  0  0  0  0  0  0  0  0  0  0
   -1.9610   -2.7140   -0.7190 C   0  0  0  0  0  0  0  0  0  0  0  0
   -2.5130   -3.7450   -0.8170 N   0  0  0  0  0  0  0  0  0  0  0  0
   -0.0280   -1.2480   -1.0190 C   0  0  0  0  0  0  0  0  0  0  0  0
  1  2  1  0
  2  3  1  0
  3  4  1  0
  3 17  1  0
  4  5  1  0
  5  6  1  0
  6  7  1  0
  6 16  1  0
  7  8  2  0
  8  9  1  0
  8 10  1  0
 10 11  1  0
 11 12  2  0
 11 16  1  0
 12 13  1  0
 13 14  1  0
 14 15  1  0
 15 16  2  0
 17 18  2  0
 17 19  1  0
 19 20  2  0
 19 42  1  0
 20 21  1  0
 21 22  2  0
 22 23  1  0
 22 39  1  0
 23 24  1  0
 24 25  2  3
 24 30  1  0
 25 26  1  0
 26 27  1  6
 26 28  1  0
 26 29  1  0
 30 31  1  0
 30 32  2  3
 32 33  1  0
 33 34  2  0
 33 37  1  0
 34 35  1  0
 35 36  1  0
 36 37  2  0
 37 38  1  0
 39 40  1  0
 39 42  2  0
 40 41  3  0
M  END
