
     RDKit          3D

 42 46  0  0  0  0  0  0  0  0999 V2000
   -0.6000    1.1580   -3.8460 C   0  0  0  0  0  0  0  0  0  0  0  0
   -0.0540    2.3120   -3.5760 C   0  0  0  0  0  0  0  0  0  0  0  0
    0.4440    2.5710   -2.2110 C   0  0  0  0  0  0  0  0  0  0  0  0
    1.0830    3.9190   -2.0330 C   0  0  0  0  0  0  0  0  0  0  0  0
   -0.2110    5.1230   -2.2010 Cl  0  0  0  0  0  0  0  0  0  0  0  0
    0.3270    1.6960   -1.3470 N   0  0  0  0  0  0  0  0  0  0  0  0
    0.6360    1.5300   -0.0180 C   0  0  0  0  0  0  0  0  0  0  0  0
    0.4670    2.6190    0.7730 C   0  0  0  0  0  0  0  0  0  0  0  0
    1.1930    0.3920    0.6900 C   0  0  0  0  0  0  0  0  0  0  0  0
    2.6000    0.4240    0.8980 C   0  0  0  0  0  0  0  0  0  0  0  0
    3.3460    1.5150    0.2690 C   0  0  2  0  0  0  0  0  0  0  0  0
    3.1080    2.7690    0.7290 F   0  0  0  0  0  0  0  0  0  0  0  0
    3.4570    1.3990   -1.5090 Cl  0  0  0  0  0  0  0  0  0  0  0  0
    3.1390   -0.5450    1.6280 N   0  0  0  0  0  0  0  0  0  0  0  0
    4.5760   -0.5340    1.8880 C   0  0  0  0  0  0  0  0  0  0  0  0
    5.3200   -1.2980    0.8630 C   0  0  0  0  0  0  0  0  0  0  0  0
    6.5400   -1.2900    0.8860 O   0  0  0  0  0  0  0  0  0  0  0  0
    4.5750   -2.0570   -0.1650 C   0  0  0  0  0  0  0  0  0  0  0  0
    5.5660   -2.7590   -1.0760 C   0  0  2  0  0  0  0  0  0  0  0  0
    6.3570   -1.8130   -1.6670 F   0  0  0  0  0  0  0  0  0  0  0  0
    4.8530   -3.5280   -1.9660 F   0  0  0  0  0  0  0  0  0  0  0  0
    6.3570   -3.6400   -0.3370 F   0  0  0  0  0  0  0  0  0  0  0  0
    2.4150   -1.5370    2.1640 C   0  0  0  0  0  0  0  0  0  0  0  0
    2.9920   -2.4480    2.8620 O   0  0  0  0  0  0  0  0  0  0  0  0
    1.0560   -1.6080    1.9860 C   0  0  0  0  0  0  0  0  0  0  0  0
    0.3720   -2.6130    2.5410 N   0  0  0  0  0  0  0  0  0  0  0  0
   -0.9360   -2.6810    2.3720 C   0  0  0  0  0  0  0  0  0  0  0  0
   -1.6290   -1.7300    1.6290 C   0  0  0  0  0  0  0  0  0  0  0  0
   -0.9720   -0.6730    1.0340 C   0  0  0  0  0  0  0  0  0  0  0  0
    0.4190   -0.6140    1.2250 C   0  0  0  0  0  0  0  0  0  0  0  0
   -1.6220    0.3400    0.2130 C   0  0  0  0  0  0  0  0  0  0  0  0
   -3.1220    0.1030    0.1510 C   0  0  0  0  0  0  0  0  0  0  0  0
   -4.0710    0.8600   -0.4970 N   0  0  0  0  0  0  0  0  0  0  0  0
   -5.2760    0.3270   -0.3300 C   0  0  0  0  0  0  0  0  0  0  0  0
   -6.5190    0.7150   -0.7800 C   0  0  0  0  0  0  0  0  0  0  0  0
   -7.6170   -0.0690   -0.4300 C   0  0  0  0  0  0  0  0  0  0  0  0
   -7.4240   -1.2030    0.3510 C   0  0  0  0  0  0  0  0  0  0  0  0
   -6.1630   -1.5490    0.7760 C   0  0  0  0  0  0  0  0  0  0  0  0
   -5.0780   -0.7920    0.4420 C   0  0  0  0  0  0  0  0  0  0  0  0
   -3.7450   -0.9000    0.7200 N   0  0  0  0  0  0  0  0  0  0  0  0
   -3.0610   -1.8700    1.4820 C   0  0  0  0  0  0  0  0  0  0  0  0
   -3.6500   -2.8330    2.0280 O   0  0  0  0  0  0  0  0  0  0  0  0
  1  2  2  0
  2  3  1  0
  3  4  1  0
  3  6  2  3
  4  5  1  0
  6  7  1  0
  7  8  2  0
  7  9  1  0
  9 10  2  0
  9 30  1  0
 10 11  1  0
 10 14  1  0
 11 12  1  6
 11 13  1  0
 14 15  1  0
 14 23  1  0
 15 16  1  0
 16 17  2  0
 16 18  1  0
 18 19  1  0
 19 20  1  6
 19 21  1  0
 19 22  1  0
 23 24  2  0
 23 25  1  0
 25 26  2  0
 25 30  1  0
 26 27  1  0
 27 28  2  0
 28 29  1  0
 28 41  1  0
 29 30  2  0
 29 31  1  0
 31 32  1  0
 32 33  2  0
 32 40  1  0
 33 34  1  0
 34 35  2  0
 34 39  1  0
 35 36  1  0
 36 37  2  0
 37 38  1  0
 38 39  2  0
 39 40  1  0
 40 41  1  0
 41 42  2  0
M  END
