
     RDKit          3D

 41 45  0  0  0  0  0  0  0  0999 V2000
    9.1500   -2.8620    2.8070 C   0  0  0  0  0  0  0  0  0  0  0  0
    8.1100   -2.3860    1.9640 O   0  0  0  0  0  0  0  0  0  0  0  0
    8.2430   -1.2490    1.1730 C   0  0  0  0  0  0  0  0  0  0  0  0
    9.3490   -0.6520    1.2420 O   0  0  0  0  0  0  0  0  0  0  0  0
    7.1930   -0.7840    0.3330 N   0  0  0  0  0  0  0  0  0  0  0  0
    5.9580   -1.5230    0.3130 C   0  0  0  0  0  0  0  0  0  0  0  0
    4.8960   -0.5590    0.8680 C   0  0  0  0  0  0  0  0  0  0  0  0
    4.9170    0.6390   -0.0440 C   0  0  0  0  0  0  0  0  0  0  0  0
    3.7290    1.3180   -0.2590 C   0  0  0  0  0  0  0  0  0  0  0  0
    3.6470    2.4180   -1.0850 C   0  0  0  0  0  0  0  0  0  0  0  0
    2.5410    3.1520   -1.3680 O   0  0  0  0  0  0  0  0  0  0  0  0
    1.2210    3.0560   -0.9810 C   0  0  0  0  0  0  0  0  0  0  0  0
    0.5230    1.8070   -1.3990 C   0  0  0  0  0  0  0  0  0  0  0  0
   -0.8840    1.7880   -0.9570 N   0  0  0  0  0  0  0  0  0  0  0  0
   -1.6350    0.6380   -1.2270 C   0  0  0  0  0  0  0  0  0  0  0  0
   -1.0890   -0.5910   -1.6740 C   0  0  0  0  0  0  0  0  0  0  0  0
   -2.1310   -1.4500   -1.7600 C   0  0  0  0  0  0  0  0  0  0  0  0
   -3.2910   -0.8220   -1.3910 N   0  0  0  0  0  0  0  0  0  0  0  0
   -4.5100   -1.2890   -1.3450 N   0  0  0  0  0  0  0  0  0  0  0  0
   -5.5360   -0.5400   -0.9750 C   0  0  0  0  0  0  0  0  0  0  0  0
   -6.8940   -1.1150   -0.9450 C   0  0  0  0  0  0  0  0  0  0  0  0
   -7.5280   -1.1700    0.3710 C   0  0  0  0  0  0  0  0  0  0  0  0
   -8.4660   -0.1840    0.6730 C   0  0  0  0  0  0  0  0  0  0  0  0
   -9.1170   -0.1930    1.8750 C   0  0  0  0  0  0  0  0  0  0  0  0
   -8.8280   -1.1680    2.7480 N   0  0  0  0  0  0  0  0  0  0  0  0
   -7.9410   -2.1330    2.5100 C   0  0  0  0  0  0  0  0  0  0  0  0
   -7.2660   -2.1410    1.2890 C   0  0  0  0  0  0  0  0  0  0  0  0
   -6.2600   -3.2290    1.1170 C   0  0  0  0  0  0  0  0  0  0  0  0
   -4.6290   -2.7140    1.5580 Cl  0  0  0  0  0  0  0  0  0  0  0  0
   -5.3070    0.7930   -0.6240 C   0  0  0  0  0  0  0  0  0  0  0  0
   -4.0130    1.3250   -0.6630 C   0  0  0  0  0  0  0  0  0  0  0  0
   -3.8050    2.7400   -0.3110 C   0  0  1  0  0  0  0  0  0  0  0  0
   -5.1170    3.2300    0.0190 F   0  0  0  0  0  0  0  0  0  0  0  0
   -3.1100    2.9920    0.8210 F   0  0  0  0  0  0  0  0  0  0  0  0
   -3.3500    3.7490   -1.7170 Cl  0  0  0  0  0  0  0  0  0  0  0  0
   -3.0140    0.4710   -1.0570 C   0  0  0  0  0  0  0  0  0  0  0  0
    4.8400    2.8330   -1.7100 C   0  0  0  0  0  0  0  0  0  0  0  0
    6.0250    2.1870   -1.5190 C   0  0  0  0  0  0  0  0  0  0  0  0
    7.1790    2.6020   -2.1340 F   0  0  0  0  0  0  0  0  0  0  0  0
    6.0560    1.0680   -0.6670 C   0  0  0  0  0  0  0  0  0  0  0  0
    7.3590    0.3830   -0.4780 C   0  0  0  0  0  0  0  0  0  0  0  0
  1  2  1  0
  2  3  1  0
  3  4  2  0
  3  5  1  0
  5  6  1  0
  5 41  1  0
  6  7  1  0
  7  8  1  0
  8  9  2  0
  8 40  1  0
  9 10  1  0
 10 11  1  0
 10 37  2  0
 11 12  1  0
 12 13  1  0
 13 14  1  0
 14 15  1  0
 15 16  1  0
 15 36  2  0
 16 17  2  0
 17 18  1  0
 18 19  1  0
 18 36  1  0
 19 20  2  0
 20 21  1  0
 20 30  1  0
 21 22  1  0
 22 23  2  0
 22 27  1  0
 23 24  1  0
 24 25  2  0
 25 26  1  0
 26 27  2  0
 27 28  1  0
 28 29  1  0
 30 31  2  0
 31 32  1  0
 31 36  1  0
 32 33  1  1
 32 34  1  0
 32 35  1  0
 37 38  1  0
 38 39  1  0
 38 40  2  0
 40 41  1  0
M  END
