
     RDKit          3D

 42 46  0  0  0  0  0  0  0  0999 V2000
    1.6820    2.1660   -0.8250 O   0  0  0  0  0  0  0  0  0  0  0  0
    2.3680    1.2760   -1.4030 C   0  0  0  0  0  0  0  0  0  0  0  0
    2.0060    0.8460   -2.6350 C   0  0  0  0  0  0  0  0  0  0  0  0
    2.7590   -0.1290   -3.2640 C   0  0  0  0  0  0  0  0  0  0  0  0
    2.3910   -0.5650   -4.5140 C   0  0  0  0  0  0  0  0  0  0  0  0
    1.2730   -0.0060   -5.1000 C   0  0  0  0  0  0  0  0  0  0  0  0
    0.5620    0.9610   -4.4260 C   0  0  0  0  0  0  0  0  0  0  0  0
   -0.4490    1.4420   -4.9960 O   0  0  0  0  0  0  0  0  0  0  0  0
    0.9020    1.4100   -3.1920 N   0  0  0  0  0  0  0  0  0  0  0  0
    0.1570    2.4050   -2.5270 C   0  0  0  0  0  0  0  0  0  0  0  0
    0.4670    3.7020   -2.6170 N   0  0  0  0  0  0  0  0  0  0  0  0
   -0.2380    4.6680   -1.9980 C   0  0  0  0  0  0  0  0  0  0  0  0
   -1.3180    4.3490   -1.2400 C   0  0  0  0  0  0  0  0  0  0  0  0
   -1.6890    3.0300   -1.1080 C   0  0  0  0  0  0  0  0  0  0  0  0
   -0.9460    2.0610   -1.7530 C   0  0  0  0  0  0  0  0  0  0  0  0
   -1.2610    0.7400   -1.6590 O   0  0  0  0  0  0  0  0  0  0  0  0
   -2.2910    0.1980   -0.9050 C   0  0  0  0  0  0  0  0  0  0  0  0
   -3.3380   -0.4710   -1.4650 C   0  0  0  0  0  0  0  0  0  0  0  0
   -4.3610   -1.0090   -0.6720 C   0  0  0  0  0  0  0  0  0  0  0  0
   -5.6270   -1.8750   -1.5370 Cl  0  0  0  0  0  0  0  0  0  0  0  0
   -4.3860   -0.9050    0.6930 C   0  0  0  0  0  0  0  0  0  0  0  0
   -5.5130   -1.3400    1.4740 C   0  0  0  0  0  0  0  0  0  0  0  0
   -5.4510   -1.7780    2.6970 C   0  0  0  0  0  0  0  0  0  0  0  0
   -4.2930   -1.9550    3.5490 C   0  0  0  0  0  0  0  0  0  0  0  0
   -4.2820   -3.3010    4.0370 F   0  0  0  0  0  0  0  0  0  0  0  0
   -6.9240   -1.2900    0.9010 C   0  0  1  0  0  0  0  0  0  0  0  0
   -7.8000   -1.1240    2.0040 F   0  0  0  0  0  0  0  0  0  0  0  0
   -7.1260   -0.2430    0.0740 F   0  0  0  0  0  0  0  0  0  0  0  0
   -7.2820   -2.5030    0.3860 F   0  0  0  0  0  0  0  0  0  0  0  0
   -3.3070   -0.2140    1.2660 C   0  0  0  0  0  0  0  0  0  0  0  0
   -2.2990    0.3120    0.4680 C   0  0  0  0  0  0  0  0  0  0  0  0
   -0.9590    1.1390    1.2780 Cl  0  0  0  0  0  0  0  0  0  0  0  0
    3.8340   -0.6200   -2.6240 N   0  0  0  0  0  0  0  0  0  0  0  0
    4.1660   -0.1730   -1.4070 C   0  0  0  0  0  0  0  0  0  0  0  0
    3.4600    0.7570   -0.7900 N   0  0  0  0  0  0  0  0  0  0  0  0
    3.7800    1.2880    0.5340 C   0  0  0  0  0  0  0  0  0  0  0  0
    3.0670    0.4920    1.5910 C   0  0  0  0  0  0  0  0  0  0  0  0
    3.4250   -0.8950    1.6500 N   0  0  0  0  0  0  0  0  0  0  0  0
    4.7740   -0.9900    2.1500 C   0  0  0  0  0  0  0  0  0  0  0  0
    4.8660   -2.3440    2.8110 C   0  0  0  0  0  0  0  0  0  0  0  0
    3.4860   -2.5670    3.3280 C   0  0  0  0  0  0  0  0  0  0  0  0
    2.5910   -1.6690    2.5140 C   0  0  0  0  0  0  0  0  0  0  0  0
  1  2  2  0
  2  3  1  0
  2 35  1  0
  3  4  2  0
  3  9  1  0
  4  5  1  0
  4 33  1  0
  5  6  2  0
  6  7  1  0
  7  8  2  0
  7  9  1  0
  9 10  1  0
 10 11  2  0
 10 15  1  0
 11 12  1  0
 12 13  2  0
 13 14  1  0
 14 15  2  0
 15 16  1  0
 16 17  1  0
 17 18  2  0
 17 31  1  0
 18 19  1  0
 19 20  1  0
 19 21  2  0
 21 22  1  0
 21 30  1  0
 22 23  2  3
 22 26  1  0
 23 24  1  0
 24 25  1  0
 26 27  1  1
 26 28  1  0
 26 29  1  0
 30 31  2  0
 31 32  1  0
 33 34  2  0
 34 35  1  0
 35 36  1  0
 36 37  1  0
 37 38  1  0
 38 39  1  0
 38 42  1  0
 39 40  1  0
 40 41  1  0
 41 42  1  0
M  END
