
     RDKit          3D

 42 48  0  0  0  0  0  0  0  0999 V2000
   -3.1040    2.6440   -0.3630 C   0  0  0  0  0  0  0  0  0  0  0  0
   -3.4450    1.2360   -0.0410 C   0  0  0  0  0  0  0  0  0  0  0  0
   -2.5690    0.3590    0.6800 C   0  0  0  0  0  0  0  0  0  0  0  0
   -1.3120    0.8490    1.1970 C   0  0  0  0  0  0  0  0  0  0  0  0
   -0.0640    0.3890    0.8110 N   0  0  0  0  0  0  0  0  0  0  0  0
    0.9360    1.2470    1.3840 C   0  0  0  0  0  0  0  0  0  0  0  0
    2.3410    1.0860    0.8440 C   0  0  0  0  0  0  0  0  0  0  0  0
    2.5390   -0.2850    0.4320 N   0  0  0  0  0  0  0  0  0  0  0  0
    3.4610   -0.6170   -0.5740 C   0  0  0  0  0  0  0  0  0  0  0  0
    2.9790   -1.3940   -1.5960 N   0  0  0  0  0  0  0  0  0  0  0  0
    3.6290   -1.6490   -2.7200 C   0  0  0  0  0  0  0  0  0  0  0  0
    4.8610   -1.1070   -2.8970 C   0  0  0  0  0  0  0  0  0  0  0  0
    5.3960   -0.3210   -1.9030 C   0  0  0  0  0  0  0  0  0  0  0  0
    4.7240   -0.0820   -0.7500 C   0  0  0  0  0  0  0  0  0  0  0  0
    5.3470    0.6650    0.3760 C   0  0  0  0  0  0  0  0  0  0  0  0
    6.7650    0.7980    0.2580 N   0  0  1  0  0  0  0  0  0  0  0  0
    7.4020   -0.3860   -0.2790 C   0  0  0  0  0  0  0  0  0  0  0  0
    8.7730   -0.5170    0.4220 C   0  0  0  0  0  0  0  0  0  0  0  0
    9.5280    0.7050   -0.1420 C   0  0  0  0  0  0  0  0  0  0  0  0
    8.8550    1.9790    0.2420 C   0  0  0  0  0  0  0  0  0  0  0  0
    7.3580    2.0190   -0.0910 C   0  0  0  0  0  0  0  0  0  0  0  0
    1.6190   -1.2380    0.9970 C   0  0  0  0  0  0  0  0  0  0  0  0
    0.2740   -0.8140    0.2730 C   0  0  0  0  0  0  0  0  0  0  0  0
   -3.2480   -0.7670    0.8660 N   0  0  0  0  0  0  0  0  0  0  0  0
   -3.0930   -1.9170    1.6020 C   0  0  0  0  0  0  0  0  0  0  0  0
   -2.0020   -2.1090    2.1570 O   0  0  0  0  0  0  0  0  0  0  0  0
   -4.0840   -2.7950    1.7160 N   0  0  0  0  0  0  0  0  0  0  0  0
   -3.9900   -3.8280    2.7800 C   0  0  0  0  0  0  0  0  0  0  0  0
   -5.3070   -2.6990    1.1440 C   0  0  0  0  0  0  0  0  0  0  0  0
   -6.2110   -3.5310    1.2370 O   0  0  0  0  0  0  0  0  0  0  0  0
   -5.4770   -1.5320    0.4040 C   0  0  0  0  0  0  0  0  0  0  0  0
   -6.7280   -1.1590   -0.1130 C   0  0  0  0  0  0  0  0  0  0  0  0
   -6.8740    0.0930   -0.6780 C   0  0  0  0  0  0  0  0  0  0  0  0
   -8.2170    0.5400   -0.8730 N   0  0  0  0  0  0  0  0  0  0  0  0
   -9.3630    0.0000   -0.0890 C   0  0  0  0  0  0  0  0  0  0  0  0
  -10.4760    0.1210   -1.0660 C   0  0  0  0  0  0  0  0  0  0  0  0
  -10.2130    1.4320   -1.6400 N   0  0  0  0  0  0  0  0  0  0  0  0
   -8.7740    1.5700   -1.6380 C   0  0  0  0  0  0  0  0  0  0  0  0
   -8.1240    2.4790   -2.2330 O   0  0  0  0  0  0  0  0  0  0  0  0
   -5.8570    1.0070   -0.7880 C   0  0  0  0  0  0  0  0  0  0  0  0
   -4.6190    0.6050   -0.2680 C   0  0  0  0  0  0  0  0  0  0  0  0
   -4.4690   -0.6250    0.2960 C   0  0  0  0  0  0  0  0  0  0  0  0
  1  2  1  0
  2  3  2  0
  2 41  1  0
  3  4  1  0
  3 24  1  0
  4  5  1  0
  5  6  1  0
  5 23  1  0
  6  7  1  0
  7  8  1  0
  8  9  1  0
  8 22  1  0
  9 10  2  0
  9 14  1  0
 10 11  1  0
 11 12  2  0
 12 13  1  0
 13 14  2  0
 14 15  1  0
 16 15  1  6
 16 17  1  0
 16 21  1  0
 17 18  1  0
 18 19  1  0
 19 20  1  0
 20 21  1  0
 22 23  1  0
 24 25  1  0
 24 42  1  0
 25 26  2  0
 25 27  1  0
 27 28  1  0
 27 29  1  0
 29 30  2  0
 29 31  1  0
 31 32  1  0
 31 42  2  0
 32 33  2  0
 33 34  1  0
 33 40  1  0
 34 35  1  0
 34 38  1  0
 35 36  1  0
 36 37  1  0
 37 38  1  0
 38 39  2  0
 40 41  2  0
 41 42  1  0
M  CHG  2  10   1  16   1
M  END
