
     RDKit          3D

 42 46  0  0  0  0  0  0  0  0999 V2000
    0.6720    0.1930    1.5110 C   0  0  0  0  0  0  0  0  0  0  0  0
    1.4100    0.4860    0.2290 C   0  0  1  0  0  0  0  0  0  0  0  0
    2.7760    0.8200    0.4910 N   0  0  0  0  0  0  0  0  0  0  0  0
    3.7400   -0.2290    0.5310 C   0  0  0  0  0  0  0  0  0  0  0  0
    4.8930   -0.0810    1.3100 C   0  0  0  0  0  0  0  0  0  0  0  0
    5.8690   -1.0800    1.3800 C   0  0  0  0  0  0  0  0  0  0  0  0
    7.0730   -0.9040    2.1680 C   0  0  0  0  0  0  0  0  0  0  0  0
    8.2280   -0.2840    1.5500 C   0  0  0  0  0  0  0  0  0  0  0  0
    8.9090   -0.7500    0.3540 C   0  0  0  0  0  0  0  0  0  0  0  0
    8.2150   -0.6960   -0.9500 C   0  0  1  0  0  0  0  0  0  0  0  0
    7.8440    0.6300   -1.2620 F   0  0  0  0  0  0  0  0  0  0  0  0
    9.4450   -1.1310   -2.2260 Cl  0  0  0  0  0  0  0  0  0  0  0  0
    5.5960   -2.2040    0.6270 C   0  0  0  0  0  0  0  0  0  0  0  0
    6.7540   -3.5490    0.6660 Cl  0  0  0  0  0  0  0  0  0  0  0  0
    4.4880   -2.3820   -0.1400 C   0  0  0  0  0  0  0  0  0  0  0  0
    3.5250   -1.3650   -0.1940 C   0  0  0  0  0  0  0  0  0  0  0  0
    2.3250   -1.5410   -1.0240 C   0  0  0  0  0  0  0  0  0  0  0  0
    1.3020   -0.5960   -0.7220 N   0  0  0  0  0  0  0  0  0  0  0  0
   -0.0470   -0.4390   -1.2400 C   0  0  0  0  0  0  0  0  0  0  0  0
   -0.7130   -1.4020   -1.7320 O   0  0  0  0  0  0  0  0  0  0  0  0
   -0.4470    0.9190   -1.0950 N   0  0  0  0  0  0  0  0  0  0  0  0
   -1.7000    1.5070   -1.4900 C   0  0  0  0  0  0  0  0  0  0  0  0
   -2.6490    1.4260   -0.3560 C   0  0  0  0  0  0  0  0  0  0  0  0
   -2.2220    1.6270    0.9080 N   0  0  0  0  0  0  0  0  0  0  0  0
   -3.0780    1.5620    1.9370 C   0  0  0  0  0  0  0  0  0  0  0  0
   -4.4190    1.2920    1.7680 C   0  0  0  0  0  0  0  0  0  0  0  0
   -5.2930    1.2280    2.8230 C   0  0  0  0  0  0  0  0  0  0  0  0
   -6.6370    0.9530    2.6010 C   0  0  0  0  0  0  0  0  0  0  0  0
   -7.0770    0.7470    1.3150 C   0  0  0  0  0  0  0  0  0  0  0  0
   -6.1800    0.8160    0.2640 C   0  0  0  0  0  0  0  0  0  0  0  0
   -6.6330    0.6090   -1.1050 C   0  0  0  0  0  0  0  0  0  0  0  0
   -5.7920    0.6900   -2.0230 O   0  0  0  0  0  0  0  0  0  0  0  0
   -8.0280    0.3190   -1.3630 C   0  0  0  0  0  0  0  0  0  0  0  0
   -8.4660    0.0330   -2.7410 C   0  0  0  0  0  0  0  0  0  0  0  0
   -7.9100   -1.1540   -3.4290 C   0  0  2  0  0  0  0  0  0  0  0  0
   -6.5490   -1.0920   -3.5500 F   0  0  0  0  0  0  0  0  0  0  0  0
   -8.4010   -1.2090   -4.7450 F   0  0  0  0  0  0  0  0  0  0  0  0
   -8.3030   -2.3510   -2.8500 F   0  0  0  0  0  0  0  0  0  0  0  0
   -4.8490    1.0880    0.4850 C   0  0  0  0  0  0  0  0  0  0  0  0
   -3.9570    1.1610   -0.5300 N   0  0  0  0  0  0  0  0  0  0  0  0
    0.6820    1.5710   -0.4820 C   0  0  0  0  0  0  0  0  0  0  0  0
    0.9390    2.7970   -0.5680 O   0  0  0  0  0  0  0  0  0  0  0  0
  2  1  1  1
  2  3  1  0
  2 18  1  0
  2 41  1  0
  3  4  1  0
  4  5  2  0
  4 16  1  0
  5  6  1  0
  6  7  1  0
  6 13  2  0
  7  8  1  0
  8  9  1  0
  9 10  1  0
 10 11  1  6
 10 12  1  0
 13 14  1  0
 13 15  1  0
 15 16  2  0
 16 17  1  0
 17 18  1  0
 18 19  1  0
 19 20  2  0
 19 21  1  0
 21 22  1  0
 21 41  1  0
 22 23  1  0
 23 24  2  0
 23 40  1  0
 24 25  1  0
 25 26  2  0
 26 27  1  0
 26 39  1  0
 27 28  2  0
 28 29  1  0
 29 30  2  0
 30 31  1  0
 30 39  1  0
 31 32  2  0
 31 33  1  0
 33 34  1  0
 34 35  1  0
 35 36  1  6
 35 37  1  0
 35 38  1  0
 39 40  2  0
 41 42  2  0
M  END
