
     RDKit          3D

 45 49  0  0  0  0  0  0  0  0999 V2000
   -5.4690    5.2360    1.1060 C   0  0  0  0  0  0  0  0  0  0  0  0
   -5.6510    4.0720    0.3290 O   0  0  0  0  0  0  0  0  0  0  0  0
   -4.6090    3.4000   -0.2910 C   0  0  0  0  0  0  0  0  0  0  0  0
   -3.9530    2.4230    0.3230 C   0  0  0  0  0  0  0  0  0  0  0  0
   -2.8570    1.6910   -0.2790 C   0  0  0  0  0  0  0  0  0  0  0  0
   -2.2150    0.7410    0.3490 C   0  0  0  0  0  0  0  0  0  0  0  0
   -2.5460    0.3400    1.7030 C   0  0  2  0  0  0  0  0  0  0  0  0
   -1.4540   -0.1280    2.5970 C   0  0  0  0  0  0  0  0  0  0  0  0
   -0.5120   -1.1690    2.2780 C   0  0  2  0  0  0  0  0  0  0  0  0
   -1.1000   -2.4930    1.7650 C   0  0  0  0  0  0  0  0  0  0  0  0
   -1.4140   -2.3320    0.4370 O   0  0  0  0  0  0  0  0  0  0  0  0
   -1.7180   -3.2220   -0.5660 C   0  0  0  0  0  0  0  0  0  0  0  0
   -0.9570   -3.1910   -1.7410 C   0  0  0  0  0  0  0  0  0  0  0  0
   -1.1880   -4.0500   -2.7970 C   0  0  0  0  0  0  0  0  0  0  0  0
   -2.2010   -4.9700   -2.6930 C   0  0  0  0  0  0  0  0  0  0  0  0
   -2.9480   -4.9980   -1.5390 C   0  0  0  0  0  0  0  0  0  0  0  0
   -2.7560   -4.1540   -0.4490 C   0  0  0  0  0  0  0  0  0  0  0  0
   -3.6320   -4.2450    0.7200 C   0  0  0  0  0  0  0  0  0  0  0  0
   -3.8110   -5.4390    1.1390 O   0  0  0  0  0  0  0  0  0  0  0  0
   -4.2290   -3.1990    1.3400 O   0  0  0  0  0  0  0  0  0  0  0  0
   -5.0810   -2.2030    0.9360 C   0  0  0  0  0  0  0  0  0  0  0  0
   -4.3950   -0.8550    0.6470 C   0  0  0  0  0  0  0  0  0  0  0  0
   -3.7710   -0.4260    1.8460 N   0  0  0  0  0  0  0  0  0  0  0  0
    0.1560   -1.5680    3.5440 C   0  0  0  0  0  0  0  0  0  0  0  0
   -0.1230   -1.2170    4.7180 O   0  0  0  0  0  0  0  0  0  0  0  0
    1.1780   -2.4330    3.1310 N   0  0  0  0  0  0  0  0  0  0  0  0
    1.7190   -1.7910    1.9320 C   0  0  1  0  0  0  0  0  0  0  0  0
    2.2430   -2.7840    0.9570 C   0  0  0  0  0  0  0  0  0  0  0  0
    0.6640   -0.8540    1.3840 C   0  0  2  0  0  0  0  0  0  0  0  0
    1.1320    0.5450    1.4910 C   0  0  0  0  0  0  0  0  0  0  0  0
    2.1150    0.9480    0.5640 N   0  0  0  0  0  0  0  0  0  0  0  0
    3.4270    0.6320    0.2770 C   0  0  0  0  0  0  0  0  0  0  0  0
    4.0570   -0.1930    0.9360 O   0  0  0  0  0  0  0  0  0  0  0  0
    4.0830    1.2970   -0.8430 N   0  0  0  0  0  0  0  0  0  0  0  0
    5.4470    0.9420   -1.1090 C   0  0  1  0  0  0  0  0  0  0  0  0
    5.6330    0.4160   -2.5380 C   0  0  0  0  0  0  0  0  0  0  0  0
    7.0990    0.6440   -2.8150 C   0  0  0  0  0  0  0  0  0  0  0  0
    7.6440    1.4960   -1.7040 C   0  0  2  0  0  0  0  0  0  0  0  0
    8.1540    0.6690   -0.6950 O   0  0  0  0  0  0  0  0  0  0  0  0
    9.4640    1.0360   -0.3690 C   0  0  0  0  0  0  0  0  0  0  0  0
    6.3820    2.1300   -1.1280 C   0  0  0  0  0  0  0  0  0  0  0  0
   -2.4290    2.0370   -1.6830 C   0  0  0  0  0  0  0  0  0  0  0  0
   -3.2120    3.1150   -2.2490 C   0  0  0  0  0  0  0  0  0  0  0  0
   -4.2050    3.7530   -1.6470 C   0  0  0  0  0  0  0  0  0  0  0  0
   -4.9550    4.8540   -2.3160 C   0  0  0  0  0  0  0  0  0  0  0  0
  1  2  1  0
  2  3  1  0
  3  4  2  0
  3 44  1  0
  4  5  1  0
  5  6  2  3
  5 42  1  0
  7  6  1  6
  7  8  1  0
  7 23  1  0
  9  8  1  1
  9 10  1  0
  9 24  1  0
  9 29  1  0
 10 11  1  0
 11 12  1  0
 12 13  2  0
 12 17  1  0
 13 14  1  0
 14 15  2  0
 15 16  1  0
 16 17  2  0
 17 18  1  0
 18 19  2  0
 18 20  1  0
 20 21  1  0
 21 22  1  0
 22 23  1  0
 24 25  2  0
 24 26  1  0
 26 27  1  0
 27 28  1  6
 27 29  1  0
 29 30  1  1
 30 31  1  0
 31 32  1  0
 32 33  2  0
 32 34  1  0
 35 34  1  6
 35 36  1  0
 35 41  1  0
 36 37  1  0
 37 38  1  0
 38 39  1  1
 38 41  1  0
 39 40  1  0
 42 43  1  0
 43 44  2  0
 44 45  1  0
M  CHG  1  23   1
M  END
