
     RDKit          3D

 46 51  0  0  0  0  0  0  0  0999 V2000
   -6.7380    3.7790   -1.6750 C   0  0  0  0  0  0  0  0  0  0  0  0
   -7.8040    2.7140   -1.6420 C   0  0  0  0  0  0  0  0  0  0  0  0
   -7.9280    1.9150   -0.6460 C   0  0  0  0  0  0  0  0  0  0  0  0
   -6.7780    2.1110    0.7150 S   0  0  0  0  0  0  0  0  0  0  0  0
   -7.1760    0.8210    1.8680 C   0  0  0  0  0  0  0  0  0  0  0  0
   -8.1790   -0.0250    1.6550 C   0  0  0  0  0  0  0  0  0  0  0  0
   -8.3620   -1.0390    2.7240 C   0  0  0  0  0  0  0  0  0  0  0  0
   -7.9650   -2.3970    2.2760 C   0  0  0  0  0  0  0  0  0  0  0  0
   -6.5400   -2.5060    1.8610 C   0  0  0  0  0  0  0  0  0  0  0  0
   -6.0730   -3.6650    1.5560 O   0  0  0  0  0  0  0  0  0  0  0  0
   -5.6350   -1.4800    1.7600 O   0  0  0  0  0  0  0  0  0  0  0  0
   -4.3200   -1.6550    1.3650 C   0  0  0  0  0  0  0  0  0  0  0  0
   -3.9830   -1.5740    0.0380 C   0  0  0  0  0  0  0  0  0  0  0  0
   -2.6570   -1.7540   -0.3340 C   0  0  0  0  0  0  0  0  0  0  0  0
   -1.6660   -2.0120    0.5920 C   0  0  0  0  0  0  0  0  0  0  0  0
   -2.0020   -2.0950    1.9290 C   0  0  0  0  0  0  0  0  0  0  0  0
   -3.3240   -1.9130    2.2720 C   0  0  0  0  0  0  0  0  0  0  0  0
   -0.8490   -2.3630    2.6900 O   0  0  0  0  0  0  0  0  0  0  0  0
    0.0330   -3.0330    1.8180 C   0  0  0  0  0  0  0  0  0  0  0  0
   -0.2180   -2.2490    0.5160 C   0  0  2  0  0  0  0  0  0  0  0  0
    0.4750   -0.9990    0.6630 N   0  0  0  0  0  0  0  0  0  0  0  0
    1.5570   -0.7430   -0.2510 C   0  0  0  0  0  0  0  0  0  0  0  0
    1.8750   -1.5790   -1.1360 O   0  0  0  0  0  0  0  0  0  0  0  0
    2.3080    0.4620   -0.1880 N   0  0  0  0  0  0  0  0  0  0  0  0
    3.4010    0.6790   -1.1210 C   0  0  2  0  0  0  0  0  0  0  0  0
    4.6830    0.8180   -0.3670 C   0  0  0  0  0  0  0  0  0  0  0  0
    5.3300    2.0420   -0.9110 C   0  0  1  0  0  0  0  0  0  0  0  0
    6.7560    1.8170   -1.2710 C   0  0  0  0  0  0  0  0  0  0  0  0
    7.0950    1.9760   -2.4640 O   0  0  0  0  0  0  0  0  0  0  0  0
    7.7210    1.4460   -0.3830 O   0  0  0  0  0  0  0  0  0  0  0  0
    9.0480    1.2460   -0.7750 C   0  0  1  0  0  0  0  0  0  0  0  0
   10.0030    2.2400   -0.1540 C   0  0  0  0  0  0  0  0  0  0  0  0
   11.2670    1.6200    0.3690 C   0  0  0  0  0  0  0  0  0  0  0  0
   11.0280    0.4470    1.2660 C   0  0  0  0  0  0  0  0  0  0  0  0
   10.0340   -0.5270    0.7240 C   0  0  0  0  0  0  0  0  0  0  0  0
    9.4900   -0.1910   -0.6140 C   0  0  2  0  0  0  0  0  0  0  0  0
   10.4600   -0.5360   -1.7230 C   0  0  0  0  0  0  0  0  0  0  0  0
    4.6060    2.4130   -2.0370 O   0  0  0  0  0  0  0  0  0  0  0  0
    3.2850    1.9280   -1.8920 C   0  0  0  0  0  0  0  0  0  0  0  0
    2.2730    2.4990   -2.3530 O   0  0  0  0  0  0  0  0  0  0  0  0
   -9.0420   -0.0160    0.4980 C   0  0  0  0  0  0  0  0  0  0  0  0
  -10.0760   -0.9300    0.4560 C   0  0  0  0  0  0  0  0  0  0  0  0
  -10.9970   -1.0070   -0.5830 C   0  0  0  0  0  0  0  0  0  0  0  0
  -10.8840   -0.1390   -1.6170 C   0  0  0  0  0  0  0  0  0  0  0  0
   -9.8490    0.7880   -1.5830 C   0  0  0  0  0  0  0  0  0  0  0  0
   -8.9280    0.8780   -0.5620 C   0  0  0  0  0  0  0  0  0  0  0  0
  1  2  1  0
  2  3  2  3
  3  4  1  0
  3 46  1  0
  4  5  1  0
  5  6  2  0
  6  7  1  0
  6 41  1  0
  7  8  1  0
  8  9  1  0
  9 10  2  0
  9 11  1  0
 11 12  1  0
 12 13  2  0
 12 17  1  0
 13 14  1  0
 14 15  2  0
 15 16  1  0
 15 20  1  0
 16 17  2  0
 16 18  1  0
 18 19  1  0
 19 20  1  0
 20 21  1  1
 21 22  1  0
 22 23  2  0
 22 24  1  0
 25 24  1  1
 25 26  1  0
 25 39  1  0
 26 27  1  0
 27 28  1  6
 27 38  1  0
 28 29  2  0
 28 30  1  0
 31 30  1  1
 31 32  1  0
 31 36  1  0
 32 33  1  0
 33 34  1  0
 34 35  1  0
 35 36  1  0
 36 37  1  6
 38 39  1  0
 39 40  2  0
 41 42  2  0
 41 46  1  0
 42 43  1  0
 43 44  2  0
 44 45  1  0
 45 46  2  0
M  END
