
     RDKit          3D

 46 51  0  0  0  0  0  0  0  0999 V2000
    7.5800   -0.3120    5.0520 C   0  0  0  0  0  0  0  0  0  0  0  0
    6.1750   -0.0190    4.8290 C   0  0  0  0  0  0  0  0  0  0  0  0
    5.4360    0.5790    5.5870 O   0  0  0  0  0  0  0  0  0  0  0  0
    5.5580   -0.4940    3.5300 C   0  0  0  0  0  0  0  0  0  0  0  0
    6.2710   -1.2330    2.6900 C   0  0  0  0  0  0  0  0  0  0  0  0
    5.7940   -1.5980    1.4050 C   0  0  0  0  0  0  0  0  0  0  0  0
    4.5520   -1.1630    1.0380 C   0  0  0  0  0  0  0  0  0  0  0  0
    4.1310   -1.3820   -0.3990 C   0  0  1  0  0  0  0  0  0  0  0  0
    2.8930   -0.6830   -0.6770 O   0  0  0  0  0  0  0  0  0  0  0  0
    1.7410   -1.3150   -0.7560 C   0  0  0  0  0  0  0  0  0  0  0  0
    1.6460   -2.5810   -0.4530 O   0  0  0  0  0  0  0  0  0  0  0  0
    0.4490   -0.7430   -1.2030 C   0  0  0  0  0  0  0  0  0  0  0  0
   -0.6450   -0.5500   -1.4080 N   0  0  0  0  0  0  0  0  0  0  0  0
   -1.5960   -0.1250   -2.0100 C   0  0  0  0  0  0  0  0  0  0  0  0
   -2.9210    0.3750   -2.0290 C   0  0  0  0  0  0  0  0  0  0  0  0
   -3.5840    0.3260   -3.1750 O   0  0  0  0  0  0  0  0  0  0  0  0
   -3.5610    0.9550   -0.9210 N   0  0  0  0  0  0  0  0  0  0  0  0
   -2.9320    1.2720    0.2490 C   0  0  0  0  0  0  0  0  0  0  0  0
   -3.2580    0.8900    1.6040 C   0  0  0  0  0  0  0  0  0  0  0  0
   -4.6790    1.0210    2.0400 C   0  0  0  0  0  0  0  0  0  0  0  0
   -5.6960    0.5950    1.0010 C   0  0  1  0  0  0  0  0  0  0  0  0
   -7.0960    0.5450    1.4500 C   0  0  1  0  0  0  0  0  0  0  0  0
   -7.1720   -0.4170    2.7100 C   0  0  0  0  0  0  0  0  0  0  0  0
   -7.6770    1.7100    1.8880 O   0  0  0  0  0  0  0  0  0  0  0  0
   -8.0990   -0.1150    0.5330 C   0  0  2  0  0  0  0  0  0  0  0  0
   -7.7430   -1.6120    0.2940 C   0  0  0  0  0  0  0  0  0  0  0  0
   -8.8900   -1.8730   -0.7100 C   0  0  0  0  0  0  0  0  0  0  0  0
   -8.6520   -0.8080   -1.6090 O   0  0  0  0  0  0  0  0  0  0  0  0
   -8.2810    0.3450   -0.8150 C   0  0  0  0  0  0  0  0  0  0  0  0
   -8.2030    1.4160   -1.4330 O   0  0  0  0  0  0  0  0  0  0  0  0
   -5.6290    1.7830   -0.0040 C   0  0  0  0  0  0  0  0  0  0  0  0
   -4.9930    1.3010   -1.2490 C   0  0  0  0  0  0  0  0  0  0  0  0
   -0.7930    0.5840   -3.2560 C   0  0  0  0  0  0  0  0  0  0  0  0
    0.8290    0.2660   -2.9140 S   0  0  0  0  0  0  0  0  0  0  0  0
    5.1320   -0.6240   -1.2380 C   0  0  0  0  0  0  0  0  0  0  0  0
    5.8030    0.4140   -0.5470 C   0  0  0  0  0  0  0  0  0  0  0  0
    6.6670    1.1980   -1.2520 C   0  0  0  0  0  0  0  0  0  0  0  0
    6.9590    1.0880   -2.5480 C   0  0  0  0  0  0  0  0  0  0  0  0
    7.9120    1.8990   -3.3250 C   0  0  0  0  0  0  0  0  0  0  0  0
    6.3040    0.0590   -3.2760 C   0  0  0  0  0  0  0  0  0  0  0  0
    5.4170   -0.7430   -2.5420 C   0  0  0  0  0  0  0  0  0  0  0  0
    4.8990   -1.6960   -3.4560 O   0  0  0  0  0  0  0  0  0  0  0  0
    5.9160   -1.8700   -4.4380 C   0  0  0  0  0  0  0  0  0  0  0  0
    6.3110   -0.3960   -4.6710 C   0  0  0  0  0  0  0  0  0  0  0  0
    3.8190   -0.4250    1.8800 C   0  0  0  0  0  0  0  0  0  0  0  0
    4.2650   -0.0410    3.1820 C   0  0  0  0  0  0  0  0  0  0  0  0
  1  2  1  0
  2  3  2  0
  2  4  1  0
  4  5  2  0
  4 46  1  0
  5  6  1  0
  6  7  2  0
  7  8  1  0
  7 45  1  0
  8  9  1  1
  8 35  1  0
  9 10  1  0
 10 11  2  0
 10 12  1  0
 12 13  2  0
 12 34  1  0
 13 14  1  0
 14 15  1  0
 14 33  2  0
 15 16  2  0
 15 17  1  0
 17 18  1  0
 17 32  1  0
 18 19  1  0
 19 20  1  0
 21 20  1  1
 21 22  1  0
 21 31  1  0
 22 23  1  1
 22 24  1  0
 22 25  1  0
 25 26  1  6
 25 29  1  0
 26 27  1  0
 27 28  1  0
 28 29  1  0
 29 30  2  0
 31 32  1  0
 33 34  1  0
 35 36  2  0
 35 41  1  0
 36 37  1  0
 37 38  2  0
 38 39  1  0
 38 40  1  0
 40 41  2  0
 40 44  1  0
 41 42  1  0
 42 43  1  0
 43 44  1  0
 45 46  2  0
M  END
