
     RDKit          3D

 46 49  0  0  0  0  0  0  0  0999 V2000
   10.6510   -2.0300   -2.1480 C   0  0  0  0  0  0  0  0  0  0  0  0
    9.4730   -1.6400   -1.7280 C   0  0  0  0  0  0  0  0  0  0  0  0
    8.2750   -2.4930   -1.7790 C   0  0  0  0  0  0  0  0  0  0  0  0
    7.1290   -2.0340   -1.3400 C   0  0  0  0  0  0  0  0  0  0  0  0
    5.8600   -2.7500   -1.3210 C   0  0  0  0  0  0  0  0  0  0  0  0
    4.8020   -2.1030   -0.8380 C   0  0  0  0  0  0  0  0  0  0  0  0
    4.9610   -0.6870   -0.3460 C   0  0  0  0  0  0  0  0  0  0  0  0
    3.6560   -0.1970    0.2420 C   0  0  0  0  0  0  0  0  0  0  0  0
    2.6130   -0.2760   -0.8040 C   0  0  2  0  0  0  0  0  0  0  0  0
    1.3910    0.4900   -0.4420 N   0  0  0  0  0  0  0  0  0  0  0  0
    0.8960    0.0160    0.8500 C   0  0  0  0  0  0  0  0  0  0  0  0
    0.2840   -1.3630    0.8500 C   0  0  0  0  0  0  0  0  0  0  0  0
   -0.4520   -1.5780    2.1180 N   0  0  0  0  0  0  0  0  0  0  0  0
   -1.4350   -2.6310    1.9520 C   0  0  0  0  0  0  0  0  0  0  0  0
   -2.7180   -1.9720    1.5400 C   0  0  2  0  0  0  0  0  0  0  0  0
   -3.4390   -1.8150    2.7530 O   0  0  0  0  0  0  0  0  0  0  0  0
   -3.5520   -2.7490    0.6390 C   0  0  0  0  0  0  0  0  0  0  0  0
   -4.0180   -2.1550   -0.4490 C   0  0  0  0  0  0  0  0  0  0  0  0
   -3.7180   -0.7360   -0.7730 C   0  0  0  0  0  0  0  0  0  0  0  0
   -4.3860    0.1770    0.1160 N   0  0  0  0  0  0  0  0  0  0  0  0
   -5.6430   -0.3100    0.6930 C   0  0  0  0  0  0  0  0  0  0  0  0
   -3.9700    1.4770    0.4810 C   0  0  0  0  0  0  0  0  0  0  0  0
   -4.7220    2.1210    1.2390 O   0  0  0  0  0  0  0  0  0  0  0  0
   -2.7140    2.1280    0.0310 C   0  0  1  0  0  0  0  0  0  0  0  0
   -2.9690    3.3270   -0.8280 C   0  0  0  0  0  0  0  0  0  0  0  0
   -3.7250    4.4460   -0.2130 C   0  0  0  0  0  0  0  0  0  0  0  0
   -1.8590    2.4390    1.1440 N   0  0  0  0  0  0  0  0  0  0  0  0
   -2.2150    1.8700    2.4730 C   0  0  0  0  0  0  0  0  0  0  0  0
   -3.0040    2.8550    3.3070 C   0  0  0  0  0  0  0  0  0  0  0  0
   -0.6680    3.2330    1.0830 C   0  0  0  0  0  0  0  0  0  0  0  0
   -0.1770    3.5900    2.2260 O   0  0  0  0  0  0  0  0  0  0  0  0
    0.1050    3.7230   -0.0610 C   0  0  0  0  0  0  0  0  0  0  0  0
    0.1600    5.1520   -0.1290 C   0  0  0  0  0  0  0  0  0  0  0  0
    0.7500    5.8580   -1.1290 C   0  0  0  0  0  0  0  0  0  0  0  0
    1.3300    5.1340   -2.1380 C   0  0  0  0  0  0  0  0  0  0  0  0
    1.2930    3.7680   -2.0920 C   0  0  0  0  0  0  0  0  0  0  0  0
    0.6920    3.0010   -1.0630 C   0  0  0  0  0  0  0  0  0  0  0  0
    0.8750    1.5500   -1.2090 C   0  0  0  0  0  0  0  0  0  0  0  0
    0.4620    1.0570   -2.3570 O   0  0  0  0  0  0  0  0  0  0  0  0
   -4.8340   -2.8730   -1.3520 O   0  0  0  0  0  0  0  0  0  0  0  0
   -5.5980   -3.9800   -0.9040 C   0  0  0  0  0  0  0  0  0  0  0  0
   -4.8740   -4.7740    0.1370 C   0  0  0  0  0  0  0  0  0  0  0  0
   -3.8930   -4.0720    0.8430 O   0  0  0  0  0  0  0  0  0  0  0  0
    2.5080   -1.6170   -1.3690 C   0  0  2  0  0  0  0  0  0  0  0  0
    1.2880   -2.1210   -1.7370 O   0  0  0  0  0  0  0  0  0  0  0  0
    3.4380   -2.6570   -0.7120 C   0  0  0  0  0  0  0  0  0  0  0  0
  1  2  2  0
  2  3  1  0
  3  4  2  3
  4  5  1  0
  5  6  2  3
  6  7  1  0
  6 46  1  0
  7  8  1  0
  8  9  1  0
  9 10  1  1
  9 44  1  0
 10 11  1  0
 10 38  1  0
 11 12  1  0
 12 13  1  0
 13 14  1  0
 14 15  1  0
 15 16  1  1
 15 17  1  0
 17 18  2  0
 17 43  1  0
 18 19  1  0
 18 40  1  0
 19 20  1  0
 20 21  1  0
 20 22  1  0
 22 23  2  0
 22 24  1  0
 24 25  1  1
 24 27  1  0
 25 26  1  0
 27 28  1  0
 27 30  1  0
 28 29  1  0
 30 31  2  0
 30 32  1  0
 32 33  2  0
 32 37  1  0
 33 34  1  0
 34 35  2  0
 35 36  1  0
 36 37  2  0
 37 38  1  0
 38 39  2  0
 40 41  1  0
 41 42  1  0
 42 43  1  0
 44 45  1  1
 44 46  1  0
M  CHG  1  13   1
M  END
