
     RDKit          3D

 46 49  0  0  0  0  0  0  0  0999 V2000
   -0.6810    3.3220    3.2530 C   0  0  0  0  0  0  0  0  0  0  0  0
   -0.9800    2.2420    2.2040 C   0  0  0  0  0  0  0  0  0  0  0  0
   -1.6980    2.7940    1.0830 N   0  0  0  0  0  0  0  0  0  0  0  0
   -0.9600    3.3260   -0.0240 C   0  0  0  0  0  0  0  0  0  0  0  0
   -0.4960    2.2570   -0.9910 C   0  0  0  0  0  0  0  0  0  0  0  0
    0.2500    1.3160   -0.2550 O   0  0  0  0  0  0  0  0  0  0  0  0
    1.4410    0.7060   -0.5900 C   0  0  0  0  0  0  0  0  0  0  0  0
    2.5380    0.9840    0.2370 C   0  0  0  0  0  0  0  0  0  0  0  0
    3.7980    0.4660    0.0320 C   0  0  0  0  0  0  0  0  0  0  0  0
    3.9620   -0.3670   -1.0490 C   0  0  0  0  0  0  0  0  0  0  0  0
    2.8990   -0.6400   -1.8500 C   0  0  0  0  0  0  0  0  0  0  0  0
    1.6000   -0.1330   -1.6700 C   0  0  0  0  0  0  0  0  0  0  0  0
    0.5710   -0.5630   -2.5580 N   0  0  0  0  0  0  0  0  0  0  0  0
   -0.6180   -1.2990   -2.3360 C   0  0  0  0  0  0  0  0  0  0  0  0
   -1.0660   -2.0420   -3.3490 O   0  0  0  0  0  0  0  0  0  0  0  0
   -1.4600   -1.4030   -1.1840 C   0  0  0  0  0  0  0  0  0  0  0  0
   -1.3240   -2.5480   -0.5350 O   0  0  0  0  0  0  0  0  0  0  0  0
   -2.4020   -0.5420   -0.5970 N   0  0  0  0  0  0  0  0  0  0  0  0
   -3.6340   -0.0450   -1.0700 C   0  0  0  0  0  0  0  0  0  0  0  0
   -4.6840    0.3240   -0.0520 C   0  0  2  0  0  0  0  0  0  0  0  0
   -4.3780   -0.1630    1.3390 C   0  0  0  0  0  0  0  0  0  0  0  0
   -5.4450    0.1950    2.3470 C   0  0  0  0  0  0  0  0  0  0  0  0
   -5.8720   -0.4700   -0.4530 N   0  0  1  0  0  0  0  0  0  0  0  0
   -6.5590    0.0500   -1.5790 C   0  0  0  0  0  0  0  0  0  0  0  0
   -7.5280   -0.9260   -2.1700 C   0  0  0  0  0  0  0  0  0  0  0  0
   -8.3520   -1.7030   -1.2070 C   0  0  0  0  0  0  0  0  0  0  0  0
   -7.6940   -2.9990   -0.7810 C   0  0  0  0  0  0  0  0  0  0  0  0
   -6.4220   -2.7530   -0.0080 C   0  0  0  0  0  0  0  0  0  0  0  0
   -5.4720   -1.8330   -0.7430 C   0  0  0  0  0  0  0  0  0  0  0  0
   -5.0690    1.7570   -0.1430 C   0  0  0  0  0  0  0  0  0  0  0  0
   -4.0460    2.7950    0.0250 C   0  0  0  0  0  0  0  0  0  0  0  0
   -3.1390    2.8040    1.1420 C   0  0  0  0  0  0  0  0  0  0  0  0
   -3.5890    2.8240    2.3250 O   0  0  0  0  0  0  0  0  0  0  0  0
    5.3270   -0.9390   -1.2890 C   0  0  0  0  0  0  0  0  0  0  0  0
    5.8810   -1.4220   -0.1220 O   0  0  0  0  0  0  0  0  0  0  0  0
    7.1640   -1.8810   -0.3580 C   0  0  2  0  0  0  0  0  0  0  0  0
    7.3170   -3.3290    0.0830 C   0  0  1  0  0  0  0  0  0  0  0  0
    7.0350   -3.4700    1.5700 C   0  0  0  0  0  0  0  0  0  0  0  0
    6.3990   -4.0540   -0.6730 O   0  0  0  0  0  0  0  0  0  0  0  0
    8.1920   -1.0680    0.4380 C   0  0  0  0  0  0  0  0  0  0  0  0
    8.8080   -0.0420   -0.4240 C   0  0  0  0  0  0  0  0  0  0  0  0
    8.8520    1.2330   -0.1020 C   0  0  0  0  0  0  0  0  0  0  0  0
    8.2760    1.7030    1.1610 C   0  0  0  0  0  0  0  0  0  0  0  0
    6.8090    2.0720    1.0610 C   0  0  0  0  0  0  0  0  0  0  0  0
    6.0760    1.1700    0.2850 O   0  0  0  0  0  0  0  0  0  0  0  0
    4.9140    0.8010    0.9480 C   0  0  0  0  0  0  0  0  0  0  0  0
  1  2  1  0
  2  3  1  0
  3  4  1  0
  3 32  1  0
  4  5  1  0
  5  6  1  0
  6  7  1  0
  7  8  2  0
  7 12  1  0
  8  9  1  0
  9 10  2  0
  9 46  1  0
 10 11  1  0
 10 34  1  0
 11 12  2  0
 12 13  1  0
 13 14  1  0
 14 15  2  0
 14 16  1  0
 16 17  2  0
 16 18  1  0
 18 19  1  0
 19 20  1  0
 20 21  1  1
 20 23  1  0
 20 30  1  0
 21 22  1  0
 23 24  1  6
 23 29  1  0
 24 25  1  0
 25 26  1  0
 26 27  1  0
 27 28  1  0
 28 29  1  0
 30 31  1  0
 31 32  1  0
 32 33  2  0
 34 35  1  0
 35 36  1  0
 36 37  1  0
 36 40  1  1
 37 38  1  1
 37 39  1  0
 40 41  1  0
 41 42  2  0
 42 43  1  0
 43 44  1  0
 44 45  1  0
 45 46  1  0
M  CHG  1  23   1
M  END
