
     RDKit          3D

 46 51  0  0  0  0  0  0  0  0999 V2000
   -6.4720   -4.3860   -1.9080 C   0  0  0  0  0  0  0  0  0  0  0  0
   -7.0850   -3.0690   -2.2740 C   0  0  0  0  0  0  0  0  0  0  0  0
   -6.8920   -2.0810   -1.2790 O   0  0  0  0  0  0  0  0  0  0  0  0
   -5.6470   -1.6560   -0.8650 C   0  0  0  0  0  0  0  0  0  0  0  0
   -4.6360   -2.1930   -1.4190 O   0  0  0  0  0  0  0  0  0  0  0  0
   -5.4350   -0.6270    0.1710 C   0  0  0  0  0  0  0  0  0  0  0  0
   -3.9430   -0.3750    0.3980 C   0  0  0  0  0  0  0  0  0  0  0  0
   -3.8670    0.6860    1.4700 C   0  0  2  0  0  0  0  0  0  0  0  0
   -2.4480    1.0750    1.8320 C   0  0  0  0  0  0  0  0  0  0  0  0
   -1.6630    1.6070    0.7430 C   0  0  0  0  0  0  0  0  0  0  0  0
   -1.8170    2.8430    0.4080 O   0  0  0  0  0  0  0  0  0  0  0  0
   -0.7240    0.8720    0.0010 N   0  0  0  0  0  0  0  0  0  0  0  0
    0.0220    1.5630   -1.0840 C   0  0  0  0  0  0  0  0  0  0  0  0
    1.2370    2.2180   -0.5940 C   0  0  0  0  0  0  0  0  0  0  0  0
    1.4250    2.4510    0.7410 C   0  0  0  0  0  0  0  0  0  0  0  0
    2.5580    3.0620    1.2170 C   0  0  0  0  0  0  0  0  0  0  0  0
    3.5530    3.4660    0.3640 C   0  0  0  0  0  0  0  0  0  0  0  0
    4.6940    4.0850    0.8560 C   0  0  0  0  0  0  0  0  0  0  0  0
    5.6910    4.4890   -0.0170 C   0  0  0  0  0  0  0  0  0  0  0  0
    5.5390    4.2740   -1.3520 C   0  0  0  0  0  0  0  0  0  0  0  0
    4.3860    3.6500   -1.8380 C   0  0  0  0  0  0  0  0  0  0  0  0
    4.2780    3.4440   -3.3040 C   0  0  0  0  0  0  0  0  0  0  0  0
    3.3890    3.2430   -0.9930 C   0  0  0  0  0  0  0  0  0  0  0  0
    2.2310    2.6200   -1.4570 C   0  0  0  0  0  0  0  0  0  0  0  0
   -0.4910   -0.5140    0.2460 C   0  0  1  0  0  0  0  0  0  0  0  0
   -0.9440   -1.3220   -0.9390 C   0  0  0  0  0  0  0  0  0  0  0  0
    0.6800   -1.6370   -1.7440 S   0  0  0  0  0  0  0  0  0  0  0  0
    1.6420   -1.4890   -0.2530 C   0  0  0  0  0  0  0  0  0  0  0  0
    0.8530   -0.8930    0.6580 C   0  0  0  0  0  0  0  0  0  0  0  0
    1.4220   -0.6970    1.9260 C   0  0  0  0  0  0  0  0  0  0  0  0
    2.7050   -1.0840    2.2340 C   0  0  0  0  0  0  0  0  0  0  0  0
    3.4850   -1.6860    1.2900 C   0  0  0  0  0  0  0  0  0  0  0  0
    2.9210   -1.8850    0.0190 C   0  0  0  0  0  0  0  0  0  0  0  0
    3.5530   -2.4760   -1.0620 O   0  0  0  0  0  0  0  0  0  0  0  0
    4.7390   -3.2500   -1.0960 C   0  0  1  0  0  0  0  0  0  0  0  0
    5.9260   -2.3810   -1.4390 C   0  0  0  0  0  0  0  0  0  0  0  0
    4.8960   -3.9510    0.2140 C   0  0  0  0  0  0  0  0  0  0  0  0
    5.5870   -3.1100    1.2640 C   0  0  0  0  0  0  0  0  0  0  0  0
    4.7690   -2.0400    1.7000 O   0  0  0  0  0  0  0  0  0  0  0  0
   -4.4110    0.0760    2.6930 N   0  0  0  0  0  0  0  0  0  0  0  0
   -5.2220    0.8060    3.5750 C   0  0  0  0  0  0  0  0  0  0  0  0
   -5.1720    0.5440    4.7940 O   0  0  0  0  0  0  0  0  0  0  0  0
   -6.1060    1.8600    3.0200 C   0  0  0  0  0  0  0  0  0  0  0  0
   -5.6650    2.3990    1.8140 O   0  0  0  0  0  0  0  0  0  0  0  0
   -4.6710    1.8360    1.0400 C   0  0  0  0  0  0  0  0  0  0  0  0
   -4.4480    2.3400   -0.0890 O   0  0  0  0  0  0  0  0  0  0  0  0
  1  2  1  0
  2  3  1  0
  3  4  1  0
  4  5  2  0
  4  6  1  0
  6  7  1  0
  8  7  1  6
  8  9  1  0
  8 40  1  0
  8 45  1  0
  9 10  1  0
 10 11  2  0
 10 12  1  0
 12 13  1  0
 25 12  1  6
 13 14  1  0
 14 15  2  0
 14 24  1  0
 15 16  1  0
 16 17  2  0
 17 18  1  0
 17 23  1  0
 18 19  2  0
 19 20  1  0
 20 21  2  0
 21 22  1  0
 21 23  1  0
 23 24  2  0
 25 26  1  0
 25 29  1  0
 26 27  1  0
 27 28  1  0
 28 29  2  0
 28 33  1  0
 29 30  1  0
 30 31  2  0
 31 32  1  0
 32 33  2  0
 32 39  1  0
 33 34  1  0
 34 35  1  0
 35 36  1  1
 35 37  1  0
 37 38  1  0
 38 39  1  0
 40 41  1  0
 41 42  2  0
 41 43  1  0
 43 44  1  0
 44 45  1  0
 45 46  2  0
M  END
