
     RDKit          3D

 46 49  0  0  0  0  0  0  0  0999 V2000
    5.1750    4.2930    1.5040 C   0  0  0  0  0  0  0  0  0  0  0  0
    6.5370    3.7110    1.3520 C   0  0  0  0  0  0  0  0  0  0  0  0
    7.6460    4.2740    1.9760 C   0  0  0  0  0  0  0  0  0  0  0  0
    8.9180    3.7570    1.8550 C   0  0  0  0  0  0  0  0  0  0  0  0
    9.0810    2.6300    1.0770 C   0  0  0  0  0  0  0  0  0  0  0  0
    7.9800    2.0580    0.4480 C   0  0  0  0  0  0  0  0  0  0  0  0
    8.1550    0.8550   -0.3750 C   0  0  0  0  0  0  0  0  0  0  0  0
    6.7160    2.5860    0.5780 C   0  0  0  0  0  0  0  0  0  0  0  0
    5.6470    1.9980   -0.0560 O   0  0  0  0  0  0  0  0  0  0  0  0
    4.8130    0.9990    0.4350 C   0  0  0  0  0  0  0  0  0  0  0  0
    3.7960    0.7120   -0.6390 C   0  0  0  0  0  0  0  0  0  0  0  0
    3.8200    1.3440   -1.7500 O   0  0  0  0  0  0  0  0  0  0  0  0
    2.7700   -0.2570   -0.4900 N   0  0  0  0  0  0  0  0  0  0  0  0
    1.7880   -0.5470   -1.4930 C   0  0  1  0  0  0  0  0  0  0  0  0
    1.9070   -1.8720   -2.1560 C   0  0  0  0  0  0  0  0  0  0  0  0
    1.8150   -3.0630   -1.2980 C   0  0  0  0  0  0  0  0  0  0  0  0
    0.6510   -3.7610   -1.0600 C   0  0  0  0  0  0  0  0  0  0  0  0
    0.6140   -4.8730   -0.2570 C   0  0  0  0  0  0  0  0  0  0  0  0
    1.7390   -5.3650    0.3630 C   0  0  0  0  0  0  0  0  0  0  0  0
    2.9280   -4.6870    0.1450 C   0  0  0  0  0  0  0  0  0  0  0  0
    2.9460   -3.5840   -0.6560 C   0  0  0  0  0  0  0  0  0  0  0  0
    0.3900   -0.1180   -1.1200 C   0  0  1  0  0  0  0  0  0  0  0  0
   -0.4340   -0.5020   -2.1490 O   0  0  0  0  0  0  0  0  0  0  0  0
   -0.0460   -0.4810    0.2490 C   0  0  0  0  0  0  0  0  0  0  0  0
   -1.4130   -0.0590    0.6420 C   0  0  2  0  0  0  0  0  0  0  0  0
   -1.7390   -0.5150    2.0690 C   0  0  0  0  0  0  0  0  0  0  0  0
   -1.6920   -1.9550    2.2720 C   0  0  0  0  0  0  0  0  0  0  0  0
   -2.7800   -2.7830    2.0920 C   0  0  0  0  0  0  0  0  0  0  0  0
   -2.7110   -4.1480    2.3000 C   0  0  0  0  0  0  0  0  0  0  0  0
   -1.5300   -4.7310    2.7010 C   0  0  0  0  0  0  0  0  0  0  0  0
   -0.4260   -3.9380    2.8890 C   0  0  0  0  0  0  0  0  0  0  0  0
   -0.5250   -2.5680    2.6720 C   0  0  0  0  0  0  0  0  0  0  0  0
   -2.4810   -0.3300   -0.2630 N   0  0  0  0  0  0  0  0  0  0  0  0
   -3.5440    0.5950   -0.4620 C   0  0  0  0  0  0  0  0  0  0  0  0
   -3.4410    1.6660    0.2460 O   0  0  0  0  0  0  0  0  0  0  0  0
   -4.6960    0.4490   -1.3480 C   0  0  2  0  0  0  0  0  0  0  0  0
   -4.4790    0.8920   -2.7740 C   0  0  2  0  0  0  0  0  0  0  0  0
   -3.3990    0.0950   -3.4590 C   0  0  0  0  0  0  0  0  0  0  0  0
   -4.1920    2.3740   -2.9160 C   0  0  0  0  0  0  0  0  0  0  0  0
   -5.8850    1.1110   -0.8370 N   0  0  0  0  0  0  0  0  0  0  0  0
   -6.0350    2.4730   -0.4710 C   0  0  0  0  0  0  0  0  0  0  0  0
   -7.3450    2.9890   -1.0850 C   0  0  0  0  0  0  0  0  0  0  0  0
   -8.5290    2.3120   -0.4250 C   0  0  0  0  0  0  0  0  0  0  0  0
   -8.2320    0.9080   -0.2120 N   0  0  0  0  0  0  0  0  0  0  0  0
   -7.0450    0.2740   -0.6430 C   0  0  0  0  0  0  0  0  0  0  0  0
   -7.0310   -0.9620   -0.8390 O   0  0  0  0  0  0  0  0  0  0  0  0
  1  2  1  0
  2  3  2  0
  2  8  1  0
  3  4  1  0
  4  5  2  0
  5  6  1  0
  6  7  1  0
  6  8  2  0
  8  9  1  0
  9 10  1  0
 10 11  1  0
 11 12  2  0
 11 13  1  0
 13 14  1  0
 14 15  1  1
 14 22  1  0
 15 16  1  0
 16 17  2  0
 16 21  1  0
 17 18  1  0
 18 19  2  0
 19 20  1  0
 20 21  2  0
 22 23  1  6
 22 24  1  0
 25 24  1  6
 25 26  1  0
 25 33  1  0
 26 27  1  0
 27 28  2  0
 27 32  1  0
 28 29  1  0
 29 30  2  0
 30 31  1  0
 31 32  2  0
 33 34  1  0
 34 35  2  0
 34 36  1  0
 36 37  1  0
 36 40  1  1
 37 38  1  1
 37 39  1  0
 40 41  1  0
 40 45  1  0
 41 42  1  0
 42 43  1  0
 43 44  1  0
 44 45  1  0
 45 46  2  0
M  END
