
     RDKit          3D

 46 51  0  0  0  0  0  0  0  0999 V2000
   -9.4080    3.4160    3.1210 C   0  0  0  0  0  0  0  0  0  0  0  0
   -8.7140    2.1730    2.8070 C   0  0  0  0  0  0  0  0  0  0  0  0
   -8.4310    1.5000    1.7440 C   0  0  0  0  0  0  0  0  0  0  0  0
   -7.5000   -0.0390    2.0810 S   0  0  0  0  0  0  0  0  0  0  0  0
   -7.5320   -0.9760    0.5710 C   0  0  0  0  0  0  0  0  0  0  0  0
   -7.9480   -0.4720   -0.5610 C   0  0  0  0  0  0  0  0  0  0  0  0
   -7.9170   -1.3470   -1.7660 C   0  0  0  0  0  0  0  0  0  0  0  0
   -7.2940   -2.6860   -1.5710 C   0  0  0  0  0  0  0  0  0  0  0  0
   -5.8600   -2.5710   -1.2300 C   0  0  0  0  0  0  0  0  0  0  0  0
   -5.3430   -1.4370   -1.1530 O   0  0  0  0  0  0  0  0  0  0  0  0
   -5.0640   -3.6780   -0.9940 O   0  0  0  0  0  0  0  0  0  0  0  0
   -3.7180   -3.6120   -0.6770 C   0  0  0  0  0  0  0  0  0  0  0  0
   -2.7470   -3.3910   -1.6590 C   0  0  0  0  0  0  0  0  0  0  0  0
   -1.4050   -3.3220   -1.3920 C   0  0  0  0  0  0  0  0  0  0  0  0
   -0.9920   -3.4800   -0.0770 C   0  0  0  0  0  0  0  0  0  0  0  0
   -1.8950   -3.6980    0.9340 C   0  0  0  0  0  0  0  0  0  0  0  0
   -3.2440   -3.7590    0.6080 C   0  0  0  0  0  0  0  0  0  0  0  0
   -1.2430   -3.8200    2.1420 O   0  0  0  0  0  0  0  0  0  0  0  0
    0.1520   -3.8210    1.9740 C   0  0  0  0  0  0  0  0  0  0  0  0
    0.3530   -3.4810    0.5260 C   0  0  2  0  0  0  0  0  0  0  0  0
    0.9540   -2.1820    0.3870 N   0  0  0  0  0  0  0  0  0  0  0  0
    1.9770   -1.9650   -0.5500 C   0  0  0  0  0  0  0  0  0  0  0  0
    2.4050   -2.8710   -1.3320 O   0  0  0  0  0  0  0  0  0  0  0  0
    2.5710   -0.6870   -0.6410 N   0  0  0  0  0  0  0  0  0  0  0  0
    3.6170   -0.3520   -1.5890 C   0  0  2  0  0  0  0  0  0  0  0  0
    4.9660   -0.1210   -0.9280 C   0  0  0  0  0  0  0  0  0  0  0  0
    4.8710    1.2930   -0.4640 C   0  0  1  0  0  0  0  0  0  0  0  0
    6.2160    1.8980   -0.3710 C   0  0  0  0  0  0  0  0  0  0  0  0
    6.4510    2.9600   -1.0470 O   0  0  0  0  0  0  0  0  0  0  0  0
    7.2420    1.4040    0.3890 O   0  0  0  0  0  0  0  0  0  0  0  0
    8.4860    2.0330    0.4290 C   0  0  1  0  0  0  0  0  0  0  0  0
    8.8680    2.4740    1.8270 C   0  0  0  0  0  0  0  0  0  0  0  0
    9.6880    1.4180    2.5530 C   0  0  0  0  0  0  0  0  0  0  0  0
   10.9880    1.1500    1.8120 C   0  0  0  0  0  0  0  0  0  0  0  0
   10.9060    1.6670    0.3880 C   0  0  0  0  0  0  0  0  0  0  0  0
    9.5900    1.1970   -0.2040 C   0  0  2  0  0  0  0  0  0  0  0  0
    9.5840    1.5170   -1.7040 C   0  0  0  0  0  0  0  0  0  0  0  0
    4.0320    1.9340   -1.4010 O   0  0  0  0  0  0  0  0  0  0  0  0
    3.2990    0.9860   -2.1130 C   0  0  0  0  0  0  0  0  0  0  0  0
    2.5090    1.2680   -3.0420 O   0  0  0  0  0  0  0  0  0  0  0  0
   -8.5490    0.8780   -0.6880 C   0  0  0  0  0  0  0  0  0  0  0  0
   -8.9110    1.2720   -1.9710 C   0  0  0  0  0  0  0  0  0  0  0  0
   -9.4670    2.5000   -2.2570 C   0  0  0  0  0  0  0  0  0  0  0  0
   -9.6570    3.3460   -1.2150 C   0  0  0  0  0  0  0  0  0  0  0  0
   -9.3030    2.9700    0.0730 C   0  0  0  0  0  0  0  0  0  0  0  0
   -8.7400    1.7220    0.3600 C   0  0  0  0  0  0  0  0  0  0  0  0
  1  2  1  0
  2  3  2  3
  3  4  1  0
  3 46  1  0
  4  5  1  0
  5  6  2  0
  6  7  1  0
  6 41  1  0
  7  8  1  0
  8  9  1  0
  9 10  2  0
  9 11  1  0
 11 12  1  0
 12 13  2  0
 12 17  1  0
 13 14  1  0
 14 15  2  0
 15 16  1  0
 15 20  1  0
 16 17  2  0
 16 18  1  0
 18 19  1  0
 19 20  1  0
 20 21  1  1
 21 22  1  0
 22 23  2  0
 22 24  1  0
 25 24  1  1
 25 26  1  0
 25 39  1  0
 26 27  1  0
 27 28  1  6
 27 38  1  0
 28 29  2  0
 28 30  1  0
 31 30  1  1
 31 32  1  0
 31 36  1  0
 32 33  1  0
 33 34  1  0
 34 35  1  0
 35 36  1  0
 36 37  1  6
 38 39  1  0
 39 40  2  0
 41 42  2  0
 41 46  1  0
 42 43  1  0
 43 44  2  0
 44 45  1  0
 45 46  2  0
M  END
