
     RDKit          3D

 46 49  0  0  0  0  0  0  0  0999 V2000
    0.2800    6.9660    0.4000 C   0  0  0  0  0  0  0  0  0  0  0  0
   -0.8120    5.9120    0.4010 C   0  0  0  0  0  0  0  0  0  0  0  0
   -0.2390    4.5260    0.6020 C   0  0  2  0  0  0  0  0  0  0  0  0
    0.7340    4.1920   -0.5100 C   0  0  0  0  0  0  0  0  0  0  0  0
    2.1260    4.0210    0.0050 C   0  0  0  0  0  0  0  0  0  0  0  0
    3.1290    4.3850   -0.9270 O   0  0  0  0  0  0  0  0  0  0  0  0
    4.1860    3.5440   -1.2630 C   0  0  0  0  0  0  0  0  0  0  0  0
    5.1660    4.2770   -1.7590 O   0  0  0  0  0  0  0  0  0  0  0  0
    4.3500    2.0930   -1.1480 C   0  0  0  0  0  0  0  0  0  0  0  0
    5.6680    1.8200   -0.6910 C   0  0  0  0  0  0  0  0  0  0  0  0
    6.1490    0.5590   -0.4750 C   0  0  0  0  0  0  0  0  0  0  0  0
    5.2690   -0.4570   -0.7290 C   0  0  0  0  0  0  0  0  0  0  0  0
    5.7530   -1.7720   -0.5120 O   0  0  0  0  0  0  0  0  0  0  0  0
    7.0190   -2.0910   -0.0600 C   0  0  1  0  0  0  0  0  0  0  0  0
    8.1330   -1.7090   -0.9740 C   0  0  0  0  0  0  0  0  0  0  0  0
    7.3110   -1.5860    1.3410 C   0  0  0  0  0  0  0  0  0  0  0  0
    3.9390   -0.2440   -1.1870 C   0  0  0  0  0  0  0  0  0  0  0  0
    3.4920    1.0450   -1.3940 C   0  0  0  0  0  0  0  0  0  0  0  0
    3.2990   -1.5090   -1.3500 N   0  0  0  0  0  0  0  0  0  0  0  0
    1.9820   -1.9640   -1.0180 C   0  0  0  0  0  0  0  0  0  0  0  0
    1.3670   -2.6180   -1.9300 O   0  0  0  0  0  0  0  0  0  0  0  0
    1.3300   -1.7090    0.3090 C   0  0  2  0  0  0  0  0  0  0  0  0
    2.0220   -2.4850    1.4060 C   0  0  0  0  0  0  0  0  0  0  0  0
    1.1180   -3.6680    1.6760 C   0  0  0  0  0  0  0  0  0  0  0  0
    0.0940   -3.5400    0.5980 C   0  0  1  0  0  0  0  0  0  0  0  0
   -1.2210   -4.1760    0.8830 C   0  0  0  0  0  0  0  0  0  0  0  0
   -1.7660   -4.8510   -0.3110 N   0  0  0  0  0  0  0  0  0  0  0  0
   -0.8600   -5.8180   -0.9000 C   0  0  0  0  0  0  0  0  0  0  0  0
   -3.0630   -4.5430   -0.8000 C   0  0  0  0  0  0  0  0  0  0  0  0
   -3.3360   -5.3410   -1.8130 O   0  0  0  0  0  0  0  0  0  0  0  0
   -4.0540   -3.5520   -0.3730 C   0  0  0  0  0  0  0  0  0  0  0  0
   -5.3500   -4.1350   -0.4520 C   0  0  0  0  0  0  0  0  0  0  0  0
   -6.5040   -3.4910   -0.1290 C   0  0  0  0  0  0  0  0  0  0  0  0
   -6.3520   -2.1960    0.2960 C   0  0  0  0  0  0  0  0  0  0  0  0
   -7.6150   -1.4490    0.6630 C   0  0  0  0  0  0  0  0  0  0  0  0
   -5.0870   -1.5660    0.3930 C   0  0  0  0  0  0  0  0  0  0  0  0
   -3.9340   -2.2500    0.0560 C   0  0  0  0  0  0  0  0  0  0  0  0
   -5.2490   -0.1620    0.8870 C   0  0  0  0  0  0  0  0  0  0  0  0
   -5.1630    0.7830   -0.3220 C   0  0  0  0  0  0  0  0  0  0  0  0
   -5.3790    2.1500    0.0850 N   0  0  0  0  0  0  0  0  0  0  0  0
   -4.1390    2.8760   -0.0730 C   0  0  0  0  0  0  0  0  0  0  0  0
   -3.8370    3.7600    1.0720 C   0  0  0  0  0  0  0  0  0  0  0  0
   -4.8010    4.2380    1.7180 O   0  0  0  0  0  0  0  0  0  0  0  0
   -2.4710    4.0250    1.3850 N   0  0  0  0  0  0  0  0  0  0  0  0
   -1.3770    3.5410    0.5960 C   0  0  0  0  0  0  0  0  0  0  0  0
    0.0330   -2.1990    0.2400 O   0  0  0  0  0  0  0  0  0  0  0  0
  1  2  1  0
  3  2  1  6
  3  4  1  0
  3 45  1  0
  4  5  1  0
  5  6  1  0
  6  7  1  0
  7  8  2  0
  7  9  1  0
  9 10  1  0
  9 18  2  0
 10 11  2  0
 11 12  1  0
 12 13  1  0
 12 17  2  0
 13 14  1  0
 14 15  1  6
 14 16  1  0
 17 18  1  0
 17 19  1  0
 19 20  1  0
 20 21  2  0
 20 22  1  0
 22 23  1  1
 22 46  1  0
 23 24  1  0
 25 24  1  1
 25 26  1  0
 25 46  1  0
 26 27  1  0
 27 28  1  0
 27 29  1  0
 29 30  2  0
 29 31  1  0
 31 32  1  0
 31 37  2  0
 32 33  2  0
 33 34  1  0
 34 35  1  0
 34 36  2  0
 36 37  1  0
 36 38  1  0
 38 39  1  0
 39 40  1  0
 40 41  1  0
 41 42  1  0
 42 43  2  0
 42 44  1  0
 44 45  1  0
M  CHG  1  40   1
M  END
