
     RDKit          3D

 45 49  0  0  0  0  0  0  0  0999 V2000
   -5.7480   -4.0650    4.6160 C   0  0  0  0  0  0  0  0  0  0  0  0
   -4.4770   -4.1090    3.9930 O   0  0  0  0  0  0  0  0  0  0  0  0
   -4.1970   -3.5270    2.7840 C   0  0  0  0  0  0  0  0  0  0  0  0
   -3.7820   -2.2720    2.7260 C   0  0  0  0  0  0  0  0  0  0  0  0
   -3.4710   -1.6110    1.4730 C   0  0  0  0  0  0  0  0  0  0  0  0
   -3.0260   -0.3470    1.3970 C   0  0  0  0  0  0  0  0  0  0  0  0
   -2.7210    0.3000    0.1340 C   0  0  2  0  0  0  0  0  0  0  0  0
   -1.2210    0.5910   -0.0690 C   0  0  0  0  0  0  0  0  0  0  0  0
   -0.8830    0.8190   -1.5000 C   0  0  2  0  0  0  0  0  0  0  0  0
   -1.0110    2.1880   -2.0460 C   0  0  0  0  0  0  0  0  0  0  0  0
   -1.0040    3.1650   -1.0360 O   0  0  0  0  0  0  0  0  0  0  0  0
   -1.4210    4.4470   -0.9580 C   0  0  0  0  0  0  0  0  0  0  0  0
   -0.5320    5.3190   -0.3130 C   0  0  0  0  0  0  0  0  0  0  0  0
   -0.7740    6.6680   -0.1370 C   0  0  0  0  0  0  0  0  0  0  0  0
   -1.9270    7.2210   -0.5990 C   0  0  0  0  0  0  0  0  0  0  0  0
   -2.8220    6.3890   -1.2360 C   0  0  0  0  0  0  0  0  0  0  0  0
   -2.5910    5.0160   -1.4230 C   0  0  0  0  0  0  0  0  0  0  0  0
   -3.6790    4.3100   -2.1010 C   0  0  0  0  0  0  0  0  0  0  0  0
   -4.0650    4.8830   -3.1910 O   0  0  0  0  0  0  0  0  0  0  0  0
   -4.3310    3.1630   -1.7590 O   0  0  0  0  0  0  0  0  0  0  0  0
   -5.1950    2.9040   -0.6690 C   0  0  0  0  0  0  0  0  0  0  0  0
   -4.8580    1.5060   -0.0700 C   0  0  0  0  0  0  0  0  0  0  0  0
   -3.4240    1.4740   -0.2000 N   0  0  0  0  0  0  0  0  0  0  0  0
   -1.3880   -0.2790   -2.3680 C   0  0  0  0  0  0  0  0  0  0  0  0
   -2.3510   -0.2860   -3.1660 O   0  0  0  0  0  0  0  0  0  0  0  0
   -0.5560   -1.4220   -2.1470 N   0  0  0  0  0  0  0  0  0  0  0  0
    0.7060   -0.9740   -1.5180 C   0  0  1  0  0  0  0  0  0  0  0  0
    1.8670   -1.5460   -2.3370 C   0  0  0  0  0  0  0  0  0  0  0  0
    0.6540    0.4660   -1.6060 C   0  0  2  0  0  0  0  0  0  0  0  0
    1.4290    1.3440   -0.7560 C   0  0  0  0  0  0  0  0  0  0  0  0
    2.8370    1.1400   -0.7550 N   0  0  0  0  0  0  0  0  0  0  0  0
    3.5820    0.0990   -0.1930 C   0  0  0  0  0  0  0  0  0  0  0  0
    3.0550   -0.7850    0.4790 O   0  0  0  0  0  0  0  0  0  0  0  0
    4.9960    0.0150   -0.3740 N   0  0  0  0  0  0  0  0  0  0  0  0
    5.8060   -1.0160    0.1980 C   0  0  1  0  0  0  0  0  0  0  0  0
    6.3260   -2.0300   -0.7970 C   0  0  0  0  0  0  0  0  0  0  0  0
    7.3300   -2.7730    0.1060 C   0  0  0  0  0  0  0  0  0  0  0  0
    8.1490   -1.5570    0.5600 C   0  0  2  0  0  0  0  0  0  0  0  0
    8.9060   -1.7990    1.6780 O   0  0  0  0  0  0  0  0  0  0  0  0
   10.2720   -1.6250    1.4500 C   0  0  0  0  0  0  0  0  0  0  0  0
    7.0710   -0.4880    0.8210 C   0  0  0  0  0  0  0  0  0  0  0  0
   -3.6290   -2.3310    0.2000 C   0  0  0  0  0  0  0  0  0  0  0  0
   -4.0950   -3.7270    0.3850 C   0  0  0  0  0  0  0  0  0  0  0  0
   -4.3580   -4.2860    1.5520 C   0  0  0  0  0  0  0  0  0  0  0  0
   -4.8190   -5.7130    1.5730 C   0  0  0  0  0  0  0  0  0  0  0  0
  1  2  1  0
  2  3  1  0
  3  4  2  0
  3 44  1  0
  4  5  1  0
  5  6  2  3
  5 42  1  0
  7  6  1  1
  7  8  1  0
  7 23  1  0
  9  8  1  1
  9 10  1  0
  9 24  1  0
  9 29  1  0
 10 11  1  0
 11 12  1  0
 12 13  2  0
 12 17  1  0
 13 14  1  0
 14 15  2  0
 15 16  1  0
 16 17  2  0
 17 18  1  0
 18 19  2  0
 18 20  1  0
 20 21  1  0
 21 22  1  0
 22 23  1  0
 24 25  2  0
 24 26  1  0
 26 27  1  0
 27 28  1  6
 27 29  1  0
 29 30  1  1
 30 31  1  0
 31 32  1  0
 32 33  2  0
 32 34  1  0
 35 34  1  6
 35 36  1  0
 35 41  1  0
 36 37  1  0
 37 38  1  0
 38 39  1  1
 38 41  1  0
 39 40  1  0
 42 43  1  0
 43 44  2  0
 44 45  1  0
M  CHG  1  23   1
M  END
