
     RDKit          3D

 46 49  0  0  0  0  0  0  0  0999 V2000
    3.7480    3.8830   -0.7370 C   0  0  0  0  0  0  0  0  0  0  0  0
    4.0560    3.1250   -1.6600 C   0  0  0  0  0  0  0  0  0  0  0  0
    4.1470    3.8750   -2.9540 O   0  0  0  0  0  0  0  0  0  0  0  0
    4.3680    1.7290   -1.9130 C   0  0  0  0  0  0  0  0  0  0  0  0
    4.3860    0.5940   -1.0880 C   0  0  0  0  0  0  0  0  0  0  0  0
    4.1530    0.2820    0.2040 C   0  0  0  0  0  0  0  0  0  0  0  0
    4.3460   -1.1640    0.4910 C   0  0  0  0  0  0  0  0  0  0  0  0
    3.5630   -2.1660    0.8490 C   0  0  0  0  0  0  0  0  0  0  0  0
    4.1860   -3.4810    1.0540 C   0  0  0  0  0  0  0  0  0  0  0  0
    3.7550   -4.6010    1.4680 C   0  0  0  0  0  0  0  0  0  0  0  0
    2.5350   -5.1640    1.9470 C   0  0  0  0  0  0  0  0  0  0  0  0
    2.0620   -2.1440    0.8600 C   0  0  1  0  0  0  0  0  0  0  0  0
    1.6230   -2.0930    2.1160 O   0  0  0  0  0  0  0  0  0  0  0  0
    1.5320   -1.1930   -0.1510 C   0  0  0  0  0  0  0  0  0  0  0  0
    0.7120   -1.4220   -1.1530 C   0  0  0  0  0  0  0  0  0  0  0  0
    0.1020   -2.7240   -1.5030 C   0  0  0  0  0  0  0  0  0  0  0  0
    0.6170   -3.2750   -2.5630 O   0  0  0  0  0  0  0  0  0  0  0  0
   -0.9380   -3.3900   -0.8220 N   0  0  0  0  0  0  0  0  0  0  0  0
   -2.1340   -2.8830   -0.2340 C   0  0  2  0  0  0  0  0  0  0  0  0
   -3.2650   -3.8270   -0.5360 C   0  0  0  0  0  0  0  0  0  0  0  0
   -4.0420   -3.1490   -1.6450 C   0  0  0  0  0  0  0  0  0  0  0  0
   -3.5410   -1.7630   -1.8010 C   0  0  1  0  0  0  0  0  0  0  0  0
   -4.5400   -0.8510   -1.9370 O   0  0  0  0  0  0  0  0  0  0  0  0
   -5.3500   -0.6920   -0.8510 C   0  0  0  0  0  0  0  0  0  0  0  0
   -4.6970   -1.0840    0.4510 C   0  0  0  0  0  0  0  0  0  0  0  0
   -3.2420   -0.8190    0.4520 N   0  0  0  0  0  0  0  0  0  0  0  0
   -2.6760   -0.0180    1.4400 C   0  0  0  0  0  0  0  0  0  0  0  0
   -2.9150   -0.4750    2.6450 O   0  0  0  0  0  0  0  0  0  0  0  0
   -1.8660    1.2260    1.4120 C   0  0  2  0  0  0  0  0  0  0  0  0
   -2.2640    2.1780    0.4680 O   0  0  0  0  0  0  0  0  0  0  0  0
   -3.2530    3.1210    0.6640 C   0  0  0  0  0  0  0  0  0  0  0  0
   -4.0460    3.1260    1.8360 C   0  0  0  0  0  0  0  0  0  0  0  0
   -5.0410    4.0950    2.0190 C   0  0  0  0  0  0  0  0  0  0  0  0
   -5.2840    5.0590    1.0870 C   0  0  0  0  0  0  0  0  0  0  0  0
   -4.5230    5.0400   -0.0160 C   0  0  0  0  0  0  0  0  0  0  0  0
   -3.5280    4.1320   -0.2760 C   0  0  0  0  0  0  0  0  0  0  0  0
   -0.4150    1.0330    1.4790 C   0  0  0  0  0  0  0  0  0  0  0  0
    0.4110    1.9250    2.2390 N   0  0  1  0  0  0  0  0  0  0  0  0
   -0.1830    2.4920    3.4170 C   0  0  0  0  0  0  0  0  0  0  0  0
    1.6260    1.1670    2.5750 C   0  0  0  0  0  0  0  0  0  0  0  0
    2.8890    1.6680    2.0440 C   0  0  0  0  0  0  0  0  0  0  0  0
    3.1130    2.8390    2.6680 O   0  0  0  0  0  0  0  0  0  0  0  0
    3.8470    1.2930    1.1460 N   0  0  0  0  0  0  0  0  0  0  0  0
   -2.5810   -1.5080   -0.6460 C   0  0  1  0  0  0  0  0  0  0  0  0
    4.6610    1.6150   -3.2600 C   0  0  0  0  0  0  0  0  0  0  0  0
    4.9830    1.3110   -4.5790 C   0  0  0  0  0  0  0  0  0  0  0  0
  1  2  2  0
  2  3  1  0
  2  4  1  0
  4  5  1  0
  4 45  2  3
  5  6  2  3
  6  7  1  0
  6 43  1  0
  7  8  2  0
  8  9  1  0
  8 12  1  0
  9 10  2  3
 10 11  1  0
 12 13  1  1
 12 14  1  0
 14 15  2  0
 15 16  1  0
 16 17  2  0
 16 18  1  0
 18 19  1  0
 19 20  1  6
 19 44  1  0
 20 21  1  0
 22 21  1  1
 22 23  1  0
 22 44  1  0
 23 24  1  0
 24 25  1  0
 25 26  1  0
 26 27  1  0
 44 26  1  1
 27 28  2  0
 27 29  1  0
 29 30  1  6
 29 37  1  0
 30 31  1  0
 31 32  2  0
 31 36  1  0
 32 33  1  0
 33 34  2  0
 34 35  1  0
 35 36  2  0
 37 38  1  0
 38 39  1  1
 38 40  1  0
 40 41  1  0
 41 42  2  0
 41 43  1  0
 45 46  1  0
M  CHG  1  38   1
M  END
