
     RDKit          3D

 46 49  0  0  0  0  0  0  0  0999 V2000
    1.9590   -5.0800    0.7190 C   0  0  0  0  0  0  0  0  0  0  0  0
    2.3210   -3.9860   -0.2490 C   0  0  0  0  0  0  0  0  0  0  0  0
    1.9920   -2.6650    0.2580 N   0  0  0  0  0  0  0  0  0  0  0  0
    0.6690   -2.2070   -0.0750 C   0  0  0  0  0  0  0  0  0  0  0  0
    0.6190   -1.9160   -1.5280 C   0  0  0  0  0  0  0  0  0  0  0  0
   -0.4510   -1.1130   -1.9790 O   0  0  0  0  0  0  0  0  0  0  0  0
   -1.5670   -0.6730   -1.2920 C   0  0  0  0  0  0  0  0  0  0  0  0
   -2.8030   -1.3070   -1.4900 C   0  0  0  0  0  0  0  0  0  0  0  0
   -3.9640   -0.9440   -0.8360 C   0  0  0  0  0  0  0  0  0  0  0  0
   -3.9170    0.0970    0.0590 C   0  0  0  0  0  0  0  0  0  0  0  0
   -2.7260    0.7100    0.2460 C   0  0  0  0  0  0  0  0  0  0  0  0
   -1.5080    0.3890   -0.3910 C   0  0  0  0  0  0  0  0  0  0  0  0
   -0.3560    1.1850   -0.1250 N   0  0  0  0  0  0  0  0  0  0  0  0
    0.5120    1.9680   -0.8950 C   0  0  0  0  0  0  0  0  0  0  0  0
    0.5020    3.3000   -0.6720 O   0  0  0  0  0  0  0  0  0  0  0  0
    1.4690    1.6520   -1.9310 C   0  0  0  0  0  0  0  0  0  0  0  0
    1.1490    2.0410   -3.1190 O   0  0  0  0  0  0  0  0  0  0  0  0
    2.7270    0.9710   -1.8360 N   0  0  0  0  0  0  0  0  0  0  0  0
    3.1530    0.2380   -0.7010 C   0  0  0  0  0  0  0  0  0  0  0  0
    4.2230    0.8210    0.2090 C   0  0  2  0  0  0  0  0  0  0  0  0
    4.0190    2.3100    0.0840 C   0  0  0  0  0  0  0  0  0  0  0  0
    4.9070    3.1920    0.8640 C   0  0  0  0  0  0  0  0  0  0  0  0
    5.5300    0.3390   -0.1890 N   0  0  1  0  0  0  0  0  0  0  0  0
    6.1300    0.9800   -1.2960 C   0  0  0  0  0  0  0  0  0  0  0  0
    7.4440    1.6250   -1.1620 C   0  0  0  0  0  0  0  0  0  0  0  0
    8.5290    0.5490   -1.0160 C   0  0  0  0  0  0  0  0  0  0  0  0
    8.8510    0.5520    0.4620 C   0  0  0  0  0  0  0  0  0  0  0  0
    7.5500    0.7360    1.2770 C   0  0  0  0  0  0  0  0  0  0  0  0
    6.4540   -0.1100    0.7690 C   0  0  0  0  0  0  0  0  0  0  0  0
    3.7900    0.3920    1.5830 C   0  0  0  0  0  0  0  0  0  0  0  0
    2.8520   -0.7330    1.7450 C   0  0  0  0  0  0  0  0  0  0  0  0
    2.9730   -1.9700    1.0100 C   0  0  0  0  0  0  0  0  0  0  0  0
    4.1010   -2.5390    1.0210 O   0  0  0  0  0  0  0  0  0  0  0  0
   -5.1770    0.5000    0.7810 C   0  0  0  0  0  0  0  0  0  0  0  0
   -5.9910    1.1080   -0.1350 O   0  0  0  0  0  0  0  0  0  0  0  0
   -7.2510    1.4150    0.2960 C   0  0  2  0  0  0  0  0  0  0  0  0
   -7.2380    2.4680    1.4060 C   0  0  1  0  0  0  0  0  0  0  0  0
   -6.6820    3.7790    0.8930 C   0  0  0  0  0  0  0  0  0  0  0  0
   -8.5620    2.7200    1.7850 O   0  0  0  0  0  0  0  0  0  0  0  0
   -8.1050    0.2440    0.6550 C   0  0  0  0  0  0  0  0  0  0  0  0
   -9.1860    0.0010   -0.3410 C   0  0  0  0  0  0  0  0  0  0  0  0
   -9.2240   -1.0030   -1.1780 C   0  0  0  0  0  0  0  0  0  0  0  0
   -8.2090   -2.0750   -1.2890 C   0  0  0  0  0  0  0  0  0  0  0  0
   -7.1360   -1.7460   -2.2980 C   0  0  0  0  0  0  0  0  0  0  0  0
   -6.1500   -0.9220   -1.8060 O   0  0  0  0  0  0  0  0  0  0  0  0
   -5.2410   -1.6610   -1.0940 C   0  0  0  0  0  0  0  0  0  0  0  0
  1  2  1  0
  2  3  1  0
  3  4  1  0
  3 32  1  0
  4  5  1  0
  5  6  1  0
  6  7  1  0
  7  8  2  0
  7 12  1  0
  8  9  1  0
  9 10  2  0
  9 46  1  0
 10 11  1  0
 10 34  1  0
 11 12  2  0
 12 13  1  0
 13 14  1  0
 14 15  2  0
 14 16  1  0
 16 17  2  0
 16 18  1  0
 18 19  1  0
 19 20  1  0
 20 21  1  1
 20 23  1  0
 20 30  1  0
 21 22  1  0
 23 24  1  1
 23 29  1  0
 24 25  1  0
 25 26  1  0
 26 27  1  0
 27 28  1  0
 28 29  1  0
 30 31  1  0
 31 32  1  0
 32 33  2  0
 34 35  1  0
 35 36  1  0
 36 37  1  0
 36 40  1  1
 37 38  1  6
 37 39  1  0
 40 41  1  0
 41 42  2  0
 42 43  1  0
 43 44  1  0
 44 45  1  0
 45 46  1  0
M  CHG  1  23   1
M  END
