
     RDKit          3D

 46 49  0  0  0  0  0  0  0  0999 V2000
    7.4110   -2.3350   -4.4540 C   0  0  0  0  0  0  0  0  0  0  0  0
    6.5740   -2.0890   -3.4680 C   0  0  0  0  0  0  0  0  0  0  0  0
    5.1470   -2.2290   -3.6450 C   0  0  0  0  0  0  0  0  0  0  0  0
    4.2230   -2.0130   -2.7390 C   0  0  0  0  0  0  0  0  0  0  0  0
    4.5660   -1.5920   -1.4080 C   0  0  0  0  0  0  0  0  0  0  0  0
    3.6250   -1.3670   -0.4580 C   0  0  0  0  0  0  0  0  0  0  0  0
    4.0870   -0.9410    0.8610 C   0  0  0  0  0  0  0  0  0  0  0  0
    3.1450   -0.0820    1.6540 C   0  0  0  0  0  0  0  0  0  0  0  0
    1.9160    0.1290    0.7630 C   0  0  2  0  0  0  0  0  0  0  0  0
    1.0670    1.1960    1.3130 N   0  0  0  0  0  0  0  0  0  0  0  0
    0.2500    1.0210    2.4820 C   0  0  0  0  0  0  0  0  0  0  0  0
   -0.0570   -0.3760    2.9120 C   0  0  0  0  0  0  0  0  0  0  0  0
   -1.1290   -0.2870    3.9290 N   0  0  0  0  0  0  0  0  0  0  0  0
   -1.9670   -1.4980    3.8380 C   0  0  0  0  0  0  0  0  0  0  0  0
   -2.6570   -1.4670    2.4990 C   0  0  2  0  0  0  0  0  0  0  0  0
   -4.0290   -1.7270    2.6750 O   0  0  0  0  0  0  0  0  0  0  0  0
   -2.1800   -2.5010    1.5530 C   0  0  0  0  0  0  0  0  0  0  0  0
   -2.4030   -2.3340    0.2680 C   0  0  0  0  0  0  0  0  0  0  0  0
   -3.1110   -1.1620   -0.3120 C   0  0  0  0  0  0  0  0  0  0  0  0
   -2.6540   -0.7990   -1.6300 N   0  0  0  0  0  0  0  0  0  0  0  0
   -2.5480   -1.8780   -2.6290 C   0  0  0  0  0  0  0  0  0  0  0  0
   -2.3060    0.4920   -2.0910 C   0  0  0  0  0  0  0  0  0  0  0  0
   -2.6370    0.8200   -3.3020 O   0  0  0  0  0  0  0  0  0  0  0  0
   -1.5850    1.5450   -1.3350 C   0  0  1  0  0  0  0  0  0  0  0  0
   -0.7990    2.3360   -2.4050 C   0  0  0  0  0  0  0  0  0  0  0  0
    0.1680    1.4400   -3.1410 C   0  0  0  0  0  0  0  0  0  0  0  0
   -2.4480    2.4620   -0.5990 N   0  0  0  0  0  0  0  0  0  0  0  0
   -3.7570    2.6220   -1.3020 C   0  0  0  0  0  0  0  0  0  0  0  0
   -4.8100    1.6800   -0.8810 C   0  0  0  0  0  0  0  0  0  0  0  0
   -2.1480    3.1390    0.5980 C   0  0  0  0  0  0  0  0  0  0  0  0
   -3.0670    3.0020    1.5060 O   0  0  0  0  0  0  0  0  0  0  0  0
   -1.0060    3.9810    1.0440 C   0  0  0  0  0  0  0  0  0  0  0  0
   -1.4110    5.2760    1.4730 C   0  0  0  0  0  0  0  0  0  0  0  0
   -0.5740    6.2790    1.8600 C   0  0  0  0  0  0  0  0  0  0  0  0
    0.7810    6.0310    1.8390 C   0  0  0  0  0  0  0  0  0  0  0  0
    1.1840    4.7980    1.4350 C   0  0  0  0  0  0  0  0  0  0  0  0
    0.3140    3.7350    1.0290 C   0  0  0  0  0  0  0  0  0  0  0  0
    1.0620    2.4970    0.7250 C   0  0  0  0  0  0  0  0  0  0  0  0
    1.8770    2.6320   -0.2740 O   0  0  0  0  0  0  0  0  0  0  0  0
   -1.9370   -3.3300   -0.5720 O   0  0  0  0  0  0  0  0  0  0  0  0
   -1.4070   -4.5610   -0.1910 C   0  0  0  0  0  0  0  0  0  0  0  0
   -1.6420   -4.8230    1.2580 C   0  0  0  0  0  0  0  0  0  0  0  0
   -1.5010   -3.6380    2.0230 O   0  0  0  0  0  0  0  0  0  0  0  0
    1.3490   -1.1200    0.3020 C   0  0  2  0  0  0  0  0  0  0  0  0
    1.5240   -2.2410    1.1320 O   0  0  0  0  0  0  0  0  0  0  0  0
    2.2250   -1.5960   -0.8920 C   0  0  0  0  0  0  0  0  0  0  0  0
  1  2  2  0
  2  3  1  0
  3  4  2  3
  4  5  1  0
  5  6  2  3
  6  7  1  0
  6 46  1  0
  7  8  1  0
  8  9  1  0
  9 10  1  1
  9 44  1  0
 10 11  1  0
 10 38  1  0
 11 12  1  0
 12 13  1  0
 13 14  1  0
 14 15  1  0
 15 16  1  1
 15 17  1  0
 17 18  2  0
 17 43  1  0
 18 19  1  0
 18 40  1  0
 19 20  1  0
 20 21  1  0
 20 22  1  0
 22 23  2  0
 22 24  1  0
 24 25  1  6
 24 27  1  0
 25 26  1  0
 27 28  1  0
 27 30  1  0
 28 29  1  0
 30 31  2  0
 30 32  1  0
 32 33  2  0
 32 37  1  0
 33 34  1  0
 34 35  2  0
 35 36  1  0
 36 37  2  0
 37 38  1  0
 38 39  2  0
 40 41  1  0
 41 42  1  0
 42 43  1  0
 44 45  1  1
 44 46  1  0
M  CHG  1  13   1
M  END
