
     RDKit          3D

 46 51  0  0  0  0  0  0  0  0999 V2000
    2.4650   -3.8170   -1.8560 C   0  0  0  0  0  0  0  0  0  0  0  0
    1.9170   -3.8050   -0.5660 O   0  0  0  0  0  0  0  0  0  0  0  0
    1.7390   -2.6490    0.1980 C   0  0  0  0  0  0  0  0  0  0  0  0
    2.7800   -2.2200    1.0600 C   0  0  0  0  0  0  0  0  0  0  0  0
    3.8840   -2.9880    1.0620 O   0  0  0  0  0  0  0  0  0  0  0  0
    5.1150   -3.0840    1.5880 C   0  0  0  0  0  0  0  0  0  0  0  0
    6.0500   -1.9970    1.1860 C   0  0  2  0  0  0  0  0  0  0  0  0
    7.4950   -2.3460    1.6030 C   0  0  0  0  0  0  0  0  0  0  0  0
    8.4700   -0.8190    1.6070 S   0  0  0  0  0  0  0  0  0  0  0  0
    7.6030    0.3750    0.6520 C   0  0  0  0  0  0  0  0  0  0  0  0
    8.1790    1.3560    0.0470 C   0  0  0  0  0  0  0  0  0  0  0  0
    9.6240    1.6370    0.0500 C   0  0  0  0  0  0  0  0  0  0  0  0
   10.1930    2.6710   -0.5950 C   0  0  0  0  0  0  0  0  0  0  0  0
    9.4570    3.6730   -1.3960 C   0  0  0  0  0  0  0  0  0  0  0  0
   11.6480    2.6870   -0.4060 C   0  0  0  0  0  0  0  0  0  0  0  0
   11.8920    1.5140    0.4470 C   0  0  0  0  0  0  0  0  0  0  0  0
   10.7090    0.9370    0.6870 C   0  0  0  0  0  0  0  0  0  0  0  0
    6.1270    0.2250    0.5530 C   0  0  0  0  0  0  0  0  0  0  0  0
    5.7370   -0.7170    1.4930 O   0  0  0  0  0  0  0  0  0  0  0  0
    2.5960   -1.0730    1.8140 C   0  0  0  0  0  0  0  0  0  0  0  0
    1.4100   -0.3510    1.7280 C   0  0  0  0  0  0  0  0  0  0  0  0
    0.3960   -0.7610    0.8930 C   0  0  0  0  0  0  0  0  0  0  0  0
   -0.8420    0.0060    0.8150 C   0  0  0  0  0  0  0  0  0  0  0  0
   -1.0020    1.0550    1.5110 O   0  0  0  0  0  0  0  0  0  0  0  0
   -1.8880   -0.3520    0.0020 O   0  0  0  0  0  0  0  0  0  0  0  0
   -3.1190    0.3810   -0.0950 C   0  0  1  0  0  0  0  0  0  0  0  0
   -3.2660    0.8150   -1.5180 C   0  0  0  0  0  0  0  0  0  0  0  0
   -4.6160    0.5270   -2.1200 C   0  0  0  0  0  0  0  0  0  0  0  0
   -5.6610    0.8060   -1.0790 C   0  0  0  0  0  0  0  0  0  0  0  0
   -5.5180   -0.0550    0.0740 N   0  0  0  0  0  0  0  0  0  0  0  0
   -6.6700   -0.3560    0.8470 C   0  0  0  0  0  0  0  0  0  0  0  0
   -6.5590   -1.1140    1.8690 O   0  0  0  0  0  0  0  0  0  0  0  0
   -7.9910    0.1660    0.5250 C   0  0  0  0  0  0  0  0  0  0  0  0
   -8.4880    1.3560    1.0130 C   0  0  0  0  0  0  0  0  0  0  0  0
   -9.7420    1.8310    0.6970 C   0  0  0  0  0  0  0  0  0  0  0  0
  -10.5320    1.0590   -0.1590 C   0  0  0  0  0  0  0  0  0  0  0  0
  -10.0590   -0.1060   -0.6430 N   0  0  0  0  0  0  0  0  0  0  0  0
   -8.8140   -0.5560   -0.3150 C   0  0  0  0  0  0  0  0  0  0  0  0
   -8.3790   -1.6530   -0.7770 O   0  0  0  0  0  0  0  0  0  0  0  0
  -11.8300    1.7130   -0.3860 C   0  0  0  0  0  0  0  0  0  0  0  0
  -11.7170    3.0880    0.2030 C   0  0  0  0  0  0  0  0  0  0  0  0
  -10.5070    3.0540    1.0750 C   0  0  0  0  0  0  0  0  0  0  0  0
   -4.2020   -0.5660    0.3740 C   0  0  0  0  0  0  0  0  0  0  0  0
    0.5980   -1.9020    0.1540 C   0  0  0  0  0  0  0  0  0  0  0  0
   -0.4280   -2.3230   -0.6930 O   0  0  0  0  0  0  0  0  0  0  0  0
   -1.4490   -3.2040   -0.2950 C   0  0  0  0  0  0  0  0  0  0  0  0
  1  2  1  0
  2  3  1  0
  3  4  2  0
  3 44  1  0
  4  5  1  0
  4 20  1  0
  5  6  1  0
  7  6  1  1
  7  8  1  0
  7 19  1  0
  8  9  1  0
  9 10  1  0
 10 11  2  3
 10 18  1  0
 11 12  1  0
 12 13  2  0
 12 17  1  0
 13 14  1  0
 13 15  1  0
 15 16  1  0
 16 17  2  0
 18 19  1  0
 20 21  2  0
 21 22  1  0
 22 23  1  0
 22 44  2  0
 23 24  2  0
 23 25  1  0
 26 25  1  6
 26 27  1  0
 26 43  1  0
 27 28  1  0
 28 29  1  0
 29 30  1  0
 30 31  1  0
 30 43  1  0
 31 32  2  0
 31 33  1  0
 33 34  2  0
 33 38  1  0
 34 35  1  0
 35 36  2  0
 35 42  1  0
 36 37  1  0
 36 40  1  0
 37 38  1  0
 38 39  2  0
 40 41  1  0
 41 42  1  0
 44 45  1  0
 45 46  1  0
M  END
