
     RDKit          3D

 46 51  0  0  0  0  0  0  0  0999 V2000
   -6.1650    6.0780    2.2400 C   0  0  0  0  0  0  0  0  0  0  0  0
   -5.6140    5.8840    0.8840 C   0  0  0  0  0  0  0  0  0  0  0  0
   -5.5890    6.8350    0.0800 O   0  0  0  0  0  0  0  0  0  0  0  0
   -5.0980    4.5900    0.4740 C   0  0  0  0  0  0  0  0  0  0  0  0
   -4.5820    4.4200   -0.8040 C   0  0  0  0  0  0  0  0  0  0  0  0
   -4.0960    3.1880   -1.1810 C   0  0  0  0  0  0  0  0  0  0  0  0
   -4.0980    2.0980   -0.3420 C   0  0  0  0  0  0  0  0  0  0  0  0
   -3.5590    0.8090   -0.8240 C   0  0  1  0  0  0  0  0  0  0  0  0
   -2.7390    0.1760    0.1080 O   0  0  0  0  0  0  0  0  0  0  0  0
   -1.4240   -0.1690   -0.0420 C   0  0  0  0  0  0  0  0  0  0  0  0
   -0.8800    0.1030   -1.1270 O   0  0  0  0  0  0  0  0  0  0  0  0
   -0.6410   -0.8490    1.0360 C   0  0  0  0  0  0  0  0  0  0  0  0
    0.3770   -1.2840    1.3280 N   0  0  0  0  0  0  0  0  0  0  0  0
    0.8000   -1.8590    2.4310 C   0  0  0  0  0  0  0  0  0  0  0  0
    2.1480   -2.3810    2.6660 C   0  0  0  0  0  0  0  0  0  0  0  0
    2.4450   -2.9170    3.7780 O   0  0  0  0  0  0  0  0  0  0  0  0
    3.1910   -2.3300    1.7020 N   0  0  0  0  0  0  0  0  0  0  0  0
    4.4780   -2.8820    2.0620 C   0  0  0  0  0  0  0  0  0  0  0  0
    5.4470   -1.7010    2.1780 C   0  0  0  0  0  0  0  0  0  0  0  0
    6.0560   -1.4470    0.7980 C   0  0  0  0  0  0  0  0  0  0  0  0
    5.0900   -0.7420   -0.0990 C   0  0  1  0  0  0  0  0  0  0  0  0
    5.7010   -0.1580   -1.3210 C   0  0  1  0  0  0  0  0  0  0  0  0
    6.4270   -1.1950   -2.1650 C   0  0  0  0  0  0  0  0  0  0  0  0
    4.5600    0.1490   -2.2160 O   0  0  0  0  0  0  0  0  0  0  0  0
    6.4190    1.1030   -1.2670 C   0  0  2  0  0  0  0  0  0  0  0  0
    7.6090    1.2770   -0.3910 C   0  0  0  0  0  0  0  0  0  0  0  0
    7.8900    2.7870   -0.6910 C   0  0  0  0  0  0  0  0  0  0  0  0
    6.5630    3.2920   -0.5860 O   0  0  0  0  0  0  0  0  0  0  0  0
    5.6270    2.3140   -0.9040 C   0  0  0  0  0  0  0  0  0  0  0  0
    4.3950    2.4230   -0.8900 O   0  0  0  0  0  0  0  0  0  0  0  0
    4.0150   -1.7420   -0.5400 C   0  0  0  0  0  0  0  0  0  0  0  0
    2.8520   -1.7230    0.4310 C   0  0  0  0  0  0  0  0  0  0  0  0
   -0.2030   -1.9350    3.3990 C   0  0  0  0  0  0  0  0  0  0  0  0
   -1.6020   -1.2040    2.6690 S   0  0  0  0  0  0  0  0  0  0  0  0
   -4.6430   -0.1320   -1.2130 C   0  0  0  0  0  0  0  0  0  0  0  0
   -5.6600    0.2440   -2.0610 C   0  0  0  0  0  0  0  0  0  0  0  0
   -6.6420   -0.6620   -2.3880 C   0  0  0  0  0  0  0  0  0  0  0  0
   -6.6630   -1.9490   -1.9060 C   0  0  0  0  0  0  0  0  0  0  0  0
   -7.7240   -2.9250   -2.2610 C   0  0  0  0  0  0  0  0  0  0  0  0
   -5.6220   -2.3200   -1.0440 C   0  0  0  0  0  0  0  0  0  0  0  0
   -4.6350   -1.4200   -0.7100 C   0  0  0  0  0  0  0  0  0  0  0  0
   -3.7360   -2.0450    0.1510 O   0  0  0  0  0  0  0  0  0  0  0  0
   -4.1830   -3.2980    0.5440 C   0  0  0  0  0  0  0  0  0  0  0  0
   -5.3310   -3.5960   -0.3520 C   0  0  0  0  0  0  0  0  0  0  0  0
   -4.6120    2.2570    0.9340 C   0  0  0  0  0  0  0  0  0  0  0  0
   -5.0970    3.4910    1.3120 C   0  0  0  0  0  0  0  0  0  0  0  0
  1  2  1  0
  2  3  2  0
  2  4  1  0
  4  5  2  0
  4 46  1  0
  5  6  1  0
  6  7  2  0
  7  8  1  0
  7 45  1  0
  8  9  1  1
  8 35  1  0
  9 10  1  0
 10 11  2  0
 10 12  1  0
 12 13  2  0
 12 34  1  0
 13 14  1  0
 14 15  1  0
 14 33  2  0
 15 16  2  0
 15 17  1  0
 17 18  1  0
 17 32  1  0
 18 19  1  0
 19 20  1  0
 21 20  1  6
 21 22  1  0
 21 31  1  0
 22 23  1  6
 22 24  1  0
 22 25  1  0
 25 26  1  1
 25 29  1  0
 26 27  1  0
 27 28  1  0
 28 29  1  0
 29 30  2  0
 31 32  1  0
 33 34  1  0
 35 36  2  0
 35 41  1  0
 36 37  1  0
 37 38  2  0
 38 39  1  0
 38 40  1  0
 40 41  2  0
 40 44  1  0
 41 42  1  0
 42 43  1  0
 43 44  1  0
 45 46  2  0
M  END
