
     RDKit          3D

 41 43  0  0  0  0  0  0  0  0999 V2000
   -5.9640    3.3430   -0.6570 C   0  0  0  0  0  0  0  0  0  0  0  0
   -5.9620    2.1610   -1.6230 C   0  0  0  0  0  0  0  0  0  0  0  0
   -6.0940    0.9500   -0.7940 C   0  0  0  0  0  0  0  0  0  0  0  0
   -5.2510   -0.0430   -0.7310 C   0  0  0  0  0  0  0  0  0  0  0  0
   -5.5260   -1.1880    0.1540 C   0  0  0  0  0  0  0  0  0  0  0  0
   -6.7360   -1.1260    1.0210 C   0  0  2  0  0  0  0  0  0  0  0  0
   -6.7750   -0.0270    2.0210 C   0  0  0  0  0  0  0  0  0  0  0  0
   -6.8710   -0.5720    3.4590 C   0  0  0  0  0  0  0  0  0  0  0  0
   -8.1340   -1.4280    3.5040 C   0  0  0  0  0  0  0  0  0  0  0  0
   -7.9310   -2.5950    2.5460 C   0  0  0  0  0  0  0  0  0  0  0  0
   -6.8030   -2.4180    1.7030 N   0  0  0  0  0  0  0  0  0  0  0  0
   -3.9990   -0.1000   -1.4810 C   0  0  0  0  0  0  0  0  0  0  0  0
   -3.6340    0.8350   -2.2480 O   0  0  0  0  0  0  0  0  0  0  0  0
   -3.0610   -1.2580   -1.3970 C   0  0  1  0  0  0  0  0  0  0  0  0
   -3.6590   -2.5370   -1.9520 C   0  0  0  0  0  0  0  0  0  0  0  0
   -1.8870   -1.0070   -2.2580 N   0  0  0  0  0  0  0  0  0  0  0  0
   -2.0330   -0.8890   -3.6480 C   0  0  0  0  0  0  0  0  0  0  0  0
   -3.2530   -1.0120   -4.0830 O   0  0  0  0  0  0  0  0  0  0  0  0
   -0.9480   -0.6500   -4.6010 C   0  0  0  0  0  0  0  0  0  0  0  0
    0.3170   -0.4970   -3.9660 N   0  0  0  0  0  0  0  0  0  0  0  0
    0.5890    0.5680   -3.0660 C   0  0  0  0  0  0  0  0  0  0  0  0
   -0.2950    1.3960   -2.8090 O   0  0  0  0  0  0  0  0  0  0  0  0
    1.8560    0.7190   -2.4450 N   0  0  0  0  0  0  0  0  0  0  0  0
    2.1130    1.7740   -1.5380 C   0  0  2  0  0  0  0  0  0  0  0  0
    2.8550    2.9430   -2.1750 C   0  0  0  0  0  0  0  0  0  0  0  0
    3.9900    2.3670   -2.9410 C   0  0  0  0  0  0  0  0  0  0  0  0
    4.8110    1.4760   -2.0870 C   0  0  0  0  0  0  0  0  0  0  0  0
    4.4280    1.4560   -0.6110 C   0  0  2  0  0  0  0  0  0  0  0  0
    5.1080    0.3700   -0.0620 O   0  0  0  0  0  0  0  0  0  0  0  0
    6.2510    0.4780    0.6730 C   0  0  0  0  0  0  0  0  0  0  0  0
    6.9570    1.6240    0.9580 C   0  0  0  0  0  0  0  0  0  0  0  0
    8.1020    1.6260    1.7100 C   0  0  0  0  0  0  0  0  0  0  0  0
    8.6100    0.4610    2.2260 C   0  0  0  0  0  0  0  0  0  0  0  0
    9.7380    0.4410    2.9670 O   0  0  0  0  0  0  0  0  0  0  0  0
   10.5330    1.5450    3.3110 C   0  0  0  0  0  0  0  0  0  0  0  0
    7.9270   -0.7340    1.9630 C   0  0  0  0  0  0  0  0  0  0  0  0
    6.7750   -0.7090    1.2020 C   0  0  0  0  0  0  0  0  0  0  0  0
    6.0450   -1.9060    0.9220 N   0  0  0  0  0  0  0  0  0  0  0  0
    5.8050   -2.4020   -0.4220 C   0  0  0  0  0  0  0  0  0  0  0  0
    5.5320   -2.6230    2.0880 C   0  0  0  0  0  0  0  0  0  0  0  0
    2.9390    1.2890   -0.3930 C   0  0  0  0  0  0  0  0  0  0  0  0
  1  2  1  0
  2  3  1  0
  3  4  2  3
  4  5  1  0
  4 12  1  0
  6  5  1  1
  6  7  1  0
  6 11  1  0
  7  8  1  0
  8  9  1  0
  9 10  1  0
 10 11  1  0
 12 13  2  0
 12 14  1  0
 14 15  1  6
 14 16  1  0
 16 17  1  0
 17 18  2  0
 17 19  1  0
 19 20  1  0
 20 21  1  0
 21 22  2  0
 21 23  1  0
 24 23  1  6
 24 25  1  0
 24 41  1  0
 25 26  1  0
 26 27  1  0
 27 28  1  0
 28 29  1  1
 28 41  1  0
 29 30  1  0
 30 31  2  0
 30 37  1  0
 31 32  1  0
 32 33  2  0
 33 34  1  0
 33 36  1  0
 34 35  1  0
 36 37  2  0
 37 38  1  0
 38 39  1  0
 38 40  1  0
M  CHG  1  11   1
M  END
