
     RDKit          3D

 41 42  0  0  0  0  0  0  0  0999 V2000
   10.7920    1.8330    3.3790 C   0  0  0  0  0  0  0  0  0  0  0  0
   10.0590    1.1910    2.4720 C   0  0  0  0  0  0  0  0  0  0  0  0
    8.9210    1.9080    1.8470 C   0  0  0  0  0  0  0  0  0  0  0  0
    7.6740    1.2180    2.1030 N   0  0  0  0  0  0  0  0  0  0  0  0
    6.9110    1.5730    3.2790 C   0  0  0  0  0  0  0  0  0  0  0  0
    7.1790    0.2080    1.2410 C   0  0  0  0  0  0  0  0  0  0  0  0
    6.0700   -0.3450    1.5250 O   0  0  0  0  0  0  0  0  0  0  0  0
    7.8860   -0.1930    0.0860 N   0  0  0  0  0  0  0  0  0  0  0  0
    7.3630   -1.2150   -0.7730 C   0  0  0  0  0  0  0  0  0  0  0  0
    6.3030   -0.6450   -1.6490 C   0  0  0  0  0  0  0  0  0  0  0  0
    6.6850    0.0570   -2.7570 C   0  0  0  0  0  0  0  0  0  0  0  0
    5.7210    0.5820   -3.5830 C   0  0  0  0  0  0  0  0  0  0  0  0
    4.3970    0.4020   -3.2950 C   0  0  0  0  0  0  0  0  0  0  0  0
    3.9330   -0.3130   -2.1640 C   0  0  0  0  0  0  0  0  0  0  0  0
    2.5340   -0.4840   -2.0080 C   0  0  0  0  0  0  0  0  0  0  0  0
    1.8200   -0.2830   -3.0700 O   0  0  0  0  0  0  0  0  0  0  0  0
    1.7970   -0.8350   -0.8730 N   0  0  0  0  0  0  0  0  0  0  0  0
    2.3940   -1.0390    0.4050 C   0  0  0  0  0  0  0  0  0  0  0  0
    1.4260   -0.8460    1.5490 C   0  0  0  0  0  0  0  0  0  0  0  0
    0.1370   -1.5490    1.3820 C   0  0  0  0  0  0  0  0  0  0  0  0
   -0.0180   -2.1080   -0.0150 C   0  0  0  0  0  0  0  0  0  0  0  0
    0.3370   -1.0400   -0.9950 C   0  0  1  0  0  0  0  0  0  0  0  0
   -0.4550    0.2080   -0.7910 C   0  0  1  0  0  0  0  0  0  0  0  0
   -0.0860    1.1730   -1.7620 O   0  0  0  0  0  0  0  0  0  0  0  0
   -1.9180   -0.0960   -0.9770 C   0  0  0  0  0  0  0  0  0  0  0  0
   -2.8580    1.0460   -0.7640 C   0  0  1  0  0  0  0  0  0  0  0  0
   -2.6110    2.1670   -1.7160 C   0  0  0  0  0  0  0  0  0  0  0  0
   -4.2780    0.5640   -0.9950 C   0  0  0  0  0  0  0  0  0  0  0  0
   -5.0370    1.1380   -1.8120 O   0  0  0  0  0  0  0  0  0  0  0  0
   -4.7900   -0.5490   -0.2940 N   0  0  0  0  0  0  0  0  0  0  0  0
   -6.1700   -1.0190   -0.5160 C   0  0  2  0  0  0  0  0  0  0  0  0
   -6.3650   -2.2290    0.3660 C   0  0  0  0  0  0  0  0  0  0  0  0
   -6.2810   -1.4500   -1.9300 C   0  0  0  0  0  0  0  0  0  0  0  0
   -7.3810   -1.3720   -2.8700 C   0  0  0  0  0  0  0  0  0  0  0  0
   -5.2270   -1.9700   -2.3820 O   0  0  0  0  0  0  0  0  0  0  0  0
   -7.1620    0.0130   -0.1120 C   0  0  1  0  0  0  0  0  0  0  0  0
   -8.5560   -0.5380   -0.2830 C   0  0  0  0  0  0  0  0  0  0  0  0
   -6.9650    0.3780    1.3330 C   0  0  0  0  0  0  0  0  0  0  0  0
   -7.9270    1.4330    1.8090 C   0  0  0  0  0  0  0  0  0  0  0  0
   -7.6530    1.7310    3.2250 N   0  0  0  0  0  0  0  0  0  0  0  0
    4.9430   -0.8130   -1.3830 C   0  0  0  0  0  0  0  0  0  0  0  0
  1  2  2  0
  2  3  1  0
  3  4  1  0
  4  5  1  0
  4  6  1  0
  6  7  2  0
  6  8  1  0
  8  9  1  0
  9 10  1  0
 10 11  2  0
 10 41  1  0
 11 12  1  0
 12 13  2  0
 13 14  1  0
 14 15  1  0
 14 41  2  0
 15 16  2  0
 15 17  1  0
 17 18  1  0
 17 22  1  0
 18 19  1  0
 19 20  1  0
 20 21  1  0
 22 21  1  1
 22 23  1  0
 23 24  1  6
 23 25  1  0
 25 26  1  0
 26 27  1  6
 26 28  1  0
 28 29  2  0
 28 30  1  0
 30 31  1  0
 31 32  1  1
 31 33  1  0
 31 36  1  0
 33 34  1  0
 33 35  2  0
 36 37  1  1
 36 38  1  0
 38 39  1  0
 39 40  1  0
M  CHG  1  40   1
M  END
