
     RDKit          3D

 41 43  0  0  0  0  0  0  0  0999 V2000
   -7.0050    4.1850    0.2130 C   0  0  0  0  0  0  0  0  0  0  0  0
   -7.0220    2.9550    1.0630 C   0  0  0  0  0  0  0  0  0  0  0  0
   -6.5150    1.7160    0.3030 C   0  0  2  0  0  0  0  0  0  0  0  0
   -7.3770    1.4640   -0.8880 C   0  0  0  0  0  0  0  0  0  0  0  0
   -8.7050    1.2700   -0.5690 O   0  0  0  0  0  0  0  0  0  0  0  0
   -6.3170    0.6200    1.2730 C   0  0  0  0  0  0  0  0  0  0  0  0
   -5.8250   -0.6100    0.7610 N   0  0  0  0  0  0  0  0  0  0  0  0
   -4.3700   -0.7310    0.7140 C   0  0  0  0  0  0  0  0  0  0  0  0
   -3.9330   -1.8120    0.2190 O   0  0  0  0  0  0  0  0  0  0  0  0
   -3.4440    0.2910    1.1970 C   0  0  0  0  0  0  0  0  0  0  0  0
   -2.0880   -0.1910    1.0070 N   0  0  0  0  0  0  0  0  0  0  0  0
   -1.6110   -0.4850   -0.2850 C   0  0  0  0  0  0  0  0  0  0  0  0
   -2.4220   -0.3030   -1.2550 O   0  0  0  0  0  0  0  0  0  0  0  0
   -0.2990   -0.9640   -0.5470 N   0  0  0  0  0  0  0  0  0  0  0  0
    0.2170   -1.2750   -1.8620 C   0  0  0  0  0  0  0  0  0  0  0  0
    1.6780   -1.5820   -1.6940 C   0  0  0  0  0  0  0  0  0  0  0  0
    1.9820   -0.8500   -0.3810 C   0  0  1  0  0  0  0  0  0  0  0  0
    1.9450    0.5620   -0.6150 N   0  0  0  0  0  0  0  0  0  0  0  0
    3.0060    1.2870    0.0800 C   0  0  0  0  0  0  0  0  0  0  0  0
    4.2950    1.2370   -0.6690 C   0  0  1  0  0  0  0  0  0  0  0  0
    4.0480    1.8240   -1.9300 O   0  0  0  0  0  0  0  0  0  0  0  0
    5.2770    2.1950    0.0090 C   0  0  0  0  0  0  0  0  0  0  0  0
    5.4750    1.7480    1.4230 C   0  0  0  0  0  0  0  0  0  0  0  0
    6.0100    0.4050    1.4320 N   0  0  0  0  0  0  0  0  0  0  0  0
    7.3320    0.1920    0.9620 C   0  0  0  0  0  0  0  0  0  0  0  0
    7.8060   -1.0940    0.7080 C   0  0  0  0  0  0  0  0  0  0  0  0
    9.0870   -1.3400    0.2690 C   0  0  0  0  0  0  0  0  0  0  0  0
    9.5470   -2.7440    0.0110 C   0  0  0  0  0  0  0  0  0  0  0  0
    9.9660   -0.3010    0.0600 C   0  0  0  0  0  0  0  0  0  0  0  0
   11.3600   -0.5430   -0.4170 C   0  0  0  0  0  0  0  0  0  0  0  0
    9.5110    0.9760    0.3070 C   0  0  0  0  0  0  0  0  0  0  0  0
   10.4490    2.1200    0.0860 C   0  0  0  0  0  0  0  0  0  0  0  0
    8.2180    1.2260    0.7500 C   0  0  0  0  0  0  0  0  0  0  0  0
    0.7390   -1.2220    0.4190 C   0  0  0  0  0  0  0  0  0  0  0  0
   -6.5890   -1.7790    0.3180 C   0  0  1  0  0  0  0  0  0  0  0  0
   -6.0390   -2.9420    1.2060 C   0  0  0  0  0  0  0  0  0  0  0  0
   -8.0310   -1.7430    0.6020 C   0  0  0  0  0  0  0  0  0  0  0  0
   -8.9140   -2.1370   -0.5530 C   0  0  0  0  0  0  0  0  0  0  0  0
   -8.2970   -3.0770   -1.3800 O   0  0  0  0  0  0  0  0  0  0  0  0
   -7.2910   -2.3720   -2.0400 C   0  0  0  0  0  0  0  0  0  0  0  0
   -6.1810   -2.1280   -1.0800 C   0  0  0  0  0  0  0  0  0  0  0  0
  1  2  1  0
  3  2  1  1
  3  4  1  0
  3  6  1  0
  4  5  1  0
  6  7  1  0
  7  8  1  0
  7 35  1  0
  8  9  2  0
  8 10  1  0
 10 11  1  0
 11 12  1  0
 12 13  2  0
 12 14  1  0
 14 15  1  0
 14 34  1  0
 15 16  1  0
 16 17  1  0
 17 18  1  6
 17 34  1  0
 18 19  1  0
 19 20  1  0
 20 21  1  6
 20 22  1  0
 22 23  1  0
 23 24  1  0
 24 25  1  0
 25 26  2  0
 25 33  1  0
 26 27  1  0
 27 28  1  0
 27 29  2  0
 29 30  1  0
 29 31  1  0
 31 32  1  0
 31 33  2  0
 35 36  1  1
 35 37  1  0
 35 41  1  0
 37 38  1  0
 38 39  1  0
 39 40  1  0
 40 41  1  0
M  CHG  1  18   1
M  END
