
     RDKit          3D

 39 41  0  0  0  0  0  0  0  0999 V2000
    7.9060    1.5600    0.2080 C   0  0  0  0  0  0  0  0  0  0  0  0
    8.4350    0.7040    1.3660 C   0  0  0  0  0  0  0  0  0  0  0  0
    8.0820    0.9540    2.6310 C   0  0  0  0  0  0  0  0  0  0  0  0
    8.6000    0.1660    3.6230 C   0  0  0  0  0  0  0  0  0  0  0  0
    9.6330   -0.9740    2.6900 S   0  0  0  0  0  0  0  0  0  0  0  0
    9.2910   -0.3170    1.0950 C   0  0  0  0  0  0  0  0  0  0  0  0
    9.8340   -0.8300   -0.1440 C   0  0  0  0  0  0  0  0  0  0  0  0
    9.1140   -1.8430   -0.9270 C   0  0  0  0  0  0  0  0  0  0  0  0
    7.7840   -1.5430   -1.3270 N   0  0  0  0  0  0  0  0  0  0  0  0
    6.6330   -1.4590   -0.5000 C   0  0  0  0  0  0  0  0  0  0  0  0
    6.7770   -1.7070    0.7430 O   0  0  0  0  0  0  0  0  0  0  0  0
    5.3030   -1.1020   -1.0190 C   0  0  0  0  0  0  0  0  0  0  0  0
    4.1790   -1.4590   -0.2840 C   0  0  0  0  0  0  0  0  0  0  0  0
    2.8850   -1.1480   -0.7000 C   0  0  0  0  0  0  0  0  0  0  0  0
    2.7330   -0.4690   -1.8740 C   0  0  0  0  0  0  0  0  0  0  0  0
    1.4810   -0.1020   -2.4230 N   0  0  0  0  0  0  0  0  0  0  0  0
    0.2300   -0.5580   -2.0260 C   0  0  0  0  0  0  0  0  0  0  0  0
    0.1170   -1.3800   -1.1140 O   0  0  0  0  0  0  0  0  0  0  0  0
   -1.0020   -0.1280   -2.6210 N   0  0  0  0  0  0  0  0  0  0  0  0
   -2.2820   -0.5920   -2.2180 C   0  0  0  0  0  0  0  0  0  0  0  0
   -2.6170   -0.3070   -0.7630 C   0  0  0  0  0  0  0  0  0  0  0  0
   -2.5710    1.1630   -0.5960 C   0  0  0  0  0  0  0  0  0  0  0  0
   -1.8440    1.8630   -1.3870 O   0  0  0  0  0  0  0  0  0  0  0  0
   -3.2920    1.8370    0.3970 N   0  0  0  0  0  0  0  0  0  0  0  0
   -3.1040    3.3250    0.3850 C   0  0  0  0  0  0  0  0  0  0  0  0
   -4.1610    1.3570    1.4100 C   0  0  2  0  0  0  0  0  0  0  0  0
   -3.5600    0.5790    2.5320 C   0  0  0  0  0  0  0  0  0  0  0  0
   -2.9310   -0.5930    2.2300 O   0  0  0  0  0  0  0  0  0  0  0  0
   -5.3930    0.7000    0.8370 C   0  0  0  0  0  0  0  0  0  0  0  0
   -5.8350   -0.4640    1.3010 C   0  0  0  0  0  0  0  0  0  0  0  0
   -7.0370   -1.1360    0.7670 C   0  0  2  0  0  0  0  0  0  0  0  0
   -6.7650   -1.9390   -0.4820 C   0  0  0  0  0  0  0  0  0  0  0  0
   -7.9230   -2.5420   -0.9320 O   0  0  0  0  0  0  0  0  0  0  0  0
   -8.0740   -0.0710    0.5340 C   0  0  1  0  0  0  0  0  0  0  0  0
   -8.4820    0.4950    1.8780 C   0  0  0  0  0  0  0  0  0  0  0  0
   -7.5940    1.0540   -0.3260 C   0  0  0  0  0  0  0  0  0  0  0  0
   -6.1380    1.3420   -0.2770 C   0  0  0  0  0  0  0  0  0  0  0  0
    3.8890   -0.1150   -2.6050 C   0  0  0  0  0  0  0  0  0  0  0  0
    5.1620   -0.4190   -2.1990 C   0  0  0  0  0  0  0  0  0  0  0  0
  1  2  1  0
  2  3  1  0
  2  6  2  0
  3  4  2  0
  4  5  1  0
  5  6  1  0
  6  7  1  0
  7  8  1  0
  8  9  1  0
  9 10  1  0
 10 11  2  0
 10 12  1  0
 12 13  2  0
 12 39  1  0
 13 14  1  0
 14 15  2  0
 15 16  1  0
 15 38  1  0
 16 17  1  0
 17 18  2  0
 17 19  1  0
 19 20  1  0
 20 21  1  0
 21 22  1  0
 22 23  2  0
 22 24  1  0
 24 25  1  0
 24 26  1  0
 26 27  1  6
 26 29  1  0
 27 28  1  0
 29 30  2  0
 29 37  1  0
 30 31  1  0
 31 32  1  6
 31 34  1  0
 32 33  1  0
 34 35  1  1
 34 36  1  0
 36 37  1  0
 38 39  2  0
M  END
