
     RDKit          3D

 40 43  0  0  0  0  0  0  0  0999 V2000
   -2.3800   -2.6370   -2.7510 C   0  0  0  0  0  0  0  0  0  0  0  0
   -1.6800   -1.3090   -2.6280 C   0  0  1  0  0  0  0  0  0  0  0  0
   -1.9820   -0.5580   -3.9330 C   0  0  0  0  0  0  0  0  0  0  0  0
   -2.1820   -0.5230   -1.4690 C   0  0  0  0  0  0  0  0  0  0  0  0
   -2.0550   -1.0640   -0.1850 N   0  0  0  0  0  0  0  0  0  0  0  0
   -0.8060   -1.0260    0.4680 C   0  0  0  0  0  0  0  0  0  0  0  0
   -0.5970    0.1900    1.3430 C   0  0  1  0  0  0  0  0  0  0  0  0
   -1.5700    0.1990    2.3160 O   0  0  0  0  0  0  0  0  0  0  0  0
    0.7960    0.2530    1.8960 C   0  0  2  0  0  0  0  0  0  0  0  0
    1.0080    1.4390    2.8020 C   0  0  0  0  0  0  0  0  0  0  0  0
    0.8010    2.7420    2.1760 C   0  0  0  0  0  0  0  0  0  0  0  0
    1.8410    3.3990    1.5520 C   0  0  0  0  0  0  0  0  0  0  0  0
    1.6050    4.6300    0.9750 C   0  0  0  0  0  0  0  0  0  0  0  0
    0.3710    5.2210    1.0010 C   0  0  0  0  0  0  0  0  0  0  0  0
   -0.6590    4.5780    1.6150 C   0  0  0  0  0  0  0  0  0  0  0  0
   -0.4430    3.3300    2.2070 C   0  0  0  0  0  0  0  0  0  0  0  0
    1.7960    0.2270    0.8250 N   0  0  0  0  0  0  0  0  0  0  0  0
    2.7780   -0.8060    0.7400 C   0  0  0  0  0  0  0  0  0  0  0  0
    2.7520   -1.6950    1.6220 O   0  0  0  0  0  0  0  0  0  0  0  0
    3.7310   -0.8460   -0.2680 O   0  0  0  0  0  0  0  0  0  0  0  0
    4.6560   -1.9030   -0.2640 C   0  0  1  0  0  0  0  0  0  0  0  0
    4.6680   -2.7160   -1.5360 C   0  0  0  0  0  0  0  0  0  0  0  0
    5.9690   -2.8510   -1.9440 O   0  0  0  0  0  0  0  0  0  0  0  0
    6.8070   -2.5680   -0.8880 C   0  0  1  0  0  0  0  0  0  0  0  0
    7.9910   -1.9440   -1.2830 O   0  0  0  0  0  0  0  0  0  0  0  0
    7.6750   -0.7090   -1.7850 C   0  0  0  0  0  0  0  0  0  0  0  0
    6.3240   -0.3100   -1.2330 C   0  0  2  0  0  0  0  0  0  0  0  0
    5.3990   -0.4770   -2.2600 F   0  0  0  0  0  0  0  0  0  0  0  0
    6.2970    0.9420   -0.7040 F   0  0  0  0  0  0  0  0  0  0  0  0
    6.0860   -1.4070   -0.2140 C   0  0  1  0  0  0  0  0  0  0  0  0
   -3.3360   -1.8620    0.5340 S   0  0  1  0  0  0  0  0  0  0  0  0
   -3.7910   -3.1270   -0.0860 O   0  0  0  0  0  0  0  0  0  0  0  0
   -2.9020   -2.2430    1.9570 O   0  0  0  0  0  0  0  0  0  0  0  0
   -4.7140   -0.7690    0.7270 C   0  0  0  0  0  0  0  0  0  0  0  0
   -4.9360   -0.0790    1.9000 C   0  0  0  0  0  0  0  0  0  0  0  0
   -6.0210    0.7860    2.0360 C   0  0  0  0  0  0  0  0  0  0  0  0
   -6.9020    0.9750    1.0000 C   0  0  0  0  0  0  0  0  0  0  0  0
   -8.0260    1.8670    1.1380 N   0  0  0  0  0  0  0  0  0  0  0  0
   -6.6910    0.2920   -0.1790 C   0  0  0  0  0  0  0  0  0  0  0  0
   -5.6040   -0.5720   -0.3080 C   0  0  0  0  0  0  0  0  0  0  0  0
  2  1  1  6
  2  3  1  0
  2  4  1  0
  4  5  1  0
  5  6  1  0
 31  5  1  6
  6  7  1  0
  7  8  1  1
  7  9  1  0
  9 10  1  6
  9 17  1  0
 10 11  1  0
 11 12  2  0
 11 16  1  0
 12 13  1  0
 13 14  2  0
 14 15  1  0
 15 16  2  0
 17 18  1  0
 18 19  2  0
 18 20  1  0
 21 20  1  6
 21 22  1  0
 30 21  1  6
 22 23  1  0
 24 23  1  6
 24 25  1  0
 24 30  1  0
 25 26  1  0
 26 27  1  0
 27 28  1  6
 27 29  1  0
 27 30  1  0
 31 32  2  0
 31 33  2  0
 31 34  1  0
 34 35  2  0
 34 40  1  0
 35 36  1  0
 36 37  2  0
 37 38  1  0
 37 39  1  0
 39 40  2  0
M  END
