
     RDKit          3D

 40 42  0  0  0  0  0  0  0  0999 V2000
    8.1600    2.1930   -1.4860 C   0  0  0  0  0  0  0  0  0  0  0  0
    7.0250    1.5660   -0.6550 C   0  0  0  0  0  0  0  0  0  0  0  0
    5.6970    1.7860   -1.3450 C   0  0  0  0  0  0  0  0  0  0  0  0
    4.5140    1.2760   -0.6590 C   0  0  0  0  0  0  0  0  0  0  0  0
    4.2930   -0.1580   -0.3650 C   0  0  2  0  0  0  0  0  0  0  0  0
    4.2160   -1.0740   -1.5680 C   0  0  0  0  0  0  0  0  0  0  0  0
    5.4090   -1.1810   -2.4380 C   0  0  0  0  0  0  0  0  0  0  0  0
    3.0360   -0.2800    0.4540 C   0  0  1  0  0  0  0  0  0  0  0  0
    1.7860   -0.4540   -0.2110 N   0  0  0  0  0  0  0  0  0  0  0  0
    0.5470   -0.1860    0.4710 C   0  0  0  0  0  0  0  0  0  0  0  0
    0.7230    0.1760    1.6450 O   0  0  0  0  0  0  0  0  0  0  0  0
   -0.7610   -0.2970   -0.1630 C   0  0  0  0  0  0  0  0  0  0  0  0
   -0.7920   -0.4320   -1.5020 C   0  0  0  0  0  0  0  0  0  0  0  0
   -1.9680   -0.5320   -2.2630 N   0  0  0  0  0  0  0  0  0  0  0  0
   -3.1850   -0.4890   -1.5920 C   0  0  0  0  0  0  0  0  0  0  0  0
   -3.2790   -0.3650   -0.2720 C   0  0  0  0  0  0  0  0  0  0  0  0
   -4.5740   -0.3200    0.2710 C   0  0  0  0  0  0  0  0  0  0  0  0
   -4.7630   -0.4740    1.5360 O   0  0  0  0  0  0  0  0  0  0  0  0
   -5.8310   -0.1060   -0.4560 C   0  0  0  0  0  0  0  0  0  0  0  0
   -7.0520   -0.5120    0.0210 N   0  0  0  0  0  0  0  0  0  0  0  0
   -8.0560   -0.0790   -0.6840 C   0  0  0  0  0  0  0  0  0  0  0  0
   -9.4910   -0.3710   -0.4180 C   0  0  0  0  0  0  0  0  0  0  0  0
   -7.5160    0.6720   -1.7080 C   0  0  0  0  0  0  0  0  0  0  0  0
   -8.2830    1.3400   -2.7330 C   0  0  0  0  0  0  0  0  0  0  0  0
   -7.7260    2.0910   -3.7930 N   0  0  0  0  0  0  0  0  0  0  0  0
   -9.5550    1.2790   -2.7290 O   0  0  0  0  0  0  0  0  0  0  0  0
   -6.1270    0.6530   -1.5550 C   0  0  0  0  0  0  0  0  0  0  0  0
   -5.2620    1.4830   -2.4230 C   0  0  0  0  0  0  0  0  0  0  0  0
   -2.0070   -0.2640    0.5670 C   0  0  0  0  0  0  0  0  0  0  0  0
   -2.1260   -0.5220    1.8260 C   0  0  0  0  0  0  0  0  0  0  0  0
   -1.3590   -0.9240    2.9470 C   0  0  0  0  0  0  0  0  0  0  0  0
   -0.1880   -1.2490    3.0240 O   0  0  0  0  0  0  0  0  0  0  0  0
   -2.0550   -0.9840    4.3260 C   0  0  1  0  0  0  0  0  0  0  0  0
   -1.1080   -1.3750    5.3980 C   0  0  0  0  0  0  0  0  0  0  0  0
   -2.6700    0.3490    4.6200 C   0  0  0  0  0  0  0  0  0  0  0  0
    3.6280   -1.5240    1.0770 C   0  0  0  0  0  0  0  0  0  0  0  0
    4.9940   -0.7700    0.8200 C   0  0  1  0  0  0  0  0  0  0  0  0
    5.9940   -1.6750    0.6360 O   0  0  0  0  0  0  0  0  0  0  0  0
    6.9100   -1.8300    1.6330 C   0  0  0  0  0  0  0  0  0  0  0  0
    7.8140   -0.3970    2.1750 S   0  0  0  0  0  0  0  0  0  0  0  0
  1  2  1  0
  2  3  1  0
  3  4  1  0
  5  4  1  6
  5  6  1  0
  5  8  1  0
  5 37  1  0
  6  7  1  0
  8  9  1  6
  8 36  1  0
  9 10  1  0
 10 11  2  0
 10 12  1  0
 12 13  2  0
 12 29  1  0
 13 14  1  0
 14 15  1  0
 15 16  2  0
 16 17  1  0
 16 29  1  0
 17 18  2  0
 17 19  1  0
 19 20  1  0
 19 27  2  0
 20 21  1  0
 21 22  1  0
 21 23  2  0
 23 24  1  0
 23 27  1  0
 24 25  1  0
 24 26  2  0
 27 28  1  0
 29 30  2  3
 30 31  1  0
 31 32  2  0
 31 33  1  0
 33 34  1  1
 33 35  1  0
 36 37  1  0
 37 38  1  6
 38 39  1  0
 39 40  1  0
M  END
