
     RDKit          3D

 40 42  0  0  0  0  0  0  0  0999 V2000
   -0.3760    4.3630   -0.3870 C   0  0  0  0  0  0  0  0  0  0  0  0
   -0.2340    2.9230   -0.0310 C   0  0  0  0  0  0  0  0  0  0  0  0
    0.8910    2.3990    0.5760 C   0  0  0  0  0  0  0  0  0  0  0  0
    1.0240    1.0600    0.9010 C   0  0  0  0  0  0  0  0  0  0  0  0
    2.1890    0.5810    1.5350 N   0  0  0  0  0  0  0  0  0  0  0  0
    3.3000    1.4850    1.8760 C   0  0  2  0  0  0  0  0  0  0  0  0
    2.9540    2.5500    2.8260 C   0  0  0  0  0  0  0  0  0  0  0  0
    3.9750    1.8330    0.6340 C   0  0  0  0  0  0  0  0  0  0  0  0
    3.5610    1.3320   -0.4420 O   0  0  0  0  0  0  0  0  0  0  0  0
    5.0950    2.7190    0.5570 N   0  0  0  0  0  0  0  0  0  0  0  0
    5.6880    2.9710   -0.7130 C   0  0  0  0  0  0  0  0  0  0  0  0
    6.2770    1.7380   -1.2620 C   0  0  0  0  0  0  0  0  0  0  0  0
    6.7740    1.8100   -2.4170 O   0  0  0  0  0  0  0  0  0  0  0  0
    6.3110    0.5240   -0.5730 N   0  0  0  0  0  0  0  0  0  0  0  0
    6.8980   -0.7130   -1.1390 C   0  0  2  0  0  0  0  0  0  0  0  0
    6.4560   -1.9960   -0.5270 C   0  0  0  0  0  0  0  0  0  0  0  0
    7.8060   -1.4450   -0.2030 C   0  0  1  0  0  0  0  0  0  0  0  0
    8.9980   -2.1860   -0.7530 C   0  0  0  0  0  0  0  0  0  0  0  0
    9.9250   -2.9710    0.5780 S   0  0  0  0  0  0  0  0  0  0  0  0
   11.2610   -2.2190    0.7220 O   0  0  0  0  0  0  0  0  0  0  0  0
   -0.0310    0.1920    0.6000 C   0  0  0  0  0  0  0  0  0  0  0  0
    0.0200   -1.1570    0.8720 C   0  0  0  0  0  0  0  0  0  0  0  0
   -1.0170   -2.0230    0.5610 C   0  0  0  0  0  0  0  0  0  0  0  0
   -0.9310   -3.4830    0.8600 C   0  0  1  0  0  0  0  0  0  0  0  0
   -2.0860   -3.9960    1.6630 C   0  0  0  0  0  0  0  0  0  0  0  0
   -0.8560   -4.2190   -0.4850 C   0  0  0  0  0  0  0  0  0  0  0  0
   -2.1290   -1.4850   -0.0420 C   0  0  0  0  0  0  0  0  0  0  0  0
   -2.2180   -0.1430   -0.3290 C   0  0  0  0  0  0  0  0  0  0  0  0
   -3.3070    0.4100   -0.9220 O   0  0  0  0  0  0  0  0  0  0  0  0
   -4.4890   -0.1650   -1.3670 C   0  0  2  0  0  0  0  0  0  0  0  0
   -4.7660    0.3770   -2.7540 C   0  0  0  0  0  0  0  0  0  0  0  0
   -5.6500    0.2350   -0.4820 C   0  0  0  0  0  0  0  0  0  0  0  0
   -5.4760    0.9830    0.5070 O   0  0  0  0  0  0  0  0  0  0  0  0
   -6.9580   -0.2390   -0.7690 N   0  0  0  0  0  0  0  0  0  0  0  0
   -8.0720    0.1630    0.1020 C   0  0  1  0  0  0  0  0  0  0  0  0
   -8.1680    1.6830    0.0890 C   0  0  0  0  0  0  0  0  0  0  0  0
   -9.3590   -0.3910   -0.4390 C   0  0  0  0  0  0  0  0  0  0  0  0
   -7.8450   -0.3210    1.5160 C   0  0  0  0  0  0  0  0  0  0  0  0
   -1.1690    0.7230   -0.0140 C   0  0  0  0  0  0  0  0  0  0  0  0
   -1.2640    2.0490   -0.3180 C   0  0  0  0  0  0  0  0  0  0  0  0
  1  2  1  0
  2  3  2  0
  2 40  1  0
  3  4  1  0
  4  5  1  0
  4 21  2  0
  5  6  1  0
  6  7  1  6
  6  8  1  0
  8  9  2  0
  8 10  1  0
 10 11  1  0
 11 12  1  0
 12 13  2  0
 12 14  1  0
 15 14  1  1
 15 16  1  0
 15 17  1  0
 16 17  1  0
 17 18  1  6
 18 19  1  0
 19 20  2  0
 21 22  1  0
 21 39  1  0
 22 23  2  0
 23 24  1  0
 23 27  1  0
 24 25  1  6
 24 26  1  0
 27 28  2  0
 28 29  1  0
 28 39  1  0
 29 30  1  0
 30 31  1  6
 30 32  1  0
 32 33  2  0
 32 34  1  0
 34 35  1  0
 35 36  1  1
 35 37  1  0
 35 38  1  0
 39 40  2  0
M  END
