
     RDKit          3D

 40 42  0  0  0  0  0  0  0  0999 V2000
   -2.4230   -8.0490   -1.1170 C   0  0  0  0  0  0  0  0  0  0  0  0
   -2.4140   -6.7180   -1.0090 C   0  0  0  0  0  0  0  0  0  0  0  0
   -1.4180   -5.9940   -0.2350 C   0  0  0  0  0  0  0  0  0  0  0  0
   -1.4220   -4.6740   -0.1350 C   0  0  0  0  0  0  0  0  0  0  0  0
   -0.4030   -3.9330    0.6580 C   0  0  0  0  0  0  0  0  0  0  0  0
   -2.4370   -3.8670   -0.8070 C   0  0  0  0  0  0  0  0  0  0  0  0
   -2.4610   -2.4120   -0.7120 C   0  0  0  0  0  0  0  0  0  0  0  0
   -3.3770   -1.8080   -1.3260 O   0  0  0  0  0  0  0  0  0  0  0  0
   -1.5630   -1.6620   -0.0050 O   0  0  0  0  0  0  0  0  0  0  0  0
   -1.6040   -0.2520    0.0760 C   0  0  0  0  0  0  0  0  0  0  0  0
   -2.3470    0.3720    1.0550 C   0  0  0  0  0  0  0  0  0  0  0  0
   -3.0630   -0.3530    1.9690 O   0  0  0  0  0  0  0  0  0  0  0  0
   -3.8360    0.2490    2.9840 C   0  0  0  0  0  0  0  0  0  0  0  0
   -2.3680    1.7470    1.1130 C   0  0  0  0  0  0  0  0  0  0  0  0
   -1.6790    2.5500    0.2360 C   0  0  0  0  0  0  0  0  0  0  0  0
   -1.7320    4.0230    0.3230 C   0  0  1  0  0  0  0  0  0  0  0  0
   -2.8220    4.4000    1.3540 C   0  0  0  0  0  0  0  0  0  0  0  0
   -0.4570    4.5680    0.8020 N   0  0  0  0  0  0  0  0  0  0  0  0
    0.0860    5.6760    0.0940 C   0  0  0  0  0  0  0  0  0  0  0  0
   -0.4960    6.1660   -0.8960 O   0  0  0  0  0  0  0  0  0  0  0  0
    1.3900    6.2670    0.5480 C   0  0  0  0  0  0  0  0  0  0  0  0
    1.8070    7.3690   -0.3800 C   0  0  0  0  0  0  0  0  0  0  0  0
   -0.9140    1.9280   -0.7680 C   0  0  0  0  0  0  0  0  0  0  0  0
   -0.9130    0.5350   -0.8030 C   0  0  0  0  0  0  0  0  0  0  0  0
   -0.1640   -0.1570   -1.9030 C   0  0  2  0  0  0  0  0  0  0  0  0
    1.3480   -0.9270   -1.4590 S   0  0  0  0  0  0  0  0  0  0  0  0
    2.6910    0.0890   -0.9040 C   0  0  1  0  0  0  0  0  0  0  0  0
    2.3660    0.6830    0.4460 C   0  0  0  0  0  0  0  0  0  0  0  0
    3.9670   -0.6980   -0.7380 C   0  0  0  0  0  0  0  0  0  0  0  0
    4.9720   -0.3600   -1.3950 O   0  0  0  0  0  0  0  0  0  0  0  0
    4.0510   -1.7990    0.1330 N   0  0  0  0  0  0  0  0  0  0  0  0
    5.1510   -2.6250    0.3930 C   0  0  0  0  0  0  0  0  0  0  0  0
    6.3250   -2.5000   -0.1570 C   0  0  0  0  0  0  0  0  0  0  0  0
    4.9730   -3.7160    1.3520 C   0  0  0  0  0  0  0  0  0  0  0  0
    3.8470   -3.9110    1.9400 N   0  0  0  0  0  0  0  0  0  0  0  0
   -0.1540    0.7320   -3.1210 C   0  0  0  0  0  0  0  0  0  0  0  0
    0.2930    2.1210   -2.9270 C   0  0  0  0  0  0  0  0  0  0  0  0
   -0.1370    2.7750   -1.6820 C   0  0  0  0  0  0  0  0  0  0  0  0
   -3.3530   -4.5170   -1.5190 C   0  0  0  0  0  0  0  0  0  0  0  0
   -3.3970   -5.9230   -1.6580 N   0  0  0  0  0  0  0  0  0  0  0  0
  1  2  2  0
  2  3  1  0
  2 40  1  0
  3  4  2  0
  4  5  1  0
  4  6  1  0
  6  7  1  0
  6 39  2  0
  7  8  2  0
  7  9  1  0
  9 10  1  0
 10 11  2  0
 10 24  1  0
 11 12  1  0
 11 14  1  0
 12 13  1  0
 14 15  2  0
 15 16  1  0
 15 23  1  0
 16 17  1  1
 16 18  1  0
 18 19  1  0
 19 20  2  0
 19 21  1  0
 21 22  1  0
 23 24  2  0
 23 38  1  0
 24 25  1  0
 25 26  1  1
 25 36  1  0
 26 27  1  0
 27 28  1  1
 27 29  1  0
 29 30  2  0
 29 31  1  0
 31 32  1  0
 32 33  2  0
 32 34  1  0
 34 35  2  0
 36 37  1  0
 37 38  1  0
 39 40  1  0
M  END
