
     RDKit          3D

 40 41  0  0  0  0  0  0  0  0999 V2000
   -2.6510   -4.2360    2.2210 C   0  0  0  0  0  0  0  0  0  0  0  0
   -2.8930   -2.8850    2.7370 C   0  0  0  0  0  0  0  0  0  0  0  0
   -2.8680   -1.7790    1.9940 C   0  0  0  0  0  0  0  0  0  0  0  0
   -3.1230   -0.5360    2.6340 C   0  0  0  0  0  0  0  0  0  0  0  0
   -3.2160    0.7040    2.3170 C   0  0  0  0  0  0  0  0  0  0  0  0
   -3.5220    1.6470    3.5570 C   0  0  0  0  0  0  0  0  0  0  0  0
   -3.2240    1.4760    1.1170 C   0  0  0  0  0  0  0  0  0  0  0  0
   -3.2660    2.7770    1.2640 O   0  0  0  0  0  0  0  0  0  0  0  0
   -3.2010    1.1070   -0.2350 N   0  0  0  0  0  0  0  0  0  0  0  0
   -3.1970    2.0930   -1.3400 C   0  0  1  0  0  0  0  0  0  0  0  0
   -2.1180    1.8280   -2.3330 C   0  0  0  0  0  0  0  0  0  0  0  0
   -4.5780    2.0990   -1.9660 C   0  0  1  0  0  0  0  0  0  0  0  0
   -4.6700    3.0790   -3.1040 C   0  0  0  0  0  0  0  0  0  0  0  0
   -5.0040    0.7180   -2.3910 C   0  0  0  0  0  0  0  0  0  0  0  0
   -2.5180   -1.9630    0.6410 N   0  0  0  0  0  0  0  0  0  0  0  0
   -1.1670   -1.7100    0.2280 C   0  0  0  0  0  0  0  0  0  0  0  0
   -0.5570   -0.7720    0.8870 N   0  0  0  0  0  0  0  0  0  0  0  0
    0.7770   -0.3930    0.6080 C   0  0  0  0  0  0  0  0  0  0  0  0
    1.3980    0.7000    1.4270 C   0  0  0  0  0  0  0  0  0  0  0  0
    1.4880   -0.9560   -0.3280 C   0  0  0  0  0  0  0  0  0  0  0  0
    2.8580   -0.5890   -0.6410 C   0  0  0  0  0  0  0  0  0  0  0  0
    3.4470   -1.2260   -1.5680 O   0  0  0  0  0  0  0  0  0  0  0  0
    3.5910    0.3870   -0.0340 O   0  0  0  0  0  0  0  0  0  0  0  0
    4.8990    0.7790   -0.2930 C   0  0  0  0  0  0  0  0  0  0  0  0
    5.3650    1.9180    0.5860 C   0  0  2  0  0  0  0  0  0  0  0  0
    5.3280    1.5970    2.0540 C   0  0  0  0  0  0  0  0  0  0  0  0
    6.6790    1.8640    2.6710 C   0  0  0  0  0  0  0  0  0  0  0  0
    6.6770    3.2810    3.2220 C   0  0  0  0  0  0  0  0  0  0  0  0
    6.4170    4.4750    1.8980 S   0  0  0  0  0  0  0  0  0  0  0  0
    7.3820    4.1610    0.7700 O   0  0  0  0  0  0  0  0  0  0  0  0
    4.7380    4.2580    1.2880 C   0  0  0  0  0  0  0  0  0  0  0  0
    4.6580    3.2080    0.2290 C   0  0  0  0  0  0  0  0  0  0  0  0
    0.8560   -2.0260   -1.1150 C   0  0  0  0  0  0  0  0  0  0  0  0
    1.5120   -2.5800   -2.0190 O   0  0  0  0  0  0  0  0  0  0  0  0
   -0.5470   -2.4630   -0.8590 C   0  0  0  0  0  0  0  0  0  0  0  0
   -1.1480   -3.3920   -1.5500 C   0  0  0  0  0  0  0  0  0  0  0  0
   -2.5000   -3.7890   -1.3300 N   0  0  0  0  0  0  0  0  0  0  0  0
   -0.4480   -4.1920   -2.6200 C   0  0  1  0  0  0  0  0  0  0  0  0
   -0.7260   -5.6850   -2.3430 C   0  0  0  0  0  0  0  0  0  0  0  0
   -1.0880   -3.9180   -3.9700 C   0  0  0  0  0  0  0  0  0  0  0  0
  1  2  1  0
  2  3  2  3
  3  4  1  0
  3 15  1  0
  4  5  2  3
  5  6  1  0
  5  7  1  0
  7  8  2  0
  7  9  1  0
  9 10  1  0
 10 11  1  6
 10 12  1  0
 12 13  1  6
 12 14  1  0
 15 16  1  0
 16 17  2  0
 16 35  1  0
 17 18  1  0
 18 19  1  0
 18 20  2  0
 20 21  1  0
 20 33  1  0
 21 22  2  0
 21 23  1  0
 23 24  1  0
 25 24  1  6
 25 26  1  0
 25 32  1  0
 26 27  1  0
 27 28  1  0
 29 28  1  1
 29 30  2  0
 29 31  1  0
 31 32  1  0
 33 34  2  0
 33 35  1  0
 35 36  2  3
 36 37  1  0
 36 38  1  0
 38 39  1  1
 38 40  1  0
M  END
