
     RDKit          3D

 40 42  0  0  0  0  0  0  0  0999 V2000
   11.7130   -0.8430   -0.9740 C   0  0  0  0  0  0  0  0  0  0  0  0
   10.2720   -0.8110   -0.8780 N   0  0  0  0  0  0  0  0  0  0  0  0
    9.5530    0.3910   -0.6520 C   0  0  0  0  0  0  0  0  0  0  0  0
   10.2140    1.4390   -0.5340 O   0  0  0  0  0  0  0  0  0  0  0  0
    8.0720    0.4320   -0.5490 C   0  0  2  0  0  0  0  0  0  0  0  0
    7.4450   -0.4160   -1.6420 C   0  0  0  0  0  0  0  0  0  0  0  0
    7.5980    1.8360   -0.8050 C   0  0  0  0  0  0  0  0  0  0  0  0
    7.8820    2.3990   -2.1450 C   0  0  0  0  0  0  0  0  0  0  0  0
    9.1830    2.4840   -2.5410 O   0  0  0  0  0  0  0  0  0  0  0  0
    7.6620    0.0650    0.8390 C   0  0  0  0  0  0  0  0  0  0  0  0
    6.2710    0.0650    1.1220 N   0  0  0  0  0  0  0  0  0  0  0  0
    5.3250   -0.9140    0.7250 C   0  0  0  0  0  0  0  0  0  0  0  0
    5.7080   -2.1740    0.3410 C   0  0  0  0  0  0  0  0  0  0  0  0
    4.7530   -3.0880   -0.0440 C   0  0  0  0  0  0  0  0  0  0  0  0
    3.4250   -2.7460   -0.0450 C   0  0  0  0  0  0  0  0  0  0  0  0
    2.9910   -1.4760    0.3380 C   0  0  0  0  0  0  0  0  0  0  0  0
    1.5680   -1.1600    0.3440 C   0  0  0  0  0  0  0  0  0  0  0  0
    0.3640   -2.4090    0.0230 S   0  0  0  0  0  0  0  0  0  0  0  0
   -1.0650   -1.3920    0.1610 C   0  0  0  0  0  0  0  0  0  0  0  0
   -2.4540   -1.8280    0.0160 C   0  0  0  0  0  0  0  0  0  0  0  0
   -2.6540   -3.0400   -0.2100 O   0  0  0  0  0  0  0  0  0  0  0  0
   -3.5070   -0.9180    0.1300 N   0  0  0  0  0  0  0  0  0  0  0  0
   -4.9080   -1.2940    0.0100 C   0  0  1  0  0  0  0  0  0  0  0  0
   -5.1440   -1.9580   -1.3620 C   0  0  0  0  0  0  0  0  0  0  0  0
   -5.2470   -2.2790    1.0620 C   0  0  0  0  0  0  0  0  0  0  0  0
   -5.7730   -0.0840   -0.0380 C   0  0  0  0  0  0  0  0  0  0  0  0
   -5.2140    1.0280   -0.0900 O   0  0  0  0  0  0  0  0  0  0  0  0
   -7.1800   -0.1300   -0.0270 N   0  0  0  0  0  0  0  0  0  0  0  0
   -8.0540    1.0190   -0.0830 C   0  0  1  0  0  0  0  0  0  0  0  0
   -9.2070    0.6790   -0.9830 C   0  0  0  0  0  0  0  0  0  0  0  0
  -10.2200    1.7580   -1.1610 C   0  0  0  0  0  0  0  0  0  0  0  0
  -10.3330    2.4780    0.0180 O   0  0  0  0  0  0  0  0  0  0  0  0
  -10.0990    1.5960    1.0870 C   0  0  0  0  0  0  0  0  0  0  0  0
   -8.6130    1.3930    1.2730 C   0  0  1  0  0  0  0  0  0  0  0  0
   -8.4140    0.3230    2.3150 C   0  0  0  0  0  0  0  0  0  0  0  0
   -8.0410    2.7310    1.7480 C   0  0  0  0  0  0  0  0  0  0  0  0
   -0.5380   -0.1940    0.4360 C   0  0  0  0  0  0  0  0  0  0  0  0
    0.8060   -0.0560    0.5340 C   0  0  0  0  0  0  0  0  0  0  0  0
    1.4520    1.2920    0.8280 C   0  0  0  0  0  0  0  0  0  0  0  0
    3.9460   -0.6000    0.7110 C   0  0  0  0  0  0  0  0  0  0  0  0
  1  2  1  0
  2  3  1  0
  3  4  2  0
  3  5  1  0
  5  6  1  6
  5  7  1  0
  5 10  1  0
  7  8  1  0
  8  9  1  0
 10 11  1  0
 11 12  1  0
 12 13  2  0
 12 40  1  0
 13 14  1  0
 14 15  2  0
 15 16  1  0
 16 17  1  0
 16 40  2  0
 17 18  1  0
 17 38  2  0
 18 19  1  0
 19 20  1  0
 19 37  2  0
 20 21  2  0
 20 22  1  0
 22 23  1  0
 23 24  1  6
 23 25  1  0
 23 26  1  0
 26 27  2  0
 26 28  1  0
 29 28  1  1
 29 30  1  0
 29 34  1  0
 30 31  1  0
 31 32  1  0
 32 33  1  0
 33 34  1  0
 34 35  1  1
 34 36  1  0
 37 38  1  0
 38 39  1  0
M  END
