
     RDKit          3D

 30 34  0  0  0  0  0  0  0  0999 V2000
   -6.6910   -1.8250   -1.2000 C   0  0  0  0  0  0  0  0  0  0  0  0
   -6.1310   -0.4170   -1.0030 C   0  0  1  0  0  0  0  0  0  0  0  0
   -7.2580    0.5710   -0.7570 C   0  0  0  0  0  0  0  0  0  0  0  0
   -7.0620    1.3540    0.3740 O   0  0  0  0  0  0  0  0  0  0  0  0
   -6.9460    0.5870    1.5380 C   0  0  0  0  0  0  0  0  0  0  0  0
   -5.8620   -0.4350    1.4520 C   0  0  0  0  0  0  0  0  0  0  0  0
   -5.2750   -0.3780    0.1400 N   0  0  0  0  0  0  0  0  0  0  0  0
   -3.8690   -0.2930   -0.0190 C   0  0  0  0  0  0  0  0  0  0  0  0
   -3.3330   -0.2410   -1.1680 O   0  0  0  0  0  0  0  0  0  0  0  0
   -2.9780   -0.2640    1.1560 C   0  0  0  0  0  0  0  0  0  0  0  0
   -1.5340   -0.2460    0.8330 C   0  0  0  0  0  0  0  0  0  0  0  0
   -0.6990   -1.3770    0.7310 C   0  0  0  0  0  0  0  0  0  0  0  0
    0.5280   -0.9840    0.4390 N   0  0  0  0  0  0  0  0  0  0  0  0
    0.5240    0.3710    0.3440 C   0  0  0  0  0  0  0  0  0  0  0  0
    1.5710    1.2630    0.0500 C   0  0  0  0  0  0  0  0  0  0  0  0
    2.7840    0.7980   -0.1570 N   0  0  0  0  0  0  0  0  0  0  0  0
    3.8740    0.4260   -0.4800 C   0  0  0  0  0  0  0  0  0  0  0  0
    4.3710    0.6420   -1.8200 N   0  0  0  0  0  0  0  0  0  0  0  0
    5.7020    0.9270   -2.2650 C   0  0  0  0  0  0  0  0  0  0  0  0
    6.7260   -0.1220   -1.9980 C   0  0  0  0  0  0  0  0  0  0  0  0
    6.9930   -0.3970   -0.5690 C   0  0  0  0  0  0  0  0  0  0  0  0
    8.2170   -0.6470   -0.1380 C   0  0  0  0  0  0  0  0  0  0  0  0
    8.1960   -0.8880    1.3230 C   0  0  0  0  0  0  0  0  0  0  0  0
    6.7620   -0.7350    1.6570 C   0  0  0  0  0  0  0  0  0  0  0  0
    6.0720   -0.4530    0.5680 C   0  0  0  0  0  0  0  0  0  0  0  0
    4.6540   -0.2470    0.5500 N   0  0  0  0  0  0  0  0  0  0  0  0
    1.2880    2.6350    0.0070 C   0  0  0  0  0  0  0  0  0  0  0  0
    0.0100    3.0400    0.2530 C   0  0  0  0  0  0  0  0  0  0  0  0
   -0.9680    2.1310    0.5350 C   0  0  0  0  0  0  0  0  0  0  0  0
   -0.7160    0.7920    0.5820 N   0  0  0  0  0  0  0  0  0  0  0  0
  2  1  1  1
  2  3  1  0
  2  7  1  0
  3  4  1  0
  4  5  1  0
  5  6  1  0
  6  7  1  0
  7  8  1  0
  8  9  2  0
  8 10  1  0
 10 11  1  0
 11 12  2  0
 11 30  1  0
 12 13  1  0
 13 14  2  0
 14 15  1  0
 14 30  1  0
 15 16  1  0
 15 27  2  0
 16 17  2  3
 17 18  1  0
 17 26  1  0
 18 19  1  0
 19 20  1  0
 20 21  1  0
 21 22  2  0
 21 25  1  0
 22 23  1  0
 23 24  1  0
 24 25  2  0
 25 26  1  0
 27 28  1  0
 28 29  2  0
 29 30  1  0
M  END
