
     RDKit          3D

 30 34  0  0  0  0  0  0  0  0999 V2000
   -5.5260   -2.4800    0.4880 C   0  0  0  0  0  0  0  0  0  0  0  0
   -4.4620   -1.4610    0.6010 N   0  0  0  0  0  0  0  0  0  0  0  0
   -4.6170   -0.2680   -0.1970 C   0  0  0  0  0  0  0  0  0  0  0  0
   -5.6600   -0.2660   -0.8910 O   0  0  0  0  0  0  0  0  0  0  0  0
   -3.6230    0.7860   -0.1510 C   0  0  0  0  0  0  0  0  0  0  0  0
   -2.5730    0.5520    0.6790 C   0  0  0  0  0  0  0  0  0  0  0  0
   -1.4680    1.4950    0.8700 C   0  0  0  0  0  0  0  0  0  0  0  0
   -1.4520    2.8160    1.0940 N   0  0  0  0  0  0  0  0  0  0  0  0
   -0.1990    3.2200    1.1890 N   0  0  0  0  0  0  0  0  0  0  0  0
    0.6260    2.1810    1.0300 C   0  0  0  0  0  0  0  0  0  0  0  0
    2.0030    2.0100    1.0320 C   0  0  0  0  0  0  0  0  0  0  0  0
    2.5940    0.7850    0.8390 C   0  0  0  0  0  0  0  0  0  0  0  0
    1.7460   -0.2830    0.6400 C   0  0  0  0  0  0  0  0  0  0  0  0
    0.3690   -0.1050    0.6380 C   0  0  0  0  0  0  0  0  0  0  0  0
   -0.1780    1.1040    0.8300 N   0  0  0  0  0  0  0  0  0  0  0  0
    2.5610   -1.4980    0.4570 C   0  0  0  0  0  0  0  0  0  0  0  0
    3.8820   -0.9460   -0.0010 C   0  0  2  0  0  0  0  0  0  0  0  0
    5.0000   -1.8770    0.2500 C   0  0  0  0  0  0  0  0  0  0  0  0
    4.8920   -3.0990    0.7360 C   0  0  0  0  0  0  0  0  0  0  0  0
    6.2510   -3.6720    0.8240 C   0  0  0  0  0  0  0  0  0  0  0  0
    7.1590   -2.6230    0.3220 C   0  0  0  0  0  0  0  0  0  0  0  0
    6.3970   -1.5860   -0.0040 C   0  0  0  0  0  0  0  0  0  0  0  0
    4.0030    0.3300    0.7950 C   0  0  0  0  0  0  0  0  0  0  0  0
   -3.6210    2.0130   -0.9090 C   0  0  0  0  0  0  0  0  0  0  0  0
   -4.3920    2.6010   -1.7610 C   0  0  0  0  0  0  0  0  0  0  0  0
   -5.6640    2.3120   -2.3910 C   0  0  0  0  0  0  0  0  0  0  0  0
   -6.0360    3.2640   -3.2160 N   0  0  0  0  0  0  0  0  0  0  0  0
   -5.0960    4.2600   -3.2330 N   0  0  0  0  0  0  0  0  0  0  0  0
   -4.0320    3.9360   -2.3570 C   0  0  0  0  0  0  0  0  0  0  0  0
   -3.0010    4.6300   -2.1300 O   0  0  0  0  0  0  0  0  0  0  0  0
  1  2  1  0
  2  3  1  0
  3  4  2  0
  3  5  1  0
  5  6  2  3
  5 24  1  0
  6  7  1  0
  7  8  2  0
  7 15  1  0
  8  9  1  0
  9 10  2  0
 10 11  1  0
 10 15  1  0
 11 12  2  0
 12 13  1  0
 12 23  1  0
 13 14  2  0
 13 16  1  0
 14 15  1  0
 16 17  1  0
 17 18  1  1
 17 23  1  0
 18 19  2  0
 18 22  1  0
 19 20  1  0
 20 21  1  0
 21 22  2  0
 24 25  2  3
 25 26  1  0
 25 29  1  0
 26 27  2  0
 27 28  1  0
 28 29  1  0
 29 30  2  0
M  END
