
     RDKit          3D

 30 34  0  0  0  0  0  0  0  0999 V2000
    2.1160    0.4720   -2.7390 C   0  0  0  0  0  0  0  0  0  0  0  0
    2.9100    0.1740   -1.5080 C   0  0  0  0  0  0  0  0  0  0  0  0
    4.2410    0.1430   -1.5480 N   0  0  0  0  0  0  0  0  0  0  0  0
    5.0150   -0.1110   -0.4860 C   0  0  0  0  0  0  0  0  0  0  0  0
    6.4790   -0.1280   -0.6090 C   0  0  0  0  0  0  0  0  0  0  0  0
    7.3230   -0.3810    0.4380 C   0  0  0  0  0  0  0  0  0  0  0  0
    8.7020   -0.3740    0.2220 C   0  0  0  0  0  0  0  0  0  0  0  0
    9.2340   -0.1200   -1.0140 C   0  0  0  0  0  0  0  0  0  0  0  0
    8.3920    0.1270   -2.0310 N   0  0  0  0  0  0  0  0  0  0  0  0
    7.0560    0.1260   -1.8490 C   0  0  0  0  0  0  0  0  0  0  0  0
    4.4010   -0.3460    0.6740 N   0  0  0  0  0  0  0  0  0  0  0  0
    3.0410   -0.3320    0.7940 C   0  0  0  0  0  0  0  0  0  0  0  0
    2.5710   -0.5730    1.9540 O   0  0  0  0  0  0  0  0  0  0  0  0
    2.2690   -0.0690   -0.3060 C   0  0  0  0  0  0  0  0  0  0  0  0
    0.8030   -0.0640   -0.2300 C   0  0  0  0  0  0  0  0  0  0  0  0
    0.1380    0.0120   -1.3170 O   0  0  0  0  0  0  0  0  0  0  0  0
    0.0620   -0.1350    0.9470 N   0  0  0  0  0  0  0  0  0  0  0  0
   -1.3670   -0.1410    0.9250 C   0  0  0  0  0  0  0  0  0  0  0  0
   -1.9860    0.3870    2.0760 C   0  0  0  0  0  0  0  0  0  0  0  0
   -3.3590    0.4160    2.1980 C   0  0  0  0  0  0  0  0  0  0  0  0
   -4.0490   -0.1010    1.1310 C   0  0  0  0  0  0  0  0  0  0  0  0
   -3.4920   -0.6180    0.0090 C   0  0  0  0  0  0  0  0  0  0  0  0
   -2.0930   -0.6530   -0.1280 C   0  0  0  0  0  0  0  0  0  0  0  0
   -4.3370   -1.1470   -1.0780 C   0  0  0  0  0  0  0  0  0  0  0  0
   -5.7050   -0.7440   -0.9820 N   0  0  0  0  0  0  0  0  0  0  0  0
   -6.1180    0.2210   -1.9530 C   0  0  0  0  0  0  0  0  0  0  0  0
   -6.2760   -0.6180    0.3010 C   0  0  0  0  0  0  0  0  0  0  0  0
   -5.4430   -0.0460    1.3060 N   0  0  0  0  0  0  0  0  0  0  0  0
   -5.6850    0.6390    2.5740 C   0  0  0  0  0  0  0  0  0  0  0  0
   -4.3360    0.8720    3.2140 C   0  0  0  0  0  0  0  0  0  0  0  0
  1  2  1  0
  2  3  1  0
  2 14  2  0
  3  4  2  0
  4  5  1  0
  4 11  1  0
  5  6  2  0
  5 10  1  0
  6  7  1  0
  7  8  2  0
  8  9  1  0
  9 10  2  0
 11 12  1  0
 12 13  2  0
 12 14  1  0
 14 15  1  0
 15 16  2  0
 15 17  1  0
 17 18  1  0
 18 19  2  0
 18 23  1  0
 19 20  1  0
 20 21  2  0
 20 30  1  0
 21 22  1  0
 21 28  1  0
 22 23  2  0
 22 24  1  0
 24 25  1  0
 25 26  1  0
 25 27  1  0
 27 28  1  0
 28 29  1  0
 29 30  1  0
M  END
