
     RDKit          3D

 30 34  0  0  0  0  0  0  0  0999 V2000
    5.1450    0.5090    1.6490 O   0  0  0  0  0  0  0  0  0  0  0  0
    4.1250    1.1540    1.3760 C   0  0  0  0  0  0  0  0  0  0  0  0
    3.0240    0.3800    0.6890 C   0  0  0  0  0  0  0  0  0  0  0  0
    1.7420    0.8670    1.1330 N   0  0  0  0  0  0  0  0  0  0  0  0
    0.6870    0.0050    1.4830 C   0  0  0  0  0  0  0  0  0  0  0  0
    0.4260   -0.1850    2.8250 N   0  0  0  0  0  0  0  0  0  0  0  0
   -0.4880   -0.9850    3.2880 N   0  0  0  0  0  0  0  0  0  0  0  0
   -1.2870   -1.7230    2.5090 C   0  0  0  0  0  0  0  0  0  0  0  0
   -2.2220   -2.5500    3.0530 N   0  0  0  0  0  0  0  0  0  0  0  0
   -2.9780   -3.2600    2.1910 C   0  0  0  0  0  0  0  0  0  0  0  0
   -2.8280   -3.1690    0.8280 C   0  0  0  0  0  0  0  0  0  0  0  0
   -1.8930   -2.3430    0.2100 C   0  0  0  0  0  0  0  0  0  0  0  0
   -1.1000   -1.6010    1.0840 C   0  0  0  0  0  0  0  0  0  0  0  0
   -0.0980   -0.7210    0.6160 C   0  0  0  0  0  0  0  0  0  0  0  0
   -0.0030   -0.6160   -0.6090 N   0  0  0  0  0  0  0  0  0  0  0  0
    0.6760    0.0390   -1.6010 C   0  0  0  0  0  0  0  0  0  0  0  0
    1.6060   -0.5360   -2.2210 O   0  0  0  0  0  0  0  0  0  0  0  0
    0.3610    1.4130   -1.9880 C   0  0  0  0  0  0  0  0  0  0  0  0
   -0.5820    2.1660   -1.4430 C   0  0  0  0  0  0  0  0  0  0  0  0
   -0.6360    3.5100   -2.0720 C   0  0  0  0  0  0  0  0  0  0  0  0
    0.4370    3.4200   -3.0870 C   0  0  0  0  0  0  0  0  0  0  0  0
    0.9970    2.2320   -3.0340 C   0  0  0  0  0  0  0  0  0  0  0  0
   -1.7260   -2.2210   -1.2320 C   0  0  0  0  0  0  0  0  0  0  0  0
   -2.7630   -3.0630   -1.9480 C   0  0  0  0  0  0  0  0  0  0  0  0
   -2.9120   -4.3680   -1.2460 C   0  0  0  0  0  0  0  0  0  0  0  0
   -3.7370   -4.0450    0.0170 C   0  0  0  0  0  0  0  0  0  0  0  0
    1.4290    2.2810    1.2930 C   0  0  0  0  0  0  0  0  0  0  0  0
    2.2540    3.1110    0.3650 C   0  0  0  0  0  0  0  0  0  0  0  0
    3.4490    3.6220    1.1470 C   0  0  0  0  0  0  0  0  0  0  0  0
    4.1430    2.5140    1.7460 N   0  0  0  0  0  0  0  0  0  0  0  0
  1  2  2  0
  2  3  1  0
  2 30  1  0
  3  4  1  0
  4  5  1  0
  4 27  1  0
  5  6  2  0
  5 14  1  0
  6  7  1  0
  7  8  2  0
  8  9  1  0
  8 13  1  0
  9 10  1  0
 10 11  2  0
 11 12  1  0
 11 26  1  0
 12 13  2  0
 12 23  1  0
 13 14  1  0
 14 15  2  3
 15 16  1  0
 16 17  2  0
 16 18  1  0
 18 19  2  0
 18 22  1  0
 19 20  1  0
 20 21  1  0
 21 22  2  0
 23 24  1  0
 24 25  1  0
 25 26  1  0
 27 28  1  0
 28 29  1  0
 29 30  1  0
M  END
