
     RDKit          3D

 30 34  0  0  0  0  0  0  0  0999 V2000
    3.1860   -1.9320    2.3680 O   0  0  0  0  0  0  0  0  0  0  0  0
    3.3750   -1.1480    1.4010 C   0  0  0  0  0  0  0  0  0  0  0  0
    4.6330   -0.6710    1.1130 C   0  0  0  0  0  0  0  0  0  0  0  0
    5.7450   -1.0260    1.8680 C   0  0  0  0  0  0  0  0  0  0  0  0
    6.9770   -0.5110    1.5240 C   0  0  0  0  0  0  0  0  0  0  0  0
    7.1490    0.3450    0.4580 C   0  0  0  0  0  0  0  0  0  0  0  0
    8.5140    0.8810    0.1210 C   0  0  0  0  0  0  0  0  0  0  0  0
    8.4800    1.7110   -0.9700 O   0  0  0  0  0  0  0  0  0  0  0  0
    6.0560    0.6700   -0.2520 N   0  0  0  0  0  0  0  0  0  0  0  0
    4.8210    0.1860    0.0510 C   0  0  0  0  0  0  0  0  0  0  0  0
    3.7400    0.5220   -0.6720 N   0  0  0  0  0  0  0  0  0  0  0  0
    2.4890    0.0700   -0.4160 C   0  0  0  0  0  0  0  0  0  0  0  0
    1.4400    0.4500   -1.1880 N   0  0  0  0  0  0  0  0  0  0  0  0
    0.1850    0.0230   -0.9660 C   0  0  0  0  0  0  0  0  0  0  0  0
   -0.9750    0.4350   -1.8090 C   0  0  1  0  0  0  0  0  0  0  0  0
   -1.5950   -0.7170   -2.5480 C   0  0  0  0  0  0  0  0  0  0  0  0
   -3.1030   -0.7210   -2.4430 C   0  0  0  0  0  0  0  0  0  0  0  0
   -3.4790   -0.6660   -1.0020 C   0  0  0  0  0  0  0  0  0  0  0  0
   -2.9740    0.4900   -0.3440 N   0  0  0  0  0  0  0  0  0  0  0  0
   -4.0380    1.3720    0.0720 C   0  0  0  0  0  0  0  0  0  0  0  0
   -4.9790    0.7470    1.0010 C   0  0  0  0  0  0  0  0  0  0  0  0
   -6.0660    1.4470    1.4640 C   0  0  0  0  0  0  0  0  0  0  0  0
   -6.9690    0.8680    2.3490 C   0  0  0  0  0  0  0  0  0  0  0  0
   -6.7770   -0.4190    2.7680 C   0  0  0  0  0  0  0  0  0  0  0  0
   -5.6700   -1.1040    2.2840 C   0  0  0  0  0  0  0  0  0  0  0  0
   -4.8050   -0.5100    1.4200 N   0  0  0  0  0  0  0  0  0  0  0  0
   -1.9740    1.2350   -1.0230 C   0  0  0  0  0  0  0  0  0  0  0  0
    0.0340   -0.8360    0.1090 C   0  0  0  0  0  0  0  0  0  0  0  0
    1.0970   -1.2230    0.8930 C   0  0  0  0  0  0  0  0  0  0  0  0
    2.3190   -0.7650    0.6230 N   0  0  0  0  0  0  0  0  0  0  0  0
  1  2  2  0
  2  3  1  0
  2 30  1  0
  3  4  2  0
  3 10  1  0
  4  5  1  0
  5  6  2  0
  6  7  1  0
  6  9  1  0
  7  8  1  0
  9 10  2  0
 10 11  1  0
 11 12  2  0
 12 13  1  0
 12 30  1  0
 13 14  2  0
 15 14  1  1
 14 28  1  0
 15 16  1  0
 15 27  1  0
 16 17  1  0
 17 18  1  0
 18 19  1  0
 19 20  1  0
 19 27  1  0
 20 21  1  0
 21 22  2  0
 21 26  1  0
 22 23  1  0
 23 24  2  0
 24 25  1  0
 25 26  2  0
 28 29  2  0
 29 30  1  0
M  END
