
     RDKit          3D

 30 34  0  0  0  0  0  0  0  0999 V2000
   -5.4400   -3.9820    0.7590 C   0  0  0  0  0  0  0  0  0  0  0  0
   -5.3300   -2.5380    0.4170 C   0  0  0  0  0  0  0  0  0  0  0  0
   -4.2320   -1.8940    0.3090 N   0  0  0  0  0  0  0  0  0  0  0  0
   -4.4450   -0.5180   -0.0290 C   0  0  0  0  0  0  0  0  0  0  0  0
   -3.6240    0.4950   -0.2380 C   0  0  0  0  0  0  0  0  0  0  0  0
   -2.2220    0.4400   -0.1660 N   0  0  0  0  0  0  0  0  0  0  0  0
   -1.3820   -0.6510    0.1310 C   0  0  0  0  0  0  0  0  0  0  0  0
   -1.9190   -1.7560    0.3760 O   0  0  0  0  0  0  0  0  0  0  0  0
    0.0830   -0.5300    0.1610 C   0  0  0  0  0  0  0  0  0  0  0  0
    0.7010    0.5560   -0.3640 C   0  0  0  0  0  0  0  0  0  0  0  0
    2.0740    0.6530   -0.3200 N   0  0  0  0  0  0  0  0  0  0  0  0
    2.7930   -0.3290    0.2410 C   0  0  0  0  0  0  0  0  0  0  0  0
    4.1860   -0.2400    0.2900 N   0  0  0  0  0  0  0  0  0  0  0  0
    4.9840   -1.3030    0.9010 C   0  0  0  0  0  0  0  0  0  0  0  0
    6.2830   -0.6590    1.3320 C   0  0  2  0  0  0  0  0  0  0  0  0
    6.0530    0.4770    2.3040 C   0  0  0  0  0  0  0  0  0  0  0  0
    6.9780   -0.2190    0.2410 O   0  0  0  0  0  0  0  0  0  0  0  0
    6.3070    0.6000   -0.6150 C   0  0  1  0  0  0  0  0  0  0  0  0
    6.4190   -0.0040   -2.0160 C   0  0  0  0  0  0  0  0  0  0  0  0
    4.8830    0.8820   -0.2490 C   0  0  0  0  0  0  0  0  0  0  0  0
    2.1470   -1.3870    0.7490 N   0  0  0  0  0  0  0  0  0  0  0  0
    0.8190   -1.5270    0.7320 C   0  0  0  0  0  0  0  0  0  0  0  0
   -4.2380    1.8060   -0.5780 C   0  0  0  0  0  0  0  0  0  0  0  0
   -3.6780    3.0550   -0.8540 C   0  0  0  0  0  0  0  0  0  0  0  0
   -4.6890    3.9490   -1.1110 C   0  0  0  0  0  0  0  0  0  0  0  0
   -5.8350    3.2830   -0.9990 N   0  0  0  0  0  0  0  0  0  0  0  0
   -5.5800    1.9650   -0.6720 C   0  0  0  0  0  0  0  0  0  0  0  0
   -6.5350    0.8720   -0.4500 C   0  0  0  0  0  0  0  0  0  0  0  0
   -5.8860   -0.3850   -0.1210 C   0  0  0  0  0  0  0  0  0  0  0  0
   -6.4170   -1.6120    0.1500 C   0  0  0  0  0  0  0  0  0  0  0  0
  1  2  1  0
  2  3  2  0
  2 30  1  0
  3  4  1  0
  4  5  2  0
  4 29  1  0
  5  6  1  0
  5 23  1  0
  6  7  1  0
  7  8  2  0
  7  9  1  0
  9 10  2  0
  9 22  1  0
 10 11  1  0
 11 12  2  0
 12 13  1  0
 12 21  1  0
 13 14  1  0
 13 20  1  0
 14 15  1  0
 15 16  1  1
 15 17  1  0
 17 18  1  0
 18 19  1  6
 18 20  1  0
 21 22  2  0
 23 24  1  0
 23 27  2  0
 24 25  2  0
 25 26  1  0
 26 27  1  0
 27 28  1  0
 28 29  1  0
 29 30  2  0
M  END
