
     RDKit          3D

 29 32  0  0  0  0  0  0  0  0999 V2000
   -3.2410   -5.1530    0.3060 O   0  0  0  0  0  0  0  0  0  0  0  0
   -4.4100   -4.6760    0.3740 C   0  0  0  0  0  0  0  0  0  0  0  0
   -5.5250   -5.4800    0.4420 O   0  0  0  0  0  0  0  0  0  0  0  0
   -4.6290   -3.1870    0.3830 C   0  0  0  0  0  0  0  0  0  0  0  0
   -3.2990   -2.4830    0.3020 C   0  0  0  0  0  0  0  0  0  0  0  0
   -3.5160   -1.0670    0.3120 N   0  0  0  0  0  0  0  0  0  0  0  0
   -2.4340   -0.1270    0.2450 C   0  0  0  0  0  0  0  0  0  0  0  0
   -1.1260   -0.5710    0.1680 C   0  0  0  0  0  0  0  0  0  0  0  0
   -0.0740    0.3130    0.1040 C   0  0  0  0  0  0  0  0  0  0  0  0
    1.3050   -0.0970    0.0410 N   0  0  0  0  0  0  0  0  0  0  0  0
    2.1310    0.9330   -0.5200 C   0  0  0  0  0  0  0  0  0  0  0  0
    3.3940    1.2230    0.2260 C   0  0  0  0  0  0  0  0  0  0  0  0
    4.2850    0.0140    0.0890 C   0  0  0  0  0  0  0  0  0  0  0  0
    5.4450    0.2410   -0.6030 C   0  0  0  0  0  0  0  0  0  0  0  0
    6.2910   -0.8610   -0.7550 C   0  0  0  0  0  0  0  0  0  0  0  0
    5.9980   -2.0970   -0.2520 C   0  0  0  0  0  0  0  0  0  0  0  0
    4.8200   -2.2940    0.4420 C   0  0  0  0  0  0  0  0  0  0  0  0
    3.9750   -1.2240    0.6020 C   0  0  0  0  0  0  0  0  0  0  0  0
    2.7790   -1.6010    1.3660 C   0  0  0  0  0  0  0  0  0  0  0  0
    1.5570   -1.4050    0.5330 C   0  0  0  0  0  0  0  0  0  0  0  0
   -0.3960    1.6300    0.1200 N   0  0  0  0  0  0  0  0  0  0  0  0
   -1.6510    2.0970    0.1930 C   0  0  0  0  0  0  0  0  0  0  0  0
   -1.9330    3.5430    0.2060 C   0  0  0  0  0  0  0  0  0  0  0  0
   -3.2440    3.9540    0.2830 C   0  0  0  0  0  0  0  0  0  0  0  0
   -3.5430    5.2980    0.2970 C   0  0  0  0  0  0  0  0  0  0  0  0
   -2.5330    6.2550    0.2350 C   0  0  0  0  0  0  0  0  0  0  0  0
   -1.2330    5.7930    0.1590 C   0  0  0  0  0  0  0  0  0  0  0  0
   -0.9560    4.4580    0.1460 N   0  0  0  0  0  0  0  0  0  0  0  0
   -2.6450    1.1940    0.2550 N   0  0  0  0  0  0  0  0  0  0  0  0
  1  2  2  0
  2  3  1  0
  2  4  1  0
  4  5  1  0
  5  6  1  0
  6  7  1  0
  7  8  2  0
  7 29  1  0
  8  9  1  0
  9 10  1  0
  9 21  2  0
 10 11  1  0
 10 20  1  0
 11 12  1  0
 12 13  1  0
 13 14  2  0
 13 18  1  0
 14 15  1  0
 15 16  2  0
 16 17  1  0
 17 18  2  0
 18 19  1  0
 19 20  1  0
 21 22  1  0
 22 23  1  0
 22 29  2  0
 23 24  2  0
 23 28  1  0
 24 25  1  0
 25 26  2  0
 26 27  1  0
 27 28  2  0
M  END
