
     RDKit          3D

 30 34  0  0  0  0  0  0  0  0999 V2000
    0.2090    1.0410    3.6900 C   0  0  0  0  0  0  0  0  0  0  0  0
   -0.3780    0.5570    2.3990 C   0  0  0  0  0  0  0  0  0  0  0  0
    0.4030    0.0270    1.3990 C   0  0  0  0  0  0  0  0  0  0  0  0
   -0.0990   -0.4280    0.1990 C   0  0  0  0  0  0  0  0  0  0  0  0
    0.6850   -0.9600   -0.8040 C   0  0  0  0  0  0  0  0  0  0  0  0
    2.0860   -1.0420   -0.5890 N   0  0  0  0  0  0  0  0  0  0  0  0
    2.8740   -0.1010   -0.9850 C   0  0  0  0  0  0  0  0  0  0  0  0
    4.2680   -0.1180   -0.8050 N   0  0  0  0  0  0  0  0  0  0  0  0
    5.0410   -1.2440   -1.2390 C   0  0  0  0  0  0  0  0  0  0  0  0
    6.2480   -0.6930   -2.0030 C   0  0  0  0  0  0  0  0  0  0  0  0
    6.9110    0.1570   -1.0930 O   0  0  0  0  0  0  0  0  0  0  0  0
    6.1450    1.3300   -1.0240 C   0  0  0  0  0  0  0  0  0  0  0  0
    4.9230    0.9960   -0.1830 C   0  0  2  0  0  0  0  0  0  0  0  0
    5.4290    0.5970    1.2060 C   0  0  0  0  0  0  0  0  0  0  0  0
    0.0870   -1.3730   -1.9340 N   0  0  0  0  0  0  0  0  0  0  0  0
   -1.2480   -1.2940   -2.1370 C   0  0  0  0  0  0  0  0  0  0  0  0
   -1.7920   -1.6860   -3.2020 O   0  0  0  0  0  0  0  0  0  0  0  0
   -2.0760   -0.7710   -1.1670 C   0  0  0  0  0  0  0  0  0  0  0  0
   -3.4860   -0.6780   -1.3590 N   0  0  0  0  0  0  0  0  0  0  0  0
   -4.2630   -0.1890   -0.4500 C   0  0  0  0  0  0  0  0  0  0  0  0
   -5.7290   -0.0960   -0.6580 C   0  0  0  0  0  0  0  0  0  0  0  0
   -6.3770   -1.0140   -1.4580 C   0  0  0  0  0  0  0  0  0  0  0  0
   -7.7400   -0.8970   -1.6290 C   0  0  0  0  0  0  0  0  0  0  0  0
   -8.4440    0.1170   -1.0130 C   0  0  0  0  0  0  0  0  0  0  0  0
   -7.7820    1.0160   -0.2240 C   0  0  0  0  0  0  0  0  0  0  0  0
   -6.4330    0.9130   -0.0460 C   0  0  0  0  0  0  0  0  0  0  0  0
   -3.6610    0.2580    0.7590 N   0  0  0  0  0  0  0  0  0  0  0  0
   -2.2630    0.1920    1.0090 C   0  0  0  0  0  0  0  0  0  0  0  0
   -1.7050    0.6220    2.1650 N   0  0  0  0  0  0  0  0  0  0  0  0
   -1.4820   -0.3420    0.0000 C   0  0  0  0  0  0  0  0  0  0  0  0
  1  2  1  0
  2  3  2  0
  2 29  1  0
  3  4  1  0
  4  5  2  0
  4 30  1  0
  5  6  1  0
  5 15  1  0
  6  7  2  3
  7  8  1  0
  8  9  1  0
  8 13  1  0
  9 10  1  0
 10 11  1  0
 11 12  1  0
 12 13  1  0
 13 14  1  1
 15 16  1  0
 16 17  2  0
 16 18  1  0
 18 19  1  0
 18 30  2  0
 19 20  2  0
 20 21  1  0
 20 27  1  0
 21 22  2  0
 21 26  1  0
 22 23  1  0
 23 24  2  0
 24 25  1  0
 25 26  2  0
 27 28  1  0
 28 29  2  0
 28 30  1  0
M  END
