
     RDKit          3D

 10 10  0  0  0  0  0  0  0  0999 V2000
   -2.1830    0.0640   -0.1060 C   0  0  0  0  0  0  0  0  0  0  0  0
   -0.7670   -0.3870   -0.1740 C   0  0  1  0  0  0  0  0  0  0  0  0
   -0.6200   -1.7260    0.1980 O   0  0  0  0  0  0  0  0  0  0  0  0
   -0.1720   -0.2370   -1.4090 O   0  0  0  0  0  0  0  0  0  0  0  0
    1.1820   -0.1730   -1.2520 C   0  0  0  0  0  0  0  0  0  0  0  0
    1.4720    0.1410    0.2030 C   0  0  2  0  0  0  0  0  0  0  0  0
    1.9060   -1.0500    0.7880 O   0  0  0  0  0  0  0  0  0  0  0  0
    0.0840    0.5210    0.6950 C   0  0  2  0  0  0  0  0  0  0  0  0
   -0.0930    0.3260    2.0340 O   0  0  0  0  0  0  0  0  0  0  0  0
   -0.1620    1.8200    0.2930 O   0  0  0  0  0  0  0  0  0  0  0  0
  2  1  1  6
  2  3  1  0
  2  4  1  0
  2  8  1  0
  4  5  1  0
  5  6  1  0
  6  7  1  1
  6  8  1  0
  8  9  1  1
  8 10  1  0
M  END
