
     RDKit          3D

 28 29  0  0  0  0  0  0  0  0999 V2000
   -3.6290    1.2890    1.7820 C   0  0  0  0  0  0  0  0  0  0  0  0
   -4.0940    1.2440    0.3480 C   0  0  0  0  0  0  0  0  0  0  0  0
   -3.2420    0.8310   -0.6160 N   0  0  0  0  0  0  0  0  0  0  0  0
   -2.5890   -0.3030   -1.0070 C   0  0  1  0  0  0  0  0  0  0  0  0
   -1.3990   -0.6970   -0.0870 C   0  0  0  0  0  0  0  0  0  0  0  0
   -1.2910   -1.6750    0.5270 O   0  0  0  0  0  0  0  0  0  0  0  0
   -0.4670    0.3160   -0.1210 N   0  0  0  0  0  0  0  0  0  0  0  0
    0.4380    1.0820   -0.1610 C   0  0  0  0  0  0  0  0  0  0  0  0
    0.0500    2.8770   -0.0600 S   0  0  0  0  0  0  0  0  0  0  0  0
    1.5520    3.4180   -0.8090 C   0  0  0  0  0  0  0  0  0  0  0  0
    1.8950    4.7250   -1.2410 O   0  0  0  0  0  0  0  0  0  0  0  0
    3.1210    5.3180   -1.0670 C   0  0  0  0  0  0  0  0  0  0  0  0
    2.3540    2.3810   -0.9370 C   0  0  0  0  0  0  0  0  0  0  0  0
    1.8540    1.0920   -0.5560 C   0  0  0  0  0  0  0  0  0  0  0  0
    2.6990    0.1160   -0.2940 C   0  0  0  0  0  0  0  0  0  0  0  0
    4.4450    0.1360   -0.8290 S   0  0  0  0  0  0  0  0  0  0  0  0
    4.9990   -1.0640    0.3410 C   0  0  0  0  0  0  0  0  0  0  0  0
    6.2620   -1.3620    0.5610 O   0  0  0  0  0  0  0  0  0  0  0  0
    3.8770   -1.6050    0.9660 N   0  0  0  0  0  0  0  0  0  0  0  0
    4.0640   -2.6260    2.0020 C   0  0  0  0  0  0  0  0  0  0  0  0
    4.4460   -3.9730    1.4350 C   0  0  0  0  0  0  0  0  0  0  0  0
    4.4460   -4.9680    2.0820 O   0  0  0  0  0  0  0  0  0  0  0  0
    4.9010   -3.8830   -0.3000 Cl  0  0  0  0  0  0  0  0  0  0  0  0
    2.6560   -1.0100    0.6340 C   0  0  0  0  0  0  0  0  0  0  0  0
    1.5360   -1.4280    1.1260 O   0  0  0  0  0  0  0  0  0  0  0  0
   -3.5290   -1.5070   -1.1080 C   0  0  1  0  0  0  0  0  0  0  0  0
   -2.8060   -2.6860   -1.6560 C   0  0  0  0  0  0  0  0  0  0  0  0
   -4.0530   -1.9190    0.2280 C   0  0  0  0  0  0  0  0  0  0  0  0
  1  2  1  0
  2  3  1  0
  4  3  1  1
  4  5  1  0
  4 26  1  0
  5  6  2  0
  5  7  1  0
  7  8  2  3
  8  9  1  0
  8 14  1  0
  9 10  1  0
 10 11  1  0
 10 13  2  0
 11 12  1  0
 13 14  1  0
 14 15  2  3
 15 16  1  0
 15 24  1  0
 16 17  1  0
 17 18  2  0
 17 19  1  0
 19 20  1  0
 19 24  1  0
 20 21  1  0
 21 22  2  0
 21 23  1  0
 24 25  2  0
 26 27  1  1
 26 28  1  0
M  END
