
     RDKit          3D

 28 30  0  0  0  0  0  0  0  0999 V2000
   -0.7270   -0.6410    1.9970 C   0  0  0  0  0  0  0  0  0  0  0  0
   -0.6030   -0.6610    0.5870 N   0  0  0  0  0  0  0  0  0  0  0  0
    0.6960   -0.2020    0.1890 C   0  0  0  0  0  0  0  0  0  0  0  0
    1.7590   -1.1630    0.5580 C   0  0  0  0  0  0  0  0  0  0  0  0
    1.4510   -2.2170    1.1360 O   0  0  0  0  0  0  0  0  0  0  0  0
    3.1480   -0.9160    0.2650 N   0  0  0  0  0  0  0  0  0  0  0  0
    4.0790   -1.8890    0.6480 C   0  0  0  0  0  0  0  0  0  0  0  0
    5.3550   -1.7430    0.4060 C   0  0  0  0  0  0  0  0  0  0  0  0
    5.8950   -0.5490   -0.2840 C   0  0  0  0  0  0  0  0  0  0  0  0
    7.1320   -0.3660   -0.5430 N   0  0  0  0  0  0  0  0  0  0  0  0
    7.2250    1.1540   -1.3440 S   0  0  1  0  0  0  0  0  0  0  0  0
    8.0080    2.1690   -0.5660 O   0  0  0  0  0  0  0  0  0  0  0  0
    7.7320    1.0210   -2.7510 O   0  0  0  0  0  0  0  0  0  0  0  0
    5.5170    1.5060   -1.3010 C   0  0  0  0  0  0  0  0  0  0  0  0
    4.7070    2.9180   -1.9250 Cl  0  0  0  0  0  0  0  0  0  0  0  0
    4.9720    0.4480   -0.6790 C   0  0  0  0  0  0  0  0  0  0  0  0
    3.5280    0.2880   -0.3960 C   0  0  0  0  0  0  0  0  0  0  0  0
   -1.7040   -0.1820   -0.1810 C   0  0  2  0  0  0  0  0  0  0  0  0
   -2.0320    1.2680    0.0420 C   0  0  0  0  0  0  0  0  0  0  0  0
   -3.3900    1.3780    0.6660 C   0  0  1  0  0  0  0  0  0  0  0  0
   -3.2710    2.1910    1.9390 C   0  0  0  0  0  0  0  0  0  0  0  0
   -4.3990    2.0110   -0.2780 C   0  0  0  0  0  0  0  0  0  0  0  0
   -3.8470   -0.0190    0.9530 C   0  0  0  0  0  0  0  0  0  0  0  0
   -2.9770   -0.9100    0.1190 C   0  0  1  0  0  0  0  0  0  0  0  0
   -3.8210   -1.4360   -1.3500 S   0  0  2  0  0  0  0  0  0  0  0  0
   -2.7850   -2.5300   -2.2920 C   0  0  0  0  0  0  0  0  0  0  0  0
   -4.2610   -0.3250   -2.2230 O   0  0  0  0  0  0  0  0  0  0  0  0
   -5.0380   -2.2090   -0.9150 O   0  0  0  0  0  0  0  0  0  0  0  0
  1  2  1  0
  2  3  1  0
 18  2  1  1
  3  4  1  0
  4  5  2  0
  4  6  1  0
  6  7  1  0
  6 17  1  0
  7  8  2  0
  8  9  1  0
  9 10  2  0
  9 16  1  0
 11 10  1  1
 11 12  2  0
 11 13  2  0
 11 14  1  0
 14 15  1  0
 14 16  2  0
 16 17  1  0
 18 19  1  0
 18 24  1  0
 19 20  1  0
 20 21  1  1
 20 22  1  0
 20 23  1  0
 24 23  1  6
 24 25  1  0
 25 26  1  6
 25 27  2  0
 25 28  2  0
M  END
