
     RDKit          3D

 10  9  0  0  0  0  0  0  0  0999 V2000
   -1.5120   -2.7300    0.3040 C   0  0  0  0  0  0  0  0  0  0  0  0
   -2.0590   -1.5600    0.6150 C   0  0  0  0  0  0  0  0  0  0  0  0
   -1.4840   -0.2960    0.2040 C   0  0  0  0  0  0  0  0  0  0  0  0
   -2.0850    0.8260    0.5510 C   0  0  0  0  0  0  0  0  0  0  0  0
   -1.5540    2.1650    0.1650 C   0  0  0  0  0  0  0  0  0  0  0  0
   -2.4610    2.8840   -0.6020 O   0  0  0  0  0  0  0  0  0  0  0  0
   -0.2840   -0.3030   -0.5660 N   0  0  0  0  0  0  0  0  0  0  0  0
    0.9710   -0.1860    0.1390 C   0  0  0  0  0  0  0  0  0  0  0  0
    2.1590   -0.2060   -0.7800 C   0  0  0  0  0  0  0  0  0  0  0  0
    3.4050   -0.0780    0.0690 C   0  0  0  0  0  0  0  0  0  0  0  0
  1  2  2  0
  2  3  1  0
  3  4  2  3
  3  7  1  0
  4  5  1  0
  5  6  1  0
  7  8  1  0
  8  9  1  0
  9 10  1  0
M  END
