
     RDKit          3D

 28 30  0  0  0  0  0  0  0  0999 V2000
    6.8540    3.1370    1.2190 C   0  0  0  0  0  0  0  0  0  0  0  0
    5.8500    2.2050    0.9000 O   0  0  0  0  0  0  0  0  0  0  0  0
    5.7560    0.9400    1.4250 C   0  0  0  0  0  0  0  0  0  0  0  0
    6.6040    0.5560    2.2470 O   0  0  0  0  0  0  0  0  0  0  0  0
    4.6900    0.0650    1.0330 C   0  0  0  0  0  0  0  0  0  0  0  0
    3.3800    0.3850   -0.0960 S   0  0  0  0  0  0  0  0  0  0  0  0
    2.6050   -1.3290    0.1220 C   0  0  0  0  0  0  0  0  0  0  0  0
    1.4270   -1.6290   -0.6110 N   0  0  0  0  0  0  0  0  0  0  0  0
    0.1120   -1.1310   -0.2700 C   0  0  0  0  0  0  0  0  0  0  0  0
   -0.7530   -1.3890   -1.4650 C   0  0  1  0  0  0  0  0  0  0  0  0
   -0.8790   -0.3620   -2.3460 O   0  0  0  0  0  0  0  0  0  0  0  0
   -2.0860   -0.0300   -2.8400 C   0  0  0  0  0  0  0  0  0  0  0  0
   -3.1550    0.4260   -1.9500 C   0  0  0  0  0  0  0  0  0  0  0  0
   -4.2530    0.7280   -2.5500 O   0  0  0  0  0  0  0  0  0  0  0  0
   -3.0940    0.5590   -0.5450 N   0  0  0  0  0  0  0  0  0  0  0  0
   -4.2710    1.0310    0.1860 C   0  0  2  0  0  0  0  0  0  0  0  0
   -4.6590    2.4440   -0.2790 C   0  0  0  0  0  0  0  0  0  0  0  0
   -3.3300    3.5800    0.0020 Cl  0  0  0  0  0  0  0  0  0  0  0  0
   -3.9800    1.1470    1.6340 C   0  0  0  0  0  0  0  0  0  0  0  0
   -4.1160   -0.1690    2.3190 C   0  0  0  0  0  0  0  0  0  0  0  0
   -5.5220   -0.8980    1.4160 S   0  0  0  0  0  0  0  0  0  0  0  0
   -5.4560    0.1710   -0.0670 C   0  0  0  0  0  0  0  0  0  0  0  0
   -0.0580   -2.5930   -2.1520 C   0  0  0  0  0  0  0  0  0  0  0  0
    1.3730   -2.4420   -1.7580 C   0  0  0  0  0  0  0  0  0  0  0  0
    2.3210   -2.9730   -2.3800 O   0  0  0  0  0  0  0  0  0  0  0  0
    3.3790   -1.7880    0.9140 N   0  0  0  0  0  0  0  0  0  0  0  0
    4.4230   -1.2430    1.4420 C   0  0  0  0  0  0  0  0  0  0  0  0
    5.3270   -1.9240    2.4330 C   0  0  0  0  0  0  0  0  0  0  0  0
  1  2  1  0
  2  3  1  0
  3  4  2  0
  3  5  1  0
  5  6  1  0
  5 27  2  0
  6  7  1  0
  7  8  1  0
  7 26  2  0
  8  9  1  0
  8 24  1  0
  9 10  1  0
 10 11  1  6
 10 23  1  0
 11 12  1  0
 12 13  1  0
 13 14  2  0
 13 15  1  0
 15 16  1  0
 16 17  1  6
 16 19  1  0
 16 22  1  0
 17 18  1  0
 19 20  1  0
 20 21  1  0
 21 22  1  0
 23 24  1  0
 24 25  2  0
 26 27  1  0
 27 28  1  0
M  END
