
     RDKit          3D

 28 29  0  0  0  0  0  0  0  0999 V2000
   -6.3260   -3.5860    0.1890 C   0  0  0  0  0  0  0  0  0  0  0  0
   -4.7880   -4.4850    0.5390 S   0  0  0  0  0  0  0  0  0  0  0  0
   -3.4590   -3.6930   -0.3700 C   0  0  0  0  0  0  0  0  0  0  0  0
   -3.1770   -2.3210    0.1150 C   0  0  0  0  0  0  0  0  0  0  0  0
   -3.8470   -1.8550    1.0690 O   0  0  0  0  0  0  0  0  0  0  0  0
   -2.1570   -1.5370   -0.4950 N   0  0  0  0  0  0  0  0  0  0  0  0
   -1.4020   -2.0720   -1.5770 C   0  0  0  0  0  0  0  0  0  0  0  0
    0.0730   -1.7850   -1.4440 C   0  0  0  0  0  0  0  0  0  0  0  0
    0.3870   -0.3820   -1.1230 C   0  0  2  0  0  0  0  0  0  0  0  0
    1.4600   -0.3800   -0.1040 N   0  0  0  0  0  0  0  0  0  0  0  0
    1.1630   -1.0510    1.1090 C   0  0  0  0  0  0  0  0  0  0  0  0
    2.6780    0.2240   -0.4140 C   0  0  0  0  0  0  0  0  0  0  0  0
    2.7430    0.7020   -1.6170 O   0  0  0  0  0  0  0  0  0  0  0  0
    3.8610    0.3910    0.4060 C   0  0  0  0  0  0  0  0  0  0  0  0
    4.0140   -0.0040    1.6740 C   0  0  0  0  0  0  0  0  0  0  0  0
    5.3610    0.3300    2.2010 C   0  0  0  0  0  0  0  0  0  0  0  0
    5.9990    0.9520    1.1510 O   0  0  0  0  0  0  0  0  0  0  0  0
    5.1310    1.0210    0.0190 C   0  0  0  0  0  0  0  0  0  0  0  0
    5.5510    1.5710   -1.0660 C   0  0  0  0  0  0  0  0  0  0  0  0
    4.6980    1.7720   -2.5550 Cl  0  0  0  0  0  0  0  0  0  0  0  0
   -0.7790    0.4840   -0.7440 C   0  0  2  0  0  0  0  0  0  0  0  0
   -0.3490    1.7370   -0.0150 C   0  0  0  0  0  0  0  0  0  0  0  0
   -1.4800    2.5640    0.3460 N   0  0  0  0  0  0  0  0  0  0  0  0
   -1.0330    3.9860    1.1680 S   0  0  1  0  0  0  0  0  0  0  0  0
    0.0030    5.0370    0.1810 C   0  0  0  0  0  0  0  0  0  0  0  0
   -2.3020    4.7630    1.4600 O   0  0  0  0  0  0  0  0  0  0  0  0
   -0.2820    3.7090    2.4400 O   0  0  0  0  0  0  0  0  0  0  0  0
   -1.8920   -0.2060   -0.0160 C   0  0  0  0  0  0  0  0  0  0  0  0
  1  2  1  0
  2  3  1  0
  3  4  1  0
  4  5  2  0
  4  6  1  0
  6  7  1  0
  6 28  1  0
  7  8  1  0
  8  9  1  0
  9 10  1  1
  9 21  1  0
 10 11  1  0
 10 12  1  0
 12 13  2  0
 12 14  1  0
 14 15  2  0
 14 18  1  0
 15 16  1  0
 16 17  1  0
 17 18  1  0
 18 19  2  3
 19 20  1  0
 21 22  1  1
 21 28  1  0
 22 23  1  0
 23 24  1  0
 24 25  1  6
 24 26  2  0
 24 27  2  0
M  END
