
     RDKit          3D

 10  9  0  0  0  0  0  0  0  0999 V2000
   -0.9560   -2.2190   -0.2510 C   0  0  0  0  0  0  0  0  0  0  0  0
   -1.4700   -1.0520   -0.0250 C   0  0  0  0  0  0  0  0  0  0  0  0
   -0.8600    0.2400    0.0650 C   0  0  0  0  0  0  0  0  0  0  0  0
   -1.6950    1.2800    0.3190 C   0  0  0  0  0  0  0  0  0  0  0  0
   -3.1360    1.0690    0.4870 C   0  0  0  0  0  0  0  0  0  0  0  0
    0.5080    0.4870   -0.0890 N   0  0  0  0  0  0  0  0  0  0  0  0
    1.0350    1.5520    0.8090 C   0  0  0  0  0  0  0  0  0  0  0  0
    1.3540   -0.1300   -1.0440 C   0  0  0  0  0  0  0  0  0  0  0  0
    2.4810   -0.9180   -0.4080 C   0  0  0  0  0  0  0  0  0  0  0  0
    3.2670   -1.5040   -1.3930 O   0  0  0  0  0  0  0  0  0  0  0  0
  1  2  2  0
  2  3  1  0
  3  4  2  3
  3  6  1  0
  4  5  1  0
  6  7  1  0
  6  8  1  0
  8  9  1  0
  9 10  1  0
M  END
