
     RDKit          3D

 44 48  0  0  0  0  0  0  0  0999 V2000
   -9.8920    3.1430   -1.6820 N   0  0  0  0  0  0  0  0  0  0  0  0
  -10.2640    1.8770   -1.3320 C   0  0  0  0  0  0  0  0  0  0  0  0
  -11.4050    1.4150   -1.5490 O   0  0  0  0  0  0  0  0  0  0  0  0
   -9.2930    0.9410   -0.6570 C   0  0  0  0  0  0  0  0  0  0  0  0
   -8.1390    1.1400   -0.3020 C   0  0  0  0  0  0  0  0  0  0  0  0
   -7.2300    0.1350    0.3350 N   0  0  0  0  0  0  0  0  0  0  0  0
   -5.9050    0.3960    0.4900 C   0  0  2  0  0  0  0  0  0  0  0  0
   -5.1000   -0.8040    0.5990 O   0  0  0  0  0  0  0  0  0  0  0  0
   -3.8900   -0.0790    0.1860 C   0  0  2  0  0  0  0  0  0  0  0  0
   -2.9080   -0.9870   -0.3450 C   0  0  0  0  0  0  0  0  0  0  0  0
   -1.9510   -0.2080   -1.0190 O   0  0  0  0  0  0  0  0  0  0  0  0
   -0.8940   -1.1700   -1.8820 P   0  0  2  0  0  0  0  0  0  0  0  0
   -1.1510   -1.2930   -3.3300 O   0  0  0  0  0  0  0  0  0  0  0  0
   -0.8080   -2.7370   -1.2440 O   0  0  0  0  0  0  0  0  0  0  0  0
    0.6490   -0.4260   -1.7340 O   0  0  0  0  0  0  0  0  0  0  0  0
    1.6610   -1.3510   -0.8280 P   0  0  1  0  0  0  0  0  0  0  0  0
    1.1430   -1.6060    0.5310 O   0  0  0  0  0  0  0  0  0  0  0  0
    1.7900   -2.9110   -1.6650 O   0  0  0  0  0  0  0  0  0  0  0  0
    3.2530   -0.8080   -0.7770 O   0  0  0  0  0  0  0  0  0  0  0  0
    3.6490   -0.8730    0.6140 C   0  0  0  0  0  0  0  0  0  0  0  0
    4.8720   -1.8530    0.4310 C   0  0  1  0  0  0  0  0  0  0  0  0
    5.6620   -1.4290   -0.5890 O   0  0  0  0  0  0  0  0  0  0  0  0
    6.9350   -1.2760   -0.1100 C   0  0  1  0  0  0  0  0  0  0  0  0
    7.5490   -0.1500   -0.7520 N   0  0  0  0  0  0  0  0  0  0  0  0
    7.5990   -0.0340   -2.0970 C   0  0  0  0  0  0  0  0  0  0  0  0
    8.1860    1.1150   -2.4200 N   0  0  0  0  0  0  0  0  0  0  0  0
    8.5220    1.7410   -1.2750 C   0  0  0  0  0  0  0  0  0  0  0  0
    9.1690    2.9300   -0.8970 C   0  0  0  0  0  0  0  0  0  0  0  0
    9.5710    3.7560   -2.0180 N   0  0  0  0  0  0  0  0  0  0  0  0
    9.3560    3.2310    0.3710 N   0  0  0  0  0  0  0  0  0  0  0  0
    8.9390    2.4280    1.3670 C   0  0  0  0  0  0  0  0  0  0  0  0
    8.3300    1.2970    1.0230 N   0  0  0  0  0  0  0  0  0  0  0  0
    8.1130    0.9270   -0.2110 C   0  0  0  0  0  0  0  0  0  0  0  0
    6.8710   -1.2250    1.3610 C   0  0  2  0  0  0  0  0  0  0  0  0
    7.9260   -1.9300    1.9970 O   0  0  0  0  0  0  0  0  0  0  0  0
    5.6140   -2.0030    1.6800 C   0  0  2  0  0  0  0  0  0  0  0  0
    5.9230   -3.3630    1.8590 O   0  0  0  0  0  0  0  0  0  0  0  0
   -3.8070    0.7190    1.4390 C   0  0  1  0  0  0  0  0  0  0  0  0
   -2.8640    1.6930    1.5220 O   0  0  0  0  0  0  0  0  0  0  0  0
   -5.2730    1.3990    1.3450 C   0  0  1  0  0  0  0  0  0  0  0  0
   -4.9970    2.5490    0.5850 O   0  0  0  0  0  0  0  0  0  0  0  0
   -7.8780   -1.1370    0.4850 C   0  0  0  0  0  0  0  0  0  0  0  0
   -9.0430   -1.3790    0.1440 C   0  0  0  0  0  0  0  0  0  0  0  0
   -9.9820   -0.4280   -0.4760 C   0  0  0  0  0  0  0  0  0  0  0  0
  1  2  1  0
  2  3  2  0
  2  4  1  0
  4  5  2  0
  4 44  1  0
  5  6  1  0
  7  6  1  1
  6 42  1  0
  7  8  1  0
  7 40  1  0
  8  9  1  0
  9 10  1  1
  9 38  1  0
 10 11  1  0
 11 12  1  0
 12 13  2  0
 12 14  1  1
 12 15  1  0
 15 16  1  0
 16 17  2  0
 16 18  1  6
 16 19  1  0
 19 20  1  0
 21 20  1  1
 21 22  1  0
 21 36  1  0
 22 23  1  0
 23 24  1  6
 23 34  1  0
 24 25  1  0
 24 33  1  0
 25 26  2  0
 26 27  1  0
 27 28  2  0
 27 33  1  0
 28 29  1  0
 28 30  1  0
 30 31  2  0
 31 32  1  0
 32 33  2  0
 34 35  1  1
 34 36  1  0
 36 37  1  6
 38 39  1  6
 38 40  1  0
 40 41  1  6
 42 43  2  0
 43 44  1  0
M  END
