
     RDKit          3D

 43 45  0  0  0  0  0  0  0  0999 V2000
   -2.6010    2.0250   -4.0880 O   0  0  0  0  0  0  0  0  0  0  0  0
   -1.9960    2.4220   -3.0080 C   0  0  0  0  0  0  0  0  0  0  0  0
   -2.0390    3.8050   -2.6840 N   0  0  0  0  0  0  0  0  0  0  0  0
   -0.9140    4.6800   -2.4940 C   0  0  0  0  0  0  0  0  0  0  0  0
   -0.9760    5.5120   -1.2430 C   0  0  0  0  0  0  0  0  0  0  0  0
   -0.3350    4.9950   -0.1530 O   0  0  0  0  0  0  0  0  0  0  0  0
    0.7940    4.2380   -0.4520 C   0  0  0  0  0  0  0  0  0  0  0  0
    0.3430    2.9540   -0.7790 O   0  0  0  0  0  0  0  0  0  0  0  0
    1.1240    1.9310   -1.1720 N   0  0  0  0  0  0  0  0  0  0  0  0
    0.8390    0.6730   -1.0070 C   0  0  0  0  0  0  0  0  0  0  0  0
    1.7190   -0.2670   -1.4530 N   0  0  0  0  0  0  0  0  0  0  0  0
    2.7530   -0.7850   -1.0160 C   0  0  0  0  0  0  0  0  0  0  0  0
    3.3030   -0.4320    0.2460 N   0  0  0  0  0  0  0  0  0  0  0  0
    3.1830    0.8680    0.8370 C   0  0  0  0  0  0  0  0  0  0  0  0
    3.9680    0.9130    2.1700 C   0  0  0  0  0  0  0  0  0  0  0  0
    5.2960    0.6390    1.8840 O   0  0  0  0  0  0  0  0  0  0  0  0
    6.0010    0.6690    2.9950 O   0  0  0  0  0  0  0  0  0  0  0  0
    3.4870   -1.8220   -1.8060 C   0  0  0  0  0  0  0  0  0  0  0  0
    3.0000   -2.1350   -2.9060 O   0  0  0  0  0  0  0  0  0  0  0  0
    4.6720   -2.4330   -1.3540 N   0  0  0  0  0  0  0  0  0  0  0  0
    5.3690   -3.4460   -2.1490 C   0  0  0  0  0  0  0  0  0  0  0  0
    6.5970   -3.8760   -1.3760 C   0  0  0  0  0  0  0  0  0  0  0  0
    7.3210   -4.8400   -2.0640 O   0  0  0  0  0  0  0  0  0  0  0  0
    8.3830   -5.2170   -1.4070 O   0  0  0  0  0  0  0  0  0  0  0  0
   -0.4580    0.2850   -0.3690 C   0  0  1  0  0  0  0  0  0  0  0  0
   -0.4370    0.2320    1.0160 O   0  0  0  0  0  0  0  0  0  0  0  0
    0.0650   -0.7600    1.8310 C   0  0  0  0  0  0  0  0  0  0  0  0
    0.6140   -0.3330    2.9180 O   0  0  0  0  0  0  0  0  0  0  0  0
    0.0420   -2.1450    1.6030 N   0  0  0  0  0  0  0  0  0  0  0  0
   -1.1230   -2.9470    1.2930 C   0  0  0  0  0  0  0  0  0  0  0  0
   -2.0070   -3.1480    2.5290 C   0  0  0  0  0  0  0  0  0  0  0  0
   -3.2120   -2.4870    2.4400 O   0  0  0  0  0  0  0  0  0  0  0  0
   -4.0110   -2.8400    1.3830 C   0  0  0  0  0  0  0  0  0  0  0  0
   -4.5280   -1.5910    0.6510 C   0  0  0  0  0  0  0  0  0  0  0  0
   -4.0100   -0.3460    1.2740 C   0  0  2  0  0  0  0  0  0  0  0  0
   -5.0580    0.2100    2.2490 C   0  0  0  0  0  0  0  0  0  0  0  0
   -6.1710    0.6980    1.5750 O   0  0  0  0  0  0  0  0  0  0  0  0
   -5.8740    1.2410    0.3330 C   0  0  0  0  0  0  0  0  0  0  0  0
   -4.4450    1.7840    0.3500 C   0  0  0  0  0  0  0  0  0  0  0  0
   -3.5500    0.6770    0.4220 N   0  0  0  0  0  0  0  0  0  0  0  0
   -2.8740    0.3190   -0.7680 C   0  0  0  0  0  0  0  0  0  0  0  0
   -1.6010    1.1760   -0.8820 C   0  0  2  0  0  0  0  0  0  0  0  0
   -1.3310    1.5070   -2.2070 O   0  0  0  0  0  0  0  0  0  0  0  0
  1  2  2  0
  2  3  1  0
  2 43  1  0
  3  4  1  0
  4  5  1  0
  5  6  1  0
  6  7  1  0
  7  8  1  0
  8  9  1  0
  9 10  2  0
 10 11  1  0
 10 25  1  0
 11 12  2  3
 12 13  1  0
 12 18  1  0
 13 14  1  0
 14 15  1  0
 15 16  1  0
 16 17  1  0
 18 19  2  0
 18 20  1  0
 20 21  1  0
 21 22  1  0
 22 23  1  0
 23 24  1  0
 25 26  1  1
 25 42  1  0
 26 27  1  0
 27 28  2  0
 27 29  1  0
 29 30  1  0
 30 31  1  0
 31 32  1  0
 32 33  1  0
 33 34  1  0
 35 34  1  6
 35 36  1  0
 35 40  1  0
 36 37  1  0
 37 38  1  0
 38 39  1  0
 39 40  1  0
 40 41  1  0
 42 41  1  6
 42 43  1  0
M  END
