
     RDKit          3D

 43 46  0  0  0  0  0  0  0  0999 V2000
    8.3340    1.2060   -1.6650 O   0  0  0  0  0  0  0  0  0  0  0  0
    7.4940    1.9950   -1.1590 C   0  0  0  0  0  0  0  0  0  0  0  0
    7.8780    3.3390   -1.0140 O   0  0  0  0  0  0  0  0  0  0  0  0
    6.1860    1.5840   -0.7340 N   0  0  0  0  0  0  0  0  0  0  0  0
    5.8370    0.2230   -0.8110 C   0  0  0  0  0  0  0  0  0  0  0  0
    6.8040   -0.7450   -1.0120 N   0  0  0  0  0  0  0  0  0  0  0  0
    6.1860   -1.9020   -0.8700 C   0  0  0  0  0  0  0  0  0  0  0  0
    6.8220   -3.1390   -0.9950 O   0  0  0  0  0  0  0  0  0  0  0  0
    4.9340   -1.6920   -0.6050 O   0  0  0  0  0  0  0  0  0  0  0  0
    4.6670   -0.3650   -0.5620 C   0  0  0  0  0  0  0  0  0  0  0  0
    3.3220    0.0900   -0.3080 C   0  0  0  0  0  0  0  0  0  0  0  0
    2.4580   -0.7970    0.1270 N   0  0  0  0  0  0  0  0  0  0  0  0
    1.1220   -0.5180    0.3330 C   0  0  0  0  0  0  0  0  0  0  0  0
    0.5970    0.6340    0.1150 N   0  0  0  0  0  0  0  0  0  0  0  0
    1.3890    1.6840   -0.3560 C   0  0  0  0  0  0  0  0  0  0  0  0
    0.9150    2.9030   -0.6020 C   0  0  0  0  0  0  0  0  0  0  0  0
   -0.4660    3.3100   -0.4210 C   0  0  0  0  0  0  0  0  0  0  0  0
   -0.7120    4.4590    0.2030 C   0  0  0  0  0  0  0  0  0  0  0  0
    0.2730    5.2980    0.6960 O   0  0  0  0  0  0  0  0  0  0  0  0
   -1.6440    2.5320   -0.9000 C   0  0  2  0  0  0  0  0  0  0  0  0
   -2.4350    3.4430   -1.6060 O   0  0  0  0  0  0  0  0  0  0  0  0
   -2.3350    1.8830    0.0900 O   0  0  0  0  0  0  0  0  0  0  0  0
   -3.6900    2.0880    0.1180 C   0  0  0  0  0  0  0  0  0  0  0  0
   -4.4710    1.3880   -0.9060 C   0  0  0  0  0  0  0  0  0  0  0  0
   -4.0460    1.4600   -2.1130 O   0  0  0  0  0  0  0  0  0  0  0  0
   -5.6440    0.6400   -0.7140 N   0  0  0  0  0  0  0  0  0  0  0  0
   -5.9770   -0.1760    0.4160 C   0  0  0  0  0  0  0  0  0  0  0  0
   -6.0500   -1.6470    0.0090 C   0  0  0  0  0  0  0  0  0  0  0  0
   -4.7010   -2.1790    0.1060 N   0  0  0  0  0  0  0  0  0  0  0  0
   -4.2600   -2.9370    1.2780 C   0  0  0  0  0  0  0  0  0  0  0  0
   -4.8970   -3.2320    2.3160 O   0  0  0  0  0  0  0  0  0  0  0  0
   -2.9400   -3.3280    1.1030 O   0  0  0  0  0  0  0  0  0  0  0  0
   -2.7610   -3.3300   -0.3260 C   0  0  2  0  0  0  0  0  0  0  0  0
   -1.2710   -3.0050   -0.4750 C   0  0  0  0  0  0  0  0  0  0  0  0
   -1.0830   -1.7180    0.3010 C   0  0  0  0  0  0  0  0  0  0  0  0
    0.2590   -1.5630    0.8310 N   0  0  0  0  0  0  0  0  0  0  0  0
    0.6870   -2.4530    1.8620 C   0  0  0  0  0  0  0  0  0  0  0  0
    2.0860   -2.2470    2.3180 C   0  0  0  0  0  0  0  0  0  0  0  0
    2.3390   -0.9740    2.8050 O   0  0  0  0  0  0  0  0  0  0  0  0
   -3.6180   -2.1420   -0.7370 C   0  0  0  0  0  0  0  0  0  0  0  0
   -3.1260   -1.4560   -1.7100 O   0  0  0  0  0  0  0  0  0  0  0  0
    2.8360    1.4150   -0.5880 C   0  0  0  0  0  0  0  0  0  0  0  0
    3.5220    2.3560   -1.0160 O   0  0  0  0  0  0  0  0  0  0  0  0
  1  2  2  0
  2  3  1  0
  2  4  1  0
  4  5  1  0
  5  6  1  0
  5 10  2  0
  6  7  2  0
  7  8  1  0
  7  9  1  0
  9 10  1  0
 10 11  1  0
 11 12  2  0
 11 42  1  0
 12 13  1  0
 13 14  2  0
 13 36  1  0
 14 15  1  0
 15 16  2  0
 15 42  1  0
 16 17  1  0
 17 18  2  3
 17 20  1  0
 18 19  1  0
 20 21  1  1
 20 22  1  0
 22 23  1  0
 23 24  1  0
 24 25  2  0
 24 26  1  0
 26 27  1  0
 27 28  1  0
 28 29  1  0
 29 30  1  0
 29 40  1  0
 30 31  2  0
 30 32  1  0
 32 33  1  0
 33 34  1  1
 33 40  1  0
 34 35  1  0
 35 36  1  0
 36 37  1  0
 37 38  1  0
 38 39  1  0
 40 41  2  0
 42 43  2  0
M  END
