
     RDKit          3D

 43 45  0  0  0  0  0  0  0  0999 V2000
    8.1820   -0.5500   -1.6360 N   0  0  0  0  0  0  0  0  0  0  0  0
    6.8040   -0.7340   -1.3420 C   0  0  0  0  0  0  0  0  0  0  0  0
    6.4580   -1.8880   -0.9900 O   0  0  0  0  0  0  0  0  0  0  0  0
    5.8470    0.3910   -1.4530 C   0  0  1  0  0  0  0  0  0  0  0  0
    4.4710   -0.1330   -1.0710 C   0  0  0  0  0  0  0  0  0  0  0  0
    3.4460    0.9320   -1.1500 C   0  0  0  0  0  0  0  0  0  0  0  0
    3.7770    2.0690   -1.5070 O   0  0  0  0  0  0  0  0  0  0  0  0
    2.1110    0.6390   -0.8190 N   0  0  0  0  0  0  0  0  0  0  0  0
    1.1220    1.6930   -0.8910 C   0  0  0  0  0  0  0  0  0  0  0  0
    0.2400    1.7070    0.3390 C   0  0  1  0  0  0  0  0  0  0  0  0
   -0.9510    2.6060    0.1340 C   0  0  0  0  0  0  0  0  0  0  0  0
   -2.0860    1.8680   -0.4780 C   0  0  0  0  0  0  0  0  0  0  0  0
   -1.9360    1.3750   -1.5790 O   0  0  0  0  0  0  0  0  0  0  0  0
   -3.3570    1.7840    0.3150 C   0  0  0  0  0  0  0  0  0  0  0  0
   -4.4230    1.1310   -0.3730 N   0  0  0  0  0  0  0  0  0  0  0  0
   -5.6660    1.7870   -0.5690 C   0  0  0  0  0  0  0  0  0  0  0  0
   -6.5680    1.1240   -1.1980 O   0  0  0  0  0  0  0  0  0  0  0  0
   -5.9740    3.0950   -0.1280 N   0  0  0  0  0  0  0  0  0  0  0  0
   -7.2780    3.6130   -0.4120 C   0  0  0  0  0  0  0  0  0  0  0  0
   -8.1100    2.9200   -1.0230 O   0  0  0  0  0  0  0  0  0  0  0  0
   -7.6110    4.8990   -0.0000 O   0  0  0  0  0  0  0  0  0  0  0  0
   -4.2790   -0.2160   -0.8970 C   0  0  0  0  0  0  0  0  0  0  0  0
   -3.8980   -1.2210    0.2120 C   0  0  0  0  0  0  0  0  0  0  0  0
   -3.7480   -2.4250   -0.4140 O   0  0  0  0  0  0  0  0  0  0  0  0
   -3.5100   -3.7060   -0.1090 C   0  0  0  0  0  0  0  0  0  0  0  0
   -4.4870   -4.5500   -0.2070 O   0  0  0  0  0  0  0  0  0  0  0  0
   -2.2650   -4.3270    0.3360 C   0  0  0  0  0  0  0  0  0  0  0  0
   -2.1480   -5.6710    0.3390 C   0  0  0  0  0  0  0  0  0  0  0  0
   -1.0200   -6.3360    0.7380 O   0  0  0  0  0  0  0  0  0  0  0  0
   -1.0910   -3.5990    0.7890 C   0  0  0  0  0  0  0  0  0  0  0  0
   -0.8060   -2.3410    0.4510 N   0  0  0  0  0  0  0  0  0  0  0  0
    0.3420   -2.0070    1.0510 C   0  0  0  0  0  0  0  0  0  0  0  0
    0.7490   -3.0620    1.7500 N   0  0  0  0  0  0  0  0  0  0  0  0
   -0.1040   -3.9950    1.5880 O   0  0  0  0  0  0  0  0  0  0  0  0
    0.9450   -0.6360    0.8770 C   0  0  2  0  0  0  0  0  0  0  0  0
    1.7930   -0.3650    2.0360 C   0  0  0  0  0  0  0  0  0  0  0  0
    1.9170   -1.2180    2.9500 O   0  0  0  0  0  0  0  0  0  0  0  0
    2.5040    0.8160    2.2150 O   0  0  0  0  0  0  0  0  0  0  0  0
   -0.1970    0.3180    0.7300 C   0  0  0  0  0  0  0  0  0  0  0  0
    1.7550   -0.6980   -0.4110 C   0  0  0  0  0  0  0  0  0  0  0  0
    6.1840    1.5180   -0.5600 C   0  0  0  0  0  0  0  0  0  0  0  0
    6.2380    1.3760    0.8510 N   0  0  0  0  0  0  0  0  0  0  0  0
    6.4280    2.6390   -1.0970 O   0  0  0  0  0  0  0  0  0  0  0  0
  1  2  1  0
  2  3  2  0
  2  4  1  0
  4  5  1  1
  4 41  1  0
  5  6  1  0
  6  7  2  0
  6  8  1  0
  8  9  1  0
  8 40  1  0
 10  9  1  6
 10 11  1  0
 10 39  1  0
 11 12  1  0
 12 13  2  0
 12 14  1  0
 14 15  1  0
 15 16  1  0
 15 22  1  0
 16 17  2  0
 16 18  1  0
 18 19  1  0
 19 20  2  0
 19 21  1  0
 22 23  1  0
 23 24  1  0
 24 25  1  0
 25 26  2  0
 25 27  1  0
 27 28  2  3
 27 30  1  0
 28 29  1  0
 30 31  2  0
 30 34  1  0
 31 32  1  0
 32 33  2  0
 32 35  1  0
 33 34  1  0
 35 36  1  1
 35 39  1  0
 35 40  1  0
 36 37  2  0
 36 38  1  0
 41 42  1  0
 41 43  2  0
M  END
