
     RDKit          3D

 43 45  0  0  0  0  0  0  0  0999 V2000
   -6.5060   -1.4030    0.4470 C   0  0  0  0  0  0  0  0  0  0  0  0
   -5.2780   -1.3930   -0.4640 C   0  0  0  0  0  0  0  0  0  0  0  0
   -5.4480   -0.6690   -1.5390 N   0  0  0  0  0  0  0  0  0  0  0  0
   -4.5840   -0.4090   -2.6010 C   0  0  0  0  0  0  0  0  0  0  0  0
   -3.3860    0.2170   -2.5250 C   0  0  0  0  0  0  0  0  0  0  0  0
   -2.9390    0.6470   -1.3500 O   0  0  0  0  0  0  0  0  0  0  0  0
   -2.2130    1.6310   -0.7520 C   0  0  2  0  0  0  0  0  0  0  0  0
   -2.3650    1.6570    0.7770 C   0  0  0  0  0  0  0  0  0  0  0  0
   -2.8090    2.9720   -1.1800 C   0  0  0  0  0  0  0  0  0  0  0  0
   -2.1450    4.0460   -0.5890 O   0  0  0  0  0  0  0  0  0  0  0  0
   -2.4600    5.3650   -0.7440 C   0  0  0  0  0  0  0  0  0  0  0  0
   -3.4330    5.6810   -1.4780 O   0  0  0  0  0  0  0  0  0  0  0  0
   -0.7470    1.6260   -1.0480 C   0  0  0  0  0  0  0  0  0  0  0  0
   -0.3510    2.5550   -1.8340 O   0  0  0  0  0  0  0  0  0  0  0  0
    0.1960    0.6570   -0.5120 N   0  0  0  0  0  0  0  0  0  0  0  0
    1.5430    1.1280   -0.3880 C   0  0  0  0  0  0  0  0  0  0  0  0
    2.1880    1.2410    0.6250 N   0  0  0  0  0  0  0  0  0  0  0  0
    2.7900    1.3200    1.8040 C   0  0  0  0  0  0  0  0  0  0  0  0
    2.2030    1.7100    3.0490 O   0  0  0  0  0  0  0  0  0  0  0  0
    4.0760    1.0240    1.9380 C   0  0  0  0  0  0  0  0  0  0  0  0
    5.0240    0.5960    0.9450 C   0  0  0  0  0  0  0  0  0  0  0  0
    4.9700   -0.3990    0.0500 C   0  0  0  0  0  0  0  0  0  0  0  0
    6.1790   -0.4940   -0.7990 C   0  0  0  0  0  0  0  0  0  0  0  0
    6.2840   -1.4440   -1.7000 C   0  0  0  0  0  0  0  0  0  0  0  0
    5.3840   -2.4230   -1.9830 O   0  0  0  0  0  0  0  0  0  0  0  0
    7.2440    0.4230   -0.6690 O   0  0  0  0  0  0  0  0  0  0  0  0
    7.1660    1.5200   -1.4190 O   0  0  0  0  0  0  0  0  0  0  0  0
    3.8520   -1.2860   -0.1700 C   0  0  0  0  0  0  0  0  0  0  0  0
    3.3850   -1.3090   -1.4070 O   0  0  0  0  0  0  0  0  0  0  0  0
    3.1340   -2.1510    0.6710 N   0  0  0  0  0  0  0  0  0  0  0  0
    2.2900   -1.9240    1.7650 C   0  0  0  0  0  0  0  0  0  0  0  0
    2.7270   -2.3410    2.9120 O   0  0  0  0  0  0  0  0  0  0  0  0
    1.0150   -1.3020    1.8130 N   0  0  0  0  0  0  0  0  0  0  0  0
   -0.1060   -1.4130    0.9790 C   0  0  1  0  0  0  0  0  0  0  0  0
   -0.1710   -2.9200    0.5360 C   0  0  0  0  0  0  0  0  0  0  0  0
   -0.9430   -3.1050   -0.5640 O   0  0  0  0  0  0  0  0  0  0  0  0
   -2.2880   -3.1850   -0.3280 O   0  0  0  0  0  0  0  0  0  0  0  0
   -3.1000   -2.2510    0.4150 C   0  0  0  0  0  0  0  0  0  0  0  0
   -4.1030   -2.0230   -0.2800 N   0  0  0  0  0  0  0  0  0  0  0  0
   -2.6470   -1.8080    1.6770 N   0  0  0  0  0  0  0  0  0  0  0  0
   -1.3250   -1.2830    1.9080 C   0  0  0  0  0  0  0  0  0  0  0  0
   -1.0950   -0.6510    2.9530 O   0  0  0  0  0  0  0  0  0  0  0  0
   -0.2790   -0.6590   -0.2470 C   0  0  0  0  0  0  0  0  0  0  0  0
  1  2  1  0
  2  3  2  0
  2 39  1  0
  3  4  1  0
  4  5  2  0
  5  6  1  0
  6  7  1  0
  7  8  1  1
  7  9  1  0
  7 13  1  0
  9 10  1  0
 10 11  1  0
 11 12  2  0
 13 14  2  0
 13 15  1  0
 15 16  1  0
 15 43  1  0
 16 17  2  0
 17 18  1  0
 18 19  1  0
 18 20  2  0
 20 21  1  0
 21 22  2  0
 22 23  1  0
 22 28  1  0
 23 24  2  3
 23 26  1  0
 24 25  1  0
 26 27  1  0
 28 29  2  0
 28 30  1  0
 30 31  1  0
 31 32  2  0
 31 33  1  0
 33 34  1  0
 34 35  1  6
 34 41  1  0
 34 43  1  0
 35 36  1  0
 36 37  1  0
 37 38  1  0
 38 39  2  0
 38 40  1  0
 40 41  1  0
 41 42  2  0
M  END
