
     RDKit          3D

 43 45  0  0  0  0  0  0  0  0999 V2000
    3.2950    6.5590   -1.2600 C   0  0  0  0  0  0  0  0  0  0  0  0
    3.4200    5.1360   -1.2610 N   0  0  0  0  0  0  0  0  0  0  0  0
    2.8240    4.5920   -0.1770 N   0  0  0  0  0  0  0  0  0  0  0  0
    2.5520    3.1020   -0.3010 C   0  0  0  0  0  0  0  0  0  0  0  0
    2.8760    2.5320   -1.2790 O   0  0  0  0  0  0  0  0  0  0  0  0
    1.8970    2.6990    0.9050 N   0  0  0  0  0  0  0  0  0  0  0  0
    1.5770    1.0230    0.3930 C   0  0  0  0  0  0  0  0  0  0  0  0
    1.9280    0.8230   -0.6820 O   0  0  0  0  0  0  0  0  0  0  0  0
    0.9640    0.2860    1.4300 C   0  0  2  0  0  0  0  0  0  0  0  0
    0.3280    1.0250    2.5130 C   0  0  0  0  0  0  0  0  0  0  0  0
   -0.5190    2.0380    1.8500 O   0  0  0  0  0  0  0  0  0  0  0  0
   -1.0860    1.7450    0.6180 C   0  0  0  0  0  0  0  0  0  0  0  0
   -1.5060    2.5460   -0.2360 O   0  0  0  0  0  0  0  0  0  0  0  0
   -1.2170    0.3620    0.2670 N   0  0  0  0  0  0  0  0  0  0  0  0
   -2.2450   -0.1190   -0.5760 C   0  0  0  0  0  0  0  0  0  0  0  0
   -3.4610    0.6670   -0.6600 C   0  0  0  0  0  0  0  0  0  0  0  0
   -3.6940    1.7170   -0.0630 O   0  0  0  0  0  0  0  0  0  0  0  0
   -4.5720    0.1270   -1.5520 C   0  0  0  0  0  0  0  0  0  0  0  0
   -5.7140    0.0250   -0.7320 O   0  0  0  0  0  0  0  0  0  0  0  0
   -6.9330   -0.4200   -1.1270 C   0  0  0  0  0  0  0  0  0  0  0  0
   -7.1440   -0.7600   -2.3030 O   0  0  0  0  0  0  0  0  0  0  0  0
   -8.0710   -0.5260   -0.1410 C   0  0  0  0  0  0  0  0  0  0  0  0
   -9.2440   -0.9490   -0.7440 O   0  0  0  0  0  0  0  0  0  0  0  0
  -10.2020   -1.0420    0.1880 O   0  0  0  0  0  0  0  0  0  0  0  0
  -10.2230   -2.3110    0.6410 O   0  0  0  0  0  0  0  0  0  0  0  0
   -2.1550   -1.2910   -1.1150 N   0  0  0  0  0  0  0  0  0  0  0  0
   -1.1790   -2.2110   -0.9940 N   0  0  0  0  0  0  0  0  0  0  0  0
   -0.8360   -3.3510   -1.3140 C   0  0  0  0  0  0  0  0  0  0  0  0
    0.4020   -3.9960   -0.9170 C   0  0  0  0  0  0  0  0  0  0  0  0
    1.6480   -3.7980   -0.7870 C   0  0  0  0  0  0  0  0  0  0  0  0
    2.6770   -2.8350   -0.9280 C   0  0  0  0  0  0  0  0  0  0  0  0
    3.2120   -1.8490   -0.1540 C   0  0  0  0  0  0  0  0  0  0  0  0
    4.3180   -1.0540   -0.6900 C   0  0  0  0  0  0  0  0  0  0  0  0
    4.9420   -0.1120   -0.1100 C   0  0  0  0  0  0  0  0  0  0  0  0
    4.6280    0.3280    1.2220 O   0  0  0  0  0  0  0  0  0  0  0  0
    4.7870   -1.3450   -2.0050 O   0  0  0  0  0  0  0  0  0  0  0  0
    5.9780   -2.1340   -2.0840 C   0  0  0  0  0  0  0  0  0  0  0  0
    2.7810   -1.5360    1.2180 C   0  0  0  0  0  0  0  0  0  0  0  0
    3.6450   -1.8150    2.1570 O   0  0  0  0  0  0  0  0  0  0  0  0
    1.6090   -0.9910    1.7550 N   0  0  0  0  0  0  0  0  0  0  0  0
    0.6830   -1.5370    2.7560 C   0  0  0  0  0  0  0  0  0  0  0  0
   -0.6030   -1.4030    1.9100 C   0  0  0  0  0  0  0  0  0  0  0  0
   -0.2670   -0.5250    0.7960 C   0  0  2  0  0  0  0  0  0  0  0  0
  1  2  1  0
  2  3  1  0
  3  4  1  0
  4  5  2  0
  4  6  1  0
  6  7  1  0
  7  8  2  0
  9  7  1  6
  9 10  1  0
  9 40  1  0
  9 43  1  0
 10 11  1  0
 11 12  1  0
 12 13  2  0
 12 14  1  0
 14 15  1  0
 14 43  1  0
 15 16  1  0
 15 26  2  0
 16 17  2  0
 16 18  1  0
 18 19  1  0
 19 20  1  0
 20 21  2  0
 20 22  1  0
 22 23  1  0
 23 24  1  0
 24 25  1  0
 26 27  1  0
 27 28  2  0
 28 29  1  0
 29 30  2  0
 30 31  1  0
 31 32  2  0
 32 33  1  0
 32 38  1  0
 33 34  2  3
 33 36  1  0
 34 35  1  0
 36 37  1  0
 38 39  2  0
 38 40  1  0
 40 41  1  0
 41 42  1  0
 43 42  1  1
M  END
