
     RDKit          3D

 44 46  0  0  0  0  0  0  0  0999 V2000
    7.8810    0.5090    0.6540 C   0  0  0  0  0  0  0  0  0  0  0  0
    6.5360    0.7100    0.2900 O   0  0  0  0  0  0  0  0  0  0  0  0
    5.7530   -0.2530   -0.2860 C   0  0  0  0  0  0  0  0  0  0  0  0
    6.4140   -1.3690   -0.4550 O   0  0  0  0  0  0  0  0  0  0  0  0
    4.4170   -0.2620   -0.7090 N   0  0  0  0  0  0  0  0  0  0  0  0
    4.0680   -1.6020   -1.3510 C   0  0  0  0  0  0  0  0  0  0  0  0
    2.7260   -2.0570   -0.8310 C   0  0  0  0  0  0  0  0  0  0  0  0
    2.8180   -3.4160   -0.3000 N   0  0  0  0  0  0  0  0  0  0  0  0
    2.6830   -3.7160    1.0730 C   0  0  0  0  0  0  0  0  0  0  0  0
    3.1040   -4.9070    1.3660 O   0  0  0  0  0  0  0  0  0  0  0  0
    2.1560   -2.8910    2.1320 C   0  0  0  0  0  0  0  0  0  0  0  0
    0.9570   -2.4000    2.3310 C   0  0  0  0  0  0  0  0  0  0  0  0
   -0.2760   -2.4960    1.5730 C   0  0  0  0  0  0  0  0  0  0  0  0
   -1.0810   -3.5200    1.1160 N   0  0  0  0  0  0  0  0  0  0  0  0
   -2.0960   -3.1090    0.5340 O   0  0  0  0  0  0  0  0  0  0  0  0
   -2.1170   -1.7630    0.5180 C   0  0  0  0  0  0  0  0  0  0  0  0
   -1.0040   -1.4050    1.1500 N   0  0  0  0  0  0  0  0  0  0  0  0
   -3.1190   -0.8650   -0.0480 C   0  0  0  0  0  0  0  0  0  0  0  0
   -4.4330   -1.0980    0.1980 C   0  0  0  0  0  0  0  0  0  0  0  0
   -4.8320   -2.2370    1.0360 C   0  0  0  0  0  0  0  0  0  0  0  0
   -5.6430   -3.1710    0.3990 O   0  0  0  0  0  0  0  0  0  0  0  0
   -5.9170   -4.1410    1.2620 O   0  0  0  0  0  0  0  0  0  0  0  0
   -2.8270    0.3390   -0.8730 C   0  0  1  0  0  0  0  0  0  0  0  0
   -2.0990   -0.0770   -2.1040 C   0  0  0  0  0  0  0  0  0  0  0  0
   -2.8510   -1.0630   -2.8020 O   0  0  0  0  0  0  0  0  0  0  0  0
   -4.1230    0.8050   -1.2980 O   0  0  0  0  0  0  0  0  0  0  0  0
   -4.3740    1.8740   -2.0820 C   0  0  0  0  0  0  0  0  0  0  0  0
   -3.4180    2.5350   -2.4970 O   0  0  0  0  0  0  0  0  0  0  0  0
   -5.7080    2.2010   -2.4020 O   0  0  0  0  0  0  0  0  0  0  0  0
   -2.1540    1.4020   -0.0670 C   0  0  0  0  0  0  0  0  0  0  0  0
   -2.1570    1.0820    1.2030 O   0  0  0  0  0  0  0  0  0  0  0  0
   -1.5560    2.6150   -0.4060 N   0  0  0  0  0  0  0  0  0  0  0  0
   -2.1020    3.8700    0.2220 C   0  0  0  0  0  0  0  0  0  0  0  0
   -1.4150    4.2320    1.4710 C   0  0  0  0  0  0  0  0  0  0  0  0
   -1.5150    3.2450    2.4420 O   0  0  0  0  0  0  0  0  0  0  0  0
   -0.8700    3.6040    3.5510 O   0  0  0  0  0  0  0  0  0  0  0  0
   -0.4010    2.8370   -1.2760 C   0  0  0  0  0  0  0  0  0  0  0  0
   -0.7130    3.7810   -2.1370 O   0  0  0  0  0  0  0  0  0  0  0  0
    0.8760    2.0660   -1.1130 C   0  0  0  0  0  0  0  0  0  0  0  0
    1.8370    2.4070   -0.1330 C   0  0  0  0  0  0  0  0  0  0  0  0
    2.9400    1.6550   -0.0420 N   0  0  0  0  0  0  0  0  0  0  0  0
    3.3310    0.6070   -0.7140 C   0  0  0  0  0  0  0  0  0  0  0  0
    2.3750    0.2870   -1.6750 N   0  0  0  0  0  0  0  0  0  0  0  0
    1.2340    0.9610   -1.8610 C   0  0  0  0  0  0  0  0  0  0  0  0
  1  2  1  0
  2  3  1  0
  3  4  2  0
  3  5  1  0
  5  6  1  0
  5 42  1  0
  6  7  1  0
  7  8  1  0
  8  9  1  0
  9 10  2  0
  9 11  1  0
 11 12  2  0
 12 13  1  0
 13 14  2  0
 13 17  1  0
 14 15  1  0
 15 16  1  0
 16 17  2  0
 16 18  1  0
 18 19  2  3
 18 23  1  0
 19 20  1  0
 20 21  1  0
 21 22  1  0
 23 24  1  6
 23 26  1  0
 23 30  1  0
 24 25  1  0
 26 27  1  0
 27 28  2  0
 27 29  1  0
 30 31  2  0
 30 32  1  0
 32 33  1  0
 32 37  1  0
 33 34  1  0
 34 35  1  0
 35 36  1  0
 37 38  2  0
 37 39  1  0
 39 40  2  0
 39 44  1  0
 40 41  1  0
 41 42  2  0
 42 43  1  0
 43 44  2  0
M  END
