
     RDKit          3D

 43 46  0  0  0  0  0  0  0  0999 V2000
   -2.2680   -0.2290   -4.5420 C   0  0  0  0  0  0  0  0  0  0  0  0
   -1.7600    0.8140   -3.7270 O   0  0  0  0  0  0  0  0  0  0  0  0
   -1.8350    0.8600   -2.3770 N   0  0  0  0  0  0  0  0  0  0  0  0
   -0.8410    0.6010   -1.6480 C   0  0  0  0  0  0  0  0  0  0  0  0
   -0.7400    0.5990   -0.2160 C   0  0  0  0  0  0  0  0  0  0  0  0
   -1.5820    0.8530    0.7700 C   0  0  0  0  0  0  0  0  0  0  0  0
   -2.9210    1.2380    0.5360 C   0  0  0  0  0  0  0  0  0  0  0  0
   -3.7440    1.5090    1.5210 C   0  0  0  0  0  0  0  0  0  0  0  0
   -3.4460    1.4630    2.9140 C   0  0  0  0  0  0  0  0  0  0  0  0
   -4.4090    1.7720    3.8090 C   0  0  0  0  0  0  0  0  0  0  0  0
   -4.1910    1.7490    5.1920 N   0  0  0  0  0  0  0  0  0  0  0  0
   -3.5640    1.3850   -0.6930 O   0  0  0  0  0  0  0  0  0  0  0  0
   -4.6600    0.4800   -0.9170 C   0  0  0  0  0  0  0  0  0  0  0  0
   -5.2620    0.7900   -2.2490 C   0  0  0  0  0  0  0  0  0  0  0  0
   -6.3430   -0.0650   -2.5270 O   0  0  0  0  0  0  0  0  0  0  0  0
   -6.8050    0.2780   -3.7070 O   0  0  0  0  0  0  0  0  0  0  0  0
   -1.0380    0.6970    2.0850 O   0  0  0  0  0  0  0  0  0  0  0  0
   -0.2890   -0.4790    2.4250 C   0  0  0  0  0  0  0  0  0  0  0  0
   -0.9480   -1.7400    2.0140 C   0  0  0  0  0  0  0  0  0  0  0  0
   -2.2250   -1.7170    2.2860 O   0  0  0  0  0  0  0  0  0  0  0  0
   -0.4330   -2.8730    1.4190 N   0  0  0  0  0  0  0  0  0  0  0  0
    0.2670   -3.0390    0.1790 C   0  0  0  0  0  0  0  0  0  0  0  0
    0.3090   -4.0690   -0.7360 N   0  0  0  0  0  0  0  0  0  0  0  0
    1.1120   -3.7280   -1.7210 N   0  0  0  0  0  0  0  0  0  0  0  0
    1.5770   -2.5070   -1.4480 C   0  0  0  0  0  0  0  0  0  0  0  0
    1.0460   -2.1490   -0.3130 O   0  0  0  0  0  0  0  0  0  0  0  0
    2.5160   -1.5640   -2.1510 C   0  0  1  0  0  0  0  0  0  0  0  0
    2.0520   -1.1390   -3.5090 C   0  0  0  0  0  0  0  0  0  0  0  0
    1.0650    0.0070   -3.3940 C   0  0  0  0  0  0  0  0  0  0  0  0
    0.7770    0.7250   -4.3300 O   0  0  0  0  0  0  0  0  0  0  0  0
    0.4460    0.2540   -2.1340 N   0  0  0  0  0  0  0  0  0  0  0  0
    1.2510    0.0700   -0.9650 C   0  0  0  0  0  0  0  0  0  0  0  0
    0.6290    0.2510    0.0800 N   0  0  0  0  0  0  0  0  0  0  0  0
    2.6520   -0.3060   -1.2510 C   0  0  1  0  0  0  0  0  0  0  0  0
    3.4660   -0.5160   -0.1610 O   0  0  0  0  0  0  0  0  0  0  0  0
    4.6550    0.1820    0.0330 C   0  0  0  0  0  0  0  0  0  0  0  0
    4.9730    1.0340   -0.8400 O   0  0  0  0  0  0  0  0  0  0  0  0
    5.4910    0.0010    1.1050 O   0  0  0  0  0  0  0  0  0  0  0  0
    6.7050    0.7520    1.2500 C   0  0  0  0  0  0  0  0  0  0  0  0
    7.4380    0.3720    2.4980 C   0  0  0  0  0  0  0  0  0  0  0  0
    6.5730    0.6380    3.6820 C   0  0  0  0  0  0  0  0  0  0  0  0
    5.4210    1.1110    3.5320 O   0  0  0  0  0  0  0  0  0  0  0  0
    7.0160    0.3720    4.9640 O   0  0  0  0  0  0  0  0  0  0  0  0
  1  2  1  0
  2  3  1  0
  3  4  2  3
  4  5  1  0
  4 31  1  0
  5  6  2  0
  5 33  1  0
  6  7  1  0
  6 17  1  0
  7  8  2  3
  7 12  1  0
  8  9  1  0
  9 10  2  3
 10 11  1  0
 12 13  1  0
 13 14  1  0
 14 15  1  0
 15 16  1  0
 17 18  1  0
 18 19  1  0
 19 20  2  0
 19 21  1  0
 21 22  1  0
 22 23  2  0
 22 26  1  0
 23 24  1  0
 24 25  2  0
 25 26  1  0
 25 27  1  0
 27 28  1  6
 27 34  1  0
 28 29  1  0
 29 30  2  0
 29 31  1  0
 31 32  1  0
 32 33  2  0
 32 34  1  0
 34 35  1  1
 35 36  1  0
 36 37  2  0
 36 38  1  0
 38 39  1  0
 39 40  1  0
 40 41  1  0
 41 42  2  0
 41 43  1  0
M  END
