
     RDKit          3D

 43 45  0  0  0  0  0  0  0  0999 V2000
    5.5110    2.4330   -2.1300 C   0  0  0  0  0  0  0  0  0  0  0  0
    5.0240    1.8910   -0.7490 C   0  0  1  0  0  0  0  0  0  0  0  0
    3.8110    2.5630   -0.5640 O   0  0  0  0  0  0  0  0  0  0  0  0
    4.8310    0.4140   -0.9140 C   0  0  0  0  0  0  0  0  0  0  0  0
    4.1720   -0.2810    0.1480 N   0  0  0  0  0  0  0  0  0  0  0  0
    4.7620   -0.4830    1.4220 C   0  0  0  0  0  0  0  0  0  0  0  0
    4.9420    0.6780    2.3270 C   0  0  0  0  0  0  0  0  0  0  0  0
    5.5400    0.1440    3.5130 O   0  0  0  0  0  0  0  0  0  0  0  0
    2.8070   -0.8110   -0.0980 C   0  0  0  0  0  0  0  0  0  0  0  0
    1.9160   -0.0050   -0.3210 N   0  0  0  0  0  0  0  0  0  0  0  0
    0.5880    0.2760   -0.6010 C   0  0  0  0  0  0  0  0  0  0  0  0
   -0.1080    0.5040    0.4970 N   0  0  0  0  0  0  0  0  0  0  0  0
   -1.3340    0.7920    0.6750 N   0  0  0  0  0  0  0  0  0  0  0  0
   -2.5520    0.6620    0.8660 C   0  0  0  0  0  0  0  0  0  0  0  0
   -3.2930    1.9360    0.9430 N   0  0  0  0  0  0  0  0  0  0  0  0
   -3.0950    3.0500    0.0640 C   0  0  0  0  0  0  0  0  0  0  0  0
   -3.9810    4.2090    0.4790 C   0  0  0  0  0  0  0  0  0  0  0  0
   -3.7780    5.2830   -0.3850 O   0  0  0  0  0  0  0  0  0  0  0  0
   -4.5410    6.2810   -0.0300 O   0  0  0  0  0  0  0  0  0  0  0  0
   -3.3580   -0.5810    1.0480 C   0  0  0  0  0  0  0  0  0  0  0  0
   -4.1940   -0.5480    2.0910 C   0  0  0  0  0  0  0  0  0  0  0  0
   -5.0890   -1.6150    2.4970 C   0  0  0  0  0  0  0  0  0  0  0  0
   -5.1140   -2.6800    1.8500 O   0  0  0  0  0  0  0  0  0  0  0  0
   -5.9050   -1.4740    3.5760 O   0  0  0  0  0  0  0  0  0  0  0  0
   -3.3780   -1.7480    0.2710 N   0  0  0  0  0  0  0  0  0  0  0  0
   -2.3600   -2.7070   -0.1000 C   0  0  2  0  0  0  0  0  0  0  0  0
   -1.0350   -2.5730    0.5120 C   0  0  0  0  0  0  0  0  0  0  0  0
   -0.4070   -3.8230    1.0970 C   0  0  0  0  0  0  0  0  0  0  0  0
    1.0430   -3.3900    1.4000 C   0  0  0  0  0  0  0  0  0  0  0  0
    1.6920   -3.0550    0.2110 O   0  0  0  0  0  0  0  0  0  0  0  0
    2.7720   -2.2710   -0.0660 C   0  0  0  0  0  0  0  0  0  0  0  0
    3.8890   -2.9110   -0.3310 O   0  0  0  0  0  0  0  0  0  0  0  0
   -2.3090   -2.8930   -1.6000 C   0  0  0  0  0  0  0  0  0  0  0  0
   -2.6100   -4.0480   -2.1010 O   0  0  0  0  0  0  0  0  0  0  0  0
   -1.9610   -1.9200   -2.4900 O   0  0  0  0  0  0  0  0  0  0  0  0
   -2.5330   -0.6800   -2.7670 C   0  0  0  0  0  0  0  0  0  0  0  0
   -1.6420    0.2610   -3.4810 C   0  0  2  0  0  0  0  0  0  0  0  0
   -0.5150   -0.4070   -4.0910 O   0  0  0  0  0  0  0  0  0  0  0  0
    0.2480   -0.7120   -2.9380 C   0  0  0  0  0  0  0  0  0  0  0  0
    1.0120   -1.7050   -2.8240 O   0  0  0  0  0  0  0  0  0  0  0  0
   -0.0030    0.3130   -1.9170 N   0  0  0  0  0  0  0  0  0  0  0  0
   -0.8990    1.1880   -2.5130 C   0  0  0  0  0  0  0  0  0  0  0  0
   -1.2950    2.3910   -2.5480 O   0  0  0  0  0  0  0  0  0  0  0  0
  2  1  1  6
  2  3  1  0
  2  4  1  0
  4  5  1  0
  5  6  1  0
  5  9  1  0
  6  7  1  0
  7  8  1  0
  9 10  2  0
  9 31  1  0
 10 11  1  0
 11 12  2  0
 11 41  1  0
 12 13  1  0
 13 14  2  0
 14 15  1  0
 14 20  1  0
 15 16  1  0
 16 17  1  0
 17 18  1  0
 18 19  1  0
 20 21  2  3
 20 25  1  0
 21 22  1  0
 22 23  2  0
 22 24  1  0
 25 26  1  0
 26 27  1  6
 26 33  1  0
 27 28  1  0
 28 29  1  0
 29 30  1  0
 30 31  1  0
 31 32  2  0
 33 34  2  0
 33 35  1  0
 35 36  1  0
 37 36  1  1
 37 38  1  0
 37 42  1  0
 38 39  1  0
 39 40  2  0
 39 41  1  0
 41 42  1  0
 42 43  2  0
M  END
