
     RDKit          3D

  7  6  0  0  0  0  0  0  0  0999 V2000
   -1.7200    0.1500    0.1250 N   0  0  0  0  0  0  0  0  0  0  0  0
   -0.8360   -1.3090   -0.1420 S   0  0  0  0  0  0  0  0  0  0  0  0
    0.7830   -1.0780   -0.6220 O   0  0  0  0  0  0  0  0  0  0  0  0
    1.3530    0.0540   -0.0830 C   0  0  2  0  0  0  0  0  0  0  0  0
    2.6600    0.1170   -0.5540 F   0  0  0  0  0  0  0  0  0  0  0  0
    1.3710    0.0700    1.2850 F   0  0  0  0  0  0  0  0  0  0  0  0
    0.7200    1.1930   -0.5360 F   0  0  0  0  0  0  0  0  0  0  0  0
  1  2  1  0
  2  3  1  0
  3  4  1  0
  4  5  1  6
  4  6  1  0
  4  7  1  0
M  END
