
     RDKit          3D

  7  6  0  0  0  0  0  0  0  0999 V2000
    1.5310   -1.2710   -0.4190 F   0  0  0  0  0  0  0  0  0  0  0  0
    1.4090   -0.0030    0.0950 C   0  0  2  0  0  0  0  0  0  0  0  0
    2.2930    0.8020   -0.6110 F   0  0  0  0  0  0  0  0  0  0  0  0
    1.7650   -0.0540    1.4370 F   0  0  0  0  0  0  0  0  0  0  0  0
    0.1650    0.5430   -0.0140 O   0  0  0  0  0  0  0  0  0  0  0  0
   -0.8190   -0.1150    0.5900 N   0  0  0  0  0  0  0  0  0  0  0  0
   -2.3340    0.5210   -0.1080 S   0  0  0  0  0  0  0  0  0  0  0  0
  2  1  1  6
  2  3  1  0
  2  4  1  0
  2  5  1  0
  5  6  1  0
  6  7  1  0
M  END
