
     RDKit          3D

 22 24  0  0  0  0  0  0  0  0999 V2000
    0.0900    2.1130    0.6070 C   0  0  0  0  0  0  0  0  0  0  0  0
   -1.1780    1.3340    0.6160 C   0  0  0  0  0  0  0  0  0  0  0  0
   -2.3030    1.7940    1.2970 C   0  0  0  0  0  0  0  0  0  0  0  0
   -3.4600    1.0340    1.2760 C   0  0  0  0  0  0  0  0  0  0  0  0
   -3.5040   -0.1610    0.5920 C   0  0  0  0  0  0  0  0  0  0  0  0
   -2.3960   -0.6260   -0.0850 C   0  0  0  0  0  0  0  0  0  0  0  0
   -1.2330    0.1320   -0.0680 C   0  0  0  0  0  0  0  0  0  0  0  0
   -0.1060   -0.3750   -0.7760 N   0  0  0  0  0  0  0  0  0  0  0  0
    0.0890   -0.0420   -2.1280 C   0  0  0  0  0  0  0  0  0  0  0  0
   -0.7440    0.7070   -2.7000 O   0  0  0  0  0  0  0  0  0  0  0  0
    1.2290   -0.5170   -2.9550 C   0  0  0  0  0  0  0  0  0  0  0  0
    2.3640   -1.5750   -2.0660 S   0  0  0  0  0  0  0  0  0  0  0  0
    3.2110   -0.6790   -0.7780 C   0  0  0  0  0  0  0  0  0  0  0  0
    3.0020    0.6310   -0.5280 N   0  0  0  0  0  0  0  0  0  0  0  0
    3.6360    1.3140    0.4400 C   0  0  0  0  0  0  0  0  0  0  0  0
    3.4510    2.5300    0.6820 O   0  0  0  0  0  0  0  0  0  0  0  0
    4.5500    0.6300    1.2190 C   0  0  0  0  0  0  0  0  0  0  0  0
    4.7880   -0.7210    0.9870 C   0  0  0  0  0  0  0  0  0  0  0  0
    4.1070   -1.3190   -0.0020 N   0  0  0  0  0  0  0  0  0  0  0  0
   -2.7530   -1.9000   -0.7010 C   0  0  0  0  0  0  0  0  0  0  0  0
   -4.0010   -2.2160   -0.4290 C   0  0  0  0  0  0  0  0  0  0  0  0
   -4.6000   -1.1480    0.4150 C   0  0  0  0  0  0  0  0  0  0  0  0
  1  2  1  0
  2  3  2  0
  2  7  1  0
  3  4  1  0
  4  5  2  0
  5  6  1  0
  5 22  1  0
  6  7  2  0
  6 20  1  0
  7  8  1  0
  8  9  1  0
  9 10  2  0
  9 11  1  0
 11 12  1  0
 12 13  1  0
 13 14  2  0
 13 19  1  0
 14 15  1  0
 15 16  2  0
 15 17  1  0
 17 18  2  0
 18 19  1  0
 20 21  2  0
 21 22  1  0
M  END
