
     RDKit          3D

 27 29  0  0  0  0  0  0  0  0999 V2000
    5.9430    2.6510   -1.6160 C   0  0  0  0  0  0  0  0  0  0  0  0
    6.3350    2.0650   -0.5160 C   0  0  0  0  0  0  0  0  0  0  0  0
    7.3290    2.6180    0.2720 O   0  0  0  0  0  0  0  0  0  0  0  0
    7.7630    2.0160    1.4450 C   0  0  0  0  0  0  0  0  0  0  0  0
    7.2250    0.8800    1.8400 C   0  0  0  0  0  0  0  0  0  0  0  0
    6.1780    0.2550    1.0500 C   0  0  0  0  0  0  0  0  0  0  0  0
    5.7440    0.8210   -0.0880 C   0  0  0  0  0  0  0  0  0  0  0  0
    4.7290    0.1960   -0.8300 N   0  0  0  0  0  0  0  0  0  0  0  0
    4.9980   -0.2390   -2.1880 C   0  0  0  0  0  0  0  0  0  0  0  0
    3.4490   -0.0350   -0.2960 C   0  0  0  0  0  0  0  0  0  0  0  0
    3.1850    0.3170    0.8700 O   0  0  0  0  0  0  0  0  0  0  0  0
    2.4150   -0.6930   -1.1050 C   0  0  0  0  0  0  0  0  0  0  0  0
    1.1260   -0.8350   -0.3270 C   0  0  0  0  0  0  0  0  0  0  0  0
    0.0510   -1.5150   -1.1570 C   0  0  0  0  0  0  0  0  0  0  0  0
   -1.1680   -1.6030   -0.2970 C   0  0  0  0  0  0  0  0  0  0  0  0
   -1.4970   -2.6090    0.5280 N   0  0  0  0  0  0  0  0  0  0  0  0
   -2.6610   -2.3510    1.1440 C   0  0  0  0  0  0  0  0  0  0  0  0
   -3.3400   -3.2320    2.1260 C   0  0  0  0  0  0  0  0  0  0  0  0
   -3.1050   -1.1020    0.6840 C   0  0  0  0  0  0  0  0  0  0  0  0
   -4.3300   -0.4180    1.0980 C   0  0  0  0  0  0  0  0  0  0  0  0
   -4.5210    0.8320    0.4430 N   0  0  0  0  0  0  0  0  0  0  0  0
   -4.6690    0.6740   -0.9760 C   0  0  0  0  0  0  0  0  0  0  0  0
   -6.1140    0.8740   -1.4070 C   0  0  0  0  0  0  0  0  0  0  0  0
   -6.9490    0.2440   -0.4840 O   0  0  0  0  0  0  0  0  0  0  0  0
   -6.9640    0.9380    0.7350 C   0  0  0  0  0  0  0  0  0  0  0  0
   -5.6080    1.5920    0.9770 C   0  0  0  0  0  0  0  0  0  0  0  0
   -2.1710   -0.6840   -0.1870 N   0  0  0  0  0  0  0  0  0  0  0  0
  1  2  2  0
  2  3  1  0
  2  7  1  0
  3  4  1  0
  4  5  2  0
  5  6  1  0
  6  7  2  0
  7  8  1  0
  8  9  1  0
  8 10  1  0
 10 11  2  0
 10 12  1  0
 12 13  1  0
 13 14  1  0
 14 15  1  0
 15 16  2  0
 15 27  1  0
 16 17  1  0
 17 18  1  0
 17 19  2  0
 19 20  1  0
 19 27  1  0
 20 21  1  0
 21 22  1  0
 21 26  1  0
 22 23  1  0
 23 24  1  0
 24 25  1  0
 25 26  1  0
M  END
