
     RDKit          3D

 27 30  0  0  0  0  0  0  0  0999 V2000
    3.3030    1.5010   -1.9960 C   0  0  0  0  0  0  0  0  0  0  0  0
    2.8370    0.7850   -0.8160 N   0  0  0  0  0  0  0  0  0  0  0  0
    3.2450    1.2220    0.4980 C   0  0  0  0  0  0  0  0  0  0  0  0
    4.5180    0.5210    0.8770 C   0  0  0  0  0  0  0  0  0  0  0  0
    5.1310   -0.3810    0.0420 C   0  0  0  0  0  0  0  0  0  0  0  0
    6.2860   -0.9970    0.4220 C   0  0  0  0  0  0  0  0  0  0  0  0
    6.8310   -0.7010    1.6580 C   0  0  0  0  0  0  0  0  0  0  0  0
    6.1820    0.2080    2.4560 C   0  0  0  0  0  0  0  0  0  0  0  0
    5.0440    0.8130    2.0790 N   0  0  0  0  0  0  0  0  0  0  0  0
    1.9700   -0.3590   -1.0180 C   0  0  0  0  0  0  0  0  0  0  0  0
    1.6740   -0.6700   -2.1970 O   0  0  0  0  0  0  0  0  0  0  0  0
    1.5230   -1.0440    0.1820 C   0  0  0  0  0  0  0  0  0  0  0  0
    0.5830   -2.1660   -0.0480 C   0  0  0  0  0  0  0  0  0  0  0  0
   -0.6630   -1.6910   -0.6920 C   0  0  0  0  0  0  0  0  0  0  0  0
   -1.7740   -1.1380   -0.0220 C   0  0  0  0  0  0  0  0  0  0  0  0
   -2.7660   -0.8470   -0.9260 C   0  0  0  0  0  0  0  0  0  0  0  0
   -4.0830   -0.2580   -0.6310 C   0  0  0  0  0  0  0  0  0  0  0  0
   -4.9780   -0.0200   -1.6250 C   0  0  0  0  0  0  0  0  0  0  0  0
   -6.1990    0.5310   -1.3160 C   0  0  0  0  0  0  0  0  0  0  0  0
   -6.5310    0.8450   -0.0080 C   0  0  0  0  0  0  0  0  0  0  0  0
   -5.6310    0.6080    1.0080 C   0  0  0  0  0  0  0  0  0  0  0  0
   -4.3920    0.0470    0.6790 C   0  0  0  0  0  0  0  0  0  0  0  0
   -6.2390    1.0180    2.1750 O   0  0  0  0  0  0  0  0  0  0  0  0
   -7.6510    1.1460    1.9690 C   0  0  0  0  0  0  0  0  0  0  0  0
   -7.6830    1.4020    0.5600 O   0  0  0  0  0  0  0  0  0  0  0  0
   -2.2790   -1.2100   -2.1190 N   0  0  0  0  0  0  0  0  0  0  0  0
   -1.0360   -1.7080   -1.9690 N   0  0  0  0  0  0  0  0  0  0  0  0
  1  2  1  0
  2  3  1  0
  2 10  1  0
  3  4  1  0
  4  5  2  0
  4  9  1  0
  5  6  1  0
  6  7  2  0
  7  8  1  0
  8  9  2  0
 10 11  2  0
 10 12  1  0
 12 13  1  0
 13 14  1  0
 14 15  2  0
 14 27  1  0
 15 16  1  0
 16 17  1  0
 16 26  2  0
 17 18  2  0
 17 22  1  0
 18 19  1  0
 19 20  2  0
 20 21  1  0
 20 25  1  0
 21 22  2  0
 21 23  1  0
 23 24  1  0
 24 25  1  0
 26 27  1  0
M  END
