
     RDKit          3D

 16 16  0  0  0  0  0  0  0  0999 V2000
    6.3520    0.0350   -0.2980 N   0  0  0  0  0  0  0  0  0  0  0  0
    5.0590    0.6110   -0.5460 C   0  0  0  0  0  0  0  0  0  0  0  0
    3.9850   -0.3660   -0.0570 C   0  0  0  0  0  0  0  0  0  0  0  0
    2.6520    0.2370   -0.3180 C   0  0  0  0  0  0  0  0  0  0  0  0
    2.4950    1.3630   -0.8520 O   0  0  0  0  0  0  0  0  0  0  0  0
    1.4890   -0.4870    0.0520 N   0  0  0  0  0  0  0  0  0  0  0  0
    0.1810    0.0910   -0.1970 C   0  0  0  0  0  0  0  0  0  0  0  0
   -0.8510   -0.8700    0.2830 C   0  0  0  0  0  0  0  0  0  0  0  0
   -2.2350   -0.4280    0.1010 C   0  0  0  0  0  0  0  0  0  0  0  0
   -2.8670   -0.7620   -1.0840 C   0  0  0  0  0  0  0  0  0  0  0  0
   -4.1530   -0.4050   -1.3630 C   0  0  0  0  0  0  0  0  0  0  0  0
   -4.8470    0.3240   -0.4090 C   0  0  0  0  0  0  0  0  0  0  0  0
   -6.1460    0.7080   -0.6430 O   0  0  0  0  0  0  0  0  0  0  0  0
   -4.2640    0.6850    0.7940 C   0  0  0  0  0  0  0  0  0  0  0  0
   -4.9900    1.4260    1.7470 O   0  0  0  0  0  0  0  0  0  0  0  0
   -2.9600    0.2920    1.0120 C   0  0  0  0  0  0  0  0  0  0  0  0
  1  2  1  0
  2  3  1  0
  3  4  1  0
  4  5  2  0
  4  6  1  0
  6  7  1  0
  7  8  1  0
  8  9  1  0
  9 10  2  0
  9 16  1  0
 10 11  1  0
 11 12  2  0
 12 13  1  0
 12 14  1  0
 14 15  1  0
 14 16  2  0
M  END
