
     RDKit          3D

 40 44  0  0  0  0  0  0  0  0999 V2000
    1.1820    7.2600    1.2080 C   0  0  0  0  0  0  0  0  0  0  0  0
    0.7840    5.9570    0.6150 C   0  0  0  0  0  0  0  0  0  0  0  0
   -0.4700    5.6020    0.4330 C   0  0  0  0  0  0  0  0  0  0  0  0
   -0.5040    4.2850   -0.1590 N   0  0  0  0  0  0  0  0  0  0  0  0
    0.8030    3.7750   -0.3600 C   0  0  0  0  0  0  0  0  0  0  0  0
    1.2730    2.6550   -0.8100 C   0  0  0  0  0  0  0  0  0  0  0  0
    0.8110    1.4560   -1.2830 N   0  0  0  0  0  0  0  0  0  0  0  0
    1.8830    0.6220   -1.9810 C   0  0  0  0  0  0  0  0  0  0  0  0
    2.5400   -0.2310   -0.9920 C   0  0  0  0  0  0  0  0  0  0  0  0
    2.1590   -0.1680    0.2250 O   0  0  0  0  0  0  0  0  0  0  0  0
    3.5790   -1.1380   -1.2570 N   0  0  0  0  0  0  0  0  0  0  0  0
    4.2070   -1.9600   -0.2870 C   0  0  0  0  0  0  0  0  0  0  0  0
    3.7580   -3.2300    0.0250 C   0  0  0  0  0  0  0  0  0  0  0  0
    2.6100   -3.9050   -0.5700 C   0  0  0  0  0  0  0  0  0  0  0  0
    1.9210   -3.3140   -1.4670 O   0  0  0  0  0  0  0  0  0  0  0  0
    4.5560   -3.7640    0.9820 N   0  0  0  0  0  0  0  0  0  0  0  0
    5.4920   -2.8480    1.2690 C   0  0  0  0  0  0  0  0  0  0  0  0
    5.3000   -1.7380    0.5080 C   0  0  0  0  0  0  0  0  0  0  0  0
    6.1880   -0.7910    0.7380 C   0  0  0  0  0  0  0  0  0  0  0  0
    7.0830   -1.3330    1.7800 C   0  0  0  0  0  0  0  0  0  0  0  0
    6.5320   -2.6780    2.0470 C   0  0  0  0  0  0  0  0  0  0  0  0
   -0.4170    0.8450   -1.2600 C   0  0  0  0  0  0  0  0  0  0  0  0
   -0.5470   -0.2120   -2.0280 O   0  0  0  0  0  0  0  0  0  0  0  0
   -1.6010    1.1130   -0.5580 N   0  0  0  0  0  0  0  0  0  0  0  0
   -2.7970    0.3530   -0.6930 C   0  0  0  0  0  0  0  0  0  0  0  0
   -3.7920    0.6290   -1.6080 C   0  0  0  0  0  0  0  0  0  0  0  0
   -3.8540    1.7200   -2.6160 C   0  0  0  0  0  0  0  0  0  0  0  0
   -4.7390   -0.3260   -1.4030 N   0  0  0  0  0  0  0  0  0  0  0  0
   -4.3510   -1.1300   -0.4310 N   0  0  0  0  0  0  0  0  0  0  0  0
   -5.1300   -2.2470    0.0320 C   0  0  0  0  0  0  0  0  0  0  0  0
   -6.4930   -2.1820    0.1600 C   0  0  0  0  0  0  0  0  0  0  0  0
   -7.2390   -3.2520    0.6030 C   0  0  0  0  0  0  0  0  0  0  0  0
   -6.5930   -4.4200    0.9250 C   0  0  0  0  0  0  0  0  0  0  0  0
   -5.2300   -4.5260    0.8100 C   0  0  0  0  0  0  0  0  0  0  0  0
   -4.4090   -6.0290    1.2260 Cl  0  0  0  0  0  0  0  0  0  0  0  0
   -4.5180   -3.4360    0.3650 C   0  0  0  0  0  0  0  0  0  0  0  0
   -3.1590   -0.7660    0.0520 C   0  0  0  0  0  0  0  0  0  0  0  0
   -2.3510   -1.3800    1.1400 C   0  0  0  0  0  0  0  0  0  0  0  0
    1.6520    4.8910    0.1550 C   0  0  0  0  0  0  0  0  0  0  0  0
    2.8890    4.9380    0.1990 O   0  0  0  0  0  0  0  0  0  0  0  0
  1  2  1  0
  2  3  2  0
  2 39  1  0
  3  4  1  0
  4  5  1  0
  5  6  2  3
  5 39  1  0
  6  7  1  0
  7  8  1  0
  7 22  1  0
  8  9  1  0
  9 10  2  0
  9 11  1  0
 11 12  1  0
 12 13  2  0
 12 18  1  0
 13 14  1  0
 13 16  1  0
 14 15  2  0
 16 17  1  0
 17 18  1  0
 17 21  2  0
 18 19  2  0
 19 20  1  0
 20 21  1  0
 22 23  2  0
 22 24  1  0
 24 25  1  0
 25 26  1  0
 25 37  2  0
 26 27  1  0
 26 28  2  0
 28 29  1  0
 29 30  1  0
 29 37  1  0
 30 31  2  0
 30 36  1  0
 31 32  1  0
 32 33  2  0
 33 34  1  0
 34 35  1  0
 34 36  2  0
 37 38  1  0
 39 40  2  0
M  END
