
     RDKit          3D

 40 44  0  0  0  0  0  0  0  0999 V2000
   -2.9380   -4.9600   -0.2680 C   0  0  0  0  0  0  0  0  0  0  0  0
   -2.4410   -3.5950   -0.6380 C   0  0  0  0  0  0  0  0  0  0  0  0
   -2.2370   -2.7510    0.6340 C   0  0  0  0  0  0  0  0  0  0  0  0
   -1.7660   -1.4480    0.3320 N   0  0  0  0  0  0  0  0  0  0  0  0
   -2.6120   -0.4060    0.0430 C   0  0  0  0  0  0  0  0  0  0  0  0
   -4.0040   -0.3610   -0.0180 C   0  0  0  0  0  0  0  0  0  0  0  0
   -4.6400    0.8320   -0.3390 C   0  0  0  0  0  0  0  0  0  0  0  0
   -3.8860    1.9600   -0.5950 C   0  0  0  0  0  0  0  0  0  0  0  0
   -2.5000    1.9230   -0.5370 C   0  0  0  0  0  0  0  0  0  0  0  0
   -1.9030    0.7290   -0.2170 C   0  0  0  0  0  0  0  0  0  0  0  0
   -0.5800    0.3680   -0.0800 C   0  0  0  0  0  0  0  0  0  0  0  0
    0.6000    1.0670   -0.2180 C   0  0  0  0  0  0  0  0  0  0  0  0
    0.5150    2.2830   -0.5260 O   0  0  0  0  0  0  0  0  0  0  0  0
    1.7810    0.4720   -0.0300 N   0  0  0  0  0  0  0  0  0  0  0  0
    3.0200    1.2220   -0.1780 C   0  0  0  0  0  0  0  0  0  0  0  0
    3.4800    1.1290   -1.6060 C   0  0  0  0  0  0  0  0  0  0  0  0
    4.6690    1.8050   -1.8190 O   0  0  0  0  0  0  0  0  0  0  0  0
    5.9020    1.5470   -1.3110 C   0  0  0  0  0  0  0  0  0  0  0  0
    6.1900    0.4960   -0.4800 C   0  0  0  0  0  0  0  0  0  0  0  0
    7.4860    0.3110   -0.0120 C   0  0  0  0  0  0  0  0  0  0  0  0
    7.8270   -0.8220    0.8940 C   0  0  0  0  0  0  0  0  0  0  0  0
    8.4800    1.1860   -0.3860 C   0  0  0  0  0  0  0  0  0  0  0  0
    8.1850    2.2340   -1.2180 C   0  0  0  0  0  0  0  0  0  0  0  0
    6.9280    2.4200   -1.6770 C   0  0  0  0  0  0  0  0  0  0  0  0
    6.5520    3.7760   -2.7520 Cl  0  0  0  0  0  0  0  0  0  0  0  0
    1.7810   -0.8220    0.2970 C   0  0  0  0  0  0  0  0  0  0  0  0
    2.8900   -1.4080    0.4810 O   0  0  0  0  0  0  0  0  0  0  0  0
    0.6650   -1.5850    0.4520 N   0  0  0  0  0  0  0  0  0  0  0  0
    0.7770   -2.9630    0.8170 C   0  0  0  0  0  0  0  0  0  0  0  0
    0.8300   -3.1570    2.2990 C   0  0  0  0  0  0  0  0  0  0  0  0
    0.9410   -4.4810    2.7790 N   0  0  0  0  0  0  0  0  0  0  0  0
    0.7810   -2.2190    3.1120 O   0  0  0  0  0  0  0  0  0  0  0  0
   -0.5210   -0.9880    0.2620 C   0  0  0  0  0  0  0  0  0  0  0  0
   -4.3290    3.3170   -0.9520 C   0  0  2  0  0  0  0  0  0  0  0  0
   -3.3170    4.2430   -0.5300 N   0  0  0  0  0  0  0  0  0  0  0  0
   -2.8750    5.1400   -1.2700 N   0  0  0  0  0  0  0  0  0  0  0  0
   -5.5560    3.7120   -0.2900 N   0  0  0  0  0  0  0  0  0  0  0  0
   -6.7050    2.9810   -0.7270 C   0  0  0  0  0  0  0  0  0  0  0  0
   -6.8660    1.7970    0.2350 C   0  0  0  0  0  0  0  0  0  0  0  0
   -6.0960    0.6580   -0.3470 C   0  0  0  0  0  0  0  0  0  0  0  0
  1  2  1  0
  2  3  1  0
  3  4  1  0
  4  5  1  0
  4 33  1  0
  5  6  2  0
  5 10  1  0
  6  7  1  0
  7  8  2  0
  7 40  1  0
  8  9  1  0
  8 34  1  0
  9 10  2  0
 10 11  1  0
 11 12  1  0
 11 33  2  0
 12 13  2  0
 12 14  1  0
 14 15  1  0
 14 26  1  0
 15 16  1  0
 16 17  1  0
 17 18  1  0
 18 19  2  0
 18 24  1  0
 19 20  1  0
 20 21  1  0
 20 22  2  0
 22 23  1  0
 23 24  2  0
 24 25  1  0
 26 27  2  0
 26 28  1  0
 28 29  1  0
 28 33  1  0
 29 30  1  0
 30 31  1  0
 30 32  2  0
 34 35  1  1
 34 37  1  0
 35 36  2  0
 37 38  1  0
 38 39  1  0
 39 40  1  0
M  END
