
     RDKit          3D

 40 44  0  0  0  0  0  0  0  0999 V2000
    4.8070    4.7280    0.3940 C   0  0  0  0  0  0  0  0  0  0  0  0
    4.8990    3.4970    1.2790 C   0  0  0  0  0  0  0  0  0  0  0  0
    5.0360    2.2510    0.4840 C   0  0  0  0  0  0  0  0  0  0  0  0
    3.9060    1.5650    0.0870 C   0  0  0  0  0  0  0  0  0  0  0  0
    4.0070    0.3900   -0.6620 C   0  0  0  0  0  0  0  0  0  0  0  0
    5.2360   -0.1110   -1.0230 C   0  0  0  0  0  0  0  0  0  0  0  0
    5.3680   -1.3560   -1.8170 C   0  0  0  0  0  0  0  0  0  0  0  0
    4.0390   -1.8870   -2.0450 N   0  0  0  0  0  0  0  0  0  0  0  0
    3.3210   -2.5640   -1.0290 C   0  0  0  0  0  0  0  0  0  0  0  0
    3.8570   -2.7000    0.0950 O   0  0  0  0  0  0  0  0  0  0  0  0
    2.0080   -3.1100   -1.1980 N   0  0  0  0  0  0  0  0  0  0  0  0
    1.3510   -3.7740   -0.1390 C   0  0  0  0  0  0  0  0  0  0  0  0
    1.9560   -3.8950    1.0780 N   0  0  0  0  0  0  0  0  0  0  0  0
    1.3690   -4.5190    2.1140 C   0  0  0  0  0  0  0  0  0  0  0  0
    2.0160   -4.5770    3.2040 O   0  0  0  0  0  0  0  0  0  0  0  0
    0.1410   -5.0500    1.9690 N   0  0  0  0  0  0  0  0  0  0  0  0
   -0.4750   -4.9450    0.7830 C   0  0  0  0  0  0  0  0  0  0  0  0
   -1.6280   -5.4350    0.6200 O   0  0  0  0  0  0  0  0  0  0  0  0
    0.1370   -4.3060   -0.2620 N   0  0  0  0  0  0  0  0  0  0  0  0
   -0.5550   -4.2160   -1.5240 C   0  0  0  0  0  0  0  0  0  0  0  0
   -1.3480   -2.9540   -1.5150 C   0  0  0  0  0  0  0  0  0  0  0  0
   -2.0250   -2.6740   -2.5360 O   0  0  0  0  0  0  0  0  0  0  0  0
   -1.3640   -2.0730   -0.4110 N   0  0  0  0  0  0  0  0  0  0  0  0
   -2.1640   -0.8660   -0.4820 C   0  0  0  0  0  0  0  0  0  0  0  0
   -2.0440   -0.0760    0.7910 C   0  0  0  0  0  0  0  0  0  0  0  0
   -2.8630    1.1560    0.7510 C   0  0  0  0  0  0  0  0  0  0  0  0
   -2.2910    2.3430    0.4770 N   0  0  0  0  0  0  0  0  0  0  0  0
   -2.9850    3.4930    0.4020 C   0  0  0  0  0  0  0  0  0  0  0  0
   -4.3560    3.4750    0.6150 C   0  0  0  0  0  0  0  0  0  0  0  0
   -4.9330    2.2640    0.8950 C   0  0  0  0  0  0  0  0  0  0  0  0
   -6.2700    2.3440    1.0930 C   0  0  0  0  0  0  0  0  0  0  0  0
   -6.9670    1.1610    1.3940 C   0  0  0  0  0  0  0  0  0  0  0  0
   -6.2470   -0.0150    1.4700 C   0  0  0  0  0  0  0  0  0  0  0  0
   -7.1350   -1.4830    1.8480 Cl  0  0  0  0  0  0  0  0  0  0  0  0
   -4.8860   -0.0880    1.2670 C   0  0  0  0  0  0  0  0  0  0  0  0
   -4.2220    1.1000    0.9690 C   0  0  0  0  0  0  0  0  0  0  0  0
   -6.6850    3.7510    0.9320 C   0  0  0  0  0  0  0  0  0  0  0  0
   -5.4260    4.5060    0.6170 C   0  0  0  0  0  0  0  0  0  0  0  0
    6.3840    0.5740   -0.6280 C   0  0  0  0  0  0  0  0  0  0  0  0
    6.2650    1.7360    0.1140 C   0  0  0  0  0  0  0  0  0  0  0  0
  1  2  1  0
  2  3  1  0
  3  4  2  0
  3 40  1  0
  4  5  1  0
  5  6  2  0
  6  7  1  0
  6 39  1  0
  7  8  1  0
  8  9  1  0
  9 10  2  0
  9 11  1  0
 11 12  1  0
 12 13  2  0
 12 19  1  0
 13 14  1  0
 14 15  2  0
 14 16  1  0
 16 17  1  0
 17 18  2  0
 17 19  1  0
 19 20  1  0
 20 21  1  0
 21 22  2  0
 21 23  1  0
 23 24  1  0
 24 25  1  0
 25 26  1  0
 26 27  2  0
 26 36  1  0
 27 28  1  0
 28 29  2  0
 29 30  1  0
 29 38  1  0
 30 31  2  0
 30 36  1  0
 31 32  1  0
 31 37  1  0
 32 33  2  0
 33 34  1  0
 33 35  1  0
 35 36  2  0
 37 38  1  0
 39 40  2  0
M  END
