
     RDKit          3D

 38 42  0  0  0  0  0  0  0  0999 V2000
   -7.7980   -4.7570   -1.3950 C   0  0  0  0  0  0  0  0  0  0  0  0
   -7.1060   -3.7730   -0.6000 N   0  0  0  0  0  0  0  0  0  0  0  0
   -5.8050   -3.4890   -0.8760 C   0  0  0  0  0  0  0  0  0  0  0  0
   -5.1340   -2.5590   -0.1330 C   0  0  0  0  0  0  0  0  0  0  0  0
   -3.7310   -2.2290   -0.4050 C   0  0  0  0  0  0  0  0  0  0  0  0
   -2.9000   -3.2010   -0.8910 C   0  0  0  0  0  0  0  0  0  0  0  0
   -1.5950   -2.8790   -1.1400 C   0  0  0  0  0  0  0  0  0  0  0  0
   -1.0930   -1.6090   -0.9180 C   0  0  0  0  0  0  0  0  0  0  0  0
    0.1690   -1.2820   -1.1560 N   0  0  0  0  0  0  0  0  0  0  0  0
    0.6580   -0.0410   -0.9380 C   0  0  0  0  0  0  0  0  0  0  0  0
    2.0180    0.1870   -1.2290 N   0  0  0  0  0  0  0  0  0  0  0  0
    2.5720    1.4970   -1.0140 C   0  0  0  0  0  0  0  0  0  0  0  0
    4.0740    1.4170   -1.0770 C   0  0  0  0  0  0  0  0  0  0  0  0
    4.5570    0.2680   -0.3510 N   0  0  2  0  0  0  0  0  0  0  0  0
    6.0060    0.3380   -0.2190 C   0  0  0  0  0  0  0  0  0  0  0  0
    6.5520   -0.9450    0.3930 C   0  0  0  0  0  0  0  0  0  0  0  0
    7.9940   -0.8470    0.5130 N   0  0  1  0  0  0  0  0  0  0  0  0
    8.5990   -0.3840   -0.7140 C   0  0  0  0  0  0  0  0  0  0  0  0
    8.3140    0.0700    1.5720 C   0  0  0  0  0  0  0  0  0  0  0  0
    4.1440   -0.9750   -0.9410 C   0  0  0  0  0  0  0  0  0  0  0  0
    2.8590   -0.8580   -1.7350 C   0  0  0  0  0  0  0  0  0  0  0  0
   -0.1660    0.9060   -0.4610 N   0  0  0  0  0  0  0  0  0  0  0  0
   -1.4600    0.6540   -0.1940 C   0  0  0  0  0  0  0  0  0  0  0  0
   -2.2950    1.6720    0.3060 N   0  0  0  0  0  0  0  0  0  0  0  0
   -1.7720    3.0190    0.5430 C   0  0  0  0  0  0  0  0  0  0  0  0
   -2.8020    3.9240    1.0650 C   0  0  0  0  0  0  0  0  0  0  0  0
   -3.0640    4.1260    2.3890 C   0  0  0  0  0  0  0  0  0  0  0  0
   -4.0400    4.9840    2.8430 C   0  0  0  0  0  0  0  0  0  0  0  0
   -4.7990    5.6800    1.9260 C   0  0  0  0  0  0  0  0  0  0  0  0
   -4.5550    5.4960    0.5830 C   0  0  0  0  0  0  0  0  0  0  0  0
   -5.5460    6.4040   -0.5430 Cl  0  0  0  0  0  0  0  0  0  0  0  0
   -3.5710    4.6300    0.1530 C   0  0  0  0  0  0  0  0  0  0  0  0
   -1.9400   -0.6070   -0.4200 C   0  0  0  0  0  0  0  0  0  0  0  0
   -3.2530   -0.9560   -0.1750 C   0  0  0  0  0  0  0  0  0  0  0  0
   -5.8000   -1.9230    0.8920 C   0  0  0  0  0  0  0  0  0  0  0  0
   -7.1330   -2.2250    1.1620 C   0  0  0  0  0  0  0  0  0  0  0  0
   -7.7810   -3.1670    0.3950 C   0  0  0  0  0  0  0  0  0  0  0  0
   -8.9870   -3.4300    0.6510 O   0  0  0  0  0  0  0  0  0  0  0  0
  1  2  1  0
  2  3  1  0
  2 37  1  0
  3  4  2  0
  4  5  1  0
  4 35  1  0
  5  6  2  0
  5 34  1  0
  6  7  1  0
  7  8  2  0
  8  9  1  0
  8 33  1  0
  9 10  2  0
 10 11  1  0
 10 22  1  0
 11 12  1  0
 11 21  1  0
 12 13  1  0
 13 14  1  0
 14 15  1  6
 14 20  1  0
 15 16  1  0
 16 17  1  0
 17 18  1  6
 17 19  1  0
 20 21  1  0
 22 23  2  0
 23 24  1  0
 23 33  1  0
 24 25  1  0
 25 26  1  0
 26 27  2  0
 26 32  1  0
 27 28  1  0
 28 29  2  0
 29 30  1  0
 30 31  1  0
 30 32  2  0
 33 34  2  0
 35 36  2  0
 36 37  1  0
 37 38  2  0
M  CHG  2  14   1  17   1
M  END
