
     RDKit          3D

 40 44  0  0  0  0  0  0  0  0999 V2000
   -2.8690    5.6570   -0.4460 C   0  0  0  0  0  0  0  0  0  0  0  0
   -4.1850    5.2680   -0.7240 O   0  0  0  0  0  0  0  0  0  0  0  0
   -4.5370    3.9250   -0.7000 C   0  0  0  0  0  0  0  0  0  0  0  0
   -3.6030    2.9750   -0.4090 C   0  0  0  0  0  0  0  0  0  0  0  0
   -3.9160    1.6190   -0.3750 C   0  0  0  0  0  0  0  0  0  0  0  0
   -2.8480    0.6350   -0.0610 C   0  0  0  0  0  0  0  0  0  0  0  0
   -1.7240    1.1190    0.1050 N   0  0  0  0  0  0  0  0  0  0  0  0
   -0.4780    0.7730    0.3870 N   0  0  0  0  0  0  0  0  0  0  0  0
    0.5930    0.8330   -0.5840 C   0  0  0  0  0  0  0  0  0  0  0  0
    0.3180    1.2150   -1.7430 O   0  0  0  0  0  0  0  0  0  0  0  0
    2.0110    0.4500   -0.2130 C   0  0  1  0  0  0  0  0  0  0  0  0
    2.7820    0.6610   -1.4160 N   0  0  0  0  0  0  0  0  0  0  0  0
    3.9740    0.0100   -1.7790 C   0  0  0  0  0  0  0  0  0  0  0  0
    4.6140    0.4090   -2.9590 C   0  0  0  0  0  0  0  0  0  0  0  0
    5.7290   -0.2060   -3.3550 N   0  0  0  0  0  0  0  0  0  0  0  0
    6.2950   -1.2080   -2.6790 C   0  0  0  0  0  0  0  0  0  0  0  0
    5.6450   -1.5880   -1.5120 C   0  0  0  0  0  0  0  0  0  0  0  0
    4.5320   -0.9910   -1.0970 N   0  0  0  0  0  0  0  0  0  0  0  0
    2.4410    1.4570    0.8760 C   0  0  0  0  0  0  0  0  0  0  0  0
    3.8440    1.2120    1.2800 C   0  0  0  0  0  0  0  0  0  0  0  0
    3.8860   -0.1260    1.9080 C   0  0  0  0  0  0  0  0  0  0  0  0
    4.7380   -0.3860    2.9410 C   0  0  0  0  0  0  0  0  0  0  0  0
    4.7530   -1.6630    3.5060 C   0  0  0  0  0  0  0  0  0  0  0  0
    3.9340   -2.6440    3.0440 N   0  0  0  0  0  0  0  0  0  0  0  0
    3.0990   -2.4020    2.0360 C   0  0  0  0  0  0  0  0  0  0  0  0
    3.0640   -1.1190    1.4470 C   0  0  0  0  0  0  0  0  0  0  0  0
    2.1120   -0.9290    0.3430 C   0  0  0  0  0  0  0  0  0  0  0  0
   -3.1380   -0.7610    0.0200 C   0  0  0  0  0  0  0  0  0  0  0  0
   -4.2920   -1.2230   -0.1400 O   0  0  0  0  0  0  0  0  0  0  0  0
   -2.1250   -1.7410    0.2900 N   0  0  0  0  0  0  0  0  0  0  0  0
   -2.4560   -3.1220    0.3640 C   0  0  0  0  0  0  0  0  0  0  0  0
   -1.9510   -4.0420   -0.4160 C   0  0  0  0  0  0  0  0  0  0  0  0
   -2.5150   -5.3580   -0.0610 C   0  0  0  0  0  0  0  0  0  0  0  0
   -3.4300   -5.0590    1.0530 C   0  0  0  0  0  0  0  0  0  0  0  0
   -3.3690   -3.7550    1.2700 C   0  0  0  0  0  0  0  0  0  0  0  0
   -5.1800    1.2310   -0.6370 C   0  0  0  0  0  0  0  0  0  0  0  0
   -6.1600    2.2100   -0.9410 C   0  0  0  0  0  0  0  0  0  0  0  0
   -7.8120    1.7010   -1.2860 Cl  0  0  0  0  0  0  0  0  0  0  0  0
   -5.8140    3.5270   -0.9640 C   0  0  0  0  0  0  0  0  0  0  0  0
   -6.7490    4.5210   -1.2590 O   0  0  0  0  0  0  0  0  0  0  0  0
  1  2  1  0
  2  3  1  0
  3  4  2  0
  3 39  1  0
  4  5  1  0
  5  6  1  0
  5 36  2  0
  6  7  2  3
  6 28  1  0
  7  8  1  0
  8  9  1  0
  9 10  2  0
  9 11  1  0
 11 12  1  6
 11 19  1  0
 11 27  1  0
 12 13  1  0
 13 14  2  0
 13 18  1  0
 14 15  1  0
 15 16  2  0
 16 17  1  0
 17 18  2  0
 19 20  1  0
 20 21  1  0
 21 22  2  0
 21 26  1  0
 22 23  1  0
 23 24  2  0
 24 25  1  0
 25 26  2  0
 26 27  1  0
 28 29  2  0
 28 30  1  0
 30 31  1  0
 31 32  2  0
 31 35  1  0
 32 33  1  0
 33 34  1  0
 34 35  2  0
 36 37  1  0
 37 38  1  0
 37 39  2  0
 39 40  1  0
M  END
