
     RDKit          3D

 40 44  0  0  0  0  0  0  0  0999 V2000
    9.0230   -0.7550    2.7770 C   0  0  0  0  0  0  0  0  0  0  0  0
    8.4420   -0.6110    1.4760 N   0  0  0  0  0  0  0  0  0  0  0  0
    9.4290   -0.2550    0.4670 C   0  0  0  0  0  0  0  0  0  0  0  0
    8.7300   -0.0970   -0.8810 C   0  0  0  0  0  0  0  0  0  0  0  0
    7.7090    0.9920   -0.7430 C   0  0  0  0  0  0  0  0  0  0  0  0
    6.9320    1.2390   -1.9880 C   0  0  0  0  0  0  0  0  0  0  0  0
    6.2370    0.0110   -2.3930 N   0  0  0  0  0  0  0  0  0  0  0  0
    6.7630   -0.8200   -3.2930 C   0  0  0  0  0  0  0  0  0  0  0  0
    7.8720   -0.5970   -3.8660 O   0  0  0  0  0  0  0  0  0  0  0  0
    6.0880   -1.9910   -3.6350 C   0  0  0  0  0  0  0  0  0  0  0  0
    6.8010   -3.0710   -4.8190 Cl  0  0  0  0  0  0  0  0  0  0  0  0
    4.8730   -2.3190   -3.0610 C   0  0  0  0  0  0  0  0  0  0  0  0
    4.3400   -1.4530   -2.1330 C   0  0  0  0  0  0  0  0  0  0  0  0
    3.1500   -1.7270   -1.5240 N   0  0  0  0  0  0  0  0  0  0  0  0
    2.6400   -0.8820   -0.6090 C   0  0  0  0  0  0  0  0  0  0  0  0
    1.4420   -1.1620   -0.0100 N   0  0  0  0  0  0  0  0  0  0  0  0
    0.9130   -0.3270    0.8990 C   0  0  0  0  0  0  0  0  0  0  0  0
   -0.4280   -0.6050    1.5060 C   0  0  0  0  0  0  0  0  0  0  0  0
   -1.4250    0.1060    0.6370 C   0  0  0  0  0  0  0  0  0  0  0  0
   -2.8020   -0.0730    1.0130 C   0  0  0  0  0  0  0  0  0  0  0  0
   -3.3440   -0.7600    1.7590 O   0  0  0  0  0  0  0  0  0  0  0  0
   -3.8260    0.9950    0.1220 N   0  0  0  0  0  0  0  0  0  0  0  0
   -5.0830    0.5090    0.6580 C   0  0  0  0  0  0  0  0  0  0  0  0
   -5.3730   -0.3350    1.4150 O   0  0  0  0  0  0  0  0  0  0  0  0
   -6.1100    1.3420    0.0310 N   0  0  0  0  0  0  0  0  0  0  0  0
   -7.4620    1.2230    0.2160 C   0  0  0  0  0  0  0  0  0  0  0  0
   -8.0660    0.2090    0.9130 C   0  0  0  0  0  0  0  0  0  0  0  0
   -9.4410    0.1160    1.0310 C   0  0  0  0  0  0  0  0  0  0  0  0
  -10.2420    1.0540    0.4430 C   0  0  0  0  0  0  0  0  0  0  0  0
   -9.6530    2.0840   -0.2630 C   0  0  0  0  0  0  0  0  0  0  0  0
   -8.3010    2.1820   -0.3840 C   0  0  0  0  0  0  0  0  0  0  0  0
   -7.7140    3.2180   -1.0930 O   0  0  0  0  0  0  0  0  0  0  0  0
  -11.6770    0.7100    0.7060 C   0  0  0  0  0  0  0  0  0  0  0  0
  -11.5450   -0.8160    0.8210 C   0  0  0  0  0  0  0  0  0  0  0  0
  -10.3150   -0.8820    1.7340 C   0  0  0  0  0  0  0  0  0  0  0  0
    1.6080    0.8070    1.2100 C   0  0  0  0  0  0  0  0  0  0  0  0
    2.8170    1.1270    0.6320 C   0  0  0  0  0  0  0  0  0  0  0  0
    3.3480    0.2560   -0.3080 C   0  0  0  0  0  0  0  0  0  0  0  0
    4.5340    0.5340   -0.9120 N   0  0  0  0  0  0  0  0  0  0  0  0
    5.0440   -0.3100   -1.8270 C   0  0  0  0  0  0  0  0  0  0  0  0
  1  2  1  0
  2  3  1  0
  3  4  1  0
  4  5  1  0
  5  6  1  0
  6  7  1  0
  7  8  1  0
  7 40  1  0
  8  9  2  0
  8 10  1  0
 10 11  1  0
 10 12  2  0
 12 13  1  0
 13 14  2  0
 13 40  1  0
 14 15  1  0
 15 16  2  0
 15 38  1  0
 16 17  1  0
 17 18  1  0
 17 36  2  0
 18 19  1  0
 19 20  1  0
 20 21  2  0
 20 22  1  0
 22 23  1  0
 23 24  2  0
 23 25  1  0
 25 26  1  0
 26 27  2  0
 26 31  1  0
 27 28  1  0
 28 29  2  0
 28 35  1  0
 29 30  1  0
 29 33  1  0
 30 31  2  0
 31 32  1  0
 33 34  1  0
 34 35  1  0
 36 37  1  0
 37 38  2  0
 38 39  1  0
 39 40  2  0
M  END
