
     RDKit          3D

 40 44  0  0  0  0  0  0  0  0999 V2000
    3.0700   -0.0070   -3.5360 C   0  0  0  0  0  0  0  0  0  0  0  0
    2.9240    0.6900   -2.1810 C   0  0  2  0  0  0  0  0  0  0  0  0
    3.8260    0.0030   -1.2700 N   0  0  0  0  0  0  0  0  0  0  0  0
    4.9940    0.6200   -0.7520 C   0  0  0  0  0  0  0  0  0  0  0  0
    5.1970    1.8180   -1.1490 O   0  0  0  0  0  0  0  0  0  0  0  0
    5.9440    0.0220    0.1580 C   0  0  0  0  0  0  0  0  0  0  0  0
    7.1600    0.5970    0.4930 C   0  0  0  0  0  0  0  0  0  0  0  0
    7.8530   -0.2190    1.3750 C   0  0  0  0  0  0  0  0  0  0  0  0
    9.0420   -0.0050    1.9120 C   0  0  0  0  0  0  0  0  0  0  0  0
    9.8300    1.2080    1.6180 C   0  0  0  0  0  0  0  0  0  0  0  0
    9.8680    1.4400    0.2320 O   0  0  0  0  0  0  0  0  0  0  0  0
    7.0640   -1.2860    1.5760 N   0  0  0  0  0  0  0  0  0  0  0  0
    7.0220   -2.4410    2.2530 C   0  0  0  0  0  0  0  0  0  0  0  0
    5.8410   -3.0960    1.9880 C   0  0  0  0  0  0  0  0  0  0  0  0
    5.1410   -2.2810    1.1010 C   0  0  0  0  0  0  0  0  0  0  0  0
    5.9110   -1.1750    0.8610 C   0  0  0  0  0  0  0  0  0  0  0  0
    1.5260    0.6870   -1.7180 C   0  0  0  0  0  0  0  0  0  0  0  0
    0.7130    1.7990   -1.7310 C   0  0  0  0  0  0  0  0  0  0  0  0
   -0.5920    1.6990   -1.2770 C   0  0  0  0  0  0  0  0  0  0  0  0
   -1.1330    0.5270   -0.8050 C   0  0  0  0  0  0  0  0  0  0  0  0
   -0.3240   -0.6040   -0.7870 C   0  0  0  0  0  0  0  0  0  0  0  0
    0.9940   -0.4850   -1.2490 C   0  0  0  0  0  0  0  0  0  0  0  0
   -1.0450   -1.7050   -0.2760 N   0  0  0  0  0  0  0  0  0  0  0  0
   -2.3430   -1.3000    0.0470 C   0  0  0  0  0  0  0  0  0  0  0  0
   -3.2970   -1.9680    0.5260 O   0  0  0  0  0  0  0  0  0  0  0  0
   -2.4400    0.1540   -0.2850 C   0  0  0  0  0  0  0  0  0  0  0  0
   -3.5010    0.8790   -0.1140 C   0  0  0  0  0  0  0  0  0  0  0  0
   -3.7520    2.2590   -0.3690 C   0  0  0  0  0  0  0  0  0  0  0  0
   -4.9870    2.7750   -0.0940 C   0  0  0  0  0  0  0  0  0  0  0  0
   -5.2710    4.4540   -0.4100 Cl  0  0  0  0  0  0  0  0  0  0  0  0
   -5.9660    1.9020    0.4270 N   0  0  0  0  0  0  0  0  0  0  0  0
   -6.8650    1.3390   -0.3230 C   0  0  0  0  0  0  0  0  0  0  0  0
   -7.8750    0.4390    0.2130 C   0  0  0  0  0  0  0  0  0  0  0  0
   -7.9690    0.1260    1.4440 N   0  0  0  0  0  0  0  0  0  0  0  0
   -8.9440   -0.7410    1.9450 N   0  0  0  0  0  0  0  0  0  0  0  0
   -9.4170   -0.7270    3.3050 C   0  0  0  0  0  0  0  0  0  0  0  0
   -9.5160   -1.7130    1.0400 C   0  0  0  0  0  0  0  0  0  0  0  0
   -9.8220   -1.0180   -0.1980 N   0  0  0  0  0  0  0  0  0  0  0  0
   -8.8430   -0.1440   -0.7270 C   0  0  0  0  0  0  0  0  0  0  0  0
   -8.8040    0.1260   -1.9570 O   0  0  0  0  0  0  0  0  0  0  0  0
  2  1  1  6
  2  3  1  0
  2 17  1  0
  3  4  1  0
  4  5  2  0
  4  6  1  0
  6  7  2  0
  6 16  1  0
  7  8  1  0
  8  9  2  3
  8 12  1  0
  9 10  1  0
 10 11  1  0
 12 13  1  0
 12 16  1  0
 13 14  2  0
 14 15  1  0
 15 16  2  0
 17 18  2  0
 17 22  1  0
 18 19  1  0
 19 20  2  0
 20 21  1  0
 20 26  1  0
 21 22  2  0
 21 23  1  0
 23 24  1  0
 24 25  2  0
 24 26  1  0
 26 27  2  3
 27 28  1  0
 28 29  2  3
 29 30  1  0
 29 31  1  0
 31 32  2  3
 32 33  1  0
 33 34  2  0
 33 39  1  0
 34 35  1  0
 35 36  1  0
 35 37  1  0
 37 38  1  0
 38 39  1  0
 39 40  2  0
M  END
