
     RDKit          3D

 46 50  0  0  0  0  0  0  0  0999 V2000
    9.4110    3.6030   -1.1760 C   0  0  0  0  0  0  0  0  0  0  0  0
    9.2930    2.1960   -1.1280 O   0  0  0  0  0  0  0  0  0  0  0  0
    8.2520    1.5890   -0.4490 C   0  0  0  0  0  0  0  0  0  0  0  0
    8.1300    0.2000   -0.3980 C   0  0  0  0  0  0  0  0  0  0  0  0
    7.0940   -0.4220    0.2780 C   0  0  0  0  0  0  0  0  0  0  0  0
    6.1500    0.3410    0.9220 C   0  0  0  0  0  0  0  0  0  0  0  0
    4.8400   -0.4310    1.7750 S   0  0  1  0  0  0  0  0  0  0  0  0
    5.2940   -1.8130    2.1480 O   0  0  0  0  0  0  0  0  0  0  0  0
    4.5790    0.4120    2.9950 O   0  0  0  0  0  0  0  0  0  0  0  0
    3.4350   -0.4090    0.7980 N   0  0  0  0  0  0  0  0  0  0  0  0
    3.5150   -1.0860   -0.4140 C   0  0  0  0  0  0  0  0  0  0  0  0
    4.0170   -0.4220   -1.6380 C   0  0  1  0  0  0  0  0  0  0  0  0
    3.9800   -1.5170   -2.7460 C   0  0  0  0  0  0  0  0  0  0  0  0
    3.0580    0.6330   -2.1630 C   0  0  0  0  0  0  0  0  0  0  0  0
    2.5700    0.6620    1.0250 C   0  0  0  0  0  0  0  0  0  0  0  0
    1.6410    0.5870    2.2030 C   0  0  1  0  0  0  0  0  0  0  0  0
    0.8930    1.7970    2.2470 O   0  0  0  0  0  0  0  0  0  0  0  0
    0.5500   -0.4830    2.0590 C   0  0  2  0  0  0  0  0  0  0  0  0
    1.0100   -1.8550    2.3670 C   0  0  0  0  0  0  0  0  0  0  0  0
   -0.0110   -2.8980    2.2430 C   0  0  0  0  0  0  0  0  0  0  0  0
   -0.2440   -3.6370    1.1050 C   0  0  0  0  0  0  0  0  0  0  0  0
   -1.2250   -4.6000    1.0520 C   0  0  0  0  0  0  0  0  0  0  0  0
   -2.0340   -4.8650    2.1700 C   0  0  0  0  0  0  0  0  0  0  0  0
   -1.8110   -4.1320    3.3130 C   0  0  0  0  0  0  0  0  0  0  0  0
   -0.8180   -3.1760    3.3300 C   0  0  0  0  0  0  0  0  0  0  0  0
   -0.2050   -0.2940    0.8670 N   0  0  0  0  0  0  0  0  0  0  0  0
   -1.4870    0.3070    0.8880 C   0  0  0  0  0  0  0  0  0  0  0  0
   -1.9480    0.6730    2.0290 O   0  0  0  0  0  0  0  0  0  0  0  0
   -2.2840    0.5370   -0.2170 O   0  0  0  0  0  0  0  0  0  0  0  0
   -3.5430    1.1540   -0.0580 C   0  0  2  0  0  0  0  0  0  0  0  0
   -4.6820    0.3660   -0.6560 C   0  0  0  0  0  0  0  0  0  0  0  0
   -5.7360    1.4460   -0.8060 C   0  0  1  0  0  0  0  0  0  0  0  0
   -4.9480    2.5760   -1.4500 C   0  0  1  0  0  0  0  0  0  0  0  0
   -3.6070    2.4840   -0.7930 C   0  0  0  0  0  0  0  0  0  0  0  0
   -4.9260    2.1880   -2.8040 O   0  0  0  0  0  0  0  0  0  0  0  0
   -6.0950    1.4880   -3.0510 C   0  0  0  0  0  0  0  0  0  0  0  0
   -6.5650    1.1870   -4.2000 O   0  0  0  0  0  0  0  0  0  0  0  0
   -6.7180    1.1400   -1.8220 N   0  0  0  0  0  0  0  0  0  0  0  0
   -8.0150    0.6110   -1.6430 C   0  0  0  0  0  0  0  0  0  0  0  0
   -8.4550   -0.4190   -2.4350 C   0  0  0  0  0  0  0  0  0  0  0  0
   -9.7210   -0.9450   -2.2690 C   0  0  0  0  0  0  0  0  0  0  0  0
  -10.5720   -0.4530   -1.3080 C   0  0  0  0  0  0  0  0  0  0  0  0
  -10.1470    0.5760   -0.5090 C   0  0  0  0  0  0  0  0  0  0  0  0
   -8.8660    1.1050   -0.6820 C   0  0  0  0  0  0  0  0  0  0  0  0
    6.2770    1.7210    0.8680 C   0  0  0  0  0  0  0  0  0  0  0  0
    7.3030    2.3490    0.1990 C   0  0  0  0  0  0  0  0  0  0  0  0
  1  2  1  0
  2  3  1  0
  3  4  2  0
  3 46  1  0
  4  5  1  0
  5  6  2  0
  6  7  1  0
  6 45  1  0
  7  8  2  0
  7  9  2  0
  7 10  1  6
 10 11  1  0
 10 15  1  0
 11 12  1  0
 12 13  1  6
 12 14  1  0
 15 16  1  0
 16 17  1  6
 16 18  1  0
 18 19  1  6
 18 26  1  0
 19 20  1  0
 20 21  2  0
 20 25  1  0
 21 22  1  0
 22 23  2  0
 23 24  1  0
 24 25  2  0
 26 27  1  0
 27 28  2  0
 27 29  1  0
 30 29  1  6
 30 31  1  0
 30 34  1  0
 32 31  1  6
 32 33  1  0
 32 38  1  0
 33 34  1  1
 33 35  1  0
 35 36  1  0
 36 37  2  0
 36 38  1  0
 38 39  1  0
 39 40  2  0
 39 44  1  0
 40 41  1  0
 41 42  2  0
 42 43  1  0
 43 44  2  0
 45 46  2  0
M  END
