
     RDKit          3D

 44 47  0  0  0  0  0  0  0  0999 V2000
   -0.1220    5.5420    0.2100 C   0  0  0  0  0  0  0  0  0  0  0  0
    0.0630    4.1570    0.7380 C   0  0  0  0  0  0  0  0  0  0  0  0
    0.9820    3.3840    0.1600 C   0  0  0  0  0  0  0  0  0  0  0  0
    1.8110    3.7970   -0.9430 C   0  0  0  0  0  0  0  0  0  0  0  0
    3.0040    3.5480   -1.3520 C   0  0  0  0  0  0  0  0  0  0  0  0
    4.1420    2.7990   -1.0210 N   0  0  0  0  0  0  0  0  0  0  0  0
    4.9300    2.3500    0.0450 C   0  0  0  0  0  0  0  0  0  0  0  0
    6.0330    3.3020    0.6470 C   0  0  0  0  0  0  0  0  0  0  0  0
    4.9820    1.1750    0.6950 C   0  0  0  0  0  0  0  0  0  0  0  0
    4.1800   -0.0750    0.4810 C   0  0  0  0  0  0  0  0  0  0  0  0
    3.1550   -0.4880    1.3290 C   0  0  0  0  0  0  0  0  0  0  0  0
    2.4310   -1.6750    1.1520 C   0  0  0  0  0  0  0  0  0  0  0  0
    2.6430   -2.5800    0.1150 C   0  0  0  0  0  0  0  0  0  0  0  0
    3.6560   -2.1580   -0.7210 C   0  0  0  0  0  0  0  0  0  0  0  0
    4.3990   -0.9650   -0.5590 C   0  0  0  0  0  0  0  0  0  0  0  0
    1.8940   -3.8010   -0.0450 N   0  0  0  0  0  0  0  0  0  0  0  0
    0.6310   -3.8770   -0.7530 C   0  0  0  0  0  0  0  0  0  0  0  0
   -0.3980   -4.3630   -0.1610 O   0  0  0  0  0  0  0  0  0  0  0  0
    0.4190   -3.4270   -2.1450 C   0  0  0  0  0  0  0  0  0  0  0  0
   -1.0370   -3.1530   -2.4480 C   0  0  0  0  0  0  0  0  0  0  0  0
   -1.7470   -2.4140   -1.4570 N   0  0  0  0  0  0  0  0  0  0  0  0
   -3.0390   -2.9240   -1.2090 C   0  0  0  0  0  0  0  0  0  0  0  0
   -3.2150   -4.0700   -1.7270 O   0  0  0  0  0  0  0  0  0  0  0  0
   -4.2020   -2.3460   -0.4540 C   0  0  1  0  0  0  0  0  0  0  0  0
   -5.2410   -3.4090   -0.3650 C   0  0  0  0  0  0  0  0  0  0  0  0
   -3.8110   -1.7870    0.7930 N   0  0  0  0  0  0  0  0  0  0  0  0
   -4.7740   -1.8080    1.8610 C   0  0  0  0  0  0  0  0  0  0  0  0
   -4.6790   -3.0530    2.7240 C   0  0  0  0  0  0  0  0  0  0  0  0
   -5.8900   -3.0270    4.0230 Cl  0  0  0  0  0  0  0  0  0  0  0  0
   -2.5690   -1.1640    1.2150 C   0  0  0  0  0  0  0  0  0  0  0  0
   -2.3750   -1.0290    2.4470 O   0  0  0  0  0  0  0  0  0  0  0  0
   -1.4850   -0.6650    0.3380 C   0  0  0  0  0  0  0  0  0  0  0  0
   -1.1280   -1.2830   -0.8410 C   0  0  0  0  0  0  0  0  0  0  0  0
   -0.0960   -0.7450   -1.4410 N   0  0  0  0  0  0  0  0  0  0  0  0
    0.6760    0.3480   -1.0490 C   0  0  0  0  0  0  0  0  0  0  0  0
    1.6170    0.5270   -2.2400 C   0  0  0  0  0  0  0  0  0  0  0  0
    1.0860    1.5320   -3.2320 C   0  0  0  0  0  0  0  0  0  0  0  0
    0.2950    0.9330    0.1330 C   0  0  0  0  0  0  0  0  0  0  0  0
   -0.7930    0.4640    0.8640 C   0  0  0  0  0  0  0  0  0  0  0  0
   -1.6150    0.9520    2.0150 C   0  0  0  0  0  0  0  0  0  0  0  0
   -1.3200    1.0980    3.1980 O   0  0  0  0  0  0  0  0  0  0  0  0
   -2.9960    1.3340    1.7160 N   0  0  0  0  0  0  0  0  0  0  0  0
   -3.8740    1.8290    2.7460 C   0  0  0  0  0  0  0  0  0  0  0  0
    1.1200    2.0180    0.7330 C   0  0  0  0  0  0  0  0  0  0  0  0
  1  2  1  0
  2  3  2  3
  3  4  1  0
  3 44  1  0
  4  5  2  0
  5  6  1  0
  6  7  1  0
  7  8  1  0
  7  9  2  0
  9 10  1  0
 10 11  2  0
 10 15  1  0
 11 12  1  0
 12 13  2  0
 13 14  1  0
 13 16  1  0
 14 15  2  0
 16 17  1  0
 17 18  2  0
 17 19  1  0
 19 20  1  0
 20 21  1  0
 21 22  1  0
 21 33  1  0
 22 23  2  0
 22 24  1  0
 24 25  1  1
 24 26  1  0
 26 27  1  0
 26 30  1  0
 27 28  1  0
 28 29  1  0
 30 31  2  0
 30 32  1  0
 32 33  1  0
 32 39  2  0
 33 34  2  0
 34 35  1  0
 35 36  1  0
 35 38  2  0
 36 37  1  0
 38 39  1  0
 38 44  1  0
 39 40  1  0
 40 41  2  0
 40 42  1  0
 42 43  1  0
M  END
