
     RDKit          3D

 44 48  0  0  0  0  0  0  0  0999 V2000
    5.5160    2.0550    0.1750 C   0  0  0  0  0  0  0  0  0  0  0  0
    4.6950    1.5980    1.3470 C   0  0  0  0  0  0  0  0  0  0  0  0
    3.2990    1.2340    0.9150 C   0  0  0  0  0  0  0  0  0  0  0  0
    3.2870    0.0860   -0.1400 C   0  0  0  0  0  0  0  0  0  0  0  0
    3.5980    0.3570   -1.4600 C   0  0  0  0  0  0  0  0  0  0  0  0
    3.9270   -0.6610   -2.3740 C   0  0  0  0  0  0  0  0  0  0  0  0
    3.9580   -1.9890   -2.0600 C   0  0  0  0  0  0  0  0  0  0  0  0
    3.6280   -2.2500   -0.7590 C   0  0  0  0  0  0  0  0  0  0  0  0
    3.7510   -3.7230   -0.3800 C   0  0  0  0  0  0  0  0  0  0  0  0
    3.2940   -1.2660    0.1770 C   0  0  0  0  0  0  0  0  0  0  0  0
    2.6510   -2.0120    1.3460 C   0  0  0  0  0  0  0  0  0  0  0  0
    3.2620   -3.0260    1.8540 O   0  0  0  0  0  0  0  0  0  0  0  0
    1.4370   -1.7360    1.9670 N   0  0  0  0  0  0  0  0  0  0  0  0
    0.4660   -1.0570    2.2290 C   0  0  0  0  0  0  0  0  0  0  0  0
    0.1380    0.3020    1.7560 N   0  0  0  0  0  0  0  0  0  0  0  0
   -0.6080   -1.4970    3.1320 N   0  0  0  0  0  0  0  0  0  0  0  0
   -1.3950   -2.6650    3.1270 C   0  0  0  0  0  0  0  0  0  0  0  0
   -1.1930   -3.5500    4.2410 C   0  0  0  0  0  0  0  0  0  0  0  0
   -1.8650   -4.7130    4.4160 C   0  0  0  0  0  0  0  0  0  0  0  0
   -2.7950   -5.0870    3.4940 C   0  0  0  0  0  0  0  0  0  0  0  0
   -3.7100   -6.5960    3.6530 Cl  0  0  0  0  0  0  0  0  0  0  0  0
   -3.0150   -4.2570    2.4110 C   0  0  0  0  0  0  0  0  0  0  0  0
   -2.3390   -3.0420    2.1940 C   0  0  0  0  0  0  0  0  0  0  0  0
   -2.7860   -2.3650    1.0460 N   0  0  0  0  0  0  0  0  0  0  0  0
   -3.5890   -2.7780   -0.1500 C   0  0  0  0  0  0  0  0  0  0  0  0
   -4.6510   -1.6600    0.0340 C   0  0  1  0  0  0  0  0  0  0  0  0
   -5.2910   -1.7620    1.3890 C   0  0  0  0  0  0  0  0  0  0  0  0
   -3.7290   -0.5260   -0.0620 N   0  0  0  0  0  0  0  0  0  0  0  0
   -2.5700   -0.9610    0.7660 C   0  0  0  0  0  0  0  0  0  0  0  0
   -3.7650    0.7180   -0.7360 C   0  0  0  0  0  0  0  0  0  0  0  0
   -4.9470    1.0500   -1.1860 O   0  0  0  0  0  0  0  0  0  0  0  0
   -2.6880    1.6620   -0.9870 C   0  0  0  0  0  0  0  0  0  0  0  0
   -2.8720    2.5270   -2.2230 C   0  0  0  0  0  0  0  0  0  0  0  0
   -2.9100    3.9620   -1.8800 C   0  0  0  0  0  0  0  0  0  0  0  0
   -4.0950    4.3710   -1.5010 O   0  0  0  0  0  0  0  0  0  0  0  0
   -1.8680    4.8990   -1.9120 N   0  0  0  0  0  0  0  0  0  0  0  0
   -0.9340    5.0110   -3.0040 C   0  0  0  0  0  0  0  0  0  0  0  0
    0.3010    4.1550   -2.8370 C   0  0  0  0  0  0  0  0  0  0  0  0
    1.2390    4.4150   -1.8700 C   0  0  0  0  0  0  0  0  0  0  0  0
    2.3540    3.5450   -1.6910 C   0  0  0  0  0  0  0  0  0  0  0  0
    2.5260    2.4420   -2.4620 C   0  0  0  0  0  0  0  0  0  0  0  0
    1.6100    2.1910   -3.4180 C   0  0  0  0  0  0  0  0  0  0  0  0
    0.4780    3.0470   -3.6190 C   0  0  0  0  0  0  0  0  0  0  0  0
    3.6520    1.5500   -2.2560 O   0  0  0  0  0  0  0  0  0  0  0  0
  1  2  1  0
  2  3  1  0
  3  4  1  0
  4  5  2  0
  4 10  1  0
  5  6  1  0
  5 44  1  0
  6  7  2  0
  7  8  1  0
  8  9  1  0
  8 10  2  0
 10 11  1  0
 11 12  2  0
 11 13  1  0
 13 14  2  0
 14 15  1  0
 14 16  1  0
 16 17  1  0
 17 18  2  0
 17 23  1  0
 18 19  1  0
 19 20  2  0
 20 21  1  0
 20 22  1  0
 22 23  2  0
 23 24  1  0
 24 25  1  0
 24 29  1  0
 25 26  1  0
 26 27  1  1
 26 28  1  0
 28 29  1  0
 28 30  1  0
 30 31  2  0
 30 32  1  0
 32 33  1  0
 33 34  1  0
 34 35  2  0
 34 36  1  0
 36 37  1  0
 37 38  1  0
 38 39  2  0
 38 43  1  0
 39 40  1  0
 40 41  2  0
 41 42  1  0
 41 44  1  0
 42 43  2  0
M  END
