
     RDKit          3D

 44 49  0  0  0  0  0  0  0  0999 V2000
    4.1590   -1.5570    2.0910 C   0  0  0  0  0  0  0  0  0  0  0  0
    4.0780   -0.9290    0.7410 C   0  0  0  0  0  0  0  0  0  0  0  0
    5.0830   -0.8360   -0.0710 C   0  0  0  0  0  0  0  0  0  0  0  0
    6.4090   -1.3570    0.3050 C   0  0  0  0  0  0  0  0  0  0  0  0
    7.5840   -0.7970   -0.4000 C   0  0  1  0  0  0  0  0  0  0  0  0
    8.3940   -1.9840   -0.9610 C   0  0  0  0  0  0  0  0  0  0  0  0
    7.3580    0.1250   -1.5340 C   0  0  0  0  0  0  0  0  0  0  0  0
    6.0430    0.8620   -1.4770 C   0  0  0  0  0  0  0  0  0  0  0  0
    4.9650   -0.2320   -1.4150 C   0  0  2  0  0  0  0  0  0  0  0  0
    3.6380    0.3000   -1.7100 C   0  0  0  0  0  0  0  0  0  0  0  0
    2.6260    0.2090   -0.8790 C   0  0  0  0  0  0  0  0  0  0  0  0
    1.3450    0.7360   -1.1990 N   0  0  0  0  0  0  0  0  0  0  0  0
    0.2750    0.6370   -0.2700 C   0  0  0  0  0  0  0  0  0  0  0  0
    0.3310    0.0860    0.9120 C   0  0  0  0  0  0  0  0  0  0  0  0
   -0.6970   -0.0420    1.8970 C   0  0  0  0  0  0  0  0  0  0  0  0
   -0.4120   -0.8180    2.9460 O   0  0  0  0  0  0  0  0  0  0  0  0
   -1.9630    0.4850    1.9790 N   0  0  0  0  0  0  0  0  0  0  0  0
   -2.8780   -0.2650    2.9050 C   0  0  0  0  0  0  0  0  0  0  0  0
   -3.5760   -1.3710    2.3530 C   0  0  0  0  0  0  0  0  0  0  0  0
   -4.3980   -1.9500    3.2000 O   0  0  0  0  0  0  0  0  0  0  0  0
   -3.4980   -1.9130    1.0520 N   0  0  0  0  0  0  0  0  0  0  0  0
   -2.6900   -1.5220   -0.0650 C   0  0  0  0  0  0  0  0  0  0  0  0
   -3.3340   -2.1260   -1.3110 C   0  0  0  0  0  0  0  0  0  0  0  0
   -4.1800   -3.1900   -0.7670 C   0  0  0  0  0  0  0  0  0  0  0  0
   -4.8420   -4.2310   -1.4360 C   0  0  0  0  0  0  0  0  0  0  0  0
   -5.5890   -5.1470   -0.7420 C   0  0  0  0  0  0  0  0  0  0  0  0
   -6.2710   -6.2140   -1.4060 N   0  0  0  0  0  0  0  0  0  0  0  0
   -5.6550   -4.9980    0.6190 C   0  0  0  0  0  0  0  0  0  0  0  0
   -5.0050   -3.9720    1.2910 C   0  0  0  0  0  0  0  0  0  0  0  0
   -4.2610   -3.0610    0.5870 C   0  0  0  0  0  0  0  0  0  0  0  0
   -2.5640    1.6710    1.4800 C   0  0  0  0  0  0  0  0  0  0  0  0
   -3.8500    1.7710    1.6760 O   0  0  0  0  0  0  0  0  0  0  0  0
   -2.0000    2.7530    0.8300 N   0  0  0  0  0  0  0  0  0  0  0  0
   -2.6580    3.9270    0.3370 C   0  0  0  0  0  0  0  0  0  0  0  0
   -3.9200    4.3180    0.6670 C   0  0  0  0  0  0  0  0  0  0  0  0
   -4.5000    5.4760    0.1230 C   0  0  0  0  0  0  0  0  0  0  0  0
   -3.8160    6.2560   -0.7620 C   0  0  0  0  0  0  0  0  0  0  0  0
   -4.4790    7.4690   -1.3040 C   0  0  0  0  0  0  0  0  0  0  0  0
   -2.5460    5.8740   -1.1000 C   0  0  0  0  0  0  0  0  0  0  0  0
   -1.6470    6.8610   -2.2320 Cl  0  0  0  0  0  0  0  0  0  0  0  0
   -1.9740    4.7470   -0.5750 C   0  0  0  0  0  0  0  0  0  0  0  0
    1.6790   -0.4680    1.2490 C   0  0  0  0  0  0  0  0  0  0  0  0
    1.8160   -1.0120    2.3680 O   0  0  0  0  0  0  0  0  0  0  0  0
    2.7870   -0.4040    0.3740 N   0  0  0  0  0  0  0  0  0  0  0  0
  1  2  1  0
  2  3  2  0
  2 44  1  0
  3  4  1  0
  3  9  1  0
  4  5  1  0
  5  6  1  6
  5  7  1  0
  7  8  1  0
  9  8  1  1
  9 10  1  0
 10 11  2  0
 11 12  1  0
 11 44  1  0
 12 13  1  0
 13 14  2  0
 14 15  1  0
 14 42  1  0
 15 16  2  0
 15 17  1  0
 17 18  1  0
 17 31  1  0
 18 19  1  0
 19 20  2  0
 19 21  1  0
 21 22  1  0
 21 30  1  0
 22 23  1  0
 23 24  1  0
 24 25  2  0
 24 30  1  0
 25 26  1  0
 26 27  1  0
 26 28  2  0
 28 29  1  0
 29 30  2  0
 31 32  2  0
 31 33  1  0
 33 34  1  0
 34 35  2  0
 34 41  1  0
 35 36  1  0
 36 37  2  0
 37 38  1  0
 37 39  1  0
 39 40  1  0
 39 41  2  0
 42 43  2  0
 42 44  1  0
M  END
