
     RDKit          3D

 43 47  0  0  0  0  0  0  0  0999 V2000
   -6.1270    2.1530   -0.1740 C   0  0  0  0  0  0  0  0  0  0  0  0
   -4.8180    1.9810    0.5240 C   0  0  0  0  0  0  0  0  0  0  0  0
   -4.6670    1.7080    1.7870 C   0  0  0  0  0  0  0  0  0  0  0  0
   -5.7210    1.5080    2.7950 C   0  0  0  0  0  0  0  0  0  0  0  0
   -3.2030    1.6200    2.0450 C   0  0  0  0  0  0  0  0  0  0  0  0
   -2.7260    1.3650    3.1640 O   0  0  0  0  0  0  0  0  0  0  0  0
   -2.5050    1.8700    0.8010 C   0  0  0  0  0  0  0  0  0  0  0  0
   -1.1690    1.8840    0.6210 C   0  0  0  0  0  0  0  0  0  0  0  0
   -0.2870    1.6300    1.7510 C   0  0  0  0  0  0  0  0  0  0  0  0
    0.8110    0.9710    1.9050 C   0  0  0  0  0  0  0  0  0  0  0  0
    1.6630    0.1730    1.0070 C   0  0  0  0  0  0  0  0  0  0  0  0
    3.0460    0.6190    0.8580 C   0  0  0  0  0  0  0  0  0  0  0  0
    3.3760    1.6420    1.6120 O   0  0  0  0  0  0  0  0  0  0  0  0
    4.0770    0.1530    0.0600 N   0  0  0  0  0  0  0  0  0  0  0  0
    5.4700    0.5550    0.2370 C   0  0  0  0  0  0  0  0  0  0  0  0
    6.0980    1.0070    1.3730 C   0  0  0  0  0  0  0  0  0  0  0  0
    7.4580    1.3390    1.3800 C   0  0  0  0  0  0  0  0  0  0  0  0
    8.2130    1.9070    2.8540 Cl  0  0  0  0  0  0  0  0  0  0  0  0
    8.1600    1.1970    0.1970 C   0  0  0  0  0  0  0  0  0  0  0  0
    7.5150    0.7440   -0.9280 C   0  0  0  0  0  0  0  0  0  0  0  0
    6.1660    0.4140   -0.9400 C   0  0  0  0  0  0  0  0  0  0  0  0
    5.2430   -0.0830   -1.9770 C   0  0  2  0  0  0  0  0  0  0  0  0
    4.6370    1.0730   -2.6970 C   0  0  0  0  0  0  0  0  0  0  0  0
    4.1210   -0.7090   -1.0870 C   0  0  1  0  0  0  0  0  0  0  0  0
    4.6830   -2.0880   -0.7520 C   0  0  0  0  0  0  0  0  0  0  0  0
    1.2120   -0.9640    0.4400 C   0  0  0  0  0  0  0  0  0  0  0  0
   -0.0360   -1.6530    0.5090 C   0  0  0  0  0  0  0  0  0  0  0  0
   -0.0070   -2.7620    1.2410 O   0  0  0  0  0  0  0  0  0  0  0  0
   -1.2970   -1.4420   -0.0200 N   0  0  0  0  0  0  0  0  0  0  0  0
   -1.9320   -1.0320   -0.9770 C   0  0  0  0  0  0  0  0  0  0  0  0
   -3.3960   -1.0880   -0.9130 N   0  0  0  0  0  0  0  0  0  0  0  0
   -4.0630   -2.1740   -0.3310 C   0  0  0  0  0  0  0  0  0  0  0  0
   -3.3980   -3.3240    0.0120 C   0  0  0  0  0  0  0  0  0  0  0  0
   -4.0060   -4.4330    0.5900 C   0  0  0  0  0  0  0  0  0  0  0  0
   -5.3590   -4.3990    0.8480 C   0  0  0  0  0  0  0  0  0  0  0  0
   -6.0660   -3.2380    0.5110 C   0  0  0  0  0  0  0  0  0  0  0  0
   -5.4290   -2.1610   -0.0610 C   0  0  0  0  0  0  0  0  0  0  0  0
   -1.4540   -0.4510   -2.2790 C   0  0  0  0  0  0  0  0  0  0  0  0
   -0.1490    0.1010   -2.0610 N   0  0  0  0  0  0  0  0  0  0  0  0
    0.0790    1.4190   -1.5620 C   0  0  0  0  0  0  0  0  0  0  0  0
    1.1750    1.9560   -1.9540 O   0  0  0  0  0  0  0  0  0  0  0  0
   -0.7410    2.1670   -0.7150 N   0  0  0  0  0  0  0  0  0  0  0  0
   -3.5560    2.0930   -0.1260 N   0  0  0  0  0  0  0  0  0  0  0  0
  1  2  1  0
  2  3  2  0
  2 43  1  0
  3  4  1  0
  3  5  1  0
  5  6  2  0
  5  7  1  0
  7  8  2  3
  7 43  1  0
  8  9  1  0
  8 42  1  0
  9 10  2  0
 10 11  1  0
 11 12  1  0
 11 26  2  0
 12 13  2  0
 12 14  1  0
 14 15  1  0
 14 24  1  0
 15 16  2  0
 15 21  1  0
 16 17  1  0
 17 18  1  0
 17 19  2  0
 19 20  1  0
 20 21  2  0
 21 22  1  0
 22 23  1  1
 22 24  1  0
 24 25  1  1
 26 27  1  0
 27 28  2  0
 27 29  1  0
 29 30  2  0
 30 31  1  0
 30 38  1  0
 31 32  1  0
 32 33  2  0
 32 37  1  0
 33 34  1  0
 34 35  2  0
 35 36  1  0
 36 37  2  0
 38 39  1  0
 39 40  1  0
 40 41  2  0
 40 42  1  0
M  END
