
     RDKit          3D

 43 45  0  0  0  0  0  0  0  0999 V2000
    4.9780   -0.7000    1.8480 C   0  0  0  0  0  0  0  0  0  0  0  0
    4.3920   -0.8320    0.4430 C   0  0  2  0  0  0  0  0  0  0  0  0
    4.9810    0.2740   -0.3800 C   0  0  0  0  0  0  0  0  0  0  0  0
    3.0040   -0.8270    0.5040 O   0  0  0  0  0  0  0  0  0  0  0  0
    2.1460   -0.9300   -0.5820 C   0  0  0  0  0  0  0  0  0  0  0  0
    2.7680   -1.0340   -1.6830 O   0  0  0  0  0  0  0  0  0  0  0  0
    0.7280   -0.9160   -0.4060 C   0  0  2  0  0  0  0  0  0  0  0  0
    0.1000   -1.4030   -1.7260 C   0  0  0  0  0  0  0  0  0  0  0  0
    0.3000   -0.4540   -2.8420 C   0  0  0  0  0  0  0  0  0  0  0  0
    0.4160    0.9250   -2.4580 N   0  0  0  0  0  0  0  0  0  0  0  0
    0.3530    1.4000   -1.0940 C   0  0  0  0  0  0  0  0  0  0  0  0
   -0.0080    0.3540   -0.1150 C   0  0  2  0  0  0  0  0  0  0  0  0
    0.2610    0.9310    1.2420 C   0  0  0  0  0  0  0  0  0  0  0  0
   -0.7070    0.8190    2.0730 O   0  0  0  0  0  0  0  0  0  0  0  0
    1.4280    1.5550    1.6690 N   0  0  0  0  0  0  0  0  0  0  0  0
    1.5850    2.0530    3.0000 C   0  0  0  0  0  0  0  0  0  0  0  0
    1.5390    1.0460    4.0830 C   0  0  0  0  0  0  0  0  0  0  0  0
    0.4140    0.2990    4.2350 O   0  0  0  0  0  0  0  0  0  0  0  0
   -1.4320   -0.0860   -0.0820 C   0  0  0  0  0  0  0  0  0  0  0  0
   -1.4960   -1.0870    1.0010 N   0  0  0  0  0  0  0  0  0  0  0  0
   -2.5090   -1.2670    1.7270 C   0  0  0  0  0  0  0  0  0  0  0  0
   -3.6220   -0.4780    1.4910 O   0  0  0  0  0  0  0  0  0  0  0  0
   -2.5010   -2.2910    2.7920 C   0  0  0  0  0  0  0  0  0  0  0  0
   -3.4520   -3.3400    2.5930 N   0  0  0  0  0  0  0  0  0  0  0  0
   -4.8530   -3.1550    2.5180 C   0  0  0  0  0  0  0  0  0  0  0  0
   -5.3580   -2.0150    2.6310 O   0  0  0  0  0  0  0  0  0  0  0  0
   -5.7370   -4.2310    2.3150 O   0  0  0  0  0  0  0  0  0  0  0  0
   -2.4500    0.1630   -0.6740 N   0  0  0  0  0  0  0  0  0  0  0  0
   -3.0990    0.8740   -1.6520 C   0  0  0  0  0  0  0  0  0  0  0  0
   -4.4420    0.6960   -2.0060 C   0  0  0  0  0  0  0  0  0  0  0  0
   -5.0550    1.4220   -2.9920 C   0  0  0  0  0  0  0  0  0  0  0  0
   -4.2910    2.3770   -3.6630 C   0  0  0  0  0  0  0  0  0  0  0  0
   -2.9670    2.5420   -3.3040 C   0  0  0  0  0  0  0  0  0  0  0  0
   -2.4810    1.7940   -2.3470 N   0  0  0  0  0  0  0  0  0  0  0  0
   -2.1200    3.5500   -4.0060 C   0  0  0  0  0  0  0  0  0  0  0  0
   -2.6470    4.0520   -5.0290 O   0  0  0  0  0  0  0  0  0  0  0  0
   -0.9020    3.8070   -3.4730 O   0  0  0  0  0  0  0  0  0  0  0  0
    0.2400    3.1590   -3.4510 O   0  0  0  0  0  0  0  0  0  0  0  0
    0.6040    1.8590   -3.5340 C   0  0  0  0  0  0  0  0  0  0  0  0
    1.1500    1.3970   -4.6130 O   0  0  0  0  0  0  0  0  0  0  0  0
    4.9080   -2.1220   -0.1160 C   0  0  0  0  0  0  0  0  0  0  0  0
    4.1220   -3.0380   -0.4630 O   0  0  0  0  0  0  0  0  0  0  0  0
    6.2650   -2.3560   -0.2720 O   0  0  0  0  0  0  0  0  0  0  0  0
  2  1  1  1
  2  3  1  0
  2  4  1  0
  2 41  1  0
  4  5  1  0
  5  6  2  0
  7  5  1  6
  7  8  1  0
  7 12  1  0
  8  9  1  0
  9 10  1  0
 10 11  1  0
 10 39  1  0
 11 12  1  0
 12 13  1  1
 12 19  1  0
 13 14  2  0
 13 15  1  0
 15 16  1  0
 16 17  1  0
 17 18  1  0
 19 20  1  0
 19 28  2  0
 20 21  2  3
 21 22  1  0
 21 23  1  0
 23 24  1  0
 24 25  1  0
 25 26  2  0
 25 27  1  0
 28 29  1  0
 29 30  2  0
 29 34  1  0
 30 31  1  0
 31 32  2  0
 32 33  1  0
 33 34  2  0
 33 35  1  0
 35 36  2  0
 35 37  1  0
 37 38  1  0
 38 39  1  0
 39 40  2  0
 41 42  2  0
 41 43  1  0
M  END
