
     RDKit          3D

 44 48  0  0  0  0  0  0  0  0999 V2000
    4.5260   -0.3950    1.3110 C   0  0  0  0  0  0  0  0  0  0  0  0
    3.3990   -0.0840    0.2860 C   0  0  1  0  0  0  0  0  0  0  0  0
    4.2510    0.4350   -0.9110 C   0  0  0  0  0  0  0  0  0  0  0  0
    4.8880    1.6210   -0.5790 O   0  0  0  0  0  0  0  0  0  0  0  0
    5.7040    2.2840   -1.4720 C   0  0  0  0  0  0  0  0  0  0  0  0
    5.8900    1.8120   -2.6280 O   0  0  0  0  0  0  0  0  0  0  0  0
    6.3330    3.4790   -1.1090 O   0  0  0  0  0  0  0  0  0  0  0  0
    2.9240   -1.4730   -0.1270 C   0  0  0  0  0  0  0  0  0  0  0  0
    1.6100   -1.8920    0.4350 C   0  0  0  0  0  0  0  0  0  0  0  0
    0.7860   -2.6810   -0.4580 N   0  0  0  0  0  0  0  0  0  0  0  0
    1.4160   -3.5870   -1.3400 C   0  0  0  0  0  0  0  0  0  0  0  0
    0.7120   -4.2670   -2.1240 O   0  0  0  0  0  0  0  0  0  0  0  0
    2.7790   -3.7690   -1.3860 O   0  0  0  0  0  0  0  0  0  0  0  0
   -0.6790   -2.5810   -0.4630 C   0  0  2  0  0  0  0  0  0  0  0  0
   -1.0490   -1.2520   -1.0150 C   0  0  0  0  0  0  0  0  0  0  0  0
   -0.2250   -0.7370   -2.1480 C   0  0  0  0  0  0  0  0  0  0  0  0
    0.7280    0.1660   -1.7280 O   0  0  0  0  0  0  0  0  0  0  0  0
    0.7080    1.5400   -1.6340 C   0  0  0  0  0  0  0  0  0  0  0  0
    1.6120    2.1980   -2.2160 O   0  0  0  0  0  0  0  0  0  0  0  0
   -0.2930    2.3190   -0.8990 C   0  0  0  0  0  0  0  0  0  0  0  0
   -0.6490    2.1210    0.3280 C   0  0  0  0  0  0  0  0  0  0  0  0
    0.1230    1.4190    1.3240 N   0  0  0  0  0  0  0  0  0  0  0  0
    1.5240    1.2700    1.4700 C   0  0  0  0  0  0  0  0  0  0  0  0
    1.9330    1.7320    2.6390 O   0  0  0  0  0  0  0  0  0  0  0  0
    2.4630    0.7710    0.6770 O   0  0  0  0  0  0  0  0  0  0  0  0
   -1.9830    2.7810    0.5030 C   0  0  2  0  0  0  0  0  0  0  0  0
   -3.0430    1.7340    0.1060 C   0  0  0  0  0  0  0  0  0  0  0  0
   -3.1340    1.6860   -1.1610 O   0  0  0  0  0  0  0  0  0  0  0  0
   -3.6620    1.0830    1.0570 O   0  0  0  0  0  0  0  0  0  0  0  0
   -4.0060   -0.1220    1.5710 C   0  0  1  0  0  0  0  0  0  0  0  0
   -4.8980    0.1970    2.8130 C   0  0  0  0  0  0  0  0  0  0  0  0
   -4.9340   -0.8890    0.6870 C   0  0  0  0  0  0  0  0  0  0  0  0
   -4.7580   -2.2910    0.7900 O   0  0  0  0  0  0  0  0  0  0  0  0
   -3.4510   -2.7470    0.6090 C   0  0  0  0  0  0  0  0  0  0  0  0
   -3.1970   -3.7380   -0.1250 O   0  0  0  0  0  0  0  0  0  0  0  0
   -2.3490   -2.0340    1.3080 N   0  0  0  0  0  0  0  0  0  0  0  0
   -1.1070   -2.6300    1.0030 C   0  0  0  0  0  0  0  0  0  0  0  0
   -2.8380   -0.9720    2.0710 C   0  0  0  0  0  0  0  0  0  0  0  0
   -2.5050   -0.4990    3.2050 O   0  0  0  0  0  0  0  0  0  0  0  0
   -1.9910    3.7960   -0.5310 N   0  0  0  0  0  0  0  0  0  0  0  0
   -2.6740    4.9050   -0.9460 C   0  0  0  0  0  0  0  0  0  0  0  0
   -2.2020    5.1810   -2.1760 N   0  0  0  0  0  0  0  0  0  0  0  0
   -1.2790    4.2860   -2.4850 N   0  0  0  0  0  0  0  0  0  0  0  0
   -1.1260    3.4000   -1.4500 C   0  0  0  0  0  0  0  0  0  0  0  0
  2  1  1  1
  2  3  1  0
  2  8  1  0
  2 25  1  0
  3  4  1  0
  4  5  1  0
  5  6  2  0
  5  7  1  0
  8  9  1  0
  9 10  1  0
 10 11  1  0
 10 14  1  0
 11 12  2  0
 11 13  1  0
 14 15  1  0
 14 37  1  1
 15 16  1  0
 16 17  1  0
 17 18  1  0
 18 19  2  0
 18 20  1  0
 20 21  2  0
 20 44  1  0
 21 22  1  0
 21 26  1  0
 22 23  1  0
 23 24  2  0
 23 25  1  0
 26 27  1  0
 26 40  1  6
 27 28  2  0
 27 29  1  0
 29 30  1  0
 30 31  1  1
 30 32  1  0
 30 38  1  0
 32 33  1  0
 33 34  1  0
 34 35  2  0
 34 36  1  0
 36 37  1  0
 36 38  1  0
 38 39  2  0
 40 41  1  0
 40 44  1  0
 41 42  2  0
 42 43  1  0
 43 44  2  0
M  END
