
     RDKit          3D

 43 46  0  0  0  0  0  0  0  0999 V2000
    8.9000   -4.3830    1.2550 C   0  0  0  0  0  0  0  0  0  0  0  0
    7.4270   -4.0060    1.2300 C   0  0  0  0  0  0  0  0  0  0  0  0
    7.0840   -3.5200   -0.0490 O   0  0  0  0  0  0  0  0  0  0  0  0
    5.7820   -3.1130   -0.2970 C   0  0  0  0  0  0  0  0  0  0  0  0
    4.9550   -3.2000    0.6520 O   0  0  0  0  0  0  0  0  0  0  0  0
    5.3900   -2.6210   -1.5580 O   0  0  0  0  0  0  0  0  0  0  0  0
    4.0470   -2.2250   -1.7350 C   0  0  0  0  0  0  0  0  0  0  0  0
    3.6780   -1.1350   -0.8040 C   0  0  0  0  0  0  0  0  0  0  0  0
    4.3880   -0.5450    0.0880 O   0  0  0  0  0  0  0  0  0  0  0  0
    3.6610    0.3970    0.7180 C   0  0  0  0  0  0  0  0  0  0  0  0
    4.1330    1.1280    1.6460 N   0  0  0  0  0  0  0  0  0  0  0  0
    2.4130    0.4340    0.2240 N   0  0  0  0  0  0  0  0  0  0  0  0
    1.3090    1.1900    0.5070 C   0  0  0  0  0  0  0  0  0  0  0  0
    1.2370    2.0460    1.4580 C   0  0  0  0  0  0  0  0  0  0  0  0
    2.0860    2.5460    2.4780 C   0  0  0  0  0  0  0  0  0  0  0  0
    2.8200    3.7400    2.4000 C   0  0  0  0  0  0  0  0  0  0  0  0
    3.4770    3.8470    3.5690 N   0  0  0  0  0  0  0  0  0  0  0  0
    3.1730    2.7880    4.3300 C   0  0  0  0  0  0  0  0  0  0  0  0
    2.3490    2.0360    3.6610 O   0  0  0  0  0  0  0  0  0  0  0  0
    0.1640    0.9390   -0.2510 C   0  0  0  0  0  0  0  0  0  0  0  0
   -0.9220    1.6440   -0.2990 C   0  0  0  0  0  0  0  0  0  0  0  0
   -1.4840    2.8300    0.2430 C   0  0  0  0  0  0  0  0  0  0  0  0
   -2.7710    3.1230   -0.1460 C   0  0  0  0  0  0  0  0  0  0  0  0
   -3.6050    2.3920   -1.0180 N   0  0  0  0  0  0  0  0  0  0  0  0
   -4.7320    3.0130   -1.1310 C   0  0  0  0  0  0  0  0  0  0  0  0
   -5.8000    2.5590   -1.9290 N   0  0  0  0  0  0  0  0  0  0  0  0
   -6.1500    1.1170   -2.0200 C   0  0  2  0  0  0  0  0  0  0  0  0
   -6.4490    0.6070   -0.6650 C   0  0  0  0  0  0  0  0  0  0  0  0
   -6.8550   -0.6160   -0.4130 O   0  0  0  0  0  0  0  0  0  0  0  0
   -6.2690   -1.7830   -0.6020 C   0  0  0  0  0  0  0  0  0  0  0  0
   -4.8830   -1.9180    0.0360 C   0  0  0  0  0  0  0  0  0  0  0  0
   -4.3880   -3.2060   -0.2490 O   0  0  0  0  0  0  0  0  0  0  0  0
   -3.2130   -3.3710    0.2730 O   0  0  0  0  0  0  0  0  0  0  0  0
   -5.1070    0.4410   -2.8140 C   0  0  0  0  0  0  0  0  0  0  0  0
   -4.0890    1.1180   -3.2450 O   0  0  0  0  0  0  0  0  0  0  0  0
   -5.0610   -0.8810   -3.1860 O   0  0  0  0  0  0  0  0  0  0  0  0
   -4.7550    4.1780   -0.3700 O   0  0  0  0  0  0  0  0  0  0  0  0
   -3.5060    4.2830    0.2810 C   0  0  0  0  0  0  0  0  0  0  0  0
   -3.1400    5.1980    1.0580 O   0  0  0  0  0  0  0  0  0  0  0  0
    0.2800   -0.0960   -1.2290 C   0  0  0  0  0  0  0  0  0  0  0  0
   -0.7640   -0.3680   -1.9500 N   0  0  0  0  0  0  0  0  0  0  0  0
    1.3660   -0.7480   -1.4080 O   0  0  0  0  0  0  0  0  0  0  0  0
    2.4290   -0.5240   -0.7260 C   0  0  0  0  0  0  0  0  0  0  0  0
  1  2  1  0
  2  3  1  0
  3  4  1  0
  4  5  2  0
  4  6  1  0
  6  7  1  0
  7  8  1  0
  8  9  1  0
  8 43  2  0
  9 10  1  0
 10 11  2  0
 10 12  1  0
 12 13  1  0
 12 43  1  0
 13 14  2  3
 13 20  1  0
 14 15  1  0
 15 16  2  0
 15 19  1  0
 16 17  1  0
 17 18  2  0
 18 19  1  0
 20 21  2  3
 20 40  1  0
 21 22  1  0
 22 23  2  3
 23 24  1  0
 23 38  1  0
 24 25  2  0
 25 26  1  0
 25 37  1  0
 26 27  1  0
 27 28  1  1
 27 34  1  0
 28 29  1  0
 29 30  1  0
 30 31  1  0
 31 32  1  0
 32 33  1  0
 34 35  2  0
 34 36  1  0
 37 38  1  0
 38 39  2  0
 40 41  2  0
 40 42  1  0
 42 43  1  0
M  END
