
     RDKit          3D

 43 46  0  0  0  0  0  0  0  0999 V2000
    1.0640    6.2290   -1.5030 C   0  0  0  0  0  0  0  0  0  0  0  0
    2.2610    5.4200   -1.1340 C   0  0  0  0  0  0  0  0  0  0  0  0
    2.2470    4.8730    0.1410 O   0  0  0  0  0  0  0  0  0  0  0  0
    1.2220    3.9830    0.4940 C   0  0  0  0  0  0  0  0  0  0  0  0
    0.3730    3.7380   -0.3780 O   0  0  0  0  0  0  0  0  0  0  0  0
    1.1130    3.3950    1.7020 O   0  0  0  0  0  0  0  0  0  0  0  0
    0.2180    2.5010    2.2360 C   0  0  0  0  0  0  0  0  0  0  0  0
    0.3330    1.1280    1.6170 C   0  0  1  0  0  0  0  0  0  0  0  0
    1.6840    0.5490    2.0260 C   0  0  0  0  0  0  0  0  0  0  0  0
    1.9800   -0.7890    1.4730 C   0  0  0  0  0  0  0  0  0  0  0  0
    2.0980   -0.9210    0.1360 O   0  0  0  0  0  0  0  0  0  0  0  0
    3.1470   -0.5210   -0.5800 C   0  0  0  0  0  0  0  0  0  0  0  0
    3.6570    0.8610   -0.5680 C   0  0  0  0  0  0  0  0  0  0  0  0
    4.7800    0.9430   -1.4750 O   0  0  0  0  0  0  0  0  0  0  0  0
    5.9500    0.2460   -1.2750 C   0  0  0  0  0  0  0  0  0  0  0  0
    6.1240   -0.4980   -0.2900 O   0  0  0  0  0  0  0  0  0  0  0  0
    6.9930    0.4010   -2.2560 N   0  0  0  0  0  0  0  0  0  0  0  0
    8.2220   -0.3040   -2.0820 C   0  0  0  0  0  0  0  0  0  0  0  0
    8.9440    0.0700   -0.8130 C   0  0  0  0  0  0  0  0  0  0  0  0
   10.1340   -0.6590   -0.7170 O   0  0  0  0  0  0  0  0  0  0  0  0
   -0.7860    0.2470    2.1790 C   0  0  0  0  0  0  0  0  0  0  0  0
   -1.7130    0.0630    1.0310 N   0  0  0  0  0  0  0  0  0  0  0  0
   -2.7410   -0.8930    1.0060 C   0  0  0  0  0  0  0  0  0  0  0  0
   -2.9120   -1.5270    2.1040 O   0  0  0  0  0  0  0  0  0  0  0  0
   -3.6130   -1.2590   -0.0540 N   0  0  0  0  0  0  0  0  0  0  0  0
   -3.3780   -0.6920   -1.3580 C   0  0  0  0  0  0  0  0  0  0  0  0
   -3.7400   -1.7380   -2.4230 C   0  0  0  0  0  0  0  0  0  0  0  0
   -5.0650   -2.0990   -2.2240 O   0  0  0  0  0  0  0  0  0  0  0  0
   -5.0540   -2.9110   -1.0830 C   0  0  0  0  0  0  0  0  0  0  0  0
   -4.7380   -2.1230    0.1520 C   0  0  1  0  0  0  0  0  0  0  0  0
   -4.5680   -3.1370    1.2630 C   0  0  0  0  0  0  0  0  0  0  0  0
   -5.4310   -4.2720    0.9950 O   0  0  0  0  0  0  0  0  0  0  0  0
   -6.8140   -4.2780    1.0910 C   0  0  0  0  0  0  0  0  0  0  0  0
   -7.6190   -5.3700    1.3250 C   0  0  0  0  0  0  0  0  0  0  0  0
   -8.8590   -4.9410    1.3400 O   0  0  0  0  0  0  0  0  0  0  0  0
   -8.8980   -3.6400    1.1280 N   0  0  0  0  0  0  0  0  0  0  0  0
   -7.6440   -3.1830    0.9680 C   0  0  0  0  0  0  0  0  0  0  0  0
   -7.2580   -1.8130    0.7160 N   0  0  0  0  0  0  0  0  0  0  0  0
   -5.9420   -1.3010    0.5600 C   0  0  0  0  0  0  0  0  0  0  0  0
   -5.8000   -0.0920    0.7810 O   0  0  0  0  0  0  0  0  0  0  0  0
   -1.3620    1.0880    0.1090 C   0  0  0  0  0  0  0  0  0  0  0  0
   -2.0900    1.7910   -0.6370 O   0  0  0  0  0  0  0  0  0  0  0  0
    0.0830    1.1490    0.2270 N   0  0  0  0  0  0  0  0  0  0  0  0
  1  2  1  0
  2  3  1  0
  3  4  1  0
  4  5  2  0
  4  6  1  0
  6  7  1  0
  8  7  1  1
  8  9  1  0
  8 21  1  0
  8 43  1  0
  9 10  1  0
 10 11  1  0
 11 12  1  0
 12 13  1  0
 13 14  1  0
 14 15  1  0
 15 16  2  0
 15 17  1  0
 17 18  1  0
 18 19  1  0
 19 20  1  0
 21 22  1  0
 22 23  1  0
 22 41  1  0
 23 24  2  0
 23 25  1  0
 25 26  1  0
 25 30  1  0
 26 27  1  0
 27 28  1  0
 28 29  1  0
 30 29  1  6
 30 31  1  0
 30 39  1  0
 31 32  1  0
 32 33  1  0
 33 34  2  0
 33 37  1  0
 34 35  1  0
 35 36  1  0
 36 37  2  0
 37 38  1  0
 38 39  1  0
 39 40  2  0
 41 42  2  0
 41 43  1  0
M  END
