
     RDKit          3D

 43 47  0  0  0  0  0  0  0  0999 V2000
   -5.6810    1.8380    0.4710 O   0  0  0  0  0  0  0  0  0  0  0  0
   -6.6660    1.8790   -0.2670 C   0  0  0  0  0  0  0  0  0  0  0  0
   -6.7870    0.9240   -1.3980 C   0  0  0  0  0  0  0  0  0  0  0  0
   -5.8300   -0.2950   -1.0730 C   0  0  1  0  0  0  0  0  0  0  0  0
   -4.6240    0.2570   -0.9210 O   0  0  0  0  0  0  0  0  0  0  0  0
   -3.3130    0.0950   -0.7600 C   0  0  0  0  0  0  0  0  0  0  0  0
   -2.4000    0.6830   -1.6460 C   0  0  0  0  0  0  0  0  0  0  0  0
   -1.0410    0.5480   -1.5210 C   0  0  0  0  0  0  0  0  0  0  0  0
   -0.5680   -0.1860   -0.4910 C   0  0  0  0  0  0  0  0  0  0  0  0
    0.7620   -0.2980   -0.0860 N   0  0  0  0  0  0  0  0  0  0  0  0
    1.7650    0.7810   -0.2500 C   0  0  0  0  0  0  0  0  0  0  0  0
    1.5170    1.7390   -0.8630 O   0  0  0  0  0  0  0  0  0  0  0  0
    2.9540    0.3430    0.5210 N   0  0  0  0  0  0  0  0  0  0  0  0
    3.7840    1.8660    0.4510 C   0  0  0  0  0  0  0  0  0  0  0  0
    3.2550    2.6770   -0.1780 O   0  0  0  0  0  0  0  0  0  0  0  0
    4.9950    1.8250    1.2290 C   0  0  0  0  0  0  0  0  0  0  0  0
    4.9440    2.1370    2.6190 C   0  0  0  0  0  0  0  0  0  0  0  0
    6.1590    1.9490    3.0940 N   0  0  0  0  0  0  0  0  0  0  0  0
    6.9610    1.5500    2.1140 N   0  0  0  0  0  0  0  0  0  0  0  0
    8.2280    1.2020    1.8630 C   0  0  0  0  0  0  0  0  0  0  0  0
    8.2930    0.8940    0.4780 C   0  0  0  0  0  0  0  0  0  0  0  0
    9.5780    0.4700   -0.1020 C   0  0  2  0  0  0  0  0  0  0  0  0
    9.6870    0.5230   -1.5840 C   0  0  0  0  0  0  0  0  0  0  0  0
   10.5100   -0.5760   -1.8310 O   0  0  0  0  0  0  0  0  0  0  0  0
   10.1910   -1.4820   -0.8000 C   0  0  0  0  0  0  0  0  0  0  0  0
   10.0470   -0.7450    0.3570 O   0  0  0  0  0  0  0  0  0  0  0  0
    7.0940    1.0760    0.0020 O   0  0  0  0  0  0  0  0  0  0  0  0
    6.2810    1.4620    0.9510 C   0  0  0  0  0  0  0  0  0  0  0  0
   -1.4560   -0.8000    0.4250 C   0  0  0  0  0  0  0  0  0  0  0  0
   -2.8020   -0.6530    0.2800 C   0  0  0  0  0  0  0  0  0  0  0  0
   -3.6220   -1.3200    1.3490 C   0  0  0  0  0  0  0  0  0  0  0  0
   -4.1100   -2.5380    1.0350 O   0  0  0  0  0  0  0  0  0  0  0  0
   -3.4100   -3.2920    0.1610 C   0  0  0  0  0  0  0  0  0  0  0  0
   -4.0340   -3.3670   -1.2140 C   0  0  0  0  0  0  0  0  0  0  0  0
   -5.3100   -3.8780   -1.1780 O   0  0  0  0  0  0  0  0  0  0  0  0
   -6.4750   -3.4580   -0.6350 C   0  0  0  0  0  0  0  0  0  0  0  0
   -7.4970   -4.1830   -0.9340 O   0  0  0  0  0  0  0  0  0  0  0  0
   -6.7400   -2.3560    0.2050 N   0  0  0  0  0  0  0  0  0  0  0  0
   -6.5350   -0.9790    0.0050 C   0  0  0  0  0  0  0  0  0  0  0  0
   -7.0490   -0.2110    0.9220 O   0  0  0  0  0  0  0  0  0  0  0  0
   -7.6670    2.8750    0.0180 N   0  0  0  0  0  0  0  0  0  0  0  0
   -7.5030    3.7030    1.0610 O   0  0  0  0  0  0  0  0  0  0  0  0
   -6.7270    4.7130    0.7210 O   0  0  0  0  0  0  0  0  0  0  0  0
  1  2  2  0
  2  3  1  0
  2 41  1  0
  4  3  1  1
  4  5  1  0
  4 39  1  0
  5  6  1  0
  6  7  2  0
  6 30  1  0
  7  8  1  0
  8  9  2  0
  9 10  1  0
  9 29  1  0
 10 11  1  0
 11 12  2  0
 11 13  1  0
 13 14  1  0
 14 15  2  0
 14 16  1  0
 16 17  1  0
 16 28  2  0
 17 18  2  0
 18 19  1  0
 19 20  1  0
 19 28  1  0
 20 21  2  0
 22 21  1  6
 21 27  1  0
 22 23  1  0
 22 26  1  0
 23 24  1  0
 24 25  1  0
 25 26  1  0
 27 28  1  0
 29 30  2  0
 30 31  1  0
 31 32  1  0
 32 33  1  0
 33 34  1  0
 34 35  1  0
 35 36  1  0
 36 37  2  0
 36 38  1  0
 38 39  1  0
 39 40  2  0
 41 42  1  0
 42 43  1  0
M  END
