
     RDKit          3D

 40 44  0  0  0  0  0  0  0  0999 V2000
   -0.5610   -3.7830   -1.5810 C   0  0  0  0  0  0  0  0  0  0  0  0
   -1.0700   -2.5200   -1.3450 O   0  0  0  0  0  0  0  0  0  0  0  0
   -2.3130   -2.2070   -0.9230 C   0  0  0  0  0  0  0  0  0  0  0  0
   -3.3160   -3.1330   -0.7130 C   0  0  0  0  0  0  0  0  0  0  0  0
   -4.5490   -2.7420   -0.2650 C   0  0  0  0  0  0  0  0  0  0  0  0
   -5.6920   -3.7110   -0.0810 C   0  0  0  0  0  0  0  0  0  0  0  0
   -4.8150   -1.3860   -0.0060 C   0  0  0  0  0  0  0  0  0  0  0  0
   -5.8400   -0.7480    0.3950 O   0  0  0  0  0  0  0  0  0  0  0  0
   -5.6470    0.5730    0.4890 C   0  0  0  0  0  0  0  0  0  0  0  0
   -6.6960    1.4830    0.9330 C   0  0  0  0  0  0  0  0  0  0  0  0
   -7.8280    0.9510    1.5070 C   0  0  0  0  0  0  0  0  0  0  0  0
   -7.8370   -0.8220    1.6960 Cl  0  0  0  0  0  0  0  0  0  0  0  0
   -8.9000    1.6800    1.8960 C   0  0  0  0  0  0  0  0  0  0  0  0
   -8.9090    3.0810    1.7280 C   0  0  0  0  0  0  0  0  0  0  0  0
   -7.7900    3.6050    1.1590 C   0  0  0  0  0  0  0  0  0  0  0  0
   -6.6840    2.8500    0.7570 C   0  0  0  0  0  0  0  0  0  0  0  0
   -5.3260    3.6150    0.0020 Cl  0  0  0  0  0  0  0  0  0  0  0  0
   -4.3510    0.7660    0.1050 C   0  0  0  0  0  0  0  0  0  0  0  0
   -3.7670   -0.4640   -0.2320 C   0  0  0  0  0  0  0  0  0  0  0  0
   -2.5510   -0.8220   -0.6750 C   0  0  0  0  0  0  0  0  0  0  0  0
   -1.4840    0.0170   -0.9310 O   0  0  0  0  0  0  0  0  0  0  0  0
   -0.2960   -0.0260   -0.2300 C   0  0  0  0  0  0  0  0  0  0  0  0
    0.6920    0.9360   -0.5650 C   0  0  0  0  0  0  0  0  0  0  0  0
    0.9940    2.5400    0.0750 S   0  0  0  0  0  0  0  0  0  0  0  0
    2.7130    2.7180   -0.6200 C   0  0  0  0  0  0  0  0  0  0  0  0
    3.5520    3.9000   -0.2620 C   0  0  0  0  0  0  0  0  0  0  0  0
    4.9470    3.5750   -0.3420 N   0  0  0  0  0  0  0  0  0  0  0  0
    5.3490    2.2280    0.0670 C   0  0  0  0  0  0  0  0  0  0  0  0
    4.6080    1.3560    0.4380 O   0  0  0  0  0  0  0  0  0  0  0  0
    6.7880    1.9560   -0.0180 N   0  0  0  0  0  0  0  0  0  0  0  0
    7.3140    0.6820    0.3360 C   0  0  0  0  0  0  0  0  0  0  0  0
    6.6140   -0.4900    0.3780 C   0  0  0  0  0  0  0  0  0  0  0  0
    7.1660   -1.7250    0.7510 C   0  0  0  0  0  0  0  0  0  0  0  0
    8.4930   -1.7970    1.1000 C   0  0  0  0  0  0  0  0  0  0  0  0
    9.1040   -2.9780    1.4790 O   0  0  0  0  0  0  0  0  0  0  0  0
    9.2080   -0.6190    1.0600 C   0  0  0  0  0  0  0  0  0  0  0  0
    8.6700    0.6000    0.6960 C   0  0  0  0  0  0  0  0  0  0  0  0
    2.8040    1.6120   -1.2110 N   0  0  0  0  0  0  0  0  0  0  0  0
    1.9420    0.7010   -1.2670 C   0  0  0  0  0  0  0  0  0  0  0  0
    2.0080   -0.5920   -2.0470 C   0  0  0  0  0  0  0  0  0  0  0  0
  1  2  1  0
  2  3  1  0
  3  4  2  0
  3 20  1  0
  4  5  1  0
  5  6  1  0
  5  7  2  0
  7  8  1  0
  7 19  1  0
  8  9  1  0
  9 10  1  0
  9 18  2  0
 10 11  2  0
 10 16  1  0
 11 12  1  0
 11 13  1  0
 13 14  2  0
 14 15  1  0
 15 16  2  0
 16 17  1  0
 18 19  1  0
 19 20  2  0
 20 21  1  0
 21 22  1  0
 22 23  1  0
 23 24  1  0
 23 39  2  0
 24 25  1  0
 25 26  1  0
 25 38  2  0
 26 27  1  0
 27 28  1  0
 28 29  2  0
 28 30  1  0
 30 31  1  0
 31 32  2  0
 31 37  1  0
 32 33  1  0
 33 34  2  0
 34 35  1  0
 34 36  1  0
 36 37  2  0
 38 39  1  0
 39 40  1  0
M  END
