
     RDKit          3D

 40 44  0  0  0  0  0  0  0  0999 V2000
   10.4780    0.0870   -1.6120 C   0  0  0  0  0  0  0  0  0  0  0  0
    9.0530   -0.1730   -1.2060 C   0  0  0  0  0  0  0  0  0  0  0  0
    8.4450   -1.3920   -1.4160 C   0  0  0  0  0  0  0  0  0  0  0  0
    7.1350   -1.5750   -1.0350 C   0  0  0  0  0  0  0  0  0  0  0  0
    6.3870   -3.1320   -1.3040 Cl  0  0  0  0  0  0  0  0  0  0  0  0
    6.3820   -0.5880   -0.4430 C   0  0  0  0  0  0  0  0  0  0  0  0
    5.0010   -0.8530   -0.0920 C   0  0  0  0  0  0  0  0  0  0  0  0
    4.3750   -1.6880   -0.8250 O   0  0  0  0  0  0  0  0  0  0  0  0
    4.3100   -0.2270    1.0260 C   0  0  0  0  0  0  0  0  0  0  0  0
    5.0150    0.2560    2.1040 C   0  0  0  0  0  0  0  0  0  0  0  0
    4.3850    0.8710    3.1590 C   0  0  0  0  0  0  0  0  0  0  0  0
    2.9910    0.9990    3.1180 C   0  0  0  0  0  0  0  0  0  0  0  0
    2.4090    1.6370    4.2680 C   0  0  0  0  0  0  0  0  0  0  0  0
    1.2220    1.8530    4.4890 O   0  0  0  0  0  0  0  0  0  0  0  0
    2.2800    0.5190    2.0450 C   0  0  0  0  0  0  0  0  0  0  0  0
    0.8670    0.7100    2.0360 N   0  0  0  0  0  0  0  0  0  0  0  0
   -0.0570    0.1090    1.1190 C   0  0  0  0  0  0  0  0  0  0  0  0
    0.3770   -0.6490    0.2500 O   0  0  0  0  0  0  0  0  0  0  0  0
   -1.4540    0.3810    1.2120 N   0  0  0  0  0  0  0  0  0  0  0  0
   -2.4250   -0.1740    0.3650 C   0  0  0  0  0  0  0  0  0  0  0  0
   -2.2560   -1.2000   -0.5260 C   0  0  0  0  0  0  0  0  0  0  0  0
   -3.2900   -1.6880   -1.3300 C   0  0  0  0  0  0  0  0  0  0  0  0
   -3.0230   -2.7350   -2.2080 O   0  0  0  0  0  0  0  0  0  0  0  0
   -4.5450   -1.1330   -1.2420 C   0  0  0  0  0  0  0  0  0  0  0  0
   -4.7410   -0.1100   -0.3620 C   0  0  0  0  0  0  0  0  0  0  0  0
   -6.0710    0.4580   -0.2630 C   0  0  0  0  0  0  0  0  0  0  0  0
   -7.2300    0.1390   -0.8560 N   0  0  0  0  0  0  0  0  0  0  0  0
   -8.3160    0.7500   -0.6340 C   0  0  0  0  0  0  0  0  0  0  0  0
   -9.6040    0.3470   -1.3190 C   0  0  0  0  0  0  0  0  0  0  0  0
   -9.7720   -0.6680   -2.2310 C   0  0  0  0  0  0  0  0  0  0  0  0
  -11.1100   -0.6610   -2.5790 C   0  0  0  0  0  0  0  0  0  0  0  0
  -11.6930    0.3460   -1.8730 C   0  0  0  0  0  0  0  0  0  0  0  0
  -10.7510    0.9070   -1.1450 O   0  0  0  0  0  0  0  0  0  0  0  0
   -8.3280    1.8130    0.2720 C   0  0  0  0  0  0  0  0  0  0  0  0
   -6.5680    1.8050    0.7510 S   0  0  0  0  0  0  0  0  0  0  0  0
   -3.7100    0.3610    0.4240 C   0  0  0  0  0  0  0  0  0  0  0  0
    2.9410   -0.0890    1.0090 C   0  0  0  0  0  0  0  0  0  0  0  0
    6.9950    0.6260   -0.2360 C   0  0  0  0  0  0  0  0  0  0  0  0
    8.3230    0.8380   -0.6130 C   0  0  0  0  0  0  0  0  0  0  0  0
    9.0920    2.3850   -0.3440 Cl  0  0  0  0  0  0  0  0  0  0  0  0
  1  2  1  0
  2  3  2  0
  2 39  1  0
  3  4  1  0
  4  5  1  0
  4  6  2  0
  6  7  1  0
  6 38  1  0
  7  8  2  0
  7  9  1  0
  9 10  2  0
  9 37  1  0
 10 11  1  0
 11 12  2  0
 12 13  1  0
 12 15  1  0
 13 14  2  0
 15 16  1  0
 15 37  2  0
 16 17  1  0
 17 18  2  0
 17 19  1  0
 19 20  1  0
 20 21  2  0
 20 36  1  0
 21 22  1  0
 22 23  1  0
 22 24  2  0
 24 25  1  0
 25 26  1  0
 25 36  2  0
 26 27  2  0
 26 35  1  0
 27 28  1  0
 28 29  1  0
 28 34  2  0
 29 30  2  0
 29 33  1  0
 30 31  1  0
 31 32  2  0
 32 33  1  0
 34 35  1  0
 38 39  2  0
 39 40  1  0
M  END
