
     RDKit          3D

 40 44  0  0  0  0  0  0  0  0999 V2000
    9.4790    2.4600    0.1170 C   0  0  0  0  0  0  0  0  0  0  0  0
   10.1740    1.1360    0.4500 C   0  0  1  0  0  0  0  0  0  0  0  0
    9.6380    0.6570    1.7920 C   0  0  0  0  0  0  0  0  0  0  0  0
    8.1650    0.3740    1.6860 C   0  0  0  0  0  0  0  0  0  0  0  0
    7.5320    0.2980    2.7670 O   0  0  0  0  0  0  0  0  0  0  0  0
    7.5710    0.2110    0.4030 N   0  0  0  0  0  0  0  0  0  0  0  0
    6.1650    0.1570    0.2680 C   0  0  0  0  0  0  0  0  0  0  0  0
    5.4860   -0.6460    1.1620 C   0  0  0  0  0  0  0  0  0  0  0  0
    4.0950   -0.7270    1.0590 C   0  0  0  0  0  0  0  0  0  0  0  0
    3.4090   -0.0260    0.0920 C   0  0  0  0  0  0  0  0  0  0  0  0
    1.9160   -0.1160   -0.0200 C   0  0  0  0  0  0  0  0  0  0  0  0
    1.2560    0.6140   -1.0370 C   0  0  0  0  0  0  0  0  0  0  0  0
   -0.4700    0.1750   -0.7560 S   0  0  0  0  0  0  0  0  0  0  0  0
   -0.0820   -0.9440    0.7050 C   0  0  0  0  0  0  0  0  0  0  0  0
   -1.1660   -1.6470    1.4060 C   0  0  0  0  0  0  0  0  0  0  0  0
   -2.4190   -1.4550    0.7690 O   0  0  0  0  0  0  0  0  0  0  0  0
   -2.6650   -1.8320   -0.5300 C   0  0  0  0  0  0  0  0  0  0  0  0
   -1.7510   -2.3690   -1.1990 O   0  0  0  0  0  0  0  0  0  0  0  0
   -3.9700   -1.6120   -1.1280 C   0  0  0  0  0  0  0  0  0  0  0  0
   -4.2570   -1.9760   -2.4260 C   0  0  0  0  0  0  0  0  0  0  0  0
   -5.5120   -1.7600   -2.9820 C   0  0  0  0  0  0  0  0  0  0  0  0
   -5.8720   -2.2220   -4.6270 Cl  0  0  0  0  0  0  0  0  0  0  0  0
   -6.4990   -1.1690   -2.2260 C   0  0  0  0  0  0  0  0  0  0  0  0
   -6.2450   -0.7960   -0.9330 C   0  0  0  0  0  0  0  0  0  0  0  0
   -7.3130   -0.1620   -0.1220 C   0  0  0  0  0  0  0  0  0  0  0  0
   -8.4750   -0.0640   -0.9170 O   0  0  0  0  0  0  0  0  0  0  0  0
   -9.6440    0.4830   -0.4400 C   0  0  0  0  0  0  0  0  0  0  0  0
  -10.3170    0.0030    0.5850 C   0  0  0  0  0  0  0  0  0  0  0  0
  -11.5020    0.8430    0.7990 C   0  0  0  0  0  0  0  0  0  0  0  0
  -11.4140    1.8730   -0.2490 C   0  0  0  0  0  0  0  0  0  0  0  0
  -10.3270    1.6550   -0.9670 C   0  0  0  0  0  0  0  0  0  0  0  0
   -9.8630    2.6680   -2.3170 Cl  0  0  0  0  0  0  0  0  0  0  0  0
   -4.9850   -1.0240   -0.4060 C   0  0  0  0  0  0  0  0  0  0  0  0
   -4.7280   -0.6350    0.9280 N   0  0  0  0  0  0  0  0  0  0  0  0
    1.1500   -0.8210    0.7420 N   0  0  0  0  0  0  0  0  0  0  0  0
    4.1300    0.7540   -0.7680 C   0  0  0  0  0  0  0  0  0  0  0  0
    5.5020    0.8540   -0.6910 C   0  0  0  0  0  0  0  0  0  0  0  0
    8.3680    0.1010   -0.7680 C   0  0  0  0  0  0  0  0  0  0  0  0
    7.8980    0.0120   -1.9300 O   0  0  0  0  0  0  0  0  0  0  0  0
    9.8430    0.0920   -0.5800 C   0  0  0  0  0  0  0  0  0  0  0  0
  2  1  1  6
  2  3  1  0
  2 40  1  0
  3  4  1  0
  4  5  2  0
  4  6  1  0
  6  7  1  0
  6 38  1  0
  7  8  2  0
  7 37  1  0
  8  9  1  0
  9 10  2  0
 10 11  1  0
 10 36  1  0
 11 12  2  0
 11 35  1  0
 12 13  1  0
 13 14  1  0
 14 15  1  0
 14 35  2  0
 15 16  1  0
 16 17  1  0
 17 18  2  0
 17 19  1  0
 19 20  2  0
 19 33  1  0
 20 21  1  0
 21 22  1  0
 21 23  2  0
 23 24  1  0
 24 25  1  0
 24 33  2  0
 25 26  1  0
 26 27  1  0
 27 28  2  0
 27 31  1  0
 28 29  1  0
 29 30  1  0
 30 31  2  0
 31 32  1  0
 33 34  1  0
 36 37  2  0
 38 39  2  0
 38 40  1  0
M  END
