
     RDKit          3D

 40 44  0  0  0  0  0  0  0  0999 V2000
    7.5270   -1.8910    0.9900 C   0  0  0  0  0  0  0  0  0  0  0  0
    6.2400   -1.5840    0.3310 C   0  0  0  0  0  0  0  0  0  0  0  0
    6.2240   -1.7360   -0.9790 C   0  0  0  0  0  0  0  0  0  0  0  0
    7.4730   -2.1890   -1.6300 C   0  0  0  0  0  0  0  0  0  0  0  0
    7.0750   -3.7380   -2.4520 Cl  0  0  0  0  0  0  0  0  0  0  0  0
    5.1020   -1.5110   -1.9200 C   0  0  0  0  0  0  0  0  0  0  0  0
    5.1810   -2.0880   -3.0250 O   0  0  0  0  0  0  0  0  0  0  0  0
    3.9610   -0.6970   -1.6530 N   0  0  0  0  0  0  0  0  0  0  0  0
    3.4720   -0.2380   -0.3980 C   0  0  0  0  0  0  0  0  0  0  0  0
    2.3020    0.5020   -0.5680 C   0  0  0  0  0  0  0  0  0  0  0  0
    1.6470    1.0480    0.5140 C   0  0  0  0  0  0  0  0  0  0  0  0
    0.4910    1.7720    0.2850 O   0  0  0  0  0  0  0  0  0  0  0  0
   -0.7690    1.1930    0.2640 C   0  0  0  0  0  0  0  0  0  0  0  0
   -0.9580   -0.1580    0.4710 C   0  0  0  0  0  0  0  0  0  0  0  0
   -2.2030   -0.7510    0.4540 C   0  0  0  0  0  0  0  0  0  0  0  0
   -3.2890    0.0590    0.2180 C   0  0  0  0  0  0  0  0  0  0  0  0
   -4.9230   -0.6870    0.1900 S   0  0  0  0  0  0  0  0  0  0  0  0
   -4.8170   -2.4280    0.4870 C   0  0  0  0  0  0  0  0  0  0  0  0
   -4.6670   -3.2850   -0.5810 C   0  0  0  0  0  0  0  0  0  0  0  0
   -4.5790   -4.6610   -0.3980 C   0  0  0  0  0  0  0  0  0  0  0  0
   -4.6410   -5.1870    0.8610 C   0  0  0  0  0  0  0  0  0  0  0  0
   -4.5340   -6.9080    1.1330 Cl  0  0  0  0  0  0  0  0  0  0  0  0
   -4.7910   -4.3400    1.9390 C   0  0  0  0  0  0  0  0  0  0  0  0
   -4.8780   -2.9750    1.7490 C   0  0  0  0  0  0  0  0  0  0  0  0
   -3.1200    1.3960    0.0120 C   0  0  0  0  0  0  0  0  0  0  0  0
   -1.8700    1.9870    0.0300 C   0  0  0  0  0  0  0  0  0  0  0  0
   -1.6710    3.4500   -0.1960 C   0  0  0  0  0  0  0  0  0  0  0  0
   -2.8990    4.1390   -0.4240 N   0  0  0  0  0  0  0  0  0  0  0  0
   -3.6270    4.6860    0.6640 C   0  0  0  0  0  0  0  0  0  0  0  0
   -3.1450    4.5370    1.8200 O   0  0  0  0  0  0  0  0  0  0  0  0
   -4.9010    5.4020    0.4430 C   0  0  0  0  0  0  0  0  0  0  0  0
   -5.4290    5.5730   -0.7560 C   0  0  0  0  0  0  0  0  0  0  0  0
   -4.7190    5.0300   -1.9040 C   0  0  0  0  0  0  0  0  0  0  0  0
   -5.2150    5.1880   -3.0540 O   0  0  0  0  0  0  0  0  0  0  0  0
   -3.4450    4.3090   -1.7220 C   0  0  0  0  0  0  0  0  0  0  0  0
   -2.8450    3.8470   -2.7240 O   0  0  0  0  0  0  0  0  0  0  0  0
    2.1810    0.8420    1.7650 C   0  0  0  0  0  0  0  0  0  0  0  0
    3.3510    0.1040    1.9500 C   0  0  0  0  0  0  0  0  0  0  0  0
    3.9930   -0.4360    0.8570 C   0  0  0  0  0  0  0  0  0  0  0  0
    5.1640   -1.1590    1.1910 N   0  0  0  0  0  0  0  0  0  0  0  0
  1  2  1  0
  2  3  2  0
  2 40  1  0
  3  4  1  0
  3  6  1  0
  4  5  1  0
  6  7  2  0
  6  8  1  0
  8  9  1  0
  9 10  2  0
  9 39  1  0
 10 11  1  0
 11 12  1  0
 11 37  2  0
 12 13  1  0
 13 14  2  0
 13 26  1  0
 14 15  1  0
 15 16  2  0
 16 17  1  0
 16 25  1  0
 17 18  1  0
 18 19  2  0
 18 24  1  0
 19 20  1  0
 20 21  2  0
 21 22  1  0
 21 23  1  0
 23 24  2  0
 25 26  2  0
 26 27  1  0
 27 28  1  0
 28 29  1  0
 28 35  1  0
 29 30  2  0
 29 31  1  0
 31 32  2  0
 32 33  1  0
 33 34  2  0
 33 35  1  0
 35 36  2  0
 37 38  1  0
 38 39  2  0
 39 40  1  0
M  END
