
     RDKit          3D

 40 43  0  0  0  0  0  0  0  0999 V2000
   -9.1180   -1.8420    2.7100 C   0  0  0  0  0  0  0  0  0  0  0  0
   -9.3860   -1.5340    1.2830 C   0  0  0  0  0  0  0  0  0  0  0  0
   -8.6620   -0.5960    0.6860 C   0  0  0  0  0  0  0  0  0  0  0  0
   -8.6890   -0.0840   -0.6700 C   0  0  0  0  0  0  0  0  0  0  0  0
   -7.5550    0.2770   -1.1940 C   0  0  0  0  0  0  0  0  0  0  0  0
   -6.3040    0.1780   -0.4740 C   0  0  0  0  0  0  0  0  0  0  0  0
   -5.1280    0.5750   -1.0720 C   0  0  0  0  0  0  0  0  0  0  0  0
   -5.2850    1.1750   -2.6950 Cl  0  0  0  0  0  0  0  0  0  0  0  0
   -3.9460    0.4430   -0.2890 C   0  0  0  0  0  0  0  0  0  0  0  0
   -2.6830    0.7150   -0.5300 C   0  0  0  0  0  0  0  0  0  0  0  0
   -1.7770    0.4420    0.5220 O   0  0  0  0  0  0  0  0  0  0  0  0
   -0.4390    0.6720    0.4170 C   0  0  0  0  0  0  0  0  0  0  0  0
    0.4360    0.3900    1.4810 C   0  0  0  0  0  0  0  0  0  0  0  0
    1.7740    0.6060    1.4130 C   0  0  0  0  0  0  0  0  0  0  0  0
    2.3380    1.1260    0.2630 C   0  0  0  0  0  0  0  0  0  0  0  0
    3.7840    1.3690    0.1640 C   0  0  0  0  0  0  0  0  0  0  0  0
    4.6870    0.4280    0.5700 C   0  0  0  0  0  0  0  0  0  0  0  0
    6.0670    0.5970    0.5000 C   0  0  0  0  0  0  0  0  0  0  0  0
    6.9320   -0.4230    0.9580 N   0  0  0  0  0  0  0  0  0  0  0  0
    8.3020   -0.5690    0.7470 C   0  0  0  0  0  0  0  0  0  0  0  0
    8.9110    0.2800    0.0640 O   0  0  0  0  0  0  0  0  0  0  0  0
    9.0750   -1.7310    1.3270 C   0  0  0  0  0  0  0  0  0  0  0  0
   10.5140   -1.5510    0.8960 C   0  0  0  0  0  0  0  0  0  0  0  0
   10.6450   -1.5420   -0.5370 N   0  0  0  0  0  0  0  0  0  0  0  0
   10.2600   -2.6460   -1.3470 C   0  0  0  0  0  0  0  0  0  0  0  0
    9.7870   -3.6740   -0.8070 O   0  0  0  0  0  0  0  0  0  0  0  0
    6.5680    1.7680   -0.0040 C   0  0  0  0  0  0  0  0  0  0  0  0
    5.6470    2.7440   -0.4260 C   0  0  0  0  0  0  0  0  0  0  0  0
    4.2910    2.5460   -0.3420 C   0  0  0  0  0  0  0  0  0  0  0  0
    3.2400    3.8210   -0.8880 Cl  0  0  0  0  0  0  0  0  0  0  0  0
    1.5220    1.4180   -0.8040 C   0  0  0  0  0  0  0  0  0  0  0  0
    0.1380    1.1880   -0.7160 C   0  0  0  0  0  0  0  0  0  0  0  0
   -0.6760    1.4960   -1.8260 N   0  0  0  0  0  0  0  0  0  0  0  0
   -2.0980    1.2550   -1.7250 C   0  0  0  0  0  0  0  0  0  0  0  0
   -2.8010    1.5320   -2.7110 O   0  0  0  0  0  0  0  0  0  0  0  0
   -9.8500    0.0740   -1.5400 C   0  0  0  0  0  0  0  0  0  0  0  0
  -10.9990   -0.5420   -1.5820 C   0  0  0  0  0  0  0  0  0  0  0  0
  -11.5130   -1.6170   -0.7510 C   0  0  0  0  0  0  0  0  0  0  0  0
  -12.6960   -2.0090   -0.9480 O   0  0  0  0  0  0  0  0  0  0  0  0
  -10.6950   -2.4950    0.5480 S   0  0  0  0  0  0  0  0  0  0  0  0
  1  2  1  0
  2  3  2  0
  2 40  1  0
  3  4  1  0
  4  5  2  3
  4 36  1  0
  5  6  1  0
  6  7  2  3
  7  8  1  0
  7  9  1  0
  9 10  2  3
 10 11  1  0
 10 34  1  0
 11 12  1  0
 12 13  2  0
 12 32  1  0
 13 14  1  0
 14 15  2  0
 15 16  1  0
 15 31  1  0
 16 17  2  0
 16 29  1  0
 17 18  1  0
 18 19  1  0
 18 27  2  0
 19 20  1  0
 20 21  2  0
 20 22  1  0
 22 23  1  0
 23 24  1  0
 24 25  1  0
 25 26  2  0
 27 28  1  0
 28 29  2  0
 29 30  1  0
 31 32  2  0
 32 33  1  0
 33 34  1  0
 34 35  2  0
 36 37  2  0
 37 38  1  0
 38 39  2  0
 38 40  1  0
M  END
