
     RDKit          3D

 40 44  0  0  0  0  0  0  0  0999 V2000
    4.7710    1.3080    3.7650 C   0  0  0  0  0  0  0  0  0  0  0  0
    4.1910    0.9520    2.5470 O   0  0  0  0  0  0  0  0  0  0  0  0
    2.8620    1.2710    2.3090 C   0  0  0  0  0  0  0  0  0  0  0  0
    2.1190    1.9310    3.2570 C   0  0  0  0  0  0  0  0  0  0  0  0
    0.7960    2.2570    3.0400 C   0  0  0  0  0  0  0  0  0  0  0  0
   -0.1150    3.0960    4.2850 Cl  0  0  0  0  0  0  0  0  0  0  0  0
    0.1610    1.9360    1.8620 C   0  0  0  0  0  0  0  0  0  0  0  0
   -1.2300    2.2690    1.5980 C   0  0  0  0  0  0  0  0  0  0  0  0
   -1.7580    3.5160    1.8550 C   0  0  0  0  0  0  0  0  0  0  0  0
   -3.0610    3.8340    1.6130 C   0  0  0  0  0  0  0  0  0  0  0  0
   -3.9080    2.8670    1.0840 C   0  0  0  0  0  0  0  0  0  0  0  0
   -3.4400    1.6180    0.8110 C   0  0  0  0  0  0  0  0  0  0  0  0
   -4.2360    0.5870    0.2880 N   0  0  0  0  0  0  0  0  0  0  0  0
   -5.6230    0.6180    0.1450 C   0  0  0  0  0  0  0  0  0  0  0  0
   -6.3010    1.6050    0.4880 O   0  0  0  0  0  0  0  0  0  0  0  0
   -6.3650   -0.5370   -0.4290 C   0  0  0  0  0  0  0  0  0  0  0  0
   -5.8740   -1.6610   -0.8510 O   0  0  0  0  0  0  0  0  0  0  0  0
   -6.8150   -2.4590   -1.2960 C   0  0  0  0  0  0  0  0  0  0  0  0
   -8.0380   -1.8270   -1.1650 C   0  0  0  0  0  0  0  0  0  0  0  0
   -9.3880   -2.3290   -1.5300 C   0  0  0  0  0  0  0  0  0  0  0  0
   -7.7260   -0.5920   -0.6050 C   0  0  0  0  0  0  0  0  0  0  0  0
   -8.7300    0.4500   -0.2750 C   0  0  0  0  0  0  0  0  0  0  0  0
   -2.0860    1.3330    1.0760 C   0  0  0  0  0  0  0  0  0  0  0  0
    0.9350    1.2640    0.9060 C   0  0  0  0  0  0  0  0  0  0  0  0
    2.2330    0.9340    1.0980 C   0  0  0  0  0  0  0  0  0  0  0  0
    3.0750    0.2540    0.1730 N   0  0  0  0  0  0  0  0  0  0  0  0
    2.7310   -0.2080   -1.1110 C   0  0  0  0  0  0  0  0  0  0  0  0
    1.5470   -0.0120   -1.5170 O   0  0  0  0  0  0  0  0  0  0  0  0
    3.6590   -0.9220   -2.0490 C   0  0  1  0  0  0  0  0  0  0  0  0
    5.0000   -1.1760   -1.6490 N   0  0  0  0  0  0  0  0  0  0  0  0
    5.9580   -1.8260   -2.4680 C   0  0  0  0  0  0  0  0  0  0  0  0
    5.6190   -2.1980   -3.6000 O   0  0  0  0  0  0  0  0  0  0  0  0
    7.3610   -2.0690   -1.9900 C   0  0  0  0  0  0  0  0  0  0  0  0
    7.8950   -1.7200   -0.7680 C   0  0  0  0  0  0  0  0  0  0  0  0
    9.1740   -2.0290   -0.5390 C   0  0  0  0  0  0  0  0  0  0  0  0
    9.9690   -1.6230    1.0150 Cl  0  0  0  0  0  0  0  0  0  0  0  0
    9.8930   -2.6710   -1.5150 C   0  0  0  0  0  0  0  0  0  0  0  0
    8.6290   -2.8220   -2.8190 S   0  0  0  0  0  0  0  0  0  0  0  0
    2.9700   -1.9030   -2.9940 C   0  0  0  0  0  0  0  0  0  0  0  0
    3.3760   -0.6020   -3.5220 C   0  0  0  0  0  0  0  0  0  0  0  0
  1  2  1  0
  2  3  1  0
  3  4  2  0
  3 25  1  0
  4  5  1  0
  5  6  1  0
  5  7  2  0
  7  8  1  0
  7 24  1  0
  8  9  2  0
  8 23  1  0
  9 10  1  0
 10 11  2  0
 11 12  1  0
 12 13  1  0
 12 23  2  0
 13 14  1  0
 14 15  2  0
 14 16  1  0
 16 17  1  0
 16 21  2  0
 17 18  1  0
 18 19  2  0
 19 20  1  0
 19 21  1  0
 21 22  1  0
 24 25  2  0
 25 26  1  0
 26 27  1  0
 27 28  2  0
 27 29  1  0
 29 30  1  1
 29 39  1  0
 29 40  1  0
 30 31  1  0
 31 32  2  0
 31 33  1  0
 33 34  2  0
 33 38  1  0
 34 35  1  0
 35 36  1  0
 35 37  2  0
 37 38  1  0
 39 40  1  0
M  END
