
     RDKit          3D

 40 44  0  0  0  0  0  0  0  0999 V2000
    2.0870   -6.4190    1.6280 C   0  0  0  0  0  0  0  0  0  0  0  0
    2.1600   -5.2810    0.7630 O   0  0  0  0  0  0  0  0  0  0  0  0
    1.1900   -4.2740    0.8600 C   0  0  0  0  0  0  0  0  0  0  0  0
    0.1670   -4.3580    1.7740 C   0  0  0  0  0  0  0  0  0  0  0  0
   -0.7900   -3.3440    1.8550 C   0  0  0  0  0  0  0  0  0  0  0  0
   -0.7640   -2.2370    1.0510 C   0  0  0  0  0  0  0  0  0  0  0  0
   -1.7050   -1.1960    1.0830 N   0  0  0  0  0  0  0  0  0  0  0  0
   -2.8160   -1.0670    1.9490 C   0  0  0  0  0  0  0  0  0  0  0  0
   -3.0420   -1.9460    2.8080 O   0  0  0  0  0  0  0  0  0  0  0  0
   -3.6930    0.1150    1.8170 C   0  0  0  0  0  0  0  0  0  0  0  0
   -4.7920    0.3310    2.6100 C   0  0  0  0  0  0  0  0  0  0  0  0
   -5.3580    1.5090    2.2080 C   0  0  0  0  0  0  0  0  0  0  0  0
   -4.5800    1.9790    1.1760 C   0  0  0  0  0  0  0  0  0  0  0  0
   -4.8160    3.2370    0.4280 C   0  0  0  0  0  0  0  0  0  0  0  0
   -5.7070    3.0210   -0.7790 C   0  0  2  0  0  0  0  0  0  0  0  0
   -7.0530    2.4870   -0.4040 C   0  0  0  0  0  0  0  0  0  0  0  0
   -7.5370    1.8670   -1.6990 C   0  0  0  0  0  0  0  0  0  0  0  0
   -6.3040    1.5010   -2.4770 C   0  0  0  0  0  0  0  0  0  0  0  0
   -5.1260    1.9680   -1.6650 C   0  0  0  0  0  0  0  0  0  0  0  0
   -3.6040    1.1130    0.9830 O   0  0  0  0  0  0  0  0  0  0  0  0
    0.2930   -2.1740    0.1260 C   0  0  0  0  0  0  0  0  0  0  0  0
    0.3360   -0.9920   -0.7680 C   0  0  0  0  0  0  0  0  0  0  0  0
    1.4750   -1.0090   -1.6390 N   0  0  0  0  0  0  0  0  0  0  0  0
    2.8020   -0.8860   -1.1470 C   0  0  0  0  0  0  0  0  0  0  0  0
    3.0600   -0.7420    0.0830 O   0  0  0  0  0  0  0  0  0  0  0  0
    3.8750   -0.9240   -2.0640 N   0  0  0  0  0  0  0  0  0  0  0  0
    5.2420   -0.8100   -1.6930 C   0  0  0  0  0  0  0  0  0  0  0  0
    6.2120   -1.7030   -1.8920 C   0  0  0  0  0  0  0  0  0  0  0  0
    7.4160   -1.2300   -1.3890 O   0  0  0  0  0  0  0  0  0  0  0  0
    7.1220   -0.1930   -0.4410 C   0  0  0  0  0  0  0  0  0  0  0  0
    5.8550    0.3330   -1.0110 C   0  0  0  0  0  0  0  0  0  0  0  0
    5.3630    1.5580   -0.9380 C   0  0  0  0  0  0  0  0  0  0  0  0
    3.8420    1.9920   -1.6820 Cl  0  0  0  0  0  0  0  0  0  0  0  0
    6.1040    2.5610   -0.2210 C   0  0  0  0  0  0  0  0  0  0  0  0
    6.3330    3.8530   -0.3660 C   0  0  0  0  0  0  0  0  0  0  0  0
    7.0960    4.5370    0.5020 C   0  0  0  0  0  0  0  0  0  0  0  0
    7.6390    3.8240    1.5700 C   0  0  0  0  0  0  0  0  0  0  0  0
    8.6750    4.3930    2.8830 Cl  0  0  0  0  0  0  0  0  0  0  0  0
    7.0550    2.1380    1.3370 S   0  0  0  0  0  0  0  0  0  0  0  0
    1.2340   -3.1660    0.0410 C   0  0  0  0  0  0  0  0  0  0  0  0
  1  2  1  0
  2  3  1  0
  3  4  2  0
  3 40  1  0
  4  5  1  0
  5  6  2  0
  6  7  1  0
  6 21  1  0
  7  8  1  0
  8  9  2  0
  8 10  1  0
 10 11  2  0
 10 20  1  0
 11 12  1  0
 12 13  2  0
 13 14  1  0
 13 20  1  0
 15 14  1  1
 15 16  1  0
 15 19  1  0
 16 17  1  0
 17 18  1  0
 18 19  1  0
 21 22  1  0
 21 40  2  0
 22 23  1  0
 23 24  1  0
 24 25  2  0
 24 26  1  0
 26 27  1  0
 27 28  2  0
 27 31  1  0
 28 29  1  0
 29 30  1  0
 30 31  1  0
 31 32  2  3
 32 33  1  0
 32 34  1  0
 34 35  2  0
 34 39  1  0
 35 36  1  0
 36 37  2  0
 37 38  1  0
 37 39  1  0
M  END
