
     RDKit          3D

 12 11  0  0  0  0  0  0  0  0999 V2000
    3.2500   -0.7700    0.2580 N   0  0  0  0  0  0  0  0  0  0  0  0
    2.7220    0.1810    1.1680 C   0  0  0  0  0  0  0  0  0  0  0  0
    3.4560    0.6390    2.0770 O   0  0  0  0  0  0  0  0  0  0  0  0
    1.3020    0.6700    1.0850 C   0  0  0  0  0  0  0  0  0  0  0  0
    0.6100    0.0350   -0.0210 N   0  0  0  0  0  0  0  0  0  0  0  0
   -0.8190    0.1410    0.1530 C   0  0  2  0  0  0  0  0  0  0  0  0
   -1.5070   -1.1610   -0.0640 C   0  0  0  0  0  0  0  0  0  0  0  0
   -0.8560   -2.3570   -0.3980 N   0  0  0  0  0  0  0  0  0  0  0  0
   -2.7590   -1.1660    0.0670 O   0  0  0  0  0  0  0  0  0  0  0  0
   -1.3530    1.2040   -0.7120 C   0  0  0  0  0  0  0  0  0  0  0  0
   -2.7330    1.5600   -0.7740 N   0  0  0  0  0  0  0  0  0  0  0  0
   -0.6010    1.8440   -1.4360 O   0  0  0  0  0  0  0  0  0  0  0  0
  1  2  1  0
  2  3  2  0
  2  4  1  0
  4  5  1  0
  6  5  1  6
  6  7  1  0
  6 10  1  0
  7  8  1  0
  7  9  2  0
 10 11  1  0
 10 12  2  0
M  CHG  2   5   1  11   1
M  END
