
     RDKit          3D

 12 11  0  0  0  0  0  0  0  0999 V2000
    2.5400    1.9680    2.6730 N   0  0  0  0  0  0  0  0  0  0  0  0
    2.1190    1.4690    1.4290 C   0  0  0  0  0  0  0  0  0  0  0  0
    2.8010    1.8140    0.4110 O   0  0  0  0  0  0  0  0  0  0  0  0
    0.9280    0.5770    1.3090 C   0  0  0  0  0  0  0  0  0  0  0  0
    0.7690    0.2550   -0.0340 O   0  0  0  0  0  0  0  0  0  0  0  0
   -0.2390   -0.5610   -0.5380 C   0  0  0  0  0  0  0  0  0  0  0  0
   -1.3380    0.0610   -1.2170 C   0  0  0  0  0  0  0  0  0  0  0  0
   -2.3560   -0.5080   -1.7470 N   0  0  0  0  0  0  0  0  0  0  0  0
   -1.3510    1.5190   -1.3490 N   0  0  0  0  0  0  0  0  0  0  0  0
   -0.1100   -1.8450   -0.3550 C   0  0  0  0  0  0  0  0  0  0  0  0
   -1.0080   -2.8530   -0.7790 N   0  0  0  0  0  0  0  0  0  0  0  0
    1.0320   -2.3590    0.3390 O   0  0  0  0  0  0  0  0  0  0  0  0
  1  2  1  0
  2  3  2  0
  2  4  1  0
  4  5  1  0
  5  6  1  0
  6  7  1  0
  6 10  2  3
  7  8  2  0
  7  9  1  0
 10 11  1  0
 10 12  1  0
M  CHG  2   8   1   9   1
M  END
