
     RDKit          3D

 12 11  0  0  0  0  0  0  0  0999 V2000
    3.6830   -0.7560   -0.1770 C   0  0  0  0  0  0  0  0  0  0  0  0
    2.9630    0.3950   -0.8230 C   0  0  0  0  0  0  0  0  0  0  0  0
    2.5580    1.3100    0.1030 O   0  0  0  0  0  0  0  0  0  0  0  0
    1.7170    0.8920    1.0890 C   0  0  0  0  0  0  0  0  0  0  0  0
    0.4210    0.3610    0.6060 C   0  0  0  0  0  0  0  0  0  0  0  0
    0.3610   -0.8070   -0.1860 N   0  0  0  0  0  0  0  0  0  0  0  0
   -0.6760    0.9550    0.9000 N   0  0  0  0  0  0  0  0  0  0  0  0
   -1.9260    0.4170    0.4170 C   0  0  2  0  0  0  0  0  0  0  0  0
   -2.8790    1.4140    0.5260 O   0  0  0  0  0  0  0  0  0  0  0  0
   -3.4330    1.7470   -0.6510 N   0  0  0  0  0  0  0  0  0  0  0  0
   -2.2510   -0.6940    1.1940 O   0  0  0  0  0  0  0  0  0  0  0  0
   -2.4060   -1.7870    0.4560 N   0  0  0  0  0  0  0  0  0  0  0  0
  1  2  1  0
  2  3  1  0
  3  4  1  0
  4  5  1  0
  5  6  1  0
  5  7  2  3
  7  8  1  0
  8  9  1  1
  8 11  1  0
  9 10  1  0
 11 12  1  0
M  CHG  2  10   1  12   1
M  END
