
     RDKit          3D

 12 11  0  0  0  0  0  0  0  0999 V2000
   -1.8270   -1.1010   -0.1510 C   0  0  0  0  0  0  0  0  0  0  0  0
   -0.9210    0.1130   -0.1870 C   0  0  1  0  0  0  0  0  0  0  0  0
   -0.7370    0.4890   -1.5760 N   0  0  0  0  0  0  0  0  0  0  0  0
   -1.4950    1.2570    0.5560 C   0  0  0  0  0  0  0  0  0  0  0  0
   -1.7810    1.1660    1.9480 N   0  0  0  0  0  0  0  0  0  0  0  0
   -1.7310    2.3010   -0.0250 O   0  0  0  0  0  0  0  0  0  0  0  0
    0.3860   -0.3100    0.3540 C   0  0  0  0  0  0  0  0  0  0  0  0
    0.4860   -0.6840    1.5400 O   0  0  0  0  0  0  0  0  0  0  0  0
    1.5360   -0.2970   -0.4630 N   0  0  0  0  0  0  0  0  0  0  0  0
    2.8010   -0.7090    0.0680 C   0  0  0  0  0  0  0  0  0  0  0  0
    3.9810   -0.7180   -0.6960 N   0  0  0  0  0  0  0  0  0  0  0  0
    2.8680   -1.0800    1.2670 O   0  0  0  0  0  0  0  0  0  0  0  0
  2  1  1  6
  2  3  1  0
  2  4  1  0
  2  7  1  0
  4  5  1  0
  4  6  2  0
  7  8  2  0
  7  9  1  0
  9 10  1  0
 10 11  1  0
 10 12  2  0
M  CHG  2   3   1   5   1
M  END
