
     RDKit          3D

 11 10  0  0  0  0  0  0  0  0999 V2000
    2.2370    1.3910   -0.4690 N   0  0  0  0  0  0  0  0  0  0  0  0
    2.1360   -0.0330   -0.5640 C   0  0  0  0  0  0  0  0  0  0  0  0
    3.0400   -0.7990   -1.3280 N   0  0  0  0  0  0  0  0  0  0  0  0
    1.1870   -0.5950    0.0740 N   0  0  0  0  0  0  0  0  0  0  0  0
    0.2460    0.1850    0.8660 C   0  0  0  0  0  0  0  0  0  0  0  0
   -1.1250   -0.3400    0.5810 C   0  0  1  0  0  0  0  0  0  0  0  0
   -1.1560   -1.6850    0.9450 O   0  0  0  0  0  0  0  0  0  0  0  0
   -2.2130    0.3650    1.3360 C   0  0  0  0  0  0  0  0  0  0  0  0
   -2.1970    1.7250    0.9810 O   0  0  0  0  0  0  0  0  0  0  0  0
   -1.3940   -0.1650   -0.9020 C   0  0  0  0  0  0  0  0  0  0  0  0
   -0.4080   -0.8550   -1.5930 O   0  0  0  0  0  0  0  0  0  0  0  0
  1  2  1  0
  2  3  1  0
  2  4  2  3
  4  5  1  0
  5  6  1  0
  6  7  1  6
  6  8  1  0
  6 10  1  0
  8  9  1  0
 10 11  1  0
M  CHG  1   4   1
M  END
