
     RDKit          3D

 11 10  0  0  0  0  0  0  0  0999 V2000
    2.5680   -2.0840    0.9650 N   0  0  0  0  0  0  0  0  0  0  0  0
    1.5910   -1.3460    0.2440 C   0  0  0  0  0  0  0  0  0  0  0  0
    1.3000   -1.6930   -0.9510 N   0  0  0  0  0  0  0  0  0  0  0  0
    0.9310   -0.2470    0.7930 O   0  0  0  0  0  0  0  0  0  0  0  0
    0.3410    0.7330    0.0280 C   0  0  0  0  0  0  0  0  0  0  0  0
   -0.9590    0.6590   -0.2430 C   0  0  0  0  0  0  0  0  0  0  0  0
   -1.7800   -0.4540    0.2610 C   0  0  0  0  0  0  0  0  0  0  0  0
   -2.8670    0.0130    1.1170 N   0  0  0  0  0  0  0  0  0  0  0  0
    1.1270    1.8450   -0.4850 C   0  0  0  0  0  0  0  0  0  0  0  0
    0.5580    2.8760   -1.2770 N   0  0  0  0  0  0  0  0  0  0  0  0
    2.3540    1.9160   -0.2300 O   0  0  0  0  0  0  0  0  0  0  0  0
  1  2  1  0
  2  3  2  0
  2  4  1  0
  4  5  1  0
  5  6  2  3
  5  9  1  0
  6  7  1  0
  7  8  1  0
  9 10  1  0
  9 11  2  0
M  CHG  2   3   1   8   1
M  END
