
     RDKit          3D

 12 12  0  0  0  0  0  0  0  0999 V2000
   -0.9290    3.4420   -0.3680 N   0  0  0  0  0  0  0  0  0  0  0  0
   -0.6870    2.0710   -0.0000 C   0  0  0  0  0  0  0  0  0  0  0  0
    0.3710    1.6450    0.5790 N   0  0  0  0  0  0  0  0  0  0  0  0
    0.2630    0.2390    0.7880 C   0  0  2  0  0  0  0  0  0  0  0  0
    1.5490   -0.4750    0.6150 C   0  0  0  0  0  0  0  0  0  0  0  0
    1.5400   -1.7190    0.7820 O   0  0  0  0  0  0  0  0  0  0  0  0
    2.7250    0.1370    0.2890 O   0  0  0  0  0  0  0  0  0  0  0  0
    3.9310   -0.4940    0.1210 N   0  0  0  0  0  0  0  0  0  0  0  0
   -0.8030   -0.2040   -0.1450 C   0  0  1  0  0  0  0  0  0  0  0  0
   -1.6190   -1.3000    0.5070 C   0  0  0  0  0  0  0  0  0  0  0  0
   -2.8250   -1.5870   -0.2340 N   0  0  0  0  0  0  0  0  0  0  0  0
   -1.5730    1.0090   -0.2230 O   0  0  0  0  0  0  0  0  0  0  0  0
  1  2  1  0
  2  3  2  0
  2 12  1  0
  3  4  1  0
  4  5  1  6
  4  9  1  0
  5  6  2  0
  5  7  1  0
  7  8  1  0
  9 10  1  1
  9 12  1  0
 10 11  1  0
M  CHG  2   8   1  11   1
M  END
