
     RDKit          3D

 29 30  0  0  0  0  0  0  0  0999 V2000
   -4.2360   -0.1400   -2.9220 N   0  0  0  0  0  0  0  0  0  0  0  0
   -3.8800    1.1740   -1.8520 S   0  0  1  0  0  0  0  0  0  0  0  0
   -3.0030    2.1830   -2.5160 O   0  0  0  0  0  0  0  0  0  0  0  0
   -5.1910    1.8510   -1.5200 O   0  0  0  0  0  0  0  0  0  0  0  0
   -3.1870    0.5280   -0.3940 C   0  0  0  0  0  0  0  0  0  0  0  0
   -1.8080    0.3710   -0.3100 C   0  0  0  0  0  0  0  0  0  0  0  0
   -1.2350   -0.1400    0.8380 C   0  0  0  0  0  0  0  0  0  0  0  0
    0.1500   -0.3390    1.0240 N   0  0  0  0  0  0  0  0  0  0  0  0
    1.1700   -0.0430    0.0620 C   0  0  0  0  0  0  0  0  0  0  0  0
    0.8510    0.4330   -1.0500 O   0  0  0  0  0  0  0  0  0  0  0  0
    2.5230   -0.2980    0.3930 N   0  0  0  0  0  0  0  0  0  0  0  0
    3.6430   -0.0610   -0.4080 C   0  0  0  0  0  0  0  0  0  0  0  0
    3.7010    0.7370   -1.5020 C   0  0  0  0  0  0  0  0  0  0  0  0
    2.6580    1.5030   -1.9350 F   0  0  0  0  0  0  0  0  0  0  0  0
    4.8920    0.8280   -2.2220 C   0  0  0  0  0  0  0  0  0  0  0  0
    4.9290    1.6340   -3.3200 F   0  0  0  0  0  0  0  0  0  0  0  0
    6.0120    0.1510   -1.8790 C   0  0  0  0  0  0  0  0  0  0  0  0
    7.1810    0.2390   -2.5850 F   0  0  0  0  0  0  0  0  0  0  0  0
    5.9710   -0.6590   -0.7750 C   0  0  0  0  0  0  0  0  0  0  0  0
    7.0750   -1.3670   -0.3820 F   0  0  0  0  0  0  0  0  0  0  0  0
    4.8160   -0.7590   -0.0620 C   0  0  0  0  0  0  0  0  0  0  0  0
    4.8330   -1.5860    1.0350 F   0  0  0  0  0  0  0  0  0  0  0  0
   -2.0800   -0.4900    1.9000 C   0  0  0  0  0  0  0  0  0  0  0  0
   -1.5880   -1.0030    3.0710 O   0  0  0  0  0  0  0  0  0  0  0  0
   -3.4740   -0.3270    1.8060 C   0  0  0  0  0  0  0  0  0  0  0  0
   -4.2740   -0.7040    2.9260 N   0  0  0  0  0  0  0  0  0  0  0  0
   -5.4560   -1.0650    2.7430 O   0  0  0  0  0  0  0  0  0  0  0  0
   -3.7110   -0.6560    4.1680 O   0  0  0  0  0  0  0  0  0  0  0  0
   -3.9980    0.1810    0.6530 C   0  0  0  0  0  0  0  0  0  0  0  0
  2  1  1  6
  2  3  2  0
  2  4  2  0
  2  5  1  0
  5  6  2  0
  5 29  1  0
  6  7  1  0
  7  8  1  0
  7 23  2  0
  8  9  1  0
  9 10  2  0
  9 11  1  0
 11 12  1  0
 12 13  2  0
 12 21  1  0
 13 14  1  0
 13 15  1  0
 15 16  1  0
 15 17  2  0
 17 18  1  0
 17 19  1  0
 19 20  1  0
 19 21  2  0
 21 22  1  0
 23 24  1  0
 23 25  1  0
 25 26  1  0
 25 29  2  0
 26 27  2  0
 26 28  1  0
M  CHG  2  26   1  28  -1
M  END
