
     RDKit          3D

 29 32  0  0  0  0  0  0  0  0999 V2000
    3.3580   -1.2110    2.5990 C   0  0  0  0  0  0  0  0  0  0  0  0
    3.2060   -0.6610    1.2100 C   0  0  0  0  0  0  0  0  0  0  0  0
    4.0890   -0.8900    0.2760 C   0  0  0  0  0  0  0  0  0  0  0  0
    5.2800   -1.7300    0.6370 C   0  0  0  0  0  0  0  0  0  0  0  0
    3.9200   -0.3570   -1.0810 C   0  0  0  0  0  0  0  0  0  0  0  0
    2.7740    0.4900   -1.3440 C   0  0  0  0  0  0  0  0  0  0  0  0
    1.7720    0.7120   -0.2290 C   0  0  0  0  0  0  0  0  0  0  0  0
    0.5900    1.4250   -0.6020 C   0  0  0  0  0  0  0  0  0  0  0  0
    0.8920    2.6450   -1.2010 N   0  0  0  0  0  0  0  0  0  0  0  0
   -0.0250    3.4390   -1.7540 C   0  0  0  0  0  0  0  0  0  0  0  0
    0.2420    4.5350   -2.2930 O   0  0  0  0  0  0  0  0  0  0  0  0
   -1.3300    3.0130   -1.7210 C   0  0  0  0  0  0  0  0  0  0  0  0
   -2.3570    3.8900   -2.3330 C   0  0  0  0  0  0  0  0  0  0  0  0
   -1.6430    1.8190   -1.1390 C   0  0  0  0  0  0  0  0  0  0  0  0
   -0.6700    0.9530   -0.5420 C   0  0  0  0  0  0  0  0  0  0  0  0
   -1.2090   -0.2800    0.0070 C   0  0  1  0  0  0  0  0  0  0  0  0
   -1.1640   -0.5890    1.4390 C   0  0  0  0  0  0  0  0  0  0  0  0
   -1.7610    0.3270    2.4080 C   0  0  0  0  0  0  0  0  0  0  0  0
   -1.0470    0.9220    3.3650 C   0  0  0  0  0  0  0  0  0  0  0  0
   -1.9080    1.7830    4.1890 C   0  0  0  0  0  0  0  0  0  0  0  0
   -3.2320    1.6150    3.6140 C   0  0  0  0  0  0  0  0  0  0  0  0
   -3.1050    0.7640    2.5810 C   0  0  0  0  0  0  0  0  0  0  0  0
   -2.6000   -0.5360   -0.5300 C   0  0  0  0  0  0  0  0  0  0  0  0
   -2.9800   -1.9980   -0.5790 C   0  0  0  0  0  0  0  0  0  0  0  0
   -2.3850   -2.5610   -1.8850 C   0  0  0  0  0  0  0  0  0  0  0  0
   -1.0730   -1.7950   -2.0380 C   0  0  2  0  0  0  0  0  0  0  0  0
   -0.1280   -2.7960   -2.7210 C   0  0  0  0  0  0  0  0  0  0  0  0
   -0.4740   -1.4910   -0.6870 C   0  0  0  0  0  0  0  0  0  0  0  0
    2.0220    0.1700    0.9100 C   0  0  0  0  0  0  0  0  0  0  0  0
  1  2  1  0
  2  3  2  0
  2 29  1  0
  3  4  1  0
  3  5  1  0
  5  6  1  0
  6  7  1  0
  7  8  1  0
  7 29  2  0
  8  9  1  0
  8 15  2  0
  9 10  1  0
 10 11  2  0
 10 12  1  0
 12 13  1  0
 12 14  2  0
 14 15  1  0
 15 16  1  0
 16 17  1  1
 16 23  1  0
 16 28  1  0
 17 18  1  0
 18 19  2  0
 18 22  1  0
 19 20  1  0
 20 21  1  0
 21 22  2  0
 23 24  1  0
 24 25  1  0
 25 26  1  0
 26 27  1  6
 26 28  1  0
M  END
