
     RDKit          3D

 29 32  0  0  0  0  0  0  0  0999 V2000
   -8.5130   -1.0540    0.0910 C   0  0  0  0  0  0  0  0  0  0  0  0
   -7.0970   -0.7230    0.4700 C   0  0  0  0  0  0  0  0  0  0  0  0
   -6.4920   -1.2180    1.6030 C   0  0  0  0  0  0  0  0  0  0  0  0
   -5.1840   -0.8800    1.8980 C   0  0  0  0  0  0  0  0  0  0  0  0
   -4.4230   -0.0460    1.0970 C   0  0  0  0  0  0  0  0  0  0  0  0
   -3.0630    0.3180    1.4340 C   0  0  0  0  0  0  0  0  0  0  0  0
   -2.0330    0.3040    0.6060 C   0  0  0  0  0  0  0  0  0  0  0  0
   -2.0960   -0.0950   -0.8200 C   0  0  0  0  0  0  0  0  0  0  0  0
   -0.8600   -0.9630   -1.0760 C   0  0  0  0  0  0  0  0  0  0  0  0
   -0.3390   -1.5010    0.2400 C   0  0  0  0  0  0  0  0  0  0  0  0
    0.3210   -0.3920    1.0520 C   0  0  1  0  0  0  0  0  0  0  0  0
    1.6490   -0.0470    0.5530 C   0  0  0  0  0  0  0  0  0  0  0  0
    2.2540   -0.7650   -0.4510 C   0  0  0  0  0  0  0  0  0  0  0  0
    3.5200   -0.4420   -0.9340 C   0  0  0  0  0  0  0  0  0  0  0  0
    4.2140    0.6260   -0.4100 C   0  0  0  0  0  0  0  0  0  0  0  0
    5.5740    0.9790   -0.9060 C   0  0  2  0  0  0  0  0  0  0  0  0
    5.6370    0.7470   -2.2750 O   0  0  0  0  0  0  0  0  0  0  0  0
    6.5560    0.0460   -0.2240 C   0  0  1  0  0  0  0  0  0  0  0  0
    6.4150   -1.4280   -0.4200 C   0  0  0  0  0  0  0  0  0  0  0  0
    7.9530    0.5760   -0.1250 C   0  0  0  0  0  0  0  0  0  0  0  0
    7.1190    0.4620    1.0920 C   0  0  0  0  0  0  0  0  0  0  0  0
    3.6170    1.3500    0.5930 C   0  0  0  0  0  0  0  0  0  0  0  0
    2.3480    1.0150    1.0690 C   0  0  0  0  0  0  0  0  0  0  0  0
    1.7870    1.8440    2.1620 C   0  0  0  0  0  0  0  0  0  0  0  0
   -0.6660    0.7380    1.0760 C   0  0  0  0  0  0  0  0  0  0  0  0
   -5.0470    0.4490   -0.0460 C   0  0  0  0  0  0  0  0  0  0  0  0
   -6.3560    0.1100   -0.3410 C   0  0  0  0  0  0  0  0  0  0  0  0
   -7.0140    0.6470   -1.5690 C   0  0  0  0  0  0  0  0  0  0  0  0
   -7.8820    1.6540   -1.1550 F   0  0  0  0  0  0  0  0  0  0  0  0
  1  2  1  0
  2  3  2  0
  2 27  1  0
  3  4  1  0
  4  5  2  0
  5  6  1  0
  5 26  1  0
  6  7  2  3
  7  8  1  0
  7 25  1  0
  8  9  1  0
  9 10  1  0
 10 11  1  0
 11 12  1  6
 11 25  1  0
 12 13  2  0
 12 23  1  0
 13 14  1  0
 14 15  2  0
 15 16  1  0
 15 22  1  0
 16 17  1  6
 16 18  1  0
 18 19  1  1
 18 20  1  0
 18 21  1  0
 20 21  1  0
 22 23  2  0
 23 24  1  0
 26 27  2  0
 27 28  1  0
 28 29  1  0
M  END
