
     RDKit          3D

 29 32  0  0  0  0  0  0  0  0999 V2000
   -5.1880   -0.3340    0.2040 C   0  0  0  0  0  0  0  0  0  0  0  0
   -4.3810   -0.7390   -0.9890 C   0  0  0  0  0  0  0  0  0  0  0  0
   -2.9230   -0.9480   -0.7700 C   0  0  2  0  0  0  0  0  0  0  0  0
   -2.3650   -1.3250   -2.1540 C   0  0  0  0  0  0  0  0  0  0  0  0
   -2.6930   -2.2360    0.0410 C   0  0  0  0  0  0  0  0  0  0  0  0
   -3.2970   -2.2840    1.3700 C   0  0  0  0  0  0  0  0  0  0  0  0
   -2.1540    0.1230   -0.1310 C   0  0  1  0  0  0  0  0  0  0  0  0
   -0.7480   -0.3620   -0.0000 N   0  0  0  0  0  0  0  0  0  0  0  0
   -0.0680   -0.4410    1.2090 C   0  0  0  0  0  0  0  0  0  0  0  0
   -0.7150   -0.0800    2.2540 O   0  0  0  0  0  0  0  0  0  0  0  0
    1.3090   -0.9010    1.3530 C   0  0  2  0  0  0  0  0  0  0  0  0
    1.4240   -2.3550    0.8620 C   0  0  0  0  0  0  0  0  0  0  0  0
    0.5420   -3.2440    1.6730 C   0  0  0  0  0  0  0  0  0  0  0  0
    1.7590   -0.9210    2.8010 C   0  0  0  0  0  0  0  0  0  0  0  0
    3.2450   -1.1430    2.6130 C   0  0  0  0  0  0  0  0  0  0  0  0
    3.5050   -0.2360    1.4350 C   0  0  0  0  0  0  0  0  0  0  0  0
    4.6350    0.4250    1.0180 C   0  0  0  0  0  0  0  0  0  0  0  0
    4.6210    1.2450   -0.1190 C   0  0  0  0  0  0  0  0  0  0  0  0
    3.4710    1.4060   -0.8450 C   0  0  0  0  0  0  0  0  0  0  0  0
    2.3400    0.7390   -0.4230 C   0  0  0  0  0  0  0  0  0  0  0  0
    2.3460   -0.0820    0.7110 C   0  0  0  0  0  0  0  0  0  0  0  0
    3.7140    2.3380   -2.0060 C   0  0  0  0  0  0  0  0  0  0  0  0
    4.9170    3.1310   -1.4760 C   0  0  0  0  0  0  0  0  0  0  0  0
    5.6840    2.0420   -0.7690 C   0  0  0  0  0  0  0  0  0  0  0  0
   -2.1180    1.4500   -0.7870 C   0  0  0  0  0  0  0  0  0  0  0  0
   -2.5570    1.8910   -1.9380 C   0  0  0  0  0  0  0  0  0  0  0  0
   -2.2460    3.3480   -2.1000 C   0  0  0  0  0  0  0  0  0  0  0  0
   -1.5380    3.6570   -0.8430 C   0  0  0  0  0  0  0  0  0  0  0  0
   -1.4620    2.5860   -0.0890 C   0  0  0  0  0  0  0  0  0  0  0  0
  1  2  1  0
  2  3  1  0
  3  4  1  6
  3  5  1  0
  3  7  1  0
  5  6  1  0
  7  8  1  6
  7 25  1  0
  8  9  1  0
  9 10  2  0
  9 11  1  0
 11 12  1  6
 11 14  1  0
 11 21  1  0
 12 13  1  0
 14 15  1  0
 15 16  1  0
 16 17  2  0
 16 21  1  0
 17 18  1  0
 18 19  2  0
 18 24  1  0
 19 20  1  0
 19 22  1  0
 20 21  2  0
 22 23  1  0
 23 24  1  0
 25 26  2  0
 25 29  1  0
 26 27  1  0
 27 28  1  0
 28 29  2  0
M  END
