
     RDKit          3D

 29 30  0  0  0  0  0  0  0  0999 V2000
    0.1910    0.4510    0.7270 C   0  0  0  0  0  0  0  0  0  0  0  0
   -0.0970    0.3400   -0.7630 C   0  0  2  0  0  0  0  0  0  0  0  0
   -1.3270   -0.4680   -0.9130 C   0  0  0  0  0  0  0  0  0  0  0  0
   -1.2700   -1.4830   -1.6250 O   0  0  0  0  0  0  0  0  0  0  0  0
   -2.5400   -0.1240   -0.2810 N   0  0  0  0  0  0  0  0  0  0  0  0
   -3.7710   -0.7970   -0.3400 C   0  0  0  0  0  0  0  0  0  0  0  0
   -4.0020   -1.9280   -1.0490 C   0  0  0  0  0  0  0  0  0  0  0  0
   -5.2150   -2.5670   -1.0920 N   0  0  0  0  0  0  0  0  0  0  0  0
   -6.2330   -2.0650   -0.4080 C   0  0  0  0  0  0  0  0  0  0  0  0
   -7.3430   -2.6740   -0.4650 O   0  0  0  0  0  0  0  0  0  0  0  0
   -6.0570   -0.9140    0.3330 C   0  0  0  0  0  0  0  0  0  0  0  0
   -4.8410   -0.2650    0.3820 C   0  0  0  0  0  0  0  0  0  0  0  0
   -4.6980    1.2020    1.3560 S   0  0  0  0  0  0  0  0  0  0  0  0
   -4.2090    0.8830    3.0510 C   0  0  0  0  0  0  0  0  0  0  0  0
   -5.2610    0.1220    3.8310 C   0  0  0  0  0  0  0  0  0  0  0  0
   -4.7560   -0.0590    5.1220 O   0  0  0  0  0  0  0  0  0  0  0  0
    1.0250   -0.1580   -1.4720 N   0  0  2  0  0  0  0  0  0  0  0  0
    1.9180    0.9180   -1.8870 C   0  0  0  0  0  0  0  0  0  0  0  0
    3.2330    0.8090   -1.1960 C   0  0  0  0  0  0  0  0  0  0  0  0
    3.4390   -0.1370   -0.3720 O   0  0  0  0  0  0  0  0  0  0  0  0
    4.2910    1.7150   -1.4060 N   0  0  0  0  0  0  0  0  0  0  0  0
    5.5380    1.5810   -0.7280 C   0  0  0  0  0  0  0  0  0  0  0  0
    5.4630    1.6440    0.7640 C   0  0  0  0  0  0  0  0  0  0  0  0
    6.8720    1.4840    1.2740 C   0  0  0  0  0  0  0  0  0  0  0  0
    7.1100    1.5190    2.6700 N   0  0  0  0  0  0  0  0  0  0  0  0
    7.8500    1.3200    0.5150 O   0  0  0  0  0  0  0  0  0  0  0  0
    0.7140   -0.9440   -2.6470 C   0  0  2  0  0  0  0  0  0  0  0  0
    1.0660   -2.3560   -2.7870 C   0  0  0  0  0  0  0  0  0  0  0  0
    1.9930   -1.4000   -3.4060 C   0  0  0  0  0  0  0  0  0  0  0  0
  2  1  1  1
  2  3  1  0
  2 17  1  0
  3  4  2  0
  3  5  1  0
  5  6  1  0
  6  7  2  0
  6 12  1  0
  7  8  1  0
  8  9  1  0
  9 10  2  0
  9 11  1  0
 11 12  2  0
 12 13  1  0
 13 14  1  0
 14 15  1  0
 15 16  1  0
 17 18  1  6
 17 27  1  0
 18 19  1  0
 19 20  2  0
 19 21  1  0
 21 22  1  0
 22 23  1  0
 23 24  1  0
 24 25  1  0
 24 26  2  0
 27 28  1  1
 27 29  1  0
 28 29  1  0
M  CHG  1  17   1
M  END
