
     RDKit          3D

 29 29  0  0  0  0  0  0  0  0999 V2000
   -3.9980   -1.9150   -0.8580 C   0  0  0  0  0  0  0  0  0  0  0  0
   -3.8290   -0.8260    0.1880 C   0  0  2  0  0  0  0  0  0  0  0  0
   -4.6610    0.2830   -0.2390 N   0  0  0  0  0  0  0  0  0  0  0  0
   -5.6680    0.7740    0.6080 C   0  0  0  0  0  0  0  0  0  0  0  0
   -5.8130    0.2150    1.7390 O   0  0  0  0  0  0  0  0  0  0  0  0
   -6.5320    1.8460    0.2920 N   0  0  0  0  0  0  0  0  0  0  0  0
   -7.5460    2.2660    1.2640 C   0  0  0  0  0  0  0  0  0  0  0  0
   -8.3440    3.3910    0.7560 C   0  0  0  0  0  0  0  0  0  0  0  0
   -9.3690    3.9350    1.5480 N   0  0  0  0  0  0  0  0  0  0  0  0
   -8.0500    4.0110   -0.7150 S   0  0  0  0  0  0  0  0  0  0  0  0
   -2.3880   -0.4500    0.1770 C   0  0  0  0  0  0  0  0  0  0  0  0
   -2.0740    0.7070   -0.1880 O   0  0  0  0  0  0  0  0  0  0  0  0
   -1.3680   -1.3500    0.5620 N   0  0  0  0  0  0  0  0  0  0  0  0
   -1.5910   -2.7100    1.0070 C   0  0  0  0  0  0  0  0  0  0  0  0
   -0.6550   -3.6740    0.2700 C   0  0  0  0  0  0  0  0  0  0  0  0
    0.6420   -3.1720    0.2640 O   0  0  0  0  0  0  0  0  0  0  0  0
    0.7430   -1.9450   -0.3490 C   0  0  2  0  0  0  0  0  0  0  0  0
    2.1540   -1.5510   -0.4830 C   0  0  0  0  0  0  0  0  0  0  0  0
    2.4580   -0.4560   -1.0190 O   0  0  0  0  0  0  0  0  0  0  0  0
    3.1520   -2.3860   -0.0180 O   0  0  0  0  0  0  0  0  0  0  0  0
    4.5140   -2.0800   -0.1090 C   0  0  0  0  0  0  0  0  0  0  0  0
    4.8880   -0.8160    0.6310 C   0  0  0  0  0  0  0  0  0  0  0  0
    6.3450   -0.6270    0.4470 C   0  0  0  0  0  0  0  0  0  0  0  0
    6.7690    0.4780   -0.1440 C   0  0  0  0  0  0  0  0  0  0  0  0
    8.1810    0.7100   -0.3470 C   0  0  0  0  0  0  0  0  0  0  0  0
    8.6130    1.7940   -0.9280 C   0  0  0  0  0  0  0  0  0  0  0  0
    7.7710    2.8650   -1.4260 C   0  0  0  0  0  0  0  0  0  0  0  0
    8.2920    3.9100   -1.9920 N   0  0  0  0  0  0  0  0  0  0  0  0
    0.0110   -0.9130    0.5190 C   0  0  0  0  0  0  0  0  0  0  0  0
  2  1  1  6
  2  3  1  0
  2 11  1  0
  3  4  1  0
  4  5  2  0
  4  6  1  0
  6  7  1  0
  7  8  1  0
  8  9  1  0
  8 10  2  0
 11 12  2  0
 11 13  1  0
 13 14  1  0
 13 29  1  0
 14 15  1  0
 15 16  1  0
 16 17  1  0
 17 18  1  1
 17 29  1  0
 18 19  2  0
 18 20  1  0
 20 21  1  0
 21 22  1  0
 22 23  1  0
 23 24  2  3
 24 25  1  0
 25 26  2  3
 26 27  1  0
 27 28  2  0
M  CHG  1  28   1
M  END
