
     RDKit          3D

 29 29  0  0  0  0  0  0  0  0999 V2000
    6.8960   -0.5380    2.3770 C   0  0  0  0  0  0  0  0  0  0  0  0
    5.6460   -0.4810    1.5510 C   0  0  0  0  0  0  0  0  0  0  0  0
    5.9420   -0.7450    0.0820 C   0  0  2  0  0  0  0  0  0  0  0  0
    6.9790    0.3190   -0.3970 C   0  0  0  0  0  0  0  0  0  0  0  0
    4.7830   -0.4100   -0.6910 N   0  0  0  0  0  0  0  0  0  0  0  0
    3.7080   -1.3100   -0.8340 C   0  0  0  0  0  0  0  0  0  0  0  0
    2.4000   -0.6500   -0.5890 C   0  0  0  0  0  0  0  0  0  0  0  0
    1.4230   -1.0410    0.2630 C   0  0  0  0  0  0  0  0  0  0  0  0
    0.2610   -0.2690    0.0570 C   0  0  0  0  0  0  0  0  0  0  0  0
   -1.0100   -0.4840    0.6940 C   0  0  0  0  0  0  0  0  0  0  0  0
   -0.9690   -1.1440    1.8020 O   0  0  0  0  0  0  0  0  0  0  0  0
   -2.2920   -0.0400    0.2360 N   0  0  0  0  0  0  0  0  0  0  0  0
   -3.3540   -0.1290    1.2000 C   0  0  0  0  0  0  0  0  0  0  0  0
   -4.0860   -1.3760    1.4190 C   0  0  0  0  0  0  0  0  0  0  0  0
   -5.1190   -1.1420    2.5270 C   0  0  0  0  0  0  0  0  0  0  0  0
   -6.3530    0.0420    2.1530 S   0  0  1  0  0  0  0  0  0  0  0  0
   -7.2860   -0.3820    0.7810 N   0  0  0  0  0  0  0  0  0  0  0  0
   -7.3420    0.1170    3.3240 O   0  0  0  0  0  0  0  0  0  0  0  0
   -5.8250    1.4660    2.0880 O   0  0  0  0  0  0  0  0  0  0  0  0
   -2.4730    0.3560   -1.1160 C   0  0  1  0  0  0  0  0  0  0  0  0
   -3.4380   -0.3610   -1.9850 C   0  0  0  0  0  0  0  0  0  0  0  0
   -4.8650   -0.3860   -1.6990 C   0  0  0  0  0  0  0  0  0  0  0  0
   -2.6600    1.8370   -1.2440 C   0  0  0  0  0  0  0  0  0  0  0  0
   -2.4850    2.7530   -0.1890 N   0  0  0  0  0  0  0  0  0  0  0  0
   -2.9930    2.2860   -2.3650 O   0  0  0  0  0  0  0  0  0  0  0  0
    0.6440    0.5700   -0.9360 N   0  0  0  0  0  0  0  0  0  0  0  0
    1.9020    0.3740   -1.3440 C   0  0  0  0  0  0  0  0  0  0  0  0
    2.5950    1.1980   -2.3770 C   0  0  0  0  0  0  0  0  0  0  0  0
    1.7040    2.1480   -2.9130 O   0  0  0  0  0  0  0  0  0  0  0  0
  1  2  1  0
  2  3  1  0
  3  4  1  6
  3  5  1  0
  5  6  1  0
  6  7  1  0
  7  8  1  0
  7 27  2  0
  8  9  2  0
  9 10  1  0
  9 26  1  0
 10 11  2  0
 10 12  1  0
 12 13  1  0
 12 20  1  0
 13 14  1  0
 14 15  1  0
 15 16  1  0
 16 17  1  6
 16 18  2  0
 16 19  2  0
 20 21  1  1
 20 23  1  0
 21 22  1  0
 23 24  1  0
 23 25  2  0
 26 27  1  0
 27 28  1  0
 28 29  1  0
M  CHG  1   5   1
M  END
