
     RDKit          3D

 30 31  0  0  0  0  0  0  0  0999 V2000
   -2.7400    4.5590   -0.4840 C   0  0  0  0  0  0  0  0  0  0  0  0
   -3.6370    3.7530    0.4180 C   0  0  0  0  0  0  0  0  0  0  0  0
   -4.0570    2.4350   -0.1510 C   0  0  0  0  0  0  0  0  0  0  0  0
   -2.9470    1.4780   -0.3840 C   0  0  0  0  0  0  0  0  0  0  0  0
   -1.7240    1.7980   -0.0410 C   0  0  0  0  0  0  0  0  0  0  0  0
   -0.6100    0.8020   -0.2800 C   0  0  0  0  0  0  0  0  0  0  0  0
    0.5810    1.0390    0.1320 C   0  0  0  0  0  0  0  0  0  0  0  0
    1.7950    0.3380    0.0350 N   0  0  0  0  0  0  0  0  0  0  0  0
    2.9190    0.5800    0.8670 C   0  0  0  0  0  0  0  0  0  0  0  0
    2.8940    1.3560    1.8910 O   0  0  0  0  0  0  0  0  0  0  0  0
    4.1280   -0.0970    0.5120 C   0  0  0  0  0  0  0  0  0  0  0  0
    5.3830    0.1210    0.7030 C   0  0  0  0  0  0  0  0  0  0  0  0
    6.4090   -0.8090    0.1870 C   0  0  0  0  0  0  0  0  0  0  0  0
    5.7960    1.2430    1.4020 O   0  0  0  0  0  0  0  0  0  0  0  0
    6.8240    2.0150    0.7680 C   0  0  0  0  0  0  0  0  0  0  0  0
    3.4760   -1.5410   -0.4040 S   0  0  0  0  0  0  0  0  0  0  0  0
    2.0890   -0.5660   -1.0480 C   0  0  0  0  0  0  0  0  0  0  0  0
    1.5030   -0.7400   -2.5290 S   0  0  0  0  0  0  0  0  0  0  0  0
   -1.1190   -0.4240   -0.8680 N   0  0  0  0  0  0  0  0  0  0  0  0
   -0.6970   -1.6670   -0.2500 C   0  0  0  0  0  0  0  0  0  0  0  0
   -1.7350   -2.2600    0.7000 C   0  0  0  0  0  0  0  0  0  0  0  0
   -1.1700   -3.5040    1.2310 N   0  0  1  0  0  0  0  0  0  0  0  0
    0.2580   -3.3890    1.3890 C   0  0  0  0  0  0  0  0  0  0  0  0
   -1.7260   -3.7790    2.5570 C   0  0  0  0  0  0  0  0  0  0  0  0
   -2.0900   -0.2200   -1.8770 C   0  0  1  0  0  0  0  0  0  0  0  0
   -1.7490    0.9710   -2.6150 O   0  0  0  0  0  0  0  0  0  0  0  0
   -2.3610   -1.2300   -2.8980 C   0  0  2  0  0  0  0  0  0  0  0  0
   -3.3730   -0.6770   -3.7300 F   0  0  0  0  0  0  0  0  0  0  0  0
   -3.0110   -2.7840   -2.3930 Cl  0  0  0  0  0  0  0  0  0  0  0  0
   -3.3460    0.2220   -1.1150 C   0  0  0  0  0  0  0  0  0  0  0  0
  1  2  1  0
  2  3  1  0
  3  4  1  0
  4  5  2  0
  4 30  1  0
  5  6  1  0
  6  7  2  3
  6 19  1  0
  7  8  1  0
  8  9  1  0
  8 17  1  0
  9 10  2  0
  9 11  1  0
 11 12  2  3
 11 16  1  0
 12 13  1  0
 12 14  1  0
 14 15  1  0
 16 17  1  0
 17 18  2  0
 19 20  1  0
 19 25  1  0
 20 21  1  0
 21 22  1  0
 22 23  1  1
 22 24  1  0
 25 26  1  6
 25 27  1  0
 25 30  1  0
 27 28  1  6
 27 29  1  0
M  CHG  1  22   1
M  END
