
     RDKit          3D

 29 31  0  0  0  0  0  0  0  0999 V2000
    7.9240   -0.1850    1.5990 C   0  0  0  0  0  0  0  0  0  0  0  0
    7.7500   -0.4220    0.1840 N   0  0  0  0  0  0  0  0  0  0  0  0
    8.9230   -0.6610   -0.6710 C   0  0  0  0  0  0  0  0  0  0  0  0
    6.4820   -0.4360   -0.4260 C   0  0  0  0  0  0  0  0  0  0  0  0
    6.3900   -0.6530   -1.6910 O   0  0  0  0  0  0  0  0  0  0  0  0
    5.2890   -0.2100    0.3440 C   0  0  0  0  0  0  0  0  0  0  0  0
    4.0140   -0.2200   -0.2460 C   0  0  0  0  0  0  0  0  0  0  0  0
    2.8950    0.0010    0.5270 C   0  0  0  0  0  0  0  0  0  0  0  0
    1.5680   -0.0090   -0.0860 C   0  0  0  0  0  0  0  0  0  0  0  0
    1.3170   -0.2260   -1.4150 N   0  0  0  0  0  0  0  0  0  0  0  0
   -0.0030   -0.1680   -1.6420 C   0  0  0  0  0  0  0  0  0  0  0  0
   -0.6200   -0.3480   -2.9280 N   0  0  0  0  0  0  0  0  0  0  0  0
   -0.6360    0.0900   -0.4530 C   0  0  0  0  0  0  0  0  0  0  0  0
   -2.0720    0.2380   -0.2130 C   0  0  0  0  0  0  0  0  0  0  0  0
   -2.5260    0.4960    1.0000 C   0  0  0  0  0  0  0  0  0  0  0  0
   -3.9660    0.6660    1.3560 C   0  0  0  0  0  0  0  0  0  0  0  0
   -4.6790    1.0390    0.0400 C   0  0  0  0  0  0  0  0  0  0  0  0
   -4.3220    0.0120   -0.8740 N   0  0  0  0  0  0  0  0  0  0  0  0
   -5.1600   -1.0300   -1.2560 C   0  0  0  0  0  0  0  0  0  0  0  0
   -4.6990   -1.8820   -2.1520 O   0  0  0  0  0  0  0  0  0  0  0  0
   -6.5110   -1.3710   -0.8340 C   0  0  0  0  0  0  0  0  0  0  0  0
   -7.1340   -0.5720    0.1630 N   0  0  0  0  0  0  0  0  0  0  0  0
   -8.4640   -1.0620    0.3550 N   0  0  0  0  0  0  0  0  0  0  0  0
   -2.9750    0.0770   -1.4100 C   0  0  0  0  0  0  0  0  0  0  0  0
    0.3620    0.1770    0.4600 N   0  0  0  0  0  0  0  0  0  0  0  0
    3.0840    0.2230    1.8650 C   0  0  0  0  0  0  0  0  0  0  0  0
    2.1170    0.4330    2.6390 O   0  0  0  0  0  0  0  0  0  0  0  0
    4.3300    0.2290    2.4190 N   0  0  0  0  0  0  0  0  0  0  0  0
    5.3780    0.0150    1.6570 N   0  0  0  0  0  0  0  0  0  0  0  0
  1  2  1  0
  2  3  1  0
  2  4  1  0
  4  5  2  0
  4  6  1  0
  6  7  1  0
  6 29  2  0
  7  8  2  0
  8  9  1  0
  8 26  1  0
  9 10  2  0
  9 25  1  0
 10 11  1  0
 11 12  1  0
 11 13  2  0
 13 14  1  0
 13 25  1  0
 14 15  2  0
 14 24  1  0
 15 16  1  0
 16 17  1  0
 17 18  1  0
 18 19  1  0
 18 24  1  0
 19 20  2  0
 19 21  1  0
 21 22  1  0
 22 23  1  0
 26 27  2  0
 26 28  1  0
 28 29  1  0
M  CHG  1  23   1
M  END
