
     RDKit          3D

 29 31  0  0  0  0  0  0  0  0999 V2000
    8.4670    1.1060    1.8190 C   0  0  0  0  0  0  0  0  0  0  0  0
    7.4640    1.7700    0.4260 S   0  0  0  0  0  0  0  0  0  0  0  0
    6.9110    0.3490   -0.4870 C   0  0  0  0  0  0  0  0  0  0  0  0
    7.7910   -0.1570   -1.4210 C   0  0  0  0  0  0  0  0  0  0  0  0
    7.6000   -1.2730   -2.1490 C   0  0  0  0  0  0  0  0  0  0  0  0
    6.4170   -1.9840   -1.9430 C   0  0  0  0  0  0  0  0  0  0  0  0
    6.0280   -3.4530   -2.8100 Cl  0  0  0  0  0  0  0  0  0  0  0  0
    5.5010   -1.4900   -1.0020 C   0  0  0  0  0  0  0  0  0  0  0  0
    3.9230   -2.0320   -0.4050 S   0  0  0  0  0  0  0  0  0  0  0  0
    3.7290   -0.5860    0.7960 C   0  0  0  0  0  0  0  0  0  0  0  0
    2.4390   -0.7550    1.5300 C   0  0  0  0  0  0  0  0  0  0  0  0
    1.2980   -0.4550    0.7100 C   0  0  0  0  0  0  0  0  0  0  0  0
    0.6590    0.8250    0.4440 C   0  0  0  0  0  0  0  0  0  0  0  0
    0.3250    1.5850    1.4320 O   0  0  0  0  0  0  0  0  0  0  0  0
    0.3440    1.2820   -0.8580 N   0  0  0  0  0  0  0  0  0  0  0  0
   -0.4920    2.4950   -1.0060 C   0  0  0  0  0  0  0  0  0  0  0  0
   -1.8280    1.9670   -0.4140 C   0  0  0  0  0  0  0  0  0  0  0  0
   -2.2860    2.4190    0.5870 O   0  0  0  0  0  0  0  0  0  0  0  0
   -2.3790    0.9440   -1.1400 O   0  0  0  0  0  0  0  0  0  0  0  0
   -3.5510    0.2280   -0.8780 C   0  0  1  0  0  0  0  0  0  0  0  0
   -3.4370   -0.7260    0.2490 C   0  0  0  0  0  0  0  0  0  0  0  0
   -4.3500   -1.8990    0.0560 C   0  0  0  0  0  0  0  0  0  0  0  0
   -5.7270   -1.3020   -0.2700 C   0  0  0  0  0  0  0  0  0  0  0  0
   -6.1080   -0.2670    0.6690 N   0  0  2  0  0  0  0  0  0  0  0  0
   -7.5860   -0.1980    0.6270 C   0  0  0  0  0  0  0  0  0  0  0  0
   -5.5400    1.0140    0.4340 C   0  0  0  0  0  0  0  0  0  0  0  0
   -4.7620    1.1460   -0.8140 C   0  0  0  0  0  0  0  0  0  0  0  0
    4.7600   -0.0140    0.5790 N   0  0  0  0  0  0  0  0  0  0  0  0
    5.7050   -0.3270   -0.2520 C   0  0  0  0  0  0  0  0  0  0  0  0
  1  2  1  0
  2  3  1  0
  3  4  2  0
  3 29  1  0
  4  5  1  0
  5  6  2  0
  6  7  1  0
  6  8  1  0
  8  9  1  0
  8 29  2  0
  9 10  1  0
 10 11  1  0
 10 28  2  0
 11 12  1  0
 12 13  1  0
 13 14  2  0
 13 15  1  0
 15 16  1  0
 16 17  1  0
 17 18  2  0
 17 19  1  0
 20 19  1  1
 20 21  1  0
 20 27  1  0
 21 22  1  0
 22 23  1  0
 23 24  1  0
 24 25  1  6
 24 26  1  0
 26 27  1  0
 28 29  1  0
M  CHG  1  24   1
M  END
