
     RDKit          3D

 30 32  0  0  0  0  0  0  0  0999 V2000
   -1.6950    1.3550   -0.9790 O   0  0  0  0  0  0  0  0  0  0  0  0
   -1.8480    0.5020   -0.0710 C   0  0  0  0  0  0  0  0  0  0  0  0
   -3.0260   -0.3870    0.0120 C   0  0  0  0  0  0  0  0  0  0  0  0
   -4.1030   -0.1010   -0.9960 C   0  0  1  0  0  0  0  0  0  0  0  0
   -5.2530   -1.1040   -0.8400 C   0  0  0  0  0  0  0  0  0  0  0  0
   -6.5910   -0.4090   -0.9660 C   0  0  0  0  0  0  0  0  0  0  0  0
   -6.7200    0.4830    0.2520 C   0  0  0  0  0  0  0  0  0  0  0  0
   -5.6430    1.5160    0.1840 C   0  0  0  0  0  0  0  0  0  0  0  0
   -4.6470    1.3060   -0.9330 C   0  0  0  0  0  0  0  0  0  0  0  0
   -0.7940    0.4460    0.8910 N   0  0  0  0  0  0  0  0  0  0  0  0
    0.3400    1.3140    0.7960 C   0  0  1  0  0  0  0  0  0  0  0  0
    0.4660    2.2290    1.9580 C   0  0  0  0  0  0  0  0  0  0  0  0
   -0.4110    2.1470    2.8750 O   0  0  0  0  0  0  0  0  0  0  0  0
    1.5250    3.1550    2.0340 N   0  0  0  0  0  0  0  0  0  0  0  0
    1.6230    3.9830    3.1050 O   0  0  0  0  0  0  0  0  0  0  0  0
    1.6090    0.5580    0.5610 C   0  0  0  0  0  0  0  0  0  0  0  0
    2.5320    0.9730   -0.3750 C   0  0  0  0  0  0  0  0  0  0  0  0
    3.7000    0.2730   -0.5900 C   0  0  0  0  0  0  0  0  0  0  0  0
    4.0100   -0.8740    0.1140 C   0  0  0  0  0  0  0  0  0  0  0  0
    5.2550   -1.5940   -0.1360 C   0  0  0  0  0  0  0  0  0  0  0  0
    5.8110   -1.6020   -1.4050 C   0  0  0  0  0  0  0  0  0  0  0  0
    6.9880   -2.2780   -1.6660 C   0  0  0  0  0  0  0  0  0  0  0  0
    7.5330   -2.2880   -2.9010 F   0  0  0  0  0  0  0  0  0  0  0  0
    7.6420   -2.9650   -0.6650 C   0  0  0  0  0  0  0  0  0  0  0  0
    8.8080   -3.6440   -0.8850 F   0  0  0  0  0  0  0  0  0  0  0  0
    7.1110   -2.9710    0.5990 C   0  0  0  0  0  0  0  0  0  0  0  0
    7.7580   -3.6540    1.6010 F   0  0  0  0  0  0  0  0  0  0  0  0
    5.9350   -2.2910    0.8410 C   0  0  0  0  0  0  0  0  0  0  0  0
    3.0840   -1.2890    1.0520 C   0  0  0  0  0  0  0  0  0  0  0  0
    1.9120   -0.5870    1.2680 C   0  0  0  0  0  0  0  0  0  0  0  0
  1  2  2  0
  2  3  1  0
  2 10  1  0
  4  3  1  1
  4  5  1  0
  4  9  1  0
  5  6  1  0
  6  7  1  0
  7  8  1  0
  8  9  1  0
 11 10  1  1
 11 12  1  0
 11 16  1  0
 12 13  2  0
 12 14  1  0
 14 15  1  0
 16 17  2  0
 16 30  1  0
 17 18  1  0
 18 19  2  0
 19 20  1  0
 19 29  1  0
 20 21  2  0
 20 28  1  0
 21 22  1  0
 22 23  1  0
 22 24  2  0
 24 25  1  0
 24 26  1  0
 26 27  1  0
 26 28  2  0
 29 30  2  0
M  END
