
     RDKit          3D

 29 31  0  0  0  0  0  0  0  0999 V2000
   -2.9810   -3.1240    2.7520 C   0  0  0  0  0  0  0  0  0  0  0  0
   -2.9880   -2.1160    1.6540 C   0  0  2  0  0  0  0  0  0  0  0  0
   -3.3250   -0.7110    2.1530 C   0  0  0  0  0  0  0  0  0  0  0  0
   -3.1990    0.1690    1.0320 N   0  0  0  0  0  0  0  0  0  0  0  0
   -2.5620    1.4150    1.3070 C   0  0  0  0  0  0  0  0  0  0  0  0
   -1.1090    1.3310    1.6410 C   0  0  0  0  0  0  0  0  0  0  0  0
   -0.3460    0.7590    0.5930 O   0  0  0  0  0  0  0  0  0  0  0  0
    1.0160    0.6170    0.7490 C   0  0  0  0  0  0  0  0  0  0  0  0
    1.5430    1.0020    1.8220 O   0  0  0  0  0  0  0  0  0  0  0  0
    1.8900    0.0150   -0.3260 C   0  0  0  0  0  0  0  0  0  0  0  0
    2.5060    1.1520   -1.0910 C   0  0  0  0  0  0  0  0  0  0  0  0
    3.4010    0.7640   -2.2080 C   0  0  0  0  0  0  0  0  0  0  0  0
    4.5750   -0.0560   -1.7280 N   0  0  0  0  0  0  0  0  0  0  0  0
    4.3660   -1.4740   -1.7130 C   0  0  0  0  0  0  0  0  0  0  0  0
    5.7160    0.6100   -1.3440 C   0  0  0  0  0  0  0  0  0  0  0  0
    5.5300    1.9420   -1.4580 O   0  0  0  0  0  0  0  0  0  0  0  0
    7.0030    0.2300   -0.8700 C   0  0  0  0  0  0  0  0  0  0  0  0
    8.2150    1.5860   -0.4000 S   0  0  0  0  0  0  0  0  0  0  0  0
    9.5480    0.5000    0.0590 C   0  0  0  0  0  0  0  0  0  0  0  0
    9.0200   -0.7290   -0.1600 C   0  0  0  0  0  0  0  0  0  0  0  0
    7.7610   -0.8520   -0.6200 C   0  0  0  0  0  0  0  0  0  0  0  0
    7.1020   -2.5080   -0.9290 Cl  0  0  0  0  0  0  0  0  0  0  0  0
   -4.3550    0.2530    0.2110 C   0  0  1  0  0  0  0  0  0  0  0  0
   -5.1860    1.4820    0.4160 C   0  0  0  0  0  0  0  0  0  0  0  0
   -5.7620    1.7460   -0.9380 C   0  0  0  0  0  0  0  0  0  0  0  0
   -4.9490    1.0980   -1.9190 N   0  0  0  0  0  0  0  0  0  0  0  0
   -3.9140    0.3590   -1.2310 C   0  0  0  0  0  0  0  0  0  0  0  0
   -5.2690   -0.9480    0.3190 C   0  0  0  0  0  0  0  0  0  0  0  0
   -4.2870   -2.4810    0.4130 S   0  0  0  0  0  0  0  0  0  0  0  0
  2  1  1  1
  2  3  1  0
  2 29  1  0
  3  4  1  0
  4  5  1  0
  4 23  1  0
  5  6  1  0
  6  7  1  0
  7  8  1  0
  8  9  2  0
  8 10  1  0
 10 11  1  0
 11 12  1  0
 12 13  1  0
 13 14  1  0
 13 15  1  0
 15 16  2  0
 15 17  1  0
 17 18  1  0
 17 21  2  0
 18 19  1  0
 19 20  2  0
 20 21  1  0
 21 22  1  0
 23 24  1  1
 23 27  1  0
 23 28  1  0
 24 25  1  0
 25 26  1  0
 26 27  1  0
 28 29  1  0
M  CHG  1  26   1
M  END
