
     RDKit          3D

 30 32  0  0  0  0  0  0  0  0999 V2000
   -4.8080   -4.2040   -1.9490 C   0  0  0  0  0  0  0  0  0  0  0  0
   -4.1710   -3.3870   -1.1720 C   0  0  0  0  0  0  0  0  0  0  0  0
   -4.5880   -2.1010   -0.6720 C   0  0  0  0  0  0  0  0  0  0  0  0
   -5.4680   -1.2830   -1.2010 C   0  0  0  0  0  0  0  0  0  0  0  0
   -5.7360   -0.1090   -0.5870 F   0  0  0  0  0  0  0  0  0  0  0  0
   -6.3220   -1.6190   -2.6790 Cl  0  0  0  0  0  0  0  0  0  0  0  0
   -3.8400   -1.8050    0.6100 C   0  0  0  0  0  0  0  0  0  0  0  0
   -2.4980   -2.2050    0.4680 N   0  0  0  0  0  0  0  0  0  0  0  0
   -1.5700   -1.2430    0.1200 C   0  0  2  0  0  0  0  0  0  0  0  0
   -0.4520   -1.0480    1.1510 C   0  0  0  0  0  0  0  0  0  0  0  0
    0.5920   -0.2120    0.4460 C   0  0  1  0  0  0  0  0  0  0  0  0
    1.7920   -0.9890    0.1720 N   0  0  0  0  0  0  0  0  0  0  0  0
    3.0260   -0.6730    0.7860 C   0  0  0  0  0  0  0  0  0  0  0  0
    3.0340    0.3090    1.5770 O   0  0  0  0  0  0  0  0  0  0  0  0
    4.2760   -1.4620    0.5170 C   0  0  0  0  0  0  0  0  0  0  0  0
    5.4050   -0.8900    1.3140 C   0  0  0  0  0  0  0  0  0  0  0  0
    5.6630    0.8230    0.8430 S   0  0  0  0  0  0  0  0  0  0  0  0
    6.2470    0.9030   -0.8750 C   0  0  0  0  0  0  0  0  0  0  0  0
    7.6190    0.2750   -0.9410 C   0  0  0  0  0  0  0  0  0  0  0  0
    0.0920    0.4640   -0.7960 C   0  0  0  0  0  0  0  0  0  0  0  0
   -1.1670    1.0810   -0.5580 N   0  0  2  0  0  0  0  0  0  0  0  0
   -1.0860    2.1700    0.3630 C   0  0  2  0  0  0  0  0  0  0  0  0
   -2.4730    2.7210    0.7110 C   0  0  0  0  0  0  0  0  0  0  0  0
   -2.3150    4.2090    0.8740 C   0  0  0  0  0  0  0  0  0  0  0  0
   -0.8150    4.4640    0.7770 C   0  0  0  0  0  0  0  0  0  0  0  0
   -0.4210    3.3950   -0.2310 C   0  0  0  0  0  0  0  0  0  0  0  0
   -2.1530    0.1230   -0.0930 C   0  0  0  0  0  0  0  0  0  0  0  0
   -2.5930   -3.6240   -0.4750 S   0  0  1  0  0  0  0  0  0  0  0  0
   -2.6810   -4.7980    0.4560 O   0  0  0  0  0  0  0  0  0  0  0  0
   -1.5170   -3.7590   -1.4840 O   0  0  0  0  0  0  0  0  0  0  0  0
  1  2  2  0
  2  3  1  0
  2 28  1  0
  3  4  2  3
  3  7  1  0
  4  5  1  0
  4  6  1  0
  7  8  1  0
  9  8  1  1
 28  8  1  1
  9 10  1  0
  9 27  1  0
 10 11  1  0
 11 12  1  6
 11 20  1  0
 12 13  1  0
 13 14  2  0
 13 15  1  0
 15 16  1  0
 16 17  1  0
 17 18  1  0
 18 19  1  0
 21 20  1  1
 21 22  1  0
 21 27  1  0
 22 23  1  6
 22 26  1  0
 23 24  1  0
 24 25  1  0
 25 26  1  0
 28 29  2  0
 28 30  2  0
M  CHG  1  21   1
M  END
