
     RDKit          3D

 26 28  0  0  0  0  0  0  0  0999 V2000
   -5.5460    0.9090   -3.1660 O   0  0  0  0  0  0  0  0  0  0  0  0
   -5.7130    0.3320   -2.0740 C   0  0  0  0  0  0  0  0  0  0  0  0
   -4.6280    0.1950   -1.0510 C   0  0  0  0  0  0  0  0  0  0  0  0
   -5.3860    0.1190    0.2650 C   0  0  2  0  0  0  0  0  0  0  0  0
   -4.3780   -0.7410    1.4590 S   0  0  0  0  0  0  0  0  0  0  0  0
   -2.9120    0.1180    1.9150 C   0  0  0  0  0  0  0  0  0  0  0  0
   -2.9060    1.0440    2.9110 C   0  0  0  0  0  0  0  0  0  0  0  0
   -1.7810    1.7450    3.2970 C   0  0  0  0  0  0  0  0  0  0  0  0
   -0.6120    1.4990    2.6460 C   0  0  0  0  0  0  0  0  0  0  0  0
   -0.5750    0.5470    1.6100 C   0  0  0  0  0  0  0  0  0  0  0  0
   -1.7110   -0.1450    1.2390 C   0  0  0  0  0  0  0  0  0  0  0  0
   -1.6920   -1.1750    0.2260 C   0  0  0  0  0  0  0  0  0  0  0  0
   -0.7760   -1.4820   -0.6270 C   0  0  0  0  0  0  0  0  0  0  0  0
    0.4590   -0.8550   -0.7720 N   0  0  0  0  0  0  0  0  0  0  0  0
    1.7030   -1.5250   -0.5410 C   0  0  0  0  0  0  0  0  0  0  0  0
    1.6900   -2.7270   -0.1890 O   0  0  0  0  0  0  0  0  0  0  0  0
    2.9480   -0.8410   -0.7050 N   0  0  0  0  0  0  0  0  0  0  0  0
    4.1760   -1.5570   -0.4590 C   0  0  0  0  0  0  0  0  0  0  0  0
    5.3630   -0.6920   -0.6820 C   0  0  0  0  0  0  0  0  0  0  0  0
    5.4380    0.5580   -1.0530 C   0  0  0  0  0  0  0  0  0  0  0  0
    6.8750    0.9700   -1.1340 C   0  0  0  0  0  0  0  0  0  0  0  0
    7.5920   -0.2530   -0.7470 C   0  0  0  0  0  0  0  0  0  0  0  0
    6.7290   -1.2230   -0.4840 C   0  0  0  0  0  0  0  0  0  0  0  0
   -6.5870   -0.6430   -0.1630 C   0  0  0  0  0  0  0  0  0  0  0  0
   -7.2440   -1.4300    0.5250 O   0  0  0  0  0  0  0  0  0  0  0  0
   -6.8550   -0.3020   -1.5250 N   0  0  0  0  0  0  0  0  0  0  0  0
  1  2  2  0
  2  3  1  0
  2 26  1  0
  3  4  1  0
  4  5  1  1
  4 24  1  0
  5  6  1  0
  6  7  2  0
  6 11  1  0
  7  8  1  0
  8  9  2  0
  9 10  1  0
 10 11  2  0
 11 12  1  0
 12 13  2  3
 13 14  1  0
 14 15  1  0
 15 16  2  0
 15 17  1  0
 17 18  1  0
 18 19  1  0
 19 20  2  0
 19 23  1  0
 20 21  1  0
 21 22  1  0
 22 23  2  0
 24 25  2  0
 24 26  1  0
M  END
