
     RDKit          3D

 16 17  0  0  0  0  0  0  0  0999 V2000
    3.7190   -0.9720    0.4970 N   0  0  0  0  0  0  0  0  0  0  0  0
    2.7140   -0.1700   -0.0970 C   0  0  0  0  0  0  0  0  0  0  0  0
    2.9930    0.5800   -1.0750 O   0  0  0  0  0  0  0  0  0  0  0  0
    1.3420   -0.2440    0.4670 C   0  0  2  0  0  0  0  0  0  0  0  0
    1.3540   -1.1420    1.5160 O   0  0  0  0  0  0  0  0  0  0  0  0
    0.3230   -0.6390   -0.5760 C   0  0  0  0  0  0  0  0  0  0  0  0
   -0.7640    0.3490   -0.3510 C   0  0  2  0  0  0  0  0  0  0  0  0
   -1.7850   -0.0410    0.6620 C   0  0  0  0  0  0  0  0  0  0  0  0
   -2.5250   -1.3010    0.3500 C   0  0  0  0  0  0  0  0  0  0  0  0
   -3.4370   -1.5180    1.3940 O   0  0  0  0  0  0  0  0  0  0  0  0
   -1.3820    0.7970   -1.5270 O   0  0  0  0  0  0  0  0  0  0  0  0
   -0.6720    1.8980   -1.9920 C   0  0  0  0  0  0  0  0  0  0  0  0
   -0.9480    2.5610   -3.0500 O   0  0  0  0  0  0  0  0  0  0  0  0
    0.4050    2.1610   -1.0970 N   0  0  0  0  0  0  0  0  0  0  0  0
    0.0110    1.5470    0.1530 C   0  0  2  0  0  0  0  0  0  0  0  0
    1.0330    1.0460    0.8900 O   0  0  0  0  0  0  0  0  0  0  0  0
  1  2  1  0
  2  3  2  0
  2  4  1  0
  4  5  1  1
  4  6  1  0
  4 16  1  0
  6  7  1  0
  7  8  1  1
  7 11  1  0
  7 15  1  0
  8  9  1  0
  9 10  1  0
 11 12  1  0
 12 13  2  0
 12 14  1  0
 15 14  1  6
 15 16  1  0
M  END
