
     RDKit          3D

 26 28  0  0  0  0  0  0  0  0999 V2000
   -2.5630   -1.6510   -2.1000 C   0  0  0  0  0  0  0  0  0  0  0  0
   -2.2980   -2.5580   -0.9540 C   0  0  0  0  0  0  0  0  0  0  0  0
   -1.7680   -1.8970    0.2910 C   0  0  1  0  0  0  0  0  0  0  0  0
   -1.5960   -3.0550    1.2870 C   0  0  0  0  0  0  0  0  0  0  0  0
   -0.4830   -1.2750    0.0930 N   0  0  0  0  0  0  0  0  0  0  0  0
    0.2260   -0.6000    1.1140 C   0  0  0  0  0  0  0  0  0  0  0  0
   -0.3500   -0.5710    2.2520 O   0  0  0  0  0  0  0  0  0  0  0  0
    1.5310    0.0560    0.9960 C   0  0  0  0  0  0  0  0  0  0  0  0
    2.1620    0.0190   -0.2700 N   0  0  0  0  0  0  0  0  0  0  0  0
    3.4240    0.6270   -0.4710 C   0  0  0  0  0  0  0  0  0  0  0  0
    4.0260    1.2580    0.5930 C   0  0  0  0  0  0  0  0  0  0  0  0
    5.2570    1.8490    0.3910 C   0  0  0  0  0  0  0  0  0  0  0  0
    5.8970    1.8270   -0.8410 C   0  0  0  0  0  0  0  0  0  0  0  0
    7.1370    2.4400   -0.9880 O   0  0  0  0  0  0  0  0  0  0  0  0
    5.2940    1.1980   -1.8980 C   0  0  0  0  0  0  0  0  0  0  0  0
    4.0520    0.6020   -1.6930 C   0  0  0  0  0  0  0  0  0  0  0  0
   -2.7660   -0.9650    0.8760 N   0  0  0  0  0  0  0  0  0  0  0  0
   -3.6160   -1.5080    1.7730 C   0  0  0  0  0  0  0  0  0  0  0  0
   -3.7860   -2.6290    2.2350 O   0  0  0  0  0  0  0  0  0  0  0  0
   -4.6820   -0.0910    2.3080 S   0  0  0  0  0  0  0  0  0  0  0  0
   -3.8170    1.0880    1.2150 C   0  0  0  0  0  0  0  0  0  0  0  0
   -4.0470    2.4370    1.0200 C   0  0  0  0  0  0  0  0  0  0  0  0
   -3.2520    3.1270    0.1070 C   0  0  0  0  0  0  0  0  0  0  0  0
   -2.2870    2.4070   -0.5400 C   0  0  0  0  0  0  0  0  0  0  0  0
   -2.0930    1.0740   -0.3170 C   0  0  0  0  0  0  0  0  0  0  0  0
   -2.8800    0.3240    0.6100 C   0  0  0  0  0  0  0  0  0  0  0  0
  1  2  1  0
  2  3  1  0
  3  4  1  1
  3  5  1  0
  3 17  1  0
  5  6  1  0
  6  7  2  0
  6  8  1  0
  8  9  1  0
  9 10  1  0
 10 11  2  0
 10 16  1  0
 11 12  1  0
 12 13  2  0
 13 14  1  0
 13 15  1  0
 15 16  2  0
 17 18  1  0
 17 26  1  0
 18 19  2  0
 18 20  1  0
 20 21  1  0
 21 22  2  0
 21 26  1  0
 22 23  1  0
 23 24  2  0
 24 25  1  0
 25 26  2  0
M  END
