
     RDKit          3D

 26 28  0  0  0  0  0  0  0  0999 V2000
    6.1570   -2.8840    1.7670 C   0  0  0  0  0  0  0  0  0  0  0  0
    5.1590   -1.9100    1.3710 C   0  0  0  0  0  0  0  0  0  0  0  0
    3.8290   -1.7850    1.5290 C   0  0  0  0  0  0  0  0  0  0  0  0
    3.1810   -0.7150    1.0160 C   0  0  0  0  0  0  0  0  0  0  0  0
    3.8210    0.2350    0.3470 C   0  0  0  0  0  0  0  0  0  0  0  0
    3.5750    1.4880   -0.2720 C   0  0  0  0  0  0  0  0  0  0  0  0
    4.6280    2.3970   -0.4060 C   0  0  0  0  0  0  0  0  0  0  0  0
    4.4940    3.6410   -0.9790 C   0  0  0  0  0  0  0  0  0  0  0  0
    3.2610    4.0080   -1.4450 C   0  0  0  0  0  0  0  0  0  0  0  0
    2.1910    3.1270   -1.3300 C   0  0  0  0  0  0  0  0  0  0  0  0
    2.3360    1.8590   -0.7460 C   0  0  0  0  0  0  0  0  0  0  0  0
    1.3070    0.9090   -0.7690 N   0  0  0  0  0  0  0  0  0  0  0  0
   -0.0540    1.2570   -0.8820 C   0  0  0  0  0  0  0  0  0  0  0  0
   -0.4930    2.4320   -0.9650 O   0  0  0  0  0  0  0  0  0  0  0  0
   -1.0750    0.1720   -0.9090 C   0  0  0  0  0  0  0  0  0  0  0  0
   -2.4390    0.3060   -1.0140 C   0  0  0  0  0  0  0  0  0  0  0  0
   -3.0170   -0.9700   -1.0000 C   0  0  0  0  0  0  0  0  0  0  0  0
   -4.4500   -1.2560   -1.0920 C   0  0  0  0  0  0  0  0  0  0  0  0
   -5.1390   -1.3130    0.2410 C   0  0  2  0  0  0  0  0  0  0  0  0
   -4.5610   -2.3850    1.1370 C   0  0  0  0  0  0  0  0  0  0  0  0
   -6.4790   -1.6490    0.0280 O   0  0  0  0  0  0  0  0  0  0  0  0
   -5.1190   -0.0000    0.9720 C   0  0  0  0  0  0  0  0  0  0  0  0
   -5.7230    1.0230    0.2830 O   0  0  0  0  0  0  0  0  0  0  0  0
   -1.9820   -1.8110   -0.8870 N   0  0  0  0  0  0  0  0  0  0  0  0
   -0.8200   -1.1400   -0.8320 N   0  0  0  0  0  0  0  0  0  0  0  0
    5.5860   -0.3790    0.4010 S   0  0  0  0  0  0  0  0  0  0  0  0
  1  2  1  0
  2  3  2  0
  2 26  1  0
  3  4  1  0
  4  5  2  0
  5  6  1  0
  5 26  1  0
  6  7  2  0
  6 11  1  0
  7  8  1  0
  8  9  2  0
  9 10  1  0
 10 11  2  0
 11 12  1  0
 12 13  1  0
 13 14  2  0
 13 15  1  0
 15 16  1  0
 15 25  2  0
 16 17  2  0
 17 18  1  0
 17 24  1  0
 18 19  1  0
 19 20  1  1
 19 21  1  0
 19 22  1  0
 22 23  1  0
 24 25  1  0
M  END
