
     RDKit          3D

 16 17  0  0  0  0  0  0  0  0999 V2000
    2.9280    1.7360   -1.1740 N   0  0  0  0  0  0  0  0  0  0  0  0
    2.2100    0.6170   -1.0990 O   0  0  0  0  0  0  0  0  0  0  0  0
    1.9880    0.2180    0.1940 C   0  0  2  0  0  0  0  0  0  0  0  0
    2.7140   -1.0240    0.4370 N   0  0  0  0  0  0  0  0  0  0  0  0
    1.9720   -2.1180    0.9580 C   0  0  0  0  0  0  0  0  0  0  0  0
    2.5720   -2.9840    1.6490 O   0  0  0  0  0  0  0  0  0  0  0  0
    0.6140   -2.1670    0.6700 O   0  0  0  0  0  0  0  0  0  0  0  0
    0.0420   -0.9840    0.1630 C   0  0  1  0  0  0  0  0  0  0  0  0
    0.0320   -0.9840   -1.3710 C   0  0  0  0  0  0  0  0  0  0  0  0
   -0.3150    0.2680   -1.7690 O   0  0  0  0  0  0  0  0  0  0  0  0
   -1.4010    0.8400   -1.1900 C   0  0  0  0  0  0  0  0  0  0  0  0
   -2.1690    0.0670   -0.2060 C   0  0  2  0  0  0  0  0  0  0  0  0
   -2.8040    0.9670    0.8680 C   0  0  0  0  0  0  0  0  0  0  0  0
   -1.8340    1.6720    1.5630 O   0  0  0  0  0  0  0  0  0  0  0  0
   -1.4220   -0.9970    0.5310 C   0  0  0  0  0  0  0  0  0  0  0  0
    0.6830    0.1580    0.5710 O   0  0  0  0  0  0  0  0  0  0  0  0
  1  2  1  0
  3  2  1  6
  3  4  1  0
  3 16  1  0
  4  5  1  0
  5  6  2  0
  5  7  1  0
  7  8  1  0
  8  9  1  6
  8 15  1  0
  8 16  1  0
  9 10  1  0
 10 11  1  0
 11 12  1  0
 12 13  1  1
 12 15  1  0
 13 14  1  0
M  END
