
     RDKit          3D

 26 28  0  0  0  0  0  0  0  0999 V2000
   -4.6950    1.9270    0.5340 C   0  0  0  0  0  0  0  0  0  0  0  0
   -3.3620    1.5050    0.7390 O   0  0  0  0  0  0  0  0  0  0  0  0
   -3.0860    0.1490    0.6720 C   0  0  0  0  0  0  0  0  0  0  0  0
   -4.0730   -0.7660    0.4140 C   0  0  0  0  0  0  0  0  0  0  0  0
   -3.7930   -2.1200    0.3490 C   0  0  0  0  0  0  0  0  0  0  0  0
   -4.7960   -3.0890    0.0820 N   0  0  0  0  0  0  0  0  0  0  0  0
   -2.4720   -2.4900    0.5580 C   0  0  0  0  0  0  0  0  0  0  0  0
   -2.1550   -3.9490    0.4910 C   0  0  0  0  0  0  0  0  0  0  0  0
   -1.5250   -1.5730    0.8080 N   0  0  0  0  0  0  0  0  0  0  0  0
   -1.7650   -0.2530    0.8770 C   0  0  0  0  0  0  0  0  0  0  0  0
   -0.7010    0.7490    1.1540 C   0  0  0  0  0  0  0  0  0  0  0  0
   -0.3290    1.4190   -0.1340 C   0  0  0  0  0  0  0  0  0  0  0  0
    0.6860    2.4100   -0.0110 N   0  0  0  0  0  0  0  0  0  0  0  0
    0.3660    3.8200    0.2250 C   0  0  0  0  0  0  0  0  0  0  0  0
    0.1900    4.5570   -1.0860 C   0  0  0  0  0  0  0  0  0  0  0  0
   -0.1140    5.8980   -0.8640 O   0  0  0  0  0  0  0  0  0  0  0  0
    2.0470    2.0830   -0.1140 C   0  0  0  0  0  0  0  0  0  0  0  0
    2.9060    3.0410    0.0100 O   0  0  0  0  0  0  0  0  0  0  0  0
    2.6270    0.7900   -0.3450 C   0  0  0  0  0  0  0  0  0  0  0  0
    3.9360    0.4160   -0.4350 C   0  0  0  0  0  0  0  0  0  0  0  0
    4.2180   -0.8820   -0.6670 C   0  0  0  0  0  0  0  0  0  0  0  0
    3.2540   -1.7810   -0.8070 C   0  0  0  0  0  0  0  0  0  0  0  0
    1.7780   -0.7690   -0.6010 S   0  0  0  0  0  0  0  0  0  0  0  0
    3.6690   -3.1530   -1.0550 C   0  0  0  0  0  0  0  0  0  0  0  0
    5.1380   -3.1140   -0.6900 C   0  0  0  0  0  0  0  0  0  0  0  0
    5.5290   -1.6660   -0.8150 C   0  0  0  0  0  0  0  0  0  0  0  0
  1  2  1  0
  2  3  1  0
  3  4  2  0
  3 10  1  0
  4  5  1  0
  5  6  1  0
  5  7  2  0
  7  8  1  0
  7  9  1  0
  9 10  2  0
 10 11  1  0
 11 12  1  0
 12 13  1  0
 13 14  1  0
 13 17  1  0
 14 15  1  0
 15 16  1  0
 17 18  2  0
 17 19  1  0
 19 20  2  0
 19 23  1  0
 20 21  1  0
 21 22  2  0
 21 26  1  0
 22 23  1  0
 22 24  1  0
 24 25  1  0
 25 26  1  0
M  END
