
     RDKit          3D

  9  9  0  0  0  0  0  0  0  0999 V2000
   -2.7590   -0.2290   -0.5100 C   0  0  0  0  0  0  0  0  0  0  0  0
   -1.7970   -0.2410    0.6790 C   0  0  0  0  0  0  0  0  0  0  0  0
   -0.4190   -0.4690    0.1680 C   0  0  0  0  0  0  0  0  0  0  0  0
    0.6640    0.2580    0.2480 C   0  0  0  0  0  0  0  0  0  0  0  0
    0.6710    1.5850    0.9510 C   0  0  0  0  0  0  0  0  0  0  0  0
    1.0320    2.6130    0.0810 O   0  0  0  0  0  0  0  0  0  0  0  0
    1.8670   -0.2620   -0.3710 C   0  0  0  0  0  0  0  0  0  0  0  0
    1.8090   -1.6960   -0.6810 C   0  0  0  0  0  0  0  0  0  0  0  0
   -0.0060   -1.9750   -0.7450 S   0  0  0  0  0  0  0  0  0  0  0  0
  1  2  1  0
  2  3  1  0
  3  4  2  0
  3  9  1  0
  4  5  1  0
  4  7  1  0
  5  6  1  0
  7  8  1  0
  8  9  1  0
M  END
