
     RDKit          3D

  9  9  0  0  0  0  0  0  0  0999 V2000
   -2.8400   -0.9960    0.5640 O   0  0  0  0  0  0  0  0  0  0  0  0
   -1.7040   -0.3160    0.1470 C   0  0  1  0  0  0  0  0  0  0  0  0
   -0.7850    0.0190    1.2770 C   0  0  0  0  0  0  0  0  0  0  0  0
    0.3980    0.7840    0.7560 C   0  0  0  0  0  0  0  0  0  0  0  0
    1.0000    0.1220   -0.4430 C   0  0  0  0  0  0  0  0  0  0  0  0
    2.2950   -0.1080   -0.5480 C   0  0  0  0  0  0  0  0  0  0  0  0
    3.4280    0.3520    0.7320 S   0  0  0  0  0  0  0  0  0  0  0  0
    0.0480   -0.2670   -1.5240 C   0  0  0  0  0  0  0  0  0  0  0  0
   -0.9860   -1.1770   -0.8500 C   0  0  0  0  0  0  0  0  0  0  0  0
  2  1  1  1
  2  3  1  0
  2  9  1  0
  3  4  1  0
  4  5  1  0
  5  6  2  3
  5  8  1  0
  6  7  1  0
  8  9  1  0
M  END
