
     RDKit          3D

  9  9  0  0  0  0  0  0  0  0999 V2000
   -3.1460   -0.5780    0.5940 C   0  0  0  0  0  0  0  0  0  0  0  0
   -1.9280    0.0540   -0.0680 C   0  0  0  0  0  0  0  0  0  0  0  0
   -0.7960   -0.5190    0.5040 O   0  0  0  0  0  0  0  0  0  0  0  0
    0.5090   -0.2350    0.1960 C   0  0  0  0  0  0  0  0  0  0  0  0
    1.4030   -1.2170    0.0080 C   0  0  0  0  0  0  0  0  0  0  0  0
    2.7150   -0.6040   -0.3080 C   0  0  0  0  0  0  0  0  0  0  0  0
    2.4350    0.8470   -0.2720 C   0  0  0  0  0  0  0  0  0  0  0  0
    1.1690    1.0470    0.0180 C   0  0  0  0  0  0  0  0  0  0  0  0
    0.5420    2.2690    0.1390 O   0  0  0  0  0  0  0  0  0  0  0  0
  1  2  1  0
  2  3  1  0
  3  4  1  0
  4  5  2  0
  4  8  1  0
  5  6  1  0
  6  7  1  0
  7  8  2  0
  8  9  1  0
M  END
