
     RDKit          3D

  9  8  0  0  0  0  0  0  0  0999 V2000
   -1.7600   -1.0640    0.9570 C   0  0  0  0  0  0  0  0  0  0  0  0
   -1.7270   -0.0540   -0.0820 C   0  0  0  0  0  0  0  0  0  0  0  0
   -3.0390    0.3820   -0.6600 C   0  0  0  0  0  0  0  0  0  0  0  0
   -0.6310    0.4820   -0.5280 C   0  0  0  0  0  0  0  0  0  0  0  0
    0.7270    0.2320   -0.1380 C   0  0  0  0  0  0  0  0  0  0  0  0
    1.0440   -0.9610    1.1240 S   0  0  0  0  0  0  0  0  0  0  0  0
    1.7290    0.8520   -0.6810 C   0  0  0  0  0  0  0  0  0  0  0  0
    3.1330    0.6020   -0.2870 C   0  0  0  0  0  0  0  0  0  0  0  0
    3.2620   -0.3550    0.7140 O   0  0  0  0  0  0  0  0  0  0  0  0
  1  2  1  0
  2  3  1  0
  2  4  2  3
  4  5  1  0
  5  6  1  0
  5  7  2  3
  7  8  1  0
  8  9  1  0
M  END
