
     RDKit          3D

  9  9  0  0  0  0  0  0  0  0999 V2000
   -2.1820    1.1980   -0.9010 O   0  0  0  0  0  0  0  0  0  0  0  0
   -2.2000   -0.1710   -0.6920 C   0  0  0  0  0  0  0  0  0  0  0  0
   -1.3920   -0.5910    0.5000 C   0  0  0  0  0  0  0  0  0  0  0  0
    0.0400   -0.2590    0.4000 C   0  0  0  0  0  0  0  0  0  0  0  0
    0.5860    0.3370   -0.6410 C   0  0  0  0  0  0  0  0  0  0  0  0
    2.0270    0.6790   -0.7550 C   0  0  0  0  0  0  0  0  0  0  0  0
    2.7550    0.2990    0.3640 O   0  0  0  0  0  0  0  0  0  0  0  0
    2.2490   -0.3270    1.4860 C   0  0  0  0  0  0  0  0  0  0  0  0
    0.9620   -0.5950    1.5100 C   0  0  0  0  0  0  0  0  0  0  0  0
  1  2  1  0
  2  3  1  0
  3  4  1  0
  4  5  2  0
  4  9  1  0
  5  6  1  0
  6  7  1  0
  7  8  1  0
  8  9  2  0
M  END
