
     RDKit          3D

  9  9  0  0  0  0  0  0  0  0999 V2000
    2.5580   -0.9330    0.2790 O   0  0  0  0  0  0  0  0  0  0  0  0
    1.2520   -0.5220    0.3550 C   0  0  2  0  0  0  0  0  0  0  0  0
    0.3300   -1.3490   -0.5380 C   0  0  0  0  0  0  0  0  0  0  0  0
   -1.0710   -1.3120   -0.0090 C   0  0  0  0  0  0  0  0  0  0  0  0
   -1.8260   -0.0710   -0.3670 C   0  0  0  0  0  0  0  0  0  0  0  0
   -1.3960    1.1470    0.3860 C   0  0  0  0  0  0  0  0  0  0  0  0
   -0.0390    1.6050   -0.0320 C   0  0  0  0  0  0  0  0  0  0  0  0
    1.0720    0.8930   -0.0410 C   0  0  0  0  0  0  0  0  0  0  0  0
    2.5360    1.7450   -0.6010 S   0  0  0  0  0  0  0  0  0  0  0  0
  2  1  1  6
  2  3  1  0
  2  8  1  0
  3  4  1  0
  4  5  1  0
  5  6  1  0
  6  7  1  0
  7  8  2  0
  8  9  1  0
M  END
