
     RDKit          3D

  9  9  0  0  0  0  0  0  0  0999 V2000
   -3.0340    0.5030    0.1110 C   0  0  0  0  0  0  0  0  0  0  0  0
   -1.5460    0.6410    0.2170 C   0  0  0  0  0  0  0  0  0  0  0  0
   -0.8910   -0.6320    0.2180 O   0  0  0  0  0  0  0  0  0  0  0  0
    0.5140   -0.5630    0.3160 C   0  0  0  0  0  0  0  0  0  0  0  0
    1.2400   -0.4300    1.4030 C   0  0  0  0  0  0  0  0  0  0  0  0
    2.6600   -0.4010    1.0730 C   0  0  0  0  0  0  0  0  0  0  0  0
    3.9610   -0.2540    2.0460 S   0  0  0  0  0  0  0  0  0  0  0  0
    2.7060   -0.5360   -0.3800 C   0  0  0  0  0  0  0  0  0  0  0  0
    1.4470   -0.6290   -0.8000 C   0  0  0  0  0  0  0  0  0  0  0  0
  1  2  1  0
  2  3  1  0
  3  4  1  0
  4  5  2  0
  4  9  1  0
  5  6  1  0
  6  7  2  0
  6  8  1  0
  8  9  2  0
M  END
