
     RDKit          3D

  9  8  0  0  0  0  0  0  0  0999 V2000
   -4.8510    0.5580   -0.1840 O   0  0  0  0  0  0  0  0  0  0  0  0
   -3.4920    0.6940    0.1700 C   0  0  0  0  0  0  0  0  0  0  0  0
   -2.7710   -0.4960   -0.4160 C   0  0  0  0  0  0  0  0  0  0  0  0
   -1.3560   -0.3530   -0.0460 C   0  0  0  0  0  0  0  0  0  0  0  0
   -0.1840   -0.2480    0.2630 C   0  0  0  0  0  0  0  0  0  0  0  0
    1.2250   -0.1000    0.6270 C   0  0  0  0  0  0  0  0  0  0  0  0
    2.0700   -0.4530   -0.5670 C   0  0  0  0  0  0  0  0  0  0  0  0
    3.5290   -0.2890   -0.1530 C   0  0  0  0  0  0  0  0  0  0  0  0
    3.7720    1.4400    0.3410 S   0  0  0  0  0  0  0  0  0  0  0  0
  1  2  1  0
  2  3  1  0
  3  4  1  0
  4  5  3  0
  5  6  1  0
  6  7  1  0
  7  8  1  0
  8  9  1  0
M  END
