
     RDKit          3D

 30 34  0  0  0  0  0  0  0  0999 V2000
    4.6990    3.8250    0.5570 C   0  0  0  0  0  0  0  0  0  0  0  0
    4.2990    2.4100    0.3950 C   0  0  0  0  0  0  0  0  0  0  0  0
    2.9640    2.0430    0.5990 C   0  0  0  0  0  0  0  0  0  0  0  0
    2.6080    0.7270    0.4450 C   0  0  0  0  0  0  0  0  0  0  0  0
    3.4950   -0.2640    0.0980 C   0  0  0  0  0  0  0  0  0  0  0  0
    4.8200    0.1110   -0.1030 C   0  0  0  0  0  0  0  0  0  0  0  0
    5.2040    1.4450    0.0490 C   0  0  0  0  0  0  0  0  0  0  0  0
    6.5700    1.7350   -0.1810 N   0  0  0  0  0  0  0  0  0  0  0  0
    3.0490   -1.5890   -0.0410 N   0  0  0  0  0  0  0  0  0  0  0  0
    1.7160   -2.0710   -0.0230 C   0  0  2  0  0  0  0  0  0  0  0  0
    1.2290   -2.6780   -1.3040 C   0  0  0  0  0  0  0  0  0  0  0  0
    0.1020   -3.6540   -0.9650 C   0  0  0  0  0  0  0  0  0  0  0  0
   -0.8200   -3.1140    0.4330 S   0  0  2  0  0  0  0  0  0  0  0  0
   -0.2920   -3.8590    1.6530 O   0  0  0  0  0  0  0  0  0  0  0  0
   -2.2710   -3.3890    0.3460 O   0  0  0  0  0  0  0  0  0  0  0  0
   -0.4830   -1.3980    0.7540 C   0  0  0  0  0  0  0  0  0  0  0  0
   -1.4710   -0.5100    1.3200 C   0  0  0  0  0  0  0  0  0  0  0  0
   -2.5960   -0.1130    0.4210 C   0  0  0  0  0  0  0  0  0  0  0  0
   -3.6430    0.5490    1.0300 C   0  0  0  0  0  0  0  0  0  0  0  0
   -4.7510    0.9810    0.3340 C   0  0  0  0  0  0  0  0  0  0  0  0
   -4.8120    0.7420   -1.0130 C   0  0  0  0  0  0  0  0  0  0  0  0
   -3.7640    0.0780   -1.6280 C   0  0  0  0  0  0  0  0  0  0  0  0
   -2.6440   -0.3560   -0.9100 C   0  0  0  0  0  0  0  0  0  0  0  0
   -1.6140   -1.0090   -1.5270 O   0  0  0  0  0  0  0  0  0  0  0  0
   -6.0940    1.3110   -1.5000 C   0  0  0  0  0  0  0  0  0  0  0  0
   -6.8540    1.6220   -0.2390 C   0  0  0  0  0  0  0  0  0  0  0  0
   -5.8860    1.6510    0.7530 O   0  0  0  0  0  0  0  0  0  0  0  0
    0.7570   -1.0260    0.4940 C   0  0  0  0  0  0  0  0  0  0  0  0
    1.1960    0.3260    0.6470 C   0  0  0  0  0  0  0  0  0  0  0  0
    0.3920    1.2180    0.9590 O   0  0  0  0  0  0  0  0  0  0  0  0
  1  2  1  0
  2  3  2  0
  2  7  1  0
  3  4  1  0
  4  5  2  0
  4 29  1  0
  5  6  1  0
  5  9  1  0
  6  7  2  0
  7  8  1  0
  9 10  1  0
 10 11  1  6
 10 28  1  0
 11 12  1  0
 13 12  1  6
 13 14  2  0
 13 15  2  0
 13 16  1  0
 16 17  1  0
 16 28  2  0
 17 18  1  0
 18 19  2  0
 18 23  1  0
 19 20  1  0
 20 21  2  0
 20 27  1  0
 21 22  1  0
 21 25  1  0
 22 23  2  0
 23 24  1  0
 25 26  1  0
 26 27  1  0
 28 29  1  0
 29 30  2  0
M  END
