
     RDKit          3D

 31 34  0  0  0  0  0  0  0  0999 V2000
   -0.4050   -2.5420    1.3030 O   0  0  0  0  0  0  0  0  0  0  0  0
   -0.7870   -1.3360    1.5480 C   0  0  0  0  0  0  0  0  0  0  0  0
   -0.0020   -0.6610    2.4920 N   0  0  0  0  0  0  0  0  0  0  0  0
    1.1650   -1.3040    3.1290 C   0  0  0  0  0  0  0  0  0  0  0  0
    2.3330   -1.3380    2.2320 C   0  0  0  0  0  0  0  0  0  0  0  0
    2.7060   -2.5040    1.6030 C   0  0  0  0  0  0  0  0  0  0  0  0
    3.7970   -2.5060    0.7660 C   0  0  0  0  0  0  0  0  0  0  0  0
    4.5380   -1.3360    0.5420 C   0  0  0  0  0  0  0  0  0  0  0  0
    5.9170   -1.4600   -0.5510 S   0  0  0  0  0  0  0  0  0  0  0  0
    6.8000    0.0550   -0.7980 C   0  0  0  0  0  0  0  0  0  0  0  0
    7.8800    0.0480   -1.6280 N   0  0  0  0  0  0  0  0  0  0  0  0
    8.6030    1.1320   -1.8750 C   0  0  0  0  0  0  0  0  0  0  0  0
    8.2920    2.3410   -1.2960 C   0  0  0  0  0  0  0  0  0  0  0  0
    7.2060    2.3650   -0.4560 C   0  0  0  0  0  0  0  0  0  0  0  0
    6.5060    1.2270   -0.2410 N   0  0  0  0  0  0  0  0  0  0  0  0
    4.1290   -0.2110    1.1880 C   0  0  0  0  0  0  0  0  0  0  0  0
    3.0460   -0.1530    2.0350 C   0  0  0  0  0  0  0  0  0  0  0  0
   -1.9460   -0.7940    0.8640 C   0  0  0  0  0  0  0  0  0  0  0  0
   -2.7180   -1.6690    0.0960 C   0  0  0  0  0  0  0  0  0  0  0  0
   -3.8370   -1.2070   -0.5660 C   0  0  0  0  0  0  0  0  0  0  0  0
   -4.2450    0.1030   -0.5100 C   0  0  0  0  0  0  0  0  0  0  0  0
   -5.4460    0.6200   -1.2080 C   0  0  0  0  0  0  0  0  0  0  0  0
   -6.2230   -0.1390   -1.9240 C   0  0  0  0  0  0  0  0  0  0  0  0
   -7.3970    0.3700   -2.6060 C   0  0  0  0  0  0  0  0  0  0  0  0
   -8.2110   -0.4880   -3.3700 O   0  0  0  0  0  0  0  0  0  0  0  0
   -7.6760    1.6580   -2.4880 C   0  0  0  0  0  0  0  0  0  0  0  0
   -6.8410    2.4690   -1.7210 O   0  0  0  0  0  0  0  0  0  0  0  0
   -5.7030    2.0580   -1.0440 C   0  0  0  0  0  0  0  0  0  0  0  0
   -3.4970    0.9310    0.2280 N   0  0  0  0  0  0  0  0  0  0  0  0
   -2.3850    0.4970    0.8930 C   0  0  0  0  0  0  0  0  0  0  0  0
   -1.7450    1.3460    1.5610 O   0  0  0  0  0  0  0  0  0  0  0  0
  1  2  2  0
  2  3  1  0
  2 18  1  0
  3  4  1  0
  4  5  1  0
  5  6  2  0
  5 17  1  0
  6  7  1  0
  7  8  2  0
  8  9  1  0
  8 16  1  0
  9 10  1  0
 10 11  2  0
 10 15  1  0
 11 12  1  0
 12 13  2  0
 13 14  1  0
 14 15  2  0
 16 17  2  0
 18 19  2  0
 18 30  1  0
 19 20  1  0
 20 21  2  0
 21 22  1  0
 21 29  1  0
 22 23  2  0
 22 28  1  0
 23 24  1  0
 24 25  1  0
 24 26  2  0
 26 27  1  0
 27 28  1  0
 29 30  1  0
 30 31  2  0
M  END
