
     RDKit          3D

 30 33  0  0  0  0  0  0  0  0999 V2000
    7.1010    0.7460    0.1250 N   0  0  0  0  0  0  0  0  0  0  0  0
    5.7410    0.8630    0.5690 C   0  0  0  0  0  0  0  0  0  0  0  0
    4.8660   -0.1820    0.4320 C   0  0  0  0  0  0  0  0  0  0  0  0
    3.5780   -0.0470    0.8610 C   0  0  0  0  0  0  0  0  0  0  0  0
    2.6190   -1.1640    0.7210 C   0  0  1  0  0  0  0  0  0  0  0  0
    1.8840   -1.3440    1.8730 O   0  0  0  0  0  0  0  0  0  0  0  0
    1.6560   -0.8940   -0.3940 C   0  0  0  0  0  0  0  0  0  0  0  0
    1.8910    0.1200   -1.2960 C   0  0  0  0  0  0  0  0  0  0  0  0
    1.0200    0.3860   -2.3290 C   0  0  0  0  0  0  0  0  0  0  0  0
   -0.1420   -0.3680   -2.5010 C   0  0  0  0  0  0  0  0  0  0  0  0
   -1.0370   -0.1130   -3.6150 C   0  0  0  0  0  0  0  0  0  0  0  0
   -2.0290   -0.8130   -3.9150 O   0  0  0  0  0  0  0  0  0  0  0  0
   -0.3700   -1.3690   -1.6040 C   0  0  0  0  0  0  0  0  0  0  0  0
   -1.8440   -2.3750   -1.7640 S   0  0  0  0  0  0  0  0  0  0  0  0
   -3.0660   -1.7030   -0.6760 C   0  0  0  0  0  0  0  0  0  0  0  0
   -3.1190   -2.1520    0.6180 C   0  0  0  0  0  0  0  0  0  0  0  0
   -4.0450   -1.6710    1.5040 C   0  0  0  0  0  0  0  0  0  0  0  0
   -4.9230   -0.7190    1.0450 C   0  0  0  0  0  0  0  0  0  0  0  0
   -4.8880   -0.2590   -0.2360 C   0  0  0  0  0  0  0  0  0  0  0  0
   -3.9420   -0.7600   -1.1160 C   0  0  0  0  0  0  0  0  0  0  0  0
   -5.8200    0.7320   -0.6660 N   0  0  0  0  0  0  0  0  0  0  0  0
   -6.7610    1.2020    0.2820 C   0  0  0  0  0  0  0  0  0  0  0  0
   -7.7180    1.9180   -0.1080 O   0  0  0  0  0  0  0  0  0  0  0  0
   -6.6720    0.8900    1.7210 C   0  0  0  0  0  0  0  0  0  0  0  0
   -5.8620   -0.2310    1.9430 O   0  0  0  0  0  0  0  0  0  0  0  0
    0.5180   -1.6410   -0.5520 C   0  0  0  0  0  0  0  0  0  0  0  0
    3.1750    1.1340    1.4260 C   0  0  0  0  0  0  0  0  0  0  0  0
    4.0740    2.1660    1.5520 C   0  0  0  0  0  0  0  0  0  0  0  0
    5.3820    2.0740    1.1330 C   0  0  0  0  0  0  0  0  0  0  0  0
    6.2430    3.1380    1.2810 O   0  0  0  0  0  0  0  0  0  0  0  0
  1  2  1  0
  2  3  2  0
  2 29  1  0
  3  4  1  0
  4  5  1  0
  4 27  2  0
  5  6  1  1
  5  7  1  0
  7  8  2  0
  7 26  1  0
  8  9  1  0
  9 10  2  0
 10 11  1  0
 10 13  1  0
 11 12  2  0
 13 14  1  0
 13 26  2  0
 14 15  1  0
 15 16  2  0
 15 20  1  0
 16 17  1  0
 17 18  2  0
 18 19  1  0
 18 25  1  0
 19 20  2  0
 19 21  1  0
 21 22  1  0
 22 23  2  0
 22 24  1  0
 24 25  1  0
 27 28  1  0
 28 29  2  0
 29 30  1  0
M  END
