
     RDKit          3D

 30 33  0  0  0  0  0  0  0  0999 V2000
    6.9300   -1.4880   -0.5570 C   0  0  0  0  0  0  0  0  0  0  0  0
    5.5570   -1.1630   -0.0730 C   0  0  0  0  0  0  0  0  0  0  0  0
    4.4810   -1.9700   -0.3680 C   0  0  0  0  0  0  0  0  0  0  0  0
    3.2020   -1.6670    0.0890 C   0  0  0  0  0  0  0  0  0  0  0  0
    2.9220   -0.5580    0.8550 C   0  0  0  0  0  0  0  0  0  0  0  0
    1.6280   -0.1840    1.3450 C   0  0  0  0  0  0  0  0  0  0  0  0
    1.2320    0.3100    2.3280 O   0  0  0  0  0  0  0  0  0  0  0  0
    0.3710   -0.5470    0.2090 N   0  0  0  0  0  0  0  0  0  0  0  0
   -0.6690   -0.0740    0.9650 C   0  0  0  0  0  0  0  0  0  0  0  0
   -0.8220    0.4630    2.0330 O   0  0  0  0  0  0  0  0  0  0  0  0
   -1.9560   -0.3250    0.1970 N   0  0  0  0  0  0  0  0  0  0  0  0
   -3.1660    0.0860    0.7910 C   0  0  2  0  0  0  0  0  0  0  0  0
   -3.8540   -1.2000    1.3060 C   0  0  0  0  0  0  0  0  0  0  0  0
   -4.1090   -2.0620    0.1140 C   0  0  0  0  0  0  0  0  0  0  0  0
   -5.1700   -1.4540   -0.7330 C   0  0  0  0  0  0  0  0  0  0  0  0
   -5.0230    0.0210   -0.8680 C   0  0  0  0  0  0  0  0  0  0  0  0
   -4.0760    0.7600   -0.1620 C   0  0  0  0  0  0  0  0  0  0  0  0
   -4.0130    2.1160   -0.3550 C   0  0  0  0  0  0  0  0  0  0  0  0
   -3.0810    2.9360    0.3200 O   0  0  0  0  0  0  0  0  0  0  0  0
   -4.8940    2.7140   -1.2470 C   0  0  0  0  0  0  0  0  0  0  0  0
   -5.8300    1.9810   -1.9460 C   0  0  0  0  0  0  0  0  0  0  0  0
   -5.9110    0.6310   -1.7700 C   0  0  0  0  0  0  0  0  0  0  0  0
   -6.8890    0.4970   -2.6150 C   0  0  0  0  0  0  0  0  0  0  0  0
   -6.8150    1.9230   -2.8100 C   0  0  0  0  0  0  0  0  0  0  0  0
    4.0380    0.2500    1.1420 C   0  0  0  0  0  0  0  0  0  0  0  0
    5.3010   -0.0440    0.6950 C   0  0  0  0  0  0  0  0  0  0  0  0
    6.6370    1.0070    1.1050 S   0  0  1  0  0  0  0  0  0  0  0  0
    7.4300    1.7090   -0.3070 C   0  0  0  0  0  0  0  0  0  0  0  0
    6.1080    2.0970    1.9990 O   0  0  0  0  0  0  0  0  0  0  0  0
    7.6980    0.2610    1.8730 O   0  0  0  0  0  0  0  0  0  0  0  0
  1  2  1  0
  2  3  2  0
  2 26  1  0
  3  4  1  0
  4  5  2  0
  5  6  1  0
  5 25  1  0
  6  7  2  0
  6  8  1  0
  8  9  1  0
  9 10  2  0
  9 11  1  0
 12 11  1  6
 12 13  1  0
 12 17  1  0
 13 14  1  0
 14 15  1  0
 15 16  1  0
 16 17  2  0
 16 22  1  0
 17 18  1  0
 18 19  1  0
 18 20  2  0
 20 21  1  0
 21 22  1  0
 21 24  2  0
 22 23  2  0
 23 24  1  0
 25 26  2  0
 26 27  1  0
 27 28  1  6
 27 29  2  0
 27 30  2  0
M  END
