
     RDKit          3D

 29 32  0  0  0  0  0  0  0  0999 V2000
    6.4610    2.7040    0.3700 C   0  0  0  0  0  0  0  0  0  0  0  0
    5.5790    1.5150    0.3390 C   0  0  0  0  0  0  0  0  0  0  0  0
    4.3350    1.7330    0.2840 O   0  0  0  0  0  0  0  0  0  0  0  0
    6.1140    0.1730    0.3690 C   0  0  0  0  0  0  0  0  0  0  0  0
    5.3100   -0.8680    0.3400 C   0  0  0  0  0  0  0  0  0  0  0  0
    5.4820   -2.1420    0.3540 N   0  0  0  0  0  0  0  0  0  0  0  0
    4.4830   -2.9880    0.3160 C   0  0  0  0  0  0  0  0  0  0  0  0
    4.6000   -4.2870    0.3280 O   0  0  0  0  0  0  0  0  0  0  0  0
    3.2140   -2.4690    0.2590 C   0  0  0  0  0  0  0  0  0  0  0  0
    2.0200   -3.0660    0.2110 C   0  0  0  0  0  0  0  0  0  0  0  0
    0.7890   -2.2840    0.1540 C   0  0  0  0  0  0  0  0  0  0  0  0
   -0.1830   -2.4130    1.0970 C   0  0  0  0  0  0  0  0  0  0  0  0
   -1.3590   -1.6580    1.0330 C   0  0  0  0  0  0  0  0  0  0  0  0
   -1.6010   -0.7620    0.0400 C   0  0  0  0  0  0  0  0  0  0  0  0
   -2.7830    0.0230   -0.0590 N   0  0  0  0  0  0  0  0  0  0  0  0
   -3.8770    0.0230    0.8090 C   0  0  0  0  0  0  0  0  0  0  0  0
   -3.8970   -0.7180    1.8040 O   0  0  0  0  0  0  0  0  0  0  0  0
   -5.0260    0.9120    0.5470 C   0  0  0  0  0  0  0  0  0  0  0  0
   -6.1630    1.0180    1.3090 C   0  0  0  0  0  0  0  0  0  0  0  0
   -6.9610    1.9520    0.7090 C   0  0  0  0  0  0  0  0  0  0  0  0
   -6.2690    2.3880   -0.4170 C   0  0  0  0  0  0  0  0  0  0  0  0
   -5.1300    1.7380   -0.4620 O   0  0  0  0  0  0  0  0  0  0  0  0
   -7.4000    3.2600   -0.6710 C   0  0  0  0  0  0  0  0  0  0  0  0
   -8.0720    2.8580    0.3930 C   0  0  0  0  0  0  0  0  0  0  0  0
   -0.5980   -0.6240   -0.9400 C   0  0  0  0  0  0  0  0  0  0  0  0
   -0.8830    0.3560   -2.0100 C   0  0  0  0  0  0  0  0  0  0  0  0
    0.5580   -1.3610   -0.8830 C   0  0  0  0  0  0  0  0  0  0  0  0
    1.5480   -1.2340   -1.8370 O   0  0  0  0  0  0  0  0  0  0  0  0
    3.5080   -0.7420    0.2620 S   0  0  0  0  0  0  0  0  0  0  0  0
  1  2  1  0
  2  3  2  0
  2  4  1  0
  4  5  2  3
  5  6  1  0
  5 29  1  0
  6  7  1  0
  7  8  2  0
  7  9  1  0
  9 10  2  3
  9 29  1  0
 10 11  1  0
 11 12  2  0
 11 27  1  0
 12 13  1  0
 13 14  2  0
 14 15  1  0
 14 25  1  0
 15 16  1  0
 16 17  2  0
 16 18  1  0
 18 19  2  0
 18 22  1  0
 19 20  1  0
 20 21  2  0
 20 24  1  0
 21 22  1  0
 21 23  1  0
 23 24  2  0
 25 26  1  0
 25 27  2  0
 27 28  1  0
M  END
