
     RDKit          3D

 30 32  0  0  0  0  0  0  0  0999 V2000
    6.9780    2.6230   -0.4720 C   0  0  0  0  0  0  0  0  0  0  0  0
    6.5420    1.4970    0.3840 C   0  0  0  0  0  0  0  0  0  0  0  0
    6.6850    0.2270    0.0100 C   0  0  0  0  0  0  0  0  0  0  0  0
    7.2520   -0.0670   -1.2030 O   0  0  0  0  0  0  0  0  0  0  0  0
    6.2520   -0.8100    0.8620 N   0  0  0  0  0  0  0  0  0  0  0  0
    4.8540   -1.2020    0.9250 C   0  0  0  0  0  0  0  0  0  0  0  0
    4.5340   -2.3970    1.9810 S   0  0  0  0  0  0  0  0  0  0  0  0
    3.9450   -0.5260    0.1190 N   0  0  0  0  0  0  0  0  0  0  0  0
    2.5650   -0.7580    0.0240 C   0  0  0  0  0  0  0  0  0  0  0  0
    1.7310    0.2560   -0.5010 C   0  0  0  0  0  0  0  0  0  0  0  0
    0.3840    0.1010   -0.6480 C   0  0  0  0  0  0  0  0  0  0  0  0
   -0.2080   -1.0880   -0.2720 C   0  0  0  0  0  0  0  0  0  0  0  0
   -1.5530   -1.3190   -0.4070 C   0  0  0  0  0  0  0  0  0  0  0  0
   -2.4890   -0.3140   -0.8570 C   0  0  0  0  0  0  0  0  0  0  0  0
   -2.7200    0.8500   -0.3230 C   0  0  0  0  0  0  0  0  0  0  0  0
   -2.1490    1.5060    0.8570 C   0  0  0  0  0  0  0  0  0  0  0  0
   -3.1210    2.3720    1.3480 O   0  0  0  0  0  0  0  0  0  0  0  0
   -4.0140    2.6600    0.3420 C   0  0  2  0  0  0  0  0  0  0  0  0
   -3.9550    4.1270   -0.0710 C   0  0  0  0  0  0  0  0  0  0  0  0
   -5.4490    2.4040    0.7670 C   0  0  0  0  0  0  0  0  0  0  0  0
   -3.7170    1.8360   -0.8590 C   0  0  0  0  0  0  0  0  0  0  0  0
   -2.0800   -2.5430   -0.0350 C   0  0  0  0  0  0  0  0  0  0  0  0
   -3.5290   -2.8500   -0.1610 C   0  0  2  0  0  0  0  0  0  0  0  0
   -3.7450   -4.2590    0.3450 C   0  0  0  0  0  0  0  0  0  0  0  0
   -3.9900   -2.7780   -1.4570 O   0  0  0  0  0  0  0  0  0  0  0  0
   -1.2430   -3.4310    0.4400 O   0  0  0  0  0  0  0  0  0  0  0  0
    0.0290   -3.2800    0.5960 C   0  0  0  0  0  0  0  0  0  0  0  0
    0.7150   -4.2410    1.0750 O   0  0  0  0  0  0  0  0  0  0  0  0
    0.6030   -2.0760    0.2370 C   0  0  0  0  0  0  0  0  0  0  0  0
    1.9790   -1.9420    0.3960 C   0  0  0  0  0  0  0  0  0  0  0  0
  1  2  1  0
  2  3  2  3
  3  4  1  0
  3  5  1  0
  5  6  1  0
  6  7  2  0
  6  8  1  0
  8  9  1  0
  9 10  2  0
  9 30  1  0
 10 11  1  0
 11 12  2  0
 12 13  1  0
 12 29  1  0
 13 14  1  0
 13 22  2  0
 14 15  2  3
 15 16  1  0
 15 21  1  0
 16 17  1  0
 17 18  1  0
 18 19  1  6
 18 20  1  0
 18 21  1  0
 22 23  1  0
 22 26  1  0
 23 24  1  6
 23 25  1  0
 26 27  1  0
 27 28  2  0
 27 29  1  0
 29 30  2  0
M  END
