
     RDKit          3D

 30 33  0  0  0  0  0  0  0  0999 V2000
    6.0290    3.0370   -1.7110 N   0  0  0  0  0  0  0  0  0  0  0  0
    5.8170    1.8120   -1.0220 C   0  0  0  0  0  0  0  0  0  0  0  0
    6.8720    0.9660   -0.7520 C   0  0  0  0  0  0  0  0  0  0  0  0
    6.6920   -0.2320   -0.0830 C   0  0  0  0  0  0  0  0  0  0  0  0
    5.4410   -0.6250    0.3400 C   0  0  0  0  0  0  0  0  0  0  0  0
    4.4010    0.2460    0.0530 C   0  0  0  0  0  0  0  0  0  0  0  0
    4.5390    1.4420   -0.6080 C   0  0  0  0  0  0  0  0  0  0  0  0
    3.4450    2.2570   -0.8560 O   0  0  0  0  0  0  0  0  0  0  0  0
    2.2020    1.8330   -0.4180 C   0  0  0  0  0  0  0  0  0  0  0  0
    1.5590    2.3430    0.9980 S   0  0  0  0  0  0  0  0  0  0  0  0
    1.4730    0.9280   -1.2330 N   0  0  0  0  0  0  0  0  0  0  0  0
    0.1730    0.4500   -0.8330 C   0  0  0  0  0  0  0  0  0  0  0  0
   -0.2950    0.8550    0.2540 O   0  0  0  0  0  0  0  0  0  0  0  0
   -0.5380   -0.4910   -1.7240 C   0  0  0  0  0  0  0  0  0  0  0  0
   -1.7870   -0.8270   -1.1360 O   0  0  0  0  0  0  0  0  0  0  0  0
   -2.7370    0.1300   -0.8590 C   0  0  0  0  0  0  0  0  0  0  0  0
   -2.4820    1.3290   -1.1380 O   0  0  0  0  0  0  0  0  0  0  0  0
   -4.0010   -0.2760   -0.2550 C   0  0  0  0  0  0  0  0  0  0  0  0
   -4.2540   -1.5870    0.0380 C   0  0  0  0  0  0  0  0  0  0  0  0
   -5.4750   -1.9330    0.6150 C   0  0  0  0  0  0  0  0  0  0  0  0
   -6.4410   -0.9760    0.9000 C   0  0  0  0  0  0  0  0  0  0  0  0
   -6.1750    0.3410    0.6000 C   0  0  0  0  0  0  0  0  0  0  0  0
   -4.9780    0.6720    0.0350 C   0  0  0  0  0  0  0  0  0  0  0  0
   -7.3480    1.1950    0.9880 C   0  0  0  0  0  0  0  0  0  0  0  0
   -8.4700    0.1780    0.9360 C   0  0  0  0  0  0  0  0  0  0  0  0
   -7.8070   -1.0540    1.5020 C   0  0  0  0  0  0  0  0  0  0  0  0
    5.2500   -1.7560    0.9740 C   0  0  0  0  0  0  0  0  0  0  0  0
    6.3270   -2.7000    1.2940 C   0  0  0  0  0  0  0  0  0  0  0  0
    7.5580   -2.2390    0.8390 O   0  0  0  0  0  0  0  0  0  0  0  0
    7.7040   -1.0430    0.1770 C   0  0  0  0  0  0  0  0  0  0  0  0
  1  2  1  0
  2  3  2  0
  2  7  1  0
  3  4  1  0
  4  5  1  0
  4 30  2  0
  5  6  1  0
  5 27  2  0
  6  7  2  0
  7  8  1  0
  8  9  1  0
  9 10  2  0
  9 11  1  0
 11 12  1  0
 12 13  2  0
 12 14  1  0
 14 15  1  0
 15 16  1  0
 16 17  2  0
 16 18  1  0
 18 19  2  0
 18 23  1  0
 19 20  1  0
 20 21  2  0
 21 22  1  0
 21 26  1  0
 22 23  2  0
 22 24  1  0
 24 25  1  0
 25 26  1  0
 27 28  1  0
 28 29  1  0
 29 30  1  0
M  END
