
     RDKit          3D

 13 14  0  0  0  0  0  0  0  0999 V2000
    3.1810    1.2280   -0.2630 C   0  0  0  0  0  0  0  0  0  0  0  0
    2.3570    0.2400    0.0010 C   0  0  0  0  0  0  0  0  0  0  0  0
    2.6850   -1.1960    0.1570 C   0  0  0  0  0  0  0  0  0  0  0  0
    1.3680   -1.9140   -0.0370 C   0  0  0  0  0  0  0  0  0  0  0  0
    0.3450   -0.8650    0.1710 C   0  0  0  0  0  0  0  0  0  0  0  0
   -0.9800   -0.9650    0.3310 N   0  0  0  0  0  0  0  0  0  0  0  0
   -1.7420    0.1230    0.5090 C   0  0  0  0  0  0  0  0  0  0  0  0
   -3.2010   -0.1170    0.6750 C   0  0  0  0  0  0  0  0  0  0  0  0
   -3.7940   -0.0820   -0.6460 N   0  0  0  0  0  0  0  0  0  0  0  0
   -1.1950    1.3410    0.5330 N   0  0  0  0  0  0  0  0  0  0  0  0
    0.1320    1.5200    0.3790 C   0  0  0  0  0  0  0  0  0  0  0  0
    0.6320    2.6790    0.4030 O   0  0  0  0  0  0  0  0  0  0  0  0
    0.9110    0.3890    0.1950 C   0  0  0  0  0  0  0  0  0  0  0  0
  1  2  2  0
  2  3  1  0
  2 13  1  0
  3  4  1  0
  4  5  1  0
  5  6  1  0
  5 13  2  0
  6  7  2  0
  7  8  1  0
  7 10  1  0
  8  9  1  0
 10 11  1  0
 11 12  2  0
 11 13  1  0
M  END
