
     RDKit          3D

 13 14  0  0  0  0  0  0  0  0999 V2000
   -0.2300   -2.4080    0.2030 N   0  0  0  0  0  0  0  0  0  0  0  0
   -0.7940   -1.1100    0.1010 C   0  0  0  0  0  0  0  0  0  0  0  0
   -2.1900   -1.0070    0.1490 C   0  0  0  0  0  0  0  0  0  0  0  0
   -2.8110    0.2190    0.0560 C   0  0  0  0  0  0  0  0  0  0  0  0
   -2.0570    1.3400   -0.0830 C   0  0  0  0  0  0  0  0  0  0  0  0
   -2.6940    2.5700   -0.1750 O   0  0  0  0  0  0  0  0  0  0  0  0
   -0.6900    1.2120   -0.1270 C   0  0  0  0  0  0  0  0  0  0  0  0
   -0.0130    0.0020   -0.0380 C   0  0  0  0  0  0  0  0  0  0  0  0
    1.4550   -0.0270   -0.0960 C   0  0  0  0  0  0  0  0  0  0  0  0
    2.2840   -1.1160   -0.0250 C   0  0  0  0  0  0  0  0  0  0  0  0
    3.5480   -0.6200   -0.1250 N   0  0  0  0  0  0  0  0  0  0  0  0
    3.4810    0.7120   -0.2500 C   0  0  0  0  0  0  0  0  0  0  0  0
    2.1940    1.0990   -0.2350 N   0  0  0  0  0  0  0  0  0  0  0  0
  1  2  1  0
  2  3  2  0
  2  8  1  0
  3  4  1  0
  4  5  2  0
  5  6  1  0
  5  7  1  0
  7  8  2  0
  8  9  1  0
  9 10  2  0
  9 13  1  0
 10 11  1  0
 11 12  2  0
 12 13  1  0
M  END
