
     RDKit          3D

 12 13  0  0  0  0  0  0  0  0999 V2000
    3.3180    0.7540    0.2320 N   0  0  0  0  0  0  0  0  0  0  0  0
    2.0090    0.2250    0.0520 C   0  0  0  0  0  0  0  0  0  0  0  0
    1.8270   -1.0580   -0.4260 C   0  0  0  0  0  0  0  0  0  0  0  0
    0.5650   -1.5910   -0.6070 C   0  0  0  0  0  0  0  0  0  0  0  0
   -0.5270   -0.8060   -0.2990 C   0  0  0  0  0  0  0  0  0  0  0  0
   -1.8290   -1.2720   -0.4550 C   0  0  0  0  0  0  0  0  0  0  0  0
   -2.8590   -0.4200   -0.1220 C   0  0  0  0  0  0  0  0  0  0  0  0
   -2.6540    0.8570    0.3530 C   0  0  0  0  0  0  0  0  0  0  0  0
   -3.6450    1.6060    0.6480 O   0  0  0  0  0  0  0  0  0  0  0  0
   -1.3890    1.2870    0.4970 N   0  0  0  0  0  0  0  0  0  0  0  0
   -0.3410    0.4760    0.1790 C   0  0  0  0  0  0  0  0  0  0  0  0
    0.9200    1.0150    0.3630 C   0  0  0  0  0  0  0  0  0  0  0  0
  1  2  1  0
  2  3  2  0
  2 12  1  0
  3  4  1  0
  4  5  2  0
  5  6  1  0
  5 11  1  0
  6  7  2  0
  7  8  1  0
  8  9  2  0
  8 10  1  0
 10 11  1  0
 11 12  2  0
M  END
