
     RDKit          3D

 25 28  0  0  0  0  0  0  0  0999 V2000
    6.7600   -1.5890   -0.7730 N   0  0  0  0  0  0  0  0  0  0  0  0
    5.5700   -2.2740    0.2860 S   0  0  2  0  0  0  0  0  0  0  0  0
    6.1050   -2.4580    1.6780 O   0  0  0  0  0  0  0  0  0  0  0  0
    5.1830   -3.6330   -0.2340 O   0  0  0  0  0  0  0  0  0  0  0  0
    4.1110   -1.3040    0.2990 C   0  0  0  0  0  0  0  0  0  0  0  0
    3.9530   -0.2420    1.1740 C   0  0  0  0  0  0  0  0  0  0  0  0
    2.8000    0.5120    1.1800 C   0  0  0  0  0  0  0  0  0  0  0  0
    1.7410    0.2510    0.3170 C   0  0  0  0  0  0  0  0  0  0  0  0
    0.5480    1.0890    0.3750 C   0  0  0  0  0  0  0  0  0  0  0  0
    0.6990    2.4280    0.7170 C   0  0  0  0  0  0  0  0  0  0  0  0
   -0.3500    3.2380    0.8000 N   0  0  0  0  0  0  0  0  0  0  0  0
   -1.6200    2.8440    0.5670 C   0  0  0  0  0  0  0  0  0  0  0  0
   -2.8210    3.4450    0.5870 N   0  0  0  0  0  0  0  0  0  0  0  0
   -3.7760    2.5510    0.2700 C   0  0  0  0  0  0  0  0  0  0  0  0
   -3.1270    1.3340    0.0420 C   0  0  0  0  0  0  0  0  0  0  0  0
   -3.8170    0.0890   -0.3300 C   0  0  0  0  0  0  0  0  0  0  0  0
   -4.9620   -0.2950    0.3690 C   0  0  0  0  0  0  0  0  0  0  0  0
   -5.6210   -1.4480    0.0430 C   0  0  0  0  0  0  0  0  0  0  0  0
   -5.1310   -2.2190   -0.9860 C   0  0  0  0  0  0  0  0  0  0  0  0
   -4.0290   -1.8490   -1.6580 N   0  0  0  0  0  0  0  0  0  0  0  0
   -3.3570   -0.7070   -1.3530 C   0  0  0  0  0  0  0  0  0  0  0  0
   -1.7830    1.4990    0.2220 C   0  0  0  0  0  0  0  0  0  0  0  0
   -0.7290    0.6320    0.1250 C   0  0  0  0  0  0  0  0  0  0  0  0
    1.9020   -0.8070   -0.5520 C   0  0  0  0  0  0  0  0  0  0  0  0
    3.0660   -1.5690   -0.5610 C   0  0  0  0  0  0  0  0  0  0  0  0
  2  1  1  6
  2  3  2  0
  2  4  2  0
  2  5  1  0
  5  6  2  0
  5 25  1  0
  6  7  1  0
  7  8  2  0
  8  9  1  0
  8 24  1  0
  9 10  2  0
  9 23  1  0
 10 11  1  0
 11 12  2  0
 12 13  1  0
 12 22  1  0
 13 14  1  0
 14 15  2  0
 15 16  1  0
 15 22  1  0
 16 17  2  0
 16 21  1  0
 17 18  1  0
 18 19  2  0
 19 20  1  0
 20 21  2  0
 22 23  2  0
 24 25  2  0
M  END
