
     RDKit          3D

 13 14  0  0  0  0  0  0  0  0999 V2000
    3.6350    0.8340    0.3580 C   0  0  0  0  0  0  0  0  0  0  0  0
    2.9710   -0.3860    0.7880 N   0  0  0  0  0  0  0  0  0  0  0  0
    1.5730   -0.5810    0.6300 C   0  0  0  0  0  0  0  0  0  0  0  0
    0.9670   -1.7460    1.0440 C   0  0  0  0  0  0  0  0  0  0  0  0
   -0.3960   -1.8710    0.8610 C   0  0  0  0  0  0  0  0  0  0  0  0
   -1.1670   -0.8810    0.2850 C   0  0  0  0  0  0  0  0  0  0  0  0
   -0.5520    0.2640   -0.1180 C   0  0  0  0  0  0  0  0  0  0  0  0
    0.8050    0.4320    0.0440 C   0  0  0  0  0  0  0  0  0  0  0  0
   -1.3120    1.3220   -0.7230 N   0  0  0  0  0  0  0  0  0  0  0  0
   -2.7480    1.3560   -0.7230 C   0  0  0  0  0  0  0  0  0  0  0  0
   -3.3620    0.0180   -0.5010 C   0  0  0  0  0  0  0  0  0  0  0  0
   -4.5620   -0.1610   -0.8480 O   0  0  0  0  0  0  0  0  0  0  0  0
   -2.5710   -1.0050    0.0940 N   0  0  0  0  0  0  0  0  0  0  0  0
  1  2  1  0
  2  3  1  0
  3  4  2  0
  3  8  1  0
  4  5  1  0
  5  6  2  0
  6  7  1  0
  6 13  1  0
  7  8  2  0
  7  9  1  0
  9 10  1  0
 10 11  1  0
 11 12  2  0
 11 13  1  0
M  END
