
     RDKit          3D

 23 24  0  0  0  0  0  0  0  0999 V2000
    6.0120    0.8550    1.5980 C   0  0  0  0  0  0  0  0  0  0  0  0
    5.4330   -0.2110    0.8220 N   0  0  0  0  0  0  0  0  0  0  0  0
    6.0770   -1.4210    0.8380 O   0  0  0  0  0  0  0  0  0  0  0  0
    4.3520   -0.0680    0.1140 C   0  0  0  0  0  0  0  0  0  0  0  0
    3.9170   -1.2500   -0.5990 N   0  0  0  0  0  0  0  0  0  0  0  0
    3.5060    1.4890    0.0200 S   0  0  0  0  0  0  0  0  0  0  0  0
    2.2020    1.4060   -1.2000 C   0  0  0  0  0  0  0  0  0  0  0  0
    1.0800    0.5020   -0.8710 C   0  0  0  0  0  0  0  0  0  0  0  0
    1.3080   -0.7240   -0.9800 O   0  0  0  0  0  0  0  0  0  0  0  0
   -0.1870    0.9310   -0.4580 N   0  0  0  0  0  0  0  0  0  0  0  0
   -1.3190    0.1590   -0.1340 C   0  0  0  0  0  0  0  0  0  0  0  0
   -1.4050   -1.2250   -0.2810 C   0  0  0  0  0  0  0  0  0  0  0  0
   -2.5230   -1.9620    0.0150 C   0  0  0  0  0  0  0  0  0  0  0  0
   -2.6720   -3.3570   -0.1160 N   0  0  0  0  0  0  0  0  0  0  0  0
   -1.6300   -4.2650   -0.4120 C   0  0  0  0  0  0  0  0  0  0  0  0
   -0.4650   -3.8710   -0.5790 O   0  0  0  0  0  0  0  0  0  0  0  0
   -3.6290   -1.2400    0.4920 C   0  0  0  0  0  0  0  0  0  0  0  0
   -3.5680    0.1230    0.6450 C   0  0  0  0  0  0  0  0  0  0  0  0
   -2.4360    0.8460    0.3430 C   0  0  0  0  0  0  0  0  0  0  0  0
   -2.4310    2.2290    0.5200 O   0  0  0  0  0  0  0  0  0  0  0  0
   -3.6500    2.9610    0.3270 C   0  0  0  0  0  0  0  0  0  0  0  0
   -4.8210    2.2450    0.8950 C   0  0  0  0  0  0  0  0  0  0  0  0
   -4.6550    0.8740    1.1200 O   0  0  0  0  0  0  0  0  0  0  0  0
  1  2  1  0
  2  3  1  0
  2  4  2  3
  4  5  1  0
  4  6  1  0
  6  7  1  0
  7  8  1  0
  8  9  2  0
  8 10  1  0
 10 11  1  0
 11 12  2  0
 11 19  1  0
 12 13  1  0
 13 14  1  0
 13 17  2  0
 14 15  1  0
 15 16  2  0
 17 18  1  0
 18 19  2  0
 18 23  1  0
 19 20  1  0
 20 21  1  0
 21 22  1  0
 22 23  1  0
M  CHG  2   2   1   3  -1
M  END
