
     RDKit          3D

 13 14  0  0  0  0  0  0  0  0999 V2000
   -2.7940   -0.9890    1.2720 C   0  0  0  0  0  0  0  0  0  0  0  0
   -1.5890   -0.4130    0.6240 C   0  0  0  0  0  0  0  0  0  0  0  0
   -0.3540   -1.0310    0.6340 C   0  0  0  0  0  0  0  0  0  0  0  0
    0.7560   -0.4800    0.0260 C   0  0  0  0  0  0  0  0  0  0  0  0
    1.9940   -1.0900    0.0310 C   0  0  0  0  0  0  0  0  0  0  0  0
    3.0860   -0.5050   -0.5910 C   0  0  0  0  0  0  0  0  0  0  0  0
    2.9630    0.7100   -1.2360 C   0  0  0  0  0  0  0  0  0  0  0  0
    4.0660    1.2970   -1.8630 O   0  0  0  0  0  0  0  0  0  0  0  0
    1.7470    1.2850   -1.2270 N   0  0  0  0  0  0  0  0  0  0  0  0
    0.6700    0.7340   -0.6280 C   0  0  0  0  0  0  0  0  0  0  0  0
   -0.5370    1.3300   -0.6330 N   0  0  0  0  0  0  0  0  0  0  0  0
   -1.6350    0.8110   -0.0470 C   0  0  0  0  0  0  0  0  0  0  0  0
   -2.8940    1.4740   -0.0760 N   0  0  0  0  0  0  0  0  0  0  0  0
  1  2  1  0
  2  3  2  0
  2 12  1  0
  3  4  1  0
  4  5  2  0
  4 10  1  0
  5  6  1  0
  6  7  2  0
  7  8  1  0
  7  9  1  0
  9 10  2  0
 10 11  1  0
 11 12  2  0
 12 13  1  0
M  END
