
     RDKit          3D

 32 36  0  0  0  0  0  0  0  0999 V2000
    0.6440    0.7830    0.5870 O   0  0  0  0  0  0  0  0  0  0  0  0
    0.2830   -0.2960    0.0770 C   0  0  0  0  0  0  0  0  0  0  0  0
    0.8670   -0.5580   -1.2210 N   0  0  0  0  0  0  0  0  0  0  0  0
    1.7780    0.3390   -1.8590 C   0  0  0  0  0  0  0  0  0  0  0  0
    3.0200    0.6040   -1.1280 C   0  0  0  0  0  0  0  0  0  0  0  0
    3.3200    1.6580   -0.2900 C   0  0  0  0  0  0  0  0  0  0  0  0
    4.6160    1.4560    0.1510 C   0  0  0  0  0  0  0  0  0  0  0  0
    5.4800    2.1370    0.9920 C   0  0  0  0  0  0  0  0  0  0  0  0
    6.7380    1.6310    1.2130 C   0  0  0  0  0  0  0  0  0  0  0  0
    7.1700    0.4520    0.6170 C   0  0  0  0  0  0  0  0  0  0  0  0
    8.4530   -0.0470    0.8550 O   0  0  0  0  0  0  0  0  0  0  0  0
    6.3210   -0.2250   -0.2130 C   0  0  0  0  0  0  0  0  0  0  0  0
    5.0460    0.2960   -0.4320 C   0  0  0  0  0  0  0  0  0  0  0  0
    4.0820   -0.1890   -1.1850 O   0  0  0  0  0  0  0  0  0  0  0  0
   -0.6440   -1.2000    0.7400 C   0  0  1  0  0  0  0  0  0  0  0  0
   -2.0400   -0.5980    0.7990 C   0  0  0  0  0  0  0  0  0  0  0  0
   -2.0470    0.6200    1.5850 C   0  0  0  0  0  0  0  0  0  0  0  0
   -1.0580    0.9280    2.3440 O   0  0  0  0  0  0  0  0  0  0  0  0
   -3.1050    1.5660    1.5970 N   0  0  0  0  0  0  0  0  0  0  0  0
   -3.1830    2.8240    2.3550 C   0  0  0  0  0  0  0  0  0  0  0  0
   -3.7930    3.7140    1.2730 C   0  0  0  0  0  0  0  0  0  0  0  0
   -4.7650    2.7810    0.6340 C   0  0  0  0  0  0  0  0  0  0  0  0
   -5.9380    2.9750   -0.0740 C   0  0  0  0  0  0  0  0  0  0  0  0
   -6.6110    1.9130   -0.5310 N   0  0  0  0  0  0  0  0  0  0  0  0
   -6.2040    0.6500   -0.3370 C   0  0  0  0  0  0  0  0  0  0  0  0
   -5.0470    0.4200    0.3590 C   0  0  0  0  0  0  0  0  0  0  0  0
   -4.3090    1.4790    0.8550 C   0  0  0  0  0  0  0  0  0  0  0  0
   -0.7800   -2.5070    0.2230 N   0  0  0  0  0  0  0  0  0  0  0  0
    0.3360   -3.3730    0.2510 C   0  0  0  0  0  0  0  0  0  0  0  0
   -0.0980   -4.5310   -0.6340 C   0  0  0  0  0  0  0  0  0  0  0  0
   -0.9360   -3.8700   -1.6830 C   0  0  0  0  0  0  0  0  0  0  0  0
   -1.5640   -2.6970   -0.9370 C   0  0  0  0  0  0  0  0  0  0  0  0
  1  2  2  0
  2  3  1  0
  2 15  1  0
  3  4  1  0
  4  5  1  0
  5  6  2  0
  5 14  1  0
  6  7  1  0
  7  8  2  0
  7 13  1  0
  8  9  1  0
  9 10  2  0
 10 11  1  0
 10 12  1  0
 12 13  2  0
 13 14  1  0
 15 16  1  6
 15 28  1  0
 16 17  1  0
 17 18  2  0
 17 19  1  0
 19 20  1  0
 19 27  1  0
 20 21  1  0
 21 22  1  0
 22 23  2  0
 22 27  1  0
 23 24  1  0
 24 25  2  0
 25 26  1  0
 26 27  2  0
 28 29  1  0
 28 32  1  0
 29 30  1  0
 30 31  1  0
 31 32  1  0
M  END
