
     RDKit          3D

 33 37  0  0  0  0  0  0  0  0999 V2000
   -3.8330   -1.7350   -3.2140 C   0  0  0  0  0  0  0  0  0  0  0  0
   -4.7710   -0.9330   -2.7170 C   0  0  0  0  0  0  0  0  0  0  0  0
   -5.9690   -0.7130   -3.5250 C   0  0  0  0  0  0  0  0  0  0  0  0
   -4.4930   -0.3230   -1.4380 C   0  0  0  0  0  0  0  0  0  0  0  0
   -3.1870   -0.2370   -1.0070 N   0  0  0  0  0  0  0  0  0  0  0  0
   -2.8360    0.2960    0.1640 C   0  0  0  0  0  0  0  0  0  0  0  0
   -1.4200    0.3510    0.5510 C   0  0  0  0  0  0  0  0  0  0  0  0
   -0.9850    0.8820    1.7340 C   0  0  0  0  0  0  0  0  0  0  0  0
    0.3800    0.9130    2.0630 C   0  0  0  0  0  0  0  0  0  0  0  0
    1.3220    0.4070    1.1970 C   0  0  0  0  0  0  0  0  0  0  0  0
    2.7310    0.4440    1.5450 C   0  0  0  0  0  0  0  0  0  0  0  0
    3.3370    0.9140    2.6360 N   0  0  0  0  0  0  0  0  0  0  0  0
    4.6160    0.7390    2.5220 O   0  0  0  0  0  0  0  0  0  0  0  0
    4.9220    0.1570    1.3740 C   0  0  0  0  0  0  0  0  0  0  0  0
    6.2260   -0.2080    0.8710 C   0  0  0  0  0  0  0  0  0  0  0  0
    7.3470    0.0450    1.6140 C   0  0  0  0  0  0  0  0  0  0  0  0
    8.6100   -0.3050    1.1320 C   0  0  0  0  0  0  0  0  0  0  0  0
    8.7230   -0.9070   -0.0940 C   0  0  0  0  0  0  0  0  0  0  0  0
    7.6110   -1.1710   -0.8550 C   0  0  0  0  0  0  0  0  0  0  0  0
    6.3660   -0.8080   -0.3460 C   0  0  0  0  0  0  0  0  0  0  0  0
    8.0190   -1.8240   -2.1300 C   0  0  0  0  0  0  0  0  0  0  0  0
    9.4720   -1.3430   -2.2330 C   0  0  0  0  0  0  0  0  0  0  0  0
    9.8290   -1.3720   -0.8420 O   0  0  0  0  0  0  0  0  0  0  0  0
    3.7110   -0.0240    0.7660 N   0  0  0  0  0  0  0  0  0  0  0  0
    0.8830   -0.1260    0.0070 C   0  0  0  0  0  0  0  0  0  0  0  0
   -0.4570   -0.1560   -0.3130 C   0  0  0  0  0  0  0  0  0  0  0  0
   -3.8210    0.7620    0.9410 N   0  0  0  0  0  0  0  0  0  0  0  0
   -5.1180    0.7130    0.5880 C   0  0  0  0  0  0  0  0  0  0  0  0
   -6.0490    1.1750    1.3670 N   0  0  0  0  0  0  0  0  0  0  0  0
   -5.6280    1.7460    2.6290 C   0  0  0  0  0  0  0  0  0  0  0  0
   -6.9000    2.2280    3.3320 C   0  0  0  0  0  0  0  0  0  0  0  0
   -5.4950    0.1520   -0.6440 C   0  0  0  0  0  0  0  0  0  0  0  0
   -6.9420    0.1210   -0.9270 C   0  0  0  0  0  0  0  0  0  0  0  0
  1  2  2  0
  2  3  1  0
  2  4  1  0
  4  5  1  0
  4 32  2  0
  5  6  2  0
  6  7  1  0
  6 27  1  0
  7  8  2  0
  7 26  1  0
  8  9  1  0
  9 10  2  0
 10 11  1  0
 10 25  1  0
 11 12  2  0
 11 24  1  0
 12 13  1  0
 13 14  1  0
 14 15  1  0
 14 24  2  0
 15 16  2  0
 15 20  1  0
 16 17  1  0
 17 18  2  0
 18 19  1  0
 18 23  1  0
 19 20  2  0
 19 21  1  0
 21 22  1  0
 22 23  1  0
 25 26  2  0
 27 28  1  0
 28 29  2  3
 28 32  1  0
 29 30  1  0
 30 31  1  0
 32 33  1  0
M  END
