
     RDKit          3D

 33 37  0  0  0  0  0  0  0  0999 V2000
   -6.3130    1.3040    1.3030 C   0  0  0  0  0  0  0  0  0  0  0  0
   -6.4310   -0.1110    0.7620 C   0  0  2  0  0  0  0  0  0  0  0  0
   -7.7860   -0.6290    1.1960 C   0  0  0  0  0  0  0  0  0  0  0  0
   -5.3930   -1.0320    1.3480 C   0  0  0  0  0  0  0  0  0  0  0  0
   -4.1900   -1.1410    0.4890 C   0  0  0  0  0  0  0  0  0  0  0  0
   -3.3200   -1.9860    0.8130 O   0  0  0  0  0  0  0  0  0  0  0  0
   -3.9810   -0.3300   -0.6830 C   0  0  0  0  0  0  0  0  0  0  0  0
   -2.7330   -0.0830   -1.2180 C   0  0  0  0  0  0  0  0  0  0  0  0
   -1.6680   -0.6400   -0.6010 N   0  0  0  0  0  0  0  0  0  0  0  0
   -0.4570   -0.3880   -1.1390 C   0  0  0  0  0  0  0  0  0  0  0  0
    0.7410   -0.9390   -0.5510 N   0  0  0  0  0  0  0  0  0  0  0  0
    1.8070   -0.2700   -0.4080 C   0  0  0  0  0  0  0  0  0  0  0  0
    2.9670   -0.9070    0.1960 C   0  0  0  0  0  0  0  0  0  0  0  0
    2.9170   -2.1470    0.5850 C   0  0  0  0  0  0  0  0  0  0  0  0
    3.9870   -2.9040    1.1980 C   0  0  0  0  0  0  0  0  0  0  0  0
    5.1540   -2.5570    1.4810 N   0  0  0  0  0  0  0  0  0  0  0  0
    5.8370   -1.3560    1.3190 C   0  0  0  0  0  0  0  0  0  0  0  0
    5.8430   -0.3640    2.3110 C   0  0  0  0  0  0  0  0  0  0  0  0
    6.5260    0.8080    2.1670 C   0  0  0  0  0  0  0  0  0  0  0  0
    7.2550    1.0520    0.9960 C   0  0  0  0  0  0  0  0  0  0  0  0
    7.2730    0.1030    0.0020 C   0  0  0  0  0  0  0  0  0  0  0  0
    6.5750   -1.0670    0.1770 C   0  0  0  0  0  0  0  0  0  0  0  0
    8.1010    0.6140   -1.0930 C   0  0  0  0  0  0  0  0  0  0  0  0
    8.5620    1.8040   -0.7860 C   0  0  0  0  0  0  0  0  0  0  0  0
    8.0750    2.1890    0.5500 C   0  0  0  0  0  0  0  0  0  0  0  0
   -0.3160    0.3770   -2.2320 N   0  0  0  0  0  0  0  0  0  0  0  0
   -1.3180    0.9570   -2.8910 C   0  0  0  0  0  0  0  0  0  0  0  0
   -1.1600    1.6830   -3.9320 O   0  0  0  0  0  0  0  0  0  0  0  0
   -2.5900    0.7470   -2.4030 C   0  0  0  0  0  0  0  0  0  0  0  0
   -3.7310    1.2720   -2.9650 C   0  0  0  0  0  0  0  0  0  0  0  0
   -4.9280    1.0110   -2.4170 N   0  0  0  0  0  0  0  0  0  0  0  0
   -5.0680    0.2350   -1.3090 C   0  0  0  0  0  0  0  0  0  0  0  0
   -6.4040   -0.0440   -0.7240 C   0  0  0  0  0  0  0  0  0  0  0  0
  2  1  1  1
  2  3  1  0
  2  4  1  0
  2 33  1  0
  4  5  1  0
  5  6  2  0
  5  7  1  0
  7  8  1  0
  7 32  2  0
  8  9  2  0
  8 29  1  0
  9 10  1  0
 10 11  1  0
 10 26  2  0
 11 12  2  3
 12 13  1  0
 13 14  2  3
 14 15  1  0
 15 16  2  3
 16 17  1  0
 17 18  2  0
 17 22  1  0
 18 19  1  0
 19 20  2  0
 20 21  1  0
 20 25  1  0
 21 22  2  0
 21 23  1  0
 23 24  2  0
 24 25  1  0
 26 27  1  0
 27 28  2  0
 27 29  1  0
 29 30  2  0
 30 31  1  0
 31 32  1  0
 32 33  1  0
M  END
