
     RDKit          3D

 32 36  0  0  0  0  0  0  0  0999 V2000
   -0.6430   -1.4090   -0.7490 O   0  0  0  0  0  0  0  0  0  0  0  0
   -0.9410   -0.3300   -0.2220 C   0  0  0  0  0  0  0  0  0  0  0  0
    0.0830    0.5010    0.4520 C   0  0  0  0  0  0  0  0  0  0  0  0
    1.4000   -0.1570    0.3670 N   0  0  0  0  0  0  0  0  0  0  0  0
    1.7920   -0.1400   -0.9920 C   0  0  0  0  0  0  0  0  0  0  0  0
    3.1970    0.2290   -1.3170 C   0  0  0  0  0  0  0  0  0  0  0  0
    4.1080    0.0560   -0.2160 N   0  0  0  0  0  0  0  0  0  0  0  0
    3.6880    0.2180    1.0650 C   0  0  0  0  0  0  0  0  0  0  0  0
    4.5830    0.0430    2.0880 C   0  0  0  0  0  0  0  0  0  0  0  0
    5.9070   -0.2960    1.8540 C   0  0  0  0  0  0  0  0  0  0  0  0
    6.8280   -0.4760    2.8690 C   0  0  0  0  0  0  0  0  0  0  0  0
    8.1360   -0.8100    2.6140 C   0  0  0  0  0  0  0  0  0  0  0  0
    8.5420   -0.9700    1.3070 C   0  0  0  0  0  0  0  0  0  0  0  0
    7.6200   -0.7900    0.2770 C   0  0  0  0  0  0  0  0  0  0  0  0
    6.3090   -0.4540    0.5530 C   0  0  0  0  0  0  0  0  0  0  0  0
    5.3810   -0.2710   -0.4670 C   0  0  0  0  0  0  0  0  0  0  0  0
    5.8180   -0.4330   -1.6470 O   0  0  0  0  0  0  0  0  0  0  0  0
    2.2660    0.5850    1.2180 C   0  0  0  0  0  0  0  0  0  0  0  0
   -2.3350    0.1700   -0.2480 N   0  0  0  0  0  0  0  0  0  0  0  0
   -3.2390   -0.6680   -0.9060 C   0  0  0  0  0  0  0  0  0  0  0  0
   -4.6260   -0.3110   -1.0270 C   0  0  0  0  0  0  0  0  0  0  0  0
   -5.5640   -1.1420   -1.6910 C   0  0  0  0  0  0  0  0  0  0  0  0
   -5.2100   -2.4020   -2.2920 C   0  0  0  0  0  0  0  0  0  0  0  0
   -4.0560   -2.8910   -2.2900 O   0  0  0  0  0  0  0  0  0  0  0  0
   -6.2050   -3.1560   -2.9300 O   0  0  0  0  0  0  0  0  0  0  0  0
   -6.7370   -0.5700   -1.6510 N   0  0  0  0  0  0  0  0  0  0  0  0
   -6.6960    0.6170   -1.0010 C   0  0  0  0  0  0  0  0  0  0  0  0
   -7.6760    1.5440   -0.7260 C   0  0  0  0  0  0  0  0  0  0  0  0
   -7.3580    2.6890   -0.0350 C   0  0  0  0  0  0  0  0  0  0  0  0
   -6.0600    2.8730    0.3630 C   0  0  0  0  0  0  0  0  0  0  0  0
   -5.0770    1.9230    0.0750 C   0  0  0  0  0  0  0  0  0  0  0  0
   -5.3510    0.7650   -0.6130 C   0  0  0  0  0  0  0  0  0  0  0  0
  1  2  2  0
  2  3  1  0
  2 19  1  0
  3  4  1  0
  4  5  1  0
  4 18  1  0
  5  6  1  0
  6  7  1  0
  7  8  1  0
  7 16  1  0
  8  9  2  0
  8 18  1  0
  9 10  1  0
 10 11  2  0
 10 15  1  0
 11 12  1  0
 12 13  2  0
 13 14  1  0
 14 15  2  0
 15 16  1  0
 16 17  2  0
 19 20  1  0
 20 21  1  0
 21 22  2  0
 21 32  1  0
 22 23  1  0
 22 26  1  0
 23 24  2  0
 23 25  1  0
 26 27  1  0
 27 28  2  0
 27 32  1  0
 28 29  1  0
 29 30  2  0
 30 31  1  0
 31 32  2  0
M  END
