
     RDKit          3D

 33 38  0  0  0  0  0  0  0  0999 V2000
   -3.2250   -1.5070   -2.6790 C   0  0  0  0  0  0  0  0  0  0  0  0
   -2.1310   -1.1810   -1.7210 C   0  0  0  0  0  0  0  0  0  0  0  0
   -2.3050   -0.8850   -0.4640 C   0  0  0  0  0  0  0  0  0  0  0  0
   -3.6580   -0.8510    0.1040 C   0  0  0  0  0  0  0  0  0  0  0  0
   -3.9730   -1.5850    1.2600 C   0  0  0  0  0  0  0  0  0  0  0  0
   -5.2870   -1.2980    1.5270 C   0  0  0  0  0  0  0  0  0  0  0  0
   -5.7580   -0.4470    0.6070 N   0  0  0  0  0  0  0  0  0  0  0  0
   -4.7710   -0.1730   -0.2580 C   0  0  0  0  0  0  0  0  0  0  0  0
   -4.9000    0.7680   -1.4140 C   0  0  0  0  0  0  0  0  0  0  0  0
   -1.2110   -0.5620    0.5040 C   0  0  2  0  0  0  0  0  0  0  0  0
   -1.4980    0.7190    1.1840 C   0  0  0  0  0  0  0  0  0  0  0  0
   -1.8320    1.8590    0.4840 C   0  0  0  0  0  0  0  0  0  0  0  0
   -2.1060    3.0630    1.1360 C   0  0  0  0  0  0  0  0  0  0  0  0
   -2.0480    3.1390    2.5110 C   0  0  0  0  0  0  0  0  0  0  0  0
   -1.7140    1.9980    3.1990 C   0  0  0  0  0  0  0  0  0  0  0  0
   -1.4380    0.7870    2.5530 C   0  0  0  0  0  0  0  0  0  0  0  0
    0.1310   -0.6070   -0.1180 C   0  0  0  0  0  0  0  0  0  0  0  0
    0.3550   -0.9170   -1.4490 C   0  0  0  0  0  0  0  0  0  0  0  0
    1.5810   -0.9410   -1.9430 O   0  0  0  0  0  0  0  0  0  0  0  0
    2.6270   -0.6740   -1.1940 C   0  0  0  0  0  0  0  0  0  0  0  0
    3.9970   -0.6270   -1.4490 C   0  0  0  0  0  0  0  0  0  0  0  0
    4.6580   -0.2890   -0.2890 C   0  0  0  0  0  0  0  0  0  0  0  0
    6.1000   -0.1330   -0.1280 C   0  0  0  0  0  0  0  0  0  0  0  0
    6.9270   -0.3380   -1.2070 C   0  0  0  0  0  0  0  0  0  0  0  0
    8.2730   -0.1980   -1.0810 C   0  0  0  0  0  0  0  0  0  0  0  0
    8.8160    0.1400    0.0890 N   0  0  0  0  0  0  0  0  0  0  0  0
    8.0270    0.3450    1.1590 C   0  0  0  0  0  0  0  0  0  0  0  0
    6.6590    0.2140    1.0760 C   0  0  0  0  0  0  0  0  0  0  0  0
    3.6940   -0.1390    0.6330 N   0  0  0  0  0  0  0  0  0  0  0  0
    2.5010   -0.3640    0.1050 N   0  0  0  0  0  0  0  0  0  0  0  0
    1.2450   -0.3310    0.6440 C   0  0  0  0  0  0  0  0  0  0  0  0
    1.1800   -0.0340    1.8690 O   0  0  0  0  0  0  0  0  0  0  0  0
   -0.7810   -1.2040   -2.2500 N   0  0  0  0  0  0  0  0  0  0  0  0
  1  2  1  0
  2  3  2  0
  2 33  1  0
  3  4  1  0
  3 10  1  0
  4  5  1  0
  4  8  2  0
  5  6  2  0
  6  7  1  0
  7  8  1  0
  8  9  1  0
 10 11  1  6
 10 17  1  0
 11 12  2  0
 11 16  1  0
 12 13  1  0
 13 14  2  0
 14 15  1  0
 15 16  2  0
 17 18  2  0
 17 31  1  0
 18 19  1  0
 18 33  1  0
 19 20  1  0
 20 21  2  0
 20 30  1  0
 21 22  1  0
 22 23  1  0
 22 29  2  0
 23 24  2  0
 23 28  1  0
 24 25  1  0
 25 26  2  0
 26 27  1  0
 27 28  2  0
 29 30  1  0
 30 31  1  0
 31 32  2  0
M  END
