
     RDKit          3D

 32 36  0  0  0  0  0  0  0  0999 V2000
   -4.7160   -3.1750   -1.8490 C   0  0  0  0  0  0  0  0  0  0  0  0
   -4.8430   -1.7770   -1.4190 C   0  0  0  0  0  0  0  0  0  0  0  0
   -6.1340   -1.2520   -1.4510 C   0  0  0  0  0  0  0  0  0  0  0  0
   -6.4070    0.0100   -1.0040 C   0  0  0  0  0  0  0  0  0  0  0  0
   -5.3620    0.7810   -0.5080 C   0  0  0  0  0  0  0  0  0  0  0  0
   -5.6210    2.0700   -0.0550 C   0  0  0  0  0  0  0  0  0  0  0  0
   -4.6220    2.8780    0.4370 C   0  0  0  0  0  0  0  0  0  0  0  0
   -3.3480    2.3920    0.4770 C   0  0  0  0  0  0  0  0  0  0  0  0
   -3.0910    1.0820    0.0160 C   0  0  0  0  0  0  0  0  0  0  0  0
   -4.0860    0.2720   -0.4740 C   0  0  0  0  0  0  0  0  0  0  0  0
   -3.8280   -1.0300   -0.9410 C   0  0  0  0  0  0  0  0  0  0  0  0
   -2.4510   -1.4550   -0.9720 C   0  0  0  0  0  0  0  0  0  0  0  0
   -1.8600   -2.3530   -1.7140 C   0  0  0  0  0  0  0  0  0  0  0  0
   -0.4680   -2.7100   -1.6660 C   0  0  0  0  0  0  0  0  0  0  0  0
   -0.1650   -3.6630   -2.5310 O   0  0  0  0  0  0  0  0  0  0  0  0
    0.5790   -2.2190   -0.8690 N   0  0  0  0  0  0  0  0  0  0  0  0
    1.9610   -2.7730   -1.0310 C   0  0  0  0  0  0  0  0  0  0  0  0
    2.7610   -1.5160   -0.6990 C   0  0  0  0  0  0  0  0  0  0  0  0
    2.0910   -1.1340    0.5960 C   0  0  1  0  0  0  0  0  0  0  0  0
    2.2940   -2.0570    1.5900 O   0  0  0  0  0  0  0  0  0  0  0  0
    2.2710    0.1880    0.9830 O   0  0  0  0  0  0  0  0  0  0  0  0
    3.4770    0.8070    1.2350 C   0  0  0  0  0  0  0  0  0  0  0  0
    4.5250    0.1260    1.1050 O   0  0  0  0  0  0  0  0  0  0  0  0
    3.5590    2.2380    1.6510 C   0  0  0  0  0  0  0  0  0  0  0  0
    4.9470    2.6010    1.8250 N   0  0  0  0  0  0  0  0  0  0  0  0
    5.7240    3.1040    0.8400 C   0  0  0  0  0  0  0  0  0  0  0  0
    6.9770    3.3370    1.3600 C   0  0  0  0  0  0  0  0  0  0  0  0
    8.1490    3.4780    2.1260 C   0  0  0  0  0  0  0  0  0  0  0  0
    9.3830    3.8160    2.2470 N   0  0  0  0  0  0  0  0  0  0  0  0
    6.9500    2.9730    2.6570 C   0  0  0  0  0  0  0  0  0  0  0  0
    5.7040    2.5320    2.9020 N   0  0  0  0  0  0  0  0  0  0  0  0
    0.6050   -1.2240    0.1410 C   0  0  0  0  0  0  0  0  0  0  0  0
  1  2  1  0
  2  3  2  0
  2 11  1  0
  3  4  1  0
  4  5  2  0
  5  6  1  0
  5 10  1  0
  6  7  2  0
  7  8  1  0
  8  9  2  0
  9 10  1  0
 10 11  2  0
 11 12  1  0
 12 13  2  3
 13 14  1  0
 14 15  2  0
 14 16  1  0
 16 17  1  0
 16 32  1  0
 17 18  1  0
 18 19  1  0
 19 20  1  1
 19 21  1  0
 19 32  1  0
 21 22  1  0
 22 23  2  0
 22 24  1  0
 24 25  1  0
 25 26  1  0
 25 31  1  0
 26 27  2  0
 27 28  1  0
 27 30  1  0
 28 29  2  0
 28 30  1  0
 30 31  2  0
M  END
