
     RDKit          3D

 33 37  0  0  0  0  0  0  0  0999 V2000
    9.6110   -1.3160    0.7180 C   0  0  0  0  0  0  0  0  0  0  0  0
    8.4930   -0.4140    0.3850 C   0  0  0  0  0  0  0  0  0  0  0  0
    7.1620   -0.7370    0.4440 C   0  0  0  0  0  0  0  0  0  0  0  0
    6.4370    0.3890    0.0500 C   0  0  0  0  0  0  0  0  0  0  0  0
    4.9930    0.4460   -0.0040 C   0  0  0  0  0  0  0  0  0  0  0  0
    4.2170    1.4480   -0.4880 C   0  0  0  0  0  0  0  0  0  0  0  0
    2.8260    1.3500   -0.4760 C   0  0  0  0  0  0  0  0  0  0  0  0
    2.1740    0.2170    0.0350 C   0  0  0  0  0  0  0  0  0  0  0  0
    0.7360    0.1070   -0.0130 C   0  0  0  0  0  0  0  0  0  0  0  0
    0.0010    1.1510    0.1600 O   0  0  0  0  0  0  0  0  0  0  0  0
    0.0810   -1.1140   -0.2500 N   0  0  0  0  0  0  0  0  0  0  0  0
   -1.3160   -1.3160   -0.2880 C   0  0  0  0  0  0  0  0  0  0  0  0
   -1.9320   -2.5410   -0.4270 C   0  0  0  0  0  0  0  0  0  0  0  0
   -3.2530   -2.3440   -0.4110 N   0  0  0  0  0  0  0  0  0  0  0  0
   -3.5110   -1.0270   -0.2640 N   0  0  0  0  0  0  0  0  0  0  0  0
   -4.8230   -0.4620   -0.1990 C   0  0  0  0  0  0  0  0  0  0  0  0
   -5.3240    0.1720    0.9010 C   0  0  0  0  0  0  0  0  0  0  0  0
   -6.6060    0.6960    0.9470 C   0  0  0  0  0  0  0  0  0  0  0  0
   -7.0790    1.3650    2.1620 C   0  0  0  0  0  0  0  0  0  0  0  0
   -7.4100    0.5730   -0.1630 C   0  0  0  0  0  0  0  0  0  0  0  0
   -8.6860    1.0840   -0.1350 C   0  0  0  0  0  0  0  0  0  0  0  0
   -9.4700    0.9610   -1.2170 N   0  0  0  0  0  0  0  0  0  0  0  0
   -9.0490    0.3480   -2.3450 C   0  0  0  0  0  0  0  0  0  0  0  0
   -7.7730   -0.1680   -2.3880 C   0  0  0  0  0  0  0  0  0  0  0  0
   -6.9270   -0.0660   -1.2950 C   0  0  0  0  0  0  0  0  0  0  0  0
   -5.6510   -0.5770   -1.3160 C   0  0  0  0  0  0  0  0  0  0  0  0
   -2.3280   -0.4030   -0.1900 C   0  0  0  0  0  0  0  0  0  0  0  0
    2.9950   -0.7630    0.5120 C   0  0  0  0  0  0  0  0  0  0  0  0
    2.4860   -2.0140    1.1650 C   0  0  0  0  0  0  0  0  0  0  0  0
    4.3140   -0.6370    0.4840 N   0  0  0  0  0  0  0  0  0  0  0  0
    7.3750    1.3390   -0.2280 C   0  0  0  0  0  0  0  0  0  0  0  0
    7.1810    2.7370   -0.6920 C   0  0  0  0  0  0  0  0  0  0  0  0
    8.5800    0.8090   -0.0120 O   0  0  0  0  0  0  0  0  0  0  0  0
  1  2  1  0
  2  3  2  0
  2 33  1  0
  3  4  1  0
  4  5  1  0
  4 31  2  0
  5  6  2  0
  5 30  1  0
  6  7  1  0
  7  8  2  0
  8  9  1  0
  8 28  1  0
  9 10  2  0
  9 11  1  0
 11 12  1  0
 12 13  1  0
 12 27  2  0
 13 14  2  0
 14 15  1  0
 15 16  1  0
 15 27  1  0
 16 17  2  0
 16 26  1  0
 17 18  1  0
 18 19  1  0
 18 20  2  0
 20 21  1  0
 20 25  1  0
 21 22  2  0
 22 23  1  0
 23 24  2  0
 24 25  1  0
 25 26  2  0
 28 29  1  0
 28 30  2  0
 31 32  1  0
 31 33  1  0
M  END
