
     RDKit          3D

 32 36  0  0  0  0  0  0  0  0999 V2000
    6.0720   -0.1790   -0.1790 C   0  0  0  0  0  0  0  0  0  0  0  0
    6.2630    0.6400    1.0600 C   0  0  0  0  0  0  0  0  0  0  0  0
    5.0060    0.9750    1.6410 O   0  0  0  0  0  0  0  0  0  0  0  0
    4.1210    0.0060    2.0690 C   0  0  0  0  0  0  0  0  0  0  0  0
    4.4500   -1.1980    1.9280 O   0  0  0  0  0  0  0  0  0  0  0  0
    2.8210    0.2730    2.6800 C   0  0  0  0  0  0  0  0  0  0  0  0
    1.9520   -0.5610    3.0930 N   0  0  0  0  0  0  0  0  0  0  0  0
    0.8300    0.0650    3.6200 N   0  0  0  0  0  0  0  0  0  0  0  0
   -0.2940   -0.7240    4.1380 C   0  0  0  0  0  0  0  0  0  0  0  0
   -1.2680   -0.9880    3.0330 C   0  0  0  0  0  0  0  0  0  0  0  0
   -2.2860   -1.6600    3.2750 O   0  0  0  0  0  0  0  0  0  0  0  0
   -1.0450   -0.4860    1.7240 N   0  0  0  0  0  0  0  0  0  0  0  0
   -1.8710   -0.6630    0.5980 C   0  0  0  0  0  0  0  0  0  0  0  0
   -3.0200   -1.3980    0.5450 C   0  0  0  0  0  0  0  0  0  0  0  0
   -3.7730   -1.5310   -0.6110 C   0  0  0  0  0  0  0  0  0  0  0  0
   -4.9330   -2.2940   -0.5970 C   0  0  0  0  0  0  0  0  0  0  0  0
   -5.7110   -2.4520   -1.7180 C   0  0  0  0  0  0  0  0  0  0  0  0
   -5.2890   -1.8220   -2.8500 C   0  0  0  0  0  0  0  0  0  0  0  0
   -4.1350   -1.0450   -2.9160 C   0  0  0  0  0  0  0  0  0  0  0  0
   -3.3770   -0.9070   -1.7760 C   0  0  0  0  0  0  0  0  0  0  0  0
   -2.2140   -0.1470   -1.7660 C   0  0  0  0  0  0  0  0  0  0  0  0
   -1.4890   -0.0460   -0.5700 C   0  0  0  0  0  0  0  0  0  0  0  0
   -0.4240    0.7340   -0.8320 N   0  0  0  0  0  0  0  0  0  0  0  0
   -0.4460    1.1220   -2.1140 C   0  0  0  0  0  0  0  0  0  0  0  0
    0.4290    1.9140   -2.8210 C   0  0  0  0  0  0  0  0  0  0  0  0
    0.2420    2.2070   -4.1590 C   0  0  0  0  0  0  0  0  0  0  0  0
   -0.8830    1.6530   -4.7440 C   0  0  0  0  0  0  0  0  0  0  0  0
   -1.7830    0.8480   -4.0490 C   0  0  0  0  0  0  0  0  0  0  0  0
   -1.5740    0.5740   -2.7300 C   0  0  0  0  0  0  0  0  0  0  0  0
    1.0110    1.4490    3.5340 C   0  0  0  0  0  0  0  0  0  0  0  0
    0.1850    2.2990    3.9470 O   0  0  0  0  0  0  0  0  0  0  0  0
    2.3270    1.6630    2.8820 C   0  0  0  0  0  0  0  0  0  0  0  0
  1  2  1  0
  2  3  1  0
  3  4  1  0
  4  5  2  0
  4  6  1  0
  6  7  2  0
  6 32  1  0
  7  8  1  0
  8  9  1  0
  8 30  1  0
  9 10  1  0
 10 11  2  0
 10 12  1  0
 12 13  1  0
 13 14  2  0
 13 22  1  0
 14 15  1  0
 15 16  2  0
 15 20  1  0
 16 17  1  0
 17 18  2  0
 18 19  1  0
 19 20  2  0
 20 21  1  0
 21 22  2  0
 21 29  1  0
 22 23  1  0
 23 24  1  0
 24 25  2  0
 24 29  1  0
 25 26  1  0
 26 27  2  0
 27 28  1  0
 28 29  2  0
 30 31  2  0
 30 32  1  0
M  END
