
     RDKit          3D

 33 37  0  0  0  0  0  0  0  0999 V2000
   -3.6600    1.9190    1.3170 O   0  0  0  0  0  0  0  0  0  0  0  0
   -3.1360    1.5690    0.2320 C   0  0  0  0  0  0  0  0  0  0  0  0
   -3.8880    1.6870   -0.9960 N   0  0  0  0  0  0  0  0  0  0  0  0
   -5.2290    2.2000   -0.9710 C   0  0  0  0  0  0  0  0  0  0  0  0
   -6.1170    1.3350   -0.1280 C   0  0  0  0  0  0  0  0  0  0  0  0
   -6.1320   -0.0090   -0.6800 N   0  0  1  0  0  0  0  0  0  0  0  0
   -5.7690   -0.9540    0.3580 C   0  0  0  0  0  0  0  0  0  0  0  0
   -5.7930   -2.3660   -0.2250 C   0  0  0  0  0  0  0  0  0  0  0  0
   -7.0760   -2.6750   -0.6520 O   0  0  0  0  0  0  0  0  0  0  0  0
   -7.3990   -1.7810   -1.6720 C   0  0  0  0  0  0  0  0  0  0  0  0
   -7.4390   -0.3660   -1.1760 C   0  0  0  0  0  0  0  0  0  0  0  0
   -1.8220    1.0670    0.2300 N   0  0  0  0  0  0  0  0  0  0  0  0
   -0.9660    0.8800    1.3360 C   0  0  0  0  0  0  0  0  0  0  0  0
   -1.4230    0.9070    2.6280 C   0  0  0  0  0  0  0  0  0  0  0  0
   -0.5050    0.7330    3.6770 C   0  0  0  0  0  0  0  0  0  0  0  0
    0.8260    0.5390    3.3990 C   0  0  0  0  0  0  0  0  0  0  0  0
    1.3210    0.5060    2.1180 C   0  0  0  0  0  0  0  0  0  0  0  0
    2.7140    0.3050    1.8000 C   0  0  0  0  0  0  0  0  0  0  0  0
    3.6760    0.1300    2.7520 C   0  0  0  0  0  0  0  0  0  0  0  0
    5.0310   -0.0660    2.4770 C   0  0  0  0  0  0  0  0  0  0  0  0
    5.4480   -0.0880    1.1400 C   0  0  0  0  0  0  0  0  0  0  0  0
    6.6390   -0.2510    0.6150 N   0  0  0  0  0  0  0  0  0  0  0  0
    6.9870   -0.2700   -0.4780 C   0  0  0  0  0  0  0  0  0  0  0  0
    8.1480   -0.4180   -1.3590 N   0  0  0  0  0  0  0  0  0  0  0  0
    9.4230   -0.6280   -0.7880 C   0  0  0  0  0  0  0  0  0  0  0  0
    9.4880   -0.6770    0.4620 O   0  0  0  0  0  0  0  0  0  0  0  0
   10.6330   -0.7850   -1.6020 C   0  0  1  0  0  0  0  0  0  0  0  0
   10.4660   -1.7620   -2.7330 C   0  0  0  0  0  0  0  0  0  0  0  0
   10.6450   -0.4510   -3.0040 C   0  0  0  0  0  0  0  0  0  0  0  0
    5.3260    0.0080   -1.3550 S   0  0  0  0  0  0  0  0  0  0  0  0
    4.4350    0.0940    0.2180 C   0  0  0  0  0  0  0  0  0  0  0  0
    3.1480    0.2790    0.5120 N   0  0  0  0  0  0  0  0  0  0  0  0
    0.4100    0.6770    1.1040 C   0  0  0  0  0  0  0  0  0  0  0  0
  1  2  2  0
  2  3  1  0
  2 12  1  0
  3  4  1  0
  4  5  1  0
  6  5  1  1
  6  7  1  0
  6 11  1  0
  7  8  1  0
  8  9  1  0
  9 10  1  0
 10 11  1  0
 12 13  1  0
 13 14  2  0
 13 33  1  0
 14 15  1  0
 15 16  2  0
 16 17  1  0
 17 18  1  0
 17 33  2  0
 18 19  2  0
 18 32  1  0
 19 20  1  0
 20 21  2  0
 21 22  1  0
 21 31  1  0
 22 23  2  0
 23 24  1  0
 23 30  1  0
 24 25  1  0
 25 26  2  0
 27 25  1  1
 27 28  1  0
 27 29  1  0
 28 29  2  0
 30 31  1  0
 31 32  2  0
M  CHG  1   6   1
M  END
