
     RDKit          3D

 30 33  0  0  0  0  0  0  0  0999 V2000
   -1.2340   -3.4360    2.2710 C   0  0  0  0  0  0  0  0  0  0  0  0
   -0.3400   -2.5580    1.6160 O   0  0  0  0  0  0  0  0  0  0  0  0
   -0.8760   -1.5760    0.7960 C   0  0  0  0  0  0  0  0  0  0  0  0
   -2.2470   -1.4460    0.6130 C   0  0  0  0  0  0  0  0  0  0  0  0
   -2.8010   -0.4800   -0.1960 C   0  0  0  0  0  0  0  0  0  0  0  0
   -4.2040   -0.3820   -0.3620 N   0  0  0  0  0  0  0  0  0  0  0  0
   -5.1520   -1.3380    0.1640 C   0  0  0  0  0  0  0  0  0  0  0  0
   -5.9230   -0.6430    1.2650 C   0  0  0  0  0  0  0  0  0  0  0  0
   -6.3300    0.6540    0.8320 N   0  0  2  0  0  0  0  0  0  0  0  0
   -7.7230    0.8440    1.1980 C   0  0  0  0  0  0  0  0  0  0  0  0
   -6.2320    0.8530   -0.5970 C   0  0  0  0  0  0  0  0  0  0  0  0
   -4.8100    0.7380   -1.0990 C   0  0  0  0  0  0  0  0  0  0  0  0
   -1.9360    0.3760   -0.8340 C   0  0  0  0  0  0  0  0  0  0  0  0
   -0.5590    0.2550   -0.6570 C   0  0  0  0  0  0  0  0  0  0  0  0
   -0.0190   -0.7120    0.1520 C   0  0  0  0  0  0  0  0  0  0  0  0
    1.3720   -0.8810    0.3690 N   0  0  0  0  0  0  0  0  0  0  0  0
    2.2970    0.0360   -0.3170 C   0  0  0  0  0  0  0  0  0  0  0  0
    2.3830    0.9210   -1.0280 N   0  0  0  0  0  0  0  0  0  0  0  0
    3.4160    1.5700   -1.4890 C   0  0  0  0  0  0  0  0  0  0  0  0
    3.3600    2.6870   -2.3970 N   0  0  0  0  0  0  0  0  0  0  0  0
    4.6450    1.1030   -1.0360 C   0  0  0  0  0  0  0  0  0  0  0  0
    5.9540    1.5470   -1.3400 C   0  0  0  0  0  0  0  0  0  0  0  0
    6.1440    2.5070   -2.1630 O   0  0  0  0  0  0  0  0  0  0  0  0
    7.1450    0.9580   -0.7580 C   0  0  0  0  0  0  0  0  0  0  0  0
    8.3450    0.9290   -1.4540 C   0  0  0  0  0  0  0  0  0  0  0  0
    9.4530    0.3820   -0.8630 C   0  0  0  0  0  0  0  0  0  0  0  0
    9.4400   -0.1510    0.4060 C   0  0  0  0  0  0  0  0  0  0  0  0
    8.2580   -0.1310    1.1100 C   0  0  0  0  0  0  0  0  0  0  0  0
    7.1250    0.4280    0.5080 C   0  0  0  0  0  0  0  0  0  0  0  0
    4.1380   -0.2620    0.0380 S   0  0  0  0  0  0  0  0  0  0  0  0
  1  2  1  0
  2  3  1  0
  3  4  2  0
  3 15  1  0
  4  5  1  0
  5  6  1  0
  5 13  2  0
  6  7  1  0
  6 12  1  0
  7  8  1  0
  8  9  1  0
  9 10  1  6
  9 11  1  0
 11 12  1  0
 13 14  1  0
 14 15  2  0
 15 16  1  0
 16 17  1  0
 17 18  2  0
 17 30  1  0
 18 19  1  0
 19 20  1  0
 19 21  2  0
 21 22  1  0
 21 30  1  0
 22 23  2  0
 22 24  1  0
 24 25  2  0
 24 29  1  0
 25 26  1  0
 26 27  2  0
 27 28  1  0
 28 29  2  0
M  CHG  1   9   1
M  END
