
     RDKit          3D

 30 33  0  0  0  0  0  0  0  0999 V2000
    0.6190   -1.4480    3.8100 C   0  0  0  0  0  0  0  0  0  0  0  0
    0.9650   -0.9700    2.4380 C   0  0  0  0  0  0  0  0  0  0  0  0
    2.1870   -0.6960    2.0520 O   0  0  0  0  0  0  0  0  0  0  0  0
    2.2010   -0.2910    0.7840 C   0  0  0  0  0  0  0  0  0  0  0  0
    3.4000    0.0700    0.1190 N   0  0  0  0  0  0  0  0  0  0  0  0
    4.6650    0.0400    0.7460 C   0  0  0  0  0  0  0  0  0  0  0  0
    4.7020   -0.3360    1.9690 O   0  0  0  0  0  0  0  0  0  0  0  0
    5.8430    0.4090    0.0580 N   0  0  0  0  0  0  0  0  0  0  0  0
    7.0990    0.3610    0.7500 C   0  0  0  0  0  0  0  0  0  0  0  0
    8.2260    0.7850   -0.1170 C   0  0  0  0  0  0  0  0  0  0  0  0
    8.7270    2.0450   -0.3260 C   0  0  0  0  0  0  0  0  0  0  0  0
    9.7710    1.9300   -1.2130 C   0  0  0  0  0  0  0  0  0  0  0  0
    9.8630    0.5840   -1.5110 C   0  0  0  0  0  0  0  0  0  0  0  0
    8.9380   -0.0340   -0.8450 O   0  0  0  0  0  0  0  0  0  0  0  0
    0.9170   -0.3040    0.3270 C   0  0  0  0  0  0  0  0  0  0  0  0
    0.3360    0.0060   -0.8610 C   0  0  0  0  0  0  0  0  0  0  0  0
   -1.0270   -0.0990   -1.0470 C   0  0  0  0  0  0  0  0  0  0  0  0
   -1.8400   -0.5350    0.0080 C   0  0  0  0  0  0  0  0  0  0  0  0
   -3.2400   -0.6190   -0.1610 N   0  0  0  0  0  0  0  0  0  0  0  0
   -4.1730   -1.3070    0.6130 C   0  0  0  0  0  0  0  0  0  0  0  0
   -3.7430   -1.9800    1.6080 O   0  0  0  0  0  0  0  0  0  0  0  0
   -5.6390   -1.3550    0.4120 C   0  0  0  0  0  0  0  0  0  0  0  0
   -6.0440   -0.5310   -0.6620 N   0  0  0  0  0  0  0  0  0  0  0  0
   -5.9500    0.8810   -0.3980 C   0  0  0  0  0  0  0  0  0  0  0  0
   -5.8540    1.6010   -1.7240 C   0  0  0  0  0  0  0  0  0  0  0  0
   -6.4190    0.8390   -2.7570 O   0  0  0  0  0  0  0  0  0  0  0  0
   -7.5810    0.2000   -2.3320 C   0  0  0  0  0  0  0  0  0  0  0  0
   -7.3170   -0.8230   -1.2410 C   0  0  0  0  0  0  0  0  0  0  0  0
   -1.2390   -0.8410    1.1900 C   0  0  0  0  0  0  0  0  0  0  0  0
    0.1400   -0.7340    1.3760 C   0  0  0  0  0  0  0  0  0  0  0  0
  1  2  1  0
  2  3  1  0
  2 30  2  0
  3  4  1  0
  4  5  1  0
  4 15  2  0
  5  6  1  0
  6  7  2  0
  6  8  1  0
  8  9  1  0
  9 10  1  0
 10 11  2  0
 10 14  1  0
 11 12  1  0
 12 13  2  0
 13 14  1  0
 15 16  1  0
 15 30  1  0
 16 17  2  0
 17 18  1  0
 18 19  1  0
 18 29  2  0
 19 20  1  0
 20 21  2  0
 20 22  1  0
 22 23  1  0
 23 24  1  0
 23 28  1  0
 24 25  1  0
 25 26  1  0
 26 27  1  0
 27 28  1  0
 29 30  1  0
M  END
