
     RDKit          3D

 31 34  0  0  0  0  0  0  0  0999 V2000
   -0.8360   -4.5050    0.0730 C   0  0  0  0  0  0  0  0  0  0  0  0
   -2.1510   -3.8670   -0.0900 C   0  0  0  0  0  0  0  0  0  0  0  0
   -3.3860   -4.3510    0.0600 N   0  0  0  0  0  0  0  0  0  0  0  0
   -4.2760   -3.4610   -0.1780 O   0  0  0  0  0  0  0  0  0  0  0  0
   -3.6850   -2.3070   -0.5090 C   0  0  0  0  0  0  0  0  0  0  0  0
   -4.4220   -1.0780   -0.8480 C   0  0  0  0  0  0  0  0  0  0  0  0
   -2.3340   -2.5160   -0.4650 C   0  0  0  0  0  0  0  0  0  0  0  0
   -1.2550   -1.6280   -0.7640 C   0  0  0  0  0  0  0  0  0  0  0  0
   -1.0040   -0.4210   -0.3160 C   0  0  0  0  0  0  0  0  0  0  0  0
   -1.8610    0.1820    0.6000 N   0  0  0  0  0  0  0  0  0  0  0  0
   -2.5570    1.2280    0.5300 C   0  0  0  0  0  0  0  0  0  0  0  0
   -2.5550    1.9780   -0.5800 N   0  0  0  0  0  0  0  0  0  0  0  0
   -3.3150    3.1150   -0.6060 C   0  0  0  0  0  0  0  0  0  0  0  0
   -3.3220    3.8870   -1.7260 F   0  0  0  0  0  0  0  0  0  0  0  0
   -4.0760    3.5020    0.4740 C   0  0  0  0  0  0  0  0  0  0  0  0
   -4.0930    2.7490    1.6190 C   0  0  0  0  0  0  0  0  0  0  0  0
   -3.3130    1.6000    1.6210 C   0  0  0  0  0  0  0  0  0  0  0  0
   -3.2790    0.7940    2.7340 O   0  0  0  0  0  0  0  0  0  0  0  0
    0.1790    0.3380   -0.7240 C   0  0  0  0  0  0  0  0  0  0  0  0
    0.3560    1.4810   -0.2450 O   0  0  0  0  0  0  0  0  0  0  0  0
    1.1650   -0.1170   -1.6350 N   0  0  0  0  0  0  0  0  0  0  0  0
    2.3200    0.7040   -1.9930 C   0  0  0  0  0  0  0  0  0  0  0  0
    3.2870    0.6590   -0.8720 C   0  0  0  0  0  0  0  0  0  0  0  0
    3.0710   -0.0480    0.2900 C   0  0  0  0  0  0  0  0  0  0  0  0
    3.9900   -0.0810    1.3360 C   0  0  0  0  0  0  0  0  0  0  0  0
    5.1670    0.6240    1.2060 C   0  0  0  0  0  0  0  0  0  0  0  0
    5.4030    1.3400    0.0490 C   0  0  0  0  0  0  0  0  0  0  0  0
    4.4850    1.3630   -0.9770 C   0  0  0  0  0  0  0  0  0  0  0  0
    6.6580    1.9570    0.1740 O   0  0  0  0  0  0  0  0  0  0  0  0
    7.3040    1.3000    1.2580 C   0  0  0  0  0  0  0  0  0  0  0  0
    6.2560    0.7830    2.0570 O   0  0  0  0  0  0  0  0  0  0  0  0
  1  2  1  0
  2  3  2  0
  2  7  1  0
  3  4  1  0
  4  5  1  0
  5  6  1  0
  5  7  2  0
  7  8  1  0
  8  9  2  3
  9 10  1  0
  9 19  1  0
 10 11  2  3
 11 12  1  0
 11 17  1  0
 12 13  1  0
 13 14  1  0
 13 15  2  0
 15 16  1  0
 16 17  2  0
 17 18  1  0
 19 20  2  0
 19 21  1  0
 21 22  1  0
 22 23  1  0
 23 24  2  0
 23 28  1  0
 24 25  1  0
 25 26  2  0
 26 27  1  0
 26 31  1  0
 27 28  2  0
 27 29  1  0
 29 30  1  0
 30 31  1  0
M  END
