
     RDKit          3D

 30 33  0  0  0  0  0  0  0  0999 V2000
   -2.5460   -2.5890   -2.2510 C   0  0  0  0  0  0  0  0  0  0  0  0
   -2.7350   -1.3850   -1.4130 C   0  0  0  0  0  0  0  0  0  0  0  0
   -1.6310   -0.7390   -0.9180 C   0  0  0  0  0  0  0  0  0  0  0  0
   -1.7310    0.4180   -0.1100 C   0  0  0  0  0  0  0  0  0  0  0  0
   -0.5380    0.9970    0.3310 N   0  0  0  0  0  0  0  0  0  0  0  0
   -0.3420    2.0410    1.2540 C   0  0  0  0  0  0  0  0  0  0  0  0
   -1.3600    2.5530    1.7750 O   0  0  0  0  0  0  0  0  0  0  0  0
    1.0010    2.5660    1.6400 C   0  0  0  0  0  0  0  0  0  0  0  0
    2.0730    1.8370    1.1090 O   0  0  0  0  0  0  0  0  0  0  0  0
    2.3160    0.5070    1.4330 C   0  0  0  0  0  0  0  0  0  0  0  0
    1.5180   -0.0190    2.2460 O   0  0  0  0  0  0  0  0  0  0  0  0
    3.4440   -0.2310    0.8510 C   0  0  0  0  0  0  0  0  0  0  0  0
    3.5940   -1.5450    1.2390 C   0  0  0  0  0  0  0  0  0  0  0  0
    4.6450   -2.2990    0.7230 C   0  0  0  0  0  0  0  0  0  0  0  0
    5.4920   -1.6970   -0.1570 C   0  0  0  0  0  0  0  0  0  0  0  0
    5.3270   -0.3720   -0.5380 C   0  0  0  0  0  0  0  0  0  0  0  0
    4.2870    0.3830   -0.0300 C   0  0  0  0  0  0  0  0  0  0  0  0
    6.2280    0.2360   -1.4610 N   0  0  0  0  0  0  0  0  0  0  0  0
    7.2830   -0.5610   -1.9640 C   0  0  0  0  0  0  0  0  0  0  0  0
    8.1030   -0.0650   -2.7820 O   0  0  0  0  0  0  0  0  0  0  0  0
    7.4240   -1.9070   -1.5560 N   0  0  0  0  0  0  0  0  0  0  0  0
    6.5510   -2.4630   -0.6750 O   0  0  0  0  0  0  0  0  0  0  0  0
   -2.9870    0.8810    0.1670 C   0  0  0  0  0  0  0  0  0  0  0  0
   -4.1250    0.2250   -0.3360 C   0  0  0  0  0  0  0  0  0  0  0  0
   -5.4000    0.7580   -0.0100 N   0  0  0  0  0  0  0  0  0  0  0  0
   -6.5680    0.6310   -0.6400 C   0  0  0  0  0  0  0  0  0  0  0  0
   -7.5730    1.3110    0.0080 C   0  0  0  0  0  0  0  0  0  0  0  0
   -6.9830    1.8930    1.1070 C   0  0  0  0  0  0  0  0  0  0  0  0
   -5.6640    1.5420    1.0730 C   0  0  0  0  0  0  0  0  0  0  0  0
   -3.9880   -0.9010   -1.1200 C   0  0  0  0  0  0  0  0  0  0  0  0
  1  2  1  0
  2  3  2  0
  2 30  1  0
  3  4  1  0
  4  5  1  0
  4 23  2  0
  5  6  1  0
  6  7  2  0
  6  8  1  0
  8  9  1  0
  9 10  1  0
 10 11  2  0
 10 12  1  0
 12 13  2  0
 12 17  1  0
 13 14  1  0
 14 15  2  0
 15 16  1  0
 15 22  1  0
 16 17  2  0
 16 18  1  0
 18 19  1  0
 19 20  2  0
 19 21  1  0
 21 22  1  0
 23 24  1  0
 24 25  1  0
 24 30  2  0
 25 26  1  0
 25 29  1  0
 26 27  2  0
 27 28  1  0
 28 29  2  0
M  END
