
     RDKit          3D

 31 34  0  0  0  0  0  0  0  0999 V2000
   -6.4810   -2.2160   -2.2140 C   0  0  0  0  0  0  0  0  0  0  0  0
   -6.5320   -1.5160   -0.9500 N   0  0  0  0  0  0  0  0  0  0  0  0
   -5.3190   -1.0100   -0.3570 C   0  0  0  0  0  0  0  0  0  0  0  0
   -4.1110   -1.1720   -0.9590 C   0  0  0  0  0  0  0  0  0  0  0  0
   -2.9710   -0.6670   -0.3490 C   0  0  0  0  0  0  0  0  0  0  0  0
   -2.9910   -0.0070    0.8360 C   0  0  0  0  0  0  0  0  0  0  0  0
   -1.8350    0.5080    1.4590 N   0  0  0  0  0  0  0  0  0  0  0  0
   -0.5030    0.4660    1.0420 C   0  0  0  0  0  0  0  0  0  0  0  0
   -0.2920   -0.1290   -0.0770 O   0  0  0  0  0  0  0  0  0  0  0  0
    0.6450    1.0280    1.7500 C   0  0  0  0  0  0  0  0  0  0  0  0
    1.8640    0.8740    1.1600 N   0  0  0  0  0  0  0  0  0  0  0  0
    3.0030    1.3390    1.6990 C   0  0  0  0  0  0  0  0  0  0  0  0
    4.3010    1.1450    1.0180 C   0  0  0  0  0  0  0  0  0  0  0  0
    4.3060    0.5080   -0.1220 C   0  0  0  0  0  0  0  0  0  0  0  0
    5.4320    0.1990   -0.9650 C   0  0  0  0  0  0  0  0  0  0  0  0
    5.2570   -0.4630   -2.1030 C   0  0  0  0  0  0  0  0  0  0  0  0
    3.9220   -0.8450   -2.4420 N   0  0  0  0  0  0  0  0  0  0  0  0
    6.2660   -0.8070   -2.9770 O   0  0  0  0  0  0  0  0  0  0  0  0
    7.5940   -0.8770   -2.4760 C   0  0  0  0  0  0  0  0  0  0  0  0
    7.7970    0.2050   -1.5630 O   0  0  0  0  0  0  0  0  0  0  0  0
    6.7930    0.5720   -0.6470 C   0  0  0  0  0  0  0  0  0  0  0  0
    7.0860    1.1960    0.3920 O   0  0  0  0  0  0  0  0  0  0  0  0
    3.0020    2.0130    2.9040 C   0  0  0  0  0  0  0  0  0  0  0  0
    1.7950    2.1930    3.5370 C   0  0  0  0  0  0  0  0  0  0  0  0
    0.6390    1.6890    2.9340 C   0  0  0  0  0  0  0  0  0  0  0  0
   -0.5080    1.9000    3.6050 F   0  0  0  0  0  0  0  0  0  0  0  0
   -4.2370    0.1480    1.4340 C   0  0  0  0  0  0  0  0  0  0  0  0
   -4.5570    0.7310    2.5580 O   0  0  0  0  0  0  0  0  0  0  0  0
   -5.8720    0.6420    2.7390 C   0  0  0  0  0  0  0  0  0  0  0  0
   -6.4270   -0.0330    1.6740 C   0  0  0  0  0  0  0  0  0  0  0  0
   -5.3670   -0.3430    0.8470 C   0  0  0  0  0  0  0  0  0  0  0  0
  1  2  1  0
  2  3  1  0
  3  4  2  0
  3 31  1  0
  4  5  1  0
  5  6  2  0
  6  7  1  0
  6 27  1  0
  7  8  1  0
  8  9  2  0
  8 10  1  0
 10 11  2  0
 10 25  1  0
 11 12  1  0
 12 13  1  0
 12 23  2  0
 13 14  2  3
 14 15  1  0
 15 16  2  0
 15 21  1  0
 16 17  1  0
 16 18  1  0
 18 19  1  0
 19 20  1  0
 20 21  1  0
 21 22  2  0
 23 24  1  0
 24 25  2  0
 25 26  1  0
 27 28  1  0
 27 31  2  0
 28 29  1  0
 29 30  2  0
 30 31  1  0
M  END
