
     RDKit          3D

 31 34  0  0  0  0  0  0  0  0999 V2000
   -2.8190   -4.7690    0.6310 C   0  0  0  0  0  0  0  0  0  0  0  0
   -2.5240   -3.4030    0.5160 O   0  0  0  0  0  0  0  0  0  0  0  0
   -1.2160   -2.9460    0.5380 C   0  0  0  0  0  0  0  0  0  0  0  0
   -0.1880   -3.8740    0.6770 C   0  0  0  0  0  0  0  0  0  0  0  0
    1.1130   -3.4160    0.6980 C   0  0  0  0  0  0  0  0  0  0  0  0
    1.4130   -2.0710    0.5850 C   0  0  0  0  0  0  0  0  0  0  0  0
    2.7930   -1.5970    0.6080 C   0  0  0  0  0  0  0  0  0  0  0  0
    3.7360   -2.2710    1.3540 C   0  0  0  0  0  0  0  0  0  0  0  0
    5.0570   -1.8760    1.4180 C   0  0  0  0  0  0  0  0  0  0  0  0
    5.9890   -2.5190    2.1390 F   0  0  0  0  0  0  0  0  0  0  0  0
    5.4440   -0.7530    0.6990 C   0  0  0  0  0  0  0  0  0  0  0  0
    4.5280   -0.0580   -0.0560 C   0  0  0  0  0  0  0  0  0  0  0  0
    4.9300    1.1270   -0.8180 C   0  0  0  0  0  0  0  0  0  0  0  0
    6.1540    1.6660   -0.8850 N   0  0  0  0  0  0  0  0  0  0  0  0
    6.1350    2.7450   -1.6820 N   0  0  0  0  0  0  0  0  0  0  0  0
    4.8640    2.8420   -2.0950 C   0  0  0  0  0  0  0  0  0  0  0  0
    4.3470    3.8270   -2.9570 N   0  0  0  0  0  0  0  0  0  0  0  0
    4.1640    1.8660   -1.5660 O   0  0  0  0  0  0  0  0  0  0  0  0
    3.2130   -0.4860   -0.0940 C   0  0  0  0  0  0  0  0  0  0  0  0
    0.3570   -1.1760    0.4480 C   0  0  0  0  0  0  0  0  0  0  0  0
   -0.9540   -1.5950    0.4230 C   0  0  0  0  0  0  0  0  0  0  0  0
   -2.0090   -0.7100    0.2870 O   0  0  0  0  0  0  0  0  0  0  0  0
   -1.7050    0.6650    0.1720 C   0  0  0  0  0  0  0  0  0  0  0  0
   -2.9290    1.4950    0.0320 C   0  0  0  0  0  0  0  0  0  0  0  0
   -3.0670    2.2340   -1.0650 C   0  0  0  0  0  0  0  0  0  0  0  0
   -4.1900    3.1270   -1.4140 C   0  0  0  0  0  0  0  0  0  0  0  0
   -4.1670    3.6150   -2.5710 O   0  0  0  0  0  0  0  0  0  0  0  0
   -5.2990    3.5100   -0.6110 N   0  0  0  0  0  0  0  0  0  0  0  0
   -5.4240    3.2680    0.8110 C   0  0  0  0  0  0  0  0  0  0  0  0
   -5.2230    1.7800    1.1050 C   0  0  0  0  0  0  0  0  0  0  0  0
   -3.8430    1.4300    1.0750 O   0  0  0  0  0  0  0  0  0  0  0  0
  1  2  1  0
  2  3  1  0
  3  4  2  0
  3 21  1  0
  4  5  1  0
  5  6  2  0
  6  7  1  0
  6 20  1  0
  7  8  2  0
  7 19  1  0
  8  9  1  0
  9 10  1  0
  9 11  2  0
 11 12  1  0
 12 13  1  0
 12 19  2  0
 13 14  2  0
 13 18  1  0
 14 15  1  0
 15 16  2  0
 16 17  1  0
 16 18  1  0
 20 21  2  0
 21 22  1  0
 22 23  1  0
 23 24  1  0
 24 25  2  0
 24 31  1  0
 25 26  1  0
 26 27  2  0
 26 28  1  0
 28 29  1  0
 29 30  1  0
 30 31  1  0
M  END
