
     RDKit          3D

 35 36  0  0  0  0  0  0  0  0999 V2000
   -3.8410    3.8220   -2.1930 C   0  0  0  0  0  0  0  0  0  0  0  0
   -3.8990    2.9380   -1.0820 O   0  0  0  0  0  0  0  0  0  0  0  0
   -3.2910    1.6960   -1.0970 C   0  0  0  0  0  0  0  0  0  0  0  0
   -2.6720    1.3540   -2.1310 O   0  0  0  0  0  0  0  0  0  0  0  0
   -3.3500    0.7740    0.0600 C   0  0  2  0  0  0  0  0  0  0  0  0
   -2.6550   -0.4110   -0.2270 O   0  0  0  0  0  0  0  0  0  0  0  0
   -1.5250   -0.8390    0.5080 C   0  0  0  0  0  0  0  0  0  0  0  0
   -1.2200   -0.0500    1.4320 O   0  0  0  0  0  0  0  0  0  0  0  0
   -0.8370   -2.0950    0.1550 C   0  0  0  0  0  0  0  0  0  0  0  0
    0.4920   -2.3370    0.7770 C   0  0  1  0  0  0  0  0  0  0  0  0
    0.3790   -2.2680    2.2770 C   0  0  0  0  0  0  0  0  0  0  0  0
    0.6220   -3.9310    0.5990 C   0  0  0  0  0  0  0  0  0  0  0  0
    0.5720   -4.2390   -0.7330 O   0  0  0  0  0  0  0  0  0  0  0  0
    1.6970   -1.7490    0.1590 C   0  0  1  0  0  0  0  0  0  0  0  0
    2.9650   -2.0900    0.9320 C   0  0  0  0  0  0  0  0  0  0  0  0
    1.8840   -2.5580   -1.0380 O   0  0  0  0  0  0  0  0  0  0  0  0
    1.6560   -1.7620   -2.1080 C   0  0  0  0  0  0  0  0  0  0  0  0
    1.2560   -0.5260   -1.6930 O   0  0  0  0  0  0  0  0  0  0  0  0
    1.6790   -0.3890   -0.3640 C   0  0  2  0  0  0  0  0  0  0  0  0
    2.9400    0.4000   -0.4070 C   0  0  2  0  0  0  0  0  0  0  0  0
    3.4930    0.8540    0.9150 C   0  0  0  0  0  0  0  0  0  0  0  0
    4.9970    1.0740    0.7110 C   0  0  2  0  0  0  0  0  0  0  0  0
    5.5690    1.6280    1.8550 O   0  0  0  0  0  0  0  0  0  0  0  0
    5.1420    1.9810   -0.4860 C   0  0  0  0  0  0  0  0  0  0  0  0
    3.8630    2.6720   -0.8720 C   0  0  0  0  0  0  0  0  0  0  0  0
    2.7800    1.6750   -1.2480 C   0  0  1  0  0  0  0  0  0  0  0  0
    2.9460    1.3920   -2.6010 O   0  0  0  0  0  0  0  0  0  0  0  0
   -4.8090    0.5500    0.3960 C   0  0  2  0  0  0  0  0  0  0  0  0
   -5.3690    1.8380    0.6340 O   0  0  0  0  0  0  0  0  0  0  0  0
   -6.4260    2.2330   -0.2050 C   0  0  0  0  0  0  0  0  0  0  0  0
   -6.8210    1.4400   -1.1110 O   0  0  0  0  0  0  0  0  0  0  0  0
   -7.0630    3.4550   -0.0900 O   0  0  0  0  0  0  0  0  0  0  0  0
   -4.9640   -0.2160    1.6750 C   0  0  0  0  0  0  0  0  0  0  0  0
   -4.5000   -1.5490    1.7030 N   0  0  0  0  0  0  0  0  0  0  0  0
   -5.4940    0.3030    2.7130 O   0  0  0  0  0  0  0  0  0  0  0  0
  1  2  1  0
  2  3  1  0
  3  4  2  0
  3  5  1  0
  5  6  1  6
  5 28  1  0
  6  7  1  0
  7  8  2  0
  7  9  1  0
  9 10  1  0
 10 11  1  1
 10 12  1  0
 10 14  1  0
 12 13  1  0
 14 15  1  1
 14 16  1  0
 14 19  1  0
 16 17  1  0
 17 18  1  0
 19 18  1  6
 19 20  1  0
 20 21  1  1
 20 26  1  0
 21 22  1  0
 22 23  1  1
 22 24  1  0
 24 25  1  0
 25 26  1  0
 26 27  1  6
 28 29  1  1
 28 33  1  0
 29 30  1  0
 30 31  2  0
 30 32  1  0
 33 34  1  0
 33 35  2  0
M  END
