
     RDKit          3D

 34 36  0  0  0  0  0  0  0  0999 V2000
    8.7460    0.3080   -2.0810 C   0  0  0  0  0  0  0  0  0  0  0  0
    7.4290    0.3110   -1.7270 C   0  0  0  0  0  0  0  0  0  0  0  0
    6.8880   -0.9230   -1.2380 C   0  0  0  0  0  0  0  0  0  0  0  0
    5.7390   -1.2810   -0.8290 C   0  0  0  0  0  0  0  0  0  0  0  0
    4.5150   -0.5100   -0.7160 C   0  0  0  0  0  0  0  0  0  0  0  0
    3.3100   -1.0740   -0.2310 C   0  0  0  0  0  0  0  0  0  0  0  0
    2.3400   -0.0970   -0.2450 C   0  0  0  0  0  0  0  0  0  0  0  0
    0.9310   -0.2450    0.1780 C   0  0  0  0  0  0  0  0  0  0  0  0
    0.2030    0.7520    0.0920 O   0  0  0  0  0  0  0  0  0  0  0  0
    0.4220   -1.4570    0.6610 N   0  0  0  0  0  0  0  0  0  0  0  0
   -0.8940   -1.7280    1.0930 C   0  0  0  0  0  0  0  0  0  0  0  0
   -1.9370   -0.8260    1.1150 C   0  0  0  0  0  0  0  0  0  0  0  0
   -3.2110   -1.0950    1.5360 C   0  0  0  0  0  0  0  0  0  0  0  0
   -4.2920   -0.1980    1.5820 N   0  0  0  0  0  0  0  0  0  0  0  0
   -4.2800    1.1910    1.3550 C   0  0  0  0  0  0  0  0  0  0  0  0
   -3.2040    1.7500    1.0770 O   0  0  0  0  0  0  0  0  0  0  0  0
   -5.5460    2.0170    1.4420 C   0  0  2  0  0  0  0  0  0  0  0  0
   -6.5480    1.4100    0.5280 C   0  0  0  0  0  0  0  0  0  0  0  0
   -7.7310    2.2660    0.2300 C   0  0  0  0  0  0  0  0  0  0  0  0
   -7.4650    3.7210    0.1550 C   0  0  0  0  0  0  0  0  0  0  0  0
   -6.3040    4.2120    0.8930 C   0  0  0  0  0  0  0  0  0  0  0  0
   -6.3060    5.4270    1.2560 O   0  0  0  0  0  0  0  0  0  0  0  0
   -5.2580    3.3710    1.1720 O   0  0  0  0  0  0  0  0  0  0  0  0
   -3.4370   -2.4060    1.9740 C   0  0  0  0  0  0  0  0  0  0  0  0
   -2.4570   -3.3670    1.9860 C   0  0  0  0  0  0  0  0  0  0  0  0
   -1.2090   -3.0090    1.5470 C   0  0  0  0  0  0  0  0  0  0  0  0
   -0.1360   -3.9740    1.5350 N   0  0  0  0  0  0  0  0  0  0  0  0
    2.9560    0.9930   -0.7190 N   0  0  0  0  0  0  0  0  0  0  0  0
    4.1990    0.7050   -0.9740 O   0  0  0  0  0  0  0  0  0  0  0  0
    5.6370   -2.7540   -0.3910 C   0  0  2  0  0  0  0  0  0  0  0  0
    6.8740   -3.3060   -0.5690 F   0  0  0  0  0  0  0  0  0  0  0  0
    4.7220   -3.4040   -1.1690 F   0  0  0  0  0  0  0  0  0  0  0  0
    6.7540    1.6070   -1.9050 C   0  0  0  0  0  0  0  0  0  0  0  0
    7.9710    2.8170   -2.5740 S   0  0  0  0  0  0  0  0  0  0  0  0
  1  2  2  0
  2  3  1  0
  2 33  1  0
  3  4  2  3
  4  5  1  0
  4 30  1  0
  5  6  2  0
  5 29  1  0
  6  7  1  0
  7  8  1  0
  7 28  2  0
  8  9  2  0
  8 10  1  0
 10 11  1  0
 11 12  2  0
 11 26  1  0
 12 13  1  0
 13 14  1  0
 13 24  2  0
 14 15  1  0
 15 16  2  0
 17 15  1  6
 17 18  1  0
 17 23  1  0
 18 19  1  0
 19 20  1  0
 20 21  1  0
 21 22  2  0
 21 23  1  0
 24 25  1  0
 25 26  2  0
 26 27  1  0
 28 29  1  0
 30 31  1  6
 30 32  1  0
 33 34  1  0
M  END
