
     RDKit          3D

 35 36  0  0  0  0  0  0  0  0999 V2000
   -0.3650   -0.3080    1.3530 C   0  0  0  0  0  0  0  0  0  0  0  0
   -0.4120   -0.2120   -0.1570 C   0  0  1  0  0  0  0  0  0  0  0  0
   -1.6950    0.4240   -0.6280 C   0  0  0  0  0  0  0  0  0  0  0  0
   -2.8800   -0.3650   -0.1910 C   0  0  0  0  0  0  0  0  0  0  0  0
   -2.6780   -1.4070    0.4810 O   0  0  0  0  0  0  0  0  0  0  0  0
   -4.1740    0.0020   -0.4920 O   0  0  0  0  0  0  0  0  0  0  0  0
   -5.3200   -0.7290   -0.0890 C   0  0  2  0  0  0  0  0  0  0  0  0
   -6.0410   -1.2820   -1.2330 C   0  0  0  0  0  0  0  0  0  0  0  0
   -5.2880   -1.4360   -2.2570 O   0  0  0  0  0  0  0  0  0  0  0  0
   -7.3920   -1.6530   -1.3590 N   0  0  0  0  0  0  0  0  0  0  0  0
   -8.5650   -1.0390   -0.8560 C   0  0  0  0  0  0  0  0  0  0  0  0
   -8.5940   -0.6760    0.5780 C   0  0  1  0  0  0  0  0  0  0  0  0
   -9.5240   -1.4720    1.2930 O   0  0  0  0  0  0  0  0  0  0  0  0
   -7.3100   -0.7780    1.3040 C   0  0  0  0  0  0  0  0  0  0  0  0
   -6.2060    0.0690    0.8140 C   0  0  1  0  0  0  0  0  0  0  0  0
   -5.3360    0.4330    2.0320 C   0  0  0  0  0  0  0  0  0  0  0  0
   -6.5910    1.3750    0.1860 C   0  0  0  0  0  0  0  0  0  0  0  0
   -5.4060    2.1060   -0.0680 O   0  0  0  0  0  0  0  0  0  0  0  0
    0.6810    0.5790   -0.5700 O   0  0  0  0  0  0  0  0  0  0  0  0
    1.6400    0.1250   -1.4450 C   0  0  0  0  0  0  0  0  0  0  0  0
    1.5430   -1.0390   -1.8990 O   0  0  0  0  0  0  0  0  0  0  0  0
    2.7950    0.9480   -1.8880 C   0  0  1  0  0  0  0  0  0  0  0  0
    2.7580    2.2160   -1.2930 O   0  0  0  0  0  0  0  0  0  0  0  0
    4.0920    0.2840   -1.4350 C   0  0  0  0  0  0  0  0  0  0  0  0
    4.0310    0.2030    0.0700 C   0  0  0  0  0  0  0  0  0  0  0  0
    5.1340   -0.3760    0.6450 O   0  0  0  0  0  0  0  0  0  0  0  0
    6.3240    0.2510    0.4050 C   0  0  2  0  0  0  0  0  0  0  0  0
    7.3500   -0.6470   -0.2560 C   0  0  0  0  0  0  0  0  0  0  0  0
    8.6200    0.1360    0.0030 C   0  0  2  0  0  0  0  0  0  0  0  0
    8.8400    0.9530   -1.1010 O   0  0  0  0  0  0  0  0  0  0  0  0
    9.8130   -0.7750    0.1820 C   0  0  0  0  0  0  0  0  0  0  0  0
   10.9260    0.0590    0.3820 O   0  0  0  0  0  0  0  0  0  0  0  0
    8.2830    0.8950    1.2470 C   0  0  2  0  0  0  0  0  0  0  0  0
    9.1810    0.5220    2.2460 O   0  0  0  0  0  0  0  0  0  0  0  0
    6.9760    0.5850    1.5900 O   0  0  0  0  0  0  0  0  0  0  0  0
  2  1  1  1
  2  3  1  0
  2 19  1  0
  3  4  1  0
  4  5  2  0
  4  6  1  0
  7  6  1  6
  7  8  1  0
  7 15  1  0
  8  9  2  0
  8 10  1  0
 10 11  1  0
 11 12  1  0
 12 13  1  1
 12 14  1  0
 14 15  1  0
 15 16  1  1
 15 17  1  0
 17 18  1  0
 19 20  1  0
 20 21  2  0
 20 22  1  0
 22 23  1  1
 22 24  1  0
 24 25  1  0
 25 26  1  0
 27 26  1  1
 27 28  1  0
 27 35  1  0
 28 29  1  0
 29 30  1  6
 29 31  1  0
 29 33  1  0
 31 32  1  0
 33 34  1  1
 33 35  1  0
M  END
