
     RDKit          3D

 34 36  0  0  0  0  0  0  0  0999 V2000
    4.6580    2.9710    0.1050 C   0  0  0  0  0  0  0  0  0  0  0  0
    5.7250    2.5620    0.9310 O   0  0  0  0  0  0  0  0  0  0  0  0
    5.8120    1.2430    1.3110 C   0  0  0  0  0  0  0  0  0  0  0  0
    4.8420    0.3300    0.8740 C   0  0  0  0  0  0  0  0  0  0  0  0
    4.8510   -1.0000    1.2040 C   0  0  0  0  0  0  0  0  0  0  0  0
    3.8740   -1.9220    0.7890 N   0  0  0  0  0  0  0  0  0  0  0  0
    2.6080   -1.6410    0.2550 C   0  0  0  0  0  0  0  0  0  0  0  0
    2.2690   -0.4470    0.1240 O   0  0  0  0  0  0  0  0  0  0  0  0
    1.6950   -2.6350   -0.1420 N   0  0  0  0  0  0  0  0  0  0  0  0
    0.4140   -2.4520   -0.6800 C   0  0  0  0  0  0  0  0  0  0  0  0
   -0.1950   -1.2590   -0.8930 C   0  0  0  0  0  0  0  0  0  0  0  0
   -1.4980   -1.1120   -1.4360 C   0  0  0  0  0  0  0  0  0  0  0  0
   -2.0010    0.1950   -1.5960 N   0  0  0  0  0  0  0  0  0  0  0  0
   -3.2600    0.5220   -2.0870 C   0  0  0  0  0  0  0  0  0  0  0  0
   -4.0860   -0.3340   -2.4430 O   0  0  0  0  0  0  0  0  0  0  0  0
   -3.6870    1.8900   -2.2120 N   0  0  0  0  0  0  0  0  0  0  0  0
   -4.9790    2.2310   -2.7150 C   0  0  0  0  0  0  0  0  0  0  0  0
   -6.0150    1.6340   -1.8560 C   0  0  0  0  0  0  0  0  0  0  0  0
   -6.8310    0.5330   -2.0370 C   0  0  0  0  0  0  0  0  0  0  0  0
   -7.6970    0.2000   -1.0860 C   0  0  0  0  0  0  0  0  0  0  0  0
   -7.7600    0.9630    0.0570 C   0  0  0  0  0  0  0  0  0  0  0  0
   -8.6010    0.8400    1.2530 C   0  0  0  0  0  0  0  0  0  0  0  0
   -8.3080    1.8200    2.2000 O   0  0  0  0  0  0  0  0  0  0  0  0
   -6.5180    2.2060   -0.2600 S   0  0  0  0  0  0  0  0  0  0  0  0
   -2.1920   -2.2310   -1.7710 C   0  0  0  0  0  0  0  0  0  0  0  0
   -1.5930   -3.4780   -1.5650 C   0  0  0  0  0  0  0  0  0  0  0  0
   -0.3440   -3.5830   -1.0420 C   0  0  0  0  0  0  0  0  0  0  0  0
    0.2570   -4.7890   -0.8340 F   0  0  0  0  0  0  0  0  0  0  0  0
    5.9020   -1.4680    2.0300 C   0  0  0  0  0  0  0  0  0  0  0  0
    6.8450   -0.5910    2.4570 C   0  0  0  0  0  0  0  0  0  0  0  0
    6.8180    0.7460    2.1140 C   0  0  0  0  0  0  0  0  0  0  0  0
    7.7780    1.6400    2.5480 O   0  0  0  0  0  0  0  0  0  0  0  0
    8.8240    1.1740    3.3650 C   0  0  0  0  0  0  0  0  0  0  0  0
    9.5300    0.2180    2.6910 F   0  0  0  0  0  0  0  0  0  0  0  0
  1  2  1  0
  2  3  1  0
  3  4  2  0
  3 31  1  0
  4  5  1  0
  5  6  1  0
  5 29  2  0
  6  7  1  0
  7  8  2  0
  7  9  1  0
  9 10  1  0
 10 11  2  0
 10 27  1  0
 11 12  1  0
 12 13  1  0
 12 25  2  0
 13 14  1  0
 14 15  2  0
 14 16  1  0
 16 17  1  0
 17 18  1  0
 18 19  2  0
 18 24  1  0
 19 20  1  0
 20 21  2  0
 21 22  1  0
 21 24  1  0
 22 23  1  0
 25 26  1  0
 26 27  2  0
 27 28  1  0
 29 30  1  0
 30 31  2  0
 31 32  1  0
 32 33  1  0
 33 34  1  0
M  END
