
     RDKit          3D

 35 36  0  0  0  0  0  0  0  0999 V2000
    8.4910    0.9700    1.7820 C   0  0  0  0  0  0  0  0  0  0  0  0
    7.4640    0.5290    0.9320 O   0  0  0  0  0  0  0  0  0  0  0  0
    6.1370    0.8150    1.1980 C   0  0  0  0  0  0  0  0  0  0  0  0
    5.8770    1.4830    2.2240 O   0  0  0  0  0  0  0  0  0  0  0  0
    5.1170    0.3120    0.2510 C   0  0  0  0  0  0  0  0  0  0  0  0
    3.7180    0.6980    0.6650 C   0  0  0  0  0  0  0  0  0  0  0  0
    2.8420    0.1960   -0.2600 O   0  0  0  0  0  0  0  0  0  0  0  0
    1.5110    0.4770   -0.0060 C   0  0  2  0  0  0  0  0  0  0  0  0
    0.8220   -0.8590    0.2450 C   0  0  0  0  0  0  0  0  0  0  0  0
    0.9930   -1.7740   -0.9130 C   0  0  2  0  0  0  0  0  0  0  0  0
    1.9910   -2.7120   -0.5540 O   0  0  0  0  0  0  0  0  0  0  0  0
    1.4080   -1.1460   -2.1840 C   0  0  2  0  0  0  0  0  0  0  0  0
    2.7960   -1.3350   -2.4030 O   0  0  0  0  0  0  0  0  0  0  0  0
    1.0500    0.2660   -2.3960 C   0  0  0  0  0  0  0  0  0  0  0  0
    0.8070    1.0920   -1.1840 C   0  0  1  0  0  0  0  0  0  0  0  0
   -0.6630    1.1960   -0.9510 C   0  0  0  0  0  0  0  0  0  0  0  0
   -1.0570    1.8930    0.2760 C   0  0  0  0  0  0  0  0  0  0  0  0
   -0.2720    2.6250    0.9330 O   0  0  0  0  0  0  0  0  0  0  0  0
   -2.3910    1.7000    0.6970 O   0  0  0  0  0  0  0  0  0  0  0  0
   -3.4410    1.6050   -0.2450 C   0  0  2  0  0  0  0  0  0  0  0  0
   -3.9700    3.0270   -0.4610 C   0  0  2  0  0  0  0  0  0  0  0  0
   -2.9500    3.8440   -0.9440 O   0  0  0  0  0  0  0  0  0  0  0  0
   -4.4550    3.6150    0.8400 C   0  0  0  0  0  0  0  0  0  0  0  0
   -5.4800    2.8420    1.3780 O   0  0  0  0  0  0  0  0  0  0  0  0
   -4.5470    0.7230    0.2040 C   0  0  0  0  0  0  0  0  0  0  0  0
   -5.6270    0.8830   -0.4240 O   0  0  0  0  0  0  0  0  0  0  0  0
   -4.3180   -0.1520    1.2180 O   0  0  0  0  0  0  0  0  0  0  0  0
   -3.3520   -1.1330    1.3340 C   0  0  0  0  0  0  0  0  0  0  0  0
   -3.1860   -2.0120    0.1180 C   0  0  2  0  0  0  0  0  0  0  0  0
   -4.4890   -2.7150   -0.2040 C   0  0  0  0  0  0  0  0  0  0  0  0
   -2.2050   -3.0690    0.4800 C   0  0  0  0  0  0  0  0  0  0  0  0
   -2.6590   -4.0700    1.1200 O   0  0  0  0  0  0  0  0  0  0  0  0
   -0.8280   -3.0200    0.1570 N   0  0  0  0  0  0  0  0  0  0  0  0
   -0.2740   -2.6190   -1.1030 C   0  0  2  0  0  0  0  0  0  0  0  0
    0.1360   -3.7440   -1.8310 O   0  0  0  0  0  0  0  0  0  0  0  0
  1  2  1  0
  2  3  1  0
  3  4  2  0
  3  5  1  0
  5  6  1  0
  6  7  1  0
  8  7  1  6
  8  9  1  0
  8 15  1  0
  9 10  1  0
 10 11  1  1
 10 12  1  0
 10 34  1  0
 12 13  1  1
 12 14  1  0
 15 14  1  6
 15 16  1  0
 16 17  1  0
 17 18  2  0
 17 19  1  0
 20 19  1  1
 20 21  1  0
 20 25  1  0
 21 22  1  1
 21 23  1  0
 23 24  1  0
 25 26  2  0
 25 27  1  0
 27 28  1  0
 28 29  1  0
 29 30  1  1
 29 31  1  0
 31 32  2  0
 31 33  1  0
 33 34  1  0
 34 35  1  6
M  END
