
     RDKit          3D

 28 29  0  0  0  0  0  0  0  0999 V2000
   -5.4010    2.4710    1.0680 N   0  0  0  0  0  0  0  0  0  0  0  0
   -5.6900    2.0570   -0.2520 C   0  0  0  0  0  0  0  0  0  0  0  0
   -6.9240    2.7690   -1.0700 S   0  0  0  0  0  0  0  0  0  0  0  0
   -4.7570    0.7860   -1.0600 S   0  0  0  0  0  0  0  0  0  0  0  0
   -3.4640    0.1970    0.1020 C   0  0  1  0  0  0  0  0  0  0  0  0
   -4.1820   -0.4640    1.2230 C   0  0  0  0  0  0  0  0  0  0  0  0
   -4.1650   -0.0820    2.4050 O   0  0  0  0  0  0  0  0  0  0  0  0
   -4.9420   -1.6360    0.8580 N   0  0  0  0  0  0  0  0  0  0  0  0
   -4.4720   -2.3110   -0.3140 C   0  0  0  0  0  0  0  0  0  0  0  0
   -5.2950   -2.9610   -1.0070 O   0  0  0  0  0  0  0  0  0  0  0  0
   -3.0280   -2.1840   -0.6140 C   0  0  0  0  0  0  0  0  0  0  0  0
   -2.5490   -0.7510   -0.6380 C   0  0  2  0  0  0  0  0  0  0  0  0
   -1.1960   -0.7380   -0.1020 N   0  0  0  0  0  0  0  0  0  0  0  0
   -0.0620   -0.3430   -0.8800 C   0  0  0  0  0  0  0  0  0  0  0  0
   -0.2550    0.0020   -2.0680 O   0  0  0  0  0  0  0  0  0  0  0  0
    1.2850   -0.3310   -0.3430 C   0  0  0  0  0  0  0  0  0  0  0  0
    1.4320   -0.6870    0.8560 O   0  0  0  0  0  0  0  0  0  0  0  0
    2.3980    0.0860   -1.1970 C   0  0  0  0  0  0  0  0  0  0  0  0
    3.6790    0.0440   -0.5250 N   0  0  0  0  0  0  0  0  0  0  0  0
    4.4780   -1.1330   -0.5520 C   0  0  0  0  0  0  0  0  0  0  0  0
    4.1110   -2.1800   -1.1570 O   0  0  0  0  0  0  0  0  0  0  0  0
    5.7330   -1.1620    0.1130 N   0  0  0  0  0  0  0  0  0  0  0  0
    6.1670    0.0140    0.8030 C   0  0  0  0  0  0  0  0  0  0  0  0
    7.3700    0.1930    1.1010 O   0  0  0  0  0  0  0  0  0  0  0  0
    5.1820    1.0500    1.1820 C   0  0  1  0  0  0  0  0  0  0  0  0
    5.8950    2.2890    1.4160 N   0  0  0  0  0  0  0  0  0  0  0  0
    4.1180    1.2060    0.1630 C   0  0  0  0  0  0  0  0  0  0  0  0
    3.6600    2.3590   -0.0390 O   0  0  0  0  0  0  0  0  0  0  0  0
  1  2  1  0
  2  3  2  0
  2  4  1  0
  5  4  1  6
  5  6  1  0
  5 12  1  0
  6  7  2  0
  6  8  1  0
  8  9  1  0
  9 10  2  0
  9 11  1  0
 11 12  1  0
 12 13  1  1
 13 14  1  0
 14 15  2  0
 14 16  1  0
 16 17  2  0
 16 18  1  0
 18 19  1  0
 19 20  1  0
 19 27  1  0
 20 21  2  0
 20 22  1  0
 22 23  1  0
 23 24  2  0
 23 25  1  0
 25 26  1  6
 25 27  1  0
 27 28  2  0
M  END
