
     RDKit          3D

 31 35  0  0  0  0  0  0  0  0999 V2000
    3.9120    0.5250   -0.1290 O   0  0  0  0  0  0  0  0  0  0  0  0
    2.9550    1.3400   -0.1770 C   0  0  0  0  0  0  0  0  0  0  0  0
    3.2990    2.6640   -0.1930 C   0  0  0  0  0  0  0  0  0  0  0  0
    2.3240    3.6230   -0.2460 C   0  0  0  0  0  0  0  0  0  0  0  0
    1.0120    3.1990   -0.2820 C   0  0  0  0  0  0  0  0  0  0  0  0
    0.0510    4.1710   -0.3440 C   0  0  0  0  0  0  0  0  0  0  0  0
   -1.2260    3.8370   -0.3910 N   0  0  0  0  0  0  0  0  0  0  0  0
   -1.5610    2.5400   -0.3760 C   0  0  0  0  0  0  0  0  0  0  0  0
   -2.9230    2.2130   -0.4330 C   0  0  0  0  0  0  0  0  0  0  0  0
   -3.3230    0.9060   -0.4270 C   0  0  0  0  0  0  0  0  0  0  0  0
   -2.4090   -0.1020   -0.3660 C   0  0  0  0  0  0  0  0  0  0  0  0
   -2.8250   -1.4870   -0.3610 C   0  0  0  0  0  0  0  0  0  0  0  0
   -3.9090   -2.0630   -0.9720 C   0  0  0  0  0  0  0  0  0  0  0  0
   -3.8710   -3.3710   -0.6710 N   0  0  0  0  0  0  0  0  0  0  0  0
   -2.8490   -3.6570    0.0770 N   0  0  0  0  0  0  0  0  0  0  0  0
   -2.1680   -2.5050    0.2950 C   0  0  0  0  0  0  0  0  0  0  0  0
   -1.0260    0.1940   -0.3060 C   0  0  0  0  0  0  0  0  0  0  0  0
   -0.6430    1.4950   -0.3130 C   0  0  0  0  0  0  0  0  0  0  0  0
    0.7050    1.8280   -0.2630 C   0  0  0  0  0  0  0  0  0  0  0  0
    1.6320    0.9160   -0.2120 N   0  0  0  0  0  0  0  0  0  0  0  0
    1.5620   -0.4660   -0.1750 C   0  0  0  0  0  0  0  0  0  0  0  0
    1.6230   -1.2760   -1.3150 C   0  0  0  0  0  0  0  0  0  0  0  0
    1.6830   -2.6340   -1.1970 C   0  0  0  0  0  0  0  0  0  0  0  0
    1.6870   -3.2790    0.0240 C   0  0  0  0  0  0  0  0  0  0  0  0
    1.7460   -4.6220    0.1370 F   0  0  0  0  0  0  0  0  0  0  0  0
    1.6270   -2.4860    1.1320 C   0  0  0  0  0  0  0  0  0  0  0  0
    1.5650   -1.1090    1.0670 C   0  0  0  0  0  0  0  0  0  0  0  0
    1.5010   -0.3650    2.3490 C   0  0  1  0  0  0  0  0  0  0  0  0
    1.5300   -1.2770    3.4180 F   0  0  0  0  0  0  0  0  0  0  0  0
    2.5950    0.4490    2.5640 F   0  0  0  0  0  0  0  0  0  0  0  0
    0.3180    0.3280    2.5260 F   0  0  0  0  0  0  0  0  0  0  0  0
  1  2  2  0
  2  3  1  0
  2 20  1  0
  3  4  2  0
  4  5  1  0
  5  6  2  0
  5 19  1  0
  6  7  1  0
  7  8  2  0
  8  9  1  0
  8 18  1  0
  9 10  2  0
 10 11  1  0
 11 12  1  0
 11 17  2  0
 12 13  1  0
 12 16  2  0
 13 14  2  0
 14 15  1  0
 15 16  1  0
 17 18  1  0
 18 19  2  0
 19 20  1  0
 20 21  1  0
 21 22  2  0
 21 27  1  0
 22 23  1  0
 23 24  2  0
 24 25  1  0
 24 26  1  0
 26 27  2  0
 27 28  1  0
 28 29  1  1
 28 30  1  0
 28 31  1  0
M  END
