
     RDKit          3D

 29 31  0  0  0  0  0  0  0  0999 V2000
    8.3990    0.4100    0.2050 N   0  0  0  0  0  0  0  0  0  0  0  0
    7.1430    0.8100   -0.0170 C   0  0  0  0  0  0  0  0  0  0  0  0
    6.4990    1.4170    0.9670 O   0  0  0  0  0  0  0  0  0  0  0  0
    6.5690    0.5500   -1.3480 C   0  0  0  0  0  0  0  0  0  0  0  0
    5.1050    0.4540   -1.2960 N   0  0  0  0  0  0  0  0  0  0  0  0
    4.5980   -0.5490   -0.3650 C   0  0  0  0  0  0  0  0  0  0  0  0
    5.3500   -1.1400    0.4100 O   0  0  0  0  0  0  0  0  0  0  0  0
    3.2330   -0.8250   -0.4550 N   0  0  0  0  0  0  0  0  0  0  0  0
    2.9570   -1.3780    1.1500 C   0  0  0  0  0  0  0  0  0  0  0  0
    3.8810   -1.1280    1.8700 O   0  0  0  0  0  0  0  0  0  0  0  0
    1.7430   -2.0390    1.3920 C   0  0  0  0  0  0  0  0  0  0  0  0
    0.7360   -2.1830    0.3780 N   0  0  0  0  0  0  0  0  0  0  0  0
   -0.1250   -1.0820    0.0180 C   0  0  0  0  0  0  0  0  0  0  0  0
    0.0290    0.0870    0.4520 N   0  0  0  0  0  0  0  0  0  0  0  0
   -1.0960    1.2260   -0.0780 S   0  0  1  0  0  0  0  0  0  0  0  0
   -1.2850    2.3670    0.8460 O   0  0  0  0  0  0  0  0  0  0  0  0
   -0.7010    1.6620   -1.4780 O   0  0  0  0  0  0  0  0  0  0  0  0
   -2.5500    0.1650   -0.1800 C   0  0  1  0  0  0  0  0  0  0  0  0
   -2.9930   -0.1510    1.2020 C   0  0  0  0  0  0  0  0  0  0  0  0
   -4.4240   -0.5790    0.9730 C   0  0  0  0  0  0  0  0  0  0  0  0
   -4.8750    0.3450   -0.1200 C   0  0  2  0  0  0  0  0  0  0  0  0
   -3.6660    0.6840   -0.9720 C   0  0  0  0  0  0  0  0  0  0  0  0
   -5.4650    1.5970    0.3690 N   0  0  0  0  0  0  0  0  0  0  0  0
   -6.4150    1.9700   -0.6310 C   0  0  0  0  0  0  0  0  0  0  0  0
   -6.9340    3.0970   -0.8830 O   0  0  0  0  0  0  0  0  0  0  0  0
   -6.7390    0.7850   -1.4040 N   0  0  0  0  0  0  0  0  0  0  0  0
   -6.0020   -0.2600   -0.8990 C   0  0  0  0  0  0  0  0  0  0  0  0
   -6.1250   -1.4940   -0.9720 O   0  0  0  0  0  0  0  0  0  0  0  0
   -1.6200   -1.2170   -1.0010 S   0  0  0  0  0  0  0  0  0  0  0  0
  1  2  2  0
  2  3  1  0
  2  4  1  0
  4  5  1  0
  5  6  1  0
  6  7  2  0
  6  8  1  0
  8  9  1  0
  9 10  2  0
  9 11  1  0
 11 12  1  0
 12 13  1  0
 13 14  2  0
 13 29  1  0
 15 14  1  1
 15 16  2  0
 15 17  2  0
 15 18  1  0
 18 19  1  1
 18 22  1  0
 18 29  1  0
 19 20  1  0
 21 20  1  1
 21 22  1  0
 21 23  1  0
 21 27  1  0
 23 24  1  0
 24 25  2  0
 24 26  1  0
 26 27  1  0
 27 28  2  0
M  END
