
     RDKit          3D

 29 30  0  0  0  0  0  0  0  0999 V2000
    2.8770   -3.1780   -4.4490 N   0  0  0  0  0  0  0  0  0  0  0  0
    2.2340   -2.1270   -3.7540 C   0  0  0  0  0  0  0  0  0  0  0  0
    1.9160   -2.5250   -2.5360 O   0  0  0  0  0  0  0  0  0  0  0  0
    1.9490   -0.8320   -4.2630 C   0  0  0  0  0  0  0  0  0  0  0  0
    1.2940    0.1860   -3.4690 N   0  0  0  0  0  0  0  0  0  0  0  0
    1.0590    0.1200   -2.1080 C   0  0  0  0  0  0  0  0  0  0  0  0
    1.4180   -0.7180   -1.3080 O   0  0  0  0  0  0  0  0  0  0  0  0
    0.2450    1.2010   -1.5220 N   0  0  0  0  0  0  0  0  0  0  0  0
   -0.0270    1.1000   -0.1120 C   0  0  0  0  0  0  0  0  0  0  0  0
   -0.9210    2.2470    0.3030 C   0  0  1  0  0  0  0  0  0  0  0  0
   -2.1140    2.2430   -0.3600 O   0  0  0  0  0  0  0  0  0  0  0  0
   -1.0270    2.2010    1.8110 C   0  0  0  0  0  0  0  0  0  0  0  0
   -1.5700    0.8760    2.2940 C   0  0  0  0  0  0  0  0  0  0  0  0
   -1.6330    0.9520    3.7220 O   0  0  0  0  0  0  0  0  0  0  0  0
   -2.0040   -0.1360    4.4900 C   0  0  0  0  0  0  0  0  0  0  0  0
   -2.2670   -1.1940    3.7940 O   0  0  0  0  0  0  0  0  0  0  0  0
   -2.0850   -0.0740    5.9440 C   0  0  2  0  0  0  0  0  0  0  0  0
   -0.7280    0.3600    6.4920 C   0  0  0  0  0  0  0  0  0  0  0  0
    0.1570   -0.7280    6.4090 O   0  0  0  0  0  0  0  0  0  0  0  0
   -0.2300   -1.8870    5.7930 C   0  0  0  0  0  0  0  0  0  0  0  0
    0.5010   -2.5680    5.0300 O   0  0  0  0  0  0  0  0  0  0  0  0
   -1.5740   -2.3550    6.0430 N   0  0  0  0  0  0  0  0  0  0  0  0
   -2.4660   -1.3520    6.4850 N   0  0  0  0  0  0  0  0  0  0  0  0
    2.1150   -0.5980   -5.5410 C   0  0  0  0  0  0  0  0  0  0  0  0
    1.8770    0.6810   -6.1820 N   0  0  0  0  0  0  0  0  0  0  0  0
    1.8850    0.5980   -7.5210 N   0  0  0  0  0  0  0  0  0  0  0  0
    2.0850   -0.4320   -8.1750 C   0  0  0  0  0  0  0  0  0  0  0  0
    2.1090   -0.6770   -9.9470 S   0  0  0  0  0  0  0  0  0  0  0  0
    2.4930   -1.6600   -6.8910 S   0  0  0  0  0  0  0  0  0  0  0  0
  1  2  1  0
  2  3  2  0
  2  4  1  0
  4  5  1  0
  4 24  2  3
  5  6  1  0
  6  7  2  0
  6  8  1  0
  8  9  1  0
  9 10  1  0
 10 11  1  6
 10 12  1  0
 12 13  1  0
 13 14  1  0
 14 15  1  0
 15 16  2  0
 17 15  1  6
 17 18  1  0
 17 23  1  0
 18 19  1  0
 19 20  1  0
 20 21  2  0
 20 22  1  0
 22 23  1  0
 24 25  1  0
 24 29  1  0
 25 26  1  0
 26 27  2  0
 27 28  1  0
 27 29  1  0
M  END
