
     RDKit          3D

 28 29  0  0  0  0  0  0  0  0999 V2000
   -1.0570   -3.2310    0.6800 C   0  0  0  0  0  0  0  0  0  0  0  0
   -0.8050   -1.9380   -0.0360 C   0  0  1  0  0  0  0  0  0  0  0  0
   -1.8630   -0.9800    0.3730 C   0  0  0  0  0  0  0  0  0  0  0  0
   -2.6690   -1.2850    1.2540 O   0  0  0  0  0  0  0  0  0  0  0  0
   -1.9840    0.3160   -0.2310 N   0  0  0  0  0  0  0  0  0  0  0  0
   -2.9370    1.2670    0.1030 N   0  0  0  0  0  0  0  0  0  0  0  0
   -4.3180    1.2090   -0.2100 C   0  0  0  0  0  0  0  0  0  0  0  0
   -4.7670    0.2370   -0.8190 O   0  0  0  0  0  0  0  0  0  0  0  0
   -5.2260    2.2470    0.1540 N   0  0  0  0  0  0  0  0  0  0  0  0
   -6.6190    2.2170   -0.1420 C   0  0  1  0  0  0  0  0  0  0  0  0
   -7.5620    3.0360    0.7260 C   0  0  0  0  0  0  0  0  0  0  0  0
   -7.3270    3.3790   -0.7200 C   0  0  0  0  0  0  0  0  0  0  0  0
    0.8140   -1.3040    0.1190 S   0  0  2  0  0  0  0  0  0  0  0  0
    1.2230   -1.1450    1.5660 O   0  0  0  0  0  0  0  0  0  0  0  0
    0.8990    0.0400   -0.5160 O   0  0  0  0  0  0  0  0  0  0  0  0
    1.9700   -2.4460   -0.5820 C   0  0  2  0  0  0  0  0  0  0  0  0
    2.0190   -3.7440    0.1690 C   0  0  0  0  0  0  0  0  0  0  0  0
    3.3760   -1.8750   -0.6110 C   0  0  1  0  0  0  0  0  0  0  0  0
    3.5000   -0.3580   -1.5920 S   0  0  0  0  0  0  0  0  0  0  0  0
    4.5880    0.4960   -0.4660 C   0  0  0  0  0  0  0  0  0  0  0  0
    5.2950    1.5070   -0.7910 N   0  0  0  0  0  0  0  0  0  0  0  0
    6.1710    2.2020    0.0930 C   0  0  0  0  0  0  0  0  0  0  0  0
    5.7470    3.4680    0.5740 N   0  0  0  0  0  0  0  0  0  0  0  0
    7.3090    1.7580    0.4810 N   0  0  0  0  0  0  0  0  0  0  0  0
    7.8730    0.5780    0.1300 O   0  0  0  0  0  0  0  0  0  0  0  0
    4.4700   -0.1830    0.7510 N   0  0  0  0  0  0  0  0  0  0  0  0
    3.8380   -1.4240    0.7210 C   0  0  0  0  0  0  0  0  0  0  0  0
    3.6470   -2.1570    1.7280 O   0  0  0  0  0  0  0  0  0  0  0  0
  2  1  1  1
  2  3  1  0
 13  2  1  1
  3  4  2  0
  3  5  1  0
  5  6  1  0
  6  7  1  0
  7  8  2  0
  7  9  1  0
 10  9  1  1
 10 11  1  0
 10 12  1  0
 11 12  1  0
 13 14  2  0
 13 15  2  0
 13 16  1  0
 16 17  1  1
 16 18  1  0
 18 19  1  6
 18 27  1  0
 19 20  1  0
 20 21  2  3
 20 26  1  0
 21 22  1  0
 22 23  1  0
 22 24  2  3
 24 25  1  0
 26 27  1  0
 27 28  2  0
M  END
