
     RDKit          3D

 31 35  0  0  0  0  0  0  0  0999 V2000
   -6.0240   -2.1220    0.4720 C   0  0  0  0  0  0  0  0  0  0  0  0
   -5.4070   -0.7990    0.2310 C   0  0  0  0  0  0  0  0  0  0  0  0
   -4.0580   -0.7100    0.0130 C   0  0  0  0  0  0  0  0  0  0  0  0
   -3.4750    0.5160   -0.2130 C   0  0  0  0  0  0  0  0  0  0  0  0
   -4.2640    1.6510   -0.2160 C   0  0  0  0  0  0  0  0  0  0  0  0
   -5.6180    1.5650    0.0020 C   0  0  0  0  0  0  0  0  0  0  0  0
   -6.2020    0.3520    0.2270 C   0  0  0  0  0  0  0  0  0  0  0  0
   -7.6050    0.4970    0.4270 N   0  0  0  0  0  0  0  0  0  0  0  0
   -7.9440    1.8970    0.3480 C   0  0  0  0  0  0  0  0  0  0  0  0
   -6.6720    2.6330    0.0470 C   0  0  0  0  0  0  0  0  0  0  0  0
   -2.0120    0.6070   -0.4540 C   0  0  0  0  0  0  0  0  0  0  0  0
   -1.1940   -0.4260    0.2330 C   0  0  2  0  0  0  0  0  0  0  0  0
   -0.3080   -1.0810   -0.7130 N   0  0  0  0  0  0  0  0  0  0  0  0
    1.0400   -0.6070   -0.4420 C   0  0  2  0  0  0  0  0  0  0  0  0
    1.2160    0.8500   -0.7950 C   0  0  0  0  0  0  0  0  0  0  0  0
    2.0580   -1.3970   -1.2230 C   0  0  0  0  0  0  0  0  0  0  0  0
    3.3620   -0.9520   -0.9820 O   0  0  0  0  0  0  0  0  0  0  0  0
    3.9550   -0.9910    0.2430 C   0  0  0  0  0  0  0  0  0  0  0  0
    3.3200   -1.4510    1.2260 O   0  0  0  0  0  0  0  0  0  0  0  0
    5.3320   -0.5110    0.4730 C   0  0  0  0  0  0  0  0  0  0  0  0
    5.8980   -0.5670    1.7270 C   0  0  0  0  0  0  0  0  0  0  0  0
    7.1510   -0.1300    1.9370 N   0  0  0  0  0  0  0  0  0  0  0  0
    7.9330    0.3830    0.9690 C   0  0  0  0  0  0  0  0  0  0  0  0
    9.2200    0.8200    1.2380 C   0  0  0  0  0  0  0  0  0  0  0  0
    9.9660    1.3350    0.1990 C   0  0  0  0  0  0  0  0  0  0  0  0
    9.4030    1.3950   -1.0690 C   0  0  0  0  0  0  0  0  0  0  0  0
    8.1490    0.9600   -1.2900 N   0  0  0  0  0  0  0  0  0  0  0  0
    7.3710    0.4430   -0.2940 C   0  0  0  0  0  0  0  0  0  0  0  0
    6.0900    0.0060   -0.5540 C   0  0  0  0  0  0  0  0  0  0  0  0
   -1.9860   -1.5070    0.9100 C   0  0  0  0  0  0  0  0  0  0  0  0
   -3.1630   -1.8920    0.0100 C   0  0  0  0  0  0  0  0  0  0  0  0
  1  2  1  0
  2  3  2  0
  2  7  1  0
  3  4  1  0
  3 31  1  0
  4  5  2  0
  4 11  1  0
  5  6  1  0
  6  7  2  0
  6 10  1  0
  7  8  1  0
  8  9  1  0
  9 10  1  0
 11 12  1  0
 12 13  1  6
 12 30  1  0
 13 14  1  0
 14 15  1  6
 14 16  1  0
 16 17  1  0
 17 18  1  0
 18 19  2  0
 18 20  1  0
 20 21  2  0
 20 29  1  0
 21 22  1  0
 22 23  2  0
 23 24  1  0
 23 28  1  0
 24 25  2  0
 25 26  1  0
 26 27  2  0
 27 28  1  0
 28 29  2  0
 30 31  1  0
M  CHG  1  13   1
M  END
