
     RDKit          3D

 28 30  0  0  0  0  0  0  0  0999 V2000
    8.2140   -2.4000    1.0490 C   0  0  0  0  0  0  0  0  0  0  0  0
    7.3100   -1.7240    0.1870 O   0  0  0  0  0  0  0  0  0  0  0  0
    6.3690   -0.8270    0.6220 C   0  0  0  0  0  0  0  0  0  0  0  0
    6.3060   -0.5910    1.8630 O   0  0  0  0  0  0  0  0  0  0  0  0
    5.4630   -0.1550   -0.2800 N   0  0  0  0  0  0  0  0  0  0  0  0
    4.5370    0.7480    0.2880 C   0  0  1  0  0  0  0  0  0  0  0  0
    4.4000    2.0120   -0.4650 N   0  0  0  0  0  0  0  0  0  0  0  0
    3.2840    2.6770   -0.0470 N   0  0  0  0  0  0  0  0  0  0  0  0
    2.2480    2.0440   -0.0630 C   0  0  0  0  0  0  0  0  0  0  0  0
    1.0740    2.6680    0.3290 N   0  0  0  0  0  0  0  0  0  0  0  0
   -0.1760    2.2040   -0.0220 C   0  0  0  0  0  0  0  0  0  0  0  0
   -0.1330    1.2050   -0.7780 O   0  0  0  0  0  0  0  0  0  0  0  0
   -1.4490    2.8220    0.4340 C   0  0  0  0  0  0  0  0  0  0  0  0
   -2.5220    2.0820   -0.1820 N   0  0  0  0  0  0  0  0  0  0  0  0
   -2.7590    0.7010    0.0220 C   0  0  0  0  0  0  0  0  0  0  0  0
   -1.9620    0.1000    0.8020 O   0  0  0  0  0  0  0  0  0  0  0  0
   -3.8860    0.0660   -0.6650 C   0  0  1  0  0  0  0  0  0  0  0  0
   -3.7840    0.1610   -2.1810 C   0  0  0  0  0  0  0  0  0  0  0  0
   -2.6820   -1.2710   -2.5110 S   0  0  0  0  0  0  0  0  0  0  0  0
   -2.8580   -2.1240   -0.8930 C   0  0  0  0  0  0  0  0  0  0  0  0
   -4.0510   -1.3880   -0.3260 C   0  0  1  0  0  0  0  0  0  0  0  0
   -4.1060   -1.5190    1.0950 N   0  0  0  0  0  0  0  0  0  0  0  0
   -5.4830   -1.5320    1.4490 C   0  0  0  0  0  0  0  0  0  0  0  0
   -5.9160   -1.3550    2.6150 O   0  0  0  0  0  0  0  0  0  0  0  0
   -6.2690   -1.7770    0.2690 N   0  0  0  0  0  0  0  0  0  0  0  0
   -5.3360   -1.9090   -0.7910 C   0  0  0  0  0  0  0  0  0  0  0  0
   -5.5820   -2.3870   -1.9160 O   0  0  0  0  0  0  0  0  0  0  0  0
    2.7970    0.3080   -0.2170 S   0  0  0  0  0  0  0  0  0  0  0  0
  1  2  1  0
  2  3  1  0
  3  4  2  0
  3  5  1  0
  6  5  1  6
  6  7  1  0
  6 28  1  0
  7  8  1  0
  8  9  2  0
  9 10  1  0
  9 28  1  0
 10 11  1  0
 11 12  2  0
 11 13  1  0
 13 14  1  0
 14 15  1  0
 15 16  2  0
 17 15  1  1
 17 18  1  0
 17 21  1  0
 18 19  1  0
 19 20  1  0
 21 20  1  6
 21 22  1  0
 21 26  1  0
 22 23  1  0
 23 24  2  0
 23 25  1  0
 25 26  1  0
 26 27  2  0
M  END
