
     RDKit          3D

 29 30  0  0  0  0  0  0  0  0999 V2000
   -6.4090   -0.7390   -2.1360 C   0  0  0  0  0  0  0  0  0  0  0  0
   -5.1620   -1.0360   -1.5090 O   0  0  0  0  0  0  0  0  0  0  0  0
   -4.2680   -0.0070   -1.1710 C   0  0  0  0  0  0  0  0  0  0  0  0
   -4.6430    1.1430   -1.4540 O   0  0  0  0  0  0  0  0  0  0  0  0
   -2.9750   -0.3670   -0.5160 C   0  0  1  0  0  0  0  0  0  0  0  0
   -2.8780   -1.7540   -0.4450 O   0  0  0  0  0  0  0  0  0  0  0  0
   -1.8070    0.2310   -1.2260 C   0  0  0  0  0  0  0  0  0  0  0  0
   -0.5720   -0.0480   -0.5510 N   0  0  0  0  0  0  0  0  0  0  0  0
    0.0360   -1.3010   -0.3300 C   0  0  0  0  0  0  0  0  0  0  0  0
   -0.5160   -2.3350   -0.7610 O   0  0  0  0  0  0  0  0  0  0  0  0
    1.3180   -1.4170    0.4050 C   0  0  1  0  0  0  0  0  0  0  0  0
    1.7000   -2.8780    0.4660 C   0  0  0  0  0  0  0  0  0  0  0  0
    2.3930   -0.6800   -0.1760 N   0  0  0  0  0  0  0  0  0  0  0  0
    2.5220   -0.4340   -1.4960 C   0  0  0  0  0  0  0  0  0  0  0  0
    1.3510   -1.0340   -2.4670 S   0  0  0  0  0  0  0  0  0  0  0  0
    3.5630    0.2680   -1.9770 N   0  0  0  0  0  0  0  0  0  0  0  0
    4.5400    0.7720   -1.1910 C   0  0  0  0  0  0  0  0  0  0  0  0
    5.6520    1.4820   -1.3890 N   0  0  0  0  0  0  0  0  0  0  0  0
    6.2850    1.7220   -0.2030 C   0  0  0  0  0  0  0  0  0  0  0  0
    7.4940    2.4450   -0.0210 N   0  0  0  0  0  0  0  0  0  0  0  0
    5.5070    1.1260    0.7200 N   0  0  0  0  0  0  0  0  0  0  0  0
    4.4370    0.5380    0.1560 C   0  0  0  0  0  0  0  0  0  0  0  0
    3.3560   -0.1870    0.6190 C   0  0  0  0  0  0  0  0  0  0  0  0
    3.3140   -0.3730    1.8810 O   0  0  0  0  0  0  0  0  0  0  0  0
   -3.0600    0.0950    0.9280 C   0  0  0  0  0  0  0  0  0  0  0  0
   -3.1430    1.5200    1.0520 N   0  0  0  0  0  0  0  0  0  0  0  0
   -3.2320    1.9640    2.7290 S   0  0  2  0  0  0  0  0  0  0  0  0
   -2.4760    3.2310    2.9580 O   0  0  0  0  0  0  0  0  0  0  0  0
   -2.5360    0.8830    3.5220 O   0  0  0  0  0  0  0  0  0  0  0  0
  1  2  1  0
  2  3  1  0
  3  4  2  0
  3  5  1  0
  5  6  1  1
  5  7  1  0
  5 25  1  0
  7  8  1  0
  8  9  1  0
  9 10  2  0
  9 11  1  0
 11 12  1  6
 11 13  1  0
 13 14  1  0
 13 23  1  0
 14 15  2  0
 14 16  1  0
 16 17  1  0
 17 18  1  0
 17 22  2  0
 18 19  2  0
 19 20  1  0
 19 21  1  0
 21 22  1  0
 22 23  1  0
 23 24  2  0
 25 26  1  0
 27 26  1  6
 27 28  2  0
 27 29  2  0
M  END
