
     RDKit          3D

 15 16  0  0  0  0  0  0  0  0999 V2000
   -3.7560   -1.6930    0.3310 C   0  0  0  0  0  0  0  0  0  0  0  0
   -3.4410   -0.2390    0.1430 C   0  0  0  0  0  0  0  0  0  0  0  0
   -2.2830    0.4050    0.1520 C   0  0  0  0  0  0  0  0  0  0  0  0
   -0.8410    0.1030    0.3260 C   0  0  0  0  0  0  0  0  0  0  0  0
   -0.0680    0.4770   -0.8480 N   0  0  0  0  0  0  0  0  0  0  0  0
    1.3240    0.2930   -0.9330 C   0  0  0  0  0  0  0  0  0  0  0  0
    1.9980    0.6690   -2.0770 C   0  0  0  0  0  0  0  0  0  0  0  0
    3.3580    0.5120   -2.2130 C   0  0  0  0  0  0  0  0  0  0  0  0
    4.0660   -0.0410   -1.1650 C   0  0  0  0  0  0  0  0  0  0  0  0
    5.9640   -0.3050   -1.2500 Br  0  0  0  0  0  0  0  0  0  0  0  0
    3.4260   -0.4290   -0.0050 C   0  0  0  0  0  0  0  0  0  0  0  0
    4.1690   -1.0000    1.0700 N   0  0  0  0  0  0  0  0  0  0  0  0
    2.0680   -0.2600    0.1000 C   0  0  0  0  0  0  0  0  0  0  0  0
   -2.9980    1.6810   -0.1020 C   0  0  0  0  0  0  0  0  0  0  0  0
   -4.2980    0.9480   -0.1110 C   0  0  0  0  0  0  0  0  0  0  0  0
  1  2  1  0
  2  3  2  0
  2 15  1  0
  3  4  1  0
  3 14  1  0
  4  5  1  0
  5  6  1  0
  6  7  2  0
  6 13  1  0
  7  8  1  0
  8  9  2  0
  9 10  1  0
  9 11  1  0
 11 12  1  0
 11 13  2  0
 14 15  1  0
M  CHG  1  12   1
M  END
