
     RDKit          3D

 16 17  0  0  0  0  0  0  0  0999 V2000
    6.1650   -1.2770   -2.3060 Br  0  0  0  0  0  0  0  0  0  0  0  0
    5.1070   -0.4780   -0.9370 C   0  0  0  0  0  0  0  0  0  0  0  0
    5.4950    0.4110    0.0350 C   0  0  0  0  0  0  0  0  0  0  0  0
    4.4370    0.7240    0.7980 N   0  0  0  0  0  0  0  0  0  0  0  0
    3.3400    0.0690    0.3660 C   0  0  0  0  0  0  0  0  0  0  0  0
    1.9780    0.1570    0.9540 C   0  0  0  0  0  0  0  0  0  0  0  0
    1.0650   -0.6750    0.2360 N   0  0  0  0  0  0  0  0  0  0  0  0
   -0.3270   -0.2220    0.3970 C   0  0  1  0  0  0  0  0  0  0  0  0
   -0.4770    0.9870   -0.4930 C   0  0  0  0  0  0  0  0  0  0  0  0
   -1.8920    1.3960   -0.7160 C   0  0  0  0  0  0  0  0  0  0  0  0
   -2.7400    1.4080    0.5120 C   0  0  0  0  0  0  0  0  0  0  0  0
   -3.9920    0.6010    0.2350 C   0  0  0  0  0  0  0  0  0  0  0  0
   -3.6730   -0.8120   -0.1770 C   0  0  0  0  0  0  0  0  0  0  0  0
   -2.5320   -1.4090    0.6090 C   0  0  0  0  0  0  0  0  0  0  0  0
   -1.2220   -1.3130   -0.1120 C   0  0  0  0  0  0  0  0  0  0  0  0
    3.7410   -0.6830   -0.7130 C   0  0  0  0  0  0  0  0  0  0  0  0
  1  2  1  0
  2  3  2  0
  2 16  1  0
  3  4  1  0
  4  5  1  0
  5  6  1  0
  5 16  2  0
  6  7  1  0
  8  7  1  6
  8  9  1  0
  8 15  1  0
  9 10  1  0
 10 11  1  0
 11 12  1  0
 12 13  1  0
 13 14  1  0
 14 15  1  0
M  CHG  1   7   1
M  END
