
     RDKit          3D

 16 17  0  0  0  0  0  0  0  0999 V2000
   -2.6700   -1.2230    0.5400 C   0  0  0  0  0  0  0  0  0  0  0  0
   -2.2830    0.2300    0.3070 C   0  0  2  0  0  0  0  0  0  0  0  0
   -2.8890    1.0780    1.4000 C   0  0  0  0  0  0  0  0  0  0  0  0
   -2.8530    0.6550   -0.9950 C   0  0  0  0  0  0  0  0  0  0  0  0
   -4.2970    0.5120   -0.9270 N   0  0  0  0  0  0  0  0  0  0  0  0
   -0.7850    0.3220    0.3880 C   0  0  0  0  0  0  0  0  0  0  0  0
   -0.1000   -0.5400   -0.6450 C   0  0  0  0  0  0  0  0  0  0  0  0
    1.3930   -0.3960   -0.5020 C   0  0  0  0  0  0  0  0  0  0  0  0
    2.1770    0.5310   -1.1450 C   0  0  0  0  0  0  0  0  0  0  0  0
    3.4970    0.3370   -0.7480 C   0  0  0  0  0  0  0  0  0  0  0  0
    3.4970   -0.7150    0.1390 C   0  0  0  0  0  0  0  0  0  0  0  0
    2.2050   -1.1360    0.2650 N   0  0  0  0  0  0  0  0  0  0  0  0
    4.7240   -0.9690    0.5700 C   0  0  0  0  0  0  0  0  0  0  0  0
    5.1720   -2.3470    1.8110 Br  0  0  0  0  0  0  0  0  0  0  0  0
    5.6240   -0.0010   -0.0870 C   0  0  0  0  0  0  0  0  0  0  0  0
    4.7120    0.8010   -0.9240 C   0  0  0  0  0  0  0  0  0  0  0  0
  2  1  1  1
  2  3  1  0
  2  4  1  0
  2  6  1  0
  4  5  1  0
  6  7  1  0
  7  8  1  0
  8  9  2  0
  8 12  1  0
  9 10  1  0
 10 11  1  0
 10 16  2  0
 11 12  1  0
 11 13  2  0
 13 14  1  0
 13 15  1  0
 15 16  1  0
M  CHG  1   5   1
M  END
