
     RDKit          3D

 18 19  0  0  0  0  0  0  0  0999 V2000
    5.4500   -0.1780   -0.5410 C   0  0  0  0  0  0  0  0  0  0  0  0
    4.0880    0.1730   -0.5370 O   0  0  0  0  0  0  0  0  0  0  0  0
    3.0630   -0.6320   -0.0630 C   0  0  0  0  0  0  0  0  0  0  0  0
    3.3810   -1.7580    0.3940 O   0  0  0  0  0  0  0  0  0  0  0  0
    1.6760   -0.1820   -0.0990 C   0  0  0  0  0  0  0  0  0  0  0  0
    0.5890   -0.8360    0.3170 C   0  0  0  0  0  0  0  0  0  0  0  0
    0.5450   -2.1030    0.8830 O   0  0  0  0  0  0  0  0  0  0  0  0
   -0.5680    0.0600    0.0590 C   0  0  0  0  0  0  0  0  0  0  0  0
   -1.6830   -0.0090    0.7160 C   0  0  0  0  0  0  0  0  0  0  0  0
   -2.8690    0.8590    0.5060 C   0  0  0  0  0  0  0  0  0  0  0  0
   -4.1060    0.2130    0.2990 C   0  0  0  0  0  0  0  0  0  0  0  0
   -4.3280   -1.2220    0.2380 N   0  0  0  0  0  0  0  0  0  0  0  0
   -5.2180    1.4850    0.1430 S   0  0  0  0  0  0  0  0  0  0  0  0
   -4.0490    2.8430    0.3520 O   0  0  0  0  0  0  0  0  0  0  0  0
   -2.8750    2.1510    0.5270 C   0  0  0  0  0  0  0  0  0  0  0  0
   -1.8670    2.9310    0.7040 O   0  0  0  0  0  0  0  0  0  0  0  0
   -0.0740    0.8900   -1.0700 C   0  0  0  0  0  0  0  0  0  0  0  0
    1.2800    1.0780   -0.6100 O   0  0  0  0  0  0  0  0  0  0  0  0
  1  2  1  0
  2  3  1  0
  3  4  2  0
  3  5  1  0
  5  6  2  0
  5 18  1  0
  6  7  1  0
  6  8  1  0
  8  9  2  3
  8 17  1  0
  9 10  1  0
 10 11  2  0
 10 15  1  0
 11 12  1  0
 11 13  1  0
 13 14  1  0
 14 15  1  0
 15 16  2  0
 17 18  1  0
M  END
