
     RDKit          3D

 15 15  0  0  0  0  0  0  0  0999 V2000
    4.6450    1.4310   -0.1870 C   0  0  0  0  0  0  0  0  0  0  0  0
    4.7940   -0.0570   -0.3010 C   0  0  0  0  0  0  0  0  0  0  0  0
    6.5570   -0.7450   -0.2950 Br  0  0  0  0  0  0  0  0  0  0  0  0
    3.7230   -0.8450   -0.4060 C   0  0  0  0  0  0  0  0  0  0  0  0
    2.3600   -0.3650   -0.4280 C   0  0  0  0  0  0  0  0  0  0  0  0
    1.8250    0.6350   -1.1740 N   0  0  0  0  0  0  0  0  0  0  0  0
    0.5050    0.7650   -0.8920 C   0  0  0  0  0  0  0  0  0  0  0  0
    0.1640   -0.1640    0.0580 C   0  0  0  0  0  0  0  0  0  0  0  0
   -1.1870   -0.3540    0.6500 C   0  0  0  0  0  0  0  0  0  0  0  0
   -2.1580    0.5540    0.0890 N   0  0  0  0  0  0  0  0  0  0  0  0
   -3.5080    0.0340    0.1360 C   0  0  2  0  0  0  0  0  0  0  0  0
   -3.8670   -0.7420   -1.0960 C   0  0  0  0  0  0  0  0  0  0  0  0
   -4.4510    1.2350    0.1840 C   0  0  0  0  0  0  0  0  0  0  0  0
    1.3260   -0.8700    0.3460 C   0  0  0  0  0  0  0  0  0  0  0  0
    1.3820   -1.9600    1.3510 C   0  0  0  0  0  0  0  0  0  0  0  0
  1  2  1  0
  2  3  1  0
  2  4  2  3
  4  5  1  0
  5  6  1  0
  5 14  2  0
  6  7  1  0
  7  8  2  0
  8  9  1  0
  8 14  1  0
  9 10  1  0
 10 11  1  0
 11 12  1  6
 11 13  1  0
 14 15  1  0
M  CHG  1  10   1
M  END
