
     RDKit          3D

 18 19  0  0  0  0  0  0  0  0999 V2000
    0.2870    0.7080   -2.0260 O   0  0  0  0  0  0  0  0  0  0  0  0
    0.0500    0.2530   -0.8890 C   0  0  0  0  0  0  0  0  0  0  0  0
    1.1170   -0.0990   -0.0660 N   0  0  0  0  0  0  0  0  0  0  0  0
    2.4980    0.0040   -0.3870 C   0  0  0  0  0  0  0  0  0  0  0  0
    3.4830   -0.3580    0.4630 C   0  0  0  0  0  0  0  0  0  0  0  0
    3.3160   -0.8800    1.7650 O   0  0  0  0  0  0  0  0  0  0  0  0
    4.7920   -0.1290   -0.1660 C   0  0  0  0  0  0  0  0  0  0  0  0
    4.5070    0.3870   -1.4300 O   0  0  0  0  0  0  0  0  0  0  0  0
    3.1130    0.4830   -1.6020 C   0  0  0  0  0  0  0  0  0  0  0  0
    2.6400    0.9230   -2.6700 O   0  0  0  0  0  0  0  0  0  0  0  0
   -1.3850    0.1200   -0.4900 C   0  0  0  0  0  0  0  0  0  0  0  0
   -2.3140    0.4710   -1.3150 C   0  0  0  0  0  0  0  0  0  0  0  0
   -3.7650    0.4620   -1.2240 C   0  0  0  0  0  0  0  0  0  0  0  0
   -4.3110   -0.1550    0.3180 S   0  0  2  0  0  0  0  0  0  0  0  0
   -5.1370   -1.4160    0.0430 O   0  0  0  0  0  0  0  0  0  0  0  0
   -5.1870    0.8580    1.0240 O   0  0  0  0  0  0  0  0  0  0  0  0
   -2.9260   -0.5690    1.2800 C   0  0  0  0  0  0  0  0  0  0  0  0
   -1.7030   -0.4050    0.8220 C   0  0  0  0  0  0  0  0  0  0  0  0
  1  2  2  0
  2  3  1  0
  2 11  1  0
  3  4  1  0
  4  5  2  0
  4  9  1  0
  5  6  1  0
  5  7  1  0
  7  8  1  0
  8  9  1  0
  9 10  2  0
 11 12  2  0
 11 18  1  0
 12 13  1  0
 14 13  1  6
 14 15  2  0
 14 16  2  0
 14 17  1  0
 17 18  2  0
M  END
