
     RDKit          3D

 16 15  0  0  0  0  0  0  0  0999 V2000
   -6.2850   -0.5500   -0.0100 C   0  0  0  0  0  0  0  0  0  0  0  0
   -4.7940   -0.6220    0.0050 C   0  0  0  0  0  0  0  0  0  0  0  0
   -4.1480   -1.7950   -0.6370 C   0  0  0  0  0  0  0  0  0  0  0  0
   -4.0980    0.3390    0.5770 C   0  0  0  0  0  0  0  0  0  0  0  0
   -2.6050    0.2870    0.6030 C   0  0  0  0  0  0  0  0  0  0  0  0
   -2.0510    1.5180   -0.1200 C   0  0  0  0  0  0  0  0  0  0  0  0
   -0.5660    1.4900   -0.1080 C   0  0  0  0  0  0  0  0  0  0  0  0
    0.1680    2.6040   -0.7630 C   0  0  0  0  0  0  0  0  0  0  0  0
    0.1080    0.5040    0.4680 C   0  0  0  0  0  0  0  0  0  0  0  0
    1.6000    0.4770    0.4790 C   0  0  0  0  0  0  0  0  0  0  0  0
    2.0010   -0.8080   -0.2440 C   0  0  0  0  0  0  0  0  0  0  0  0
    3.4880   -0.9400   -0.2910 C   0  0  0  0  0  0  0  0  0  0  0  0
    4.1260   -2.0960   -0.9360 C   0  0  0  0  0  0  0  0  0  0  0  0
    4.2660   -0.0010    0.2580 C   0  0  0  0  0  0  0  0  0  0  0  0
    5.7380   -0.1680    0.1910 C   0  0  0  0  0  0  0  0  0  0  0  0
    6.2290    0.9530   -0.5130 O   0  0  0  0  0  0  0  0  0  0  0  0
  1  2  1  0
  2  3  1  0
  2  4  2  3
  4  5  1  0
  5  6  1  0
  6  7  1  0
  7  8  1  0
  7  9  2  3
  9 10  1  0
 10 11  1  0
 11 12  1  0
 12 13  1  0
 12 14  2  3
 14 15  1  0
 15 16  1  0
M  END
