
     RDKit          3D

 21 24  0  0  0  0  0  0  0  0999 V2000
   -6.9580   -0.2700    0.6720 C   0  0  0  0  0  0  0  0  0  0  0  0
   -6.7740    0.9600    1.2290 C   0  0  0  0  0  0  0  0  0  0  0  0
   -5.0010    1.1800    1.1360 S   0  0  0  0  0  0  0  0  0  0  0  0
   -4.6670   -0.3730    0.3710 C   0  0  0  0  0  0  0  0  0  0  0  0
   -3.3230   -0.8650   -0.0080 C   0  0  0  0  0  0  0  0  0  0  0  0
   -3.0270   -2.0330   -0.5890 N   0  0  0  0  0  0  0  0  0  0  0  0
   -1.7190   -2.0800   -0.7550 N   0  0  0  0  0  0  0  0  0  0  0  0
   -1.1670   -0.9270   -0.2760 C   0  0  0  0  0  0  0  0  0  0  0  0
    0.2430   -0.5840   -0.2700 C   0  0  0  0  0  0  0  0  0  0  0  0
    0.6440    0.6210    0.2500 C   0  0  0  0  0  0  0  0  0  0  0  0
    2.0000    0.9800    0.2690 C   0  0  0  0  0  0  0  0  0  0  0  0
    2.9220    0.1220   -0.2350 C   0  0  0  0  0  0  0  0  0  0  0  0
    4.3390    0.5000   -0.2140 C   0  0  0  0  0  0  0  0  0  0  0  0
    4.8810    1.6710    0.2750 C   0  0  0  0  0  0  0  0  0  0  0  0
    6.2440    1.5820    0.0820 C   0  0  0  0  0  0  0  0  0  0  0  0
    6.5160    0.3950   -0.5040 N   0  0  0  0  0  0  0  0  0  0  0  0
    5.3650   -0.2200   -0.6660 N   0  0  0  0  0  0  0  0  0  0  0  0
    2.5550   -1.0870   -0.7620 C   0  0  0  0  0  0  0  0  0  0  0  0
    1.1960   -1.4300   -0.7720 C   0  0  0  0  0  0  0  0  0  0  0  0
   -2.1890   -0.2370    0.1610 O   0  0  0  0  0  0  0  0  0  0  0  0
   -5.8650   -0.9370    0.2390 C   0  0  0  0  0  0  0  0  0  0  0  0
  1  2  2  0
  1 21  1  0
  2  3  1  0
  3  4  1  0
  4  5  1  0
  4 21  2  0
  5  6  2  0
  5 20  1  0
  6  7  1  0
  7  8  2  0
  8  9  1  0
  8 20  1  0
  9 10  2  0
  9 19  1  0
 10 11  1  0
 11 12  2  0
 12 13  1  0
 12 18  1  0
 13 14  1  0
 13 17  2  0
 14 15  2  0
 15 16  1  0
 16 17  1  0
 18 19  2  0
M  END
