
     RDKit          3D

 28 31  0  0  0  0  0  0  0  0999 V2000
    6.4080   -0.8680   -0.2560 C   0  0  0  0  0  0  0  0  0  0  0  0
    5.0240   -0.7120   -0.4790 O   0  0  0  0  0  0  0  0  0  0  0  0
    4.3580    0.4810   -0.4160 C   0  0  0  0  0  0  0  0  0  0  0  0
    5.0680    1.5060   -0.1330 O   0  0  0  0  0  0  0  0  0  0  0  0
    2.9210    0.6630   -0.6480 C   0  0  2  0  0  0  0  0  0  0  0  0
    2.3290    1.8240    0.1560 C   0  0  0  0  0  0  0  0  0  0  0  0
    1.1630    2.3490   -0.6160 C   0  0  0  0  0  0  0  0  0  0  0  0
    0.6050    3.6250   -0.0950 C   0  0  0  0  0  0  0  0  0  0  0  0
   -0.3370    3.6470    0.8590 C   0  0  0  0  0  0  0  0  0  0  0  0
   -0.8900    2.4210    1.4650 C   0  0  0  0  0  0  0  0  0  0  0  0
   -2.2940    2.1110    1.0000 C   0  0  0  0  0  0  0  0  0  0  0  0
   -2.5600    0.9000    0.5060 C   0  0  0  0  0  0  0  0  0  0  0  0
   -1.5850    0.0080    0.4330 N   0  0  0  0  0  0  0  0  0  0  0  0
   -1.7030   -1.3000   -0.0030 C   0  0  0  0  0  0  0  0  0  0  0  0
   -3.0040   -1.6030   -0.3750 C   0  0  0  0  0  0  0  0  0  0  0  0
   -4.0560   -0.7170   -0.3230 C   0  0  0  0  0  0  0  0  0  0  0  0
   -3.8480    0.5520    0.1210 C   0  0  0  0  0  0  0  0  0  0  0  0
   -4.8440    1.4200    0.1780 C   0  0  0  0  0  0  0  0  0  0  0  0
   -6.1610    0.9820   -0.2430 C   0  0  0  0  0  0  0  0  0  0  0  0
   -6.3970   -0.2000   -0.6630 N   0  0  0  0  0  0  0  0  0  0  0  0
   -5.3760   -1.1820   -0.7510 C   0  0  0  0  0  0  0  0  0  0  0  0
   -0.5110   -2.0330    0.0280 N   0  0  0  0  0  0  0  0  0  0  0  0
    0.1750   -2.3360    1.3220 C   0  0  0  0  0  0  0  0  0  0  0  0
    1.4080   -1.4540    1.4110 C   0  0  0  0  0  0  0  0  0  0  0  0
    2.2470   -1.5560    0.1720 C   0  0  1  0  0  0  0  0  0  0  0  0
    1.7560   -2.8270   -0.5350 C   0  0  0  0  0  0  0  0  0  0  0  0
    0.3510   -2.5540   -1.0190 C   0  0  0  0  0  0  0  0  0  0  0  0
    2.1120   -0.4830   -0.7520 N   0  0  0  0  0  0  0  0  0  0  0  0
  1  2  1  0
  2  3  1  0
  3  4  2  0
  5  3  1  1
  5  6  1  0
  5 28  1  0
  6  7  1  0
  7  8  1  0
  8  9  2  0
  9 10  1  0
 10 11  1  0
 11 12  2  0
 12 13  1  0
 12 17  1  0
 13 14  2  0
 14 15  1  0
 14 22  1  0
 15 16  2  0
 16 17  1  0
 16 21  1  0
 17 18  2  0
 18 19  1  0
 19 20  2  0
 20 21  1  0
 22 23  1  0
 22 27  1  0
 23 24  1  0
 24 25  1  0
 25 26  1  6
 25 28  1  0
 26 27  1  0
M  CHG  2  20   1  28   1
M  END
