
     RDKit          3D

 21 24  0  0  0  0  0  0  0  0999 V2000
   -3.8580   -2.4080    2.2510 C   0  0  0  0  0  0  0  0  0  0  0  0
   -2.8750   -1.8300    1.2810 C   0  0  0  0  0  0  0  0  0  0  0  0
   -2.4550   -2.4090    0.1030 C   0  0  0  0  0  0  0  0  0  0  0  0
   -1.5630   -1.5430   -0.4600 C   0  0  0  0  0  0  0  0  0  0  0  0
   -1.4610   -0.4620    0.3830 C   0  0  0  0  0  0  0  0  0  0  0  0
   -0.6330    0.7610    0.2470 C   0  0  2  0  0  0  0  0  0  0  0  0
   -1.2050    1.6560   -0.7910 C   0  0  0  0  0  0  0  0  0  0  0  0
   -2.4080    1.7530   -1.3860 N   0  0  0  0  0  0  0  0  0  0  0  0
   -2.3790    2.7590   -2.2680 C   0  0  0  0  0  0  0  0  0  0  0  0
   -1.1130    3.2970   -2.2090 C   0  0  0  0  0  0  0  0  0  0  0  0
   -0.4110    2.6090   -1.3000 N   0  0  0  0  0  0  0  0  0  0  0  0
    0.9400    2.7700   -0.8700 C   0  0  0  0  0  0  0  0  0  0  0  0
    1.5560    1.5610   -0.2450 C   0  0  0  0  0  0  0  0  0  0  0  0
    0.7130    0.4180   -0.1660 N   0  0  0  0  0  0  0  0  0  0  0  0
    1.2280   -0.5190    0.8060 C   0  0  0  0  0  0  0  0  0  0  0  0
    2.6090   -0.9730    0.4180 C   0  0  0  0  0  0  0  0  0  0  0  0
    3.4270   -0.8700   -0.3680 N   0  0  0  0  0  0  0  0  0  0  0  0
    4.6000   -1.4240   -0.4440 C   0  0  0  0  0  0  0  0  0  0  0  0
    4.9630   -2.2850    0.5650 C   0  0  0  0  0  0  0  0  0  0  0  0
    3.4260   -2.1890    1.6090 S   0  0  0  0  0  0  0  0  0  0  0  0
   -2.2610   -0.6970    1.3910 O   0  0  0  0  0  0  0  0  0  0  0  0
  1  2  1  0
  2  3  2  0
  2 21  1  0
  3  4  1  0
  4  5  2  0
  6  5  1  6
  5 21  1  0
  6  7  1  0
  6 14  1  0
  7  8  2  0
  7 11  1  0
  8  9  1  0
  9 10  2  0
 10 11  1  0
 11 12  1  0
 12 13  1  0
 13 14  1  0
 14 15  1  0
 15 16  1  0
 16 17  2  0
 16 20  1  0
 17 18  1  0
 18 19  2  0
 19 20  1  0
M  END
