
     RDKit          3D

 21 24  0  0  0  0  0  0  0  0999 V2000
    3.4970    2.0560    0.1170 C   0  0  0  0  0  0  0  0  0  0  0  0
    4.3070    0.8230    0.1160 C   0  0  0  0  0  0  0  0  0  0  0  0
    6.0950    0.7810    0.2070 S   0  0  0  0  0  0  0  0  0  0  0  0
    6.2150   -1.0110    0.1500 C   0  0  0  0  0  0  0  0  0  0  0  0
    4.9250   -1.4240    0.0690 C   0  0  0  0  0  0  0  0  0  0  0  0
    3.9540   -0.4850    0.0520 C   0  0  0  0  0  0  0  0  0  0  0  0
    2.5020   -0.8280   -0.0350 C   0  0  0  0  0  0  0  0  0  0  0  0
    2.0130   -2.0640   -0.1030 N   0  0  0  0  0  0  0  0  0  0  0  0
    0.7120   -2.0190   -0.1680 O   0  0  0  0  0  0  0  0  0  0  0  0
    0.3140   -0.7740   -0.1450 C   0  0  0  0  0  0  0  0  0  0  0  0
   -1.0590   -0.3140   -0.2000 C   0  0  0  0  0  0  0  0  0  0  0  0
   -1.3850    1.0350   -0.1700 C   0  0  0  0  0  0  0  0  0  0  0  0
   -2.7110    1.4070   -0.2250 C   0  0  0  0  0  0  0  0  0  0  0  0
   -3.7230    0.4720   -0.3100 C   0  0  0  0  0  0  0  0  0  0  0  0
   -5.0590    0.8220   -0.3660 C   0  0  0  0  0  0  0  0  0  0  0  0
   -6.0620   -0.1320   -0.4510 C   0  0  0  0  0  0  0  0  0  0  0  0
   -5.6520   -1.4490   -0.4760 C   0  0  0  0  0  0  0  0  0  0  0  0
   -4.3480   -1.7820   -0.4200 N   0  0  0  0  0  0  0  0  0  0  0  0
   -3.3610   -0.8600   -0.3370 C   0  0  0  0  0  0  0  0  0  0  0  0
   -2.0600   -1.2120   -0.2830 N   0  0  0  0  0  0  0  0  0  0  0  0
    1.4480   -0.0220   -0.0610 N   0  0  0  0  0  0  0  0  0  0  0  0
  1  2  1  0
  2  3  1  0
  2  6  2  0
  3  4  1  0
  4  5  2  0
  5  6  1  0
  6  7  1  0
  7  8  2  0
  7 21  1  0
  8  9  1  0
  9 10  1  0
 10 11  1  0
 10 21  2  0
 11 12  2  0
 11 20  1  0
 12 13  1  0
 13 14  2  0
 14 15  1  0
 14 19  1  0
 15 16  2  0
 16 17  1  0
 17 18  2  0
 18 19  1  0
 19 20  2  0
M  END
