
     RDKit          3D

 21 24  0  0  0  0  0  0  0  0999 V2000
   -3.7780   -2.3800   -0.4480 C   0  0  0  0  0  0  0  0  0  0  0  0
   -4.5210   -1.7590    0.5440 C   0  0  0  0  0  0  0  0  0  0  0  0
   -3.9300   -0.8530    1.3440 N   0  0  0  0  0  0  0  0  0  0  0  0
   -2.6330   -0.5030    1.2400 C   0  0  0  0  0  0  0  0  0  0  0  0
   -1.8700   -1.0890    0.2790 C   0  0  0  0  0  0  0  0  0  0  0  0
   -0.4740   -0.7260    0.1510 C   0  0  0  0  0  0  0  0  0  0  0  0
    0.9410   -1.8040    0.3860 S   0  0  0  0  0  0  0  0  0  0  0  0
    2.1680   -0.5310    0.0330 C   0  0  0  0  0  0  0  0  0  0  0  0
    3.5630   -0.7750    0.0590 N   0  0  0  0  0  0  0  0  0  0  0  0
    4.4840    0.1550   -0.1240 C   0  0  0  0  0  0  0  0  0  0  0  0
    5.7400   -0.4270   -0.0350 C   0  0  0  0  0  0  0  0  0  0  0  0
    5.5050   -1.7600    0.2140 C   0  0  0  0  0  0  0  0  0  0  0  0
    4.1800   -1.9210    0.2620 N   0  0  0  0  0  0  0  0  0  0  0  0
    1.4250    0.4890   -0.2040 N   0  0  0  0  0  0  0  0  0  0  0  0
    0.1360    0.4700   -0.1660 C   0  0  0  0  0  0  0  0  0  0  0  0
   -0.7130    1.6660   -0.4450 C   0  0  0  0  0  0  0  0  0  0  0  0
   -0.7110    2.8530    0.2570 C   0  0  0  0  0  0  0  0  0  0  0  0
   -1.6400    3.7180   -0.3100 C   0  0  0  0  0  0  0  0  0  0  0  0
   -2.1720    2.9750   -1.3630 C   0  0  0  0  0  0  0  0  0  0  0  0
   -1.6020    1.7970   -1.3970 O   0  0  0  0  0  0  0  0  0  0  0  0
   -2.4480   -2.0230   -0.5570 C   0  0  0  0  0  0  0  0  0  0  0  0
  1  2  2  0
  1 21  1  0
  2  3  1  0
  3  4  2  0
  4  5  1  0
  5  6  1  0
  5 21  2  0
  6  7  1  0
  6 15  2  0
  7  8  1  0
  8  9  1  0
  8 14  2  0
  9 10  1  0
  9 13  1  0
 10 11  2  0
 11 12  1  0
 12 13  2  0
 14 15  1  0
 15 16  1  0
 16 17  2  0
 16 20  1  0
 17 18  1  0
 18 19  2  0
 19 20  1  0
M  END
