
     RDKit          3D

 21 24  0  0  0  0  0  0  0  0999 V2000
   -4.9200    1.6600    0.5850 C   0  0  0  0  0  0  0  0  0  0  0  0
   -4.4300    1.6500   -0.7050 C   0  0  0  0  0  0  0  0  0  0  0  0
   -3.5030    0.6720   -1.0510 C   0  0  0  0  0  0  0  0  0  0  0  0
   -3.0750   -0.2730   -0.1430 C   0  0  0  0  0  0  0  0  0  0  0  0
   -2.1590   -1.2130   -0.5460 O   0  0  0  0  0  0  0  0  0  0  0  0
   -0.7850   -1.0390   -0.4490 C   0  0  0  0  0  0  0  0  0  0  0  0
   -0.2010    0.1000    0.0630 C   0  0  0  0  0  0  0  0  0  0  0  0
    1.1810    0.2450    0.1470 C   0  0  0  0  0  0  0  0  0  0  0  0
    2.0030   -0.7580   -0.2860 C   0  0  0  0  0  0  0  0  0  0  0  0
    1.4190   -1.9140   -0.8060 C   0  0  0  0  0  0  0  0  0  0  0  0
    2.4880   -2.7190   -1.1470 C   0  0  0  0  0  0  0  0  0  0  0  0
    3.6090   -2.0380   -0.8300 N   0  0  0  0  0  0  0  0  0  0  0  0
    3.3420   -0.8730   -0.3180 N   0  0  0  0  0  0  0  0  0  0  0  0
    4.3190    0.0590    0.1090 C   0  0  0  0  0  0  0  0  0  0  0  0
    5.4540    0.4530   -0.3020 N   0  0  0  0  0  0  0  0  0  0  0  0
    6.1130    1.3560    0.3470 N   0  0  0  0  0  0  0  0  0  0  0  0
    5.7860    1.9070    1.3400 C   0  0  0  0  0  0  0  0  0  0  0  0
    4.1070    1.0530    1.5890 S   0  0  0  0  0  0  0  0  0  0  0  0
    0.0440   -2.0500   -0.8860 C   0  0  0  0  0  0  0  0  0  0  0  0
   -3.5830   -0.2390    1.1410 C   0  0  0  0  0  0  0  0  0  0  0  0
   -4.5020    0.7190    1.5130 C   0  0  0  0  0  0  0  0  0  0  0  0
  1  2  2  0
  1 21  1  0
  2  3  1  0
  3  4  2  0
  4  5  1  0
  4 20  1  0
  5  6  1  0
  6  7  2  0
  6 19  1  0
  7  8  1  0
  8  9  2  0
  9 10  1  0
  9 13  1  0
 10 11  1  0
 10 19  2  0
 11 12  2  0
 12 13  1  0
 13 14  1  0
 14 15  2  0
 14 18  1  0
 15 16  1  0
 16 17  2  0
 17 18  1  0
 20 21  2  0
M  END
