
     RDKit          3D

 21 24  0  0  0  0  0  0  0  0999 V2000
   -1.4920   -2.8870   -1.4440 C   0  0  0  0  0  0  0  0  0  0  0  0
   -0.1500   -2.4450   -1.1940 N   0  0  0  0  0  0  0  0  0  0  0  0
    0.9590   -3.1260   -1.5460 N   0  0  0  0  0  0  0  0  0  0  0  0
    2.0440   -2.4570   -1.2190 C   0  0  0  0  0  0  0  0  0  0  0  0
    1.6670   -1.2850   -0.6270 C   0  0  0  0  0  0  0  0  0  0  0  0
    2.0330   -0.0970   -0.0490 C   0  0  0  0  0  0  0  0  0  0  0  0
    3.4610    0.3610    0.1610 C   0  0  0  0  0  0  0  0  0  0  0  0
    3.8970    1.4940    0.7120 C   0  0  0  0  0  0  0  0  0  0  0  0
    5.2180    1.7200    0.8090 C   0  0  0  0  0  0  0  0  0  0  0  0
    6.0480    0.7540    0.3270 C   0  0  0  0  0  0  0  0  0  0  0  0
    4.8680   -0.4860   -0.2690 S   0  0  0  0  0  0  0  0  0  0  0  0
    0.9450    0.5430    0.2770 N   0  0  0  0  0  0  0  0  0  0  0  0
   -0.1610   -0.1580   -0.0540 N   0  0  0  0  0  0  0  0  0  0  0  0
   -1.4500    0.3100    0.1620 C   0  0  0  0  0  0  0  0  0  0  0  0
   -1.4870    1.6210    0.5010 C   0  0  0  0  0  0  0  0  0  0  0  0
   -2.5790    2.5340    0.8140 C   0  0  0  0  0  0  0  0  0  0  0  0
   -3.8710    2.2910    0.7400 C   0  0  0  0  0  0  0  0  0  0  0  0
   -4.4760    0.9790    0.3060 C   0  0  0  0  0  0  0  0  0  0  0  0
   -3.6980    0.0260    0.9540 O   0  0  0  0  0  0  0  0  0  0  0  0
   -2.6590   -0.4810    0.1160 C   0  0  0  0  0  0  0  0  0  0  0  0
    0.2560   -1.3010   -0.6210 C   0  0  0  0  0  0  0  0  0  0  0  0
  1  2  1  0
  2  3  1  0
  2 21  1  0
  3  4  2  0
  4  5  1  0
  5  6  1  0
  5 21  2  0
  6  7  1  0
  6 12  2  0
  7  8  2  0
  7 11  1  0
  8  9  1  0
  9 10  2  0
 10 11  1  0
 12 13  1  0
 13 14  1  0
 13 21  1  0
 14 15  2  0
 14 20  1  0
 15 16  1  0
 16 17  2  0
 17 18  1  0
 18 19  1  0
 19 20  1  0
M  END
