
     RDKit          3D

 28 32  0  0  0  0  0  0  0  0999 V2000
    5.0090    2.4220   -1.5870 C   0  0  0  0  0  0  0  0  0  0  0  0
    4.7860    1.2980   -0.8030 O   0  0  0  0  0  0  0  0  0  0  0  0
    3.4710    0.8760   -0.8150 C   0  0  1  0  0  0  0  0  0  0  0  0
    3.3040   -0.5100   -1.3700 C   0  0  0  0  0  0  0  0  0  0  0  0
    2.4030   -1.3960   -0.6030 C   0  0  0  0  0  0  0  0  0  0  0  0
    1.2200   -0.7840    0.0280 C   0  0  2  0  0  0  0  0  0  0  0  0
    0.9140   -1.3990    1.4080 C   0  0  0  0  0  0  0  0  0  0  0  0
   -0.4570   -0.8650    1.6020 C   0  0  0  0  0  0  0  0  0  0  0  0
   -1.1640   -0.5530    2.7370 C   0  0  0  0  0  0  0  0  0  0  0  0
   -2.4680   -0.0520    2.6710 C   0  0  0  0  0  0  0  0  0  0  0  0
   -3.0750    0.1400    1.4460 C   0  0  0  0  0  0  0  0  0  0  0  0
   -4.4200    0.6560    1.3200 C   0  0  0  0  0  0  0  0  0  0  0  0
   -5.3760    0.3950    2.2700 C   0  0  0  0  0  0  0  0  0  0  0  0
   -6.6440    0.8870    2.1430 N   0  0  0  0  0  0  0  0  0  0  0  0
   -6.9620    1.6290    1.0870 C   0  0  0  0  0  0  0  0  0  0  0  0
   -6.0540    1.9150    0.1230 N   0  0  0  0  0  0  0  0  0  0  0  0
   -4.7810    1.4270    0.2410 C   0  0  0  0  0  0  0  0  0  0  0  0
   -2.3330   -0.1860    0.3110 C   0  0  0  0  0  0  0  0  0  0  0  0
   -1.0670   -0.6720    0.3810 C   0  0  0  0  0  0  0  0  0  0  0  0
   -0.0940   -1.0840   -0.6440 C   0  0  1  0  0  0  0  0  0  0  0  0
   -0.2710   -0.3960   -1.9570 C   0  0  0  0  0  0  0  0  0  0  0  0
   -1.1540   -1.3210   -2.6160 O   0  0  0  0  0  0  0  0  0  0  0  0
   -0.8910   -2.5860   -2.0560 C   0  0  0  0  0  0  0  0  0  0  0  0
   -1.2790   -3.7910   -2.7170 N   0  0  0  0  0  0  0  0  0  0  0  0
   -0.2840   -2.4650   -0.9260 N   0  0  0  0  0  0  0  0  0  0  0  0
    1.3120    0.6990    0.2690 C   0  0  0  0  0  0  0  0  0  0  0  0
    2.7980    0.9770    0.5360 C   0  0  2  0  0  0  0  0  0  0  0  0
    3.0080    2.2950    1.1940 C   0  0  0  0  0  0  0  0  0  0  0  0
  1  2  1  0
  3  2  1  1
  3  4  1  0
  3 27  1  0
  4  5  1  0
  6  5  1  6
  6  7  1  0
  6 20  1  0
  6 26  1  0
  7  8  1  0
  8  9  2  0
  8 19  1  0
  9 10  1  0
 10 11  2  0
 11 12  1  0
 11 18  1  0
 12 13  2  0
 12 17  1  0
 13 14  1  0
 14 15  2  0
 15 16  1  0
 16 17  2  0
 18 19  2  0
 19 20  1  0
 20 21  1  6
 20 25  1  0
 21 22  1  0
 22 23  1  0
 23 24  1  0
 23 25  2  0
 26 27  1  0
 27 28  1  6
M  CHG  1  25   1
M  END
