
     RDKit          3D

 21 24  0  0  0  0  0  0  0  0999 V2000
   -2.7840   -2.4460    0.3380 C   0  0  0  0  0  0  0  0  0  0  0  0
   -3.3010   -1.1580    0.3920 O   0  0  0  0  0  0  0  0  0  0  0  0
   -2.5480   -0.0080    0.3290 C   0  0  0  0  0  0  0  0  0  0  0  0
   -1.2040   -0.1100    0.2050 N   0  0  0  0  0  0  0  0  0  0  0  0
   -0.5120    1.0180    0.1470 C   0  0  0  0  0  0  0  0  0  0  0  0
   -1.1010    2.2540    0.2080 C   0  0  0  0  0  0  0  0  0  0  0  0
   -0.0870    3.1730    0.1200 C   0  0  0  0  0  0  0  0  0  0  0  0
    1.0700    2.5050    0.0100 N   0  0  0  0  0  0  0  0  0  0  0  0
    0.8340    1.2020    0.0250 N   0  0  0  0  0  0  0  0  0  0  0  0
    1.8350    0.1940   -0.0730 C   0  0  0  0  0  0  0  0  0  0  0  0
    2.0920   -0.4510   -1.2700 C   0  0  0  0  0  0  0  0  0  0  0  0
    3.0660   -1.4280   -1.3500 C   0  0  0  0  0  0  0  0  0  0  0  0
    3.8120   -1.7930   -0.2480 C   0  0  0  0  0  0  0  0  0  0  0  0
    4.8610   -2.8480   -0.3450 C   0  0  0  0  0  0  0  0  0  0  0  0
    3.5500   -1.1570    0.9080 N   0  0  0  0  0  0  0  0  0  0  0  0
    2.6020   -0.1970    1.0110 C   0  0  0  0  0  0  0  0  0  0  0  0
   -2.5150    2.3600    0.3380 C   0  0  0  0  0  0  0  0  0  0  0  0
   -3.1490    3.5760    0.4030 C   0  0  0  0  0  0  0  0  0  0  0  0
   -4.9080    3.0750    0.5620 S   0  0  0  0  0  0  0  0  0  0  0  0
   -4.5970    1.3530    0.5240 C   0  0  0  0  0  0  0  0  0  0  0  0
   -3.2060    1.2310    0.3960 C   0  0  0  0  0  0  0  0  0  0  0  0
  1  2  1  0
  2  3  1  0
  3  4  2  0
  3 21  1  0
  4  5  1  0
  5  6  2  0
  5  9  1  0
  6  7  1  0
  6 17  1  0
  7  8  2  0
  8  9  1  0
  9 10  1  0
 10 11  2  0
 10 16  1  0
 11 12  1  0
 12 13  2  0
 13 14  1  0
 13 15  1  0
 15 16  2  0
 17 18  2  0
 17 21  1  0
 18 19  1  0
 19 20  1  0
 20 21  2  0
M  END
