
     RDKit          3D

 28 31  0  0  0  0  0  0  0  0999 V2000
   -6.0100    0.8560   -0.7050 C   0  0  0  0  0  0  0  0  0  0  0  0
   -4.6090    0.4360   -0.3790 C   0  0  0  0  0  0  0  0  0  0  0  0
   -4.0580   -0.7250   -0.8840 C   0  0  0  0  0  0  0  0  0  0  0  0
   -2.7550   -1.1020   -0.5700 C   0  0  0  0  0  0  0  0  0  0  0  0
   -2.0650   -0.2630    0.2560 C   0  0  0  0  0  0  0  0  0  0  0  0
   -2.6070    0.8920    0.7630 C   0  0  0  0  0  0  0  0  0  0  0  0
   -1.8330    1.7990    1.6770 C   0  0  0  0  0  0  0  0  0  0  0  0
   -3.9080    1.2810    0.4580 C   0  0  0  0  0  0  0  0  0  0  0  0
   -4.4740    2.5090    0.9890 C   0  0  0  0  0  0  0  0  0  0  0  0
   -5.1190    2.4870    2.0850 O   0  0  0  0  0  0  0  0  0  0  0  0
   -0.6380   -0.6470    0.5840 C   0  0  2  0  0  0  0  0  0  0  0  0
    0.2040   -0.3390   -0.6100 C   0  0  0  0  0  0  0  0  0  0  0  0
    1.5660   -0.5810   -0.5590 N   0  0  0  0  0  0  0  0  0  0  0  0
    2.3110   -0.5090   -1.7630 C   0  0  0  0  0  0  0  0  0  0  0  0
    3.2860   -1.6590   -1.8370 C   0  0  0  0  0  0  0  0  0  0  0  0
    3.6210   -2.1770   -0.5400 N   0  0  0  0  0  0  0  0  0  0  0  0
    3.2350   -1.6030    0.7040 C   0  0  0  0  0  0  0  0  0  0  0  0
    3.6480   -2.0740    1.7760 O   0  0  0  0  0  0  0  0  0  0  0  0
    2.3050   -0.4000    0.6340 C   0  0  1  0  0  0  0  0  0  0  0  0
    3.2130    0.7720    0.4980 C   0  0  0  0  0  0  0  0  0  0  0  0
    4.5540    0.7090    0.8960 C   0  0  0  0  0  0  0  0  0  0  0  0
    5.4030    1.7840    0.7880 C   0  0  0  0  0  0  0  0  0  0  0  0
    4.9420    2.9700    0.2750 C   0  0  0  0  0  0  0  0  0  0  0  0
    3.6450    3.0630   -0.1210 C   0  0  0  0  0  0  0  0  0  0  0  0
    2.7960    1.9740   -0.0090 C   0  0  0  0  0  0  0  0  0  0  0  0
   -0.7550   -2.1470    0.8250 C   0  0  0  0  0  0  0  0  0  0  0  0
   -1.1570   -2.8720   -0.4320 C   0  0  0  0  0  0  0  0  0  0  0  0
   -2.2630   -2.3110   -1.1130 N   0  0  0  0  0  0  0  0  0  0  0  0
  1  2  1  0
  2  3  2  0
  2  8  1  0
  3  4  1  0
  4  5  2  0
  4 28  1  0
  5  6  1  0
  5 11  1  0
  6  7  1  0
  6  8  2  0
  8  9  1  0
  9 10  2  0
 11 12  1  6
 11 26  1  0
 12 13  1  0
 13 14  1  0
 13 19  1  0
 14 15  1  0
 15 16  1  0
 16 17  1  0
 17 18  2  0
 17 19  1  0
 19 20  1  6
 20 21  2  0
 20 25  1  0
 21 22  1  0
 22 23  2  0
 23 24  1  0
 24 25  2  0
 26 27  1  0
 27 28  1  0
M  CHG  1  28   1
M  END
