
     RDKit          3D

 28 32  0  0  0  0  0  0  0  0999 V2000
   -6.6380    1.2290   -0.6600 C   0  0  0  0  0  0  0  0  0  0  0  0
   -5.2570    1.1620   -0.5820 O   0  0  0  0  0  0  0  0  0  0  0  0
   -4.8240   -0.0350   -0.0640 C   0  0  1  0  0  0  0  0  0  0  0  0
   -4.0090   -0.8270   -1.0320 C   0  0  0  0  0  0  0  0  0  0  0  0
   -2.8540   -1.5340   -0.3540 C   0  0  0  0  0  0  0  0  0  0  0  0
   -1.8800   -0.4730    0.0690 C   0  0  2  0  0  0  0  0  0  0  0  0
   -2.5870    0.5020    0.9470 C   0  0  0  0  0  0  0  0  0  0  0  0
   -4.0220    0.1370    1.2100 C   0  0  0  0  0  0  0  0  0  0  0  0
   -1.4300    0.2590   -1.1960 C   0  0  0  0  0  0  0  0  0  0  0  0
   -0.0330    0.5940   -0.9680 C   0  0  0  0  0  0  0  0  0  0  0  0
    0.8020    1.4780   -1.6150 C   0  0  0  0  0  0  0  0  0  0  0  0
    2.1130    1.6330   -1.2170 C   0  0  0  0  0  0  0  0  0  0  0  0
    2.5980    0.8940   -0.1590 C   0  0  0  0  0  0  0  0  0  0  0  0
    3.9810    1.0420    0.2770 C   0  0  0  0  0  0  0  0  0  0  0  0
    4.3610    0.8720    1.5960 C   0  0  0  0  0  0  0  0  0  0  0  0
    5.6300    1.0040    2.0110 N   0  0  0  0  0  0  0  0  0  0  0  0
    6.6070    1.3110    1.1570 C   0  0  0  0  0  0  0  0  0  0  0  0
    6.2890    1.4940   -0.1780 C   0  0  0  0  0  0  0  0  0  0  0  0
    7.3480    1.8380   -1.1680 C   0  0  0  0  0  0  0  0  0  0  0  0
    4.9960    1.3600   -0.6050 C   0  0  0  0  0  0  0  0  0  0  0  0
    1.7760    0.0030    0.5020 C   0  0  0  0  0  0  0  0  0  0  0  0
    0.4560   -0.1260    0.0710 C   0  0  0  0  0  0  0  0  0  0  0  0
   -0.5870   -0.9960    0.6080 C   0  0  1  0  0  0  0  0  0  0  0  0
   -0.5100   -0.9650    2.1120 C   0  0  0  0  0  0  0  0  0  0  0  0
    0.4760   -1.9930    2.3170 O   0  0  0  0  0  0  0  0  0  0  0  0
    0.2950   -2.9100    1.2620 C   0  0  0  0  0  0  0  0  0  0  0  0
    0.7590   -4.2680    1.3590 N   0  0  0  0  0  0  0  0  0  0  0  0
   -0.3140   -2.3520    0.2750 N   0  0  0  0  0  0  0  0  0  0  0  0
  1  2  1  0
  3  2  1  6
  3  4  1  0
  3  8  1  0
  4  5  1  0
  6  5  1  6
  6  7  1  0
  6  9  1  0
  6 23  1  0
  7  8  1  0
  9 10  1  0
 10 11  2  0
 10 22  1  0
 11 12  1  0
 12 13  2  0
 13 14  1  0
 13 21  1  0
 14 15  2  0
 14 20  1  0
 15 16  1  0
 16 17  2  0
 17 18  1  0
 18 19  1  0
 18 20  2  0
 21 22  2  0
 22 23  1  0
 23 24  1  1
 23 28  1  0
 24 25  1  0
 25 26  1  0
 26 27  1  0
 26 28  2  0
M  CHG  1  28   1
M  END
