
     RDKit          3D

 28 31  0  0  0  0  0  0  0  0999 V2000
    5.5790   -2.2950    0.1310 C   0  0  0  0  0  0  0  0  0  0  0  0
    6.2780   -1.1900    0.8570 C   0  0  0  0  0  0  0  0  0  0  0  0
    7.4270   -1.3990    1.4690 C   0  0  0  0  0  0  0  0  0  0  0  0
    8.0400   -0.3700    2.1240 O   0  0  0  0  0  0  0  0  0  0  0  0
    7.5320    0.9320    2.1990 C   0  0  0  0  0  0  0  0  0  0  0  0
    6.2470    1.1140    1.4990 C   0  0  0  0  0  0  0  0  0  0  0  0
    5.6470    0.1230    0.8650 C   0  0  0  0  0  0  0  0  0  0  0  0
    4.3970    0.3340    0.1940 N   0  0  0  0  0  0  0  0  0  0  0  0
    4.2560    0.7690   -1.1710 C   0  0  0  0  0  0  0  0  0  0  0  0
    2.8550    1.3840   -1.2420 C   0  0  1  0  0  0  0  0  0  0  0  0
    2.1850    0.8880   -2.4770 C   0  0  0  0  0  0  0  0  0  0  0  0
    2.1710    1.0860    0.0420 C   0  0  1  0  0  0  0  0  0  0  0  0
    0.8750    0.5060   -0.0420 N   0  0  0  0  0  0  0  0  0  0  0  0
   -0.1830    0.9410    0.8050 C   0  0  0  0  0  0  0  0  0  0  0  0
    0.0060    1.8620    1.6680 O   0  0  0  0  0  0  0  0  0  0  0  0
   -1.4900    0.3300    0.6850 C   0  0  0  0  0  0  0  0  0  0  0  0
   -2.0830   -0.3910    1.6960 C   0  0  0  0  0  0  0  0  0  0  0  0
   -3.3350   -0.9430    1.5730 C   0  0  0  0  0  0  0  0  0  0  0  0
   -4.0530   -0.7830    0.3940 C   0  0  0  0  0  0  0  0  0  0  0  0
   -5.3620   -1.4020    0.2950 C   0  0  0  0  0  0  0  0  0  0  0  0
   -6.4160   -0.7270   -0.0720 C   0  0  0  0  0  0  0  0  0  0  0  0
   -6.5820    0.6760   -0.4450 C   0  0  0  0  0  0  0  0  0  0  0  0
   -8.0870    0.8460   -0.6500 C   0  0  0  0  0  0  0  0  0  0  0  0
   -8.6070   -0.4560   -0.9340 N   0  0  0  0  0  0  0  0  0  0  0  0
   -7.7840   -1.3420   -0.1760 C   0  0  0  0  0  0  0  0  0  0  0  0
   -3.4690   -0.0660   -0.6230 C   0  0  0  0  0  0  0  0  0  0  0  0
   -2.1940    0.4900   -0.4830 C   0  0  0  0  0  0  0  0  0  0  0  0
    3.1110    0.1480    0.8050 C   0  0  0  0  0  0  0  0  0  0  0  0
  1  2  1  0
  2  3  2  0
  2  7  1  0
  3  4  1  0
  4  5  1  0
  5  6  1  0
  6  7  2  0
  7  8  1  0
  8  9  1  0
  8 28  1  0
  9 10  1  0
 10 11  1  6
 10 12  1  0
 12 13  1  6
 12 28  1  0
 13 14  1  0
 14 15  2  0
 14 16  1  0
 16 17  2  0
 16 27  1  0
 17 18  1  0
 18 19  2  0
 19 20  1  0
 19 26  1  0
 20 21  2  3
 21 22  1  0
 21 25  1  0
 22 23  1  0
 23 24  1  0
 24 25  1  0
 26 27  2  0
M  CHG  1  24   1
M  END
