
     RDKit          3D

 28 32  0  0  0  0  0  0  0  0999 V2000
   -0.2360   -2.4820    0.7880 C   0  0  0  0  0  0  0  0  0  0  0  0
   -0.8400   -1.1510    1.1070 C   0  0  1  0  0  0  0  0  0  0  0  0
   -0.0560   -0.1030    0.3930 C   0  0  0  0  0  0  0  0  0  0  0  0
   -0.7110    0.6210   -0.3880 O   0  0  0  0  0  0  0  0  0  0  0  0
    1.3300    0.0690    0.5810 N   0  0  0  0  0  0  0  0  0  0  0  0
    2.0470    1.0770   -0.0850 C   0  0  0  0  0  0  0  0  0  0  0  0
    1.4390    2.3480   -0.1570 C   0  0  0  0  0  0  0  0  0  0  0  0
    2.1380    3.4670   -0.4900 C   0  0  0  0  0  0  0  0  0  0  0  0
    3.4730    3.3660   -0.7640 C   0  0  0  0  0  0  0  0  0  0  0  0
    4.0860    2.1390   -0.7060 C   0  0  0  0  0  0  0  0  0  0  0  0
    3.3750    0.9790   -0.3700 C   0  0  0  0  0  0  0  0  0  0  0  0
    4.0520   -0.3080   -0.3340 C   0  0  0  0  0  0  0  0  0  0  0  0
    3.3580   -1.4890   -0.2010 C   0  0  0  0  0  0  0  0  0  0  0  0
    4.0670   -2.6760   -0.3390 C   0  0  0  0  0  0  0  0  0  0  0  0
    5.4150   -2.6800   -0.6050 C   0  0  0  0  0  0  0  0  0  0  0  0
    6.1040   -1.4990   -0.7430 C   0  0  0  0  0  0  0  0  0  0  0  0
    5.4200   -0.3250   -0.6070 C   0  0  0  0  0  0  0  0  0  0  0  0
    6.1230    0.8760   -0.7450 O   0  0  0  0  0  0  0  0  0  0  0  0
    5.5180    2.0870   -1.0150 C   0  0  0  0  0  0  0  0  0  0  0  0
   -2.2640   -1.1110    0.7620 N   0  0  2  0  0  0  0  0  0  0  0  0
   -2.4710   -1.4870   -0.5910 C   0  0  0  0  0  0  0  0  0  0  0  0
   -3.7050   -0.9300   -1.2390 C   0  0  0  0  0  0  0  0  0  0  0  0
   -3.7780    0.4960   -1.0570 N   0  0  0  0  0  0  0  0  0  0  0  0
   -5.0290    0.9620   -1.5930 C   0  0  0  0  0  0  0  0  0  0  0  0
   -6.0270    0.9620   -0.4750 C   0  0  0  0  0  0  0  0  0  0  0  0
   -5.2540    0.3800    0.6910 C   0  0  0  0  0  0  0  0  0  0  0  0
   -3.8340    0.7650    0.3380 C   0  0  1  0  0  0  0  0  0  0  0  0
   -2.8150    0.1230    1.1960 C   0  0  0  0  0  0  0  0  0  0  0  0
  2  1  1  6
  2  3  1  0
  2 20  1  0
  3  4  2  0
  3  5  1  0
  5  6  1  0
  6  7  2  0
  6 11  1  0
  7  8  1  0
  8  9  2  0
  9 10  1  0
 10 11  2  0
 10 19  1  0
 11 12  1  0
 12 13  2  0
 12 17  1  0
 13 14  1  0
 14 15  2  0
 15 16  1  0
 16 17  2  0
 17 18  1  0
 18 19  1  0
 20 21  1  6
 20 28  1  0
 21 22  1  0
 22 23  1  0
 23 24  1  0
 23 27  1  0
 24 25  1  0
 25 26  1  0
 27 26  1  1
 27 28  1  0
M  CHG  1  20   1
M  END
