
     RDKit          3D

 39 41  0  0  0  0  0  0  0  0999 V2000
   -6.0180    3.7230   -0.1130 C   0  0  0  0  0  0  0  0  0  0  0  0
   -5.7590    2.3160    0.3620 C   0  0  0  0  0  0  0  0  0  0  0  0
   -5.8260    2.0330    1.5750 O   0  0  0  0  0  0  0  0  0  0  0  0
   -5.4300    1.2850   -0.5600 N   0  0  0  0  0  0  0  0  0  0  0  0
   -5.1710   -0.0720   -0.2280 C   0  0  1  0  0  0  0  0  0  0  0  0
   -3.7770   -0.5260   -0.1080 C   0  0  1  0  0  0  0  0  0  0  0  0
   -2.9700    0.5970    0.0810 O   0  0  0  0  0  0  0  0  0  0  0  0
   -1.9590    0.7310   -1.2590 P   0  0  1  0  0  0  0  0  0  0  0  0
   -1.3090   -0.6140   -1.5390 O   0  0  0  0  0  0  0  0  0  0  0  0
   -2.7370    1.2430   -2.6480 O   0  0  0  0  0  0  0  0  0  0  0  0
   -0.7540    1.8680   -0.8280 O   0  0  0  0  0  0  0  0  0  0  0  0
    0.3560    1.0130    0.0650 P   0  0  1  0  0  0  0  0  0  0  0  0
    0.1800    1.4110    1.5820 O   0  0  0  0  0  0  0  0  0  0  0  0
    0.1280   -0.6530    0.0720 O   0  0  0  0  0  0  0  0  0  0  0  0
    1.9110    1.3800   -0.3480 O   0  0  0  0  0  0  0  0  0  0  0  0
    2.6150    0.1680   -0.6480 C   0  0  0  0  0  0  0  0  0  0  0  0
    3.5770    0.1880    0.5350 C   0  0  1  0  0  0  0  0  0  0  0  0
    4.6120   -0.6320    0.3990 O   0  0  0  0  0  0  0  0  0  0  0  0
    5.7560    0.1650    0.6330 C   0  0  1  0  0  0  0  0  0  0  0  0
    6.9260   -0.3140    0.0070 N   0  0  0  0  0  0  0  0  0  0  0  0
    7.2300   -0.0690   -1.2910 C   0  0  0  0  0  0  0  0  0  0  0  0
    8.4100   -0.5880   -1.7910 C   0  0  0  0  0  0  0  0  0  0  0  0
    9.2490   -1.3350   -0.9860 C   0  0  0  0  0  0  0  0  0  0  0  0
   10.3180   -1.8310   -1.3950 O   0  0  0  0  0  0  0  0  0  0  0  0
    8.8990   -1.5490    0.2880 N   0  0  0  0  0  0  0  0  0  0  0  0
    7.7670   -1.0460    0.7560 C   0  0  0  0  0  0  0  0  0  0  0  0
    7.4760   -1.2780    1.9810 O   0  0  0  0  0  0  0  0  0  0  0  0
    5.3390    1.5300    0.0980 C   0  0  2  0  0  0  0  0  0  0  0  0
    6.1870    2.5260    0.4500 O   0  0  0  0  0  0  0  0  0  0  0  0
    3.9910    1.6140    0.7810 C   0  0  2  0  0  0  0  0  0  0  0  0
    4.1320    1.7250    2.1710 O   0  0  0  0  0  0  0  0  0  0  0  0
   -3.5960   -1.4170    0.9330 O   0  0  0  0  0  0  0  0  0  0  0  0
   -4.4890   -2.4750    0.9170 C   0  0  2  0  0  0  0  0  0  0  0  0
   -4.2770   -3.3200   -0.3160 C   0  0  0  0  0  0  0  0  0  0  0  0
   -5.1180   -4.4050   -0.4060 O   0  0  0  0  0  0  0  0  0  0  0  0
   -5.9100   -2.0010    1.0270 C   0  0  2  0  0  0  0  0  0  0  0  0
   -6.7700   -2.4710    0.0790 O   0  0  0  0  0  0  0  0  0  0  0  0
   -5.8830   -0.4710    1.0760 C   0  0  2  0  0  0  0  0  0  0  0  0
   -7.1830    0.0080    1.0500 O   0  0  0  0  0  0  0  0  0  0  0  0
  1  2  1  0
  2  3  2  0
  2  4  1  0
  5  4  1  1
  5  6  1  0
  5 38  1  0
  6  7  1  1
  6 32  1  0
  7  8  1  0
  8  9  2  0
  8 10  1  6
  8 11  1  0
 11 12  1  0
 12 13  2  0
 12 14  1  1
 12 15  1  0
 15 16  1  0
 17 16  1  6
 17 18  1  0
 17 30  1  0
 18 19  1  0
 19 20  1  6
 19 28  1  0
 20 21  1  0
 20 26  1  0
 21 22  2  0
 22 23  1  0
 23 24  2  0
 23 25  1  0
 25 26  1  0
 26 27  2  0
 28 29  1  1
 28 30  1  0
 30 31  1  1
 32 33  1  0
 33 34  1  6
 33 36  1  0
 34 35  1  0
 36 37  1  6
 36 38  1  0
 38 39  1  6
M  END
