
     RDKit          3D

 34 34  0  0  0  0  0  0  0  0999 V2000
   -8.3180   -0.8390   -1.2850 C   0  0  0  0  0  0  0  0  0  0  0  0
   -7.7930   -1.1190    0.4630 P   0  0  0  0  0  0  0  0  0  0  0  0
   -7.8780   -2.7750    0.9150 O   0  0  0  0  0  0  0  0  0  0  0  0
   -6.1240   -0.3940    0.7080 C   0  0  0  0  0  0  0  0  0  0  0  0
   -5.0810   -1.1140   -0.1000 C   0  0  0  0  0  0  0  0  0  0  0  0
   -5.4530   -2.0630   -0.8000 O   0  0  0  0  0  0  0  0  0  0  0  0
   -3.7370   -0.7230   -0.0600 N   0  0  0  0  0  0  0  0  0  0  0  0
   -3.2970    0.4420   -0.3080 C   0  0  0  0  0  0  0  0  0  0  0  0
   -1.8800    0.7830   -0.2490 N   0  0  0  0  0  0  0  0  0  0  0  0
   -1.5130    2.0820   -0.5360 C   0  0  0  0  0  0  0  0  0  0  0  0
   -2.5010    2.8860   -0.8320 O   0  0  0  0  0  0  0  0  0  0  0  0
   -0.2230    2.6870   -0.5600 C   0  0  0  0  0  0  0  0  0  0  0  0
    0.8700    2.1410   -0.3210 O   0  0  0  0  0  0  0  0  0  0  0  0
   -0.0970    4.0700   -0.8870 O   0  0  0  0  0  0  0  0  0  0  0  0
   -1.0370   -0.2690    0.1060 C   0  0  0  0  0  0  0  0  0  0  0  0
   -1.5480   -1.4950    0.3500 C   0  0  0  0  0  0  0  0  0  0  0  0
   -1.9290   -2.6520    0.2340 O   0  0  0  0  0  0  0  0  0  0  0  0
    0.3750   -0.2590    0.2700 N   0  0  0  0  0  0  0  0  0  0  0  0
    0.9110   -0.5260    1.4250 C   0  0  0  0  0  0  0  0  0  0  0  0
    0.2430   -0.8120    2.4900 O   0  0  0  0  0  0  0  0  0  0  0  0
    1.0460   -1.0360    3.5140 C   0  0  0  0  0  0  0  0  0  0  0  0
    2.2800   -0.8810    3.0570 N   0  0  0  0  0  0  0  0  0  0  0  0
    2.2050   -0.5640    1.7590 N   0  0  0  0  0  0  0  0  0  0  0  0
    3.3380   -0.3450    0.9360 C   0  0  0  0  0  0  0  0  0  0  0  0
    4.6400   -0.3920    1.5370 N   0  0  0  0  0  0  0  0  0  0  0  0
    3.2900   -0.0960   -0.3590 C   0  0  0  0  0  0  0  0  0  0  0  0
    4.5160    0.1150   -1.1090 C   0  0  0  0  0  0  0  0  0  0  0  0
    4.4580    0.3490   -2.3320 O   0  0  0  0  0  0  0  0  0  0  0  0
    5.7690    0.0670   -0.5110 O   0  0  0  0  0  0  0  0  0  0  0  0
    6.9260    0.2600   -1.1870 O   0  0  0  0  0  0  0  0  0  0  0  0
    7.2250   -0.3880   -2.3760 C   0  0  0  0  0  0  0  0  0  0  0  0
    8.7820   -0.6510   -2.8880 P   0  0  0  0  0  0  0  0  0  0  0  0
   10.1400   -0.1220   -1.9500 O   0  0  0  0  0  0  0  0  0  0  0  0
    9.8800   -0.1990   -0.6570 O   0  0  0  0  0  0  0  0  0  0  0  0
  1  2  1  0
  2  3  1  0
  2  4  1  0
  4  5  1  0
  5  6  2  0
  5  7  1  0
  7  8  2  3
  8  9  1  0
  9 10  1  0
  9 15  1  0
 10 11  2  0
 10 12  1  0
 12 13  2  0
 12 14  1  0
 15 16  2  0
 15 18  1  0
 16 17  2  0
 18 19  2  3
 19 20  1  0
 19 23  1  0
 20 21  1  0
 21 22  2  0
 22 23  1  0
 23 24  1  0
 24 25  1  0
 24 26  2  3
 26 27  1  0
 27 28  2  0
 27 29  1  0
 29 30  1  0
 30 31  1  0
 31 32  2  3
 32 33  1  0
 33 34  1  0
M  END
