
     RDKit          3D

 34 35  0  0  0  0  0  0  0  0999 V2000
   -3.6370   -3.2980   -0.6240 C   0  0  0  0  0  0  0  0  0  0  0  0
   -2.4220   -2.7680    0.6510 P   0  0  0  0  0  0  0  0  0  0  0  0
   -0.8320   -2.9380    0.0430 O   0  0  0  0  0  0  0  0  0  0  0  0
   -0.3580   -1.8600   -0.6480 C   0  0  2  0  0  0  0  0  0  0  0  0
   -0.4470   -2.2290   -2.1110 C   0  0  0  0  0  0  0  0  0  0  0  0
   -0.8750   -3.3140   -2.5170 O   0  0  0  0  0  0  0  0  0  0  0  0
   -0.0170   -1.2830   -3.0540 O   0  0  0  0  0  0  0  0  0  0  0  0
    1.1460   -1.7700   -0.3890 C   0  0  0  0  0  0  0  0  0  0  0  0
    1.4940   -1.9180    1.0240 C   0  0  0  0  0  0  0  0  0  0  0  0
    0.4550   -2.3510    2.2380 P   0  0  0  0  0  0  0  0  0  0  0  0
    0.9630   -2.4960    3.8680 O   0  0  0  0  0  0  0  0  0  0  0  0
    3.2340   -1.5950    1.4930 P   0  0  0  0  0  0  0  0  0  0  0  0
    4.4380   -2.5150    0.4620 C   0  0  0  0  0  0  0  0  0  0  0  0
    3.5720    0.2470    1.4410 C   0  0  0  0  0  0  0  0  0  0  0  0
    4.3210    0.6380    0.5670 N   0  0  0  0  0  0  0  0  0  0  0  0
    4.9620    1.6370   -0.0440 N   0  0  0  0  0  0  0  0  0  0  0  0
    4.2520    2.7490   -0.6180 C   0  0  0  0  0  0  0  0  0  0  0  0
    4.7880    3.5120   -1.4600 O   0  0  0  0  0  0  0  0  0  0  0  0
    2.5050    3.0440   -0.0870 P   0  0  0  0  0  0  0  0  0  0  0  0
    1.7900    4.2360   -1.1180 O   0  0  0  0  0  0  0  0  0  0  0  0
    0.8010    4.0420   -2.0570 C   0  0  0  0  0  0  0  0  0  0  0  0
    0.9510    4.6440   -3.1720 O   0  0  0  0  0  0  0  0  0  0  0  0
   -0.3500    3.2410   -1.8850 N   0  0  0  0  0  0  0  0  0  0  0  0
   -0.3720    1.9020   -1.3330 C   0  0  0  0  0  0  0  0  0  0  0  0
   -1.1490    1.9720   -0.0750 C   0  0  0  0  0  0  0  0  0  0  0  0
   -0.9040    2.9410    0.6900 O   0  0  0  0  0  0  0  0  0  0  0  0
   -2.1390    1.0340    0.3210 N   0  0  0  0  0  0  0  0  0  0  0  0
   -3.2860    1.4570    1.1330 C   0  0  0  0  0  0  0  0  0  0  0  0
   -2.9730    1.3360    2.6090 C   0  0  0  0  0  0  0  0  0  0  0  0
   -4.1190    1.7580    3.2920 O   0  0  0  0  0  0  0  0  0  0  0  0
   -2.0850   -0.3760   -0.0430 C   0  0  2  0  0  0  0  0  0  0  0  0
   -3.0790   -0.5500   -1.1160 N   0  0  0  0  0  0  0  0  0  0  0  0
   -2.5800   -1.0840    1.0420 O   0  0  0  0  0  0  0  0  0  0  0  0
   -0.8880   -0.6690   -0.4910 O   0  0  0  0  0  0  0  0  0  0  0  0
  1  2  1  0
  2  3  1  0
  2 33  1  0
  3  4  1  0
  4  5  1  6
  4  8  1  0
  4 34  1  0
  5  6  2  0
  5  7  1  0
  8  9  1  0
  9 10  2  3
  9 12  1  0
 10 11  1  0
 12 13  1  0
 12 14  1  0
 14 15  2  0
 15 16  1  0
 16 17  1  0
 17 18  2  0
 17 19  1  0
 19 20  1  0
 20 21  1  0
 21 22  2  0
 21 23  1  0
 23 24  1  0
 24 25  1  0
 25 26  2  0
 25 27  1  0
 27 28  1  0
 27 31  1  0
 28 29  1  0
 29 30  1  0
 31 32  1  6
 31 33  1  0
 31 34  1  0
M  END
