
     RDKit          3D

 34 36  0  0  0  0  0  0  0  0999 V2000
   -3.0200   -2.7490   -3.4310 O   0  0  0  0  0  0  0  0  0  0  0  0
   -3.3930   -2.4250   -2.2760 C   0  0  0  0  0  0  0  0  0  0  0  0
   -2.4160   -2.2170   -1.3140 O   0  0  0  0  0  0  0  0  0  0  0  0
   -1.0750   -2.3550   -1.5910 C   0  0  0  0  0  0  0  0  0  0  0  0
   -0.1220   -2.1060   -0.4820 C   0  0  1  0  0  0  0  0  0  0  0  0
   -0.3560   -3.0150    0.5790 O   0  0  0  0  0  0  0  0  0  0  0  0
    0.8210   -3.6630    0.8390 C   0  0  0  0  0  0  0  0  0  0  0  0
    1.8260   -3.0470    0.1390 O   0  0  0  0  0  0  0  0  0  0  0  0
    1.2090   -2.5900   -0.9860 C   0  0  2  0  0  0  0  0  0  0  0  0
    1.8320   -1.3050   -1.5190 C   0  0  0  0  0  0  0  0  0  0  0  0
    1.4850   -0.3740   -0.3800 C   0  0  1  0  0  0  0  0  0  0  0  0
    2.5410   -0.4220    0.6510 C   0  0  0  0  0  0  0  0  0  0  0  0
    3.5500   -1.1300    0.4540 O   0  0  0  0  0  0  0  0  0  0  0  0
    2.4730    0.3030    1.8680 N   0  0  0  0  0  0  0  0  0  0  0  0
    3.4830    0.2870    2.9020 C   0  0  0  0  0  0  0  0  0  0  0  0
    4.7880    0.8000    2.3500 C   0  0  0  0  0  0  0  0  0  0  0  0
    5.7950    0.7990    3.3360 O   0  0  0  0  0  0  0  0  0  0  0  0
    7.2280    1.4040    2.5830 P   0  0  0  0  0  0  0  0  0  0  0  0
    6.9240    2.7950    1.6100 O   0  0  0  0  0  0  0  0  0  0  0  0
    8.0900    0.1760    1.7270 O   0  0  0  0  0  0  0  0  0  0  0  0
    0.9670    0.9690   -0.7190 C   0  0  0  0  0  0  0  0  0  0  0  0
   -0.4380    0.4380   -0.5980 C   0  0  2  0  0  0  0  0  0  0  0  0
   -1.1090    0.2970   -1.8050 O   0  0  0  0  0  0  0  0  0  0  0  0
   -1.2950    1.2200    0.3320 C   0  0  0  0  0  0  0  0  0  0  0  0
   -0.9720    1.5110    1.5130 O   0  0  0  0  0  0  0  0  0  0  0  0
   -2.5730    1.6920   -0.0890 N   0  0  0  0  0  0  0  0  0  0  0  0
   -3.4480    2.4550    0.7690 C   0  0  0  0  0  0  0  0  0  0  0  0
   -4.7040    2.7820   -0.0050 C   0  0  0  0  0  0  0  0  0  0  0  0
   -5.3640    1.6280   -0.4170 O   0  0  0  0  0  0  0  0  0  0  0  0
   -6.7960    1.9640   -1.3000 P   0  0  0  0  0  0  0  0  0  0  0  0
   -8.0790    2.5120   -0.2700 O   0  0  0  0  0  0  0  0  0  0  0  0
   -7.2760    0.6520   -2.3070 O   0  0  0  0  0  0  0  0  0  0  0  0
    0.0950   -0.7840    0.0350 C   0  0  1  0  0  0  0  0  0  0  0  0
   -0.0490   -0.7280    1.4430 O   0  0  0  0  0  0  0  0  0  0  0  0
  1  2  2  0
  2  3  1  0
  3  4  1  0
  5  4  1  6
  5  6  1  0
  5  9  1  0
  5 33  1  0
  6  7  1  0
  7  8  1  0
  8  9  1  0
  9 10  1  1
 10 11  1  0
 11 12  1  1
 11 21  1  0
 11 33  1  0
 12 13  2  0
 12 14  1  0
 14 15  1  0
 15 16  1  0
 16 17  1  0
 17 18  1  0
 18 19  1  0
 18 20  1  0
 21 22  1  0
 22 23  1  6
 22 24  1  0
 22 33  1  0
 24 25  2  0
 24 26  1  0
 26 27  1  0
 27 28  1  0
 28 29  1  0
 29 30  1  0
 30 31  1  0
 30 32  1  0
 33 34  1  1
M  END
