
     RDKit          3D

 34 35  0  0  0  0  0  0  0  0999 V2000
   -2.2730    3.1710   -1.5960 C   0  0  0  0  0  0  0  0  0  0  0  0
   -3.3370    1.9430   -1.2800 P   0  0  0  0  0  0  0  0  0  0  0  0
   -3.5700    0.2790   -2.7020 P   0  0  0  0  0  0  0  0  0  0  0  0
   -5.3690    0.1560   -3.1530 C   0  0  0  0  0  0  0  0  0  0  0  0
   -3.1360   -1.2070   -1.9140 O   0  0  0  0  0  0  0  0  0  0  0  0
   -4.1880   -1.6830   -1.3450 O   0  0  0  0  0  0  0  0  0  0  0  0
   -4.0350   -2.4160   -0.2170 C   0  0  0  0  0  0  0  0  0  0  0  0
   -3.3730   -1.6340    0.8930 N   0  0  0  0  0  0  0  0  0  0  0  0
   -4.2590   -0.9540    1.6880 C   0  0  0  0  0  0  0  0  0  0  0  0
   -5.5420   -1.1090    1.4090 O   0  0  0  0  0  0  0  0  0  0  0  0
   -4.1070   -0.1110    2.7500 O   0  0  0  0  0  0  0  0  0  0  0  0
   -5.1220    0.5230    3.4720 C   0  0  0  0  0  0  0  0  0  0  0  0
   -2.0040   -1.7130    0.8860 C   0  0  0  0  0  0  0  0  0  0  0  0
   -1.5680   -2.4070   -0.2120 O   0  0  0  0  0  0  0  0  0  0  0  0
   -0.9300   -1.2850    1.6780 N   0  0  0  0  0  0  0  0  0  0  0  0
   -0.8020   -0.7020    2.9360 C   0  0  0  0  0  0  0  0  0  0  0  0
   -1.6910   -0.5450    3.8050 O   0  0  0  0  0  0  0  0  0  0  0  0
    0.5880   -0.2690    3.1470 N   0  0  0  0  0  0  0  0  0  0  0  0
    1.2870   -0.5650    2.1230 C   0  0  0  0  0  0  0  0  0  0  0  0
    2.5270   -0.5750    1.4150 N   0  0  0  0  0  0  0  0  0  0  0  0
    2.1890   -0.8180    0.0290 C   0  0  0  0  0  0  0  0  0  0  0  0
    3.0470   -0.9020   -0.9630 C   0  0  0  0  0  0  0  0  0  0  0  0
    4.4890   -0.7480   -0.7280 C   0  0  0  0  0  0  0  0  0  0  0  0
    5.0690    0.3330   -1.4440 O   0  0  0  0  0  0  0  0  0  0  0  0
    4.6090    1.6040   -1.2190 C   0  0  0  0  0  0  0  0  0  0  0  0
    3.6860    1.8920   -0.4030 O   0  0  0  0  0  0  0  0  0  0  0  0
    5.2170    2.7510   -1.9720 C   0  0  1  0  0  0  0  0  0  0  0  0
    5.8970    3.6230   -0.9290 C   0  0  0  0  0  0  0  0  0  0  0  0
    6.2120    2.2790   -2.8240 O   0  0  0  0  0  0  0  0  0  0  0  0
    5.8870    2.6360   -4.0490 O   0  0  0  0  0  0  0  0  0  0  0  0
    0.7770   -0.9370    0.0010 O   0  0  0  0  0  0  0  0  0  0  0  0
    0.4560   -1.4760    1.2420 C   0  0  2  0  0  0  0  0  0  0  0  0
    0.9860   -3.1800    1.3500 S   0  0  0  0  0  0  0  0  0  0  0  0
    1.0690   -3.7700    3.0000 N   0  0  0  0  0  0  0  0  0  0  0  0
  1  2  2  0
  2  3  1  0
  3  4  1  0
  3  5  1  0
  5  6  1  0
  6  7  1  0
  7  8  1  0
  8  9  1  0
  8 13  1  0
  9 10  2  0
  9 11  1  0
 11 12  1  0
 13 14  2  0
 13 15  1  0
 15 16  1  0
 15 32  1  0
 16 17  2  0
 16 18  1  0
 18 19  2  0
 19 20  1  0
 19 32  1  0
 20 21  1  0
 21 22  2  3
 21 31  1  0
 22 23  1  0
 23 24  1  0
 24 25  1  0
 25 26  2  0
 25 27  1  0
 27 28  1  1
 27 29  1  0
 29 30  1  0
 31 32  1  0
 32 33  1  6
 33 34  1  0
M  END
