
     RDKit          3D

 34 35  0  0  0  0  0  0  0  0999 V2000
    0.2840   -5.7890    0.2190 C   0  0  0  0  0  0  0  0  0  0  0  0
   -0.1230   -4.9980    1.2550 O   0  0  0  0  0  0  0  0  0  0  0  0
   -0.1700   -3.6530    1.0420 C   0  0  0  0  0  0  0  0  0  0  0  0
   -1.0870   -3.1840   -0.0010 C   0  0  0  0  0  0  0  0  0  0  0  0
   -1.7880   -4.0400   -0.6000 O   0  0  0  0  0  0  0  0  0  0  0  0
   -1.2250   -1.8210   -0.3710 N   0  0  0  0  0  0  0  0  0  0  0  0
   -2.1520   -1.4390   -1.4120 C   0  0  0  0  0  0  0  0  0  0  0  0
   -0.4330   -0.8060    0.2880 C   0  0  1  0  0  0  0  0  0  0  0  0
   -0.5940   -0.8880    1.6880 O   0  0  0  0  0  0  0  0  0  0  0  0
    0.9530   -1.1050   -0.0180 N   0  0  0  0  0  0  0  0  0  0  0  0
    1.7790   -0.1900   -0.3250 N   0  0  0  0  0  0  0  0  0  0  0  0
    3.0930   -0.4630   -0.6150 O   0  0  0  0  0  0  0  0  0  0  0  0
    4.0790    0.3510   -0.0970 C   0  0  0  0  0  0  0  0  0  0  0  0
    3.7340    1.3190    0.6270 O   0  0  0  0  0  0  0  0  0  0  0  0
    5.4310    0.1740   -0.3210 O   0  0  0  0  0  0  0  0  0  0  0  0
    6.5920    1.3000    0.4110 P   0  0  0  0  0  0  0  0  0  0  0  0
    8.3870    1.4220   -0.8440 P   0  0  0  0  0  0  0  0  0  0  0  0
    8.9840    3.1550   -0.8220 C   0  0  0  0  0  0  0  0  0  0  0  0
    8.6930    3.8610   -1.7710 O   0  0  0  0  0  0  0  0  0  0  0  0
    9.6360    0.3750   -0.1990 O   0  0  0  0  0  0  0  0  0  0  0  0
    9.4190   -0.8300   -0.7120 O   0  0  0  0  0  0  0  0  0  0  0  0
   -0.7060    0.5570   -0.2040 C   0  0  0  0  0  0  0  0  0  0  0  0
    0.0860    1.4000   -0.8500 C   0  0  0  0  0  0  0  0  0  0  0  0
   -0.5950    2.1910   -1.6680 C   0  0  0  0  0  0  0  0  0  0  0  0
   -1.8280    2.3190   -1.0350 O   0  0  0  0  0  0  0  0  0  0  0  0
   -1.9210    1.2870   -0.0960 N   0  0  0  0  0  0  0  0  0  0  0  0
   -3.0190    1.0140    0.8080 C   0  0  0  0  0  0  0  0  0  0  0  0
   -4.0860    2.0690    0.5450 C   0  0  2  0  0  0  0  0  0  0  0  0
   -5.2820    1.8620    1.4510 C   0  0  0  0  0  0  0  0  0  0  0  0
   -6.3850    2.7230    1.0720 N   0  0  0  0  0  0  0  0  0  0  0  0
   -6.6570    2.7880   -0.3400 C   0  0  0  0  0  0  0  0  0  0  0  0
   -7.6170    3.5010   -0.7900 O   0  0  0  0  0  0  0  0  0  0  0  0
   -5.8260    2.0410   -1.1610 O   0  0  0  0  0  0  0  0  0  0  0  0
   -4.4370    2.0520   -0.9060 C   0  0  0  0  0  0  0  0  0  0  0  0
  1  2  1  0
  2  3  1  0
  3  4  1  0
  4  5  2  0
  4  6  1  0
  6  7  1  0
  6  8  1  0
  8  9  1  1
  8 10  1  0
  8 22  1  0
 10 11  2  3
 11 12  1  0
 12 13  1  0
 13 14  2  0
 13 15  1  0
 15 16  1  0
 16 17  1  0
 17 18  1  0
 17 20  1  0
 18 19  2  0
 20 21  1  0
 22 23  2  0
 22 26  1  0
 23 24  2  0
 24 25  1  0
 25 26  1  0
 26 27  1  0
 28 27  1  6
 28 29  1  0
 28 34  1  0
 29 30  1  0
 30 31  1  0
 31 32  2  0
 31 33  1  0
 33 34  1  0
M  END
