
     RDKit          3D

 34 34  0  0  0  0  0  0  0  0999 V2000
   -8.7640    1.9280   -0.2390 C   0  0  0  0  0  0  0  0  0  0  0  0
   -9.2680    0.6580   -0.5080 O   0  0  0  0  0  0  0  0  0  0  0  0
   -8.6840   -0.2020    0.3370 O   0  0  0  0  0  0  0  0  0  0  0  0
   -8.3700   -1.5010    0.0070 C   0  0  0  0  0  0  0  0  0  0  0  0
   -8.6440   -1.9110   -1.1460 O   0  0  0  0  0  0  0  0  0  0  0  0
   -7.5690   -2.6690    1.1680 P   0  0  0  0  0  0  0  0  0  0  0  0
   -5.9720   -2.8310    1.1890 N   0  0  0  0  0  0  0  0  0  0  0  0
   -5.0690   -2.1360    0.3680 C   0  0  0  0  0  0  0  0  0  0  0  0
   -5.0240   -0.7030    0.3570 N   0  0  0  0  0  0  0  0  0  0  0  0
   -4.2830   -2.8450   -0.3670 N   0  0  0  0  0  0  0  0  0  0  0  0
   -3.3920   -2.1890   -1.1750 O   0  0  0  0  0  0  0  0  0  0  0  0
   -1.6620   -2.2170   -0.8870 P   0  0  0  0  0  0  0  0  0  0  0  0
   -1.2870   -2.5480    0.7620 O   0  0  0  0  0  0  0  0  0  0  0  0
   -1.6260   -1.5100    1.6210 C   0  0  0  0  0  0  0  0  0  0  0  0
   -0.8610   -0.7980   -1.4670 O   0  0  0  0  0  0  0  0  0  0  0  0
    0.2240   -0.6120   -0.7210 N   0  0  0  0  0  0  0  0  0  0  0  0
    0.4910    0.6920   -0.1620 C   0  0  0  0  0  0  0  0  0  0  0  0
    1.9700    0.7680    0.1660 C   0  0  2  0  0  0  0  0  0  0  0  0
    2.8060    0.7840   -1.0880 C   0  0  0  0  0  0  0  0  0  0  0  0
    4.1420    0.9750   -0.8090 O   0  0  0  0  0  0  0  0  0  0  0  0
    4.7880    2.0050   -0.1780 C   0  0  0  0  0  0  0  0  0  0  0  0
    5.7810    1.7080    0.6390 C   0  0  0  0  0  0  0  0  0  0  0  0
    6.1740    0.3450    0.8620 C   0  0  0  0  0  0  0  0  0  0  0  0
    7.2760    0.1190    1.7650 N   0  0  0  0  0  0  0  0  0  0  0  0
    5.6210   -0.6560    0.3210 N   0  0  0  0  0  0  0  0  0  0  0  0
    6.1870   -2.2820    0.6700 S   0  0  0  0  0  0  0  0  0  0  0  0
    6.1470   -3.3050   -0.6930 O   0  0  0  0  0  0  0  0  0  0  0  0
    4.4260    3.3940   -0.3750 C   0  0  0  0  0  0  0  0  0  0  0  0
    3.3630    3.9040   -1.2410 C   0  0  0  0  0  0  0  0  0  0  0  0
    5.1130    4.2450    0.2780 O   0  0  0  0  0  0  0  0  0  0  0  0
    2.3170   -0.2400    1.0150 O   0  0  0  0  0  0  0  0  0  0  0  0
    2.2040   -1.5110    0.5190 C   0  0  0  0  0  0  0  0  0  0  0  0
    1.1190   -1.6760   -0.4610 C   0  0  0  0  0  0  0  0  0  0  0  0
    0.9770   -2.7520   -1.0720 O   0  0  0  0  0  0  0  0  0  0  0  0
  1  2  1  0
  2  3  1  0
  3  4  1  0
  4  5  2  0
  4  6  1  0
  6  7  2  3
  7  8  1  0
  8  9  1  0
  8 10  2  3
 10 11  1  0
 11 12  1  0
 12 13  1  0
 12 15  1  0
 13 14  1  0
 15 16  1  0
 16 17  1  0
 16 33  1  0
 17 18  1  0
 18 19  1  6
 18 31  1  0
 19 20  1  0
 20 21  1  0
 21 22  2  3
 21 28  1  0
 22 23  1  0
 23 24  1  0
 23 25  2  3
 25 26  1  0
 26 27  1  0
 28 29  1  0
 28 30  2  0
 31 32  1  0
 32 33  1  0
 33 34  2  0
M  END
