
     RDKit          3D

 24 26  0  0  0  0  0  0  0  0999 V2000
   -6.0880    0.9160    0.6190 C   0  0  0  0  0  0  0  0  0  0  0  0
   -5.2600   -0.2610    0.0920 C   0  0  0  0  0  0  0  0  0  0  0  0
   -3.8640   -0.0020    0.5100 C   0  0  0  0  0  0  0  0  0  0  0  0
   -3.6030    0.1080    1.8670 O   0  0  0  0  0  0  0  0  0  0  0  0
   -3.8660   -0.9000    2.8090 C   0  0  0  0  0  0  0  0  0  0  0  0
   -2.9290    0.1140   -0.4070 C   0  0  0  0  0  0  0  0  0  0  0  0
   -3.2140   -0.0050   -1.8620 C   0  0  0  0  0  0  0  0  0  0  0  0
   -1.8880   -0.1010   -2.4980 N   0  0  0  0  0  0  0  0  0  0  0  0
   -1.1810   -1.1810   -1.7890 C   0  0  0  0  0  0  0  0  0  0  0  0
   -0.7450   -0.7870   -0.4870 N   0  0  1  0  0  0  0  0  0  0  0  0
    0.6830   -0.5870   -0.3960 C   0  0  1  0  0  0  0  0  0  0  0  0
    1.2990    0.0060   -1.6110 C   0  0  0  0  0  0  0  0  0  0  0  0
    2.0710    1.2890   -1.3630 C   0  0  0  0  0  0  0  0  0  0  0  0
    3.0540    0.9950   -0.3430 N   0  0  0  0  0  0  0  0  0  0  0  0
    4.3870    1.3510   -0.5400 C   0  0  0  0  0  0  0  0  0  0  0  0
    4.7220    1.9460   -1.6410 O   0  0  0  0  0  0  0  0  0  0  0  0
    5.4450    1.0910    0.4310 C   0  0  1  0  0  0  0  0  0  0  0  0
    5.0600    0.4010    1.5870 N   0  0  0  0  0  0  0  0  0  0  0  0
    5.7260   -0.5200    2.0450 C   0  0  0  0  0  0  0  0  0  0  0  0
    6.9770   -0.9070    1.3450 C   0  0  0  0  0  0  0  0  0  0  0  0
    6.6120   -0.1480   -0.2970 S   0  0  0  0  0  0  0  0  0  0  0  0
    2.5880    0.3410    0.8430 C   0  0  0  0  0  0  0  0  0  0  0  0
    1.0630    0.2250    0.8190 C   0  0  0  0  0  0  0  0  0  0  0  0
   -1.4990    0.3770   -0.0580 C   0  0  0  0  0  0  0  0  0  0  0  0
  1  2  1  0
  2  3  1  0
  3  4  1  0
  3  6  2  3
  4  5  1  0
  6  7  1  0
  6 24  1  0
  7  8  1  0
  8  9  1  0
 10  9  1  6
 10 11  1  0
 10 24  1  0
 11 12  1  6
 11 23  1  0
 12 13  1  0
 13 14  1  0
 14 15  1  0
 14 22  1  0
 15 16  2  0
 17 15  1  6
 17 18  1  0
 17 21  1  0
 18 19  2  0
 19 20  1  0
 20 21  1  0
 22 23  1  0
M  CHG  1  10   1
M  END
