
     RDKit          3D

 24 26  0  0  0  0  0  0  0  0999 V2000
   -5.1560    1.2810   -2.6270 C   0  0  0  0  0  0  0  0  0  0  0  0
   -3.8660    0.7910   -1.9990 C   0  0  0  0  0  0  0  0  0  0  0  0
   -3.8470    1.3250   -0.5780 C   0  0  1  0  0  0  0  0  0  0  0  0
   -5.0120    0.7960    0.1030 N   0  0  0  0  0  0  0  0  0  0  0  0
   -5.1680   -0.5640    0.4040 C   0  0  0  0  0  0  0  0  0  0  0  0
   -6.3330   -1.0480    0.4260 O   0  0  0  0  0  0  0  0  0  0  0  0
   -4.0640   -1.4570    0.6950 C   0  0  0  0  0  0  0  0  0  0  0  0
   -4.0270   -2.7980    1.0080 C   0  0  0  0  0  0  0  0  0  0  0  0
   -2.7330   -3.1080    1.1790 N   0  0  0  0  0  0  0  0  0  0  0  0
   -1.9500   -2.0530    0.9960 N   0  0  0  0  0  0  0  0  0  0  0  0
   -0.5360   -1.9790    1.0880 C   0  0  0  0  0  0  0  0  0  0  0  0
    0.0950   -3.0390    1.3820 O   0  0  0  0  0  0  0  0  0  0  0  0
    0.1430   -0.6850    0.8420 C   0  0  0  0  0  0  0  0  0  0  0  0
    1.5640   -0.9080    1.0040 N   0  0  1  0  0  0  0  0  0  0  0  0
    2.0640   -1.5760   -0.1510 C   0  0  0  0  0  0  0  0  0  0  0  0
    3.5060   -1.3420   -0.4410 C   0  0  0  0  0  0  0  0  0  0  0  0
    3.6120   -0.1480   -1.3700 C   0  0  0  0  0  0  0  0  0  0  0  0
    3.7690    1.0730   -0.4830 C   0  0  1  0  0  0  0  0  0  0  0  0
    5.0180    1.0150    0.3240 C   0  0  0  0  0  0  0  0  0  0  0  0
    3.8910    2.2820   -1.4210 C   0  0  0  0  0  0  0  0  0  0  0  0
    2.5170    1.2500    0.3020 C   0  0  0  0  0  0  0  0  0  0  0  0
    2.2870    0.2700    1.3820 C   0  0  0  0  0  0  0  0  0  0  0  0
   -2.7560   -1.0250    0.6960 C   0  0  0  0  0  0  0  0  0  0  0  0
   -2.3930    0.6830    0.3290 S   0  0  0  0  0  0  0  0  0  0  0  0
  1  2  1  0
  3  2  1  6
  3  4  1  0
  3 24  1  0
  4  5  1  0
  5  6  2  0
  5  7  1  0
  7  8  1  0
  7 23  2  0
  8  9  2  0
  9 10  1  0
 10 11  1  0
 10 23  1  0
 11 12  2  0
 11 13  1  0
 14 13  1  6
 14 15  1  0
 14 22  1  0
 15 16  1  0
 16 17  1  0
 17 18  1  0
 18 19  1  1
 18 20  1  0
 18 21  1  0
 21 22  1  0
 23 24  1  0
M  CHG  1  14   1
M  END
