
     RDKit          3D

 24 26  0  0  0  0  0  0  0  0999 V2000
    0.7740    5.6310    0.0340 C   0  0  0  0  0  0  0  0  0  0  0  0
    0.7900    4.3360   -0.7890 C   0  0  0  0  0  0  0  0  0  0  0  0
   -0.2500    3.4530   -0.1790 C   0  0  0  0  0  0  0  0  0  0  0  0
    0.0320    2.2770    0.3270 C   0  0  0  0  0  0  0  0  0  0  0  0
    1.2290    1.4690    0.4810 C   0  0  0  0  0  0  0  0  0  0  0  0
    1.1290    0.1080    0.3740 C   0  0  0  0  0  0  0  0  0  0  0  0
    2.3780   -0.6030    0.5180 C   0  0  0  0  0  0  0  0  0  0  0  0
    3.4500    0.1380    0.7340 O   0  0  0  0  0  0  0  0  0  0  0  0
    2.6810   -1.9620    0.4730 N   0  0  0  0  0  0  0  0  0  0  0  0
    4.0570   -2.3870    0.6560 C   0  0  0  0  0  0  0  0  0  0  0  0
    4.6660   -3.0500   -0.2830 C   0  0  0  0  0  0  0  0  0  0  0  0
    6.3440   -3.5640   -0.0490 S   0  0  0  0  0  0  0  0  0  0  0  0
    7.0920   -3.4220   -1.3680 O   0  0  0  0  0  0  0  0  0  0  0  0
   -0.2180   -0.4440    0.3320 C   0  0  0  0  0  0  0  0  0  0  0  0
   -1.3410    0.3000    0.4280 C   0  0  0  0  0  0  0  0  0  0  0  0
   -2.6460   -0.3640    0.3510 C   0  0  0  0  0  0  0  0  0  0  0  0
   -2.5060   -1.3120   -0.7730 N   0  0  2  0  0  0  0  0  0  0  0  0
   -3.7700   -1.6900   -1.3140 C   0  0  0  0  0  0  0  0  0  0  0  0
   -4.8790   -1.5420   -0.2720 C   0  0  0  0  0  0  0  0  0  0  0  0
   -1.7380   -2.3850   -0.2410 C   0  0  0  0  0  0  0  0  0  0  0  0
   -0.3490   -1.9020    0.1410 C   0  0  0  0  0  0  0  0  0  0  0  0
   -1.2670    1.7060    0.7900 C   0  0  2  0  0  0  0  0  0  0  0  0
   -2.2230    2.6510    0.4420 N   0  0  0  0  0  0  0  0  0  0  0  0
   -1.6560    3.6650   -0.1060 N   0  0  0  0  0  0  0  0  0  0  0  0
  1  2  1  0
  2  3  1  0
  3  4  2  0
  3 24  1  0
  4  5  1  0
  4 22  1  0
  5  6  2  0
  6  7  1  0
  6 14  1  0
  7  8  2  0
  7  9  1  0
  9 10  1  0
 10 11  2  3
 11 12  1  0
 12 13  2  0
 14 15  2  0
 14 21  1  0
 15 16  1  0
 15 22  1  0
 16 17  1  0
 17 18  1  1
 17 20  1  0
 18 19  1  0
 20 21  1  0
 22 23  1  6
 23 24  2  0
M  CHG  1  17   1
M  END
