
     RDKit          3D

 24 26  0  0  0  0  0  0  0  0999 V2000
    6.9130   -1.6770    0.8800 C   0  0  0  0  0  0  0  0  0  0  0  0
    6.6490   -0.2820    0.3560 C   0  0  2  0  0  0  0  0  0  0  0  0
    7.4840    0.7510    1.0800 C   0  0  0  0  0  0  0  0  0  0  0  0
    5.1910   -0.0190    0.5790 C   0  0  0  0  0  0  0  0  0  0  0  0
    4.3470    0.0900    1.3940 N   0  0  0  0  0  0  0  0  0  0  0  0
    3.0910    0.3420    1.1640 N   0  0  0  0  0  0  0  0  0  0  0  0
    2.6280    0.4960    0.1070 C   0  0  0  0  0  0  0  0  0  0  0  0
    1.3450    0.7800   -0.5230 N   0  0  0  0  0  0  0  0  0  0  0  0
    0.9380    2.1600   -0.7660 C   0  0  0  0  0  0  0  0  0  0  0  0
    0.2160    2.2920   -2.0880 C   0  0  0  0  0  0  0  0  0  0  0  0
    0.1370    1.0770   -2.7590 O   0  0  0  0  0  0  0  0  0  0  0  0
   -0.4520    0.0740   -2.0190 C   0  0  2  0  0  0  0  0  0  0  0  0
   -1.7960    0.4830   -1.4570 C   0  0  0  0  0  0  0  0  0  0  0  0
   -2.3500   -0.6180   -0.6960 N   0  0  0  0  0  0  0  0  0  0  0  0
   -3.7350   -0.8430   -1.0960 C   0  0  1  0  0  0  0  0  0  0  0  0
   -3.9660   -2.3090   -1.3710 C   0  0  0  0  0  0  0  0  0  0  0  0
   -4.6110   -0.3610    0.0150 C   0  0  0  0  0  0  0  0  0  0  0  0
   -5.4280   -1.2010    0.5940 C   0  0  0  0  0  0  0  0  0  0  0  0
   -6.3230   -0.8080    1.6940 C   0  0  0  0  0  0  0  0  0  0  0  0
   -6.2170    0.5360    2.0550 O   0  0  0  0  0  0  0  0  0  0  0  0
   -5.3450    1.4170    1.4320 C   0  0  0  0  0  0  0  0  0  0  0  0
   -4.5630    1.0230    0.4530 C   0  0  0  0  0  0  0  0  0  0  0  0
    0.4730   -0.3340   -0.9080 C   0  0  0  0  0  0  0  0  0  0  0  0
    4.1510    0.2760   -0.9880 S   0  0  0  0  0  0  0  0  0  0  0  0
  2  1  1  1
  2  3  1  0
  2  4  1  0
  4  5  2  0
  4 24  1  0
  5  6  1  0
  6  7  2  0
  7  8  1  0
  7 24  1  0
  8  9  1  0
  8 23  1  0
  9 10  1  0
 10 11  1  0
 11 12  1  0
 12 13  1  1
 12 23  1  0
 13 14  1  0
 14 15  1  0
 15 16  1  1
 15 17  1  0
 17 18  2  0
 17 22  1  0
 18 19  1  0
 19 20  1  0
 20 21  1  0
 21 22  2  0
M  CHG  1  14   1
M  END
