
     RDKit          3D

 24 27  0  0  0  0  0  0  0  0999 V2000
    7.5730   -0.1290   -1.2010 C   0  0  0  0  0  0  0  0  0  0  0  0
    6.4040    0.2630   -0.3720 C   0  0  0  0  0  0  0  0  0  0  0  0
    6.2150   -0.3040    0.8750 C   0  0  0  0  0  0  0  0  0  0  0  0
    5.1610    0.0130    1.6850 C   0  0  0  0  0  0  0  0  0  0  0  0
    4.2480    0.9410    1.2330 C   0  0  0  0  0  0  0  0  0  0  0  0
    2.8320    1.4340    2.2050 S   0  0  0  0  0  0  0  0  0  0  0  0
    1.4570    0.3710    1.8340 C   0  0  0  0  0  0  0  0  0  0  0  0
    1.1630   -0.7730    2.4660 N   0  0  0  0  0  0  0  0  0  0  0  0
    0.0670   -1.2370    1.8730 N   0  0  0  0  0  0  0  0  0  0  0  0
   -0.3350   -0.4140    0.8860 C   0  0  0  0  0  0  0  0  0  0  0  0
   -1.5090   -0.6400    0.0410 C   0  0  2  0  0  0  0  0  0  0  0  0
   -1.1070   -0.7060   -1.4290 C   0  0  0  0  0  0  0  0  0  0  0  0
   -2.2700   -0.5890   -2.3500 C   0  0  0  0  0  0  0  0  0  0  0  0
   -3.1690    0.4020   -2.0240 O   0  0  0  0  0  0  0  0  0  0  0  0
   -3.5980    0.3430   -0.7090 C   0  0  2  0  0  0  0  0  0  0  0  0
   -4.3030   -0.9620   -0.4170 C   0  0  0  0  0  0  0  0  0  0  0  0
   -4.7560   -0.9260    1.0120 C   0  0  0  0  0  0  0  0  0  0  0  0
   -5.7450    0.2350    1.1390 C   0  0  0  0  0  0  0  0  0  0  0  0
   -5.8310    0.9640   -0.0410 O   0  0  0  0  0  0  0  0  0  0  0  0
   -4.5940    1.4480   -0.4640 C   0  0  0  0  0  0  0  0  0  0  0  0
   -2.4090    0.5780    0.1720 C   0  0  0  0  0  0  0  0  0  0  0  0
    0.5520    0.6020    0.8700 N   0  0  0  0  0  0  0  0  0  0  0  0
    4.4410    1.5020   -0.0070 C   0  0  0  0  0  0  0  0  0  0  0  0
    5.4920    1.1620   -0.7740 N   0  0  0  0  0  0  0  0  0  0  0  0
  1  2  1  0
  2  3  2  0
  2 24  1  0
  3  4  1  0
  4  5  2  0
  5  6  1  0
  5 23  1  0
  6  7  1  0
  7  8  2  0
  7 22  1  0
  8  9  1  0
  9 10  2  0
 11 10  1  1
 10 22  1  0
 11 12  1  0
 11 21  1  0
 12 13  1  0
 13 14  1  0
 14 15  1  0
 15 16  1  1
 15 20  1  0
 15 21  1  0
 16 17  1  0
 17 18  1  0
 18 19  1  0
 19 20  1  0
 23 24  2  0
M  CHG  1  24   1
M  END
