
     RDKit          3D

 31 34  0  0  0  0  0  0  0  0999 V2000
    6.6640   -1.1270   -0.5930 C   0  0  0  0  0  0  0  0  0  0  0  0
    7.0300    0.0760   -0.9580 C   0  0  0  0  0  0  0  0  0  0  0  0
    6.1570    1.2440   -0.9600 C   0  0  0  0  0  0  0  0  0  0  0  0
    4.8040    1.1700   -0.6190 C   0  0  0  0  0  0  0  0  0  0  0  0
    3.9750    2.2660   -0.6240 C   0  0  0  0  0  0  0  0  0  0  0  0
    2.6160    2.2390   -0.2840 N   0  0  0  0  0  0  0  0  0  0  0  0
    1.8860    1.1490    0.2560 C   0  0  0  0  0  0  0  0  0  0  0  0
    0.5650    1.1240    0.5720 N   0  0  0  0  0  0  0  0  0  0  0  0
    0.2740   -0.0930    1.0530 C   0  0  0  0  0  0  0  0  0  0  0  0
   -1.0210   -0.6260    1.5300 C   0  0  0  0  0  0  0  0  0  0  0  0
   -1.7270   -1.3560    0.5310 N   0  0  0  0  0  0  0  0  0  0  0  0
   -1.0600   -2.5200    0.0350 C   0  0  0  0  0  0  0  0  0  0  0  0
   -1.2700   -3.5690    1.0810 C   0  0  0  0  0  0  0  0  0  0  0  0
   -2.4280   -3.0770    1.9370 C   0  0  0  0  0  0  0  0  0  0  0  0
   -2.9360   -1.9110    1.1470 C   0  0  2  0  0  0  0  0  0  0  0  0
   -3.9660   -2.2130    0.1640 C   0  0  0  0  0  0  0  0  0  0  0  0
   -4.3670   -3.4760   -0.1220 C   0  0  0  0  0  0  0  0  0  0  0  0
   -5.3560   -3.7450   -1.0780 C   0  0  0  0  0  0  0  0  0  0  0  0
   -5.9370   -2.6980   -1.7440 C   0  0  0  0  0  0  0  0  0  0  0  0
   -5.5640   -1.4250   -1.4870 C   0  0  0  0  0  0  0  0  0  0  0  0
   -4.5630   -1.1400   -0.5210 C   0  0  0  0  0  0  0  0  0  0  0  0
   -4.2110    0.0770   -0.2790 O   0  0  0  0  0  0  0  0  0  0  0  0
   -3.9200    1.3330   -0.1010 C   0  0  0  0  0  0  0  0  0  0  0  0
   -5.1300    2.1720    0.3540 C   0  0  0  0  0  0  0  0  0  0  0  0
   -4.6660    3.6100    0.5240 C   0  0  0  0  0  0  0  0  0  0  0  0
    1.4160   -0.7930    1.0250 N   0  0  0  0  0  0  0  0  0  0  0  0
    2.3690   -0.0200    0.5410 O   0  0  0  0  0  0  0  0  0  0  0  0
    4.5750    3.4670   -0.9930 C   0  0  0  0  0  0  0  0  0  0  0  0
    5.8980    3.5670   -1.3300 C   0  0  0  0  0  0  0  0  0  0  0  0
    6.7070    2.4550   -1.3180 C   0  0  0  0  0  0  0  0  0  0  0  0
    8.1550    2.5760   -1.6870 C   0  0  0  0  0  0  0  0  0  0  0  0
  1  2  2  0
  2  3  1  0
  3  4  2  0
  3 30  1  0
  4  5  1  0
  5  6  1  0
  5 28  2  0
  6  7  1  0
  7  8  2  0
  7 27  1  0
  8  9  1  0
  9 10  1  0
  9 26  2  0
 10 11  1  0
 11 12  1  0
 11 15  1  0
 12 13  1  0
 13 14  1  0
 14 15  1  0
 15 16  1  6
 16 17  2  0
 16 21  1  0
 17 18  1  0
 18 19  2  0
 19 20  1  0
 20 21  2  0
 21 22  1  0
 22 23  1  0
 23 24  1  0
 24 25  1  0
 26 27  1  0
 28 29  1  0
 29 30  2  0
 30 31  1  0
M  END
