
     RDKit          3D

 31 34  0  0  0  0  0  0  0  0999 V2000
   -0.0840   -1.4930    1.1120 C   0  0  0  0  0  0  0  0  0  0  0  0
   -0.6860   -0.9360   -0.1180 C   0  0  0  0  0  0  0  0  0  0  0  0
   -2.0120   -0.4790   -0.1200 C   0  0  0  0  0  0  0  0  0  0  0  0
   -2.5740    0.0370   -1.2490 C   0  0  0  0  0  0  0  0  0  0  0  0
   -3.8780    0.5180   -1.3090 N   0  0  0  0  0  0  0  0  0  0  0  0
   -4.7160    0.7690   -0.2070 C   0  0  0  0  0  0  0  0  0  0  0  0
   -4.3170    0.5680    0.9540 O   0  0  0  0  0  0  0  0  0  0  0  0
   -6.1160    1.2870   -0.4420 C   0  0  0  0  0  0  0  0  0  0  0  0
   -6.8690    1.3480    0.8350 C   0  0  0  0  0  0  0  0  0  0  0  0
   -7.0220    0.0030    1.4730 C   0  0  2  0  0  0  0  0  0  0  0  0
   -7.7660   -0.9280    0.5600 C   0  0  0  0  0  0  0  0  0  0  0  0
   -9.1640   -0.3240    0.6380 C   0  0  0  0  0  0  0  0  0  0  0  0
   -9.1550    0.3590    1.9770 C   0  0  0  0  0  0  0  0  0  0  0  0
   -7.9160    0.2040    2.5600 O   0  0  0  0  0  0  0  0  0  0  0  0
   -1.8180    0.1130   -2.4340 C   0  0  0  0  0  0  0  0  0  0  0  0
   -0.5280   -0.3330   -2.4320 C   0  0  0  0  0  0  0  0  0  0  0  0
    0.0310   -0.8520   -1.2850 C   0  0  0  0  0  0  0  0  0  0  0  0
    1.4070   -1.3150   -1.3300 C   0  0  0  0  0  0  0  0  0  0  0  0
    2.0800   -1.2370   -2.4260 N   0  0  0  0  0  0  0  0  0  0  0  0
    3.4020   -1.6780   -2.4860 N   0  0  0  0  0  0  0  0  0  0  0  0
    4.4780   -0.7780   -2.2870 C   0  0  0  0  0  0  0  0  0  0  0  0
    4.3260    0.1980   -1.4710 N   0  0  0  0  0  0  0  0  0  0  0  0
    5.2990    1.1940   -1.1520 C   0  0  0  0  0  0  0  0  0  0  0  0
    6.4700    0.6580   -0.4150 C   0  0  0  0  0  0  0  0  0  0  0  0
    6.6030   -0.6570   -0.0730 C   0  0  0  0  0  0  0  0  0  0  0  0
    7.7150   -1.0720    0.6070 C   0  0  0  0  0  0  0  0  0  0  0  0
    8.7070   -0.1690    0.9510 C   0  0  0  0  0  0  0  0  0  0  0  0
    8.5810    1.1600    0.6090 C   0  0  0  0  0  0  0  0  0  0  0  0
    7.4630    1.5620   -0.0710 C   0  0  0  0  0  0  0  0  0  0  0  0
    9.8840    1.5280    1.2330 C   0  0  0  0  0  0  0  0  0  0  0  0
   10.0370    0.0810    1.6090 C   0  0  0  0  0  0  0  0  0  0  0  0
  1  2  1  0
  2  3  2  0
  2 17  1  0
  3  4  1  0
  4  5  1  0
  4 15  2  0
  5  6  1  0
  6  7  2  0
  6  8  1  0
  8  9  1  0
 10  9  1  6
 10 11  1  0
 10 14  1  0
 11 12  1  0
 12 13  1  0
 13 14  1  0
 15 16  1  0
 16 17  2  0
 17 18  1  0
 18 19  2  3
 19 20  1  0
 20 21  1  0
 21 22  2  3
 22 23  1  0
 23 24  1  0
 24 25  2  0
 24 29  1  0
 25 26  1  0
 26 27  2  0
 27 28  1  0
 27 31  1  0
 28 29  2  0
 28 30  1  0
 30 31  1  0
M  END
