
     RDKit          3D

 31 34  0  0  0  0  0  0  0  0999 V2000
   -6.5250   -0.2540   -2.5740 C   0  0  0  0  0  0  0  0  0  0  0  0
   -7.2560    0.5360   -1.5160 C   0  0  0  0  0  0  0  0  0  0  0  0
   -6.5410    0.5850   -0.2550 N   0  0  0  0  0  0  0  0  0  0  0  0
   -6.6620   -0.3400    0.8220 C   0  0  0  0  0  0  0  0  0  0  0  0
   -7.0840   -1.5230    0.7620 O   0  0  0  0  0  0  0  0  0  0  0  0
   -6.1760    0.4160    2.0210 C   0  0  0  0  0  0  0  0  0  0  0  0
   -5.1380    1.2510    1.4260 N   0  0  0  0  0  0  0  0  0  0  0  0
   -3.8940    1.6670    2.0340 C   0  0  0  0  0  0  0  0  0  0  0  0
   -2.7590    0.7170    1.7900 C   0  0  1  0  0  0  0  0  0  0  0  0
   -3.0210   -0.6580    2.3230 C   0  0  0  0  0  0  0  0  0  0  0  0
   -2.3770    0.7150    0.3310 C   0  0  0  0  0  0  0  0  0  0  0  0
   -1.2380   -0.2450    0.1220 C   0  0  0  0  0  0  0  0  0  0  0  0
   -1.4730   -1.5690   -0.1790 C   0  0  0  0  0  0  0  0  0  0  0  0
   -0.4290   -2.4490   -0.3690 C   0  0  0  0  0  0  0  0  0  0  0  0
    0.9090   -2.0420   -0.2660 C   0  0  0  0  0  0  0  0  0  0  0  0
    2.0770   -2.6700   -0.3970 N   0  0  0  0  0  0  0  0  0  0  0  0
    3.1130   -1.7890   -0.1890 C   0  0  0  0  0  0  0  0  0  0  0  0
    4.5470   -2.1910   -0.2660 C   0  0  0  0  0  0  0  0  0  0  0  0
    2.5310   -0.5810    0.0780 C   0  0  0  0  0  0  0  0  0  0  0  0
    3.1240    0.7200    0.3720 C   0  0  0  0  0  0  0  0  0  0  0  0
    4.5810    0.8930    0.3160 C   0  0  0  0  0  0  0  0  0  0  0  0
    5.2080    0.6260   -0.9400 N   0  0  0  0  0  0  0  0  0  0  0  0
    6.6160    0.7760   -1.0730 C   0  0  0  0  0  0  0  0  0  0  0  0
    7.3340    0.6710   -2.1900 C   0  0  0  0  0  0  0  0  0  0  0  0
    8.7710    0.8970   -1.8990 C   0  0  0  0  0  0  0  0  0  0  0  0
    8.7860    1.1530   -0.4240 C   0  0  0  0  0  0  0  0  0  0  0  0
    7.5500    1.0760    0.0030 C   0  0  0  0  0  0  0  0  0  0  0  0
    1.1170   -0.7250    0.0330 C   0  0  0  0  0  0  0  0  0  0  0  0
    0.0740    0.1690    0.2260 C   0  0  0  0  0  0  0  0  0  0  0  0
   -5.5890    1.5820    0.1190 C   0  0  0  0  0  0  0  0  0  0  0  0
   -5.2160    2.5770   -0.5860 O   0  0  0  0  0  0  0  0  0  0  0  0
  1  2  1  0
  2  3  1  0
  3  4  1  0
  3 30  1  0
  4  5  2  0
  4  6  1  0
  6  7  1  0
  7  8  1  0
  7 30  1  0
  8  9  1  0
  9 10  1  6
  9 11  1  0
 11 12  1  0
 12 13  2  0
 12 29  1  0
 13 14  1  0
 14 15  2  0
 15 16  1  0
 15 28  1  0
 16 17  1  0
 17 18  1  0
 17 19  2  0
 19 20  1  0
 19 28  1  0
 20 21  1  0
 21 22  1  0
 22 23  1  0
 23 24  2  0
 23 27  1  0
 24 25  1  0
 25 26  1  0
 26 27  2  0
 28 29  2  0
 30 31  2  0
M  END
