
     RDKit          3D

 31 34  0  0  0  0  0  0  0  0999 V2000
    1.6930    4.4350    0.6100 C   0  0  0  0  0  0  0  0  0  0  0  0
    1.3060    3.0490    0.2520 C   0  0  0  0  0  0  0  0  0  0  0  0
    2.2480    2.0310    0.1060 C   0  0  0  0  0  0  0  0  0  0  0  0
    1.8720    0.7480   -0.2270 C   0  0  0  0  0  0  0  0  0  0  0  0
    0.5310    0.5030   -0.4100 C   0  0  0  0  0  0  0  0  0  0  0  0
   -0.4410    1.4810   -0.2760 C   0  0  0  0  0  0  0  0  0  0  0  0
   -0.0280    2.7510    0.0570 C   0  0  0  0  0  0  0  0  0  0  0  0
   -1.0780    3.8060    0.2020 C   0  0  0  0  0  0  0  0  0  0  0  0
    0.1680   -0.8630   -0.7550 C   0  0  0  0  0  0  0  0  0  0  0  0
   -0.9330   -1.4200   -0.3660 C   0  0  0  0  0  0  0  0  0  0  0  0
   -1.1940   -2.7120   -0.7390 F   0  0  0  0  0  0  0  0  0  0  0  0
   -1.9370   -0.8460    0.4670 N   0  0  0  0  0  0  0  0  0  0  0  0
   -3.2780   -0.8630    0.0320 C   0  0  0  0  0  0  0  0  0  0  0  0
   -3.5870   -1.2960   -1.2520 C   0  0  0  0  0  0  0  0  0  0  0  0
   -4.8680   -1.3120   -1.7510 C   0  0  0  0  0  0  0  0  0  0  0  0
   -5.8900   -0.8840   -0.9530 C   0  0  0  0  0  0  0  0  0  0  0  0
   -5.6360   -0.4460    0.3230 C   0  0  0  0  0  0  0  0  0  0  0  0
   -6.7140    0.0020    1.1550 N   0  0  0  0  0  0  0  0  0  0  0  0
   -4.3060   -0.4370    0.8220 C   0  0  0  0  0  0  0  0  0  0  0  0
   -4.1210    0.0190    2.1630 C   0  0  0  0  0  0  0  0  0  0  0  0
   -3.0550    0.0920    2.8020 O   0  0  0  0  0  0  0  0  0  0  0  0
    1.1550   -1.6230   -1.5840 C   0  0  0  0  0  0  0  0  0  0  0  0
    2.4960   -1.4640   -1.0460 N   0  0  0  0  0  0  0  0  0  0  0  0
    3.4000   -2.5340   -1.2120 C   0  0  0  0  0  0  0  0  0  0  0  0
    3.0160   -3.5790   -1.8150 O   0  0  0  0  0  0  0  0  0  0  0  0
    4.7520   -2.4280   -0.6950 C   0  0  0  0  0  0  0  0  0  0  0  0
    5.7560   -3.4040   -0.7840 C   0  0  0  0  0  0  0  0  0  0  0  0
    6.8410   -2.8590   -0.1620 C   0  0  0  0  0  0  0  0  0  0  0  0
    6.4840   -1.6170    0.2720 C   0  0  0  0  0  0  0  0  0  0  0  0
    5.2450   -1.4050   -0.0640 O   0  0  0  0  0  0  0  0  0  0  0  0
    2.9160   -0.2790   -0.3680 C   0  0  0  0  0  0  0  0  0  0  0  0
  1  2  1  0
  2  3  2  0
  2  7  1  0
  3  4  1  0
  4  5  2  0
  4 31  1  0
  5  6  1  0
  5  9  1  0
  6  7  2  0
  7  8  1  0
  9 10  2  3
  9 22  1  0
 10 11  1  0
 10 12  1  0
 12 13  1  0
 13 14  2  0
 13 19  1  0
 14 15  1  0
 15 16  2  0
 16 17  1  0
 17 18  1  0
 17 19  2  0
 19 20  1  0
 20 21  2  0
 22 23  1  0
 23 24  1  0
 23 31  1  0
 24 25  2  0
 24 26  1  0
 26 27  2  0
 26 30  1  0
 27 28  1  0
 28 29  2  0
 29 30  1  0
M  END
