
     RDKit          3D

 30 32  0  0  0  0  0  0  0  0999 V2000
   -3.0960    4.0270    0.4560 C   0  0  0  0  0  0  0  0  0  0  0  0
   -3.4980    2.8410    0.1760 C   0  0  0  0  0  0  0  0  0  0  0  0
   -4.0430    1.2960   -0.1950 C   0  0  0  0  0  0  0  0  0  0  0  0
   -3.6950    0.6210    1.0520 C   0  0  0  0  0  0  0  0  0  0  0  0
   -2.1660    0.3270    1.2950 C   0  0  0  0  0  0  0  0  0  0  0  0
   -1.8830   -0.8760    0.5070 N   0  0  0  0  0  0  0  0  0  0  0  0
   -1.4060   -1.0910   -0.7050 C   0  0  0  0  0  0  0  0  0  0  0  0
   -0.6280   -0.1820   -1.5650 C   0  0  0  0  0  0  0  0  0  0  0  0
    0.7040    0.1810   -1.1670 C   0  0  0  0  0  0  0  0  0  0  0  0
    1.7660   -0.5920   -0.8860 C   0  0  0  0  0  0  0  0  0  0  0  0
    3.0060   -0.2950   -0.4260 C   0  0  0  0  0  0  0  0  0  0  0  0
    4.0810   -0.8640   -0.0930 O   0  0  0  0  0  0  0  0  0  0  0  0
    5.1700   -1.5020    0.2410 C   0  0  0  0  0  0  0  0  0  0  0  0
    3.1130    1.1490   -0.2320 C   0  0  0  0  0  0  0  0  0  0  0  0
    4.3980    1.6100    0.2120 O   0  0  0  0  0  0  0  0  0  0  0  0
    5.3820    1.6500   -0.8850 C   0  0  0  0  0  0  0  0  0  0  0  0
    2.1530    2.0330   -0.4430 C   0  0  0  0  0  0  0  0  0  0  0  0
    2.4380    3.4440   -0.1680 O   0  0  0  0  0  0  0  0  0  0  0  0
    2.2330    3.7760    1.2100 C   0  0  0  0  0  0  0  0  0  0  0  0
    0.9470    1.6390   -0.8940 C   0  0  0  0  0  0  0  0  0  0  0  0
   -0.3360    2.7200   -1.2480 Cl  0  0  0  0  0  0  0  0  0  0  0  0
   -1.6720   -2.4030   -1.0620 N   0  0  0  0  0  0  0  0  0  0  0  0
   -2.3140   -2.9720   -0.0280 C   0  0  0  0  0  0  0  0  0  0  0  0
   -2.8190   -4.2740    0.1450 C   0  0  0  0  0  0  0  0  0  0  0  0
   -2.7310   -5.1860   -0.9380 N   0  0  0  0  0  0  0  0  0  0  0  0
   -3.3970   -4.4890    1.3170 N   0  0  0  0  0  0  0  0  0  0  0  0
   -3.5200   -3.6170    2.2650 C   0  0  0  0  0  0  0  0  0  0  0  0
   -4.0590   -3.9190    3.5300 F   0  0  0  0  0  0  0  0  0  0  0  0
   -3.0550   -2.3340    2.1880 N   0  0  0  0  0  0  0  0  0  0  0  0
   -2.4500   -2.0800    0.9660 C   0  0  0  0  0  0  0  0  0  0  0  0
  1  2  3  0
  2  3  1  0
  3  4  1  0
  4  5  1  0
  5  6  1  0
  6  7  1  0
  6 30  1  0
  7  8  1  0
  7 22  2  0
  8  9  1  0
  9 10  2  0
  9 20  1  0
 10 11  1  0
 11 12  1  0
 11 14  2  0
 12 13  1  0
 14 15  1  0
 14 17  1  0
 15 16  1  0
 17 18  1  0
 17 20  2  0
 18 19  1  0
 20 21  1  0
 22 23  1  0
 23 24  2  0
 23 30  1  0
 24 25  1  0
 24 26  1  0
 26 27  2  0
 27 28  1  0
 27 29  1  0
 29 30  2  0
M  END
