
     RDKit          3D

 31 33  0  0  0  0  0  0  0  0999 V2000
   -2.3050   -4.9570   -2.2070 C   0  0  0  0  0  0  0  0  0  0  0  0
   -2.5820   -3.5910   -1.5840 C   0  0  0  0  0  0  0  0  0  0  0  0
   -2.1090   -3.5400   -0.1620 C   0  0  0  0  0  0  0  0  0  0  0  0
   -2.3600   -2.2170    0.5210 C   0  0  0  0  0  0  0  0  0  0  0  0
   -1.6220   -1.1250   -0.2420 C   0  0  0  0  0  0  0  0  0  0  0  0
   -1.8510    0.2060    0.4350 C   0  0  0  0  0  0  0  0  0  0  0  0
   -0.9250    0.9370    0.9010 N   0  0  0  0  0  0  0  0  0  0  0  0
    0.4520    0.6430    0.8710 C   0  0  0  0  0  0  0  0  0  0  0  0
    1.2170    1.1630   -0.0170 O   0  0  0  0  0  0  0  0  0  0  0  0
    1.1180   -0.2630    1.8370 C   0  0  0  0  0  0  0  0  0  0  0  0
    2.5870   -0.2440    1.6160 C   0  0  0  0  0  0  0  0  0  0  0  0
    3.3760   -0.8470    0.6560 C   0  0  0  0  0  0  0  0  0  0  0  0
    2.8210   -1.7280   -0.4190 C   0  0  0  0  0  0  0  0  0  0  0  0
    4.6690   -0.5400    0.8410 N   0  0  0  0  0  0  0  0  0  0  0  0
    5.8120   -0.9430    0.0730 C   0  0  0  0  0  0  0  0  0  0  0  0
    7.0590   -0.5720    0.3890 C   0  0  0  0  0  0  0  0  0  0  0  0
    8.0200   -1.1330   -0.5730 C   0  0  0  0  0  0  0  0  0  0  0  0
    7.1830   -1.8930   -1.5160 C   0  0  0  0  0  0  0  0  0  0  0  0
    5.9210   -1.7590   -1.1110 C   0  0  0  0  0  0  0  0  0  0  0  0
    4.7190    0.2580    1.9160 N   0  0  0  0  0  0  0  0  0  0  0  0
    3.5000    0.4640    2.4140 C   0  0  0  0  0  0  0  0  0  0  0  0
    3.1430    1.1500    3.4100 O   0  0  0  0  0  0  0  0  0  0  0  0
   -3.1810    0.6960    0.5930 N   0  0  0  0  0  0  0  0  0  0  0  0
   -3.4660    2.0560    0.4540 C   0  0  0  0  0  0  0  0  0  0  0  0
   -2.6290    3.0320    0.0220 C   0  0  0  0  0  0  0  0  0  0  0  0
   -2.9820    4.3800   -0.0830 C   0  0  0  0  0  0  0  0  0  0  0  0
   -1.9860    5.3760   -0.5700 C   0  0  0  0  0  0  0  0  0  0  0  0
   -4.2650    4.7500    0.2750 C   0  0  0  0  0  0  0  0  0  0  0  0
   -5.1660    3.7860    0.7260 C   0  0  0  0  0  0  0  0  0  0  0  0
   -6.5490    4.1760    1.1120 C   0  0  0  0  0  0  0  0  0  0  0  0
   -4.7620    2.4740    0.8080 C   0  0  0  0  0  0  0  0  0  0  0  0
  1  2  1  0
  2  3  1  0
  3  4  1  0
  4  5  1  0
  5  6  1  0
  6  7  2  3
  6 23  1  0
  7  8  1  0
  8  9  2  0
  8 10  1  0
 10 11  1  0
 11 12  2  0
 11 21  1  0
 12 13  1  0
 12 14  1  0
 14 15  1  0
 14 20  1  0
 15 16  2  0
 15 19  1  0
 16 17  1  0
 17 18  1  0
 18 19  2  0
 20 21  1  0
 21 22  2  0
 23 24  1  0
 24 25  2  0
 24 31  1  0
 25 26  1  0
 26 27  1  0
 26 28  2  0
 28 29  1  0
 29 30  1  0
 29 31  2  0
M  END
