
     RDKit          3D

 31 34  0  0  0  0  0  0  0  0999 V2000
   -9.4870    0.1120    1.5810 C   0  0  0  0  0  0  0  0  0  0  0  0
   -8.7800    0.4250    0.2730 C   0  0  1  0  0  0  0  0  0  0  0  0
   -9.7890    1.1250   -0.6350 C   0  0  0  0  0  0  0  0  0  0  0  0
   -7.6330    1.1710    0.4420 O   0  0  0  0  0  0  0  0  0  0  0  0
   -6.3530    0.8320    0.0650 C   0  0  0  0  0  0  0  0  0  0  0  0
   -5.9950   -0.3350   -0.5640 C   0  0  0  0  0  0  0  0  0  0  0  0
   -4.6610   -0.5730   -0.9000 C   0  0  0  0  0  0  0  0  0  0  0  0
   -3.7020    0.3640   -0.5980 C   0  0  0  0  0  0  0  0  0  0  0  0
   -2.3290    0.0690   -0.9950 C   0  0  0  0  0  0  0  0  0  0  0  0
   -1.3040    0.2480   -0.2010 C   0  0  0  0  0  0  0  0  0  0  0  0
   -1.2590    0.7390    1.1640 C   0  0  0  0  0  0  0  0  0  0  0  0
   -0.0310    0.7750    1.5830 N   0  0  0  0  0  0  0  0  0  0  0  0
    0.8560    0.3310    0.5960 N   0  0  0  0  0  0  0  0  0  0  0  0
    2.3130    0.2620    0.7970 C   0  0  0  0  0  0  0  0  0  0  0  0
    2.6690   -1.0860    1.3610 C   0  0  0  0  0  0  0  0  0  0  0  0
    2.3660   -2.2330    0.4910 C   0  0  0  0  0  0  0  0  0  0  0  0
    3.1160   -2.3890   -0.7850 C   0  0  0  0  0  0  0  0  0  0  0  0
    4.5140   -2.5940   -0.5530 N   0  0  0  0  0  0  0  0  0  0  0  0
    5.5070   -1.6490   -0.2800 C   0  0  0  0  0  0  0  0  0  0  0  0
    6.6090   -2.0190    0.4890 C   0  0  0  0  0  0  0  0  0  0  0  0
    7.6380   -1.1750    0.7670 C   0  0  0  0  0  0  0  0  0  0  0  0
    7.5910    0.1250    0.2600 C   0  0  0  0  0  0  0  0  0  0  0  0
    6.5350    0.5250   -0.4950 C   0  0  0  0  0  0  0  0  0  0  0  0
    5.5070   -0.3720   -0.7540 C   0  0  0  0  0  0  0  0  0  0  0  0
    6.7260    1.9320   -0.9080 C   0  0  0  0  0  0  0  0  0  0  0  0
    7.9850    2.3810   -0.2320 C   0  0  0  0  0  0  0  0  0  0  0  0
    8.5100    1.2000    0.3890 N   0  0  0  0  0  0  0  0  0  0  0  0
    0.1040   -0.0120   -0.5450 C   0  0  0  0  0  0  0  0  0  0  0  0
    0.4890   -0.4500   -1.6510 O   0  0  0  0  0  0  0  0  0  0  0  0
   -4.0490    1.5380    0.0340 C   0  0  0  0  0  0  0  0  0  0  0  0
   -5.3560    1.7770    0.3640 C   0  0  0  0  0  0  0  0  0  0  0  0
  2  1  1  1
  2  3  1  0
  2  4  1  0
  4  5  1  0
  5  6  2  0
  5 31  1  0
  6  7  1  0
  7  8  2  0
  8  9  1  0
  8 30  1  0
  9 10  2  3
 10 11  1  0
 10 28  1  0
 11 12  2  0
 12 13  1  0
 13 14  1  0
 13 28  1  0
 14 15  1  0
 15 16  1  0
 16 17  1  0
 17 18  1  0
 18 19  1  0
 19 20  2  0
 19 24  1  0
 20 21  1  0
 21 22  2  0
 22 23  1  0
 22 27  1  0
 23 24  2  0
 23 25  1  0
 25 26  1  0
 26 27  1  0
 28 29  2  0
 30 31  2  0
M  END
