
     RDKit          3D

 31 34  0  0  0  0  0  0  0  0999 V2000
    7.9990    0.3930    0.8200 C   0  0  0  0  0  0  0  0  0  0  0  0
    6.7520   -0.1310    0.2670 N   0  0  0  0  0  0  0  0  0  0  0  0
    5.5420    0.5240    0.5070 C   0  0  0  0  0  0  0  0  0  0  0  0
    5.5860    1.5830    1.2180 O   0  0  0  0  0  0  0  0  0  0  0  0
    4.2390    0.0970    0.0120 C   0  0  0  0  0  0  0  0  0  0  0  0
    3.0630    0.7310    0.1840 N   0  0  0  0  0  0  0  0  0  0  0  0
    2.0690    0.0930   -0.3850 N   0  0  0  0  0  0  0  0  0  0  0  0
    0.7000    0.5320   -0.3670 C   0  0  0  0  0  0  0  0  0  0  0  0
    0.4090    1.8640   -0.6090 C   0  0  0  0  0  0  0  0  0  0  0  0
   -0.8900    2.3140   -0.5980 C   0  0  0  0  0  0  0  0  0  0  0  0
   -1.1030    3.6910   -0.8550 O   0  0  0  0  0  0  0  0  0  0  0  0
   -1.9530    1.4710   -0.3490 C   0  0  0  0  0  0  0  0  0  0  0  0
   -3.2750    2.0490   -0.3920 C   0  0  0  0  0  0  0  0  0  0  0  0
   -4.0350    2.0410   -1.5540 C   0  0  0  0  0  0  0  0  0  0  0  0
   -5.2980    2.5930   -1.5660 C   0  0  0  0  0  0  0  0  0  0  0  0
   -5.7910    3.1510   -0.4060 C   0  0  0  0  0  0  0  0  0  0  0  0
   -5.0680    3.1780    0.7680 C   0  0  0  0  0  0  0  0  0  0  0  0
   -3.7990    2.6150    0.7490 C   0  0  0  0  0  0  0  0  0  0  0  0
   -3.1150    2.6710    1.9250 F   0  0  0  0  0  0  0  0  0  0  0  0
   -1.6690    0.1470   -0.1080 C   0  0  0  0  0  0  0  0  0  0  0  0
   -2.6170   -0.7750    0.1460 O   0  0  0  0  0  0  0  0  0  0  0  0
   -3.2140   -1.2900    1.2550 C   0  0  1  0  0  0  0  0  0  0  0  0
   -2.1510   -1.9250    2.1520 C   0  0  0  0  0  0  0  0  0  0  0  0
   -4.1740   -0.4560    2.0230 C   0  0  0  0  0  0  0  0  0  0  0  0
   -4.0370   -2.5130    0.7690 C   0  0  0  0  0  0  0  0  0  0  0  0
   -0.3430   -0.3150   -0.1180 C   0  0  0  0  0  0  0  0  0  0  0  0
    2.5890   -0.9890   -0.9470 C   0  0  0  0  0  0  0  0  0  0  0  0
    3.9660   -1.0300   -0.7210 C   0  0  0  0  0  0  0  0  0  0  0  0
    4.5630   -2.2310   -1.3350 C   0  0  0  0  0  0  0  0  0  0  0  0
    3.3720   -3.1250   -1.5890 C   0  0  0  0  0  0  0  0  0  0  0  0
    2.2290   -2.1820   -1.7430 C   0  0  0  0  0  0  0  0  0  0  0  0
  1  2  1  0
  2  3  1  0
  3  4  2  0
  3  5  1  0
  5  6  2  0
  5 28  1  0
  6  7  1  0
  7  8  1  0
  7 27  1  0
  8  9  2  0
  8 26  1  0
  9 10  1  0
 10 11  1  0
 10 12  2  0
 12 13  1  0
 12 20  1  0
 13 14  2  0
 13 18  1  0
 14 15  1  0
 15 16  2  0
 16 17  1  0
 17 18  2  0
 18 19  1  0
 20 21  1  0
 20 26  2  0
 21 22  1  0
 22 23  1  1
 22 24  1  0
 22 25  1  0
 27 28  2  0
 27 31  1  0
 28 29  1  0
 29 30  1  0
 30 31  1  0
M  END
