
     RDKit          3D

 31 32  0  0  0  0  0  0  0  0999 V2000
   -8.0320    0.9690    0.2750 C   0  0  0  0  0  0  0  0  0  0  0  0
   -7.8300   -0.2350   -0.1120 C   0  0  0  0  0  0  0  0  0  0  0  0
   -6.7410   -1.0850   -0.4400 C   0  0  0  0  0  0  0  0  0  0  0  0
   -7.0900   -2.3550   -0.8130 C   0  0  0  0  0  0  0  0  0  0  0  0
   -8.5060   -2.7870   -0.8620 C   0  0  0  0  0  0  0  0  0  0  0  0
   -5.3140   -0.7690   -0.4100 C   0  0  0  0  0  0  0  0  0  0  0  0
   -4.8900    0.4190   -0.0810 C   0  0  0  0  0  0  0  0  0  0  0  0
   -3.4960    0.8440   -0.0130 C   0  0  0  0  0  0  0  0  0  0  0  0
   -2.5060    0.1290   -0.2500 O   0  0  0  0  0  0  0  0  0  0  0  0
   -3.2140    2.2200    0.3630 N   0  0  0  0  0  0  0  0  0  0  0  0
   -1.9070    2.7280    0.4590 C   0  0  0  0  0  0  0  0  0  0  0  0
   -1.7830    4.0400    0.8210 N   0  0  0  0  0  0  0  0  0  0  0  0
   -0.5870    4.6020    0.9350 C   0  0  0  0  0  0  0  0  0  0  0  0
    0.5880    3.8770    0.6910 C   0  0  0  0  0  0  0  0  0  0  0  0
    0.4450    2.5620    0.3290 C   0  0  0  0  0  0  0  0  0  0  0  0
    1.5800    1.6600    0.0340 C   0  0  0  0  0  0  0  0  0  0  0  0
    1.2630    0.2540   -0.3300 C   0  0  0  0  0  0  0  0  0  0  0  0
    2.7800    2.1250    0.1080 C   0  0  0  0  0  0  0  0  0  0  0  0
    4.0270    1.4900   -0.1210 C   0  0  0  0  0  0  0  0  0  0  0  0
    5.0730    2.2560    0.0450 O   0  0  0  0  0  0  0  0  0  0  0  0
    4.2820    0.1650   -0.4960 N   0  0  0  0  0  0  0  0  0  0  0  0
    5.6490   -0.2800   -0.6730 C   0  0  0  0  0  0  0  0  0  0  0  0
    6.5000   -0.1760    0.5530 C   0  0  0  0  0  0  0  0  0  0  0  0
    7.8640   -0.6850    0.1510 C   0  0  0  0  0  0  0  0  0  0  0  0
    8.5230   -1.7010    0.6550 C   0  0  0  0  0  0  0  0  0  0  0  0
    9.8350   -1.8720   -0.0210 C   0  0  0  0  0  0  0  0  0  0  0  0
    9.8390   -0.7890   -1.0070 C   0  0  0  0  0  0  0  0  0  0  0  0
    8.7170   -0.1310   -0.8930 C   0  0  0  0  0  0  0  0  0  0  0  0
   -0.8100    2.0390    0.2270 N   0  0  0  0  0  0  0  0  0  0  0  0
   -4.3170   -1.8110   -0.8010 C   0  0  0  0  0  0  0  0  0  0  0  0
   -4.3220   -2.9730    0.1460 C   0  0  0  0  0  0  0  0  0  0  0  0
  1  2  2  0
  2  3  1  0
  3  4  2  3
  3  6  1  0
  4  5  1  0
  6  7  2  3
  6 30  1  0
  7  8  1  0
  8  9  2  0
  8 10  1  0
 10 11  1  0
 11 12  2  0
 11 29  1  0
 12 13  1  0
 13 14  2  0
 14 15  1  0
 15 16  1  0
 15 29  2  0
 16 17  1  0
 16 18  2  3
 18 19  1  0
 19 20  2  0
 19 21  1  0
 21 22  1  0
 22 23  1  0
 23 24  1  0
 24 25  2  0
 24 28  1  0
 25 26  1  0
 26 27  1  0
 27 28  2  0
 30 31  1  0
M  END
