
     RDKit          3D

 28 30  0  0  0  0  0  0  0  0999 V2000
    7.6340   -1.0180   -1.2290 C   0  0  0  0  0  0  0  0  0  0  0  0
    6.4210   -1.6640   -0.8980 O   0  0  0  0  0  0  0  0  0  0  0  0
    5.7870   -0.8190    0.0070 C   0  0  0  0  0  0  0  0  0  0  0  0
    4.4820   -1.3450    0.4680 C   0  0  0  0  0  0  0  0  0  0  0  0
    4.4300   -2.1390    1.5960 C   0  0  0  0  0  0  0  0  0  0  0  0
    3.2270   -2.6380    2.0460 C   0  0  0  0  0  0  0  0  0  0  0  0
    2.0610   -2.3460    1.3690 C   0  0  0  0  0  0  0  0  0  0  0  0
    2.0820   -1.5520    0.2350 C   0  0  0  0  0  0  0  0  0  0  0  0
    0.7770   -1.2790   -0.4500 C   0  0  0  0  0  0  0  0  0  0  0  0
    0.0760   -0.3040    0.3500 N   0  0  0  0  0  0  0  0  0  0  0  0
    0.1570    1.0570   -0.1030 C   0  0  1  0  0  0  0  0  0  0  0  0
    1.5760    1.6030    0.3810 C   0  0  0  0  0  0  0  0  0  0  0  0
    0.0710    1.2700   -1.5320 C   0  0  0  0  0  0  0  0  0  0  0  0
    1.3790    1.1540   -2.1940 O   0  0  0  0  0  0  0  0  0  0  0  0
   -0.8730    1.5280   -2.3280 C   0  0  0  0  0  0  0  0  0  0  0  0
   -2.2670    1.7420   -2.3290 C   0  0  0  0  0  0  0  0  0  0  0  0
   -2.7580    2.0300   -3.5650 O   0  0  0  0  0  0  0  0  0  0  0  0
   -3.3040    1.7290   -1.3580 C   0  0  0  0  0  0  0  0  0  0  0  0
   -4.5880    2.0080   -1.6890 C   0  0  0  0  0  0  0  0  0  0  0  0
   -5.7060    2.0150   -0.7550 C   0  0  0  0  0  0  0  0  0  0  0  0
   -5.7370    0.9630    0.2540 C   0  0  0  0  0  0  0  0  0  0  0  0
   -6.9110    0.3670    0.6340 C   0  0  0  0  0  0  0  0  0  0  0  0
   -6.9290   -0.6410    1.6090 C   0  0  0  0  0  0  0  0  0  0  0  0
   -5.7800   -1.0630    2.2120 C   0  0  0  0  0  0  0  0  0  0  0  0
   -4.5750   -0.4640    1.8350 C   0  0  0  0  0  0  0  0  0  0  0  0
   -4.5750    0.5100    0.8900 C   0  0  0  0  0  0  0  0  0  0  0  0
   -3.0840    1.3230    0.3470 S   0  0  0  0  0  0  0  0  0  0  0  0
    3.2920   -1.0740   -0.1830 C   0  0  0  0  0  0  0  0  0  0  0  0
  1  2  1  0
  2  3  1  0
  3  4  1  0
  4  5  2  0
  4 28  1  0
  5  6  1  0
  6  7  2  0
  7  8  1  0
  8  9  1  0
  8 28  2  0
  9 10  1  0
 10 11  1  0
 11 12  1  6
 11 13  1  0
 13 14  1  0
 13 15  2  3
 15 16  1  0
 16 17  2  0
 16 18  1  0
 18 19  2  0
 18 27  1  0
 19 20  1  0
 20 21  1  0
 21 22  2  0
 21 26  1  0
 22 23  1  0
 23 24  2  0
 24 25  1  0
 25 26  2  0
 26 27  1  0
M  CHG  1  10   1
M  END
