
     RDKit          3D

 22 24  0  0  0  0  0  0  0  0999 V2000
   -4.1300   -0.2170    3.0970 C   0  0  0  0  0  0  0  0  0  0  0  0
   -3.7390   -1.2130    2.1940 O   0  0  0  0  0  0  0  0  0  0  0  0
   -2.7860   -0.9670    1.2160 C   0  0  0  0  0  0  0  0  0  0  0  0
   -2.4120   -1.9570    0.3350 C   0  0  0  0  0  0  0  0  0  0  0  0
   -1.4620   -1.7260   -0.6460 C   0  0  0  0  0  0  0  0  0  0  0  0
   -0.8460   -0.4940   -0.7870 C   0  0  0  0  0  0  0  0  0  0  0  0
    0.1390   -0.2880   -1.8150 C   0  0  0  0  0  0  0  0  0  0  0  0
    0.0600   -0.4170   -3.1870 C   0  0  0  0  0  0  0  0  0  0  0  0
   -1.2020   -0.8340   -3.8630 C   0  0  0  0  0  0  0  0  0  0  0  0
    1.2480   -0.1180   -3.7510 N   0  0  0  0  0  0  0  0  0  0  0  0
    2.0720    0.1970   -2.7660 N   0  0  0  0  0  0  0  0  0  0  0  0
    1.4490    0.1100   -1.5690 C   0  0  0  0  0  0  0  0  0  0  0  0
    2.0380    0.3820   -0.2800 C   0  0  0  0  0  0  0  0  0  0  0  0
    2.1870   -0.5720    0.6990 C   0  0  0  0  0  0  0  0  0  0  0  0
    2.7600   -0.2580    1.9290 C   0  0  0  0  0  0  0  0  0  0  0  0
    3.1840    1.0270    2.1720 C   0  0  0  0  0  0  0  0  0  0  0  0
    3.7640    1.3370    3.4260 O   0  0  0  0  0  0  0  0  0  0  0  0
    3.0390    1.9810    1.2070 C   0  0  0  0  0  0  0  0  0  0  0  0
    2.4710    1.6510   -0.0030 C   0  0  0  0  0  0  0  0  0  0  0  0
    2.3320    2.6310   -0.9720 O   0  0  0  0  0  0  0  0  0  0  0  0
   -1.2330    0.4930    0.1070 C   0  0  0  0  0  0  0  0  0  0  0  0
   -2.1800    0.2620    1.0850 C   0  0  0  0  0  0  0  0  0  0  0  0
  1  2  1  0
  2  3  1  0
  3  4  2  0
  3 22  1  0
  4  5  1  0
  5  6  2  0
  6  7  1  0
  6 21  1  0
  7  8  1  0
  7 12  2  0
  8  9  1  0
  8 10  2  0
 10 11  1  0
 11 12  1  0
 12 13  1  0
 13 14  2  0
 13 19  1  0
 14 15  1  0
 15 16  2  0
 16 17  1  0
 16 18  1  0
 18 19  2  0
 19 20  1  0
 21 22  2  0
M  END
