
     RDKit          3D

 27 29  0  0  0  0  0  0  0  0999 V2000
    8.8500    1.3720    1.6820 C   0  0  0  0  0  0  0  0  0  0  0  0
    8.2810    1.7320    0.3250 C   0  0  0  0  0  0  0  0  0  0  0  0
    7.3260    0.6260   -0.0470 C   0  0  0  0  0  0  0  0  0  0  0  0
    7.6610   -0.5150   -0.7420 C   0  0  0  0  0  0  0  0  0  0  0  0
    6.5000   -1.2590   -0.8700 C   0  0  0  0  0  0  0  0  0  0  0  0
    5.5110   -0.5350   -0.2450 C   0  0  0  0  0  0  0  0  0  0  0  0
    4.1040   -0.9900   -0.1580 C   0  0  0  0  0  0  0  0  0  0  0  0
    3.2420   -0.2130    0.4650 C   0  0  0  0  0  0  0  0  0  0  0  0
    1.8440   -0.5890    0.5920 C   0  0  0  0  0  0  0  0  0  0  0  0
    1.0130    0.3050    1.2720 C   0  0  0  0  0  0  0  0  0  0  0  0
   -0.3170   -0.0020    1.4200 C   0  0  0  0  0  0  0  0  0  0  0  0
   -0.8680   -1.1630    0.9230 C   0  0  0  0  0  0  0  0  0  0  0  0
   -2.3110   -1.4430    1.1130 C   0  0  2  0  0  0  0  0  0  0  0  0
   -2.4610   -2.7810    1.5180 O   0  0  0  0  0  0  0  0  0  0  0  0
   -2.9870   -1.2220   -0.2140 C   0  0  0  0  0  0  0  0  0  0  0  0
   -2.8420    0.1490   -0.6430 N   0  0  0  0  0  0  0  0  0  0  0  0
   -3.7840    0.4820   -1.6510 C   0  0  0  0  0  0  0  0  0  0  0  0
   -5.1540    0.7530   -1.0480 C   0  0  0  0  0  0  0  0  0  0  0  0
   -5.3970    0.6760    0.2620 C   0  0  0  0  0  0  0  0  0  0  0  0
   -6.6770    0.9420    0.7050 C   0  0  0  0  0  0  0  0  0  0  0  0
   -7.2220    0.9300    2.1010 C   0  0  0  0  0  0  0  0  0  0  0  0
   -7.5370    1.3060   -0.7880 S   0  0  0  0  0  0  0  0  0  0  0  0
   -6.1820    1.0910   -1.8940 C   0  0  0  0  0  0  0  0  0  0  0  0
   -6.1880    1.2450   -3.3620 C   0  0  0  0  0  0  0  0  0  0  0  0
   -0.0720   -2.0570    0.2520 C   0  0  0  0  0  0  0  0  0  0  0  0
    1.2870   -1.7460    0.0990 C   0  0  0  0  0  0  0  0  0  0  0  0
    6.0550    0.5500    0.2120 O   0  0  0  0  0  0  0  0  0  0  0  0
  1  2  1  0
  2  3  1  0
  3  4  2  0
  3 27  1  0
  4  5  1  0
  5  6  2  0
  6  7  1  0
  6 27  1  0
  7  8  2  3
  8  9  1  0
  9 10  2  0
  9 26  1  0
 10 11  1  0
 11 12  2  0
 12 13  1  0
 12 25  1  0
 13 14  1  6
 13 15  1  0
 15 16  1  0
 16 17  1  0
 17 18  1  0
 18 19  1  0
 18 23  2  0
 19 20  2  0
 20 21  1  0
 20 22  1  0
 22 23  1  0
 23 24  1  0
 25 26  2  0
M  CHG  1  16   1
M  END
