
     RDKit          3D

 25 27  0  0  0  0  0  0  0  0999 V2000
    0.4340    1.2030    1.0120 C   0  0  0  0  0  0  0  0  0  0  0  0
    0.0860   -0.1070    0.4300 C   0  0  0  0  0  0  0  0  0  0  0  0
    0.9150   -1.1490    0.1420 C   0  0  0  0  0  0  0  0  0  0  0  0
    2.3800   -1.2130    0.3440 C   0  0  0  0  0  0  0  0  0  0  0  0
    3.0280   -0.2640    0.8160 O   0  0  0  0  0  0  0  0  0  0  0  0
    3.1020   -2.3840   -0.0040 N   0  0  0  0  0  0  0  0  0  0  0  0
    4.4870   -2.6430    0.0940 C   0  0  0  0  0  0  0  0  0  0  0  0
    5.4240   -1.8480   -0.7090 C   0  0  0  0  0  0  0  0  0  0  0  0
    6.1930   -2.4410   -1.6430 C   0  0  0  0  0  0  0  0  0  0  0  0
    7.0340   -1.4270   -2.2930 C   0  0  0  0  0  0  0  0  0  0  0  0
    6.6990   -0.1660   -1.6420 C   0  0  0  0  0  0  0  0  0  0  0  0
    5.7640   -0.4530   -0.7350 C   0  0  0  0  0  0  0  0  0  0  0  0
    0.1370   -2.1040   -0.3620 N   0  0  0  0  0  0  0  0  0  0  0  0
   -1.1500   -1.6900   -0.3980 N   0  0  0  0  0  0  0  0  0  0  0  0
   -2.2300   -2.5270   -0.9020 C   0  0  0  0  0  0  0  0  0  0  0  0
   -1.2460   -0.4650    0.0780 C   0  0  0  0  0  0  0  0  0  0  0  0
   -2.3920    0.4540    0.2640 C   0  0  0  0  0  0  0  0  0  0  0  0
   -2.1100    1.5780    0.7570 O   0  0  0  0  0  0  0  0  0  0  0  0
   -3.7450    0.1980   -0.0510 C   0  0  0  0  0  0  0  0  0  0  0  0
   -4.7960    0.8920    0.0610 C   0  0  0  0  0  0  0  0  0  0  0  0
   -5.1980    2.2070    0.5220 C   0  0  0  0  0  0  0  0  0  0  0  0
   -6.5010    2.6170    0.4810 C   0  0  0  0  0  0  0  0  0  0  0  0
   -6.5960    3.9690    1.0060 C   0  0  0  0  0  0  0  0  0  0  0  0
   -5.2430    4.3580    1.3740 C   0  0  0  0  0  0  0  0  0  0  0  0
   -4.4660    3.3150    1.0800 C   0  0  0  0  0  0  0  0  0  0  0  0
  1  2  1  0
  2  3  1  0
  2 16  2  0
  3  4  1  0
  3 13  2  0
  4  5  2  0
  4  6  1  0
  6  7  1  0
  7  8  1  0
  8  9  2  0
  8 12  1  0
  9 10  1  0
 10 11  1  0
 11 12  2  0
 13 14  1  0
 14 15  1  0
 14 16  1  0
 16 17  1  0
 17 18  2  0
 17 19  1  0
 19 20  2  3
 20 21  1  0
 21 22  2  0
 21 25  1  0
 22 23  1  0
 23 24  1  0
 24 25  2  0
M  END
