
     RDKit          3D

 22 23  0  0  0  0  0  0  0  0999 V2000
   -7.4120    0.0180   -0.9200 C   0  0  0  0  0  0  0  0  0  0  0  0
   -6.2190    0.0580   -0.0100 C   0  0  0  0  0  0  0  0  0  0  0  0
   -4.9660    0.0460   -0.7430 N   0  0  0  0  0  0  0  0  0  0  0  0
   -3.8910    0.0860    0.2520 C   0  0  0  0  0  0  0  0  0  0  0  0
   -2.5350    0.0770   -0.4220 C   0  0  0  0  0  0  0  0  0  0  0  0
   -1.4840    0.1210    0.6610 C   0  0  2  0  0  0  0  0  0  0  0  0
   -1.6560   -1.1040    1.5480 C   0  0  0  0  0  0  0  0  0  0  0  0
   -1.6950    1.4000    1.4500 C   0  0  0  0  0  0  0  0  0  0  0  0
   -0.1730    0.0610    0.1180 O   0  0  0  0  0  0  0  0  0  0  0  0
    0.9250    0.0880    0.9260 C   0  0  0  0  0  0  0  0  0  0  0  0
    0.7840    0.1660    2.1660 O   0  0  0  0  0  0  0  0  0  0  0  0
    2.2870    0.0280    0.3860 C   0  0  0  0  0  0  0  0  0  0  0  0
    2.5360   -0.0590   -0.9640 C   0  0  0  0  0  0  0  0  0  0  0  0
    3.7970   -0.1100   -1.3790 N   0  0  0  0  0  0  0  0  0  0  0  0
    4.8760   -0.0840   -0.5830 C   0  0  0  0  0  0  0  0  0  0  0  0
    6.2190   -0.1430   -1.1080 N   0  0  0  0  0  0  0  0  0  0  0  0
    7.3540   -0.1340   -0.3150 C   0  0  0  0  0  0  0  0  0  0  0  0
    8.4530   -0.6490   -0.8120 C   0  0  0  0  0  0  0  0  0  0  0  0
    8.0170   -1.2070   -2.4630 S   0  0  0  0  0  0  0  0  0  0  0  0
    6.4580   -0.2190   -2.5370 C   0  0  0  0  0  0  0  0  0  0  0  0
    4.6370    0.0020    0.7460 N   0  0  0  0  0  0  0  0  0  0  0  0
    3.3810    0.0560    1.2230 C   0  0  0  0  0  0  0  0  0  0  0  0
  1  2  1  0
  2  3  1  0
  3  4  1  0
  4  5  1  0
  5  6  1  0
  6  7  1  1
  6  8  1  0
  6  9  1  0
  9 10  1  0
 10 11  2  0
 10 12  1  0
 12 13  2  0
 12 22  1  0
 13 14  1  0
 14 15  2  0
 15 16  1  0
 15 21  1  0
 16 17  1  0
 16 20  1  0
 17 18  2  0
 18 19  1  0
 19 20  1  0
 21 22  2  0
M  END
