
     RDKit          3D

 25 26  0  0  0  0  0  0  0  0999 V2000
   -6.5100   -1.5560    0.1380 C   0  0  0  0  0  0  0  0  0  0  0  0
   -6.8860   -0.1160   -0.0080 C   0  0  0  0  0  0  0  0  0  0  0  0
   -6.2760    0.7870    1.0170 C   0  0  0  0  0  0  0  0  0  0  0  0
   -4.7840    0.7890    1.0100 C   0  0  0  0  0  0  0  0  0  0  0  0
   -4.2100    1.2370   -0.3180 C   0  0  0  0  0  0  0  0  0  0  0  0
   -2.7620    1.2310   -0.2990 N   0  0  0  0  0  0  0  0  0  0  0  0
   -1.9060    0.2540   -0.6140 C   0  0  0  0  0  0  0  0  0  0  0  0
   -0.6040    0.6840   -0.4540 C   0  0  0  0  0  0  0  0  0  0  0  0
    0.6480   -0.0790   -0.6920 C   0  0  0  0  0  0  0  0  0  0  0  0
    1.7380    0.7740   -0.4480 O   0  0  0  0  0  0  0  0  0  0  0  0
    3.0370    0.2900   -0.6060 C   0  0  0  0  0  0  0  0  0  0  0  0
    3.5680    0.4510   -1.8000 C   0  0  0  0  0  0  0  0  0  0  0  0
    2.8450    1.0940   -2.8950 C   0  0  0  0  0  0  0  0  0  0  0  0
    3.3520    1.2520   -4.0510 N   0  0  0  0  0  0  0  0  0  0  0  0
    4.6850    0.7990   -4.3500 C   0  0  0  0  0  0  0  0  0  0  0  0
    3.7410   -0.3500    0.5040 C   0  0  0  0  0  0  0  0  0  0  0  0
    5.0160   -0.8480    0.4250 C   0  0  0  0  0  0  0  0  0  0  0  0
    5.6440   -1.4520    1.5180 C   0  0  0  0  0  0  0  0  0  0  0  0
    5.0080   -1.5750    2.7320 C   0  0  0  0  0  0  0  0  0  0  0  0
    5.6560   -2.2050    3.8810 C   0  0  0  0  0  0  0  0  0  0  0  0
    5.1040   -2.3320    4.9970 O   0  0  0  0  0  0  0  0  0  0  0  0
    3.7200   -1.0750    2.8190 C   0  0  0  0  0  0  0  0  0  0  0  0
    3.1030   -0.4810    1.7420 C   0  0  0  0  0  0  0  0  0  0  0  0
   -0.7180    1.9920   -0.0190 C   0  0  0  0  0  0  0  0  0  0  0  0
   -2.0260    2.2900    0.0640 N   0  0  0  0  0  0  0  0  0  0  0  0
  1  2  1  0
  2  3  1  0
  3  4  1  0
  4  5  1  0
  5  6  1  0
  6  7  1  0
  6 25  1  0
  7  8  2  0
  8  9  1  0
  8 24  1  0
  9 10  1  0
 10 11  1  0
 11 12  2  3
 11 16  1  0
 12 13  1  0
 13 14  2  3
 14 15  1  0
 16 17  2  0
 16 23  1  0
 17 18  1  0
 18 19  2  0
 19 20  1  0
 19 22  1  0
 20 21  2  0
 22 23  2  0
 24 25  2  0
M  END
