
     RDKit          3D

 25 26  0  0  0  0  0  0  0  0999 V2000
    6.4890    0.2590   -1.7220 C   0  0  0  0  0  0  0  0  0  0  0  0
    6.8590   -0.8330   -1.0790 C   0  0  0  0  0  0  0  0  0  0  0  0
    5.9870   -1.4090   -0.0350 C   0  0  0  0  0  0  0  0  0  0  0  0
    6.4370   -2.5200    0.5700 C   0  0  0  0  0  0  0  0  0  0  0  0
    4.8760   -0.8840    0.2720 O   0  0  0  0  0  0  0  0  0  0  0  0
    3.7960   -0.3080    0.6340 C   0  0  0  0  0  0  0  0  0  0  0  0
    3.7580    0.6970    1.6110 C   0  0  0  0  0  0  0  0  0  0  0  0
    2.6070    1.3200    2.0060 C   0  0  0  0  0  0  0  0  0  0  0  0
    1.3710    0.9630    1.4270 C   0  0  0  0  0  0  0  0  0  0  0  0
    0.2050    1.6650    1.8240 C   0  0  0  0  0  0  0  0  0  0  0  0
   -1.0300    1.5360    1.5890 C   0  0  0  0  0  0  0  0  0  0  0  0
   -1.9270    0.6880    0.8590 C   0  0  0  0  0  0  0  0  0  0  0  0
   -1.6500   -0.5210    0.2960 C   0  0  0  0  0  0  0  0  0  0  0  0
   -2.5800   -1.2500   -0.4660 C   0  0  0  0  0  0  0  0  0  0  0  0
   -3.8340   -0.7460   -0.6670 C   0  0  0  0  0  0  0  0  0  0  0  0
   -4.1110    0.4740   -0.0950 C   0  0  0  0  0  0  0  0  0  0  0  0
   -5.4720    1.0200   -0.3130 C   0  0  0  0  0  0  0  0  0  0  0  0
   -5.8090    2.3320    0.2870 C   0  0  0  0  0  0  0  0  0  0  0  0
   -6.3410    0.3900   -0.9960 N   0  0  0  0  0  0  0  0  0  0  0  0
   -7.6690    0.8600   -1.2440 C   0  0  0  0  0  0  0  0  0  0  0  0
   -3.2140    1.1430    0.6200 N   0  0  0  0  0  0  0  0  0  0  0  0
    1.4470    0.0130    0.5120 N   0  0  0  0  0  0  0  0  0  0  0  0
    2.5320   -0.6200    0.0940 C   0  0  0  0  0  0  0  0  0  0  0  0
    2.5020   -1.6020   -0.8720 O   0  0  0  0  0  0  0  0  0  0  0  0
    1.3450   -2.0450   -1.5190 C   0  0  0  0  0  0  0  0  0  0  0  0
  1  2  2  0
  2  3  1  0
  3  4  2  0
  3  5  1  0
  5  6  1  0
  6  7  2  0
  6 23  1  0
  7  8  1  0
  8  9  2  0
  9 10  1  0
  9 22  1  0
 10 11  2  3
 11 12  1  0
 12 13  2  0
 12 21  1  0
 13 14  1  0
 14 15  2  0
 15 16  1  0
 16 17  1  0
 16 21  2  0
 17 18  1  0
 17 19  2  3
 19 20  1  0
 22 23  2  0
 23 24  1  0
 24 25  1  0
M  END
