
     RDKit          3D

 25 27  0  0  0  0  0  0  0  0999 V2000
    0.5940   -0.6030    4.2890 C   0  0  0  0  0  0  0  0  0  0  0  0
   -0.0970    0.0410    3.1130 C   0  0  0  0  0  0  0  0  0  0  0  0
   -0.0810   -0.7500    1.9260 N   0  0  0  0  0  0  0  0  0  0  0  0
   -1.2210   -1.6360    1.7100 C   0  0  0  0  0  0  0  0  0  0  0  0
   -2.3660   -0.9520    0.9900 C   0  0  0  0  0  0  0  0  0  0  0  0
   -2.0130   -0.4440   -0.3700 C   0  0  0  0  0  0  0  0  0  0  0  0
   -3.0960    0.1960   -0.9440 O   0  0  0  0  0  0  0  0  0  0  0  0
   -4.1760   -0.6540   -1.0890 C   0  0  0  0  0  0  0  0  0  0  0  0
   -5.3230    0.0800   -1.7570 C   0  0  0  0  0  0  0  0  0  0  0  0
   -5.8880   -0.2490   -2.9010 C   0  0  0  0  0  0  0  0  0  0  0  0
   -6.9570    0.7350   -3.1690 C   0  0  0  0  0  0  0  0  0  0  0  0
   -6.8470    1.6030   -2.1980 C   0  0  0  0  0  0  0  0  0  0  0  0
   -5.9920    1.2700   -1.2470 C   0  0  0  0  0  0  0  0  0  0  0  0
    0.9390   -0.7220    0.9570 C   0  0  0  0  0  0  0  0  0  0  0  0
    0.8860   -1.4550   -0.0850 O   0  0  0  0  0  0  0  0  0  0  0  0
    2.1390    0.1390    1.0600 C   0  0  0  0  0  0  0  0  0  0  0  0
    2.4170    0.9820    2.0580 N   0  0  0  0  0  0  0  0  0  0  0  0
    3.5720    1.5750    1.8000 C   0  0  0  0  0  0  0  0  0  0  0  0
    4.0490    1.1190    0.6330 N   0  0  0  0  0  0  0  0  0  0  0  0
    5.1890    1.4160   -0.0590 C   0  0  0  0  0  0  0  0  0  0  0  0
    5.4480    0.7950   -1.2560 C   0  0  0  0  0  0  0  0  0  0  0  0
    6.6930    1.1000   -2.0400 C   0  0  0  0  0  0  0  0  0  0  0  0
    4.5490   -0.1230   -1.7470 C   0  0  0  0  0  0  0  0  0  0  0  0
    3.4020   -0.4250   -1.0560 C   0  0  0  0  0  0  0  0  0  0  0  0
    3.1720    0.2210    0.1510 C   0  0  0  0  0  0  0  0  0  0  0  0
  1  2  1  0
  2  3  1  0
  3  4  1  0
  3 14  1  0
  4  5  1  0
  5  6  1  0
  6  7  1  0
  7  8  1  0
  8  9  1  0
  9 10  2  0
  9 13  1  0
 10 11  1  0
 11 12  2  0
 12 13  2  0
 14 15  2  0
 14 16  1  0
 16 17  1  0
 16 25  2  0
 17 18  2  0
 18 19  1  0
 19 20  1  0
 19 25  1  0
 20 21  2  0
 21 22  1  0
 21 23  1  0
 23 24  2  0
 24 25  1  0
M  END
