
     RDKit          3D

 25 26  0  0  0  0  0  0  0  0999 V2000
    8.3360   -0.7350   -1.0810 C   0  0  0  0  0  0  0  0  0  0  0  0
    7.5400   -0.6580    0.1260 C   0  0  0  0  0  0  0  0  0  0  0  0
    6.2750   -0.4910    0.3010 C   0  0  0  0  0  0  0  0  0  0  0  0
    5.2490   -0.3250   -0.7020 C   0  0  0  0  0  0  0  0  0  0  0  0
    5.5690   -0.3630   -2.1350 C   0  0  0  0  0  0  0  0  0  0  0  0
    4.0070   -0.1590   -0.2520 C   0  0  0  0  0  0  0  0  0  0  0  0
    2.8620    0.0220   -1.0980 C   0  0  0  0  0  0  0  0  0  0  0  0
    1.6320    0.1800   -0.6580 C   0  0  0  0  0  0  0  0  0  0  0  0
    0.5630    0.3540   -1.6310 C   0  0  0  0  0  0  0  0  0  0  0  0
   -0.6920    0.5050   -1.2120 C   0  0  0  0  0  0  0  0  0  0  0  0
   -0.9960    0.4980    0.1720 N   0  0  0  0  0  0  0  0  0  0  0  0
   -2.3540    0.6420    0.6080 C   0  0  0  0  0  0  0  0  0  0  0  0
   -3.0750   -0.6460    0.1850 C   0  0  0  0  0  0  0  0  0  0  0  0
   -4.4510   -0.6750    0.5540 N   0  0  0  0  0  0  0  0  0  0  0  0
   -4.7660   -1.1870    1.7810 C   0  0  0  0  0  0  0  0  0  0  0  0
   -3.8770   -1.6030    2.5480 O   0  0  0  0  0  0  0  0  0  0  0  0
   -6.0990   -1.2150    2.1130 C   0  0  0  0  0  0  0  0  0  0  0  0
   -7.0420   -0.7390    1.2230 C   0  0  0  0  0  0  0  0  0  0  0  0
   -6.7010   -0.2410    0.0210 N   0  0  0  0  0  0  0  0  0  0  0  0
   -7.6430    0.2600   -0.9350 C   0  0  0  0  0  0  0  0  0  0  0  0
   -5.3890   -0.2220   -0.2860 C   0  0  0  0  0  0  0  0  0  0  0  0
   -5.0190    0.2430   -1.4170 O   0  0  0  0  0  0  0  0  0  0  0  0
    0.0380    0.3300    1.1160 C   0  0  0  0  0  0  0  0  0  0  0  0
   -0.2960    0.3260    2.5530 C   0  0  0  0  0  0  0  0  0  0  0  0
    1.3210    0.1740    0.7360 C   0  0  0  0  0  0  0  0  0  0  0  0
  1  2  1  0
  2  3  2  3
  3  4  1  0
  4  5  1  0
  4  6  2  3
  6  7  1  0
  7  8  2  3
  8  9  1  0
  8 25  1  0
  9 10  2  0
 10 11  1  0
 11 12  1  0
 11 23  1  0
 12 13  1  0
 13 14  1  0
 14 15  1  0
 14 21  1  0
 15 16  2  0
 15 17  1  0
 17 18  2  0
 18 19  1  0
 19 20  1  0
 19 21  1  0
 21 22  2  0
 23 24  1  0
 23 25  2  0
M  END
