
     RDKit          3D

 22 23  0  0  0  0  0  0  0  0999 V2000
    6.5250    1.0000   -0.6410 C   0  0  0  0  0  0  0  0  0  0  0  0
    5.5000    0.7910   -1.7160 C   0  0  0  0  0  0  0  0  0  0  0  0
    4.8190   -0.4770   -1.5420 N   0  0  0  0  0  0  0  0  0  0  0  0
    5.1900   -1.6210   -2.0550 N   0  0  0  0  0  0  0  0  0  0  0  0
    4.3210   -2.5690   -1.6810 C   0  0  0  0  0  0  0  0  0  0  0  0
    3.3930   -1.9360   -0.9050 N   0  0  0  0  0  0  0  0  0  0  0  0
    3.6960   -0.6340   -0.8140 C   0  0  0  0  0  0  0  0  0  0  0  0
    2.9950    0.4330   -0.0920 C   0  0  0  0  0  0  0  0  0  0  0  0
    1.8140   -0.1080    0.5810 N   0  0  0  0  0  0  0  0  0  0  0  0
    0.9450    0.6720    1.3520 C   0  0  0  0  0  0  0  0  0  0  0  0
    1.1490    1.8960    1.5000 O   0  0  0  0  0  0  0  0  0  0  0  0
   -0.2280    0.0410    1.9990 C   0  0  0  0  0  0  0  0  0  0  0  0
   -1.0150    1.1000    2.7820 C   0  0  0  0  0  0  0  0  0  0  0  0
   -2.4510    0.3390    3.5760 S   0  0  0  0  0  0  0  0  0  0  0  0
   -3.5590   -0.1960    2.2890 C   0  0  0  0  0  0  0  0  0  0  0  0
   -3.6600    0.5170    1.1800 C   0  0  0  0  0  0  0  0  0  0  0  0
   -4.5630    0.1100    0.0940 C   0  0  0  0  0  0  0  0  0  0  0  0
   -4.7180    0.7660   -1.0380 C   0  0  0  0  0  0  0  0  0  0  0  0
   -5.7050    0.0820   -1.9130 C   0  0  0  0  0  0  0  0  0  0  0  0
   -6.0950   -1.0870   -1.0910 C   0  0  0  0  0  0  0  0  0  0  0  0
   -7.0340   -2.0380   -1.5330 O   0  0  0  0  0  0  0  0  0  0  0  0
   -5.4330   -1.0460    0.0410 C   0  0  0  0  0  0  0  0  0  0  0  0
  1  2  1  0
  2  3  1  0
  3  4  1  0
  3  7  1  0
  4  5  2  0
  5  6  1  0
  6  7  2  0
  7  8  1  0
  8  9  1  0
  9 10  1  0
 10 11  2  0
 10 12  1  0
 12 13  1  0
 13 14  1  0
 14 15  1  0
 15 16  2  3
 16 17  1  0
 17 18  2  0
 17 22  1  0
 18 19  1  0
 19 20  1  0
 20 21  1  0
 20 22  2  0
M  END
