
     RDKit          3D

 22 23  0  0  0  0  0  0  0  0999 V2000
   -0.8570   -4.0480    0.6760 C   0  0  0  0  0  0  0  0  0  0  0  0
   -1.6950   -3.3820   -0.3910 C   0  0  0  0  0  0  0  0  0  0  0  0
   -1.6130   -1.9460   -0.2350 N   0  0  0  0  0  0  0  0  0  0  0  0
   -0.7040   -1.1340   -0.8170 C   0  0  0  0  0  0  0  0  0  0  0  0
    0.5810   -1.7200   -1.9120 S   0  0  0  0  0  0  0  0  0  0  0  0
    1.5970   -0.3320   -2.4870 C   0  0  0  0  0  0  0  0  0  0  0  0
    2.3900    0.2890   -1.4030 C   0  0  0  0  0  0  0  0  0  0  0  0
    1.8810    1.1860   -0.6960 O   0  0  0  0  0  0  0  0  0  0  0  0
    3.7260   -0.1090   -1.1410 N   0  0  0  0  0  0  0  0  0  0  0  0
    4.5480    0.4410   -0.1200 C   0  0  0  0  0  0  0  0  0  0  0  0
    5.6910    1.0590   -0.3580 C   0  0  0  0  0  0  0  0  0  0  0  0
    6.2830    1.5010    0.9110 C   0  0  0  0  0  0  0  0  0  0  0  0
    5.3050    1.0440    1.9320 C   0  0  0  0  0  0  0  0  0  0  0  0
    4.2960    0.4250    1.3100 C   0  0  0  0  0  0  0  0  0  0  0  0
   -0.9510    0.1340   -0.4330 N   0  0  0  0  0  0  0  0  0  0  0  0
   -1.9940    0.1610    0.3790 N   0  0  0  0  0  0  0  0  0  0  0  0
   -2.6160    1.3220    1.0380 C   0  0  0  0  0  0  0  0  0  0  0  0
   -3.7070    1.8970    0.1460 C   0  0  1  0  0  0  0  0  0  0  0  0
   -4.7880    0.8720   -0.1420 C   0  0  0  0  0  0  0  0  0  0  0  0
   -4.3880    3.0250    0.9120 C   0  0  0  0  0  0  0  0  0  0  0  0
   -2.3930   -1.1270    0.4930 C   0  0  0  0  0  0  0  0  0  0  0  0
   -3.3620   -1.5380    1.1830 O   0  0  0  0  0  0  0  0  0  0  0  0
  1  2  1  0
  2  3  1  0
  3  4  1  0
  3 21  1  0
  4  5  1  0
  4 15  2  0
  5  6  1  0
  6  7  1  0
  7  8  2  0
  7  9  1  0
  9 10  1  0
 10 11  2  0
 10 14  1  0
 11 12  1  0
 12 13  1  0
 13 14  2  0
 15 16  1  0
 16 17  1  0
 16 21  1  0
 17 18  1  0
 18 19  1  1
 18 20  1  0
 21 22  2  0
M  END
