
     RDKit          3D

 16 17  0  0  0  0  0  0  0  0999 V2000
   -1.9900   -1.8820    1.0100 C   0  0  0  0  0  0  0  0  0  0  0  0
   -1.8410   -1.0280    0.0330 C   0  0  0  0  0  0  0  0  0  0  0  0
   -0.8030   -0.0300   -0.0930 C   0  0  0  0  0  0  0  0  0  0  0  0
   -1.2130    1.2880    0.0130 C   0  0  0  0  0  0  0  0  0  0  0  0
   -2.5790    1.5660    0.2310 N   0  0  0  0  0  0  0  0  0  0  0  0
   -0.2730    2.2880   -0.0980 C   0  0  0  0  0  0  0  0  0  0  0  0
   -0.7170    3.9680    0.0250 Cl  0  0  0  0  0  0  0  0  0  0  0  0
    1.0560    1.9550   -0.3120 C   0  0  0  0  0  0  0  0  0  0  0  0
    2.2640    3.2030   -0.4550 Cl  0  0  0  0  0  0  0  0  0  0  0  0
    1.4760    0.6380   -0.4200 C   0  0  0  0  0  0  0  0  0  0  0  0
    0.5080   -0.3650   -0.3060 C   0  0  0  0  0  0  0  0  0  0  0  0
    0.9390   -1.7460   -0.4460 C   0  0  0  0  0  0  0  0  0  0  0  0
    0.1210   -2.6670   -0.3580 O   0  0  0  0  0  0  0  0  0  0  0  0
    2.2940   -1.9700   -0.6830 O   0  0  0  0  0  0  0  0  0  0  0  0
    3.2470   -0.9940   -0.3060 C   0  0  0  0  0  0  0  0  0  0  0  0
    2.7990    0.3080   -0.6330 O   0  0  0  0  0  0  0  0  0  0  0  0
  1  2  2  0
  2  3  1  0
  3  4  2  0
  3 11  1  0
  4  5  1  0
  4  6  1  0
  6  7  1  0
  6  8  2  0
  8  9  1  0
  8 10  1  0
 10 11  2  0
 10 16  1  0
 11 12  1  0
 12 13  2  0
 12 14  1  0
 14 15  1  0
 15 16  1  0
M  END
