
     RDKit          3D

 25 28  0  0  0  0  0  0  0  0999 V2000
    5.2900   -0.2620   -0.1780 C   0  0  0  0  0  0  0  0  0  0  0  0
    3.9280    0.1350   -0.0510 N   0  0  0  0  0  0  0  0  0  0  0  0
    3.7080    1.5190    0.3450 C   0  0  0  0  0  0  0  0  0  0  0  0
    2.5600    2.1560    0.5090 C   0  0  0  0  0  0  0  0  0  0  0  0
    1.1410    1.6060    0.3410 C   0  0  0  0  0  0  0  0  0  0  0  0
    0.4190    2.6680    0.0870 C   0  0  0  0  0  0  0  0  0  0  0  0
   -0.9920    2.9900   -0.1850 C   0  0  0  0  0  0  0  0  0  0  0  0
   -1.3410    2.9580   -1.4710 O   0  0  0  0  0  0  0  0  0  0  0  0
   -1.9610    3.3170    0.6660 O   0  0  0  0  0  0  0  0  0  0  0  0
   -3.2290    3.0130    1.1550 C   0  0  0  0  0  0  0  0  0  0  0  0
   -3.5360    1.5370    0.8150 C   0  0  0  0  0  0  0  0  0  0  0  0
   -3.8360    1.2720   -0.4870 C   0  0  0  0  0  0  0  0  0  0  0  0
   -3.7550   -0.1010   -0.9000 C   0  0  0  0  0  0  0  0  0  0  0  0
   -3.4010   -1.1380   -0.0750 C   0  0  0  0  0  0  0  0  0  0  0  0
   -3.1310   -0.8520    1.2360 C   0  0  0  0  0  0  0  0  0  0  0  0
   -3.2070    0.5130    1.6540 C   0  0  0  0  0  0  0  0  0  0  0  0
   -2.9600   -2.4950   -0.6750 C   0  0  0  0  0  0  0  0  0  0  0  0
   -1.4540   -2.2930   -1.0960 C   0  0  0  0  0  0  0  0  0  0  0  0
   -0.9640   -1.1630   -0.3560 N   0  0  0  0  0  0  0  0  0  0  0  0
    0.4100   -0.6960   -0.6690 C   0  0  2  0  0  0  0  0  0  0  0  0
    1.1110   -2.0750   -0.7040 C   0  0  0  0  0  0  0  0  0  0  0  0
    2.6560   -1.9880   -0.6980 C   0  0  0  0  0  0  0  0  0  0  0  0
    2.8130   -0.6650   -0.2670 C   0  0  1  0  0  0  0  0  0  0  0  0
    1.9730   -0.5540    1.0280 C   0  0  0  0  0  0  0  0  0  0  0  0
    0.7350    0.1950    0.4840 C   0  0  1  0  0  0  0  0  0  0  0  0
  1  2  1  0
  2  3  1  0
  2 23  1  0
  3  4  2  0
  4  5  1  0
  5  6  2  0
  5 25  1  0
  6  7  1  0
  7  8  2  0
  7  9  1  0
  9 10  1  0
 10 11  1  0
 11 12  2  0
 11 16  1  0
 12 13  1  0
 13 14  2  0
 14 15  1  0
 14 17  1  0
 15 16  2  0
 17 18  1  0
 18 19  1  0
 19 20  1  0
 20 21  1  1
 20 25  1  0
 21 22  1  0
 23 22  1  1
 23 24  1  0
 25 24  1  6
M  CHG  1  19   1
M  END
