
     RDKit          3D

 25 28  0  0  0  0  0  0  0  0999 V2000
    4.1440    0.8360    0.1340 C   0  0  0  0  0  0  0  0  0  0  0  0
    2.8110    0.2970   -0.2280 C   0  0  2  0  0  0  0  0  0  0  0  0
    1.8260    1.2180   -0.5080 O   0  0  0  0  0  0  0  0  0  0  0  0
    2.2510    2.4900   -0.7750 C   0  0  0  0  0  0  0  0  0  0  0  0
    1.8590    3.5040    0.2780 C   0  0  0  0  0  0  0  0  0  0  0  0
    0.4060    3.8670    0.1960 C   0  0  0  0  0  0  0  0  0  0  0  0
   -0.4890    2.7290   -0.2790 C   0  0  0  0  0  0  0  0  0  0  0  0
   -0.7690    2.5300   -1.6070 C   0  0  0  0  0  0  0  0  0  0  0  0
   -1.6040    1.4690   -2.0430 C   0  0  0  0  0  0  0  0  0  0  0  0
   -2.1880    0.5660   -1.1780 C   0  0  0  0  0  0  0  0  0  0  0  0
   -1.9030    0.7740    0.1460 C   0  0  0  0  0  0  0  0  0  0  0  0
   -1.0660    1.8350    0.5960 C   0  0  0  0  0  0  0  0  0  0  0  0
   -3.0700   -0.5690   -1.6290 C   0  0  2  0  0  0  0  0  0  0  0  0
   -4.4400   -0.1940   -1.6610 O   0  0  0  0  0  0  0  0  0  0  0  0
   -4.7970   -0.3110   -0.3430 C   0  0  0  0  0  0  0  0  0  0  0  0
   -4.1430   -1.6190    0.0630 C   0  0  0  0  0  0  0  0  0  0  0  0
   -3.1460   -1.7780   -0.9140 N   0  0  0  0  0  0  0  0  0  0  0  0
   -1.9620   -2.4770   -0.6090 C   0  0  0  0  0  0  0  0  0  0  0  0
   -1.7030   -2.7800    0.8110 C   0  0  0  0  0  0  0  0  0  0  0  0
   -0.4960   -2.7220    1.3930 C   0  0  0  0  0  0  0  0  0  0  0  0
    0.7390   -2.3410    0.6700 C   0  0  2  0  0  0  0  0  0  0  0  0
    1.9700   -3.0110    1.2310 C   0  0  0  0  0  0  0  0  0  0  0  0
    3.0420   -1.9940    0.8130 C   0  0  0  0  0  0  0  0  0  0  0  0
    2.3640   -0.6700    0.8780 C   0  0  2  0  0  0  0  0  0  0  0  0
    0.9400   -0.9290    0.7890 N   0  0  0  0  0  0  0  0  0  0  0  0
  2  1  1  1
  2  3  1  0
  2 24  1  0
  3  4  1  0
  4  5  1  0
  5  6  1  0
  6  7  1  0
  7  8  2  0
  7 12  1  0
  8  9  1  0
  9 10  2  0
 10 11  1  0
 10 13  1  0
 11 12  2  0
 13 14  1  1
 13 17  1  0
 14 15  1  0
 15 16  1  0
 16 17  1  0
 17 18  1  0
 18 19  1  0
 19 20  2  0
 20 21  1  0
 21 22  1  1
 21 25  1  0
 22 23  1  0
 24 23  1  6
 24 25  1  0
M  CHG  1  25   1
M  END
