
     RDKit          3D

 25 27  0  0  0  0  0  0  0  0999 V2000
    3.9300   -0.6820   -2.6710 C   0  0  0  0  0  0  0  0  0  0  0  0
    3.3420   -0.0030   -1.5230 C   0  0  0  0  0  0  0  0  0  0  0  0
    2.0420    0.1020   -1.1930 C   0  0  0  0  0  0  0  0  0  0  0  0
    1.8670    0.9000    0.0990 C   0  0  0  0  0  0  0  0  0  0  0  0
    0.5660    1.6690    0.1330 C   0  0  1  0  0  0  0  0  0  0  0  0
    0.9690    3.1140    0.6450 C   0  0  0  0  0  0  0  0  0  0  0  0
    1.5790    2.9790    1.8750 O   0  0  0  0  0  0  0  0  0  0  0  0
    1.9350    4.2290    2.3720 C   0  0  0  0  0  0  0  0  0  0  0  0
    0.0890    1.9480   -1.2100 C   0  0  0  0  0  0  0  0  0  0  0  0
    0.0690    0.9220   -2.3130 C   0  0  0  0  0  0  0  0  0  0  0  0
    0.7820   -0.3540   -1.8520 C   0  0  0  0  0  0  0  0  0  0  0  0
    0.2870   -1.5680   -1.8800 C   0  0  0  0  0  0  0  0  0  0  0  0
    0.9680   -2.7630   -1.1770 C   0  0  0  0  0  0  0  0  0  0  0  0
    0.1510   -3.2630   -0.0420 C   0  0  0  0  0  0  0  0  0  0  0  0
   -1.3070   -3.0640   -0.0240 C   0  0  0  0  0  0  0  0  0  0  0  0
   -1.9140   -1.8530    0.5240 C   0  0  2  0  0  0  0  0  0  0  0  0
   -2.8200   -1.2240   -0.5140 C   0  0  0  0  0  0  0  0  0  0  0  0
   -3.8270   -2.2350   -0.8620 C   0  0  0  0  0  0  0  0  0  0  0  0
   -4.6460   -3.0680   -1.1270 N   0  0  0  0  0  0  0  0  0  0  0  0
   -0.8750   -0.9930    1.1250 C   0  0  0  0  0  0  0  0  0  0  0  0
   -1.3770    0.4210    0.9540 C   0  0  1  0  0  0  0  0  0  0  0  0
   -2.4870    0.4480    1.9690 C   0  0  0  0  0  0  0  0  0  0  0  0
   -3.0930   -0.8620    2.2640 C   0  0  0  0  0  0  0  0  0  0  0  0
   -2.7890   -2.0000    1.6150 O   0  0  0  0  0  0  0  0  0  0  0  0
   -0.2950    1.2790    1.1880 N   0  0  0  0  0  0  0  0  0  0  0  0
  1  2  1  0
  2  3  2  3
  3  4  1  0
  3 11  1  0
  4  5  1  0
  5  6  1  1
  5  9  1  0
  5 25  1  0
  6  7  1  0
  7  8  1  0
  9 10  1  0
 10 11  1  0
 11 12  2  0
 12 13  1  0
 13 14  1  0
 14 15  1  0
 15 16  1  0
 16 17  1  6
 16 20  1  0
 16 24  1  0
 17 18  1  0
 18 19  3  0
 20 21  1  0
 21 22  1  1
 21 25  1  0
 22 23  1  0
 23 24  1  0
M  CHG  1  25   1
M  END
