
     RDKit          3D

 25 28  0  0  0  0  0  0  0  0999 V2000
    3.9610    0.7750    2.3650 C   0  0  0  0  0  0  0  0  0  0  0  0
    3.7690    1.5080    1.0810 C   0  0  0  0  0  0  0  0  0  0  0  0
    4.5730    2.4620    0.8530 O   0  0  0  0  0  0  0  0  0  0  0  0
    2.7170    1.0870    0.2300 N   0  0  0  0  0  0  0  0  0  0  0  0
    2.0570   -0.1030    0.8850 C   0  0  0  0  0  0  0  0  0  0  0  0
    1.3820   -0.9720   -0.1220 C   0  0  1  0  0  0  0  0  0  0  0  0
    2.4500   -0.9930   -1.2410 C   0  0  0  0  0  0  0  0  0  0  0  0
    2.3600    0.3070   -2.0230 C   0  0  0  0  0  0  0  0  0  0  0  0
    2.1700    1.4890   -1.0380 C   0  0  0  0  0  0  0  0  0  0  0  0
    1.5520    2.5900   -1.4180 C   0  0  0  0  0  0  0  0  0  0  0  0
    0.1250    2.9610   -1.2120 C   0  0  0  0  0  0  0  0  0  0  0  0
   -0.7840    1.9670   -0.6690 C   0  0  1  0  0  0  0  0  0  0  0  0
   -1.9570    2.5970    0.0910 C   0  0  0  0  0  0  0  0  0  0  0  0
   -2.6410    1.4460    0.8530 C   0  0  0  0  0  0  0  0  0  0  0  0
   -3.0330    0.2990   -0.0360 C   0  0  1  0  0  0  0  0  0  0  0  0
   -2.7930    0.6910   -1.4430 C   0  0  0  0  0  0  0  0  0  0  0  0
   -1.4470    1.2190   -1.7920 C   0  0  0  0  0  0  0  0  0  0  0  0
   -2.6380   -0.9940    0.4130 N   0  0  2  0  0  0  0  0  0  0  0  0
   -1.6810   -1.0340    1.4990 C   0  0  0  0  0  0  0  0  0  0  0  0
   -1.1260   -2.4590    1.6240 C   0  0  0  0  0  0  0  0  0  0  0  0
   -0.2610   -2.8140    0.4400 C   0  0  1  0  0  0  0  0  0  0  0  0
   -1.0600   -2.5450   -0.7790 C   0  0  0  0  0  0  0  0  0  0  0  0
   -2.4530   -2.0190   -0.5430 C   0  0  0  0  0  0  0  0  0  0  0  0
    1.1420   -2.3090    0.4780 C   0  0  2  0  0  0  0  0  0  0  0  0
    1.5910   -2.4290    1.7950 O   0  0  0  0  0  0  0  0  0  0  0  0
  1  2  1  0
  2  3  2  0
  2  4  1  0
  4  5  1  0
  4  9  1  0
  5  6  1  0
  6  7  1  6
  6 24  1  0
  7  8  1  0
  8  9  1  0
  9 10  2  0
 10 11  1  0
 12 11  1  6
 12 13  1  0
 12 17  1  0
 13 14  1  0
 14 15  1  0
 15 16  1  6
 15 18  1  0
 16 17  1  0
 18 19  1  0
 18 23  1  6
 19 20  1  0
 20 21  1  0
 21 22  1  6
 21 24  1  0
 22 23  1  0
 24 25  1  1
M  CHG  1  18   1
M  END
