
     RDKit          3D

 25 28  0  0  0  0  0  0  0  0999 V2000
    4.5440   -0.9140    1.4110 C   0  0  0  0  0  0  0  0  0  0  0  0
    3.1080   -0.9540    1.2110 N   0  0  2  0  0  0  0  0  0  0  0  0
    2.7760   -2.0370    0.3090 C   0  0  0  0  0  0  0  0  0  0  0  0
    1.3990   -1.9680   -0.2550 C   0  0  0  0  0  0  0  0  0  0  0  0
    0.3520   -2.5900    0.3720 C   0  0  0  0  0  0  0  0  0  0  0  0
   -0.9910   -2.5430   -0.1080 C   0  0  0  0  0  0  0  0  0  0  0  0
   -1.3140   -1.8540   -1.2570 C   0  0  0  0  0  0  0  0  0  0  0  0
   -0.2910   -1.2170   -1.9100 C   0  0  0  0  0  0  0  0  0  0  0  0
    1.0350   -1.2910   -1.3940 C   0  0  0  0  0  0  0  0  0  0  0  0
   -2.7300   -1.8030   -1.7780 C   0  0  0  0  0  0  0  0  0  0  0  0
   -3.5650   -0.6660   -1.3200 C   0  0  1  0  0  0  0  0  0  0  0  0
   -3.4400   -0.4170    0.1420 C   0  0  0  0  0  0  0  0  0  0  0  0
   -2.3540    0.5180    0.5120 C   0  0  0  0  0  0  0  0  0  0  0  0
   -1.9940    1.5170   -0.5200 N   0  0  0  0  0  0  0  0  0  0  0  0
   -3.2200    1.8330   -1.2150 C   0  0  0  0  0  0  0  0  0  0  0  0
   -3.4830    0.6110   -2.0710 C   0  0  1  0  0  0  0  0  0  0  0  0
   -2.6760    0.5890   -3.2030 O   0  0  0  0  0  0  0  0  0  0  0  0
   -0.6880    1.9500   -0.6140 C   0  0  0  0  0  0  0  0  0  0  0  0
    0.2120    1.9350   -1.4980 O   0  0  0  0  0  0  0  0  0  0  0  0
   -0.1040    2.6310    0.6190 C   0  0  0  0  0  0  0  0  0  0  0  0
    1.0430    1.8850    1.1880 C   0  0  0  0  0  0  0  0  0  0  0  0
    1.2200    0.6250    1.4390 C   0  0  0  0  0  0  0  0  0  0  0  0
    2.5790    0.3060    0.8260 C   0  0  1  0  0  0  0  0  0  0  0  0
    3.3870    1.3880    1.5490 C   0  0  0  0  0  0  0  0  0  0  0  0
    2.3680    2.5130    1.6240 C   0  0  0  0  0  0  0  0  0  0  0  0
  2  1  1  6
  2  3  1  0
  2 23  1  0
  3  4  1  0
  4  5  2  0
  4  9  1  0
  5  6  1  0
  6  7  2  0
  7  8  1  0
  7 10  1  0
  8  9  2  0
 11 10  1  6
 11 12  1  0
 11 16  1  0
 12 13  1  0
 13 14  1  0
 14 15  1  0
 14 18  1  0
 15 16  1  0
 16 17  1  6
 18 19  2  0
 18 20  1  0
 20 21  1  0
 21 22  2  0
 21 25  1  0
 22 23  1  0
 23 24  1  1
 24 25  1  0
M  CHG  1   2   1
M  END
