
     RDKit          3D

 16 17  0  0  0  0  0  0  0  0999 V2000
    2.6430   -1.2450   -0.5290 C   0  0  0  0  0  0  0  0  0  0  0  0
    1.7300   -0.4600   -1.3120 O   0  0  0  0  0  0  0  0  0  0  0  0
    0.8510    0.3330   -0.5880 C   0  0  0  0  0  0  0  0  0  0  0  0
    1.2100    1.6140   -0.2570 C   0  0  0  0  0  0  0  0  0  0  0  0
    2.4460    2.0940   -0.6530 O   0  0  0  0  0  0  0  0  0  0  0  0
    0.3130    2.3650    0.4590 C   0  0  0  0  0  0  0  0  0  0  0  0
    0.7300    4.0090    0.9040 Cl  0  0  0  0  0  0  0  0  0  0  0  0
   -0.9140    1.8560    0.8390 C   0  0  0  0  0  0  0  0  0  0  0  0
   -2.0510    2.8130    1.7490 Cl  0  0  0  0  0  0  0  0  0  0  0  0
   -1.2830    0.5560    0.5060 C   0  0  0  0  0  0  0  0  0  0  0  0
   -2.4670    0.0450    0.8650 N   0  0  0  0  0  0  0  0  0  0  0  0
   -2.7510   -1.2190    0.5060 C   0  0  0  0  0  0  0  0  0  0  0  0
   -3.8660   -1.7180    0.8370 O   0  0  0  0  0  0  0  0  0  0  0  0
   -1.8870   -2.0200   -0.2150 C   0  0  0  0  0  0  0  0  0  0  0  0
   -0.6640   -1.5070   -0.5910 C   0  0  0  0  0  0  0  0  0  0  0  0
   -0.3770   -0.2130   -0.2220 C   0  0  0  0  0  0  0  0  0  0  0  0
  1  2  1  0
  2  3  1  0
  3  4  2  0
  3 16  1  0
  4  5  1  0
  4  6  1  0
  6  7  1  0
  6  8  2  0
  8  9  1  0
  8 10  1  0
 10 11  1  0
 10 16  2  0
 11 12  1  0
 12 13  2  0
 12 14  1  0
 14 15  2  0
 15 16  1  0
M  END
