
     RDKit          3D

 29 30  0  0  0  0  0  0  0  0999 V2000
   -3.2860   -3.9880   -0.2790 C   0  0  0  0  0  0  0  0  0  0  0  0
   -2.7160   -2.7180   -0.3570 O   0  0  0  0  0  0  0  0  0  0  0  0
   -1.5620   -2.3950   -1.0740 C   0  0  0  0  0  0  0  0  0  0  0  0
   -1.0890   -3.4010   -1.6530 O   0  0  0  0  0  0  0  0  0  0  0  0
   -0.9600   -1.0850   -1.1650 C   0  0  0  0  0  0  0  0  0  0  0  0
   -1.4880    0.0990   -0.5020 C   0  0  0  0  0  0  0  0  0  0  0  0
   -0.7540    1.1720   -0.7450 O   0  0  0  0  0  0  0  0  0  0  0  0
   -2.5840    0.3610    0.3250 N   0  0  0  0  0  0  0  0  0  0  0  0
   -2.7980    1.7700    0.8110 C   0  0  0  0  0  0  0  0  0  0  0  0
   -4.3250    1.8100    0.9660 C   0  0  0  0  0  0  0  0  0  0  0  0
   -4.5330    0.4900    1.6750 C   0  0  0  0  0  0  0  0  0  0  0  0
   -3.6100   -0.4250    0.8540 C   0  0  0  0  0  0  0  0  0  0  0  0
    0.1560   -0.9230   -1.8960 C   0  0  0  0  0  0  0  0  0  0  0  0
    0.8590   -1.9050   -2.6250 C   0  0  0  0  0  0  0  0  0  0  0  0
    0.6330   -3.0920   -2.7630 O   0  0  0  0  0  0  0  0  0  0  0  0
    0.7410    0.4130   -1.9820 N   0  0  0  0  0  0  0  0  0  0  0  0
    1.8410    0.7510   -1.1590 C   0  0  0  0  0  0  0  0  0  0  0  0
    2.2210   -0.0350   -0.2300 N   0  0  0  0  0  0  0  0  0  0  0  0
    1.5320   -1.2160   -0.0550 O   0  0  0  0  0  0  0  0  0  0  0  0
    3.3320    0.2350    0.6560 C   0  0  0  0  0  0  0  0  0  0  0  0
    3.6250   -0.6480    1.5820 C   0  0  0  0  0  0  0  0  0  0  0  0
    4.6810   -0.6190    2.5890 C   0  0  0  0  0  0  0  0  0  0  0  0
    5.4770    0.4810    2.5670 F   0  0  0  0  0  0  0  0  0  0  0  0
    4.1040    1.4750    0.5080 C   0  0  1  0  0  0  0  0  0  0  0  0
    4.0640    2.2450    1.6630 F   0  0  0  0  0  0  0  0  0  0  0  0
    5.4290    1.1090    0.2100 F   0  0  0  0  0  0  0  0  0  0  0  0
    3.5760    2.3180   -0.6030 C   0  0  0  0  0  0  0  0  0  0  0  0
    2.5640    2.0240   -1.3700 C   0  0  0  0  0  0  0  0  0  0  0  0
    2.0970    2.9220   -2.4620 C   0  0  0  0  0  0  0  0  0  0  0  0
  1  2  1  0
  2  3  1  0
  3  4  2  0
  3  5  1  0
  5  6  1  0
  5 13  2  3
  6  7  2  0
  6  8  1  0
  8  9  1  0
  8 12  1  0
  9 10  1  0
 10 11  1  0
 11 12  1  0
 13 14  1  0
 13 16  1  0
 14 15  2  0
 16 17  1  0
 17 18  2  0
 17 28  1  0
 18 19  1  0
 18 20  1  0
 20 21  2  3
 20 24  1  0
 21 22  1  0
 22 23  1  0
 24 25  1  1
 24 26  1  0
 24 27  1  0
 27 28  2  0
 28 29  1  0
M  CHG  2  18   1  19  -1
M  END
