
     RDKit          3D

 29 30  0  0  0  0  0  0  0  0999 V2000
   -5.4370    2.6840    1.9030 C   0  0  0  0  0  0  0  0  0  0  0  0
   -5.3810    2.8500    0.4050 C   0  0  1  0  0  0  0  0  0  0  0  0
   -6.6450    3.0410   -0.1470 F   0  0  0  0  0  0  0  0  0  0  0  0
   -4.6950    4.0380    0.1330 F   0  0  0  0  0  0  0  0  0  0  0  0
   -4.7000    1.7270   -0.2710 C   0  0  0  0  0  0  0  0  0  0  0  0
   -5.2230    0.5200   -0.3380 C   0  0  0  0  0  0  0  0  0  0  0  0
   -4.6330   -0.6710   -0.9860 C   0  0  0  0  0  0  0  0  0  0  0  0
   -3.4090   -0.6800   -1.6290 O   0  0  0  0  0  0  0  0  0  0  0  0
   -2.2890   -1.3910   -1.1470 C   0  0  1  0  0  0  0  0  0  0  0  0
   -1.0970   -1.2260   -2.0350 C   0  0  0  0  0  0  0  0  0  0  0  0
    0.0920   -0.6190   -1.3340 C   0  0  0  0  0  0  0  0  0  0  0  0
    0.4930   -1.4970   -0.1870 C   0  0  1  0  0  0  0  0  0  0  0  0
    1.6200   -0.9560    0.6370 C   0  0  0  0  0  0  0  0  0  0  0  0
    2.8730   -0.7450   -0.0750 C   0  0  0  0  0  0  0  0  0  0  0  0
    2.9610   -1.0530   -1.3080 O   0  0  0  0  0  0  0  0  0  0  0  0
    4.0390   -0.2050    0.5270 N   0  0  0  0  0  0  0  0  0  0  0  0
    5.2290   -0.0170   -0.1810 N   0  0  0  0  0  0  0  0  0  0  0  0
    6.5060    0.1030    0.4230 C   0  0  0  0  0  0  0  0  0  0  0  0
    6.6190    0.0460    1.6580 O   0  0  0  0  0  0  0  0  0  0  0  0
    7.6020    0.2820   -0.3740 O   0  0  0  0  0  0  0  0  0  0  0  0
    8.9190    0.4150    0.1110 C   0  0  0  0  0  0  0  0  0  0  0  0
    9.0090    1.6210    1.0060 C   0  0  0  0  0  0  0  0  0  0  0  0
    8.6690    2.7420    0.2940 F   0  0  0  0  0  0  0  0  0  0  0  0
   -0.7070   -1.7440    0.6820 C   0  0  0  0  0  0  0  0  0  0  0  0
   -1.9360   -1.0080    0.2620 C   0  0  0  0  0  0  0  0  0  0  0  0
   -5.4720   -1.6730   -0.8320 C   0  0  0  0  0  0  0  0  0  0  0  0
   -6.6210   -1.1860   -0.0920 C   0  0  0  0  0  0  0  0  0  0  0  0
   -6.4660    0.0750    0.1860 N   0  0  0  0  0  0  0  0  0  0  0  0
   -7.4010    0.8080    0.8860 O   0  0  0  0  0  0  0  0  0  0  0  0
  2  1  1  1
  2  3  1  0
  2  4  1  0
  2  5  1  0
  5  6  2  3
  6  7  1  0
  6 28  1  0
  7  8  1  0
  7 26  2  0
  9  8  1  6
  9 10  1  0
  9 25  1  0
 10 11  1  0
 11 12  1  0
 12 13  1  1
 12 24  1  0
 13 14  1  0
 14 15  2  0
 14 16  1  0
 16 17  1  0
 17 18  1  0
 18 19  2  0
 18 20  1  0
 20 21  1  0
 21 22  1  0
 22 23  1  0
 24 25  1  0
 26 27  1  0
 27 28  2  0
 28 29  1  0
M  CHG  2  28   1  29  -1
M  END
