
     RDKit          3D

 28 29  0  0  0  0  0  0  0  0999 V2000
    4.7620   -1.8250    1.1600 C   0  0  0  0  0  0  0  0  0  0  0  0
    4.1440   -2.2610   -0.1490 C   0  0  0  0  0  0  0  0  0  0  0  0
    3.1940   -1.2450   -0.5900 N   0  0  0  0  0  0  0  0  0  0  0  0
    3.6670   -0.2050   -1.4300 C   0  0  0  0  0  0  0  0  0  0  0  0
    4.1300    1.0210   -0.6670 C   0  0  0  0  0  0  0  0  0  0  0  0
    4.6120    2.0860   -1.6170 C   0  0  0  0  0  0  0  0  0  0  0  0
    3.6340    2.4980   -2.4970 O   0  0  0  0  0  0  0  0  0  0  0  0
    1.8440   -1.3670   -0.1630 C   0  0  0  0  0  0  0  0  0  0  0  0
    1.5980   -2.3900    0.5580 O   0  0  0  0  0  0  0  0  0  0  0  0
    0.8290   -0.4270   -0.5030 C   0  0  0  0  0  0  0  0  0  0  0  0
    1.1150    0.5990   -1.2020 O   0  0  0  0  0  0  0  0  0  0  0  0
   -0.5450   -0.5420   -0.1080 N   0  0  0  0  0  0  0  0  0  0  0  0
   -1.0720   -1.6030    0.6620 C   0  0  0  0  0  0  0  0  0  0  0  0
   -2.3360   -1.6470    1.0090 C   0  0  0  0  0  0  0  0  0  0  0  0
   -3.2330   -0.5340    0.5670 C   0  0  0  0  0  0  0  0  0  0  0  0
   -2.7760    0.4480   -0.1410 C   0  0  0  0  0  0  0  0  0  0  0  0
   -1.3780    0.5470   -0.5690 C   0  0  0  0  0  0  0  0  0  0  0  0
   -3.6660    1.6060   -0.4760 C   0  0  0  0  0  0  0  0  0  0  0  0
   -3.1020    2.6950   -1.3000 C   0  0  2  0  0  0  0  0  0  0  0  0
   -4.0900    3.6580   -1.5260 F   0  0  0  0  0  0  0  0  0  0  0  0
   -2.6300    2.3060   -2.5170 F   0  0  0  0  0  0  0  0  0  0  0  0
   -2.1090    3.3340   -0.5970 F   0  0  0  0  0  0  0  0  0  0  0  0
   -4.8820    1.5810   -0.0230 C   0  0  0  0  0  0  0  0  0  0  0  0
   -5.4760    0.5240    0.8000 C   0  0  0  0  0  0  0  0  0  0  0  0
   -4.6630   -0.6870    0.9020 C   0  0  1  0  0  0  0  0  0  0  0  0
   -5.2370   -1.8140    0.1550 N   0  0  0  0  0  0  0  0  0  0  0  0
   -4.5140   -2.4470   -0.6040 O   0  0  0  0  0  0  0  0  0  0  0  0
   -6.5350   -2.1090    0.3310 O   0  0  0  0  0  0  0  0  0  0  0  0
  1  2  1  0
  2  3  1  0
  3  4  1  0
  3  8  1  0
  4  5  1  0
  5  6  1  0
  6  7  1  0
  8  9  2  0
  8 10  1  0
 10 11  2  0
 10 12  1  0
 12 13  1  0
 12 17  1  0
 13 14  2  0
 14 15  1  0
 15 16  2  0
 15 25  1  0
 16 17  1  0
 16 18  1  0
 18 19  1  0
 18 23  2  0
 19 20  1  6
 19 21  1  0
 19 22  1  0
 23 24  1  0
 24 25  1  0
 25 26  1  6
 26 27  2  0
 26 28  1  0
M  CHG  2  26   1  28  -1
M  END
