
     RDKit          3D

 29 32  0  0  0  0  0  0  0  0999 V2000
    8.3930    0.7220   -0.4960 C   0  0  0  0  0  0  0  0  0  0  0  0
    8.0740   -0.6920   -0.4830 N   0  0  0  0  0  0  0  0  0  0  0  0
    6.6680   -0.8640   -0.2420 C   0  0  0  0  0  0  0  0  0  0  0  0
    6.2640   -1.9310    0.5360 C   0  0  0  0  0  0  0  0  0  0  0  0
    4.9160   -2.0600    0.7420 C   0  0  0  0  0  0  0  0  0  0  0  0
    4.0030   -1.1590    0.1930 C   0  0  0  0  0  0  0  0  0  0  0  0
    4.4490   -0.1070   -0.5780 C   0  0  0  0  0  0  0  0  0  0  0  0
    3.6220    0.8350   -1.1600 O   0  0  0  0  0  0  0  0  0  0  0  0
    2.1900    0.7420   -0.9380 C   0  0  0  0  0  0  0  0  0  0  0  0
    1.9000    0.9100    0.4890 C   0  0  0  0  0  0  0  0  0  0  0  0
    2.9250    1.1930    1.2320 O   0  0  0  0  0  0  0  0  0  0  0  0
    0.6310    0.8020    1.1700 C   0  0  0  0  0  0  0  0  0  0  0  0
    0.6280    0.9130    2.5740 C   0  0  0  0  0  0  0  0  0  0  0  0
   -0.5380    0.8080    3.2690 C   0  0  0  0  0  0  0  0  0  0  0  0
   -1.7140    0.5930    2.5930 C   0  0  0  0  0  0  0  0  0  0  0  0
   -1.7670    0.4770    1.2150 C   0  0  0  0  0  0  0  0  0  0  0  0
   -2.7920    0.2680    0.3220 C   0  0  0  0  0  0  0  0  0  0  0  0
   -2.2270    0.2500   -0.9140 C   0  0  0  0  0  0  0  0  0  0  0  0
   -0.9090    0.4410   -0.7680 N   0  0  0  0  0  0  0  0  0  0  0  0
   -0.5600    0.5870    0.5160 C   0  0  0  0  0  0  0  0  0  0  0  0
   -2.6970    0.0750   -2.3190 C   0  0  0  0  0  0  0  0  0  0  0  0
   -3.9090    0.8440   -2.6800 C   0  0  0  0  0  0  0  0  0  0  0  0
   -4.6660    1.4720   -1.5590 C   0  0  0  0  0  0  0  0  0  0  0  0
   -5.6650    0.4820   -1.0380 C   0  0  0  0  0  0  0  0  0  0  0  0
   -5.1650   -0.4490    0.0150 C   0  0  2  0  0  0  0  0  0  0  0  0
   -4.7460   -1.7910   -0.5540 C   0  0  0  0  0  0  0  0  0  0  0  0
   -6.3750   -0.7540    0.9190 C   0  0  0  0  0  0  0  0  0  0  0  0
   -4.1220    0.1350    0.9170 C   0  0  0  0  0  0  0  0  0  0  0  0
    5.8080    0.0400   -0.7980 C   0  0  0  0  0  0  0  0  0  0  0  0
  1  2  1  0
  2  3  1  0
  3  4  2  0
  3 29  1  0
  4  5  1  0
  5  6  2  0
  6  7  1  0
  7  8  1  0
  7 29  2  0
  8  9  1  0
  9 10  1  0
 10 11  2  0
 10 12  1  0
 12 13  2  0
 12 20  1  0
 13 14  1  0
 14 15  2  0
 15 16  1  0
 16 17  1  0
 16 20  2  0
 17 18  2  0
 17 28  1  0
 18 19  1  0
 18 21  1  0
 19 20  1  0
 21 22  1  0
 22 23  1  0
 23 24  1  0
 24 25  1  0
 25 26  1  6
 25 27  1  0
 25 28  1  0
M  CHG  1   2   1
M  END
