
     RDKit          3D

 28 29  0  0  0  0  0  0  0  0999 V2000
   -4.9510   -3.0410    1.1840 O   0  0  0  0  0  0  0  0  0  0  0  0
   -5.0030   -1.8580    0.8190 C   0  0  0  0  0  0  0  0  0  0  0  0
   -5.4420   -1.3790   -0.4990 C   0  0  0  0  0  0  0  0  0  0  0  0
   -4.9190   -0.1880   -0.7330 C   0  0  0  0  0  0  0  0  0  0  0  0
   -5.1600    0.5570   -1.9460 N   0  0  0  0  0  0  0  0  0  0  0  0
   -4.2260    0.7920   -2.7390 O   0  0  0  0  0  0  0  0  0  0  0  0
   -6.4030    1.0300   -2.2720 O   0  0  0  0  0  0  0  0  0  0  0  0
   -4.0790    0.2200    0.4160 C   0  0  2  0  0  0  0  0  0  0  0  0
   -2.7060   -0.2150    0.2490 N   0  0  0  0  0  0  0  0  0  0  0  0
   -1.6290    0.6740    0.3390 C   0  0  0  0  0  0  0  0  0  0  0  0
   -1.8510    1.8720    0.5680 O   0  0  0  0  0  0  0  0  0  0  0  0
   -0.2160    0.2480    0.1710 C   0  0  0  0  0  0  0  0  0  0  0  0
    0.7560    1.0910    0.2590 C   0  0  0  0  0  0  0  0  0  0  0  0
    2.1840    0.9190    0.1410 C   0  0  0  0  0  0  0  0  0  0  0  0
    2.9310    2.0390    0.2410 C   0  0  0  0  0  0  0  0  0  0  0  0
    4.3610    2.1020    0.1640 C   0  0  0  0  0  0  0  0  0  0  0  0
    4.9710    3.2940    0.2630 C   0  0  0  0  0  0  0  0  0  0  0  0
    6.3000    3.4400    0.2020 F   0  0  0  0  0  0  0  0  0  0  0  0
    4.2180    4.4150    0.4350 F   0  0  0  0  0  0  0  0  0  0  0  0
    2.8150   -0.3380   -0.2050 C   0  0  0  0  0  0  0  0  0  0  0  0
    3.7920   -0.3360   -1.2050 C   0  0  0  0  0  0  0  0  0  0  0  0
    4.5010   -1.4720   -1.4920 C   0  0  0  0  0  0  0  0  0  0  0  0
    5.4600   -1.4770   -2.4690 F   0  0  0  0  0  0  0  0  0  0  0  0
    4.2020   -2.5940   -0.7520 C   0  0  0  0  0  0  0  0  0  0  0  0
    3.2660   -2.5950    0.2050 N   0  0  0  0  0  0  0  0  0  0  0  0
    2.5440   -1.4760    0.5140 C   0  0  0  0  0  0  0  0  0  0  0  0
    1.6880   -1.5510    1.4330 O   0  0  0  0  0  0  0  0  0  0  0  0
   -4.6580   -0.5980    1.5480 C   0  0  0  0  0  0  0  0  0  0  0  0
  1  2  2  0
  2  3  1  0
  2 28  1  0
  3  4  2  0
  4  5  1  0
  4  8  1  0
  5  6  2  0
  5  7  1  0
  8  9  1  6
  8 28  1  0
  9 10  1  0
 10 11  2  0
 10 12  1  0
 12 13  2  3
 13 14  1  0
 14 15  2  3
 14 20  1  0
 15 16  1  0
 16 17  2  3
 17 18  1  0
 17 19  1  0
 20 21  2  0
 20 26  1  0
 21 22  1  0
 22 23  1  0
 22 24  2  0
 24 25  1  0
 25 26  1  0
 26 27  2  0
M  CHG  2   5   1   7  -1
M  END
