
     RDKit          3D

 30 32  0  0  0  0  0  0  0  0999 V2000
   -4.8820   -1.5260   -0.5240 C   0  0  0  0  0  0  0  0  0  0  0  0
   -5.3940   -0.3750    0.2240 C   0  0  0  0  0  0  0  0  0  0  0  0
   -4.8150    0.7960    0.4030 C   0  0  0  0  0  0  0  0  0  0  0  0
   -3.5850    1.1490   -0.1040 C   0  0  0  0  0  0  0  0  0  0  0  0
   -2.7740    0.2250   -0.9240 C   0  0  0  0  0  0  0  0  0  0  0  0
   -3.0900    0.0870   -2.1060 O   0  0  0  0  0  0  0  0  0  0  0  0
   -1.6670   -0.4600   -0.3460 N   0  0  0  0  0  0  0  0  0  0  0  0
   -0.8510   -1.3940   -1.0470 C   0  0  0  0  0  0  0  0  0  0  0  0
   -1.2300   -2.0260   -2.2140 C   0  0  0  0  0  0  0  0  0  0  0  0
   -0.4340   -2.9990   -2.8260 C   0  0  0  0  0  0  0  0  0  0  0  0
    0.7760   -3.3610   -2.2690 C   0  0  0  0  0  0  0  0  0  0  0  0
    1.1830   -2.7430   -1.1010 C   0  0  0  0  0  0  0  0  0  0  0  0
    0.3700   -1.7870   -0.5260 C   0  0  0  0  0  0  0  0  0  0  0  0
    0.8550   -1.1460    0.6460 N   0  0  0  0  0  0  0  0  0  0  0  0
    1.3660    0.1560    0.2740 C   0  0  0  0  0  0  0  0  0  0  0  0
    2.8060    0.3110    0.3760 C   0  0  0  0  0  0  0  0  0  0  0  0
    3.4700    1.1040   -0.5590 C   0  0  0  0  0  0  0  0  0  0  0  0
    4.8240    1.2880   -0.5330 C   0  0  0  0  0  0  0  0  0  0  0  0
    5.4920    2.1260   -1.5480 C   0  0  0  0  0  0  0  0  0  0  0  0
    5.5740    0.6710    0.4520 C   0  0  0  0  0  0  0  0  0  0  0  0
    6.9480    0.8900    0.4370 O   0  0  0  0  0  0  0  0  0  0  0  0
    4.9350   -0.1130    1.3790 C   0  0  0  0  0  0  0  0  0  0  0  0
    5.7310   -0.7870    2.4320 C   0  0  0  0  0  0  0  0  0  0  0  0
    3.5710   -0.2870    1.3380 C   0  0  0  0  0  0  0  0  0  0  0  0
   -3.0430    2.4020    0.1600 C   0  0  0  0  0  0  0  0  0  0  0  0
   -3.7180    3.3120    0.9260 C   0  0  0  0  0  0  0  0  0  0  0  0
   -4.9510    2.9530    1.4300 C   0  0  0  0  0  0  0  0  0  0  0  0
   -5.5360    1.7090    1.1940 C   0  0  0  0  0  0  0  0  0  0  0  0
   -6.7320    1.4720    1.7000 C   0  0  0  0  0  0  0  0  0  0  0  0
   -7.3050    2.4870    2.4620 F   0  0  0  0  0  0  0  0  0  0  0  0
  1  2  1  0
  2  3  2  3
  3  4  1  0
  3 28  1  0
  4  5  1  0
  4 25  2  0
  5  6  2  0
  5  7  1  0
  7  8  1  0
  8  9  2  0
  8 13  1  0
  9 10  1  0
 10 11  2  0
 11 12  1  0
 12 13  2  0
 13 14  1  0
 14 15  1  0
 15 16  1  0
 16 17  2  0
 16 24  1  0
 17 18  1  0
 18 19  1  0
 18 20  2  0
 20 21  1  0
 20 22  1  0
 22 23  1  0
 22 24  2  0
 25 26  1  0
 26 27  2  0
 27 28  1  0
 28 29  2  3
 29 30  1  0
M  CHG  1  14   1
M  END
