
     RDKit          3D

 29 30  0  0  0  0  0  0  0  0999 V2000
    7.9480   -0.3880   -0.2580 C   0  0  0  0  0  0  0  0  0  0  0  0
    7.3600    0.8400   -0.4470 O   0  0  0  0  0  0  0  0  0  0  0  0
    6.2130    0.8130   -1.1380 N   0  0  2  0  0  0  0  0  0  0  0  0
    6.2330   -0.1080   -2.2330 C   0  0  0  0  0  0  0  0  0  0  0  0
    5.9480    2.0550   -1.5900 O   0  0  0  0  0  0  0  0  0  0  0  0
    5.1600    0.4540   -0.1640 C   0  0  0  0  0  0  0  0  0  0  0  0
    3.8320    0.7630   -0.6680 C   0  0  0  0  0  0  0  0  0  0  0  0
    3.8640    1.5000   -1.7580 O   0  0  0  0  0  0  0  0  0  0  0  0
    2.5210    0.4360   -0.2300 C   0  0  0  0  0  0  0  0  0  0  0  0
    2.0280   -0.2490    0.7470 C   0  0  0  0  0  0  0  0  0  0  0  0
    0.6690   -0.4620    1.0190 N   0  0  0  0  0  0  0  0  0  0  0  0
   -0.4170    0.0180    0.2910 C   0  0  0  0  0  0  0  0  0  0  0  0
   -0.2660    0.7180   -0.7240 O   0  0  0  0  0  0  0  0  0  0  0  0
   -1.8220   -0.2970    0.7120 C   0  0  0  0  0  0  0  0  0  0  0  0
   -1.9640   -0.9910    1.7200 O   0  0  0  0  0  0  0  0  0  0  0  0
   -2.9220    0.1720   -0.0010 N   0  0  0  0  0  0  0  0  0  0  0  0
   -4.2880   -0.0400    0.2710 C   0  0  0  0  0  0  0  0  0  0  0  0
   -4.7800   -0.7530    1.3260 C   0  0  0  0  0  0  0  0  0  0  0  0
   -6.1560   -0.9210    1.5290 C   0  0  0  0  0  0  0  0  0  0  0  0
   -7.0740   -0.3750    0.6740 C   0  0  0  0  0  0  0  0  0  0  0  0
   -6.5960    0.3470   -0.3950 C   0  0  0  0  0  0  0  0  0  0  0  0
   -5.2410    0.5070   -0.5860 C   0  0  0  0  0  0  0  0  0  0  0  0
   -7.7640    0.8140   -1.1400 C   0  0  0  0  0  0  0  0  0  0  0  0
   -8.8730    0.4040   -0.5630 C   0  0  0  0  0  0  0  0  0  0  0  0
   -8.5800   -0.3860    0.6370 C   0  0  0  0  0  0  0  0  0  0  0  0
    2.9570   -0.9390    1.7250 C   0  0  2  0  0  0  0  0  0  0  0  0
    3.8300   -0.0550    2.2930 F   0  0  0  0  0  0  0  0  0  0  0  0
    3.5230   -2.0620    1.2060 F   0  0  0  0  0  0  0  0  0  0  0  0
    2.1960   -1.4180    2.8300 F   0  0  0  0  0  0  0  0  0  0  0  0
  1  2  1  0
  2  3  1  0
  3  4  1  6
  3  5  1  0
  3  6  1  0
  6  7  1  0
  7  8  2  0
  7  9  1  0
  9 10  2  3
 10 11  1  0
 10 26  1  0
 11 12  1  0
 12 13  2  0
 12 14  1  0
 14 15  2  0
 14 16  1  0
 16 17  1  0
 17 18  2  0
 17 22  1  0
 18 19  1  0
 19 20  2  0
 20 21  1  0
 20 25  1  0
 21 22  2  0
 21 23  1  0
 23 24  2  0
 24 25  1  0
 26 27  1  1
 26 28  1  0
 26 29  1  0
M  CHG  2   3   1   5  -1
M  END
