
     RDKit          3D

 28 29  0  0  0  0  0  0  0  0999 V2000
   -3.1130    2.1250    0.3590 C   0  0  0  0  0  0  0  0  0  0  0  0
   -3.8060    0.9000    0.8190 C   0  0  0  0  0  0  0  0  0  0  0  0
   -4.9860    1.1340    1.3790 C   0  0  0  0  0  0  0  0  0  0  0  0
   -5.8800    0.1170    1.9200 C   0  0  0  0  0  0  0  0  0  0  0  0
   -7.1670    0.2030    1.0750 C   0  0  0  0  0  0  0  0  0  0  0  0
   -6.7990   -0.0630   -0.3010 N   0  0  0  0  0  0  0  0  0  0  0  0
   -7.3210   -1.0300   -0.8720 O   0  0  0  0  0  0  0  0  0  0  0  0
   -5.9010    0.7180   -0.9700 O   0  0  0  0  0  0  0  0  0  0  0  0
   -3.3090   -0.3980    0.6800 C   0  0  0  0  0  0  0  0  0  0  0  0
   -2.1950   -0.8370    0.1740 C   0  0  0  0  0  0  0  0  0  0  0  0
   -1.0990   -0.1320   -0.4120 C   0  0  0  0  0  0  0  0  0  0  0  0
    0.0070   -0.7560   -0.8970 C   0  0  0  0  0  0  0  0  0  0  0  0
    1.0750    0.0800   -1.4830 C   0  0  0  0  0  0  0  0  0  0  0  0
    2.2810   -0.0380   -0.7310 N   0  0  0  0  0  0  0  0  0  0  0  0
    3.4800    0.6650   -1.1240 C   0  0  0  0  0  0  0  0  0  0  0  0
    3.4160    1.3830   -2.1520 O   0  0  0  0  0  0  0  0  0  0  0  0
    4.6750    0.5340   -0.3610 N   0  0  0  0  0  0  0  0  0  0  0  0
    4.7190   -0.3020    0.8210 C   0  0  0  0  0  0  0  0  0  0  0  0
    6.0490   -0.0680    1.5200 C   0  0  0  0  0  0  0  0  0  0  0  0
    6.3360    1.2780    1.6450 O   0  0  0  0  0  0  0  0  0  0  0  0
    6.4200    1.9570    0.4590 C   0  0  0  0  0  0  0  0  0  0  0  0
    5.8920    1.2260   -0.7280 C   0  0  0  0  0  0  0  0  0  0  0  0
    0.1340   -2.1900   -0.8490 C   0  0  0  0  0  0  0  0  0  0  0  0
    1.3190   -2.9250   -1.3960 C   0  0  2  0  0  0  0  0  0  0  0  0
    1.5010   -2.5740   -2.7290 F   0  0  0  0  0  0  0  0  0  0  0  0
    1.0410   -4.2870   -1.3170 F   0  0  0  0  0  0  0  0  0  0  0  0
   -0.8760   -2.8640   -0.3070 C   0  0  0  0  0  0  0  0  0  0  0  0
   -2.0000   -2.2640    0.1910 O   0  0  0  0  0  0  0  0  0  0  0  0
  1  2  1  0
  2  3  2  3
  2  9  1  0
  3  4  1  0
  4  5  1  0
  5  6  1  0
  6  7  2  0
  6  8  1  0
  9 10  2  3
 10 11  1  0
 10 28  1  0
 11 12  2  0
 12 13  1  0
 12 23  1  0
 13 14  1  0
 14 15  1  0
 15 16  2  0
 15 17  1  0
 17 18  1  0
 17 22  1  0
 18 19  1  0
 19 20  1  0
 20 21  1  0
 21 22  1  0
 23 24  1  0
 23 27  2  0
 24 25  1  6
 24 26  1  0
 27 28  1  0
M  CHG  2   6   1   8  -1
M  END
