
     RDKit          3D

 29 30  0  0  0  0  0  0  0  0999 V2000
    3.7970   -1.2710    1.7820 C   0  0  0  0  0  0  0  0  0  0  0  0
    3.4270   -0.1330    0.9400 C   0  0  0  0  0  0  0  0  0  0  0  0
    4.4530    0.7000    0.6460 C   0  0  0  0  0  0  0  0  0  0  0  0
    5.7880    0.5640    1.0660 C   0  0  0  0  0  0  0  0  0  0  0  0
    6.7350    1.4840    0.6980 C   0  0  0  0  0  0  0  0  0  0  0  0
    8.0730    1.3740    1.1020 N   0  0  0  0  0  0  0  0  0  0  0  0
    8.5510    1.9820    2.0750 O   0  0  0  0  0  0  0  0  0  0  0  0
    8.9460    0.5490    0.4030 O   0  0  0  0  0  0  0  0  0  0  0  0
    2.1620    0.1940    0.4320 C   0  0  0  0  0  0  0  0  0  0  0  0
    0.9300   -0.1660    0.3540 C   0  0  0  0  0  0  0  0  0  0  0  0
    0.0380    0.6270   -0.3440 O   0  0  0  0  0  0  0  0  0  0  0  0
   -1.1220    0.1480   -0.3320 C   0  0  0  0  0  0  0  0  0  0  0  0
   -2.2880    0.7820   -0.9990 C   0  0  0  0  0  0  0  0  0  0  0  0
   -2.1540    1.8530   -1.6200 O   0  0  0  0  0  0  0  0  0  0  0  0
   -3.5450    0.1680   -0.9260 N   0  0  0  0  0  0  0  0  0  0  0  0
   -4.7570    0.6100   -1.4870 C   0  0  0  0  0  0  0  0  0  0  0  0
   -5.9320   -0.1120   -1.3020 C   0  0  0  0  0  0  0  0  0  0  0  0
   -7.1450    0.2540   -1.8160 C   0  0  0  0  0  0  0  0  0  0  0  0
   -7.1910    1.3870   -2.5460 N   0  0  0  0  0  0  0  0  0  0  0  0
   -6.1100    2.1420   -2.7750 C   0  0  0  0  0  0  0  0  0  0  0  0
   -6.2540    3.2840   -3.5330 O   0  0  0  0  0  0  0  0  0  0  0  0
   -4.8780    1.7460   -2.2370 C   0  0  0  0  0  0  0  0  0  0  0  0
   -1.1010   -1.0100    0.3780 C   0  0  0  0  0  0  0  0  0  0  0  0
    0.2170   -1.2260    0.8260 C   0  0  0  0  0  0  0  0  0  0  0  0
    0.5720   -2.2960    1.5300 C   0  0  0  0  0  0  0  0  0  0  0  0
   -0.5330   -3.2760    1.8760 C   0  0  2  0  0  0  0  0  0  0  0  0
    0.0580   -4.2680    2.6120 F   0  0  0  0  0  0  0  0  0  0  0  0
   -1.0930   -3.7540    0.7100 F   0  0  0  0  0  0  0  0  0  0  0  0
   -1.5160   -2.6120    2.5790 F   0  0  0  0  0  0  0  0  0  0  0  0
  1  2  1  0
  2  3  2  3
  2  9  1  0
  3  4  1  0
  4  5  2  3
  5  6  1  0
  6  7  2  0
  6  8  1  0
  9 10  2  3
 10 11  1  0
 10 24  1  0
 11 12  1  0
 12 13  1  0
 12 23  2  0
 13 14  2  0
 13 15  1  0
 15 16  1  0
 16 17  2  0
 16 22  1  0
 17 18  1  0
 18 19  2  0
 19 20  1  0
 20 21  1  0
 20 22  2  0
 23 24  1  0
 24 25  2  3
 25 26  1  0
 26 27  1  1
 26 28  1  0
 26 29  1  0
M  CHG  2   6   1   8  -1
M  END
