
     RDKit          3D

 29 30  0  0  0  0  0  0  0  0999 V2000
   -5.4390   -0.7560   -0.0070 C   0  0  0  0  0  0  0  0  0  0  0  0
   -6.3330    0.4180   -0.1080 C   0  0  2  0  0  0  0  0  0  0  0  0
   -7.7710   -0.0760    0.1480 C   0  0  0  0  0  0  0  0  0  0  0  0
   -6.3850    0.8820   -1.4620 O   0  0  0  0  0  0  0  0  0  0  0  0
   -6.0140    1.5610    0.7700 C   0  0  0  0  0  0  0  0  0  0  0  0
   -4.6660    2.1450    0.5100 C   0  0  0  0  0  0  0  0  0  0  0  0
   -3.5400    1.2670    0.8410 C   0  0  0  0  0  0  0  0  0  0  0  0
   -3.5840    0.5010    1.8410 O   0  0  0  0  0  0  0  0  0  0  0  0
   -2.4100    1.2420    0.0840 O   0  0  0  0  0  0  0  0  0  0  0  0
   -1.2850    0.5660    0.1510 N   0  0  0  0  0  0  0  0  0  0  0  0
   -1.0040   -0.3800    0.9330 C   0  0  0  0  0  0  0  0  0  0  0  0
    0.2980   -1.0330    0.8830 C   0  0  0  0  0  0  0  0  0  0  0  0
    0.6290   -1.9790    1.6480 O   0  0  0  0  0  0  0  0  0  0  0  0
    1.3040   -0.6230   -0.0710 N   0  0  0  0  0  0  0  0  0  0  0  0
    2.5810   -1.2610   -0.1190 C   0  0  1  0  0  0  0  0  0  0  0  0
    2.7470   -2.1350   -1.3530 C   0  0  0  0  0  0  0  0  0  0  0  0
    4.0670   -2.8760   -1.1360 C   0  0  0  0  0  0  0  0  0  0  0  0
    5.2260   -1.9520   -1.1040 C   0  0  0  0  0  0  0  0  0  0  0  0
    4.9670   -0.6920   -0.4090 C   0  0  0  0  0  0  0  0  0  0  0  0
    6.0700    0.1630   -0.2500 C   0  0  0  0  0  0  0  0  0  0  0  0
    5.9150    1.3530    0.3860 C   0  0  0  0  0  0  0  0  0  0  0  0
    7.0460    2.2220    0.5460 N   0  0  2  0  0  0  0  0  0  0  0  0
    8.0550    1.7600   -0.2330 O   0  0  0  0  0  0  0  0  0  0  0  0
    7.4790    2.1240    1.8350 F   0  0  0  0  0  0  0  0  0  0  0  0
    6.7550    3.4800    0.2280 F   0  0  0  0  0  0  0  0  0  0  0  0
    4.6700    1.6990    0.8640 C   0  0  0  0  0  0  0  0  0  0  0  0
    4.5420    2.8860    1.4920 F   0  0  0  0  0  0  0  0  0  0  0  0
    3.5770    0.8420    0.7020 C   0  0  0  0  0  0  0  0  0  0  0  0
    3.7310   -0.3630    0.0590 C   0  0  0  0  0  0  0  0  0  0  0  0
  2  1  1  6
  2  3  1  0
  2  4  1  0
  2  5  1  0
  5  6  1  0
  6  7  1  0
  7  8  2  0
  7  9  1  0
  9 10  1  0
 10 11  2  3
 11 12  1  0
 12 13  2  0
 12 14  1  0
 15 14  1  6
 15 16  1  0
 15 29  1  0
 16 17  1  0
 17 18  1  0
 18 19  1  0
 19 20  2  0
 19 29  1  0
 20 21  1  0
 21 22  1  0
 21 26  2  0
 22 23  1  6
 22 24  1  0
 22 25  1  0
 26 27  1  0
 26 28  1  0
 28 29  2  0
M  CHG  2  22   1  23  -1
M  END
