
     RDKit          3D

 30 31  0  0  0  0  0  0  0  0999 V2000
    2.2790   -1.6170    0.8750 C   0  0  0  0  0  0  0  0  0  0  0  0
    1.9140   -0.4670   -0.0750 C   0  0  2  0  0  0  0  0  0  0  0  0
    0.7160   -0.8390   -0.7320 N   0  0  0  0  0  0  0  0  0  0  0  0
   -0.5070   -0.2320   -0.3490 C   0  0  2  0  0  0  0  0  0  0  0  0
   -0.6260    0.2540    1.0210 C   0  0  0  0  0  0  0  0  0  0  0  0
    0.2590    0.0360    1.8790 O   0  0  0  0  0  0  0  0  0  0  0  0
   -1.7060    0.9900    1.4950 O   0  0  0  0  0  0  0  0  0  0  0  0
   -1.6140   -1.1870   -0.7400 C   0  0  2  0  0  0  0  0  0  0  0  0
   -1.5370   -1.3810   -2.2370 C   0  0  0  0  0  0  0  0  0  0  0  0
   -2.0900   -0.0250   -2.7060 C   0  0  0  0  0  0  0  0  0  0  0  0
   -2.9340    0.4880   -1.5720 C   0  0  0  0  0  0  0  0  0  0  0  0
   -2.9440   -0.6230   -0.6420 N   0  0  0  0  0  0  0  0  0  0  0  0
   -3.9910   -1.0980    0.1840 C   0  0  0  0  0  0  0  0  0  0  0  0
   -3.7450   -2.0910    0.9190 O   0  0  0  0  0  0  0  0  0  0  0  0
   -5.3380   -0.5560    0.2750 C   0  0  1  0  0  0  0  0  0  0  0  0
   -6.1660   -1.3580    1.1540 N   0  0  0  0  0  0  0  0  0  0  0  0
   -5.4510    0.8630    0.7270 C   0  0  0  0  0  0  0  0  0  0  0  0
   -4.8880    1.0740    2.0900 C   0  0  0  0  0  0  0  0  0  0  0  0
   -4.3900    0.1420    2.7700 O   0  0  0  0  0  0  0  0  0  0  0  0
   -4.9030    2.3400    2.6510 O   0  0  0  0  0  0  0  0  0  0  0  0
    3.0290   -0.3360   -1.1000 C   0  0  0  0  0  0  0  0  0  0  0  0
    2.7500   -0.6610   -2.2930 O   0  0  0  0  0  0  0  0  0  0  0  0
    4.3230    0.1300   -0.7420 N   0  0  0  0  0  0  0  0  0  0  0  0
    5.3910    0.2440   -1.7500 C   0  0  0  0  0  0  0  0  0  0  0  0
    6.6110    0.7120   -1.0360 C   0  0  0  0  0  0  0  0  0  0  0  0
    6.3670    0.2450    0.3820 C   0  0  0  0  0  0  0  0  0  0  0  0
    4.8680    0.5630    0.5060 C   0  0  1  0  0  0  0  0  0  0  0  0
    4.7770    2.0130    0.7150 C   0  0  0  0  0  0  0  0  0  0  0  0
    5.2270    2.4940    1.7820 O   0  0  0  0  0  0  0  0  0  0  0  0
    4.2190    2.8820   -0.2060 O   0  0  0  0  0  0  0  0  0  0  0  0
  2  1  1  1
  2  3  1  0
  2 21  1  0
  4  3  1  1
  4  5  1  0
  4  8  1  0
  5  6  2  0
  5  7  1  0
  8  9  1  6
  8 12  1  0
  9 10  1  0
 10 11  1  0
 11 12  1  0
 12 13  1  0
 13 14  2  0
 13 15  1  0
 15 16  1  1
 15 17  1  0
 17 18  1  0
 18 19  2  0
 18 20  1  0
 21 22  2  0
 21 23  1  0
 23 24  1  0
 23 27  1  0
 24 25  1  0
 25 26  1  0
 26 27  1  0
 27 28  1  6
 28 29  2  0
 28 30  1  0
M  CHG  2   3   1  16   1
M  END
