
     RDKit          3D

 32 35  0  0  0  0  0  0  0  0999 V2000
    5.4470   -3.4730    0.8350 C   0  0  0  0  0  0  0  0  0  0  0  0
    5.4260   -1.9740    0.6710 C   0  0  2  0  0  0  0  0  0  0  0  0
    4.1850   -1.4600    0.0170 C   0  0  0  0  0  0  0  0  0  0  0  0
    2.9570   -1.7930    0.8180 C   0  0  0  0  0  0  0  0  0  0  0  0
    1.7630   -1.2800    0.1530 N   0  0  2  0  0  0  0  0  0  0  0  0
    1.5010    0.0970    0.5270 C   0  0  0  0  0  0  0  0  0  0  0  0
    0.6200    0.6790   -0.5790 C   0  0  0  0  0  0  0  0  0  0  0  0
   -0.6250   -0.1670   -0.7120 C   0  0  2  0  0  0  0  0  0  0  0  0
   -1.7630    0.6990   -0.4700 N   0  0  1  0  0  0  0  0  0  0  0  0
   -1.9980    1.6190   -1.5670 C   0  0  0  0  0  0  0  0  0  0  0  0
   -3.3200    2.2440   -1.1830 C   0  0  0  0  0  0  0  0  0  0  0  0
   -4.0070    1.1030   -0.4340 C   0  0  1  0  0  0  0  0  0  0  0  0
   -5.2690    0.7910   -1.1900 C   0  0  0  0  0  0  0  0  0  0  0  0
   -6.0680   -0.2580   -0.6440 N   0  0  0  0  0  0  0  0  0  0  0  0
   -5.8350   -1.5600   -0.9640 C   0  0  0  0  0  0  0  0  0  0  0  0
   -6.7580   -2.3090   -0.2730 C   0  0  0  0  0  0  0  0  0  0  0  0
   -7.4960   -1.4650    0.4210 N   0  0  0  0  0  0  0  0  0  0  0  0
   -7.1020   -0.1950    0.2200 C   0  0  0  0  0  0  0  0  0  0  0  0
   -7.7100    1.0360    0.8240 C   0  0  2  0  0  0  0  0  0  0  0  0
   -8.7480    0.5380    1.8460 C   0  0  0  0  0  0  0  0  0  0  0  0
   -8.5000    1.8180   -0.1930 C   0  0  0  0  0  0  0  0  0  0  0  0
   -6.7530    1.8650    1.6040 C   0  0  0  0  0  0  0  0  0  0  0  0
   -3.0180   -0.0520   -0.4960 C   0  0  0  0  0  0  0  0  0  0  0  0
   -0.6890   -1.2850    0.2850 C   0  0  0  0  0  0  0  0  0  0  0  0
    0.5880   -2.0420    0.4400 C   0  0  0  0  0  0  0  0  0  0  0  0
    6.6280   -1.5810   -0.0340 N   0  0  0  0  0  0  0  0  0  0  0  0
    6.8560   -0.1720   -0.0900 C   0  0  2  0  0  0  0  0  0  0  0  0
    7.2400    0.1890   -1.5350 C   0  0  0  0  0  0  0  0  0  0  0  0
    7.2610    1.6800   -1.6360 C   0  0  0  0  0  0  0  0  0  0  0  0
    7.1930    2.3780   -0.3210 C   0  0  0  0  0  0  0  0  0  0  0  0
    8.0310    1.7790    0.7540 C   0  0  0  0  0  0  0  0  0  0  0  0
    8.0510    0.2680    0.7520 C   0  0  0  0  0  0  0  0  0  0  0  0
  2  1  1  6
  2  3  1  0
  2 26  1  0
  3  4  1  0
  5  4  1  1
  5  6  1  0
  5 25  1  0
  6  7  1  0
  8  7  1  1
  8  9  1  0
  8 24  1  0
  9 10  1  6
  9 23  1  0
 10 11  1  0
 11 12  1  0
 12 13  1  6
 12 23  1  0
 13 14  1  0
 14 15  1  0
 14 18  1  0
 15 16  2  0
 16 17  1  0
 17 18  2  0
 18 19  1  0
 19 20  1  1
 19 21  1  0
 19 22  1  0
 24 25  1  0
 27 26  1  6
 27 28  1  0
 27 32  1  0
 28 29  1  0
 29 30  1  0
 30 31  1  0
 31 32  1  0
M  CHG  4   5   1   9   1  17   1  26   1
M  END
