
     RDKit          3D

 32 35  0  0  0  0  0  0  0  0999 V2000
    5.9480   -1.8100   -0.0560 C   0  0  0  0  0  0  0  0  0  0  0  0
    4.8750   -1.5390    0.9900 C   0  0  0  0  0  0  0  0  0  0  0  0
    3.8420   -0.7020    0.3910 N   0  0  2  0  0  0  0  0  0  0  0  0
    3.1810    0.1120    1.3820 C   0  0  0  0  0  0  0  0  0  0  0  0
    3.9280    1.3210    1.7930 C   0  0  0  0  0  0  0  0  0  0  0  0
    4.1750    2.4020    1.0950 C   0  0  0  0  0  0  0  0  0  0  0  0
    3.8110    2.7560   -0.2680 C   0  0  0  0  0  0  0  0  0  0  0  0
    2.3860    2.6250   -0.6680 C   0  0  0  0  0  0  0  0  0  0  0  0
    1.4330    3.2050    0.2870 N   0  0  1  0  0  0  0  0  0  0  0  0
    1.2210    4.5900    0.0040 C   0  0  0  0  0  0  0  0  0  0  0  0
    0.3050    2.3860    0.4170 C   0  0  0  0  0  0  0  0  0  0  0  0
   -1.0600    2.9080    0.2070 C   0  0  1  0  0  0  0  0  0  0  0  0
   -1.3750    3.4410   -1.1340 C   0  0  0  0  0  0  0  0  0  0  0  0
   -2.2790    2.6860   -2.0220 C   0  0  0  0  0  0  0  0  0  0  0  0
   -3.0620    1.5630   -1.4130 C   0  0  0  0  0  0  0  0  0  0  0  0
   -2.1140    0.8670   -0.5320 N   0  0  1  0  0  0  0  0  0  0  0  0
   -1.9920    1.7380    0.6000 C   0  0  0  0  0  0  0  0  0  0  0  0
   -2.5650   -0.4520   -0.1990 C   0  0  0  0  0  0  0  0  0  0  0  0
   -3.7590   -0.5480    0.1850 N   0  0  0  0  0  0  0  0  0  0  0  0
   -4.6230   -1.5330    0.5980 C   0  0  0  0  0  0  0  0  0  0  0  0
   -5.6640   -1.9530   -0.1350 C   0  0  0  0  0  0  0  0  0  0  0  0
   -6.4060   -3.0150    0.5680 C   0  0  0  0  0  0  0  0  0  0  0  0
   -5.9960   -2.7770    2.0250 C   0  0  0  0  0  0  0  0  0  0  0  0
   -4.5680   -2.2670    1.9030 C   0  0  0  0  0  0  0  0  0  0  0  0
   -1.6080   -1.5530   -0.3330 C   0  0  0  0  0  0  0  0  0  0  0  0
   -2.1070   -2.7850   -0.4260 C   0  0  0  0  0  0  0  0  0  0  0  0
   -1.2430   -3.8960    0.0370 C   0  0  0  0  0  0  0  0  0  0  0  0
    0.1480   -3.6820   -0.4300 C   0  0  0  0  0  0  0  0  0  0  0  0
    0.6920   -2.4010   -0.3150 N   0  0  0  0  0  0  0  0  0  0  0  0
    1.9030   -2.2490    0.4440 C   0  0  0  0  0  0  0  0  0  0  0  0
    2.9070   -1.4850   -0.3750 C   0  0  0  0  0  0  0  0  0  0  0  0
   -0.1590   -1.2850   -0.3630 C   0  0  0  0  0  0  0  0  0  0  0  0
  1  2  1  0
  3  2  1  1
  3  4  1  0
  3 31  1  0
  4  5  1  0
  5  6  2  0
  6  7  1  0
  7  8  1  0
  8  9  1  0
  9 10  1  6
  9 11  1  0
 12 11  1  6
 12 13  1  0
 12 17  1  0
 13 14  1  0
 14 15  1  0
 16 15  1  6
 16 17  1  0
 16 18  1  0
 18 19  2  3
 18 25  1  0
 19 20  1  0
 20 21  2  0
 20 24  1  0
 21 22  1  0
 22 23  1  0
 23 24  1  0
 25 26  2  0
 25 32  1  0
 26 27  1  0
 27 28  1  0
 28 29  1  0
 29 30  1  0
 29 32  1  0
 30 31  1  0
M  CHG  3   3   1   9   1  16   1
M  END
