
     RDKit          3D

 32 37  0  0  0  0  0  0  0  0999 V2000
    6.9290   -0.4620    2.6110 C   0  0  0  0  0  0  0  0  0  0  0  0
    7.4400   -0.0420    1.4690 C   0  0  0  0  0  0  0  0  0  0  0  0
    7.7810   -0.9610    0.3480 C   0  0  0  0  0  0  0  0  0  0  0  0
    7.0170   -0.5970   -0.8260 N   0  0  0  0  0  0  0  0  0  0  0  0
    5.6050   -0.6270   -0.7650 C   0  0  0  0  0  0  0  0  0  0  0  0
    5.0110   -0.9640    0.2920 O   0  0  0  0  0  0  0  0  0  0  0  0
    4.8170   -0.2560   -1.9610 C   0  0  0  0  0  0  0  0  0  0  0  0
    3.3510   -0.3620   -1.6560 C   0  0  0  0  0  0  0  0  0  0  0  0
    2.5760    0.6110   -1.1720 N   0  0  0  0  0  0  0  0  0  0  0  0
    1.2940    0.1650   -1.0150 C   0  0  0  0  0  0  0  0  0  0  0  0
    0.1710    0.9400   -0.5150 C   0  0  0  0  0  0  0  0  0  0  0  0
    0.3950    2.2540   -0.1610 C   0  0  0  0  0  0  0  0  0  0  0  0
   -0.6380    3.0200    0.3140 C   0  0  0  0  0  0  0  0  0  0  0  0
   -1.9140    2.5010    0.4500 C   0  0  0  0  0  0  0  0  0  0  0  0
   -2.1610    1.1930    0.1040 C   0  0  0  0  0  0  0  0  0  0  0  0
   -1.1150    0.4110   -0.3790 C   0  0  0  0  0  0  0  0  0  0  0  0
   -1.2910   -0.9830   -0.7770 C   0  0  0  0  0  0  0  0  0  0  0  0
   -2.6000   -1.6060   -0.5790 C   0  0  0  0  0  0  0  0  0  0  0  0
   -3.6830   -0.7510   -0.0970 C   0  0  0  0  0  0  0  0  0  0  0  0
   -3.4750    0.5860    0.2430 C   0  0  0  0  0  0  0  0  0  0  0  0
   -4.5620    1.3030    0.6970 C   0  0  0  0  0  0  0  0  0  0  0  0
   -5.8050    0.6690    0.7960 C   0  0  0  0  0  0  0  0  0  0  0  0
   -5.9700   -0.6440    0.4530 C   0  0  0  0  0  0  0  0  0  0  0  0
   -4.9180   -1.3810    0.0010 C   0  0  0  0  0  0  0  0  0  0  0  0
   -5.4590   -2.7050   -0.2590 C   0  0  0  0  0  0  0  0  0  0  0  0
   -6.7480   -2.7060    0.0330 C   0  0  0  0  0  0  0  0  0  0  0  0
   -7.0460   -1.3980    0.4800 N   0  0  0  0  0  0  0  0  0  0  0  0
   -6.6850    1.5580    1.2470 C   0  0  0  0  0  0  0  0  0  0  0  0
   -6.0370    2.8200    1.4610 C   0  0  0  0  0  0  0  0  0  0  0  0
   -4.7320    2.6760    1.1260 C   0  0  0  0  0  0  0  0  0  0  0  0
    1.3410   -1.0970   -1.4210 N   0  0  0  0  0  0  0  0  0  0  0  0
    2.5560   -1.4320   -1.8070 N   0  0  0  0  0  0  0  0  0  0  0  0
  1  2  2  0
  2  3  1  0
  3  4  1  0
  4  5  1  0
  5  6  2  0
  5  7  1  0
  7  8  1  0
  8  9  2  0
  8 32  1  0
  9 10  1  0
 10 11  1  0
 10 31  2  0
 11 12  2  0
 11 16  1  0
 12 13  1  0
 13 14  2  0
 14 15  1  0
 15 16  2  0
 15 20  1  0
 16 17  1  0
 17 18  1  0
 18 19  1  0
 19 20  1  0
 19 24  2  0
 20 21  2  0
 21 22  1  0
 21 30  1  0
 22 23  1  0
 22 28  2  0
 23 24  1  0
 23 27  2  0
 24 25  1  0
 25 26  2  0
 26 27  1  0
 28 29  1  0
 29 30  2  0
 31 32  1  0
M  END
