
     RDKit          3D

 32 35  0  0  0  0  0  0  0  0999 V2000
   -4.3790    2.4050   -2.2580 C   0  0  0  0  0  0  0  0  0  0  0  0
   -5.2250    1.7910   -1.4820 C   0  0  0  0  0  0  0  0  0  0  0  0
   -4.6230    0.9450   -0.4340 C   0  0  0  0  0  0  0  0  0  0  0  0
   -5.0220   -0.1360    0.1360 C   0  0  0  0  0  0  0  0  0  0  0  0
   -4.2860   -0.8490    1.1610 C   0  0  0  0  0  0  0  0  0  0  0  0
   -5.1020   -1.6220    1.9660 N   0  0  0  0  0  0  0  0  0  0  0  0
   -4.6220   -2.4350    2.8770 C   0  0  0  0  0  0  0  0  0  0  0  0
   -3.2730   -2.5480    3.0640 C   0  0  0  0  0  0  0  0  0  0  0  0
   -2.4210   -1.8100    2.2980 C   0  0  0  0  0  0  0  0  0  0  0  0
   -2.9430   -0.9460    1.3320 C   0  0  0  0  0  0  0  0  0  0  0  0
   -1.9970   -0.1660    0.4990 C   0  0  0  0  0  0  0  0  0  0  0  0
   -0.6030   -0.4230    0.8030 N   0  0  0  0  0  0  0  0  0  0  0  0
   -0.1950    0.1630    1.9840 C   0  0  0  0  0  0  0  0  0  0  0  0
    0.3660    1.5600    1.7920 C   0  0  0  0  0  0  0  0  0  0  0  0
    1.0950    1.7350    0.5120 C   0  0  0  0  0  0  0  0  0  0  0  0
    1.4500    0.4950   -0.2230 C   0  0  1  0  0  0  0  0  0  0  0  0
    2.6360   -0.2590    0.2920 C   0  0  0  0  0  0  0  0  0  0  0  0
    3.8660    0.4840    0.2850 N   0  0  1  0  0  0  0  0  0  0  0  0
    4.1450    0.8710    1.6670 C   0  0  0  0  0  0  0  0  0  0  0  0
    4.9250   -0.4440   -0.0860 C   0  0  0  0  0  0  0  0  0  0  0  0
    6.0900    0.2280   -0.7410 C   0  0  1  0  0  0  0  0  0  0  0  0
    6.7600    1.2590    0.1010 C   0  0  0  0  0  0  0  0  0  0  0  0
    8.1900    1.2500   -0.4440 C   0  0  0  0  0  0  0  0  0  0  0  0
    8.2550    0.0050   -1.3320 C   0  0  0  0  0  0  0  0  0  0  0  0
    7.1400   -0.7900   -0.8670 N   0  0  2  0  0  0  0  0  0  0  0  0
    6.7360   -1.8090   -1.7920 C   0  0  0  0  0  0  0  0  0  0  0  0
    0.2720   -0.4400   -0.2870 C   0  0  0  0  0  0  0  0  0  0  0  0
   -6.3100   -0.8470   -0.2740 C   0  0  2  0  0  0  0  0  0  0  0  0
   -6.1140   -2.3120   -0.4600 C   0  0  0  0  0  0  0  0  0  0  0  0
   -6.7910   -0.3260   -1.5520 N   0  0  0  0  0  0  0  0  0  0  0  0
   -7.5450    0.8950   -1.3320 C   0  0  0  0  0  0  0  0  0  0  0  0
   -6.6530    2.0270   -1.7330 C   0  0  0  0  0  0  0  0  0  0  0  0
  1  2  2  0
  2  3  1  0
  2 32  1  0
  3  4  2  0
  4  5  1  0
  4 28  1  0
  5  6  2  0
  5 10  1  0
  6  7  1  0
  7  8  2  0
  8  9  1  0
  9 10  2  0
 10 11  1  0
 11 12  1  0
 12 13  1  0
 12 27  1  0
 13 14  1  0
 14 15  1  0
 15 16  1  0
 16 17  1  1
 16 27  1  0
 17 18  1  0
 18 19  1  1
 18 20  1  0
 21 20  1  1
 21 22  1  0
 21 25  1  0
 22 23  1  0
 23 24  1  0
 24 25  1  0
 25 26  1  6
 28 29  1  6
 28 30  1  0
 30 31  1  0
 31 32  1  0
M  CHG  4   6   1  18   1  25   1  30   1
M  END
