
     RDKit          3D

 32 36  0  0  0  0  0  0  0  0999 V2000
    3.8220    2.4900   -3.0370 C   0  0  0  0  0  0  0  0  0  0  0  0
    3.5690    1.3750   -2.0520 C   0  0  0  0  0  0  0  0  0  0  0  0
    4.4450    1.1260   -1.0980 C   0  0  0  0  0  0  0  0  0  0  0  0
    4.2980    0.0690   -0.0950 C   0  0  0  0  0  0  0  0  0  0  0  0
    5.3520   -0.1220    0.9520 C   0  0  0  0  0  0  0  0  0  0  0  0
    3.2230   -0.6990   -0.1370 C   0  0  0  0  0  0  0  0  0  0  0  0
    3.0510   -1.7460    0.8460 C   0  0  0  0  0  0  0  0  0  0  0  0
    4.0660   -2.6150    1.1020 N   0  0  0  0  0  0  0  0  0  0  0  0
    4.0010   -3.5800    2.0270 C   0  0  0  0  0  0  0  0  0  0  0  0
    5.1140   -4.4560    2.2380 N   0  0  0  0  0  0  0  0  0  0  0  0
    2.8560   -3.7070    2.7600 N   0  0  0  0  0  0  0  0  0  0  0  0
    1.7980   -2.9070    2.5910 C   0  0  0  0  0  0  0  0  0  0  0  0
    1.9040   -1.9130    1.6170 C   0  0  0  0  0  0  0  0  0  0  0  0
    0.7750   -1.0500    1.4300 C   0  0  0  0  0  0  0  0  0  0  0  0
    0.8270    0.0640    2.0660 O   0  0  0  0  0  0  0  0  0  0  0  0
   -0.3610   -1.3200    0.6280 N   0  0  0  0  0  0  0  0  0  0  0  0
   -0.7410   -2.5020   -0.1250 C   0  0  0  0  0  0  0  0  0  0  0  0
   -2.2270   -2.5540    0.1550 C   0  0  0  0  0  0  0  0  0  0  0  0
   -2.5940   -1.1180    0.1190 C   0  0  0  0  0  0  0  0  0  0  0  0
   -3.7420   -0.4060   -0.1250 C   0  0  0  0  0  0  0  0  0  0  0  0
   -3.7920    1.0010   -0.0940 C   0  0  0  0  0  0  0  0  0  0  0  0
   -5.0540    1.6710   -0.3510 C   0  0  0  0  0  0  0  0  0  0  0  0
   -6.1900    0.9830   -0.5720 C   0  0  0  0  0  0  0  0  0  0  0  0
   -7.3250    1.8990   -0.8060 C   0  0  0  0  0  0  0  0  0  0  0  0
   -6.7260    3.2310   -0.7030 C   0  0  0  0  0  0  0  0  0  0  0  0
   -5.4180    3.0530   -0.4400 C   0  0  0  0  0  0  0  0  0  0  0  0
   -2.6580    1.7040    0.1880 C   0  0  0  0  0  0  0  0  0  0  0  0
   -2.5510    3.1900    0.2480 C   0  0  0  0  0  0  0  0  0  0  0  0
   -1.4880    0.9720    0.4370 C   0  0  0  0  0  0  0  0  0  0  0  0
   -1.4540   -0.4050    0.4030 C   0  0  0  0  0  0  0  0  0  0  0  0
    2.3000   -0.5320   -1.1860 N   0  0  0  0  0  0  0  0  0  0  0  0
    2.3360    0.5650   -2.1240 C   0  0  0  0  0  0  0  0  0  0  0  0
  1  2  1  0
  2  3  2  0
  2 32  1  0
  3  4  1  0
  4  5  1  0
  4  6  2  0
  6  7  1  0
  6 31  1  0
  7  8  2  0
  7 13  1  0
  8  9  1  0
  9 10  1  0
  9 11  2  0
 11 12  1  0
 12 13  2  0
 13 14  1  0
 14 15  2  0
 14 16  1  0
 16 17  1  0
 16 30  1  0
 17 18  1  0
 18 19  1  0
 19 20  2  0
 19 30  1  0
 20 21  1  0
 21 22  1  0
 21 27  2  0
 22 23  2  0
 22 26  1  0
 23 24  1  0
 24 25  1  0
 25 26  2  0
 27 28  1  0
 27 29  1  0
 29 30  2  0
 31 32  1  0
M  END
