
     RDKit          3D

 32 37  0  0  0  0  0  0  0  0999 V2000
   -3.1770   -4.9790   -0.8400 C   0  0  0  0  0  0  0  0  0  0  0  0
   -3.4630   -3.8530   -1.7710 C   0  0  0  0  0  0  0  0  0  0  0  0
   -3.8470   -2.5570   -1.1640 C   0  0  0  0  0  0  0  0  0  0  0  0
   -2.8440   -1.9460   -0.2690 C   0  0  0  0  0  0  0  0  0  0  0  0
   -2.2680   -0.7810   -0.6130 C   0  0  0  0  0  0  0  0  0  0  0  0
   -1.3000   -0.1270    0.1860 N   0  0  0  0  0  0  0  0  0  0  0  0
   -0.6940    1.0920   -0.1630 C   0  0  0  0  0  0  0  0  0  0  0  0
    0.6300    1.2550   -0.7880 C   0  0  0  0  0  0  0  0  0  0  0  0
    1.7340    0.5630   -0.1130 C   0  0  0  0  0  0  0  0  0  0  0  0
    2.5710    1.2360    0.7620 C   0  0  0  0  0  0  0  0  0  0  0  0
    3.6260    0.5910    1.4330 C   0  0  0  0  0  0  0  0  0  0  0  0
    3.8300   -0.7710    1.2040 C   0  0  0  0  0  0  0  0  0  0  0  0
    2.9800   -1.3560    0.3420 C   0  0  0  0  0  0  0  0  0  0  0  0
    1.9410   -0.8030   -0.3410 C   0  0  0  0  0  0  0  0  0  0  0  0
    1.3640   -1.8840   -1.1480 C   0  0  0  0  0  0  0  0  0  0  0  0
    2.2570   -3.0920   -0.8970 C   0  0  0  0  0  0  0  0  0  0  0  0
    3.2070   -2.7160    0.1130 N   0  0  0  0  0  0  0  0  0  0  0  0
    4.3100   -3.0420    1.0330 C   0  0  0  0  0  0  0  0  0  0  0  0
    4.6860   -1.7740    1.6090 O   0  0  0  0  0  0  0  0  0  0  0  0
   -1.3940    2.1660    0.0840 N   0  0  0  0  0  0  0  0  0  0  0  0
   -0.9680    3.4740   -0.1860 C   0  0  0  0  0  0  0  0  0  0  0  0
   -1.3250    4.0920   -1.3510 C   0  0  0  0  0  0  0  0  0  0  0  0
   -0.9110    5.3880   -1.6330 C   0  0  0  0  0  0  0  0  0  0  0  0
   -0.1330    6.0540   -0.7250 C   0  0  0  0  0  0  0  0  0  0  0  0
    0.2320    5.4400    0.4520 C   0  0  0  0  0  0  0  0  0  0  0  0
    0.9840    5.8760    1.4990 C   0  0  0  0  0  0  0  0  0  0  0  0
    1.0280    4.8550    2.4070 C   0  0  0  0  0  0  0  0  0  0  0  0
    0.3190    3.8210    1.9260 N   0  0  0  0  0  0  0  0  0  0  0  0
   -0.1900    4.1510    0.7140 C   0  0  0  0  0  0  0  0  0  0  0  0
   -0.9480   -0.7730    1.4150 C   0  0  0  0  0  0  0  0  0  0  0  0
   -1.5050   -1.9160    1.7670 C   0  0  0  0  0  0  0  0  0  0  0  0
   -2.4880   -2.5690    0.9440 N   0  0  0  0  0  0  0  0  0  0  0  0
  1  2  1  0
  2  3  1  0
  3  4  1  0
  4  5  2  0
  4 32  1  0
  5  6  1  0
  6  7  1  0
  6 30  1  0
  7  8  1  0
  7 20  2  3
  8  9  1  0
  9 10  2  0
  9 14  1  0
 10 11  1  0
 11 12  2  0
 12 13  1  0
 12 19  1  0
 13 14  2  0
 13 17  1  0
 14 15  1  0
 15 16  1  0
 16 17  1  0
 17 18  1  0
 18 19  1  0
 20 21  1  0
 21 22  2  0
 21 29  1  0
 22 23  1  0
 23 24  2  0
 24 25  1  0
 25 26  1  0
 25 29  2  0
 26 27  2  0
 27 28  1  0
 28 29  1  0
 30 31  2  0
 31 32  1  0
M  END
