
     RDKit          3D

 32 34  0  0  0  0  0  0  0  0999 V2000
   -6.9070    1.4110   -0.9700 C   0  0  0  0  0  0  0  0  0  0  0  0
   -6.2450    1.1290    0.0930 N   0  0  0  0  0  0  0  0  0  0  0  0
   -5.0430    1.8250    0.3930 C   0  0  0  0  0  0  0  0  0  0  0  0
   -4.9580    2.5270    1.4930 C   0  0  0  0  0  0  0  0  0  0  0  0
   -6.1150    2.5860    2.4090 C   0  0  0  0  0  0  0  0  0  0  0  0
   -3.8760    1.7660   -0.5270 C   0  0  0  0  0  0  0  0  0  0  0  0
   -3.5080    0.2770   -0.5750 C   0  0  0  0  0  0  0  0  0  0  0  0
   -2.3570    0.0290   -1.4390 N   0  0  2  0  0  0  0  0  0  0  0  0
   -2.4160   -1.2840   -1.9130 C   0  0  0  0  0  0  0  0  0  0  0  0
   -2.7780   -2.4670   -1.1390 C   0  0  0  0  0  0  0  0  0  0  0  0
   -2.6410   -3.0360    0.0300 C   0  0  0  0  0  0  0  0  0  0  0  0
   -3.3610   -4.4310    0.1840 C   0  0  0  0  0  0  0  0  0  0  0  0
   -1.9660   -2.6990    1.2920 C   0  0  0  0  0  0  0  0  0  0  0  0
   -0.6590   -3.2320    1.6740 C   0  0  0  0  0  0  0  0  0  0  0  0
    0.5620   -3.0440    1.0320 N   0  0  2  0  0  0  0  0  0  0  0  0
    1.6800   -2.4930    1.7500 C   0  0  0  0  0  0  0  0  0  0  0  0
    2.1130   -1.1270    1.6830 C   0  0  0  0  0  0  0  0  0  0  0  0
    1.9950   -0.1650    0.5550 C   0  0  1  0  0  0  0  0  0  0  0  0
    3.1380   -0.0610   -0.4110 C   0  0  0  0  0  0  0  0  0  0  0  0
    4.4540    0.3820    0.1900 C   0  0  0  0  0  0  0  0  0  0  0  0
    5.5370    0.4860   -0.7080 N   0  0  0  0  0  0  0  0  0  0  0  0
    5.3820    1.5870   -1.6110 C   0  0  0  0  0  0  0  0  0  0  0  0
    5.5210    2.9290   -0.9170 C   0  0  0  0  0  0  0  0  0  0  0  0
    6.6920    2.9800    0.0330 C   0  0  0  0  0  0  0  0  0  0  0  0
    7.5720    1.7820   -0.2550 C   0  0  0  0  0  0  0  0  0  0  0  0
    6.7910    0.5160    0.0160 C   0  0  0  0  0  0  0  0  0  0  0  0
    0.7160    0.2210    0.1670 N   0  0  2  0  0  0  0  0  0  0  0  0
   -0.1000   -0.9130    0.6960 C   0  0  0  0  0  0  0  0  0  0  0  0
    0.4630   -2.0650   -0.0520 C   0  0  0  0  0  0  0  0  0  0  0  0
    0.1940    0.3110   -1.1540 C   0  0  0  0  0  0  0  0  0  0  0  0
   -1.2320    0.7830   -1.1170 C   0  0  1  0  0  0  0  0  0  0  0  0
   -1.2200    2.0710   -1.9880 C   0  0  0  0  0  0  0  0  0  0  0  0
  1  2  2  0
  2  3  1  0
  3  4  2  3
  3  6  1  0
  4  5  1  0
  6  7  1  0
  8  7  1  1
  8  9  1  0
  8 31  1  0
  9 10  1  0
 10 11  2  0
 11 12  1  0
 11 13  1  0
 13 14  1  0
 15 14  1  1
 15 16  1  0
 15 29  1  0
 16 17  1  0
 17 18  1  0
 18 19  1  6
 18 27  1  0
 19 20  1  0
 20 21  1  0
 21 22  1  0
 21 26  1  0
 22 23  1  0
 23 24  1  0
 24 25  1  0
 25 26  1  0
 27 28  1  0
 27 30  1  6
 28 29  1  0
 30 31  1  0
 31 32  1  6
M  CHG  4   2   1   8   1  15   1  27   1
M  END
