
     RDKit          3D

 32 34  0  0  0  0  0  0  0  0999 V2000
    5.3100    0.4670    1.4430 C   0  0  0  0  0  0  0  0  0  0  0  0
    3.9370    0.3710    2.0540 C   0  0  2  0  0  0  0  0  0  0  0  0
    4.1320   -0.0750    3.4880 C   0  0  0  0  0  0  0  0  0  0  0  0
    3.0300   -0.5650    1.2930 C   0  0  0  0  0  0  0  0  0  0  0  0
    2.8520   -0.1150   -0.1150 C   0  0  2  0  0  0  0  0  0  0  0  0
    2.2520    1.2420   -0.1500 C   0  0  0  0  0  0  0  0  0  0  0  0
    1.8690    1.7470   -1.4330 N   0  0  1  0  0  0  0  0  0  0  0  0
    0.5020    1.5570   -1.8000 C   0  0  0  0  0  0  0  0  0  0  0  0
   -0.1660    2.7930   -2.3650 C   0  0  0  0  0  0  0  0  0  0  0  0
   -0.3060    3.8030   -1.2810 C   0  0  1  0  0  0  0  0  0  0  0  0
   -1.2720    3.4270   -0.1980 C   0  0  0  0  0  0  0  0  0  0  0  0
   -2.6690    3.2010   -0.6730 C   0  0  0  0  0  0  0  0  0  0  0  0
   -3.4030    2.4260    0.4340 C   0  0  0  0  0  0  0  0  0  0  0  0
   -3.0630    1.0070    0.2760 C   0  0  0  0  0  0  0  0  0  0  0  0
   -3.9050    0.0160    0.9270 C   0  0  0  0  0  0  0  0  0  0  0  0
   -5.2240    0.2310    1.2960 C   0  0  0  0  0  0  0  0  0  0  0  0
   -6.0050   -0.7220    1.9140 C   0  0  0  0  0  0  0  0  0  0  0  0
   -5.4490   -1.9280    2.1710 N   0  0  0  0  0  0  0  0  0  0  0  0
   -4.1690   -2.1670    1.8240 C   0  0  0  0  0  0  0  0  0  0  0  0
   -3.3630   -1.2420    1.2080 C   0  0  0  0  0  0  0  0  0  0  0  0
   -1.9540   -1.5460    0.8410 C   0  0  0  0  0  0  0  0  0  0  0  0
   -1.6400   -2.9780    0.7170 C   0  0  0  0  0  0  0  0  0  0  0  0
   -0.6430   -3.3300   -0.2590 N   0  0  1  0  0  0  0  0  0  0  0  0
   -1.0800   -3.1120   -1.6190 C   0  0  0  0  0  0  0  0  0  0  0  0
   -1.9710   -4.2260   -2.0900 C   0  0  0  0  0  0  0  0  0  0  0  0
   -2.0570   -4.3900   -3.3560 N   0  0  0  0  0  0  0  0  0  0  0  0
    0.6730   -2.7930    0.0110 C   0  0  0  0  0  0  0  0  0  0  0  0
    0.8770   -1.4210   -0.5570 C   0  0  0  0  0  0  0  0  0  0  0  0
    2.1990   -1.0910   -0.9650 N   0  0  2  0  0  0  0  0  0  0  0  0
    3.0450   -2.2440   -1.1690 C   0  0  0  0  0  0  0  0  0  0  0  0
    1.0760    3.9350   -0.6270 C   0  0  0  0  0  0  0  0  0  0  0  0
    2.0980    3.2020   -1.4550 C   0  0  0  0  0  0  0  0  0  0  0  0
  2  1  1  6
  2  3  1  0
  2  4  1  0
  5  4  1  1
  5  6  1  0
  5 29  1  0
  7  6  1  1
  7  8  1  0
  7 32  1  0
  8  9  1  0
  9 10  1  0
 10 11  1  1
 10 31  1  0
 11 12  1  0
 12 13  1  0
 13 14  1  0
 14 15  1  0
 15 16  2  0
 15 20  1  0
 16 17  1  0
 17 18  2  0
 18 19  1  0
 19 20  2  0
 20 21  1  0
 21 22  1  0
 22 23  1  0
 23 24  1  6
 23 27  1  0
 24 25  1  0
 25 26  2  0
 27 28  1  0
 28 29  1  0
 29 30  1  1
 31 32  1  0
M  CHG  4   7   1  18   1  23   1  29   1
M  END
