
     RDKit          3D

 32 35  0  0  0  0  0  0  0  0999 V2000
    2.8310    2.7920    1.2250 C   0  0  0  0  0  0  0  0  0  0  0  0
    3.5150    2.0970    0.0780 C   0  0  2  0  0  0  0  0  0  0  0  0
    2.8980    0.7950   -0.2920 C   0  0  0  0  0  0  0  0  0  0  0  0
    1.5040    0.8020   -0.7440 C   0  0  0  0  0  0  0  0  0  0  0  0
    0.9400    1.9730   -0.9260 C   0  0  0  0  0  0  0  0  0  0  0  0
   -0.4430    2.2200   -1.3720 C   0  0  0  0  0  0  0  0  0  0  0  0
   -1.4490    1.3620   -1.4320 C   0  0  0  0  0  0  0  0  0  0  0  0
   -1.5120   -0.0580   -1.0900 C   0  0  0  0  0  0  0  0  0  0  0  0
   -2.7860   -0.7350   -0.9510 C   0  0  2  0  0  0  0  0  0  0  0  0
   -3.5040   -0.6160   -2.3050 C   0  0  0  0  0  0  0  0  0  0  0  0
   -4.6600   -1.5900   -2.2360 C   0  0  0  0  0  0  0  0  0  0  0  0
   -5.0850   -1.8920   -0.8430 C   0  0  0  0  0  0  0  0  0  0  0  0
   -4.9900   -0.7860    0.0670 N   0  0  2  0  0  0  0  0  0  0  0  0
   -6.0380    0.1790   -0.0480 C   0  0  1  0  0  0  0  0  0  0  0  0
   -7.3510   -0.3300   -0.5170 C   0  0  0  0  0  0  0  0  0  0  0  0
   -8.1090   -1.1080    0.5530 C   0  0  0  0  0  0  0  0  0  0  0  0
   -8.4130   -0.0720    1.6450 C   0  0  0  0  0  0  0  0  0  0  0  0
   -7.0380    0.2260    2.2570 C   0  0  0  0  0  0  0  0  0  0  0  0
   -6.2280    0.9530    1.2320 C   0  0  0  0  0  0  0  0  0  0  0  0
   -3.7130   -0.1320    0.0660 C   0  0  0  0  0  0  0  0  0  0  0  0
   -0.4600   -0.7790   -0.8960 N   0  0  0  0  0  0  0  0  0  0  0  0
    0.8950   -0.4950   -0.9390 N   0  0  0  0  0  0  0  0  0  0  0  0
    1.8570   -1.5670   -1.1990 C   0  0  0  0  0  0  0  0  0  0  0  0
    4.9500    1.9540    0.3310 N   0  0  0  0  0  0  0  0  0  0  0  0
    5.2330    1.0760    1.4320 C   0  0  2  0  0  0  0  0  0  0  0  0
    6.2960    1.6940    2.3500 C   0  0  0  0  0  0  0  0  0  0  0  0
    5.8720   -0.1580    0.8660 C   0  0  0  0  0  0  0  0  0  0  0  0
    5.4890   -1.4210    0.9680 C   0  0  0  0  0  0  0  0  0  0  0  0
    6.4160   -2.3210    0.2510 C   0  0  0  0  0  0  0  0  0  0  0  0
    7.6100   -1.5270    0.0980 N   0  0  1  0  0  0  0  0  0  0  0  0
    8.2910   -1.9200   -1.1250 C   0  0  0  0  0  0  0  0  0  0  0  0
    7.1140   -0.1870    0.0440 C   0  0  0  0  0  0  0  0  0  0  0  0
  2  1  1  1
  2  3  1  0
  2 24  1  0
  3  4  1  0
  4  5  2  0
  4 22  1  0
  5  6  1  0
  6  7  2  0
  7  8  1  0
  9  8  1  6
  8 21  2  0
  9 10  1  0
  9 20  1  0
 10 11  1  0
 11 12  1  0
 13 12  1  6
 13 14  1  0
 13 20  1  0
 14 15  1  1
 14 19  1  0
 15 16  1  0
 16 17  1  0
 17 18  1  0
 18 19  1  0
 21 22  1  0
 22 23  1  0
 24 25  1  0
 25 26  1  1
 25 27  1  0
 27 28  2  0
 27 32  1  0
 28 29  1  0
 29 30  1  0
 30 31  1  6
 30 32  1  0
M  CHG  3  13   1  24   1  30   1
M  END
