
     RDKit          3D

 33 35  0  0  0  0  0  0  0  0999 V2000
    8.5510    3.7120   -0.0460 C   0  0  0  0  0  0  0  0  0  0  0  0
    8.5490    2.2800    0.3820 C   0  0  0  0  0  0  0  0  0  0  0  0
    7.1420    1.8440    0.6720 C   0  0  0  0  0  0  0  0  0  0  0  0
    6.3580    1.3080   -0.3040 C   0  0  0  0  0  0  0  0  0  0  0  0
    5.0260    0.8750   -0.0910 C   0  0  0  0  0  0  0  0  0  0  0  0
    4.2660    0.3980   -1.1950 C   0  0  0  0  0  0  0  0  0  0  0  0
    3.2360   -0.3010   -1.3570 C   0  0  0  0  0  0  0  0  0  0  0  0
    2.3290   -0.9700   -0.5050 C   0  0  0  0  0  0  0  0  0  0  0  0
    2.4140   -1.0170    0.7270 O   0  0  0  0  0  0  0  0  0  0  0  0
    1.1550   -1.6990   -1.0360 N   0  0  0  0  0  0  0  0  0  0  0  0
    0.2550   -2.3660   -0.1530 C   0  0  2  0  0  0  0  0  0  0  0  0
    0.0380   -3.8170   -0.3980 C   0  0  0  0  0  0  0  0  0  0  0  0
   -0.2900   -4.0490   -1.8260 C   0  0  0  0  0  0  0  0  0  0  0  0
   -1.2830   -3.0630   -2.3300 C   0  0  0  0  0  0  0  0  0  0  0  0
   -1.8600   -2.1970   -1.3590 N   0  0  0  0  0  0  0  0  0  0  0  0
   -3.2460   -1.8010   -1.5010 C   0  0  0  0  0  0  0  0  0  0  0  0
   -3.8900   -2.2610   -2.4620 O   0  0  0  0  0  0  0  0  0  0  0  0
   -3.8930   -0.8930   -0.5650 C   0  0  0  0  0  0  0  0  0  0  0  0
   -3.1040   -0.0690    0.8360 S   0  0  0  0  0  0  0  0  0  0  0  0
   -4.5900    0.8210    1.3520 C   0  0  0  0  0  0  0  0  0  0  0  0
   -4.5060    1.6960    2.5110 C   0  0  0  0  0  0  0  0  0  0  0  0
   -5.5140    0.4250    0.4480 C   0  0  0  0  0  0  0  0  0  0  0  0
   -6.9150    0.9330    0.5130 C   0  0  0  0  0  0  0  0  0  0  0  0
   -7.7830    0.5490   -0.3560 O   0  0  0  0  0  0  0  0  0  0  0  0
   -7.4060    1.8210    1.4610 N   0  0  0  0  0  0  0  0  0  0  0  0
   -8.8380    2.2470    1.4070 C   0  0  0  0  0  0  0  0  0  0  0  0
   -9.7760    0.7460    1.5680 Cl  0  0  0  0  0  0  0  0  0  0  0  0
   -5.1670   -0.4410   -0.5240 C   0  0  0  0  0  0  0  0  0  0  0  0
   -6.0830   -0.9460   -1.5680 N   0  0  0  0  0  0  0  0  0  0  0  0
   -1.1210   -1.7050   -0.2310 C   0  0  0  0  0  0  0  0  0  0  0  0
    4.5890    1.0480    1.2000 C   0  0  0  0  0  0  0  0  0  0  0  0
    5.4170    1.6050    2.1980 C   0  0  0  0  0  0  0  0  0  0  0  0
    6.6630    1.9850    1.9090 N   0  0  0  0  0  0  0  0  0  0  0  0
  1  2  1  0
  2  3  1  0
  3  4  2  0
  3 33  1  0
  4  5  1  0
  5  6  1  0
  5 31  2  0
  6  7  2  3
  7  8  1  0
  8  9  2  0
  8 10  1  0
 11 10  1  6
 11 12  1  0
 11 30  1  0
 12 13  1  0
 13 14  1  0
 14 15  1  0
 15 16  1  0
 15 30  1  0
 16 17  2  0
 16 18  1  0
 18 19  1  0
 18 28  2  0
 19 20  1  0
 20 21  1  0
 20 22  2  0
 22 23  1  0
 22 28  1  0
 23 24  2  0
 23 25  1  0
 25 26  1  0
 26 27  1  0
 28 29  1  0
 31 32  1  0
 32 33  2  0
M  CHG  1  33   1
M  END
