
     RDKit          3D

 33 36  0  0  0  0  0  0  0  0999 V2000
   -2.1690    3.5110    0.8720 O   0  0  0  0  0  0  0  0  0  0  0  0
   -1.8930    2.8900   -0.3310 C   0  0  0  0  0  0  0  0  0  0  0  0
   -1.6820    1.3980   -0.1710 C   0  0  1  0  0  0  0  0  0  0  0  0
   -1.4150    0.8690   -1.4130 O   0  0  0  0  0  0  0  0  0  0  0  0
   -1.2460   -0.5020   -1.4240 C   0  0  2  0  0  0  0  0  0  0  0  0
   -2.6140   -1.4160   -2.1000 S   0  0  0  0  0  0  0  0  0  0  0  0
   -4.1100   -1.3660   -1.1990 C   0  0  0  0  0  0  0  0  0  0  0  0
   -4.4080   -2.3200   -0.2570 C   0  0  0  0  0  0  0  0  0  0  0  0
   -5.5830   -2.2950    0.4750 C   0  0  0  0  0  0  0  0  0  0  0  0
   -6.4820   -1.2910    0.2590 C   0  0  0  0  0  0  0  0  0  0  0  0
   -7.9760   -1.2790    1.2070 Cl  0  0  0  0  0  0  0  0  0  0  0  0
   -6.2210   -0.3170   -0.6740 C   0  0  0  0  0  0  0  0  0  0  0  0
   -7.4020    0.9460   -0.9130 Cl  0  0  0  0  0  0  0  0  0  0  0  0
   -5.0240   -0.3610   -1.4050 C   0  0  0  0  0  0  0  0  0  0  0  0
   -0.8850   -1.0510   -0.0650 C   0  0  2  0  0  0  0  0  0  0  0  0
   -2.0170   -1.1900    0.7520 O   0  0  0  0  0  0  0  0  0  0  0  0
    0.0550   -0.1180    0.6750 C   0  0  1  0  0  0  0  0  0  0  0  0
    1.3190    0.0360   -0.0110 N   0  0  0  0  0  0  0  0  0  0  0  0
    2.5350   -0.2530    0.4820 C   0  0  0  0  0  0  0  0  0  0  0  0
    3.5020    0.0320   -0.4840 C   0  0  0  0  0  0  0  0  0  0  0  0
    4.9380   -0.1420   -0.3440 C   0  0  0  0  0  0  0  0  0  0  0  0
    5.7850    0.1720   -1.3750 C   0  0  0  0  0  0  0  0  0  0  0  0
    7.1610   -0.0030   -1.2140 C   0  0  0  0  0  0  0  0  0  0  0  0
    8.0290    0.3030   -2.2290 F   0  0  0  0  0  0  0  0  0  0  0  0
    7.6720   -0.4870   -0.0330 C   0  0  0  0  0  0  0  0  0  0  0  0
    9.0000   -0.6750    0.1710 F   0  0  0  0  0  0  0  0  0  0  0  0
    6.8290   -0.8030    1.0020 C   0  0  0  0  0  0  0  0  0  0  0  0
    7.2750   -1.2860    2.1920 F   0  0  0  0  0  0  0  0  0  0  0  0
    5.4740   -0.6240    0.8260 C   0  0  0  0  0  0  0  0  0  0  0  0
    2.8020    0.4900   -1.5360 N   0  0  0  0  0  0  0  0  0  0  0  0
    1.5020    0.4840   -1.2300 N   0  0  0  0  0  0  0  0  0  0  0  0
   -0.6590    1.1770    0.8790 C   0  0  1  0  0  0  0  0  0  0  0  0
    0.2260    2.2540    0.8980 O   0  0  0  0  0  0  0  0  0  0  0  0
  1  2  1  0
  3  2  1  6
  3  4  1  0
  3 32  1  0
  4  5  1  0
  5  6  1  1
  5 15  1  0
  6  7  1  0
  7  8  2  0
  7 14  1  0
  8  9  1  0
  9 10  2  0
 10 11  1  0
 10 12  1  0
 12 13  1  0
 12 14  2  0
 15 16  1  1
 15 17  1  0
 17 18  1  6
 17 32  1  0
 18 19  1  0
 18 31  1  0
 19 20  2  0
 20 21  1  0
 20 30  1  0
 21 22  2  0
 21 29  1  0
 22 23  1  0
 23 24  1  0
 23 25  2  0
 25 26  1  0
 25 27  1  0
 27 28  1  0
 27 29  2  0
 30 31  2  0
 32 33  1  6
M  END
