
     RDKit          3D

 33 35  0  0  0  0  0  0  0  0999 V2000
    4.4580   -2.9600    2.7300 C   0  0  0  0  0  0  0  0  0  0  0  0
    4.7430   -2.3020    1.5950 C   0  0  0  0  0  0  0  0  0  0  0  0
    4.0290   -1.1770    1.0990 C   0  0  0  0  0  0  0  0  0  0  0  0
    4.4050   -0.6350   -0.0130 C   0  0  0  0  0  0  0  0  0  0  0  0
    3.8670    0.5270   -0.7650 C   0  0  0  0  0  0  0  0  0  0  0  0
    2.7360    1.1580   -0.1610 N   0  0  0  0  0  0  0  0  0  0  0  0
    2.8310    2.2490    0.7850 C   0  0  0  0  0  0  0  0  0  0  0  0
    1.3910    0.7170   -0.4820 C   0  0  0  0  0  0  0  0  0  0  0  0
    1.2850   -0.2320   -1.2900 O   0  0  0  0  0  0  0  0  0  0  0  0
    0.2560    1.3150    0.0770 N   0  0  0  0  0  0  0  0  0  0  0  0
   -1.0910    0.9760   -0.1520 C   0  0  0  0  0  0  0  0  0  0  0  0
   -1.4760   -0.1490   -0.8750 C   0  0  0  0  0  0  0  0  0  0  0  0
   -2.8290   -0.4600   -1.0360 C   0  0  0  0  0  0  0  0  0  0  0  0
   -3.2960   -1.5400   -1.7260 O   0  0  0  0  0  0  0  0  0  0  0  0
   -2.5730   -2.5260   -2.3890 C   0  0  1  0  0  0  0  0  0  0  0  0
   -2.9650   -3.8710   -1.7800 C   0  0  0  0  0  0  0  0  0  0  0  0
   -3.0540   -2.5950   -3.8450 C   0  0  0  0  0  0  0  0  0  0  0  0
   -3.7460    0.3880   -0.4520 C   0  0  0  0  0  0  0  0  0  0  0  0
   -5.1600    0.1020   -0.5930 C   0  0  0  0  0  0  0  0  0  0  0  0
   -5.6180   -1.0470   -1.3260 N   0  0  0  0  0  0  0  0  0  0  0  0
   -6.0390    0.8250   -0.0940 O   0  0  0  0  0  0  0  0  0  0  0  0
   -3.3870    1.4730    0.2450 N   0  0  0  0  0  0  0  0  0  0  0  0
   -2.0850    1.7650    0.3940 C   0  0  0  0  0  0  0  0  0  0  0  0
   -1.7460    2.9480    1.1490 C   0  0  0  0  0  0  0  0  0  0  0  0
   -1.0210    3.9500    0.5510 C   0  0  0  0  0  0  0  0  0  0  0  0
   -0.7030    5.0990    1.2230 C   0  0  0  0  0  0  0  0  0  0  0  0
   -1.1300    5.2410    2.5350 C   0  0  0  0  0  0  0  0  0  0  0  0
   -1.8510    4.2520    3.1370 C   0  0  0  0  0  0  0  0  0  0  0  0
   -2.1630    3.0980    2.4460 C   0  0  0  0  0  0  0  0  0  0  0  0
   -3.1040    1.8470    3.2760 Cl  0  0  0  0  0  0  0  0  0  0  0  0
    5.8140   -1.5690   -0.6020 S   0  0  0  0  0  0  0  0  0  0  0  0
    5.8490   -2.7110    0.7500 C   0  0  0  0  0  0  0  0  0  0  0  0
    6.6530   -3.6650    0.9400 N   0  0  0  0  0  0  0  0  0  0  0  0
  1  2  2  0
  2  3  1  0
  2 32  1  0
  3  4  2  0
  4  5  1  0
  4 31  1  0
  5  6  1  0
  6  7  1  0
  6  8  1  0
  8  9  2  0
  8 10  1  0
 10 11  1  0
 11 12  2  0
 11 23  1  0
 12 13  1  0
 13 14  1  0
 13 18  2  0
 14 15  1  0
 15 16  1  1
 15 17  1  0
 18 19  1  0
 18 22  1  0
 19 20  1  0
 19 21  2  0
 22 23  2  0
 23 24  1  0
 24 25  2  0
 24 29  1  0
 25 26  1  0
 26 27  2  0
 27 28  1  0
 28 29  2  0
 29 30  1  0
 31 32  1  0
 32 33  2  0
M  CHG  1  33   1
M  END
