
     RDKit          3D

 32 34  0  0  0  0  0  0  0  0999 V2000
   -4.3700   -1.7220    3.2030 C   0  0  0  0  0  0  0  0  0  0  0  0
   -4.2040   -0.8130    2.2690 C   0  0  0  0  0  0  0  0  0  0  0  0
   -4.7460    0.4810    2.4860 O   0  0  0  0  0  0  0  0  0  0  0  0
   -4.2060    1.6870    1.9920 C   0  0  0  0  0  0  0  0  0  0  0  0
   -4.8590    2.8460    2.1050 C   0  0  0  0  0  0  0  0  0  0  0  0
   -4.0130    3.9240    1.4790 C   0  0  0  0  0  0  0  0  0  0  0  0
   -2.8210    3.1790    1.0190 C   0  0  0  0  0  0  0  0  0  0  0  0
   -2.9410    1.8720    1.3220 C   0  0  0  0  0  0  0  0  0  0  0  0
   -1.8950    0.8680    0.9890 C   0  0  0  0  0  0  0  0  0  0  0  0
   -2.4780   -0.3560    0.4060 N   0  0  0  0  0  0  0  0  0  0  0  0
   -2.0010   -0.7040   -0.8880 C   0  0  0  0  0  0  0  0  0  0  0  0
   -0.6140   -1.1970   -0.8530 C   0  0  0  0  0  0  0  0  0  0  0  0
   -0.0590   -1.2320    0.2970 O   0  0  0  0  0  0  0  0  0  0  0  0
    0.1040   -1.6280   -2.0410 N   0  0  0  0  0  0  0  0  0  0  0  0
   -0.5560   -1.5240   -3.2860 C   0  0  0  0  0  0  0  0  0  0  0  0
   -0.5630   -0.2500   -4.0410 C   0  0  0  0  0  0  0  0  0  0  0  0
    0.6340    0.2710   -4.4150 O   0  0  0  0  0  0  0  0  0  0  0  0
    1.3500   -2.2690   -1.7920 C   0  0  0  0  0  0  0  0  0  0  0  0
    2.5860   -1.4770   -1.6590 C   0  0  0  0  0  0  0  0  0  0  0  0
    3.2250   -1.4150   -0.5010 C   0  0  0  0  0  0  0  0  0  0  0  0
    4.4430   -0.6840   -0.2170 C   0  0  2  0  0  0  0  0  0  0  0  0
    4.2200    0.3780    0.8280 C   0  0  0  0  0  0  0  0  0  0  0  0
    3.0580    0.4910    1.2710 O   0  0  0  0  0  0  0  0  0  0  0  0
    5.2140    1.2040    1.3030 O   0  0  0  0  0  0  0  0  0  0  0  0
    4.9540    2.2020    2.3000 C   0  0  0  0  0  0  0  0  0  0  0  0
    6.2540    2.9110    2.5760 C   0  0  0  0  0  0  0  0  0  0  0  0
    5.0920   -0.0540   -1.3800 C   0  0  0  0  0  0  0  0  0  0  0  0
    4.3340   -0.1690   -2.6160 C   0  0  0  0  0  0  0  0  0  0  0  0
    3.1930   -0.8050   -2.7900 C   0  0  0  0  0  0  0  0  0  0  0  0
   -3.4690   -1.1840    1.0580 C   0  0  0  0  0  0  0  0  0  0  0  0
   -3.7850   -2.3240    0.4990 C   0  0  0  0  0  0  0  0  0  0  0  0
   -4.8200   -3.2640    0.9710 C   0  0  0  0  0  0  0  0  0  0  0  0
  1  2  2  0
  2  3  1  0
  2 30  1  0
  3  4  1  0
  4  5  2  0
  4  8  1  0
  5  6  1  0
  6  7  1  0
  7  8  2  0
  8  9  1  0
  9 10  1  0
 10 11  1  0
 10 30  1  0
 11 12  1  0
 12 13  2  0
 12 14  1  0
 14 15  1  0
 14 18  1  0
 15 16  1  0
 16 17  1  0
 18 19  1  0
 19 20  2  0
 19 29  1  0
 20 21  1  0
 21 22  1  1
 21 27  1  0
 22 23  2  0
 22 24  1  0
 24 25  1  0
 25 26  1  0
 27 28  1  0
 28 29  2  0
 30 31  2  3
 31 32  1  0
M  END
