
     RDKit          3D

 32 35  0  0  0  0  0  0  0  0999 V2000
   -4.9160    3.1570   -0.4940 C   0  0  0  0  0  0  0  0  0  0  0  0
   -5.3720    2.0050   -1.1090 O   0  0  0  0  0  0  0  0  0  0  0  0
   -4.6780    0.8600   -0.7170 C   0  0  2  0  0  0  0  0  0  0  0  0
   -3.9380    0.1890   -1.8080 C   0  0  0  0  0  0  0  0  0  0  0  0
   -3.1700   -0.9620   -1.4320 N   0  0  0  0  0  0  0  0  0  0  0  0
   -1.7740   -0.7490   -1.5290 C   0  0  0  0  0  0  0  0  0  0  0  0
   -1.2150   -0.1960   -2.6540 C   0  0  0  0  0  0  0  0  0  0  0  0
    0.1390    0.0200   -2.7700 C   0  0  0  0  0  0  0  0  0  0  0  0
    1.0000   -0.3220   -1.7330 C   0  0  0  0  0  0  0  0  0  0  0  0
    2.4360   -0.0840   -1.8670 C   0  0  0  0  0  0  0  0  0  0  0  0
    2.8880    0.5070   -2.8770 O   0  0  0  0  0  0  0  0  0  0  0  0
    3.3430   -0.5080   -0.8760 N   0  0  0  0  0  0  0  0  0  0  0  0
    4.7750   -0.2720   -1.0050 C   0  0  2  0  0  0  0  0  0  0  0  0
    5.4180   -1.6230   -1.1930 C   0  0  0  0  0  0  0  0  0  0  0  0
    5.8430   -2.2800    0.0760 C   0  0  0  0  0  0  0  0  0  0  0  0
    6.5040   -1.3780    0.9190 O   0  0  0  0  0  0  0  0  0  0  0  0
    6.1190   -0.0550    1.0600 C   0  0  0  0  0  0  0  0  0  0  0  0
    5.3120    0.4620    0.1620 C   0  0  0  0  0  0  0  0  0  0  0  0
    4.9240    1.8570    0.3370 C   0  0  0  0  0  0  0  0  0  0  0  0
    4.0400    2.3730   -0.3920 O   0  0  0  0  0  0  0  0  0  0  0  0
    5.5470    2.7290    1.3740 C   0  0  0  0  0  0  0  0  0  0  0  0
    6.8900    2.1260    1.7690 C   0  0  0  0  0  0  0  0  0  0  0  0
    6.6370    0.7140    2.2190 C   0  0  0  0  0  0  0  0  0  0  0  0
    0.4520   -0.8750   -0.6050 C   0  0  0  0  0  0  0  0  0  0  0  0
   -0.9080   -1.0800   -0.5150 C   0  0  0  0  0  0  0  0  0  0  0  0
   -1.4610   -1.6770    0.7160 C   0  0  0  0  0  0  0  0  0  0  0  0
   -5.5890   -0.0440    0.0620 C   0  0  0  0  0  0  0  0  0  0  0  0
   -5.8800   -1.3650   -0.1850 C   0  0  0  0  0  0  0  0  0  0  0  0
   -6.7650   -1.7390    0.8180 C   0  0  0  0  0  0  0  0  0  0  0  0
   -6.9690   -0.6370    1.6190 C   0  0  0  0  0  0  0  0  0  0  0  0
   -7.8700   -0.6240    2.8280 C   0  0  0  0  0  0  0  0  0  0  0  0
   -6.2610    0.3260    1.1360 O   0  0  0  0  0  0  0  0  0  0  0  0
  1  2  1  0
  2  3  1  0
  3  4  1  6
  3 27  1  0
  4  5  1  0
  5  6  1  0
  6  7  2  0
  6 25  1  0
  7  8  1  0
  8  9  2  0
  9 10  1  0
  9 24  1  0
 10 11  2  0
 10 12  1  0
 13 12  1  1
 13 14  1  0
 13 18  1  0
 14 15  1  0
 15 16  1  0
 16 17  1  0
 17 18  2  0
 17 23  1  0
 18 19  1  0
 19 20  2  0
 19 21  1  0
 21 22  1  0
 22 23  1  0
 24 25  2  0
 25 26  1  0
 27 28  2  0
 27 32  1  0
 28 29  1  0
 29 30  2  0
 30 31  1  0
 30 32  1  0
M  CHG  1   5   1
M  END
