
     RDKit          3D

 32 35  0  0  0  0  0  0  0  0999 V2000
    0.2130   -1.2280   -3.7590 C   0  0  0  0  0  0  0  0  0  0  0  0
   -1.1610   -1.0470   -3.2350 C   0  0  0  0  0  0  0  0  0  0  0  0
   -2.2440   -1.7460   -3.7870 C   0  0  0  0  0  0  0  0  0  0  0  0
   -3.5260   -1.5280   -3.3040 C   0  0  0  0  0  0  0  0  0  0  0  0
   -3.7740   -0.6320   -2.2830 C   0  0  0  0  0  0  0  0  0  0  0  0
   -2.7310    0.0650   -1.7250 C   0  0  0  0  0  0  0  0  0  0  0  0
   -1.4560   -0.1720   -2.2270 C   0  0  0  0  0  0  0  0  0  0  0  0
   -0.3600    0.5650   -1.6380 N   0  0  0  0  0  0  0  0  0  0  0  0
    0.8220   -0.0720   -1.3060 C   0  0  0  0  0  0  0  0  0  0  0  0
    0.9360   -1.2970   -1.1920 O   0  0  0  0  0  0  0  0  0  0  0  0
    2.0430    0.7510   -1.0740 C   0  0  0  0  0  0  0  0  0  0  0  0
    3.1460   -0.1320   -0.7140 C   0  0  0  0  0  0  0  0  0  0  0  0
    3.9260   -0.0730    0.3310 C   0  0  0  0  0  0  0  0  0  0  0  0
    4.9400   -1.0480    0.4770 O   0  0  0  0  0  0  0  0  0  0  0  0
    5.8210   -1.0750    1.5470 C   0  0  0  0  0  0  0  0  0  0  0  0
    6.7950   -2.0340    1.6580 C   0  0  0  0  0  0  0  0  0  0  0  0
    7.6880   -2.1030    2.6960 C   0  0  0  0  0  0  0  0  0  0  0  0
    7.6210   -1.1540    3.7040 C   0  0  0  0  0  0  0  0  0  0  0  0
    6.6420   -0.1820    3.6030 C   0  0  0  0  0  0  0  0  0  0  0  0
    5.7490   -0.1240    2.5520 C   0  0  0  0  0  0  0  0  0  0  0  0
    4.7780    0.8500    2.4620 O   0  0  0  0  0  0  0  0  0  0  0  0
    3.8710    0.9000    1.3860 C   0  0  0  0  0  0  0  0  0  0  0  0
    3.0260    1.8230    1.3900 O   0  0  0  0  0  0  0  0  0  0  0  0
   -0.5760    1.9860   -1.3480 C   0  0  0  0  0  0  0  0  0  0  0  0
   -2.0350    2.2690   -0.9830 C   0  0  0  0  0  0  0  0  0  0  0  0
   -2.8100    1.0320   -0.6470 C   0  0  2  0  0  0  0  0  0  0  0  0
   -2.5760    0.5280    0.6740 N   0  0  0  0  0  0  0  0  0  0  0  0
   -3.3120    1.3700    1.6310 C   0  0  0  0  0  0  0  0  0  0  0  0
   -4.4240    0.6540    2.3140 C   0  0  0  0  0  0  0  0  0  0  0  0
   -5.4150    0.1620    1.2850 C   0  0  0  0  0  0  0  0  0  0  0  0
   -6.5060   -0.5520    1.9820 C   0  0  0  0  0  0  0  0  0  0  0  0
   -6.4830   -0.6710    3.1750 O   0  0  0  0  0  0  0  0  0  0  0  0
  1  2  1  0
  2  3  2  0
  2  7  1  0
  3  4  1  0
  4  5  2  0
  5  6  1  0
  6  7  2  0
  6 26  1  0
  7  8  1  0
  8  9  1  0
  8 24  1  0
  9 10  2  0
  9 11  1  0
 11 12  1  0
 12 13  2  3
 13 14  1  0
 13 22  1  0
 14 15  1  0
 15 16  2  0
 15 20  1  0
 16 17  1  0
 17 18  2  0
 18 19  1  0
 19 20  2  0
 20 21  1  0
 21 22  1  0
 22 23  2  0
 24 25  1  0
 25 26  1  0
 26 27  1  1
 27 28  1  0
 28 29  1  0
 29 30  1  0
 30 31  1  0
 31 32  2  0
M  CHG  1  27   1
M  END
