
     RDKit          3D

 33 35  0  0  0  0  0  0  0  0999 V2000
   -0.3880    3.1370   -0.1620 C   0  0  0  0  0  0  0  0  0  0  0  0
   -1.0870    2.2430    0.7280 N   0  0  0  0  0  0  0  0  0  0  0  0
   -0.4980    1.0720    1.1890 C   0  0  0  0  0  0  0  0  0  0  0  0
   -1.1540    0.3100    1.9580 O   0  0  0  0  0  0  0  0  0  0  0  0
    0.8670    0.6610    0.8230 C   0  0  0  0  0  0  0  0  0  0  0  0
    1.4660   -0.4410    1.2140 C   0  0  0  0  0  0  0  0  0  0  0  0
    2.7890   -0.6860    0.7760 C   0  0  0  0  0  0  0  0  0  0  0  0
    3.5210   -1.7790    1.0810 C   0  0  0  0  0  0  0  0  0  0  0  0
    3.0210   -2.8270    1.9000 C   0  0  0  0  0  0  0  0  0  0  0  0
    1.9280   -2.9090    2.4270 O   0  0  0  0  0  0  0  0  0  0  0  0
    3.3750    0.3460   -0.0890 C   0  0  0  0  0  0  0  0  0  0  0  0
    4.4900    0.5120   -0.6230 N   0  0  0  0  0  0  0  0  0  0  0  0
    5.7180   -0.0920   -0.7230 C   0  0  0  0  0  0  0  0  0  0  0  0
    5.8400   -1.1590   -1.7710 C   0  0  0  0  0  0  0  0  0  0  0  0
    4.9380   -1.5970   -2.6360 C   0  0  0  0  0  0  0  0  0  0  0  0
    5.5440   -2.6590   -3.4580 C   0  0  0  0  0  0  0  0  0  0  0  0
    6.9350   -2.7820   -2.9420 C   0  0  0  0  0  0  0  0  0  0  0  0
    8.1590   -3.8940   -3.5220 Cl  0  0  0  0  0  0  0  0  0  0  0  0
    7.0810   -1.8970   -1.9620 C   0  0  0  0  0  0  0  0  0  0  0  0
    1.9850    1.5300   -0.2360 S   0  0  0  0  0  0  0  0  0  0  0  0
   -2.4250    2.5250    1.1650 C   0  0  0  0  0  0  0  0  0  0  0  0
   -2.6240    3.5790    2.0020 C   0  0  0  0  0  0  0  0  0  0  0  0
   -3.8830    3.9160    2.4860 C   0  0  0  0  0  0  0  0  0  0  0  0
   -4.0820    5.0150    3.3570 N   0  0  0  0  0  0  0  0  0  0  0  0
   -4.9320    3.1100    2.0630 C   0  0  0  0  0  0  0  0  0  0  0  0
   -4.7340    2.0380    1.2120 C   0  0  0  0  0  0  0  0  0  0  0  0
   -3.4960    1.7190    0.7450 C   0  0  0  0  0  0  0  0  0  0  0  0
   -3.2110    0.6520   -0.1410 N   0  0  0  0  0  0  0  0  0  0  0  0
   -4.1170   -0.3230   -0.5980 C   0  0  0  0  0  0  0  0  0  0  0  0
   -5.3150   -0.3230   -0.2340 O   0  0  0  0  0  0  0  0  0  0  0  0
   -3.6610   -1.3680   -1.5200 C   0  0  0  0  0  0  0  0  0  0  0  0
   -4.7450   -2.3530   -1.8800 C   0  0  0  0  0  0  0  0  0  0  0  0
   -5.2510   -3.0230   -0.6800 N   0  0  0  0  0  0  0  0  0  0  0  0
  1  2  1  0
  2  3  1  0
  2 21  1  0
  3  4  2  0
  3  5  1  0
  5  6  2  0
  5 20  1  0
  6  7  1  0
  7  8  2  3
  7 11  1  0
  8  9  1  0
  9 10  2  0
 11 12  2  3
 11 20  1  0
 12 13  1  0
 13 14  1  0
 14 15  2  0
 14 19  1  0
 15 16  1  0
 16 17  1  0
 17 18  1  0
 17 19  2  0
 21 22  2  0
 21 27  1  0
 22 23  1  0
 23 24  1  0
 23 25  2  0
 25 26  1  0
 26 27  2  0
 27 28  1  0
 28 29  1  0
 29 30  2  0
 29 31  1  0
 31 32  1  0
 32 33  1  0
M  CHG  1  33   1
M  END
