
     RDKit          3D

 33 35  0  0  0  0  0  0  0  0999 V2000
    9.0210    1.3700    0.1470 C   0  0  0  0  0  0  0  0  0  0  0  0
    8.6780    0.0270    0.4900 N   0  0  0  0  0  0  0  0  0  0  0  0
    7.6180   -0.1020    1.4410 C   0  0  0  0  0  0  0  0  0  0  0  0
    6.2820    0.3200    0.8680 C   0  0  0  0  0  0  0  0  0  0  0  0
    6.1960    0.0380   -0.5500 N   0  0  2  0  0  0  0  0  0  0  0  0
    4.8280   -0.1860   -0.9700 C   0  0  0  0  0  0  0  0  0  0  0  0
    4.4340   -1.6210   -0.9460 C   0  0  0  0  0  0  0  0  0  0  0  0
    3.0700   -1.7790   -1.3780 N   0  0  0  0  0  0  0  0  0  0  0  0
    1.9490   -1.1840   -0.6920 C   0  0  0  0  0  0  0  0  0  0  0  0
    2.1840   -0.5130    0.3150 O   0  0  0  0  0  0  0  0  0  0  0  0
    0.6350   -1.3620   -1.1510 N   0  0  0  0  0  0  0  0  0  0  0  0
   -0.5480   -0.8250   -0.5730 C   0  0  0  0  0  0  0  0  0  0  0  0
   -1.7920   -1.2430   -1.0260 C   0  0  0  0  0  0  0  0  0  0  0  0
   -2.9730   -0.7510   -0.5130 C   0  0  0  0  0  0  0  0  0  0  0  0
   -2.9940    0.1940    0.4890 C   0  0  0  0  0  0  0  0  0  0  0  0
   -4.1940    0.7110    1.0270 C   0  0  0  0  0  0  0  0  0  0  0  0
   -5.4450    0.2220    0.5050 C   0  0  0  0  0  0  0  0  0  0  0  0
   -6.6450    0.5470    0.8230 C   0  0  0  0  0  0  0  0  0  0  0  0
   -7.8160   -0.1230    0.1150 C   0  0  1  0  0  0  0  0  0  0  0  0
   -7.6550   -1.6210    0.1420 C   0  0  0  0  0  0  0  0  0  0  0  0
   -9.1250    0.2320    0.7520 C   0  0  0  0  0  0  0  0  0  0  0  0
   -7.8620    0.4240   -1.6010 S   0  0  0  0  0  0  0  0  0  0  0  0
   -8.0640    2.1940   -1.7230 C   0  0  0  0  0  0  0  0  0  0  0  0
   -6.5570    0.0070   -2.2670 O   0  0  0  0  0  0  0  0  0  0  0  0
   -4.0800    1.6540    2.0260 C   0  0  0  0  0  0  0  0  0  0  0  0
   -5.4940    2.3700    2.7760 Cl  0  0  0  0  0  0  0  0  0  0  0  0
   -2.8290    2.0480    2.4540 C   0  0  0  0  0  0  0  0  0  0  0  0
   -2.7740    2.9230    3.3810 O   0  0  0  0  0  0  0  0  0  0  0  0
   -1.7290    1.5350    1.9200 N   0  0  0  0  0  0  0  0  0  0  0  0
   -1.7710    0.6120    0.9410 C   0  0  0  0  0  0  0  0  0  0  0  0
   -0.5650    0.1150    0.4240 C   0  0  0  0  0  0  0  0  0  0  0  0
    7.0190   -1.0750   -0.9420 C   0  0  0  0  0  0  0  0  0  0  0  0
    8.4790   -0.8470   -0.6260 C   0  0  0  0  0  0  0  0  0  0  0  0
  1  2  1  0
  2  3  1  0
  2 33  1  0
  3  4  1  0
  4  5  1  0
  5  6  1  1
  5 32  1  0
  6  7  1  0
  7  8  1  0
  8  9  1  0
  9 10  2  0
  9 11  1  0
 11 12  1  0
 12 13  2  0
 12 31  1  0
 13 14  1  0
 14 15  2  0
 15 16  1  0
 15 30  1  0
 16 17  1  0
 16 25  2  0
 17 18  2  3
 18 19  1  0
 19 20  1  6
 19 21  1  0
 19 22  1  0
 22 23  1  1
 22 24  2  0
 25 26  1  0
 25 27  1  0
 27 28  2  0
 27 29  1  0
 29 30  1  0
 30 31  2  0
 32 33  1  0
M  CHG  1   5   1
M  END
