
     RDKit          3D

 33 35  0  0  0  0  0  0  0  0999 V2000
   -9.1340    0.4130   -0.9200 C   0  0  0  0  0  0  0  0  0  0  0  0
   -8.4180    1.5480   -0.3880 N   0  0  0  0  0  0  0  0  0  0  0  0
   -6.9900    1.3340   -0.5210 C   0  0  0  0  0  0  0  0  0  0  0  0
   -6.5200    0.1660    0.2230 C   0  0  0  0  0  0  0  0  0  0  0  0
   -7.4140   -0.5530    0.9170 N   0  0  0  0  0  0  0  0  0  0  0  0
   -7.0980   -1.6290    1.6240 C   0  0  0  0  0  0  0  0  0  0  0  0
   -5.7800   -2.0220    1.6420 C   0  0  0  0  0  0  0  0  0  0  0  0
   -5.3180   -3.4660    2.5840 S   0  0  0  0  0  0  0  0  0  0  0  0
   -4.8240   -1.2880    0.9250 C   0  0  0  0  0  0  0  0  0  0  0  0
   -5.1840   -0.1810    0.2040 C   0  0  0  0  0  0  0  0  0  0  0  0
   -4.2880    0.6020   -0.5360 N   0  0  0  0  0  0  0  0  0  0  0  0
   -2.8940    0.3940   -0.6640 C   0  0  0  0  0  0  0  0  0  0  0  0
   -2.3440   -0.5570   -0.0910 O   0  0  0  0  0  0  0  0  0  0  0  0
   -2.1470    1.3690   -1.5130 C   0  0  0  0  0  0  0  0  0  0  0  0
   -0.7500    1.0770   -1.5790 N   0  0  0  0  0  0  0  0  0  0  0  0
    0.1080    1.0340   -0.4550 C   0  0  0  0  0  0  0  0  0  0  0  0
   -0.3640    1.2640    0.6790 O   0  0  0  0  0  0  0  0  0  0  0  0
    1.5260    0.7200   -0.6650 C   0  0  0  0  0  0  0  0  0  0  0  0
    1.9370    0.5000   -1.8190 O   0  0  0  0  0  0  0  0  0  0  0  0
    2.4320    0.6630    0.4190 N   0  0  0  0  0  0  0  0  0  0  0  0
    3.8230    0.3780    0.3650 C   0  0  0  0  0  0  0  0  0  0  0  0
    4.5180    0.1550    1.5550 C   0  0  0  0  0  0  0  0  0  0  0  0
    5.8530   -0.1090    1.5290 C   0  0  0  0  0  0  0  0  0  0  0  0
    6.5770   -0.1680    0.3570 C   0  0  0  0  0  0  0  0  0  0  0  0
    8.0010   -0.4520    0.4440 C   0  0  0  0  0  0  0  0  0  0  0  0
    8.5330   -1.4240   -0.3870 C   0  0  0  0  0  0  0  0  0  0  0  0
    9.8760   -1.7650   -0.3690 C   0  0  0  0  0  0  0  0  0  0  0  0
   10.7190   -1.1130    0.5100 C   0  0  0  0  0  0  0  0  0  0  0  0
   10.2070   -0.1480    1.3390 C   0  0  0  0  0  0  0  0  0  0  0  0
    8.8600    0.1830    1.3100 C   0  0  0  0  0  0  0  0  0  0  0  0
    8.2060    1.4210    2.3610 Cl  0  0  0  0  0  0  0  0  0  0  0  0
    5.9100    0.0470   -0.7990 C   0  0  0  0  0  0  0  0  0  0  0  0
    4.5500    0.3160   -0.7900 C   0  0  0  0  0  0  0  0  0  0  0  0
  1  2  1  0
  2  3  1  0
  3  4  1  0
  4  5  2  0
  4 10  1  0
  5  6  1  0
  6  7  2  0
  7  8  1  0
  7  9  1  0
  9 10  2  0
 10 11  1  0
 11 12  1  0
 12 13  2  0
 12 14  1  0
 14 15  1  0
 15 16  1  0
 16 17  2  0
 16 18  1  0
 18 19  2  0
 18 20  1  0
 20 21  1  0
 21 22  2  0
 21 33  1  0
 22 23  1  0
 23 24  2  0
 24 25  1  0
 24 32  1  0
 25 26  2  0
 25 30  1  0
 26 27  1  0
 27 28  2  0
 28 29  1  0
 29 30  2  0
 30 31  1  0
 32 33  2  0
M  CHG  1   2   1
M  END
