
     RDKit          3D

 22 24  0  0  0  0  0  0  0  0999 V2000
    5.7140   -1.9000   -0.3060 C   0  0  0  0  0  0  0  0  0  0  0  0
    5.1710   -0.6400   -0.5780 O   0  0  0  0  0  0  0  0  0  0  0  0
    3.8310   -0.3710   -0.3700 C   0  0  0  0  0  0  0  0  0  0  0  0
    3.0160   -1.3520    0.1060 C   0  0  0  0  0  0  0  0  0  0  0  0
    1.6670   -1.0390    0.3020 C   0  0  0  0  0  0  0  0  0  0  0  0
    1.1620    0.2060    0.0310 C   0  0  0  0  0  0  0  0  0  0  0  0
   -0.2450    0.4900    0.2470 C   0  0  0  0  0  0  0  0  0  0  0  0
   -1.2370   -0.3250   -0.0400 C   0  0  0  0  0  0  0  0  0  0  0  0
   -1.2220   -1.6730   -0.6280 C   0  0  0  0  0  0  0  0  0  0  0  0
   -2.5340   -1.7150   -1.3030 N   0  0  0  0  0  0  0  0  0  0  0  0
   -3.4240   -0.8660   -0.5740 C   0  0  0  0  0  0  0  0  0  0  0  0
   -4.8160   -0.7700   -0.5260 C   0  0  0  0  0  0  0  0  0  0  0  0
   -5.4630    0.1540    0.2760 C   0  0  0  0  0  0  0  0  0  0  0  0
   -6.9430    0.2320    0.3100 C   0  0  0  0  0  0  0  0  0  0  0  0
   -4.6710    0.9910    1.0360 C   0  0  0  0  0  0  0  0  0  0  0  0
   -3.2960    0.9050    0.9940 C   0  0  0  0  0  0  0  0  0  0  0  0
   -2.6640   -0.0240    0.1890 C   0  0  0  0  0  0  0  0  0  0  0  0
    2.0360    1.1540   -0.4480 C   0  0  0  0  0  0  0  0  0  0  0  0
    1.4980    2.4070   -0.7150 O   0  0  0  0  0  0  0  0  0  0  0  0
    3.3660    0.9100   -0.6610 C   0  0  0  0  0  0  0  0  0  0  0  0
    4.2500    1.8290   -1.1330 O   0  0  0  0  0  0  0  0  0  0  0  0
    5.0260    2.6980   -0.3660 C   0  0  0  0  0  0  0  0  0  0  0  0
  1  2  1  0
  2  3  1  0
  3  4  2  0
  3 20  1  0
  4  5  1  0
  5  6  2  0
  6  7  1  0
  6 18  1  0
  7  8  2  3
  8  9  1  0
  8 17  1  0
  9 10  1  0
 10 11  1  0
 11 12  2  0
 11 17  1  0
 12 13  1  0
 13 14  1  0
 13 15  2  0
 15 16  1  0
 16 17  2  0
 18 19  1  0
 18 20  2  0
 20 21  1  0
 21 22  1  0
M  END
