
     RDKit          3D

 22 25  0  0  0  0  0  0  0  0999 V2000
   -1.8320    2.0660    0.5700 C   0  0  0  0  0  0  0  0  0  0  0  0
   -2.4130    0.7360    0.2440 C   0  0  0  0  0  0  0  0  0  0  0  0
   -1.7150   -0.4310    0.0560 C   0  0  0  0  0  0  0  0  0  0  0  0
   -0.2730   -0.6120    0.1360 C   0  0  0  0  0  0  0  0  0  0  0  0
    0.2580   -1.7360   -0.0560 O   0  0  0  0  0  0  0  0  0  0  0  0
    0.5920    0.4390    0.4280 O   0  0  0  0  0  0  0  0  0  0  0  0
    1.9710    0.2660    0.5040 C   0  0  0  0  0  0  0  0  0  0  0  0
    2.6600   -0.0440    1.5670 C   0  0  0  0  0  0  0  0  0  0  0  0
    4.0720   -0.1200    1.1840 C   0  0  1  0  0  0  0  0  0  0  0  0
    4.5830   -1.5110    1.3790 C   0  0  0  0  0  0  0  0  0  0  0  0
    4.0910    0.1960   -0.2720 C   0  0  0  0  0  0  0  0  0  0  0  0
    2.8530    0.4240   -0.6690 C   0  0  0  0  0  0  0  0  0  0  0  0
    2.8880    0.7340   -2.1060 C   0  0  0  0  0  0  0  0  0  0  0  0
    4.3080    0.6520   -2.4660 C   0  0  0  0  0  0  0  0  0  0  0  0
    4.9930    0.3420   -1.4050 C   0  0  0  0  0  0  0  0  0  0  0  0
   -2.5910   -1.4060   -0.2200 N   0  0  0  0  0  0  0  0  0  0  0  0
   -3.8560   -0.9040   -0.2180 C   0  0  0  0  0  0  0  0  0  0  0  0
   -3.7410    0.4250    0.0700 C   0  0  0  0  0  0  0  0  0  0  0  0
   -5.0760    1.0280    0.0880 C   0  0  0  0  0  0  0  0  0  0  0  0
   -5.3350    2.2370   -0.0270 O   0  0  0  0  0  0  0  0  0  0  0  0
   -6.0120   -0.1270    0.2720 C   0  0  0  0  0  0  0  0  0  0  0  0
   -5.2820   -1.2560   -0.4100 C   0  0  0  0  0  0  0  0  0  0  0  0
  1  2  1  0
  2  3  2  0
  2 18  1  0
  3  4  1  0
  3 16  1  0
  4  5  2  0
  4  6  1  0
  6  7  1  0
  7  8  2  0
  7 12  1  0
  8  9  1  0
  9 10  1  6
  9 11  1  0
 11 12  2  0
 11 15  1  0
 12 13  1  0
 13 14  1  0
 14 15  2  0
 16 17  1  0
 17 18  2  0
 17 22  1  0
 18 19  1  0
 19 20  2  0
 19 21  1  0
 21 22  1  0
M  END
