
     RDKit          3D

 22 24  0  0  0  0  0  0  0  0999 V2000
    5.6920    3.3530   -1.9450 C   0  0  0  0  0  0  0  0  0  0  0  0
    4.2820    3.0060   -1.5380 C   0  0  0  0  0  0  0  0  0  0  0  0
    3.2370    3.8900   -1.3800 C   0  0  0  0  0  0  0  0  0  0  0  0
    2.1370    3.1510   -1.0040 C   0  0  0  0  0  0  0  0  0  0  0  0
    2.5540    1.8420   -0.9470 C   0  0  0  0  0  0  0  0  0  0  0  0
    1.6900    0.6870   -0.5790 C   0  0  0  0  0  0  0  0  0  0  0  0
    2.1420   -0.5240   -0.5430 C   0  0  0  0  0  0  0  0  0  0  0  0
    1.5010   -1.7260   -0.2200 C   0  0  0  0  0  0  0  0  0  0  0  0
    2.3010   -2.7890   -0.4360 O   0  0  0  0  0  0  0  0  0  0  0  0
    0.2410   -2.1350    0.2960 C   0  0  0  0  0  0  0  0  0  0  0  0
   -0.8270   -1.7090    0.8100 C   0  0  0  0  0  0  0  0  0  0  0  0
   -1.8830   -2.8380    1.1310 C   0  0  0  0  0  0  0  0  0  0  0  0
   -3.1260   -2.3400    0.5250 N   0  0  0  0  0  0  0  0  0  0  0  0
   -4.2630   -3.0780    0.3030 C   0  0  0  0  0  0  0  0  0  0  0  0
   -5.2140   -2.2800   -0.2840 C   0  0  0  0  0  0  0  0  0  0  0  0
   -4.6380   -1.0370   -0.4190 C   0  0  0  0  0  0  0  0  0  0  0  0
   -3.3380   -1.1090    0.0960 C   0  0  0  0  0  0  0  0  0  0  0  0
   -2.3420   -0.0120    0.1700 C   0  0  0  0  0  0  0  0  0  0  0  0
   -1.3750   -0.4460    1.2690 C   0  0  2  0  0  0  0  0  0  0  0  0
   -0.5280    0.5590    1.8900 C   0  0  0  0  0  0  0  0  0  0  0  0
   -2.3460   -0.8190    2.3350 O   0  0  0  0  0  0  0  0  0  0  0  0
    3.8100    1.8150   -1.2670 O   0  0  0  0  0  0  0  0  0  0  0  0
  1  2  1  0
  2  3  2  0
  2 22  1  0
  3  4  1  0
  4  5  2  0
  5  6  1  0
  5 22  1  0
  6  7  2  3
  7  8  1  0
  8  9  2  0
  8 10  1  0
 10 11  2  3
 11 12  1  0
 11 19  1  0
 12 13  1  0
 13 14  1  0
 13 17  1  0
 14 15  2  0
 15 16  1  0
 16 17  2  0
 17 18  1  0
 18 19  1  0
 19 20  1  1
 19 21  1  0
M  END
