
     RDKit          3D

 22 24  0  0  0  0  0  0  0  0999 V2000
   -3.4920    3.0110    1.8430 C   0  0  0  0  0  0  0  0  0  0  0  0
   -3.0610    2.5860    0.6580 C   0  0  0  0  0  0  0  0  0  0  0  0
   -3.1270    1.1580    0.2600 C   0  0  0  0  0  0  0  0  0  0  0  0
   -1.8250    0.6180   -0.0290 O   0  0  0  0  0  0  0  0  0  0  0  0
   -1.7610   -0.7180   -0.4510 C   0  0  0  0  0  0  0  0  0  0  0  0
   -2.9240   -1.4760   -0.5590 C   0  0  0  0  0  0  0  0  0  0  0  0
   -2.8840   -2.7900   -0.9810 C   0  0  0  0  0  0  0  0  0  0  0  0
   -4.0540   -3.5680   -1.0920 O   0  0  0  0  0  0  0  0  0  0  0  0
   -1.6550   -3.3170   -1.2890 C   0  0  0  0  0  0  0  0  0  0  0  0
   -0.5040   -2.5700   -1.1810 C   0  0  0  0  0  0  0  0  0  0  0  0
   -0.5300   -1.2290   -0.7500 C   0  0  0  0  0  0  0  0  0  0  0  0
    0.7440   -0.5590   -0.5640 C   0  0  0  0  0  0  0  0  0  0  0  0
    1.2340   -0.1810    0.6690 C   0  0  0  0  0  0  0  0  0  0  0  0
    2.5140    0.3650    0.7550 C   0  0  0  0  0  0  0  0  0  0  0  0
    3.0420    0.7330    1.9840 C   0  0  0  0  0  0  0  0  0  0  0  0
    4.3200    1.2540    2.0640 C   0  0  0  0  0  0  0  0  0  0  0  0
    5.1010    1.4220    0.9290 C   0  0  0  0  0  0  0  0  0  0  0  0
    4.5700    1.0540   -0.2850 C   0  0  0  0  0  0  0  0  0  0  0  0
    3.2780    0.5280   -0.3600 C   0  0  0  0  0  0  0  0  0  0  0  0
    2.8070    0.1620   -1.5720 N   0  0  0  0  0  0  0  0  0  0  0  0
    1.5790   -0.3610   -1.6430 C   0  0  0  0  0  0  0  0  0  0  0  0
    1.1670   -0.6950   -2.8050 O   0  0  0  0  0  0  0  0  0  0  0  0
  1  2  2  0
  2  3  1  0
  3  4  1  0
  4  5  1  0
  5  6  2  0
  5 11  1  0
  6  7  1  0
  7  8  1  0
  7  9  2  0
  9 10  1  0
 10 11  2  0
 11 12  1  0
 12 13  2  0
 12 21  1  0
 13 14  1  0
 14 15  2  0
 14 19  1  0
 15 16  1  0
 16 17  2  0
 17 18  1  0
 18 19  2  0
 19 20  1  0
 20 21  1  0
 21 22  2  0
M  END
