
     RDKit          3D

 25 25  0  0  0  0  0  0  0  0999 V2000
    5.2140    2.9890    1.0980 C   0  0  0  0  0  0  0  0  0  0  0  0
    4.9170    1.6160    1.0730 O   0  0  0  0  0  0  0  0  0  0  0  0
    3.9170    1.1400    0.2410 C   0  0  0  0  0  0  0  0  0  0  0  0
    3.3040    2.0020   -0.4760 O   0  0  0  0  0  0  0  0  0  0  0  0
    3.5380   -0.2900    0.1500 C   0  0  1  0  0  0  0  0  0  0  0  0
    2.4670   -0.4460   -0.8070 N   0  0  0  0  0  0  0  0  0  0  0  0
    1.1590   -0.8870   -0.4170 C   0  0  0  0  0  0  0  0  0  0  0  0
    0.9680   -1.1360    0.7940 O   0  0  0  0  0  0  0  0  0  0  0  0
    0.1350   -1.0310   -1.3700 N   0  0  0  0  0  0  0  0  0  0  0  0
   -1.1670   -1.4790   -0.9050 N   0  0  0  0  0  0  0  0  0  0  0  0
   -2.0240   -0.5230   -0.3780 C   0  0  0  0  0  0  0  0  0  0  0  0
   -1.4460    0.6680   -0.4210 O   0  0  0  0  0  0  0  0  0  0  0  0
   -3.3280   -0.4940    0.1850 C   0  0  0  0  0  0  0  0  0  0  0  0
   -4.0790   -1.5470    0.3520 C   0  0  0  0  0  0  0  0  0  0  0  0
   -3.4360   -2.8000   -0.1020 C   0  0  0  0  0  0  0  0  0  0  0  0
   -5.4430   -1.8130    0.8850 C   0  0  0  0  0  0  0  0  0  0  0  0
   -6.5630   -1.1750    0.9710 N   0  0  0  0  0  0  0  0  0  0  0  0
   -6.9750    0.1420    0.5600 C   0  0  0  0  0  0  0  0  0  0  0  0
   -6.2490    1.2400    0.4220 C   0  0  0  0  0  0  0  0  0  0  0  0
   -4.8410    1.5740    0.6080 C   0  0  0  0  0  0  0  0  0  0  0  0
   -4.6270    3.0100    0.9700 C   0  0  0  0  0  0  0  0  0  0  0  0
   -3.6880    0.9430    0.5280 C   0  0  0  0  0  0  0  0  0  0  0  0
    4.7380   -1.1530   -0.2040 C   0  0  2  0  0  0  0  0  0  0  0  0
    5.8050   -1.0040    0.8670 C   0  0  0  0  0  0  0  0  0  0  0  0
    5.2960   -0.6540   -1.5080 C   0  0  0  0  0  0  0  0  0  0  0  0
  1  2  1  0
  2  3  1  0
  3  4  2  0
  3  5  1  0
  5  6  1  6
  5 23  1  0
  6  7  1  0
  7  8  2  0
  7  9  1  0
  9 10  1  0
 10 11  1  0
 11 12  2  0
 11 13  1  0
 13 14  2  0
 13 22  1  0
 14 15  1  0
 14 16  1  0
 16 17  2  0
 17 18  1  0
 18 19  2  0
 19 20  1  0
 20 21  1  0
 20 22  2  0
 23 24  1  1
 23 25  1  0
M  END
