
     RDKit          3D

 25 26  0  0  0  0  0  0  0  0999 V2000
   -7.4460    0.2210   -0.7340 C   0  0  0  0  0  0  0  0  0  0  0  0
   -6.5620   -0.9160   -0.6810 N   0  0  0  0  0  0  0  0  0  0  0  0
   -5.3570   -0.8250    0.0630 C   0  0  0  0  0  0  0  0  0  0  0  0
   -4.2550   -0.3540   -0.4900 C   0  0  0  0  0  0  0  0  0  0  0  0
   -4.3370    0.0770   -1.9280 C   0  0  0  0  0  0  0  0  0  0  0  0
   -3.1540   -0.3760   -2.5860 O   0  0  0  0  0  0  0  0  0  0  0  0
   -1.9090   -0.2680   -1.9160 C   0  0  0  0  0  0  0  0  0  0  0  0
   -0.9220   -0.2420   -2.6910 O   0  0  0  0  0  0  0  0  0  0  0  0
   -1.8100   -0.1960   -0.4790 C   0  0  0  0  0  0  0  0  0  0  0  0
   -0.6450   -0.0980    0.2660 N   0  0  0  0  0  0  0  0  0  0  0  0
    0.7020   -0.0340   -0.1600 C   0  0  0  0  0  0  0  0  0  0  0  0
    0.9580   -0.0650   -1.3730 O   0  0  0  0  0  0  0  0  0  0  0  0
    1.7840    0.0650    0.7530 N   0  0  0  0  0  0  0  0  0  0  0  0
    3.1480    0.1330    0.3990 C   0  0  0  0  0  0  0  0  0  0  0  0
    3.6750    0.1200   -0.8450 C   0  0  0  0  0  0  0  0  0  0  0  0
    5.0570    0.1970   -1.0110 C   0  0  0  0  0  0  0  0  0  0  0  0
    5.6020    0.1820   -2.3520 C   0  0  0  0  0  0  0  0  0  0  0  0
    6.8340    0.2470   -2.5890 O   0  0  0  0  0  0  0  0  0  0  0  0
    5.8970    0.2860    0.0710 C   0  0  0  0  0  0  0  0  0  0  0  0
    7.3730    0.3670   -0.1200 C   0  0  0  0  0  0  0  0  0  0  0  0
    5.3380    0.2960    1.3010 N   0  0  0  0  0  0  0  0  0  0  0  0
    4.0270    0.2250    1.4930 C   0  0  0  0  0  0  0  0  0  0  0  0
    3.5130    0.2440    2.9050 C   0  0  0  0  0  0  0  0  0  0  0  0
   -2.9820   -0.2390    0.2010 C   0  0  0  0  0  0  0  0  0  0  0  0
   -3.0200   -0.1530    1.6820 C   0  0  0  0  0  0  0  0  0  0  0  0
  1  2  1  0
  2  3  1  0
  3  4  2  3
  4  5  1  0
  4 24  1  0
  5  6  1  0
  6  7  1  0
  7  8  2  0
  7  9  1  0
  9 10  1  0
  9 24  2  0
 10 11  1  0
 11 12  2  0
 11 13  1  0
 13 14  1  0
 14 15  2  0
 14 22  1  0
 15 16  1  0
 16 17  1  0
 16 19  2  0
 17 18  2  0
 19 20  1  0
 19 21  1  0
 21 22  2  0
 22 23  1  0
 24 25  1  0
M  END
