
     RDKit          3D

 25 26  0  0  0  0  0  0  0  0999 V2000
    4.8910   -3.6760   -0.0570 C   0  0  0  0  0  0  0  0  0  0  0  0
    4.4740   -2.2710   -0.2080 C   0  0  0  0  0  0  0  0  0  0  0  0
    4.5820   -1.6850   -1.4120 C   0  0  0  0  0  0  0  0  0  0  0  0
    4.2390   -0.3360   -1.7930 C   0  0  0  0  0  0  0  0  0  0  0  0
    4.1360    0.7620   -0.9910 C   0  0  0  0  0  0  0  0  0  0  0  0
    3.7650    1.9820   -1.7030 C   0  0  0  0  0  0  0  0  0  0  0  0
    2.4620    2.5800   -1.1810 C   0  0  0  0  0  0  0  0  0  0  0  0
    1.4400    1.5870   -1.2250 N   0  0  0  0  0  0  0  0  0  0  0  0
    0.0710    1.8090   -0.7810 C   0  0  0  0  0  0  0  0  0  0  0  0
   -0.3020    2.8640   -0.4340 O   0  0  0  0  0  0  0  0  0  0  0  0
   -0.6270    0.4930   -0.8530 N   0  0  0  0  0  0  0  0  0  0  0  0
   -2.0480    0.9610    0.0220 C   0  0  0  0  0  0  0  0  0  0  0  0
   -2.0330    2.0420    0.4100 O   0  0  0  0  0  0  0  0  0  0  0  0
   -2.9690   -0.0630    0.1100 N   0  0  0  0  0  0  0  0  0  0  0  0
   -2.8330   -1.3910   -0.5200 C   0  0  0  0  0  0  0  0  0  0  0  0
   -4.1430    0.1860    0.9510 C   0  0  2  0  0  0  0  0  0  0  0  0
   -4.4130   -0.9200    1.8830 C   0  0  0  0  0  0  0  0  0  0  0  0
   -5.7800   -1.4400    1.5490 C   0  0  0  0  0  0  0  0  0  0  0  0
   -6.5000   -0.2300    0.9990 C   0  0  0  0  0  0  0  0  0  0  0  0
   -5.3970    0.3470    0.0830 C   0  0  2  0  0  0  0  0  0  0  0  0
   -5.3180   -0.2770   -1.1250 O   0  0  0  0  0  0  0  0  0  0  0  0
    4.3610    0.7860    0.4390 C   0  0  0  0  0  0  0  0  0  0  0  0
    4.7360    2.0920    1.0550 C   0  0  0  0  0  0  0  0  0  0  0  0
    4.2770   -0.2600    1.2470 N   0  0  0  0  0  0  0  0  0  0  0  0
    3.9640   -1.5830    0.9280 O   0  0  0  0  0  0  0  0  0  0  0  0
  1  2  1  0
  2  3  2  0
  2 25  1  0
  3  4  1  0
  4  5  2  0
  5  6  1  0
  5 22  1  0
  6  7  1  0
  7  8  1  0
  8  9  1  0
  9 10  2  0
  9 11  1  0
 11 12  1  0
 12 13  2  0
 12 14  1  0
 14 15  1  0
 16 14  1  6
 16 17  1  0
 16 20  1  0
 17 18  1  0
 18 19  1  0
 19 20  1  0
 20 21  1  6
 22 23  1  0
 22 24  2  0
 24 25  1  0
M  END
