
     RDKit          3D

 26 29  0  0  0  0  0  0  0  0999 V2000
    0.5020    0.6830    0.2050 O   0  0  0  0  0  0  0  0  0  0  0  0
    0.4560   -0.4540    0.7420 C   0  0  0  0  0  0  0  0  0  0  0  0
   -0.9000   -1.0710    0.9300 C   0  0  0  0  0  0  0  0  0  0  0  0
   -1.9670   -0.1550    0.4110 C   0  0  1  0  0  0  0  0  0  0  0  0
   -1.8220    0.1460   -1.0220 C   0  0  0  0  0  0  0  0  0  0  0  0
   -1.3650   -0.8190   -1.9230 C   0  0  0  0  0  0  0  0  0  0  0  0
   -1.2330   -0.5250   -3.2650 C   0  0  0  0  0  0  0  0  0  0  0  0
   -1.5410    0.7170   -3.7670 C   0  0  0  0  0  0  0  0  0  0  0  0
   -1.9960    1.6770   -2.8690 C   0  0  0  0  0  0  0  0  0  0  0  0
   -2.1270    1.3850   -1.5380 C   0  0  0  0  0  0  0  0  0  0  0  0
   -3.3000   -0.6750    0.7630 C   0  0  0  0  0  0  0  0  0  0  0  0
   -4.3280    0.1720    1.1260 C   0  0  0  0  0  0  0  0  0  0  0  0
   -5.5900   -0.2680    1.4630 C   0  0  0  0  0  0  0  0  0  0  0  0
   -5.8590   -1.6230    1.4420 C   0  0  0  0  0  0  0  0  0  0  0  0
   -4.8540   -2.5000    1.0830 C   0  0  0  0  0  0  0  0  0  0  0  0
   -3.5980   -2.0330    0.7500 C   0  0  0  0  0  0  0  0  0  0  0  0
    1.6370   -1.0870    1.1340 N   0  0  0  0  0  0  0  0  0  0  0  0
    2.8750   -0.3440    0.8770 C   0  0  0  0  0  0  0  0  0  0  0  0
    3.3080    0.6270    0.4500 N   0  0  0  0  0  0  0  0  0  0  0  0
    4.5490    1.0430    0.3490 C   0  0  0  0  0  0  0  0  0  0  0  0
    5.0870    2.2290   -0.1730 C   0  0  0  0  0  0  0  0  0  0  0  0
    6.4260    2.4910   -0.1930 C   0  0  0  0  0  0  0  0  0  0  0  0
    7.3470    1.5990    0.3030 C   0  0  0  0  0  0  0  0  0  0  0  0
    6.8530    0.3930    0.8380 C   0  0  0  0  0  0  0  0  0  0  0  0
    5.5040    0.1750    0.8360 C   0  0  0  0  0  0  0  0  0  0  0  0
    4.4590   -1.2070    1.4110 S   0  0  0  0  0  0  0  0  0  0  0  0
  1  2  2  0
  2  3  1  0
  2 17  1  0
  4  3  1  6
  4  5  1  0
  4 11  1  0
  5  6  2  0
  5 10  1  0
  6  7  1  0
  7  8  2  0
  8  9  1  0
  9 10  2  0
 11 12  2  0
 11 16  1  0
 12 13  1  0
 13 14  2  0
 14 15  1  0
 15 16  2  0
 17 18  1  0
 18 19  2  0
 18 26  1  0
 19 20  1  0
 20 21  2  0
 20 25  1  0
 21 22  1  0
 22 23  2  0
 23 24  1  0
 24 25  2  0
 25 26  1  0
M  END
