
     RDKit          3D

 25 26  0  0  0  0  0  0  0  0999 V2000
   -3.4860   -1.9160    1.8070 C   0  0  0  0  0  0  0  0  0  0  0  0
   -3.9230   -0.9680    1.0450 C   0  0  0  0  0  0  0  0  0  0  0  0
   -5.2690   -0.9060    0.4010 C   0  0  0  0  0  0  0  0  0  0  0  0
   -5.3310    0.5060    0.0720 N   0  0  0  0  0  0  0  0  0  0  0  0
   -4.0350    1.0870    0.0960 C   0  0  0  0  0  0  0  0  0  0  0  0
   -3.7430    2.3540   -0.4090 O   0  0  0  0  0  0  0  0  0  0  0  0
   -3.9920    2.6730   -1.7680 C   0  0  0  0  0  0  0  0  0  0  0  0
   -3.1890    0.2280    0.6680 C   0  0  0  0  0  0  0  0  0  0  0  0
   -1.7700    0.4730    0.8720 C   0  0  0  0  0  0  0  0  0  0  0  0
   -0.8520   -0.4960    0.1730 C   0  0  0  0  0  0  0  0  0  0  0  0
    0.5670   -0.0780    0.5040 C   0  0  2  0  0  0  0  0  0  0  0  0
    0.8430    1.3510    0.0200 C   0  0  0  0  0  0  0  0  0  0  0  0
    2.0980    1.2440   -0.6950 N   0  0  0  0  0  0  0  0  0  0  0  0
    3.1270    2.1870   -0.7660 C   0  0  0  0  0  0  0  0  0  0  0  0
    4.1800    1.9940   -1.4160 O   0  0  0  0  0  0  0  0  0  0  0  0
    3.0100    3.4040   -0.0970 O   0  0  0  0  0  0  0  0  0  0  0  0
    4.0580    4.3710   -0.1670 C   0  0  0  0  0  0  0  0  0  0  0  0
    5.3260    3.7800    0.3880 C   0  0  0  0  0  0  0  0  0  0  0  0
    2.0470   -0.0640   -1.3200 C   0  0  0  0  0  0  0  0  0  0  0  0
    1.6040   -0.9140   -0.1590 C   0  0  2  0  0  0  0  0  0  0  0  0
    1.1840   -2.2240   -0.5310 N   0  0  0  0  0  0  0  0  0  0  0  0
    1.7910   -3.4210   -0.0820 C   0  0  0  0  0  0  0  0  0  0  0  0
    2.7690   -3.3090    0.7010 O   0  0  0  0  0  0  0  0  0  0  0  0
    1.3820   -4.7140   -0.4450 N   0  0  0  0  0  0  0  0  0  0  0  0
    2.0620   -5.9140    0.0630 C   0  0  0  0  0  0  0  0  0  0  0  0
  1  2  2  0
  2  3  1  0
  2  8  1  0
  3  4  1  0
  4  5  1  0
  5  6  1  0
  5  8  2  0
  6  7  1  0
  8  9  1  0
  9 10  1  0
 11 10  1  6
 11 12  1  0
 11 20  1  0
 12 13  1  0
 13 14  1  0
 13 19  1  0
 14 15  2  0
 14 16  1  0
 16 17  1  0
 17 18  1  0
 19 20  1  0
 20 21  1  6
 21 22  1  0
 22 23  2  0
 22 24  1  0
 24 25  1  0
M  END
