
     RDKit          3D

 25 27  0  0  0  0  0  0  0  0999 V2000
   -1.8520   -3.3780   -0.8450 C   0  0  0  0  0  0  0  0  0  0  0  0
   -1.2610   -1.9790   -1.0230 C   0  0  0  0  0  0  0  0  0  0  0  0
   -1.4770   -1.2500    0.2560 C   0  0  0  0  0  0  0  0  0  0  0  0
   -0.9140    0.1620    0.2950 C   0  0  2  0  0  0  0  0  0  0  0  0
   -1.6090    0.8970   -0.8130 C   0  0  0  0  0  0  0  0  0  0  0  0
   -3.0910    0.8210   -0.4780 C   0  0  0  0  0  0  0  0  0  0  0  0
   -4.0650    0.2900   -1.1940 C   0  0  0  0  0  0  0  0  0  0  0  0
   -5.3620    0.4250   -0.5070 C   0  0  0  0  0  0  0  0  0  0  0  0
   -5.0000    1.1310    0.7480 C   0  0  0  0  0  0  0  0  0  0  0  0
   -3.6940    1.3460    0.7410 C   0  0  0  0  0  0  0  0  0  0  0  0
    0.4970    0.2270    0.3610 N   0  0  0  0  0  0  0  0  0  0  0  0
    1.2370   -0.8480    0.6720 C   0  0  0  0  0  0  0  0  0  0  0  0
    0.7950   -1.9950    0.9310 O   0  0  0  0  0  0  0  0  0  0  0  0
    2.5870   -0.7550    0.7310 N   0  0  0  0  0  0  0  0  0  0  0  0
    3.2780    0.3580    0.4990 C   0  0  0  0  0  0  0  0  0  0  0  0
    2.5400    1.4710    0.1800 C   0  0  0  0  0  0  0  0  0  0  0  0
    3.1960    2.6720   -0.0760 C   0  0  0  0  0  0  0  0  0  0  0  0
    2.5470    3.7050   -0.3690 O   0  0  0  0  0  0  0  0  0  0  0  0
    4.5380    2.6560    0.0100 N   0  0  0  0  0  0  0  0  0  0  0  0
    5.2270    1.5530    0.3230 C   0  0  0  0  0  0  0  0  0  0  0  0
    6.4850    1.5630    0.3970 O   0  0  0  0  0  0  0  0  0  0  0  0
    4.6120    0.3780    0.5750 N   0  0  0  0  0  0  0  0  0  0  0  0
    5.3310   -0.8290    0.9160 C   0  0  0  0  0  0  0  0  0  0  0  0
    1.1560    1.3730    0.1200 C   0  0  0  0  0  0  0  0  0  0  0  0
    0.5790    2.4720   -0.1820 O   0  0  0  0  0  0  0  0  0  0  0  0
  1  2  1  0
  2  3  1  0
  4  3  1  6
  4  5  1  0
  4 11  1  0
  5  6  1  0
  6  7  2  0
  6 10  1  0
  7  8  1  0
  8  9  1  0
  9 10  2  0
 11 12  1  0
 11 24  1  0
 12 13  2  0
 12 14  1  0
 14 15  1  0
 15 16  2  0
 15 22  1  0
 16 17  1  0
 16 24  1  0
 17 18  2  0
 17 19  1  0
 19 20  1  0
 20 21  2  0
 20 22  1  0
 22 23  1  0
 24 25  2  0
M  END
