
     RDKit          3D

 21 24  0  0  0  0  0  0  0  0999 V2000
   -1.7000    1.6670   -0.3420 O   0  0  0  0  0  0  0  0  0  0  0  0
   -1.3120    0.5380    0.0440 C   0  0  0  0  0  0  0  0  0  0  0  0
   -2.1820   -0.4230    0.3830 N   0  0  0  0  0  0  0  0  0  0  0  0
   -3.5970   -0.3730    0.3770 C   0  0  0  0  0  0  0  0  0  0  0  0
   -4.2330    0.8060    0.6740 C   0  0  0  0  0  0  0  0  0  0  0  0
   -5.6120    0.8960    0.6790 C   0  0  0  0  0  0  0  0  0  0  0  0
   -6.3490   -0.2340    0.3780 C   0  0  0  0  0  0  0  0  0  0  0  0
   -5.7540   -1.4460    0.0720 C   0  0  0  0  0  0  0  0  0  0  0  0
   -4.3780   -1.4830    0.0810 C   0  0  0  0  0  0  0  0  0  0  0  0
   -1.5130   -1.4880    0.7450 N   0  0  0  0  0  0  0  0  0  0  0  0
   -0.1570   -1.1900    0.6310 C   0  0  0  0  0  0  0  0  0  0  0  0
    1.5370   -1.7190    0.7990 S   0  0  0  0  0  0  0  0  0  0  0  0
    2.2690   -0.2330    0.2800 C   0  0  0  0  0  0  0  0  0  0  0  0
    3.6970    0.0760    0.1620 C   0  0  0  0  0  0  0  0  0  0  0  0
    4.1410    1.2940   -0.2620 C   0  0  0  0  0  0  0  0  0  0  0  0
    5.4970    1.5510   -0.3620 C   0  0  0  0  0  0  0  0  0  0  0  0
    6.3730    0.5380   -0.0200 C   0  0  0  0  0  0  0  0  0  0  0  0
    5.9330   -0.7010    0.4110 C   0  0  0  0  0  0  0  0  0  0  0  0
    4.5910   -0.9080    0.4940 C   0  0  0  0  0  0  0  0  0  0  0  0
    1.1850    0.5610    0.0150 C   0  0  0  0  0  0  0  0  0  0  0  0
   -0.0150    0.0860    0.1890 N   0  0  0  0  0  0  0  0  0  0  0  0
  1  2  2  0
  2  3  1  0
  2 21  1  0
  3  4  1  0
  3 10  1  0
  4  5  2  0
  4  9  1  0
  5  6  1  0
  6  7  2  0
  7  8  1  0
  8  9  2  0
 10 11  2  0
 11 12  1  0
 11 21  1  0
 12 13  1  0
 13 14  1  0
 13 20  2  0
 14 15  2  0
 14 19  1  0
 15 16  1  0
 16 17  2  0
 17 18  1  0
 18 19  2  0
 20 21  1  0
M  END
