
     RDKit          3D

 22 22  0  0  0  0  0  0  0  0999 V2000
   -3.8180    1.8370    2.0930 O   0  0  0  0  0  0  0  0  0  0  0  0
   -2.8700    0.8550    2.3480 C   0  0  0  0  0  0  0  0  0  0  0  0
   -1.6420    1.0200    1.5080 C   0  0  0  0  0  0  0  0  0  0  0  0
   -1.8250    0.9730    0.1570 O   0  0  0  0  0  0  0  0  0  0  0  0
   -2.3440   -0.1730   -0.3670 C   0  0  1  0  0  0  0  0  0  0  0  0
   -3.6100   -0.5190    0.1060 O   0  0  0  0  0  0  0  0  0  0  0  0
   -2.5020    0.0320   -1.8790 C   0  0  0  0  0  0  0  0  0  0  0  0
   -2.4400   -1.1400   -2.5900 O   0  0  0  0  0  0  0  0  0  0  0  0
   -3.0780   -2.1680   -1.9400 C   0  0  0  0  0  0  0  0  0  0  0  0
   -2.3440   -2.5720   -0.6640 C   0  0  0  0  0  0  0  0  0  0  0  0
   -1.4610   -1.4010   -0.2000 C   0  0  1  0  0  0  0  0  0  0  0  0
   -0.3560   -1.4070   -1.0150 O   0  0  0  0  0  0  0  0  0  0  0  0
    0.8450   -1.6630   -0.4070 C   0  0  1  0  0  0  0  0  0  0  0  0
    1.4290   -2.8560   -0.8460 O   0  0  0  0  0  0  0  0  0  0  0  0
    1.8360   -0.5050   -0.5400 C   0  0  1  0  0  0  0  0  0  0  0  0
    1.2390    0.5920    0.0610 O   0  0  0  0  0  0  0  0  0  0  0  0
    3.1340   -0.8780    0.0890 C   0  0  0  0  0  0  0  0  0  0  0  0
    4.1260    0.0450    0.0790 O   0  0  0  0  0  0  0  0  0  0  0  0
    3.9430    1.2240    0.7280 C   0  0  1  0  0  0  0  0  0  0  0  0
    4.9500    1.4470    1.7020 O   0  0  0  0  0  0  0  0  0  0  0  0
    4.1380    2.3360   -0.3170 C   0  0  0  0  0  0  0  0  0  0  0  0
    3.9620    3.5700    0.2920 O   0  0  0  0  0  0  0  0  0  0  0  0
  1  2  1  0
  2  3  1  0
  3  4  1  0
  4  5  1  0
  5  6  1  1
  5  7  1  0
  5 11  1  0
  7  8  1  0
  8  9  1  0
  9 10  1  0
 10 11  1  0
 11 12  1  6
 12 13  1  0
 13 14  1  6
 13 15  1  0
 15 16  1  1
 15 17  1  0
 17 18  1  0
 18 19  1  0
 19 20  1  1
 19 21  1  0
 21 22  1  0
M  END
