
     RDKit          3D

 22 22  0  0  0  0  0  0  0  0999 V2000
    4.6580    1.0460   -1.0470 O   0  0  0  0  0  0  0  0  0  0  0  0
    4.6390    0.3370   -0.0080 C   0  0  0  0  0  0  0  0  0  0  0  0
    5.5940   -0.6810    0.0940 O   0  0  0  0  0  0  0  0  0  0  0  0
    3.6540    0.5700    1.0410 C   0  0  0  0  0  0  0  0  0  0  0  0
    2.2910    1.0080    0.6710 C   0  0  2  0  0  0  0  0  0  0  0  0
    1.6050    1.2190    1.9470 O   0  0  0  0  0  0  0  0  0  0  0  0
    1.4370   -0.0730   -0.0070 C   0  0  1  0  0  0  0  0  0  0  0  0
    1.8690   -0.2630   -1.4300 C   0  0  0  0  0  0  0  0  0  0  0  0
    1.8730    0.9600   -2.1210 O   0  0  0  0  0  0  0  0  0  0  0  0
    1.5240   -1.3700    0.7160 C   0  0  0  0  0  0  0  0  0  0  0  0
    0.6570   -2.3510   -0.0570 C   0  0  0  0  0  0  0  0  0  0  0  0
   -0.6950   -1.7950   -0.2830 C   0  0  1  0  0  0  0  0  0  0  0  0
   -1.6040   -2.5980    0.4460 O   0  0  0  0  0  0  0  0  0  0  0  0
   -0.8890   -0.3640    0.0350 C   0  0  2  0  0  0  0  0  0  0  0  0
   -1.9120    0.1870   -0.7540 O   0  0  0  0  0  0  0  0  0  0  0  0
   -3.0180    0.5850   -0.0340 C   0  0  2  0  0  0  0  0  0  0  0  0
   -4.2100   -0.1480   -0.6680 C   0  0  0  0  0  0  0  0  0  0  0  0
   -5.3670    0.1890   -0.0050 O   0  0  0  0  0  0  0  0  0  0  0  0
   -3.2990    2.0810   -0.2380 C   0  0  1  0  0  0  0  0  0  0  0  0
   -4.4210    2.4380    0.5050 O   0  0  0  0  0  0  0  0  0  0  0  0
   -2.1930    2.8460    0.0200 O   0  0  0  0  0  0  0  0  0  0  0  0
    0.1650    0.4650   -0.0620 O   0  0  0  0  0  0  0  0  0  0  0  0
  1  2  2  0
  2  3  1  0
  2  4  1  0
  4  5  1  0
  5  6  1  1
  5  7  1  0
  7  8  1  6
  7 10  1  0
  7 22  1  0
  8  9  1  0
 10 11  1  0
 11 12  1  0
 12 13  1  1
 12 14  1  0
 14 15  1  6
 14 22  1  0
 15 16  1  0
 16 17  1  6
 16 19  1  0
 17 18  1  0
 19 20  1  1
 19 21  1  0
M  END
