
     RDKit          3D

 22 22  0  0  0  0  0  0  0  0999 V2000
   -4.9050   -0.5180   -1.6210 O   0  0  0  0  0  0  0  0  0  0  0  0
   -5.0190    0.1130   -0.5440 C   0  0  0  0  0  0  0  0  0  0  0  0
   -6.2640    0.6150   -0.2150 O   0  0  0  0  0  0  0  0  0  0  0  0
   -3.8170    0.2690    0.2890 C   0  0  2  0  0  0  0  0  0  0  0  0
   -3.4370    1.6940    0.5320 C   0  0  0  0  0  0  0  0  0  0  0  0
   -1.9590    1.5190    0.9270 C   0  0  0  0  0  0  0  0  0  0  0  0
   -1.5290    0.7370   -0.3330 C   0  0  1  0  0  0  0  0  0  0  0  0
   -1.6900    1.6660   -1.3600 O   0  0  0  0  0  0  0  0  0  0  0  0
   -0.2490    0.2820   -0.2310 O   0  0  0  0  0  0  0  0  0  0  0  0
    0.2010   -0.3390   -1.3930 C   0  0  0  0  0  0  0  0  0  0  0  0
    1.6300   -0.8400   -1.2290 C   0  0  0  0  0  0  0  0  0  0  0  0
    2.4320    0.2650   -0.9470 O   0  0  0  0  0  0  0  0  0  0  0  0
    3.7590   -0.0740   -0.7770 C   0  0  1  0  0  0  0  0  0  0  0  0
    4.5450    0.5670   -1.7520 O   0  0  0  0  0  0  0  0  0  0  0  0
    4.3140    0.3300    0.5670 C   0  0  1  0  0  0  0  0  0  0  0  0
    3.6110   -0.2810    1.5940 O   0  0  0  0  0  0  0  0  0  0  0  0
    5.7560   -0.1700    0.6180 C   0  0  0  0  0  0  0  0  0  0  0  0
    6.3580    0.1320    1.8180 O   0  0  0  0  0  0  0  0  0  0  0  0
   -2.5900   -0.3450   -0.3490 C   0  0  2  0  0  0  0  0  0  0  0  0
   -2.7620   -0.7270   -1.6590 O   0  0  0  0  0  0  0  0  0  0  0  0
   -2.2050   -1.5150    0.5290 C   0  0  0  0  0  0  0  0  0  0  0  0
   -3.2460   -2.4490    0.4350 O   0  0  0  0  0  0  0  0  0  0  0  0
  1  2  2  0
  2  3  1  0
  4  2  1  6
  4  5  1  0
  4 19  1  0
  5  6  1  0
  6  7  1  0
  7  8  1  6
  7  9  1  0
  7 19  1  0
  9 10  1  0
 10 11  1  0
 11 12  1  0
 12 13  1  0
 13 14  1  6
 13 15  1  0
 15 16  1  1
 15 17  1  0
 17 18  1  0
 19 20  1  6
 19 21  1  0
 21 22  1  0
M  END
