
     RDKit          3D

 22 23  0  0  0  0  0  0  0  0999 V2000
    3.7320   -1.9810    0.1800 O   0  0  0  0  0  0  0  0  0  0  0  0
    3.6100   -0.9190   -0.7100 C   0  0  0  0  0  0  0  0  0  0  0  0
    3.1980    0.3470    0.0000 C   0  0  2  0  0  0  0  0  0  0  0  0
    4.3430    0.6420    0.9890 C   0  0  0  0  0  0  0  0  0  0  0  0
    5.4920    0.7880    0.2040 O   0  0  0  0  0  0  0  0  0  0  0  0
    2.0160    0.1830    0.6490 O   0  0  0  0  0  0  0  0  0  0  0  0
    0.9880    1.0290    0.4070 C   0  0  0  0  0  0  0  0  0  0  0  0
    0.3250    1.0030   -0.9290 C   0  0  1  0  0  0  0  0  0  0  0  0
    1.3280    1.1970   -1.8800 O   0  0  0  0  0  0  0  0  0  0  0  0
   -0.4550   -0.1960   -1.2700 C   0  0  1  0  0  0  0  0  0  0  0  0
    0.3450   -1.3550   -1.2020 O   0  0  0  0  0  0  0  0  0  0  0  0
   -0.1960   -2.1830   -0.2500 C   0  0  1  0  0  0  0  0  0  0  0  0
    0.7580   -2.7560    0.5860 O   0  0  0  0  0  0  0  0  0  0  0  0
   -1.0030   -1.3670    0.5400 O   0  0  0  0  0  0  0  0  0  0  0  0
   -1.6170   -0.5900   -0.4750 C   0  0  2  0  0  0  0  0  0  0  0  0
   -2.4470   -1.4580   -1.2100 O   0  0  0  0  0  0  0  0  0  0  0  0
   -2.4690    0.4220    0.1670 C   0  0  1  0  0  0  0  0  0  0  0  0
   -3.0950    1.3970   -0.8350 C   0  0  0  0  0  0  0  0  0  0  0  0
   -4.4500    1.4720   -0.5230 O   0  0  0  0  0  0  0  0  0  0  0  0
   -4.6800    1.6370    0.8360 C   0  0  0  0  0  0  0  0  0  0  0  0
   -4.4740    0.4150    1.5160 O   0  0  0  0  0  0  0  0  0  0  0  0
   -3.6970   -0.3660    0.6840 C   0  0  0  0  0  0  0  0  0  0  0  0
  1  2  1  0
  3  2  1  1
  3  4  1  0
  3  6  1  0
  4  5  1  0
  6  7  1  0
  7  8  1  0
  8  9  1  6
  8 10  1  0
 10 11  1  1
 10 15  1  0
 11 12  1  0
 12 13  1  1
 12 14  1  0
 14 15  1  0
 15 16  1  6
 15 17  1  0
 17 18  1  6
 17 22  1  0
 18 19  1  0
 19 20  1  0
 20 21  1  0
 21 22  1  0
M  END
