
     RDKit          3D

 22 22  0  0  0  0  0  0  0  0999 V2000
    6.2600   -0.2770   -1.9780 C   0  0  0  0  0  0  0  0  0  0  0  0
    5.7500   -0.5730   -0.6780 O   0  0  0  0  0  0  0  0  0  0  0  0
    4.4840   -0.0430   -0.3270 C   0  0  0  0  0  0  0  0  0  0  0  0
    3.8830    0.6570   -1.1770 O   0  0  0  0  0  0  0  0  0  0  0  0
    3.9200   -0.2720    0.8870 O   0  0  0  0  0  0  0  0  0  0  0  0
    2.6960    0.1760    1.3550 C   0  0  0  0  0  0  0  0  0  0  0  0
    1.4740   -0.3230    0.6320 C   0  0  1  0  0  0  0  0  0  0  0  0
    1.4920    0.0610   -0.6730 O   0  0  0  0  0  0  0  0  0  0  0  0
    1.5490   -1.8470    0.6560 C   0  0  0  0  0  0  0  0  0  0  0  0
    1.5350   -2.3500    1.9460 O   0  0  0  0  0  0  0  0  0  0  0  0
    0.3620    0.1330    1.3360 O   0  0  0  0  0  0  0  0  0  0  0  0
   -0.8450   -0.3140    0.8070 C   0  0  1  0  0  0  0  0  0  0  0  0
   -1.4130   -1.1380    1.8070 O   0  0  0  0  0  0  0  0  0  0  0  0
   -1.8120    0.8290    0.6180 C   0  0  1  0  0  0  0  0  0  0  0  0
   -2.0760    1.4420    1.8200 O   0  0  0  0  0  0  0  0  0  0  0  0
   -1.4820    1.7890   -0.4910 C   0  0  0  0  0  0  0  0  0  0  0  0
   -2.9940    1.8800   -0.7490 C   0  0  1  0  0  0  0  0  0  0  0  0
   -3.3380    1.9370   -2.0810 O   0  0  0  0  0  0  0  0  0  0  0  0
   -3.0680    0.4690   -0.1450 C   0  0  1  0  0  0  0  0  0  0  0  0
   -2.8650   -0.5300   -1.2690 C   0  0  0  0  0  0  0  0  0  0  0  0
   -4.2790    0.2380    0.6960 C   0  0  0  0  0  0  0  0  0  0  0  0
   -4.0340   -0.8180    1.5820 O   0  0  0  0  0  0  0  0  0  0  0  0
  1  2  1  0
  2  3  1  0
  3  4  2  0
  3  5  1  0
  5  6  1  0
  6  7  1  0
  7  8  1  6
  7  9  1  0
  7 11  1  0
  9 10  1  0
 11 12  1  0
 12 13  1  1
 12 14  1  0
 14 15  1  1
 14 16  1  0
 14 19  1  0
 16 17  1  0
 17 18  1  6
 17 19  1  0
 19 20  1  6
 19 21  1  0
 21 22  1  0
M  END
