
     RDKit          3D

 19 21  0  0  0  0  0  0  0  0999 V2000
    2.4560   -0.1640   -2.0320 N   0  0  0  0  0  0  0  0  0  0  0  0
    3.1810   -1.0020   -1.1130 C   0  0  0  0  0  0  0  0  0  0  0  0
    3.0560   -0.4320    0.2780 C   0  0  2  0  0  0  0  0  0  0  0  0
    3.8110   -1.2690    1.2630 C   0  0  0  0  0  0  0  0  0  0  0  0
    2.8250   -1.6520    2.2670 C   0  0  0  0  0  0  0  0  0  0  0  0
    1.6670   -1.1010    1.9760 C   0  0  0  0  0  0  0  0  0  0  0  0
    0.3110   -1.0030    2.4480 N   0  0  0  0  0  0  0  0  0  0  0  0
   -0.3680   -0.1680    1.5270 C   0  0  0  0  0  0  0  0  0  0  0  0
    0.4190    0.2490    0.5530 C   0  0  0  0  0  0  0  0  0  0  0  0
   -0.3470    1.1020   -0.3490 C   0  0  0  0  0  0  0  0  0  0  0  0
    0.0170    1.6930   -1.3810 O   0  0  0  0  0  0  0  0  0  0  0  0
   -1.6790    1.1840    0.1380 N   0  0  0  0  0  0  0  0  0  0  0  0
   -2.7680    1.9460   -0.4800 C   0  0  0  0  0  0  0  0  0  0  0  0
   -3.5400    1.1510   -1.4830 C   0  0  0  0  0  0  0  0  0  0  0  0
   -4.1920   -0.0650   -0.9160 C   0  0  0  0  0  0  0  0  0  0  0  0
   -5.0770    0.3080    0.0710 O   0  0  0  0  0  0  0  0  0  0  0  0
   -1.7150    0.3960    1.3130 C   0  0  0  0  0  0  0  0  0  0  0  0
   -2.7200    0.2020    2.0590 O   0  0  0  0  0  0  0  0  0  0  0  0
    1.7370   -0.3290    0.8000 N   0  0  0  0  0  0  0  0  0  0  0  0
  1  2  1  0
  3  2  1  6
  3  4  1  0
  3 19  1  0
  4  5  1  0
  5  6  2  0
  6  7  1  0
  6 19  1  0
  7  8  1  0
  8  9  2  0
  8 17  1  0
  9 10  1  0
  9 19  1  0
 10 11  2  0
 10 12  1  0
 12 13  1  0
 12 17  1  0
 13 14  1  0
 14 15  1  0
 15 16  1  0
 17 18  2  0
M  CHG  1   1   1
M  END
