
     RDKit          3D

 23 24  0  0  0  0  0  0  0  0999 V2000
   -4.8010    1.1420   -1.3460 O   0  0  0  0  0  0  0  0  0  0  0  0
   -3.4470    0.9440   -1.4570 C   0  0  0  0  0  0  0  0  0  0  0  0
   -2.9830   -0.3250   -0.7280 C   0  0  1  0  0  0  0  0  0  0  0  0
   -1.6240   -0.4110   -0.9120 O   0  0  0  0  0  0  0  0  0  0  0  0
   -0.8900   -0.2700    0.2550 C   0  0  2  0  0  0  0  0  0  0  0  0
    0.4500   -0.4350   -0.0750 O   0  0  0  0  0  0  0  0  0  0  0  0
    1.2110    0.6820    0.2340 C   0  0  1  0  0  0  0  0  0  0  0  0
    2.2970    0.3620    1.2620 C   0  0  1  0  0  0  0  0  0  0  0  0
    1.7400    0.1670    2.4980 O   0  0  0  0  0  0  0  0  0  0  0  0
    3.0340   -0.8300    0.7250 C   0  0  1  0  0  0  0  0  0  0  0  0
    2.1280   -1.8430    0.3890 O   0  0  0  0  0  0  0  0  0  0  0  0
    3.7980   -0.3910   -0.4840 C   0  0  2  0  0  0  0  0  0  0  0  0
    4.8780    0.3880   -0.0610 O   0  0  0  0  0  0  0  0  0  0  0  0
    2.9860    0.3220   -1.5080 C   0  0  1  0  0  0  0  0  0  0  0  0
    2.4480   -0.6110   -2.4130 O   0  0  0  0  0  0  0  0  0  0  0  0
    1.9340    1.2340   -0.9690 C   0  0  2  0  0  0  0  0  0  0  0  0
    2.5110    2.4460   -0.5930 O   0  0  0  0  0  0  0  0  0  0  0  0
   -1.2970   -1.3360    1.2360 C   0  0  2  0  0  0  0  0  0  0  0  0
   -1.1930   -2.6090    0.7190 O   0  0  0  0  0  0  0  0  0  0  0  0
   -2.7080   -1.0830    1.6520 C   0  0  1  0  0  0  0  0  0  0  0  0
   -2.7740   -0.4490    2.9120 O   0  0  0  0  0  0  0  0  0  0  0  0
   -3.4290   -0.2130    0.6830 C   0  0  1  0  0  0  0  0  0  0  0  0
   -3.4100    1.1290    1.0530 O   0  0  0  0  0  0  0  0  0  0  0  0
  1  2  1  0
  3  2  1  6
  3  4  1  0
  3 22  1  0
  4  5  1  0
  5  6  1  6
  5 18  1  0
  7  6  1  6
  7  8  1  0
  7 16  1  0
  8  9  1  1
  8 10  1  0
 10 11  1  6
 10 12  1  0
 12 13  1  1
 12 14  1  0
 14 15  1  6
 14 16  1  0
 16 17  1  1
 18 19  1  6
 18 20  1  0
 20 21  1  1
 20 22  1  0
 22 23  1  1
M  END
