
     RDKit          3D

 14 14  0  0  0  0  0  0  0  0999 V2000
    3.8350   -0.5770   -0.9780 C   0  0  0  0  0  0  0  0  0  0  0  0
    2.8840    0.0390   -0.3110 C   0  0  0  0  0  0  0  0  0  0  0  0
    3.1520    1.4030    0.2390 C   0  0  0  0  0  0  0  0  0  0  0  0
    1.5850   -0.6460   -0.1320 C   0  0  0  0  0  0  0  0  0  0  0  0
    0.5110    0.0680   -0.6870 O   0  0  0  0  0  0  0  0  0  0  0  0
   -0.7590   -0.5500   -0.5390 C   0  0  0  0  0  0  0  0  0  0  0  0
   -0.9100   -1.8200   -0.8620 C   0  0  0  0  0  0  0  0  0  0  0  0
   -2.2140   -2.4350   -0.7050 C   0  0  0  0  0  0  0  0  0  0  0  0
   -3.2070   -1.7580   -0.2600 N   0  0  0  0  0  0  0  0  0  0  0  0
   -3.1980   -0.3840    0.1290 C   0  0  0  0  0  0  0  0  0  0  0  0
   -1.8830    0.2180   -0.0350 C   0  0  0  0  0  0  0  0  0  0  0  0
   -1.6360    1.5040    0.2680 C   0  0  0  0  0  0  0  0  0  0  0  0
   -2.6950    2.3400    0.7750 C   0  0  0  0  0  0  0  0  0  0  0  0
   -2.4990    3.5380    1.0660 O   0  0  0  0  0  0  0  0  0  0  0  0
  1  2  2  0
  2  3  1  0
  2  4  1  0
  4  5  1  0
  5  6  1  0
  6  7  2  0
  6 11  1  0
  7  8  1  0
  8  9  2  0
  9 10  1  0
 10 11  1  0
 11 12  2  3
 12 13  1  0
 13 14  2  0
M  END
