
     RDKit          3D

 14 14  0  0  0  0  0  0  0  0999 V2000
   -4.5870    0.3970   -1.1420 C   0  0  0  0  0  0  0  0  0  0  0  0
   -3.9590   -0.7480   -0.9780 C   0  0  0  0  0  0  0  0  0  0  0  0
   -2.5540   -0.8890   -1.0180 N   0  0  0  0  0  0  0  0  0  0  0  0
   -1.7430   -0.3680   -0.1740 C   0  0  0  0  0  0  0  0  0  0  0  0
   -2.1820    0.4420    0.9410 C   0  0  0  0  0  0  0  0  0  0  0  0
   -1.2330    0.9120    1.7280 C   0  0  0  0  0  0  0  0  0  0  0  0
    0.1800    0.6590    1.5270 C   0  0  0  0  0  0  0  0  0  0  0  0
    0.6800   -0.0820    0.5170 C   0  0  0  0  0  0  0  0  0  0  0  0
    2.1130   -0.2590    0.4280 C   0  0  0  0  0  0  0  0  0  0  0  0
    2.7130   -0.9410   -0.4830 C   0  0  0  0  0  0  0  0  0  0  0  0
    4.1330   -1.0420   -0.4640 O   0  0  0  0  0  0  0  0  0  0  0  0
    4.8440    0.1950   -0.4580 C   0  0  0  0  0  0  0  0  0  0  0  0
   -0.3020   -0.6350   -0.3910 C   0  0  0  0  0  0  0  0  0  0  0  0
    0.0650   -1.3380   -1.3620 O   0  0  0  0  0  0  0  0  0  0  0  0
  1  2  2  0
  2  3  1  0
  3  4  2  3
  4  5  1  0
  4 13  1  0
  5  6  2  0
  6  7  1  0
  7  8  2  0
  8  9  1  0
  8 13  1  0
  9 10  2  3
 10 11  1  0
 11 12  1  0
 13 14  2  0
M  END
