
     RDKit          3D

 14 14  0  0  0  0  0  0  0  0999 V2000
    4.2160    1.5070   -0.3950 C   0  0  0  0  0  0  0  0  0  0  0  0
    3.0220    1.2510    0.1020 C   0  0  0  0  0  0  0  0  0  0  0  0
    2.4280   -0.0230    0.0840 N   0  0  0  0  0  0  0  0  0  0  0  0
    2.8110   -1.0020    1.0800 C   0  0  0  0  0  0  0  0  0  0  0  0
    1.4560   -0.3940   -0.8810 C   0  0  0  0  0  0  0  0  0  0  0  0
    0.1590   -0.4400   -0.6140 C   0  0  0  0  0  0  0  0  0  0  0  0
   -0.3790   -0.1110    0.7000 C   0  0  0  0  0  0  0  0  0  0  0  0
   -1.6840   -0.1780    0.8960 C   0  0  0  0  0  0  0  0  0  0  0  0
   -2.6590   -0.5620   -0.1140 C   0  0  0  0  0  0  0  0  0  0  0  0
   -4.0350   -0.6080    0.1780 O   0  0  0  0  0  0  0  0  0  0  0  0
   -4.7740    0.5820    0.1540 C   0  0  0  0  0  0  0  0  0  0  0  0
   -2.2390   -0.8730   -1.3290 C   0  0  0  0  0  0  0  0  0  0  0  0
   -0.8060   -0.8260   -1.6360 C   0  0  0  0  0  0  0  0  0  0  0  0
   -0.3590   -1.1130   -2.7750 O   0  0  0  0  0  0  0  0  0  0  0  0
  1  2  2  0
  2  3  1  0
  3  4  1  0
  3  5  1  0
  5  6  2  3
  6  7  1  0
  6 13  1  0
  7  8  2  0
  8  9  1  0
  9 10  1  0
  9 12  2  0
 10 11  1  0
 12 13  1  0
 13 14  2  0
M  END
