
     RDKit          3D

 19 21  0  0  0  0  0  0  0  0999 V2000
   -1.2400    2.7620   -0.1780 C   0  0  0  0  0  0  0  0  0  0  0  0
   -0.6030    1.4260   -0.0880 N   0  0  0  0  0  0  0  0  0  0  0  0
   -1.6360    0.4690   -0.1250 C   0  0  0  0  0  0  0  0  0  0  0  0
   -1.5030   -0.7130   -1.0000 C   0  0  2  0  0  0  0  0  0  0  0  0
   -2.8500   -1.4720   -0.7610 C   0  0  0  0  0  0  0  0  0  0  0  0
   -2.5970   -2.0200    0.6470 C   0  0  0  0  0  0  0  0  0  0  0  0
   -1.0960   -2.1410    0.7860 C   0  0  0  0  0  0  0  0  0  0  0  0
   -0.6200   -1.8270   -0.6110 C   0  0  2  0  0  0  0  0  0  0  0  0
    0.7230   -1.7710   -0.7870 O   0  0  0  0  0  0  0  0  0  0  0  0
    1.5800   -0.8870   -0.2090 C   0  0  0  0  0  0  0  0  0  0  0  0
    1.5820   -0.6900    1.0670 N   0  0  0  0  0  0  0  0  0  0  0  0
    2.5500    0.2690    1.4640 C   0  0  0  0  0  0  0  0  0  0  0  0
    2.8490    0.7460    2.7690 N   0  0  0  0  0  0  0  0  0  0  0  0
    3.1910    0.6970    0.3670 C   0  0  0  0  0  0  0  0  0  0  0  0
    4.2130    1.5570   -0.2150 C   0  0  0  0  0  0  0  0  0  0  0  0
    4.9520    2.3420    0.4290 O   0  0  0  0  0  0  0  0  0  0  0  0
    4.1670    1.3060   -1.5770 O   0  0  0  0  0  0  0  0  0  0  0  0
    3.2030    0.3700   -1.8400 N   0  0  0  0  0  0  0  0  0  0  0  0
    2.6150   -0.0110   -0.7670 C   0  0  0  0  0  0  0  0  0  0  0  0
  1  2  1  0
  2  3  1  0
  4  3  1  1
  4  5  1  0
  4  8  1  0
  5  6  1  0
  6  7  1  0
  7  8  1  0
  8  9  1  1
  9 10  1  0
 10 11  2  0
 10 19  1  0
 11 12  1  0
 12 13  1  0
 12 14  2  0
 14 15  1  0
 14 19  1  0
 15 16  2  0
 15 17  1  0
 17 18  1  0
 18 19  2  0
M  CHG  1   2   1
M  END
