
     RDKit          3D

 14 15  0  0  0  0  0  0  0  0999 V2000
    3.5790   -0.3450   -0.3330 C   0  0  0  0  0  0  0  0  0  0  0  0
    2.3380    0.1060   -0.3090 C   0  0  0  0  0  0  0  0  0  0  0  0
    1.9090    1.4960   -0.4150 C   0  0  0  0  0  0  0  0  0  0  0  0
    0.5900    1.5500   -0.3500 C   0  0  0  0  0  0  0  0  0  0  0  0
   -0.3600    2.6600   -0.4030 C   0  0  0  0  0  0  0  0  0  0  0  0
    0.1070    3.8150   -0.5350 O   0  0  0  0  0  0  0  0  0  0  0  0
   -1.7560    2.4060   -0.3060 N   0  0  0  0  0  0  0  0  0  0  0  0
   -2.2060    1.2050   -0.1700 C   0  0  0  0  0  0  0  0  0  0  0  0
   -1.2920    0.0600   -0.1130 C   0  0  0  0  0  0  0  0  0  0  0  0
   -1.7760   -1.2280    0.0320 O   0  0  0  0  0  0  0  0  0  0  0  0
   -3.0070   -1.5090    0.6910 C   0  0  0  0  0  0  0  0  0  0  0  0
    0.0330    0.2000   -0.1960 C   0  0  0  0  0  0  0  0  0  0  0  0
    1.1540   -0.7350   -0.1680 C   0  0  0  0  0  0  0  0  0  0  0  0
    1.0810   -2.0480   -0.0430 C   0  0  0  0  0  0  0  0  0  0  0  0
  1  2  2  0
  2  3  1  0
  2 13  1  0
  3  4  2  0
  4  5  1  0
  4 12  1  0
  5  6  2  0
  5  7  1  0
  7  8  2  0
  8  9  1  0
  9 10  1  0
  9 12  2  0
 10 11  1  0
 12 13  1  0
 13 14  2  0
M  END
