
     RDKit          3D

 14 14  0  0  0  0  0  0  0  0999 V2000
    5.1850    1.1260    0.7520 C   0  0  0  0  0  0  0  0  0  0  0  0
    3.7140    0.9960    0.6120 C   0  0  0  0  0  0  0  0  0  0  0  0
    3.1400   -0.0700    0.1230 C   0  0  0  0  0  0  0  0  0  0  0  0
    1.6920   -0.1780   -0.0070 C   0  0  0  0  0  0  0  0  0  0  0  0
    1.1290   -1.2680   -0.5060 C   0  0  0  0  0  0  0  0  0  0  0  0
   -0.3070   -1.4300   -0.6580 C   0  0  0  0  0  0  0  0  0  0  0  0
   -0.7090   -2.5300   -1.1510 O   0  0  0  0  0  0  0  0  0  0  0  0
   -1.2520   -0.3970   -0.2700 C   0  0  0  0  0  0  0  0  0  0  0  0
   -2.5610   -0.5340   -0.4050 C   0  0  0  0  0  0  0  0  0  0  0  0
   -3.3750   -1.6570   -0.9350 C   0  0  0  0  0  0  0  0  0  0  0  0
   -4.5640   -0.9970   -1.3030 O   0  0  0  0  0  0  0  0  0  0  0  0
   -4.6800    0.1540   -0.5680 N   0  0  0  0  0  0  0  0  0  0  0  0
   -3.5570    0.4760   -0.0230 C   0  0  0  0  0  0  0  0  0  0  0  0
   -3.2530    1.6540    0.8540 C   0  0  0  0  0  0  0  0  0  0  0  0
  1  2  1  0
  2  3  2  3
  3  4  1  0
  4  5  2  3
  5  6  1  0
  6  7  2  0
  6  8  1  0
  8  9  2  3
  9 10  1  0
  9 13  1  0
 10 11  1  0
 11 12  1  0
 12 13  2  0
 13 14  1  0
M  END
