
     RDKit          3D

 14 14  0  0  0  0  0  0  0  0999 V2000
   -5.2430   -0.2280    0.7790 C   0  0  0  0  0  0  0  0  0  0  0  0
   -4.5690    0.2800   -0.3840 N   0  0  0  0  0  0  0  0  0  0  0  0
   -3.2150    0.6070   -0.0540 C   0  0  0  0  0  0  0  0  0  0  0  0
   -2.3710   -0.6200    0.2510 C   0  0  0  0  0  0  0  0  0  0  0  0
   -1.0050   -0.1230    0.5790 C   0  0  0  0  0  0  0  0  0  0  0  0
    0.0020   -0.5290   -0.1750 C   0  0  0  0  0  0  0  0  0  0  0  0
    1.3500   -0.0950    0.0770 C   0  0  0  0  0  0  0  0  0  0  0  0
    2.3380   -0.5070   -0.6790 C   0  0  0  0  0  0  0  0  0  0  0  0
    2.1640   -1.4280   -1.8260 C   0  0  0  0  0  0  0  0  0  0  0  0
    3.6040   -0.0600   -0.3920 O   0  0  0  0  0  0  0  0  0  0  0  0
    3.8730    0.8110    0.6670 C   0  0  0  0  0  0  0  0  0  0  0  0
    5.2750    1.2300    0.8860 C   0  0  0  0  0  0  0  0  0  0  0  0
    2.8780    1.2240    1.4260 C   0  0  0  0  0  0  0  0  0  0  0  0
    1.6010    0.7700    1.1330 O   0  0  0  0  0  0  0  0  0  0  0  0
  1  2  1  0
  2  3  1  0
  3  4  1  0
  4  5  1  0
  5  6  2  3
  6  7  1  0
  7  8  2  0
  7 14  1  0
  8  9  1  0
  8 10  1  0
 10 11  1  0
 11 12  1  0
 11 13  2  0
 13 14  1  0
M  END
