
     RDKit          3D

 23 25  0  0  0  0  0  0  0  0999 V2000
    6.6640   -1.5080   -2.1590 C   0  0  0  0  0  0  0  0  0  0  0  0
    5.7720   -1.5560   -0.9390 C   0  0  0  0  0  0  0  0  0  0  0  0
    4.9050   -0.4420   -1.0020 O   0  0  0  0  0  0  0  0  0  0  0  0
    3.9450   -0.1660   -0.0450 C   0  0  0  0  0  0  0  0  0  0  0  0
    3.8700   -0.9710    0.9170 O   0  0  0  0  0  0  0  0  0  0  0  0
    3.0610    0.9880   -0.1290 C   0  0  0  0  0  0  0  0  0  0  0  0
    2.1370    1.3000    0.7400 C   0  0  0  0  0  0  0  0  0  0  0  0
    1.2930    2.4920    0.5640 C   0  0  0  0  0  0  0  0  0  0  0  0
   -0.1800    2.1680    0.7400 C   0  0  0  0  0  0  0  0  0  0  0  0
   -0.4080    1.1730    1.7300 N   0  0  0  0  0  0  0  0  0  0  0  0
   -0.8790   -0.0890    1.2860 C   0  0  0  0  0  0  0  0  0  0  0  0
   -2.1870   -0.0830    0.6040 C   0  0  0  0  0  0  0  0  0  0  0  0
   -2.9970    1.0320    0.6230 C   0  0  0  0  0  0  0  0  0  0  0  0
   -4.2360    1.0340   -0.0290 C   0  0  0  0  0  0  0  0  0  0  0  0
   -4.6800   -0.0650   -0.7030 C   0  0  0  0  0  0  0  0  0  0  0  0
   -3.8780   -1.1880   -0.7290 C   0  0  0  0  0  0  0  0  0  0  0  0
   -2.6600   -1.1810   -0.0850 C   0  0  0  0  0  0  0  0  0  0  0  0
   -4.3800   -2.3490   -1.4580 C   0  0  0  0  0  0  0  0  0  0  0  0
   -5.5530   -2.3450   -2.0740 C   0  0  0  0  0  0  0  0  0  0  0  0
   -6.3200   -1.2140   -2.0260 O   0  0  0  0  0  0  0  0  0  0  0  0
   -5.9990   -0.0200   -1.3800 C   0  0  0  0  0  0  0  0  0  0  0  0
    0.6930    0.9860    2.6370 C   0  0  0  0  0  0  0  0  0  0  0  0
    1.9190    0.4570    1.9270 C   0  0  0  0  0  0  0  0  0  0  0  0
  1  2  1  0
  2  3  1  0
  3  4  1  0
  4  5  2  0
  4  6  1  0
  6  7  2  3
  7  8  1  0
  7 23  1  0
  8  9  1  0
  9 10  1  0
 10 11  1  0
 10 22  1  0
 11 12  1  0
 12 13  2  0
 12 17  1  0
 13 14  1  0
 14 15  2  0
 15 16  1  0
 15 21  1  0
 16 17  2  0
 16 18  1  0
 18 19  2  0
 19 20  1  0
 20 21  1  0
 22 23  1  0
M  END
