
     RDKit          3D

 22 24  0  0  0  0  0  0  0  0999 V2000
   -3.6530   -1.6100   -0.8670 C   0  0  0  0  0  0  0  0  0  0  0  0
   -3.1680   -0.9670    0.4130 C   0  0  0  0  0  0  0  0  0  0  0  0
   -2.2760    0.1480    0.1500 N   0  0  1  0  0  0  0  0  0  0  0  0
   -2.6940    1.3410    0.8620 C   0  0  0  0  0  0  0  0  0  0  0  0
   -4.1210    1.6380    0.5050 C   0  0  0  0  0  0  0  0  0  0  0  0
   -0.8920   -0.1830    0.4400 C   0  0  2  0  0  0  0  0  0  0  0  0
   -0.4840    0.1240    1.8370 C   0  0  0  0  0  0  0  0  0  0  0  0
   -0.0050    0.4140   -0.6120 C   0  0  0  0  0  0  0  0  0  0  0  0
    1.4180    0.1480   -0.4050 N   0  0  0  0  0  0  0  0  0  0  0  0
    2.2200    1.0630    0.3340 C   0  0  0  0  0  0  0  0  0  0  0  0
    1.6600    2.2420    0.8260 C   0  0  0  0  0  0  0  0  0  0  0  0
    2.3890    3.1740    1.5370 C   0  0  0  0  0  0  0  0  0  0  0  0
    3.7320    2.9620    1.7910 C   0  0  0  0  0  0  0  0  0  0  0  0
    4.3190    1.8140    1.3240 C   0  0  0  0  0  0  0  0  0  0  0  0
    3.5570    0.9060    0.6160 C   0  0  0  0  0  0  0  0  0  0  0  0
    4.3910   -0.5580    0.0270 S   0  0  0  0  0  0  0  0  0  0  0  0
    3.1840   -1.5130   -0.8570 C   0  0  0  0  0  0  0  0  0  0  0  0
    3.5990   -2.6740   -1.3930 C   0  0  0  0  0  0  0  0  0  0  0  0
    2.7640   -3.4970   -2.0820 C   0  0  0  0  0  0  0  0  0  0  0  0
    1.4620   -3.0990   -2.2150 C   0  0  0  0  0  0  0  0  0  0  0  0
    0.9990   -1.9090   -1.6750 C   0  0  0  0  0  0  0  0  0  0  0  0
    1.8870   -1.0840   -0.9720 C   0  0  0  0  0  0  0  0  0  0  0  0
  1  2  1  0
  3  2  1  1
  3  4  1  0
  3  6  1  0
  4  5  1  0
  6  7  1  1
  6  8  1  0
  8  9  1  0
  9 10  1  0
  9 22  1  0
 10 11  2  0
 10 15  1  0
 11 12  1  0
 12 13  2  0
 13 14  1  0
 14 15  2  0
 15 16  1  0
 16 17  1  0
 17 18  2  0
 17 22  1  0
 18 19  1  0
 19 20  2  0
 20 21  1  0
 21 22  2  0
M  CHG  1   3   1
M  END
