
     RDKit          3D

 23 25  0  0  0  0  0  0  0  0999 V2000
   -6.1900   -0.8440    0.2390 C   0  0  0  0  0  0  0  0  0  0  0  0
   -5.4900    0.3770   -0.3240 C   0  0  0  0  0  0  0  0  0  0  0  0
   -4.0170    0.2550   -0.1990 C   0  0  0  0  0  0  0  0  0  0  0  0
   -3.2110   -0.0440   -1.2880 C   0  0  0  0  0  0  0  0  0  0  0  0
   -1.8510   -0.1380   -1.0850 C   0  0  0  0  0  0  0  0  0  0  0  0
   -1.2650    0.0560    0.1660 C   0  0  0  0  0  0  0  0  0  0  0  0
   -2.0820    0.3560    1.2520 C   0  0  0  0  0  0  0  0  0  0  0  0
   -3.4440    0.4480    1.0380 C   0  0  0  0  0  0  0  0  0  0  0  0
   -4.2940    0.7620    2.1950 C   0  0  0  0  0  0  0  0  0  0  0  0
    0.1440   -0.0090    0.5250 C   0  0  0  0  0  0  0  0  0  0  0  0
    1.2040    0.1300   -0.2850 C   0  0  0  0  0  0  0  0  0  0  0  0
    2.4710    0.0190    0.3380 C   0  0  0  0  0  0  0  0  0  0  0  0
    2.5170   -0.2050    1.6060 O   0  0  0  0  0  0  0  0  0  0  0  0
    3.7430    0.1330   -0.3220 C   0  0  0  0  0  0  0  0  0  0  0  0
    4.8890    0.0140    0.3500 C   0  0  0  0  0  0  0  0  0  0  0  0
    6.2670    0.1070   -0.1840 C   0  0  0  0  0  0  0  0  0  0  0  0
    7.1150   -0.3650    0.9700 C   0  0  0  0  0  0  0  0  0  0  0  0
    6.2750   -0.0470    2.1500 C   0  0  0  0  0  0  0  0  0  0  0  0
    6.6850    0.3050    3.2830 O   0  0  0  0  0  0  0  0  0  0  0  0
    4.9540   -0.2260    1.7170 O   0  0  0  0  0  0  0  0  0  0  0  0
    1.1390    0.3870   -1.7310 C   0  0  0  0  0  0  0  0  0  0  0  0
    0.3000   -0.6310   -2.4850 C   0  0  0  0  0  0  0  0  0  0  0  0
   -1.1080   -0.4500   -2.2590 N   0  0  0  0  0  0  0  0  0  0  0  0
  1  2  1  0
  2  3  1  0
  3  4  2  0
  3  8  1  0
  4  5  1  0
  5  6  2  0
  5 23  1  0
  6  7  1  0
  6 10  1  0
  7  8  2  0
  8  9  1  0
 10 11  2  0
 11 12  1  0
 11 21  1  0
 12 13  2  0
 12 14  1  0
 14 15  2  3
 15 16  1  0
 15 20  1  0
 16 17  1  0
 17 18  1  0
 18 19  2  0
 18 20  1  0
 21 22  1  0
 22 23  1  0
M  END
