
     RDKit          3D

 23 25  0  0  0  0  0  0  0  0999 V2000
    3.0980    2.5770   -0.1910 C   0  0  0  0  0  0  0  0  0  0  0  0
    3.4510    1.3110   -0.0790 C   0  0  0  0  0  0  0  0  0  0  0  0
    4.8520    0.9780    0.3210 C   0  0  0  0  0  0  0  0  0  0  0  0
    5.1360   -0.4800    0.2920 C   0  0  0  0  0  0  0  0  0  0  0  0
    3.9750   -1.3620    0.6760 C   0  0  0  0  0  0  0  0  0  0  0  0
    2.7220   -1.0190    0.0090 C   0  0  0  0  0  0  0  0  0  0  0  0
    2.4990    0.2440   -0.3370 C   0  0  0  0  0  0  0  0  0  0  0  0
    1.3860    0.7280   -0.9650 O   0  0  0  0  0  0  0  0  0  0  0  0
    0.2860    0.0450   -1.5160 C   0  0  0  0  0  0  0  0  0  0  0  0
   -0.2120   -0.9370   -0.5330 C   0  0  0  0  0  0  0  0  0  0  0  0
   -1.3260   -0.6440    0.0850 C   0  0  0  0  0  0  0  0  0  0  0  0
   -1.7780   -1.6090    1.0220 O   0  0  0  0  0  0  0  0  0  0  0  0
   -1.8520   -1.2620    2.4000 C   0  0  0  0  0  0  0  0  0  0  0  0
   -2.1590    0.5130   -0.0450 C   0  0  0  0  0  0  0  0  0  0  0  0
   -1.6940    1.7960   -0.0490 C   0  0  0  0  0  0  0  0  0  0  0  0
   -2.5760    2.8700   -0.1990 C   0  0  0  0  0  0  0  0  0  0  0  0
   -3.9320    2.6610   -0.3470 C   0  0  0  0  0  0  0  0  0  0  0  0
   -4.4100    1.3610   -0.3440 C   0  0  0  0  0  0  0  0  0  0  0  0
   -3.5310    0.3110   -0.1950 C   0  0  0  0  0  0  0  0  0  0  0  0
   -4.0010   -0.9910   -0.1890 O   0  0  0  0  0  0  0  0  0  0  0  0
   -5.3840   -1.2280   -0.3410 C   0  0  0  0  0  0  0  0  0  0  0  0
    0.4480   -2.2340   -0.2170 C   0  0  0  0  0  0  0  0  0  0  0  0
    1.8880   -2.1610   -0.1710 N   0  0  0  0  0  0  0  0  0  0  0  0
  1  2  2  0
  2  3  1  0
  2  7  1  0
  3  4  1  0
  4  5  1  0
  5  6  1  0
  6  7  2  0
  6 23  1  0
  7  8  1  0
  8  9  1  0
  9 10  1  0
 10 11  2  3
 10 22  1  0
 11 12  1  0
 11 14  1  0
 12 13  1  0
 14 15  2  0
 14 19  1  0
 15 16  1  0
 16 17  2  0
 17 18  1  0
 18 19  2  0
 19 20  1  0
 20 21  1  0
 22 23  1  0
M  END
