
     RDKit          3D

 23 25  0  0  0  0  0  0  0  0999 V2000
   -0.4350   -1.4540    2.5700 C   0  0  0  0  0  0  0  0  0  0  0  0
   -1.2480   -1.9090    1.6600 C   0  0  0  0  0  0  0  0  0  0  0  0
   -2.3440   -2.7470    1.9540 O   0  0  0  0  0  0  0  0  0  0  0  0
   -3.0160   -3.0520    0.7690 C   0  0  0  0  0  0  0  0  0  0  0  0
   -2.2420   -2.3380   -0.2760 C   0  0  0  0  0  0  0  0  0  0  0  0
   -1.2100   -1.6720    0.2520 C   0  0  0  0  0  0  0  0  0  0  0  0
   -0.2630   -0.8970   -0.5650 C   0  0  1  0  0  0  0  0  0  0  0  0
   -0.6430   -0.9440   -2.0620 C   0  0  0  0  0  0  0  0  0  0  0  0
    0.0540    0.4230   -0.1560 N   0  0  0  0  0  0  0  0  0  0  0  0
    1.4220    0.7630    0.1590 C   0  0  0  0  0  0  0  0  0  0  0  0
    1.5720    1.9890    0.5850 O   0  0  0  0  0  0  0  0  0  0  0  0
    2.6240   -0.0090    0.0770 C   0  0  2  0  0  0  0  0  0  0  0  0
    2.9770   -0.6370   -1.2510 C   0  0  0  0  0  0  0  0  0  0  0  0
    4.5280   -0.5890   -1.3060 C   0  0  0  0  0  0  0  0  0  0  0  0
    5.0040   -0.7460    0.0130 O   0  0  0  0  0  0  0  0  0  0  0  0
    4.2480   -1.6710    0.7280 C   0  0  0  0  0  0  0  0  0  0  0  0
    2.9170   -1.0250    1.1470 C   0  0  0  0  0  0  0  0  0  0  0  0
   -0.8630    1.5210   -0.0640 C   0  0  2  0  0  0  0  0  0  0  0  0
   -1.9270    1.2710    0.9580 C   0  0  0  0  0  0  0  0  0  0  0  0
   -2.9180    2.4280    1.0230 C   0  0  0  0  0  0  0  0  0  0  0  0
   -2.3810    3.5990    0.2700 C   0  0  0  0  0  0  0  0  0  0  0  0
   -2.1420    3.3190   -1.1990 C   0  0  0  0  0  0  0  0  0  0  0  0
   -1.5620    1.8910   -1.3570 C   0  0  0  0  0  0  0  0  0  0  0  0
  1  2  2  0
  2  3  1  0
  2  6  1  0
  3  4  1  0
  4  5  1  0
  5  6  2  0
  6  7  1  0
  7  8  1  6
  7  9  1  0
  9 10  1  0
 18  9  1  6
 10 11  2  0
 12 10  1  6
 12 13  1  0
 12 17  1  0
 13 14  1  0
 14 15  1  0
 15 16  1  0
 16 17  1  0
 18 19  1  0
 18 23  1  0
 19 20  1  0
 20 21  1  0
 21 22  1  0
 22 23  1  0
M  END
