
     RDKit          3D

 23 25  0  0  0  0  0  0  0  0999 V2000
   -1.3550    0.4730   -2.5490 C   0  0  0  0  0  0  0  0  0  0  0  0
   -2.2290    0.1710   -1.4150 C   0  0  0  0  0  0  0  0  0  0  0  0
   -2.8550   -1.0130   -1.5490 C   0  0  0  0  0  0  0  0  0  0  0  0
   -3.8020   -1.7740   -0.7420 C   0  0  0  0  0  0  0  0  0  0  0  0
   -4.6360   -1.5080    0.2500 C   0  0  0  0  0  0  0  0  0  0  0  0
   -4.9420   -0.2660    0.9580 C   0  0  0  0  0  0  0  0  0  0  0  0
   -4.3220    0.8970    1.0760 C   0  0  0  0  0  0  0  0  0  0  0  0
   -3.0740    1.4860    0.5740 C   0  0  0  0  0  0  0  0  0  0  0  0
   -2.2090    1.2250   -0.4170 C   0  0  0  0  0  0  0  0  0  0  0  0
   -1.0660    2.1690   -0.4830 C   0  0  0  0  0  0  0  0  0  0  0  0
    0.2180    1.5710   -0.3360 N   0  0  0  0  0  0  0  0  0  0  0  0
    0.5430    0.8530    0.8430 C   0  0  0  0  0  0  0  0  0  0  0  0
   -0.3430    0.7620    1.7580 O   0  0  0  0  0  0  0  0  0  0  0  0
    1.8210    0.2120    1.0790 C   0  0  0  0  0  0  0  0  0  0  0  0
    2.0540   -0.4640    2.2490 C   0  0  0  0  0  0  0  0  0  0  0  0
    3.2740   -1.0920    2.5080 C   0  0  0  0  0  0  0  0  0  0  0  0
    4.2610   -1.0150    1.5390 C   0  0  0  0  0  0  0  0  0  0  0  0
    4.0380   -0.3420    0.3660 C   0  0  0  0  0  0  0  0  0  0  0  0
    2.8090    0.2780    0.1290 C   0  0  0  0  0  0  0  0  0  0  0  0
    5.2240   -0.4240   -0.4490 C   0  0  0  0  0  0  0  0  0  0  0  0
    5.4500    0.0510   -1.5930 O   0  0  0  0  0  0  0  0  0  0  0  0
    6.1540   -1.1570    0.2630 O   0  0  0  0  0  0  0  0  0  0  0  0
    5.6560   -1.5760    1.5170 C   0  0  0  0  0  0  0  0  0  0  0  0
  1  2  1  0
  2  3  2  0
  2  9  1  0
  3  4  1  0
  4  5  2  0
  5  6  1  0
  6  7  2  0
  7  8  1  0
  8  9  2  0
  9 10  1  0
 10 11  1  0
 11 12  1  0
 12 13  2  0
 12 14  1  0
 14 15  2  0
 14 19  1  0
 15 16  1  0
 16 17  2  0
 17 18  1  0
 17 23  1  0
 18 19  2  0
 18 20  1  0
 20 21  2  0
 20 22  1  0
 22 23  1  0
M  END
