
     RDKit          3D

 23 25  0  0  0  0  0  0  0  0999 V2000
   -5.2870    0.2070    2.2570 C   0  0  0  0  0  0  0  0  0  0  0  0
   -4.7190    0.1380    0.9030 C   0  0  0  0  0  0  0  0  0  0  0  0
   -5.5640    0.1440   -0.1770 C   0  0  0  0  0  0  0  0  0  0  0  0
   -5.0470    0.0800   -1.4270 C   0  0  0  0  0  0  0  0  0  0  0  0
   -3.6740    0.0100   -1.6230 C   0  0  0  0  0  0  0  0  0  0  0  0
   -3.1590   -0.0510   -2.9830 C   0  0  0  0  0  0  0  0  0  0  0  0
   -1.9640   -0.1020   -3.3140 O   0  0  0  0  0  0  0  0  0  0  0  0
   -2.7890    0.0010   -0.5670 C   0  0  0  0  0  0  0  0  0  0  0  0
   -1.3630   -0.0790   -0.8090 C   0  0  0  0  0  0  0  0  0  0  0  0
   -0.5030   -0.0770    0.3390 N   0  0  0  0  0  0  0  0  0  0  0  0
    0.9120   -0.1590    0.0720 C   0  0  0  0  0  0  0  0  0  0  0  0
    1.4260   -0.2340   -1.2090 C   0  0  0  0  0  0  0  0  0  0  0  0
    2.7840   -0.3110   -1.4290 C   0  0  0  0  0  0  0  0  0  0  0  0
    3.6850   -0.3160   -0.3940 C   0  0  0  0  0  0  0  0  0  0  0  0
    3.1860   -0.2410    0.8900 C   0  0  0  0  0  0  0  0  0  0  0  0
    1.8280   -0.1650    1.0990 C   0  0  0  0  0  0  0  0  0  0  0  0
    3.9730   -0.2340    2.1170 C   0  0  0  0  0  0  0  0  0  0  0  0
    5.2730    0.0580    2.2120 C   0  0  0  0  0  0  0  0  0  0  0  0
    6.2120    0.4280    1.1740 C   0  0  0  0  0  0  0  0  0  0  0  0
    7.1920    1.1200    1.5470 O   0  0  0  0  0  0  0  0  0  0  0  0
    6.2070    0.1250   -0.2580 C   0  0  0  0  0  0  0  0  0  0  0  0
    5.0100   -0.3970   -0.7710 O   0  0  0  0  0  0  0  0  0  0  0  0
   -3.3390    0.0670    0.6920 C   0  0  0  0  0  0  0  0  0  0  0  0
  1  2  1  0
  2  3  2  0
  2 23  1  0
  3  4  1  0
  4  5  2  0
  5  6  1  0
  5  8  1  0
  6  7  2  0
  8  9  1  0
  8 23  2  0
  9 10  1  0
 10 11  1  0
 11 12  2  0
 11 16  1  0
 12 13  1  0
 13 14  2  0
 14 15  1  0
 14 22  1  0
 15 16  2  0
 15 17  1  0
 17 18  2  0
 18 19  1  0
 19 20  2  0
 19 21  1  0
 21 22  1  0
M  END
