
     RDKit          3D

 36 38  0  0  0  0  0  0  0  0999 V2000
    0.5060   -5.9160    2.6770 C   0  0  0  0  0  0  0  0  0  0  0  0
   -0.0270   -5.0100    1.6150 C   0  0  0  0  0  0  0  0  0  0  0  0
    0.2540   -5.2460    0.4160 O   0  0  0  0  0  0  0  0  0  0  0  0
   -0.8560   -3.8780    1.9840 C   0  0  0  0  0  0  0  0  0  0  0  0
   -1.1960   -3.6540    3.4050 C   0  0  0  0  0  0  0  0  0  0  0  0
   -1.3120   -3.0560    1.0410 C   0  0  0  0  0  0  0  0  0  0  0  0
   -0.9720   -3.2980   -0.3350 N   0  0  0  0  0  0  0  0  0  0  0  0
    0.1990   -2.7670   -0.9730 C   0  0  0  0  0  0  0  0  0  0  0  0
    0.1600   -1.2850   -1.2270 C   0  0  0  0  0  0  0  0  0  0  0  0
    1.3920   -0.8260   -1.8590 N   0  0  0  0  0  0  0  0  0  0  0  0
    2.6640   -0.9030   -1.2450 C   0  0  0  0  0  0  0  0  0  0  0  0
    2.7840   -1.3820   -0.0690 O   0  0  0  0  0  0  0  0  0  0  0  0
    3.8800   -0.4270   -1.9580 C   0  0  0  0  0  0  0  0  0  0  0  0
    4.5020    0.7530   -1.3020 C   0  0  0  0  0  0  0  0  0  0  0  0
    4.2200    2.0150   -1.8100 C   0  0  0  0  0  0  0  0  0  0  0  0
    4.7820    3.1070   -1.2050 C   0  0  0  0  0  0  0  0  0  0  0  0
    5.6350    3.0050   -0.0870 C   0  0  0  0  0  0  0  0  0  0  0  0
    5.9080    1.7930    0.4040 C   0  0  0  0  0  0  0  0  0  0  0  0
    5.3240    0.6790   -0.2280 C   0  0  0  0  0  0  0  0  0  0  0  0
    6.8010    1.7150    1.5780 C   0  0  0  0  0  0  0  0  0  0  0  0
    6.7140    3.4350    2.1730 S   0  0  0  0  0  0  0  0  0  0  0  0
    5.4900    3.5280    3.1070 O   0  0  0  0  0  0  0  0  0  0  0  0
    6.2580    4.1690    0.5870 C   0  0  0  0  0  0  0  0  0  0  0  0
   -2.1530   -1.9230    1.3620 C   0  0  0  0  0  0  0  0  0  0  0  0
   -2.4320   -1.7200    2.5840 O   0  0  0  0  0  0  0  0  0  0  0  0
   -2.6980   -1.0180    0.4290 N   0  0  0  0  0  0  0  0  0  0  0  0
   -3.5110    0.0750    0.9300 C   0  0  0  0  0  0  0  0  0  0  0  0
   -4.0120    0.9790   -0.1850 C   0  0  0  0  0  0  0  0  0  0  0  0
   -4.8610    0.2070   -1.1310 C   0  0  0  0  0  0  0  0  0  0  0  0
   -5.3840    0.8360   -2.2050 O   0  0  0  0  0  0  0  0  0  0  0  0
   -6.2190    1.8800   -2.1040 C   0  0  0  0  0  0  0  0  0  0  0  0
   -5.6260    3.0780   -1.4780 C   0  0  0  0  0  0  0  0  0  0  0  0
   -4.4260    3.6810   -1.8370 C   0  0  0  0  0  0  0  0  0  0  0  0
   -4.2450    4.7630   -1.0110 C   0  0  0  0  0  0  0  0  0  0  0  0
   -5.3340    4.7840   -0.1810 C   0  0  0  0  0  0  0  0  0  0  0  0
   -6.1150    3.7960   -0.4770 O   0  0  0  0  0  0  0  0  0  0  0  0
  1  2  1  0
  2  3  2  0
  2  4  1  0
  4  5  1  0
  4  6  2  3
  6  7  1  0
  6 24  1  0
  7  8  1  0
  8  9  1  0
  9 10  1  0
 10 11  1  0
 11 12  2  0
 11 13  1  0
 13 14  1  0
 14 15  2  0
 14 19  1  0
 15 16  1  0
 16 17  2  0
 17 18  1  0
 17 23  1  0
 18 19  2  0
 18 20  1  0
 21 20  1  6
 21 22  2  0
 21 23  1  0
 24 25  2  0
 24 26  1  0
 26 27  1  0
 27 28  1  0
 28 29  1  0
 29 30  1  0
 30 31  1  0
 31 32  1  0
 32 33  2  0
 32 36  1  0
 33 34  1  0
 34 35  2  0
 35 36  1  0
M  END
