
     RDKit          3D

 36 38  0  0  0  0  0  0  0  0999 V2000
    4.1060   -1.2860    1.2500 C   0  0  0  0  0  0  0  0  0  0  0  0
    4.9960   -1.8030    0.1990 C   0  0  0  0  0  0  0  0  0  0  0  0
    5.9180   -0.8790   -0.4070 N   0  0  0  0  0  0  0  0  0  0  0  0
    7.2410   -0.7430    0.0510 C   0  0  0  0  0  0  0  0  0  0  0  0
    7.6000    0.1550    1.1390 C   0  0  0  0  0  0  0  0  0  0  0  0
    7.3740    1.6010    1.0890 C   0  0  1  0  0  0  0  0  0  0  0  0
    5.9830    2.1060    0.9470 C   0  0  0  0  0  0  0  0  0  0  0  0
    7.9040    2.1380    2.4400 C   0  0  0  0  0  0  0  0  0  0  0  0
    5.4480   -0.1010   -1.4990 C   0  0  0  0  0  0  0  0  0  0  0  0
    6.1930    0.6770   -2.1360 O   0  0  0  0  0  0  0  0  0  0  0  0
    4.0320   -0.1630   -1.9550 C   0  0  0  0  0  0  0  0  0  0  0  0
    3.5390    0.4830   -3.0580 C   0  0  0  0  0  0  0  0  0  0  0  0
    2.1730    0.1820   -3.1350 C   0  0  0  0  0  0  0  0  0  0  0  0
    1.9060   -0.6370   -2.0660 C   0  0  0  0  0  0  0  0  0  0  0  0
    0.6560   -1.2470   -1.6570 C   0  0  0  0  0  0  0  0  0  0  0  0
    0.6430   -1.7900   -0.4960 O   0  0  0  0  0  0  0  0  0  0  0  0
   -0.5480   -1.3190   -2.3770 N   0  0  0  0  0  0  0  0  0  0  0  0
   -1.7390   -1.9290   -1.8330 C   0  0  0  0  0  0  0  0  0  0  0  0
   -2.3520   -1.1430   -0.6720 C   0  0  1  0  0  0  0  0  0  0  0  0
   -1.4900   -0.8730    0.2980 O   0  0  0  0  0  0  0  0  0  0  0  0
   -3.1480    0.0280   -1.2020 C   0  0  0  0  0  0  0  0  0  0  0  0
   -3.7900    0.6750   -0.0410 N   0  0  0  0  0  0  0  0  0  0  0  0
   -4.7770    1.6630   -0.2700 C   0  0  0  0  0  0  0  0  0  0  0  0
   -5.0900    1.9190   -1.4540 O   0  0  0  0  0  0  0  0  0  0  0  0
   -5.4580    2.3980    0.8200 C   0  0  0  0  0  0  0  0  0  0  0  0
   -6.9680    2.4680    0.5550 C   0  0  2  0  0  0  0  0  0  0  0  0
   -7.5210    1.0450    0.5400 C   0  0  0  0  0  0  0  0  0  0  0  0
   -8.2330    0.9150   -0.7770 C   0  0  0  0  0  0  0  0  0  0  0  0
   -8.0840    2.2630   -1.3920 C   0  0  0  0  0  0  0  0  0  0  0  0
   -7.2800    3.0600   -0.6320 O   0  0  0  0  0  0  0  0  0  0  0  0
   -3.4390   -2.0480   -0.1260 C   0  0  0  0  0  0  0  0  0  0  0  0
   -3.5940   -2.7590    1.0030 C   0  0  0  0  0  0  0  0  0  0  0  0
   -4.7030   -3.4680    1.2000 C   0  0  0  0  0  0  0  0  0  0  0  0
   -5.6830   -3.4720    0.2590 C   0  0  0  0  0  0  0  0  0  0  0  0
   -4.9320   -2.3600   -1.0120 S   0  0  0  0  0  0  0  0  0  0  0  0
    3.0570   -0.7930   -1.4200 O   0  0  0  0  0  0  0  0  0  0  0  0
  1  2  1  0
  2  3  1  0
  3  4  1  0
  3  9  1  0
  4  5  1  0
  5  6  1  0
  6  7  1  1
  6  8  1  0
  9 10  2  0
  9 11  1  0
 11 12  2  0
 11 36  1  0
 12 13  1  0
 13 14  2  0
 14 15  1  0
 14 36  1  0
 15 16  2  0
 15 17  1  0
 17 18  1  0
 18 19  1  0
 19 20  1  1
 19 21  1  0
 19 31  1  0
 21 22  1  0
 22 23  1  0
 23 24  2  0
 23 25  1  0
 26 25  1  6
 26 27  1  0
 26 30  1  0
 27 28  1  0
 28 29  1  0
 29 30  1  0
 31 32  2  0
 31 35  1  0
 32 33  1  0
 33 34  2  0
 34 35  1  0
M  END
