
     RDKit          3D

 36 38  0  0  0  0  0  0  0  0999 V2000
   -2.9800    2.2890    0.3160 C   0  0  0  0  0  0  0  0  0  0  0  0
   -1.9680    3.0690   -0.4440 C   0  0  0  0  0  0  0  0  0  0  0  0
   -1.3630    2.4030   -1.6130 C   0  0  0  0  0  0  0  0  0  0  0  0
   -1.9260    2.5470   -2.8090 O   0  0  0  0  0  0  0  0  0  0  0  0
   -1.2580    1.9090   -3.6750 N   0  0  0  0  0  0  0  0  0  0  0  0
   -0.2030    1.2960   -3.1080 C   0  0  0  0  0  0  0  0  0  0  0  0
    0.7720    0.4690   -3.8030 C   0  0  0  0  0  0  0  0  0  0  0  0
   -0.2560    1.6020   -1.7910 C   0  0  0  0  0  0  0  0  0  0  0  0
    0.6170    1.1400   -0.6650 C   0  0  1  0  0  0  0  0  0  0  0  0
    0.2780   -0.2740   -0.3830 N   0  0  0  0  0  0  0  0  0  0  0  0
   -0.9540   -0.9030   -0.4510 C   0  0  0  0  0  0  0  0  0  0  0  0
   -1.9400   -0.2490   -0.8230 O   0  0  0  0  0  0  0  0  0  0  0  0
   -1.1580   -2.3420   -0.0940 C   0  0  1  0  0  0  0  0  0  0  0  0
   -0.9550   -2.6010    1.3570 C   0  0  0  0  0  0  0  0  0  0  0  0
   -2.2280   -2.1020    1.9590 C   0  0  0  0  0  0  0  0  0  0  0  0
   -2.5990   -1.6700    3.2020 C   0  0  0  0  0  0  0  0  0  0  0  0
   -3.8860   -1.2780    3.4750 C   0  0  0  0  0  0  0  0  0  0  0  0
   -4.8140   -1.3370    2.4250 C   0  0  0  0  0  0  0  0  0  0  0  0
   -4.4920   -1.7640    1.1590 C   0  0  0  0  0  0  0  0  0  0  0  0
   -5.4460   -1.8340    0.0680 C   0  0  0  0  0  0  0  0  0  0  0  0
   -6.6910   -1.4990    0.2590 C   0  0  0  0  0  0  0  0  0  0  0  0
   -7.8210   -1.6070   -1.1310 S   0  0  0  0  0  0  0  0  0  0  0  0
   -9.4810   -1.2150   -0.5570 C   0  0  0  0  0  0  0  0  0  0  0  0
   -3.1560   -2.1490    0.9550 C   0  0  0  0  0  0  0  0  0  0  0  0
   -2.5530   -2.6230   -0.2300 O   0  0  0  0  0  0  0  0  0  0  0  0
    2.0620    1.1420   -1.0670 C   0  0  1  0  0  0  0  0  0  0  0  0
    2.3950    2.5780   -1.4810 C   0  0  0  0  0  0  0  0  0  0  0  0
    2.8990    0.8860    0.1290 C   0  0  0  0  0  0  0  0  0  0  0  0
    2.4480    0.3940    1.1590 O   0  0  0  0  0  0  0  0  0  0  0  0
    4.2840    1.2230    0.0670 N   0  0  0  0  0  0  0  0  0  0  0  0
    5.1780    0.9960    1.1650 C   0  0  0  0  0  0  0  0  0  0  0  0
    5.3290   -0.4860    1.5120 C   0  0  0  0  0  0  0  0  0  0  0  0
    5.8340   -1.1890    0.4150 O   0  0  0  0  0  0  0  0  0  0  0  0
    7.0670   -0.7570   -0.0180 C   0  0  0  0  0  0  0  0  0  0  0  0
    8.1460   -0.8640    1.0090 C   0  0  0  0  0  0  0  0  0  0  0  0
    9.3400   -0.4070    0.4590 O   0  0  0  0  0  0  0  0  0  0  0  0
  1  2  1  0
  2  3  1  0
  3  4  1  0
  3  8  2  0
  4  5  1  0
  5  6  2  0
  6  7  1  0
  6  8  1  0
  8  9  1  0
  9 10  1  6
  9 26  1  0
 10 11  1  0
 11 12  2  0
 13 11  1  1
 13 14  1  0
 13 25  1  0
 14 15  1  0
 15 16  2  0
 15 24  1  0
 16 17  1  0
 17 18  2  0
 18 19  1  0
 19 20  1  0
 19 24  2  0
 20 21  2  3
 21 22  1  0
 22 23  1  0
 24 25  1  0
 26 27  1  1
 26 28  1  0
 28 29  2  0
 28 30  1  0
 30 31  1  0
 31 32  1  0
 32 33  1  0
 33 34  1  0
 34 35  1  0
 35 36  1  0
M  END
