
     RDKit          3D

 36 38  0  0  0  0  0  0  0  0999 V2000
    6.4090   -4.4800   -0.6410 C   0  0  0  0  0  0  0  0  0  0  0  0
    5.9360   -3.0490   -1.6510 S   0  0  0  0  0  0  0  0  0  0  0  0
    4.8530   -1.9560   -0.8000 C   0  0  0  0  0  0  0  0  0  0  0  0
    5.2380   -0.8880   -0.0090 C   0  0  0  0  0  0  0  0  0  0  0  0
    6.6270   -0.5430    0.2580 C   0  0  0  0  0  0  0  0  0  0  0  0
    6.8710    0.5760    1.0130 O   0  0  0  0  0  0  0  0  0  0  0  0
    6.5310    1.7750    0.4510 C   0  0  0  0  0  0  0  0  0  0  0  0
    6.8180    2.9450    1.4010 C   0  0  2  0  0  0  0  0  0  0  0  0
    8.2880    2.9380    1.6980 C   0  0  0  0  0  0  0  0  0  0  0  0
    6.0610    2.7420    2.5550 O   0  0  0  0  0  0  0  0  0  0  0  0
    4.1350   -0.2970    0.4670 N   0  0  0  0  0  0  0  0  0  0  0  0
    3.0290   -0.9640   -0.0030 C   0  0  0  0  0  0  0  0  0  0  0  0
    1.6900   -0.7540    0.1930 C   0  0  0  0  0  0  0  0  0  0  0  0
    0.7330   -1.5790   -0.4010 C   0  0  0  0  0  0  0  0  0  0  0  0
   -0.6330   -1.3520   -0.1660 N   0  0  0  0  0  0  0  0  0  0  0  0
   -1.7400   -1.8510   -0.8820 C   0  0  0  0  0  0  0  0  0  0  0  0
   -1.5420   -2.5900   -1.8660 O   0  0  0  0  0  0  0  0  0  0  0  0
   -3.1560   -1.5030   -0.4730 C   0  0  2  0  0  0  0  0  0  0  0  0
   -3.3180    0.0030   -0.4700 C   0  0  0  0  0  0  0  0  0  0  0  0
   -3.0410    0.5830   -1.8470 C   0  0  0  0  0  0  0  0  0  0  0  0
   -3.2090    2.0170   -1.7870 N   0  0  0  0  0  0  0  0  0  0  0  0
   -4.4400    2.7860   -2.0310 C   0  0  0  0  0  0  0  0  0  0  0  0
   -4.3330    3.8430   -0.9420 C   0  0  0  0  0  0  0  0  0  0  0  0
   -2.8850    4.2710   -1.0660 C   0  0  0  0  0  0  0  0  0  0  0  0
   -2.2290    3.0100   -1.4800 C   0  0  0  0  0  0  0  0  0  0  0  0
   -0.9940    2.8460   -1.5500 O   0  0  0  0  0  0  0  0  0  0  0  0
   -3.4220   -2.0340    0.8910 C   0  0  0  0  0  0  0  0  0  0  0  0
   -4.7330   -1.8240    1.4600 C   0  0  0  0  0  0  0  0  0  0  0  0
   -4.9510   -2.1870    2.6420 O   0  0  0  0  0  0  0  0  0  0  0  0
   -5.7550   -1.2400    0.7500 O   0  0  0  0  0  0  0  0  0  0  0  0
   -7.0500   -1.0250    1.2800 C   0  0  1  0  0  0  0  0  0  0  0  0
   -7.2470    0.4940    1.3370 C   0  0  0  0  0  0  0  0  0  0  0  0
   -8.1160   -1.7060    0.4820 C   0  0  0  0  0  0  0  0  0  0  0  0
    1.1950   -2.5970   -1.1790 C   0  0  0  0  0  0  0  0  0  0  0  0
    2.5670   -2.8290   -1.3920 C   0  0  0  0  0  0  0  0  0  0  0  0
    3.4720   -2.0030   -0.7960 C   0  0  0  0  0  0  0  0  0  0  0  0
  1  2  1  0
  2  3  1  0
  3  4  2  0
  3 36  1  0
  4  5  1  0
  4 11  1  0
  5  6  1  0
  6  7  1  0
  7  8  1  0
  8  9  1  1
  8 10  1  0
 11 12  1  0
 12 13  2  0
 12 36  1  0
 13 14  1  0
 14 15  1  0
 14 34  2  0
 15 16  1  0
 16 17  2  0
 16 18  1  0
 18 19  1  1
 18 27  1  0
 19 20  1  0
 20 21  1  0
 21 22  1  0
 21 25  1  0
 22 23  1  0
 23 24  1  0
 24 25  1  0
 25 26  2  0
 27 28  1  0
 28 29  2  0
 28 30  1  0
 30 31  1  0
 31 32  1  6
 31 33  1  0
 34 35  1  0
 35 36  2  0
M  END
