
     RDKit          3D

 36 37  0  0  0  0  0  0  0  0999 V2000
    1.7140    7.5110    1.2400 C   0  0  0  0  0  0  0  0  0  0  0  0
    2.6770    6.8730    0.6040 C   0  0  0  0  0  0  0  0  0  0  0  0
    3.6080    6.2290   -0.0120 C   0  0  0  0  0  0  0  0  0  0  0  0
    3.1220    4.8390   -0.9910 S   0  0  0  0  0  0  0  0  0  0  0  0
    2.5050    3.4020   -0.4180 C   0  0  0  0  0  0  0  0  0  0  0  0
    2.5220    2.4060    0.4250 C   0  0  0  0  0  0  0  0  0  0  0  0
    1.5960    1.3870    0.3260 C   0  0  0  0  0  0  0  0  0  0  0  0
    1.8220    0.1170    0.8800 C   0  0  0  0  0  0  0  0  0  0  0  0
    0.9580   -0.8960    0.7920 O   0  0  0  0  0  0  0  0  0  0  0  0
   -0.2830   -1.0670    0.2480 C   0  0  0  0  0  0  0  0  0  0  0  0
   -1.3080   -0.2570    1.0770 C   0  0  0  0  0  0  0  0  0  0  0  0
   -2.6350   -0.5120    0.4100 N   0  0  0  0  0  0  0  0  0  0  0  0
   -3.0690    0.5880   -0.3600 C   0  0  0  0  0  0  0  0  0  0  0  0
   -2.7280    0.8130   -1.7380 C   0  0  0  0  0  0  0  0  0  0  0  0
   -3.2830    2.0620   -2.3240 C   0  0  0  0  0  0  0  0  0  0  0  0
   -4.7380    2.2200   -2.5140 C   0  0  1  0  0  0  0  0  0  0  0  0
   -5.2780    1.0930   -3.4400 C   0  0  0  0  0  0  0  0  0  0  0  0
   -5.6540    2.2540   -1.3490 C   0  0  0  0  0  0  0  0  0  0  0  0
   -3.3030   -1.6860    0.7590 C   0  0  0  0  0  0  0  0  0  0  0  0
   -3.3940   -2.5450    1.4900 O   0  0  0  0  0  0  0  0  0  0  0  0
   -4.4500   -1.8890   -0.4600 C   0  0  0  0  0  0  0  0  0  0  0  0
   -5.0770   -2.9350   -0.1620 O   0  0  0  0  0  0  0  0  0  0  0  0
   -5.7280   -3.9700    0.0900 C   0  0  0  0  0  0  0  0  0  0  0  0
    3.0560   -0.0380    1.5470 C   0  0  0  0  0  0  0  0  0  0  0  0
    3.3260   -1.2710    2.0580 C   0  0  0  0  0  0  0  0  0  0  0  0
    2.4680   -2.3950    2.0360 N   0  0  0  0  0  0  0  0  0  0  0  0
    3.2940   -3.4340    2.6420 C   0  0  0  0  0  0  0  0  0  0  0  0
    2.7730   -4.4980    3.1390 O   0  0  0  0  0  0  0  0  0  0  0  0
    4.6900   -3.0300    2.5870 C   0  0  1  0  0  0  0  0  0  0  0  0
    5.5490   -3.6200    1.5350 C   0  0  0  0  0  0  0  0  0  0  0  0
    5.2070   -3.3540    0.1200 C   0  0  0  0  0  0  0  0  0  0  0  0
    6.1440   -4.1270   -0.7930 C   0  0  0  0  0  0  0  0  0  0  0  0
    4.5640   -1.6100    2.6430 O   0  0  0  0  0  0  0  0  0  0  0  0
    3.8840    0.9490    1.6180 N   0  0  0  0  0  0  0  0  0  0  0  0
    3.7280    2.2000    1.1040 C   0  0  0  0  0  0  0  0  0  0  0  0
    4.5720    3.0430    1.2310 O   0  0  0  0  0  0  0  0  0  0  0  0
  1  2  3  0
  2  3  1  0
  3  4  1  0
  4  5  1  0
  5  6  2  3
  6  7  1  0
  6 35  1  0
  7  8  2  0
  8  9  1  0
  8 24  1  0
  9 10  1  0
 10 11  1  0
 11 12  1  0
 12 13  1  0
 12 19  1  0
 13 14  1  0
 14 15  1  0
 15 16  1  0
 16 17  1  6
 16 18  1  0
 19 20  2  0
 19 21  1  0
 21 22  1  0
 22 23  1  0
 24 25  2  3
 24 34  1  0
 25 26  1  0
 25 33  1  0
 26 27  1  0
 27 28  2  0
 27 29  1  0
 29 30  1  6
 29 33  1  0
 30 31  1  0
 31 32  1  0
 34 35  1  0
 35 36  2  0
M  END
