
     RDKit          3D

 36 38  0  0  0  0  0  0  0  0999 V2000
   -6.7180    4.6570    1.9710 C   0  0  0  0  0  0  0  0  0  0  0  0
   -6.4680    3.3680    1.2730 C   0  0  0  0  0  0  0  0  0  0  0  0
   -6.9930    3.2060    0.0230 C   0  0  0  0  0  0  0  0  0  0  0  0
   -6.7880    2.0580   -0.7010 C   0  0  0  0  0  0  0  0  0  0  0  0
   -6.0150    1.0660   -0.1100 C   0  0  0  0  0  0  0  0  0  0  0  0
   -5.4490    1.1820    1.1710 C   0  0  0  0  0  0  0  0  0  0  0  0
   -4.6800    0.1490    1.6530 O   0  0  0  0  0  0  0  0  0  0  0  0
   -3.2980    0.1480    1.3800 C   0  0  0  0  0  0  0  0  0  0  0  0
   -2.7850    1.3150    0.7720 C   0  0  0  0  0  0  0  0  0  0  0  0
   -1.4450    1.3820    0.4680 C   0  0  0  0  0  0  0  0  0  0  0  0
   -0.6480    0.2730    0.7830 C   0  0  0  0  0  0  0  0  0  0  0  0
    0.7020    0.4530    0.4320 O   0  0  0  0  0  0  0  0  0  0  0  0
    1.6630   -0.5410    0.6710 C   0  0  0  0  0  0  0  0  0  0  0  0
    3.0450   -0.0230    0.2170 C   0  0  1  0  0  0  0  0  0  0  0  0
    3.2790    1.1220    0.9820 O   0  0  0  0  0  0  0  0  0  0  0  0
    4.1020   -1.0630    0.4290 C   0  0  0  0  0  0  0  0  0  0  0  0
    5.4550   -0.6810    0.0680 C   0  0  0  0  0  0  0  0  0  0  0  0
    5.7050   -0.3560   -1.4500 C   0  0  1  0  0  0  0  0  0  0  0  0
    7.1390    0.0250   -1.4150 C   0  0  0  0  0  0  0  0  0  0  0  0
    7.8510    0.4580   -2.6200 C   0  0  0  0  0  0  0  0  0  0  0  0
    7.2180    1.5560   -3.2590 O   0  0  0  0  0  0  0  0  0  0  0  0
    5.1550   -1.4670   -2.1810 C   0  0  0  0  0  0  0  0  0  0  0  0
    5.1060   -1.6230   -3.6420 C   0  0  0  0  0  0  0  0  0  0  0  0
    6.3080   -1.7400   -4.3910 C   0  0  0  0  0  0  0  0  0  0  0  0
    7.3600   -1.8360   -5.0580 N   0  0  0  0  0  0  0  0  0  0  0  0
   -1.1430   -0.8230    1.3530 C   0  0  0  0  0  0  0  0  0  0  0  0
   -2.5280   -0.9350    1.6850 C   0  0  0  0  0  0  0  0  0  0  0  0
   -2.9580   -2.1240    2.3960 C   0  0  0  0  0  0  0  0  0  0  0  0
   -4.1240   -2.8460    1.5590 N   0  0  0  0  0  0  0  0  0  0  0  0
   -5.2530   -2.6640    1.9370 C   0  0  0  0  0  0  0  0  0  0  0  0
   -5.6340   -2.1160    3.0880 O   0  0  0  0  0  0  0  0  0  0  0  0
   -6.3240   -3.0590    1.0980 N   0  0  0  0  0  0  0  0  0  0  0  0
   -5.4740   -3.6880   -0.1900 S   0  0  0  0  0  0  0  0  0  0  0  0
   -3.4580   -3.3470    0.5200 C   0  0  0  0  0  0  0  0  0  0  0  0
   -3.1200   -3.8560   -0.4990 O   0  0  0  0  0  0  0  0  0  0  0  0
   -5.7200    2.3800    1.8320 C   0  0  0  0  0  0  0  0  0  0  0  0
  1  2  1  0
  2  3  2  0
  2 36  1  0
  3  4  1  0
  4  5  2  0
  5  6  1  0
  6  7  1  0
  6 36  2  0
  7  8  1  0
  8  9  2  0
  8 27  1  0
  9 10  1  0
 10 11  2  0
 11 12  1  0
 11 26  1  0
 12 13  1  0
 13 14  1  0
 14 15  1  1
 14 16  1  0
 16 17  1  0
 18 17  1  1
 18 19  1  0
 18 22  1  0
 19 20  1  0
 20 21  1  0
 22 23  1  0
 23 24  1  0
 24 25  3  0
 26 27  2  0
 27 28  1  0
 28 29  1  0
 29 30  1  0
 29 34  1  0
 30 31  2  0
 30 32  1  0
 32 33  1  0
 33 34  1  0
 34 35  2  0
M  END
