
     RDKit          3D

 36 40  0  0  0  0  0  0  0  0999 V2000
   -7.9320   -3.0020    0.2980 N   0  0  0  0  0  0  0  0  0  0  0  0
   -7.2650   -1.4280    0.4020 S   0  0  1  0  0  0  0  0  0  0  0  0
   -7.8380   -0.5760   -0.6930 O   0  0  0  0  0  0  0  0  0  0  0  0
   -7.6310   -0.8300    1.7090 O   0  0  0  0  0  0  0  0  0  0  0  0
   -5.5070   -1.4670    0.2130 C   0  0  0  0  0  0  0  0  0  0  0  0
   -4.9340   -1.3430   -1.0390 C   0  0  0  0  0  0  0  0  0  0  0  0
   -3.5660   -1.3690   -1.2310 C   0  0  0  0  0  0  0  0  0  0  0  0
   -2.7220   -1.5230   -0.1540 C   0  0  0  0  0  0  0  0  0  0  0  0
   -1.2430   -1.5600   -0.2610 C   0  0  0  0  0  0  0  0  0  0  0  0
   -0.7410   -0.1680   -0.1170 C   0  0  0  0  0  0  0  0  0  0  0  0
    0.7130   -0.0340   -0.2030 N   0  0  0  0  0  0  0  0  0  0  0  0
    1.3200    0.6630   -1.2380 C   0  0  0  0  0  0  0  0  0  0  0  0
    0.5520    1.2560   -2.3400 C   0  0  0  0  0  0  0  0  0  0  0  0
    1.0500    2.4200   -2.9560 C   0  0  0  0  0  0  0  0  0  0  0  0
    0.4500    2.9770   -4.0680 C   0  0  0  0  0  0  0  0  0  0  0  0
   -0.6580    2.4200   -4.6200 C   0  0  0  0  0  0  0  0  0  0  0  0
   -1.1710    1.2900   -4.0530 C   0  0  0  0  0  0  0  0  0  0  0  0
   -0.5500    0.7300   -2.9200 C   0  0  0  0  0  0  0  0  0  0  0  0
    2.6620    0.9000   -1.2570 C   0  0  0  0  0  0  0  0  0  0  0  0
    3.4500    0.3850   -0.1620 C   0  0  0  0  0  0  0  0  0  0  0  0
    4.9190    0.6310   -0.1380 C   0  0  0  0  0  0  0  0  0  0  0  0
    5.5060    1.3640   -1.1420 C   0  0  0  0  0  0  0  0  0  0  0  0
    6.8830    1.6260   -1.1790 C   0  0  0  0  0  0  0  0  0  0  0  0
    7.7050    1.1480   -0.1930 C   0  0  0  0  0  0  0  0  0  0  0  0
    7.1300    0.4170    0.8100 C   0  0  0  0  0  0  0  0  0  0  0  0
    5.7500    0.1570    0.8430 C   0  0  0  0  0  0  0  0  0  0  0  0
    2.8990   -0.2990    0.8100 C   0  0  0  0  0  0  0  0  0  0  0  0
    1.4810   -0.6050    0.8810 C   0  0  1  0  0  0  0  0  0  0  0  0
    0.9100   -0.2600    2.2070 C   0  0  0  0  0  0  0  0  0  0  0  0
    0.6350    1.0480    2.5200 C   0  0  0  0  0  0  0  0  0  0  0  0
    0.0950    1.3550    3.7820 C   0  0  0  0  0  0  0  0  0  0  0  0
   -0.1620    0.3620    4.7070 C   0  0  0  0  0  0  0  0  0  0  0  0
    0.1140   -0.9350    4.3850 C   0  0  0  0  0  0  0  0  0  0  0  0
    0.6430   -1.2160    3.1440 C   0  0  0  0  0  0  0  0  0  0  0  0
   -3.3050   -1.6450    1.0880 C   0  0  0  0  0  0  0  0  0  0  0  0
   -4.6740   -1.6200    1.2860 C   0  0  0  0  0  0  0  0  0  0  0  0
  2  1  1  1
  2  3  2  0
  2  4  2  0
  2  5  1  0
  5  6  2  0
  5 36  1  0
  6  7  1  0
  7  8  2  0
  8  9  1  0
  8 35  1  0
  9 10  1  0
 10 11  1  0
 11 12  1  0
 11 28  1  0
 12 13  1  0
 12 19  2  0
 13 14  2  0
 13 18  1  0
 14 15  1  0
 15 16  2  0
 16 17  1  0
 17 18  2  0
 19 20  1  0
 20 21  1  0
 20 27  2  0
 21 22  2  0
 21 26  1  0
 22 23  1  0
 23 24  2  0
 24 25  1  0
 25 26  2  0
 27 28  1  0
 28 29  1  1
 29 30  2  0
 29 34  1  0
 30 31  1  0
 31 32  2  0
 32 33  1  0
 33 34  2  0
 35 36  2  0
M  END
