
     RDKit          3D

 36 37  0  0  0  0  0  0  0  0999 V2000
    7.7470    0.4390    0.6200 C   0  0  0  0  0  0  0  0  0  0  0  0
    7.4310   -0.6050   -0.4300 C   0  0  0  0  0  0  0  0  0  0  0  0
    6.2490   -0.2190   -1.0750 O   0  0  0  0  0  0  0  0  0  0  0  0
    5.6490   -0.9280   -2.0950 C   0  0  0  0  0  0  0  0  0  0  0  0
    4.4110   -0.6940   -2.4550 C   0  0  0  0  0  0  0  0  0  0  0  0
    3.5770    0.3200   -1.8190 C   0  0  0  0  0  0  0  0  0  0  0  0
    2.3930    0.5390   -2.1690 O   0  0  0  0  0  0  0  0  0  0  0  0
    4.0580    1.1130   -0.7700 O   0  0  0  0  0  0  0  0  0  0  0  0
    3.2590    2.0910   -0.1520 C   0  0  2  0  0  0  0  0  0  0  0  0
    3.8140    3.4910   -0.3710 C   0  0  0  0  0  0  0  0  0  0  0  0
    3.0490    1.8470    1.3110 C   0  0  0  0  0  0  0  0  0  0  0  0
    2.3730    0.5310    1.5550 C   0  0  0  0  0  0  0  0  0  0  0  0
    1.0710    0.4970    0.9080 N   0  0  0  0  0  0  0  0  0  0  0  0
    0.2540   -0.6940    1.0230 C   0  0  0  0  0  0  0  0  0  0  0  0
    0.7220   -1.5970    1.6660 O   0  0  0  0  0  0  0  0  0  0  0  0
   -0.9960   -0.8170    0.4430 N   0  0  0  0  0  0  0  0  0  0  0  0
   -2.0310   -1.7370    0.3000 C   0  0  0  0  0  0  0  0  0  0  0  0
   -2.0550   -3.0430    0.7220 C   0  0  0  0  0  0  0  0  0  0  0  0
   -1.0730   -3.6640    1.3540 C   0  0  0  0  0  0  0  0  0  0  0  0
   -1.1740   -5.0300    1.7410 C   0  0  0  0  0  0  0  0  0  0  0  0
   -2.8280   -5.4430    1.1350 S   0  0  0  0  0  0  0  0  0  0  0  0
   -3.2240   -3.7950    0.4370 C   0  0  0  0  0  0  0  0  0  0  0  0
   -4.2700   -3.4150   -0.1650 C   0  0  0  0  0  0  0  0  0  0  0  0
   -5.4390   -4.2870   -0.4130 C   0  0  0  0  0  0  0  0  0  0  0  0
   -5.3510   -5.6830    0.0700 C   0  0  0  0  0  0  0  0  0  0  0  0
   -4.3800   -2.0450   -0.6510 C   0  0  0  0  0  0  0  0  0  0  0  0
   -5.3890   -1.6430   -1.2380 O   0  0  0  0  0  0  0  0  0  0  0  0
   -3.2140   -1.1710   -0.4000 C   0  0  0  0  0  0  0  0  0  0  0  0
   -3.4720    0.1220   -0.5200 C   0  0  0  0  0  0  0  0  0  0  0  0
   -2.8670    1.3280   -0.0890 C   0  0  0  0  0  0  0  0  0  0  0  0
   -3.2990    2.5450   -0.3770 C   0  0  0  0  0  0  0  0  0  0  0  0
   -2.4620    3.6800    0.2140 C   0  0  0  0  0  0  0  0  0  0  0  0
   -3.3930    4.4610    1.1020 C   0  0  0  0  0  0  0  0  0  0  0  0
   -4.4240    2.9320   -1.1560 C   0  0  0  0  0  0  0  0  0  0  0  0
   -4.7000    4.3500   -1.3340 N   0  0  0  0  0  0  0  0  0  0  0  0
   -5.2160    2.1540   -1.7140 O   0  0  0  0  0  0  0  0  0  0  0  0
  1  2  1  0
  2  3  1  0
  3  4  1  0
  4  5  2  3
  5  6  1  0
  6  7  2  0
  6  8  1  0
  8  9  1  0
  9 10  1  1
  9 11  1  0
 11 12  1  0
 12 13  1  0
 13 14  1  0
 14 15  2  0
 14 16  1  0
 16 17  1  0
 17 18  2  0
 17 28  1  0
 18 19  1  0
 18 22  1  0
 19 20  2  0
 20 21  1  0
 21 22  1  0
 22 23  2  0
 23 24  1  0
 23 26  1  0
 24 25  1  0
 26 27  2  0
 26 28  1  0
 28 29  2  3
 29 30  1  0
 30 31  2  3
 31 32  1  0
 31 34  1  0
 32 33  1  0
 34 35  1  0
 34 36  2  0
M  END
