
     RDKit          3D

 36 37  0  0  0  0  0  0  0  0999 V2000
   -1.0170   -5.9960    0.7910 C   0  0  0  0  0  0  0  0  0  0  0  0
   -0.6860   -4.9470    0.1090 C   0  0  0  0  0  0  0  0  0  0  0  0
   -1.1490   -3.6140    0.1660 C   0  0  0  0  0  0  0  0  0  0  0  0
   -2.0490   -3.0100    0.9190 C   0  0  0  0  0  0  0  0  0  0  0  0
   -2.8430   -3.5180    1.9020 C   0  0  0  0  0  0  0  0  0  0  0  0
   -3.7290   -2.5620    2.3440 C   0  0  0  0  0  0  0  0  0  0  0  0
   -4.7690   -2.7340    3.4130 C   0  0  0  0  0  0  0  0  0  0  0  0
   -3.4690   -1.4700    1.6320 N   0  0  0  0  0  0  0  0  0  0  0  0
   -2.4270   -1.6790    0.7240 C   0  0  0  0  0  0  0  0  0  0  0  0
   -1.8020   -0.6250    0.3100 C   0  0  0  0  0  0  0  0  0  0  0  0
   -2.3530    0.6760    0.0930 C   0  0  0  0  0  0  0  0  0  0  0  0
   -3.4280    1.3420   -0.0090 C   0  0  0  0  0  0  0  0  0  0  0  0
   -4.8350    1.1960    0.0150 C   0  0  0  0  0  0  0  0  0  0  0  0
   -5.4610    0.1310    0.1170 O   0  0  0  0  0  0  0  0  0  0  0  0
   -5.6920    2.3610   -0.0850 N   0  0  0  0  0  0  0  0  0  0  0  0
   -7.1530    2.2050   -0.0590 C   0  0  0  0  0  0  0  0  0  0  0  0
   -0.2900   -0.6890    0.3320 C   0  0  0  0  0  0  0  0  0  0  0  0
    0.3420   -1.6050    0.7780 O   0  0  0  0  0  0  0  0  0  0  0  0
    0.4190    0.3960   -0.2070 O   0  0  0  0  0  0  0  0  0  0  0  0
    1.8310    0.4140   -0.2290 C   0  0  1  0  0  0  0  0  0  0  0  0
    2.3830    0.7150   -1.5860 C   0  0  0  0  0  0  0  0  0  0  0  0
    2.0030   -0.2310   -2.6270 C   0  0  0  0  0  0  0  0  0  0  0  0
    1.2570   -1.1990   -2.3500 O   0  0  0  0  0  0  0  0  0  0  0  0
    2.4550   -0.0910   -3.9560 N   0  0  0  0  0  0  0  0  0  0  0  0
    2.1380   -0.9580   -5.0390 C   0  0  0  0  0  0  0  0  0  0  0  0
    0.6540   -1.0430   -5.3300 C   0  0  0  0  0  0  0  0  0  0  0  0
    0.4800   -1.9840   -6.5030 C   0  0  0  0  0  0  0  0  0  0  0  0
    2.2660    1.4610    0.7520 C   0  0  0  0  0  0  0  0  0  0  0  0
    1.4060    2.0830    1.4230 O   0  0  0  0  0  0  0  0  0  0  0  0
    3.5880    1.7790    0.9560 O   0  0  0  0  0  0  0  0  0  0  0  0
    3.9460    2.7560    1.8780 C   0  0  1  0  0  0  0  0  0  0  0  0
    4.8690    2.2880    2.9530 C   0  0  0  0  0  0  0  0  0  0  0  0
    4.7850    3.1380    4.1970 C   0  0  0  0  0  0  0  0  0  0  0  0
    5.3000    4.5340    3.9930 C   0  0  0  0  0  0  0  0  0  0  0  0
    4.5640    5.2890    2.4930 S   0  0  0  0  0  0  0  0  0  0  0  0
    4.5770    3.9730    1.2210 C   0  0  0  0  0  0  0  0  0  0  0  0
  1  2  2  0
  2  3  1  0
  3  4  2  3
  4  5  1  0
  4  9  1  0
  5  6  2  0
  6  7  1  0
  6  8  1  0
  8  9  1  0
  9 10  2  3
 10 11  1  0
 10 17  1  0
 11 12  2  3
 12 13  1  0
 13 14  2  0
 13 15  1  0
 15 16  1  0
 17 18  2  0
 17 19  1  0
 19 20  1  0
 20 21  1  6
 20 28  1  0
 21 22  1  0
 22 23  2  0
 22 24  1  0
 24 25  1  0
 25 26  1  0
 26 27  1  0
 28 29  2  0
 28 30  1  0
 31 30  1  6
 31 32  1  0
 31 36  1  0
 32 33  1  0
 33 34  1  0
 34 35  1  0
 35 36  1  0
M  END
