
     RDKit          3D

 35 37  0  0  0  0  0  0  0  0999 V2000
   -6.1500   -1.4420    2.7070 C   0  0  0  0  0  0  0  0  0  0  0  0
   -5.0660   -0.7150    2.1620 O   0  0  0  0  0  0  0  0  0  0  0  0
   -4.1300   -1.2950    1.3200 C   0  0  0  0  0  0  0  0  0  0  0  0
   -4.1640   -2.6090    0.9360 C   0  0  0  0  0  0  0  0  0  0  0  0
   -3.2160   -3.1590    0.0950 C   0  0  0  0  0  0  0  0  0  0  0  0
   -2.1870   -2.3900   -0.3940 C   0  0  0  0  0  0  0  0  0  0  0  0
   -1.2140   -2.8920   -1.2380 O   0  0  0  0  0  0  0  0  0  0  0  0
   -1.2130   -4.2380   -1.6570 C   0  0  0  0  0  0  0  0  0  0  0  0
   -2.1210   -1.0420   -0.0220 C   0  0  0  0  0  0  0  0  0  0  0  0
   -1.0440   -0.2830   -0.5330 N   0  0  0  0  0  0  0  0  0  0  0  0
   -0.7510    1.0700   -0.3340 C   0  0  0  0  0  0  0  0  0  0  0  0
   -1.5490    1.7310    0.3640 O   0  0  0  0  0  0  0  0  0  0  0  0
    0.4200    1.7450   -0.8760 C   0  0  0  0  0  0  0  0  0  0  0  0
    0.7430    3.0340   -0.8330 C   0  0  0  0  0  0  0  0  0  0  0  0
    0.0250    4.1320   -0.2290 C   0  0  0  0  0  0  0  0  0  0  0  0
   -1.0760    4.0140    0.3660 O   0  0  0  0  0  0  0  0  0  0  0  0
    0.5180    5.4360   -0.2640 O   0  0  0  0  0  0  0  0  0  0  0  0
   -0.2240    6.4620    0.3410 C   0  0  0  0  0  0  0  0  0  0  0  0
   -0.3460    6.1600    1.7910 C   0  0  0  0  0  0  0  0  0  0  0  0
   -1.1080    7.0590    2.5640 N   0  0  0  0  0  0  0  0  0  0  0  0
    0.1970    5.1570    2.3180 O   0  0  0  0  0  0  0  0  0  0  0  0
    2.0100    3.2620   -1.6530 C   0  0  0  0  0  0  0  0  0  0  0  0
    1.9680    2.0270   -2.5730 C   0  0  0  0  0  0  0  0  0  0  0  0
    1.5530    1.0190   -1.4880 C   0  0  0  0  0  0  0  0  0  0  0  0
    2.1650   -0.0670   -1.1700 C   0  0  0  0  0  0  0  0  0  0  0  0
    3.2910   -0.5150   -2.0570 C   0  0  0  0  0  0  0  0  0  0  0  0
    1.8780   -1.0330    0.2900 S   0  0  0  0  0  0  0  0  0  0  0  0
    2.9390   -2.4540    0.4040 C   0  0  0  0  0  0  0  0  0  0  0  0
    4.1970   -2.4440    0.9650 C   0  0  0  0  0  0  0  0  0  0  0  0
    4.9750   -3.5850    1.0430 C   0  0  0  0  0  0  0  0  0  0  0  0
    6.1230   -3.4850    1.5770 O   0  0  0  0  0  0  0  0  0  0  0  0
    4.4700   -4.7620    0.5420 C   0  0  0  0  0  0  0  0  0  0  0  0
    3.2180   -4.7670   -0.0170 C   0  0  0  0  0  0  0  0  0  0  0  0
    2.4990   -3.6280   -0.0690 N   0  0  0  0  0  0  0  0  0  0  0  0
   -3.0800   -0.5150    0.8190 C   0  0  0  0  0  0  0  0  0  0  0  0
  1  2  1  0
  2  3  1  0
  3  4  2  0
  3 35  1  0
  4  5  1  0
  5  6  2  0
  6  7  1  0
  6  9  1  0
  7  8  1  0
  9 10  1  0
  9 35  2  0
 10 11  1  0
 11 12  2  0
 11 13  1  0
 13 14  2  0
 13 24  1  0
 14 15  1  0
 14 22  1  0
 15 16  2  0
 15 17  1  0
 17 18  1  0
 18 19  1  0
 19 20  1  0
 19 21  2  0
 22 23  1  0
 23 24  1  0
 24 25  2  3
 25 26  1  0
 25 27  1  0
 27 28  1  0
 28 29  2  0
 28 34  1  0
 29 30  1  0
 30 31  2  0
 30 32  1  0
 32 33  2  0
 33 34  1  0
M  END
