
     RDKit          3D

 35 37  0  0  0  0  0  0  0  0999 V2000
    7.7520   -4.5220   -3.1130 C   0  0  0  0  0  0  0  0  0  0  0  0
    8.7400   -3.6900   -2.3500 C   0  0  0  0  0  0  0  0  0  0  0  0
    8.1920   -3.0850   -1.0910 C   0  0  0  0  0  0  0  0  0  0  0  0
    7.1190   -2.1990   -1.3340 N   0  0  0  0  0  0  0  0  0  0  0  0
    6.4380   -1.6290   -0.1680 C   0  0  0  0  0  0  0  0  0  0  0  0
    6.8110   -1.9990    0.9590 O   0  0  0  0  0  0  0  0  0  0  0  0
    5.3290   -0.6320   -0.3510 C   0  0  0  0  0  0  0  0  0  0  0  0
    4.4490   -0.6890    0.9010 C   0  0  0  0  0  0  0  0  0  0  0  0
    3.5930    0.4360    1.0030 C   0  0  0  0  0  0  0  0  0  0  0  0
    2.6110    0.7130    2.0270 C   0  0  0  0  0  0  0  0  0  0  0  0
    2.0200    1.8580    1.8880 C   0  0  0  0  0  0  0  0  0  0  0  0
    2.2090    2.7570    0.9810 C   0  0  0  0  0  0  0  0  0  0  0  0
    1.6740    4.1850    0.7430 C   0  0  0  0  0  0  0  0  0  0  0  0
    0.4010    4.1800    0.6020 C   0  0  0  0  0  0  0  0  0  0  0  0
   -0.3890    2.9150    0.6370 C   0  0  0  0  0  0  0  0  0  0  0  0
   -1.6530    3.1800    0.3080 C   0  0  0  0  0  0  0  0  0  0  0  0
   -2.6710    2.0710    0.2740 C   0  0  0  0  0  0  0  0  0  0  0  0
   -2.4040    0.9120    0.5590 O   0  0  0  0  0  0  0  0  0  0  0  0
   -3.9720    2.4570   -0.1100 N   0  0  0  0  0  0  0  0  0  0  0  0
   -5.1030    1.5320   -0.1300 C   0  0  0  0  0  0  0  0  0  0  0  0
   -5.1500    0.3510    0.4610 C   0  0  0  0  0  0  0  0  0  0  0  0
   -6.3720   -0.3490    0.4970 C   0  0  0  0  0  0  0  0  0  0  0  0
   -7.5280    0.0870   -0.0360 C   0  0  0  0  0  0  0  0  0  0  0  0
   -8.8160   -0.4690    0.0110 N   0  0  0  0  0  0  0  0  0  0  0  0
   -9.2250   -1.2660    1.1640 C   0  0  0  0  0  0  0  0  0  0  0  0
   -8.3440   -1.4110    2.0370 O   0  0  0  0  0  0  0  0  0  0  0  0
  -10.5180   -1.8180    1.2890 C   0  0  0  0  0  0  0  0  0  0  0  0
  -11.4180   -1.7820    0.3970 O   0  0  0  0  0  0  0  0  0  0  0  0
  -10.9530   -2.4950    2.4750 O   0  0  0  0  0  0  0  0  0  0  0  0
   -7.4260    1.3720   -0.6780 C   0  0  0  0  0  0  0  0  0  0  0  0
   -6.2610    2.0960   -0.7350 C   0  0  0  0  0  0  0  0  0  0  0  0
   -1.8010    4.4730    0.0630 O   0  0  0  0  0  0  0  0  0  0  0  0
   -0.4890    5.1590    0.2410 C   0  0  0  0  0  0  0  0  0  0  0  0
   -0.5760    6.4290   -0.0060 O   0  0  0  0  0  0  0  0  0  0  0  0
    3.4650    1.9170    0.0330 S   0  0  0  0  0  0  0  0  0  0  0  0
  1  2  1  0
  2  3  1  0
  3  4  1  0
  4  5  1  0
  5  6  2  0
  5  7  1  0
  7  8  1  0
  8  9  1  0
  9 10  2  0
  9 35  1  0
 10 11  1  0
 11 12  2  0
 12 13  1  0
 12 35  1  0
 13 14  2  3
 14 15  1  0
 14 33  1  0
 15 16  2  0
 16 17  1  0
 16 32  1  0
 17 18  2  0
 17 19  1  0
 19 20  1  0
 20 21  2  0
 20 31  1  0
 21 22  1  0
 22 23  2  0
 23 24  1  0
 23 30  1  0
 24 25  1  0
 25 26  2  0
 25 27  1  0
 27 28  2  0
 27 29  1  0
 30 31  2  0
 32 33  1  0
 33 34  2  0
M  END
