
     RDKit          3D

 35 37  0  0  0  0  0  0  0  0999 V2000
    0.9960   -3.0900    0.5840 C   0  0  0  0  0  0  0  0  0  0  0  0
    0.5230   -1.7090    0.7320 C   0  0  0  0  0  0  0  0  0  0  0  0
   -0.1660   -1.0040   -0.1930 C   0  0  0  0  0  0  0  0  0  0  0  0
   -0.4750   -1.6350   -1.4020 N   0  0  0  0  0  0  0  0  0  0  0  0
   -1.7940   -2.0240   -1.8020 C   0  0  0  0  0  0  0  0  0  0  0  0
   -2.7300   -1.7680   -1.0040 O   0  0  0  0  0  0  0  0  0  0  0  0
   -2.0370   -2.6510   -3.0080 O   0  0  0  0  0  0  0  0  0  0  0  0
   -3.3450   -3.0310   -3.4000 C   0  0  0  0  0  0  0  0  0  0  0  0
   -3.3330   -3.7150   -4.7220 C   0  0  0  0  0  0  0  0  0  0  0  0
   -2.1550   -3.9860   -5.4370 N   0  0  0  0  0  0  0  0  0  0  0  0
   -4.4450   -4.0590   -5.2030 O   0  0  0  0  0  0  0  0  0  0  0  0
   -0.4540    0.3830    0.1010 C   0  0  0  0  0  0  0  0  0  0  0  0
   -1.0860    1.2540   -0.5630 C   0  0  0  0  0  0  0  0  0  0  0  0
   -1.7530    1.2260   -1.8490 C   0  0  0  0  0  0  0  0  0  0  0  0
   -1.3820    0.8160   -3.0960 C   0  0  0  0  0  0  0  0  0  0  0  0
   -2.4520    1.0210   -3.9570 C   0  0  0  0  0  0  0  0  0  0  0  0
   -3.4430    1.5570   -3.2020 C   0  0  0  0  0  0  0  0  0  0  0  0
   -4.8170    1.9890   -3.5720 C   0  0  0  0  0  0  0  0  0  0  0  0
   -5.8000    0.8780   -3.3630 C   0  0  0  0  0  0  0  0  0  0  0  0
   -3.0060    1.6680   -1.9510 O   0  0  0  0  0  0  0  0  0  0  0  0
    0.0790    0.8210    1.3410 O   0  0  0  0  0  0  0  0  0  0  0  0
   -0.4960    1.1200    2.5310 C   0  0  0  0  0  0  0  0  0  0  0  0
    0.6300    1.4680    3.5380 C   0  0  0  0  0  0  0  0  0  0  0  0
    0.2700    1.7490    4.6780 O   0  0  0  0  0  0  0  0  0  0  0  0
    1.9510    1.4380    3.1030 N   0  0  0  0  0  0  0  0  0  0  0  0
    3.0980    1.7110    3.8990 C   0  0  0  0  0  0  0  0  0  0  0  0
    2.9660    2.2840    5.1220 C   0  0  0  0  0  0  0  0  0  0  0  0
    4.1350    2.4760    5.8510 C   0  0  0  0  0  0  0  0  0  0  0  0
    5.3450    2.0930    5.3280 C   0  0  0  0  0  0  0  0  0  0  0  0
    6.9650    2.1840    5.9810 S   0  0  0  0  0  0  0  0  0  0  0  0
    7.8080    1.4240    4.5440 C   0  0  0  0  0  0  0  0  0  0  0  0
    6.7580    1.1770    3.7050 C   0  0  0  0  0  0  0  0  0  0  0  0
    7.0630    0.5600    2.4340 O   0  0  0  0  0  0  0  0  0  0  0  0
    5.5150    1.5140    4.1010 C   0  0  0  0  0  0  0  0  0  0  0  0
    4.3120    1.3300    3.3820 C   0  0  0  0  0  0  0  0  0  0  0  0
  1  2  1  0
  2  3  2  3
  3  4  1  0
  3 12  1  0
  4  5  1  0
  5  6  2  0
  5  7  1  0
  7  8  1  0
  8  9  1  0
  9 10  1  0
  9 11  2  0
 12 13  2  3
 12 21  1  0
 13 14  1  0
 14 15  2  0
 14 20  1  0
 15 16  1  0
 16 17  2  0
 17 18  1  0
 17 20  1  0
 18 19  1  0
 21 22  1  0
 22 23  1  0
 23 24  2  0
 23 25  1  0
 25 26  1  0
 26 27  2  0
 26 35  1  0
 27 28  1  0
 28 29  2  0
 29 30  1  0
 29 34  1  0
 30 31  1  0
 31 32  2  0
 32 33  1  0
 32 34  1  0
 34 35  2  0
M  END
