
     RDKit          3D

 35 37  0  0  0  0  0  0  0  0999 V2000
   10.5300   -3.2060    0.3150 C   0  0  0  0  0  0  0  0  0  0  0  0
   10.0660   -1.9240    0.7560 O   0  0  0  0  0  0  0  0  0  0  0  0
    8.8080   -1.4520    0.4320 C   0  0  0  0  0  0  0  0  0  0  0  0
    8.0440   -2.1540   -0.2670 O   0  0  0  0  0  0  0  0  0  0  0  0
    8.4260   -0.0990    0.9470 C   0  0  0  0  0  0  0  0  0  0  0  0
    7.0190    0.2340    0.4830 C   0  0  0  0  0  0  0  0  0  0  0  0
    6.6300    1.3460   -0.7960 S   0  0  0  0  0  0  0  0  0  0  0  0
    4.8840    1.1210   -0.6440 C   0  0  0  0  0  0  0  0  0  0  0  0
    4.7230    0.2520    0.3290 C   0  0  0  0  0  0  0  0  0  0  0  0
    3.3910   -0.2330    0.7920 C   0  0  0  0  0  0  0  0  0  0  0  0
    2.3150    0.3880    0.0320 N   0  0  0  0  0  0  0  0  0  0  0  0
    0.9870    0.0320    0.3300 C   0  0  0  0  0  0  0  0  0  0  0  0
    0.8130   -0.8250    1.2610 O   0  0  0  0  0  0  0  0  0  0  0  0
   -0.1860    0.5510   -0.3250 C   0  0  0  0  0  0  0  0  0  0  0  0
   -1.4470    0.0840    0.0830 C   0  0  0  0  0  0  0  0  0  0  0  0
   -2.6270    0.5250   -0.4970 C   0  0  0  0  0  0  0  0  0  0  0  0
   -3.8530    0.0110   -0.0180 N   0  0  0  0  0  0  0  0  0  0  0  0
   -5.0970    0.1510   -0.6390 C   0  0  0  0  0  0  0  0  0  0  0  0
   -5.2270    0.7620   -1.7250 O   0  0  0  0  0  0  0  0  0  0  0  0
   -6.2980   -0.4070   -0.0570 N   0  0  0  0  0  0  0  0  0  0  0  0
   -7.5640   -0.2280   -0.7540 C   0  0  0  0  0  0  0  0  0  0  0  0
   -8.6560   -0.8770    0.0160 C   0  0  0  0  0  0  0  0  0  0  0  0
   -9.7410   -0.3300    0.5330 C   0  0  0  0  0  0  0  0  0  0  0  0
  -10.5510   -1.3610    1.2190 C   0  0  0  0  0  0  0  0  0  0  0  0
   -9.7530   -2.5970    1.0130 C   0  0  0  0  0  0  0  0  0  0  0  0
   -8.6590   -2.3220    0.3190 C   0  0  0  0  0  0  0  0  0  0  0  0
   -2.5040    1.4460   -1.4960 C   0  0  0  0  0  0  0  0  0  0  0  0
   -1.3080    1.9440   -1.9440 C   0  0  0  0  0  0  0  0  0  0  0  0
   -1.2350    2.8800   -2.9640 O   0  0  0  0  0  0  0  0  0  0  0  0
   -2.4440    3.3240   -3.5510 C   0  0  0  0  0  0  0  0  0  0  0  0
   -0.1370    1.4770   -1.3370 C   0  0  0  0  0  0  0  0  0  0  0  0
    1.0290    2.0040   -1.8190 O   0  0  0  0  0  0  0  0  0  0  0  0
    5.8620   -0.2150    0.9240 C   0  0  0  0  0  0  0  0  0  0  0  0
    5.8360   -1.1550    1.9840 O   0  0  0  0  0  0  0  0  0  0  0  0
    5.7760   -0.7420    3.3320 C   0  0  0  0  0  0  0  0  0  0  0  0
  1  2  1  0
  2  3  1  0
  3  4  2  0
  3  5  1  0
  5  6  1  0
  6  7  1  0
  6 33  2  0
  7  8  1  0
  8  9  2  0
  9 10  1  0
  9 33  1  0
 10 11  1  0
 11 12  1  0
 12 13  2  0
 12 14  1  0
 14 15  2  0
 14 31  1  0
 15 16  1  0
 16 17  1  0
 16 27  2  0
 17 18  1  0
 18 19  2  0
 18 20  1  0
 20 21  1  0
 21 22  1  0
 22 23  2  0
 22 26  1  0
 23 24  1  0
 24 25  1  0
 25 26  2  0
 27 28  1  0
 28 29  1  0
 28 31  2  0
 29 30  1  0
 31 32  1  0
 33 34  1  0
 34 35  1  0
M  END
