
     RDKit          3D

 35 37  0  0  0  0  0  0  0  0999 V2000
   -6.3610    2.0940    2.6420 C   0  0  0  0  0  0  0  0  0  0  0  0
   -7.3920    1.2510    1.9620 C   0  0  0  0  0  0  0  0  0  0  0  0
   -6.8540    0.0060    1.6280 O   0  0  0  0  0  0  0  0  0  0  0  0
   -5.8050   -0.1190    0.7510 C   0  0  0  0  0  0  0  0  0  0  0  0
   -5.2490    0.9680    0.1340 C   0  0  0  0  0  0  0  0  0  0  0  0
   -4.1750    0.8690   -0.7630 C   0  0  0  0  0  0  0  0  0  0  0  0
   -3.6060    2.3190   -1.5510 S   0  0  0  0  0  0  0  0  0  0  0  0
   -2.6400    3.3700   -0.5330 C   0  0  0  0  0  0  0  0  0  0  0  0
   -1.3020    2.8410   -0.1950 C   0  0  0  0  0  0  0  0  0  0  0  0
   -0.5930    3.5000    0.6480 O   0  0  0  0  0  0  0  0  0  0  0  0
   -0.7550    1.6650   -0.7340 N   0  0  0  0  0  0  0  0  0  0  0  0
    0.5410    1.1490   -0.4420 C   0  0  0  0  0  0  0  0  0  0  0  0
    1.7490    1.7990   -0.9520 C   0  0  1  0  0  0  0  0  0  0  0  0
    1.7130    1.7590   -2.5120 C   0  0  0  0  0  0  0  0  0  0  0  0
    1.9130    3.2410   -0.6180 C   0  0  0  0  0  0  0  0  0  0  0  0
    2.9490    1.1620   -0.5270 O   0  0  0  0  0  0  0  0  0  0  0  0
    3.3260   -0.1270   -0.7450 C   0  0  0  0  0  0  0  0  0  0  0  0
    2.5500   -0.8770   -1.3930 O   0  0  0  0  0  0  0  0  0  0  0  0
    4.5780   -0.7010   -0.2740 C   0  0  0  0  0  0  0  0  0  0  0  0
    5.6390   -0.0390    0.3300 C   0  0  0  0  0  0  0  0  0  0  0  0
    6.6300   -0.9800    0.5980 C   0  0  0  0  0  0  0  0  0  0  0  0
    7.9030   -0.6560    1.2290 C   0  0  0  0  0  0  0  0  0  0  0  0
    8.1750    0.5400    1.5740 O   0  0  0  0  0  0  0  0  0  0  0  0
    8.8760   -1.6000    1.4890 O   0  0  0  0  0  0  0  0  0  0  0  0
   10.1070   -1.2110    2.1100 C   0  0  0  0  0  0  0  0  0  0  0  0
    6.1950   -2.1750    0.1740 N   0  0  0  0  0  0  0  0  0  0  0  0
    4.9460   -2.0180   -0.3590 C   0  0  0  0  0  0  0  0  0  0  0  0
    4.1880   -3.1700   -0.9120 C   0  0  0  0  0  0  0  0  0  0  0  0
   -3.6890   -0.4000   -1.0060 C   0  0  0  0  0  0  0  0  0  0  0  0
   -4.2010   -1.5330   -0.4210 C   0  0  0  0  0  0  0  0  0  0  0  0
   -5.2550   -1.3600    0.4490 C   0  0  0  0  0  0  0  0  0  0  0  0
   -5.7840   -2.4710    1.0450 O   0  0  0  0  0  0  0  0  0  0  0  0
   -5.2150   -3.7440    0.8750 C   0  0  0  0  0  0  0  0  0  0  0  0
   -4.5890   -3.9350   -0.4750 C   0  0  0  0  0  0  0  0  0  0  0  0
   -3.6770   -2.8320   -0.7050 N   0  0  0  0  0  0  0  0  0  0  0  0
  1  2  1  0
  2  3  1  0
  3  4  1  0
  4  5  2  0
  4 31  1  0
  5  6  1  0
  6  7  1  0
  6 29  2  0
  7  8  1  0
  8  9  1  0
  9 10  2  0
  9 11  1  0
 11 12  1  0
 12 13  1  0
 13 14  1  6
 13 15  1  0
 13 16  1  0
 16 17  1  0
 17 18  2  0
 17 19  1  0
 19 20  1  0
 19 27  2  0
 20 21  2  0
 21 22  1  0
 21 26  1  0
 22 23  2  0
 22 24  1  0
 24 25  1  0
 26 27  1  0
 27 28  1  0
 29 30  1  0
 30 31  2  0
 30 35  1  0
 31 32  1  0
 32 33  1  0
 33 34  1  0
 34 35  1  0
M  END
