
     RDKit          3D

 35 37  0  0  0  0  0  0  0  0999 V2000
   10.4990    1.3580   -2.1170 C   0  0  0  0  0  0  0  0  0  0  0  0
    9.2540    1.4750   -2.4790 C   0  0  0  0  0  0  0  0  0  0  0  0
    8.8810    2.5710   -3.2410 O   0  0  0  0  0  0  0  0  0  0  0  0
    8.2620    0.4980   -2.1080 C   0  0  0  0  0  0  0  0  0  0  0  0
    7.0500    0.6860   -2.5060 O   0  0  0  0  0  0  0  0  0  0  0  0
    8.5680   -0.6540   -1.3280 N   0  0  0  0  0  0  0  0  0  0  0  0
    7.4790   -1.5690   -1.0130 C   0  0  0  0  0  0  0  0  0  0  0  0
    6.4640   -0.8340   -0.2320 C   0  0  0  0  0  0  0  0  0  0  0  0
    6.6480    0.3640    0.0440 O   0  0  0  0  0  0  0  0  0  0  0  0
    5.3060   -1.4790    0.1950 N   0  0  0  0  0  0  0  0  0  0  0  0
    4.2280   -0.9350    0.9480 C   0  0  0  0  0  0  0  0  0  0  0  0
    4.1050    0.3750    1.3280 C   0  0  0  0  0  0  0  0  0  0  0  0
    3.0160    0.8410    2.0770 C   0  0  0  0  0  0  0  0  0  0  0  0
    2.0120   -0.0020    2.4680 C   0  0  0  0  0  0  0  0  0  0  0  0
    0.8950    0.1400    3.1580 O   0  0  0  0  0  0  0  0  0  0  0  0
    0.2460   -0.9860    3.2750 C   0  0  0  0  0  0  0  0  0  0  0  0
   -1.0460   -1.2500    3.9720 C   0  0  0  0  0  0  0  0  0  0  0  0
   -2.1480   -1.0890    3.1110 O   0  0  0  0  0  0  0  0  0  0  0  0
   -2.4090    0.1000    2.4940 C   0  0  0  0  0  0  0  0  0  0  0  0
   -1.6450    1.0630    2.7080 O   0  0  0  0  0  0  0  0  0  0  0  0
   -3.5720    0.2260    1.6000 C   0  0  0  0  0  0  0  0  0  0  0  0
   -4.5040   -0.7700    1.2740 C   0  0  0  0  0  0  0  0  0  0  0  0
   -5.4950   -0.4130    0.4240 C   0  0  0  0  0  0  0  0  0  0  0  0
   -6.5520   -1.4550    0.0260 C   0  0  0  0  0  0  0  0  0  0  0  0
   -6.2900   -1.9620   -1.3630 C   0  0  0  0  0  0  0  0  0  0  0  0
   -5.5600    0.8320   -0.0660 C   0  0  0  0  0  0  0  0  0  0  0  0
   -6.4090    1.5930   -0.9560 C   0  0  0  0  0  0  0  0  0  0  0  0
   -6.0780    2.8300   -1.1500 O   0  0  0  0  0  0  0  0  0  0  0  0
   -7.5510    1.2020   -1.6560 N   0  0  0  0  0  0  0  0  0  0  0  0
   -8.2980    2.1250   -2.5270 C   0  0  0  0  0  0  0  0  0  0  0  0
   -8.7590    3.2640   -1.6490 C   0  0  0  0  0  0  0  0  0  0  0  0
   -4.1170    1.6030    0.7130 S   0  0  0  0  0  0  0  0  0  0  0  0
    0.9870   -1.9400    2.6150 C   0  0  0  0  0  0  0  0  0  0  0  0
    2.1300   -1.3210    2.0890 C   0  0  0  0  0  0  0  0  0  0  0  0
    3.1910   -1.7850    1.3570 C   0  0  0  0  0  0  0  0  0  0  0  0
  1  2  2  0
  2  3  1  0
  2  4  1  0
  4  5  2  0
  4  6  1  0
  6  7  1  0
  7  8  1  0
  8  9  2  0
  8 10  1  0
 10 11  1  0
 11 12  2  0
 11 35  1  0
 12 13  1  0
 13 14  2  0
 14 15  1  0
 14 34  1  0
 15 16  1  0
 16 17  1  0
 16 33  2  0
 17 18  1  0
 18 19  1  0
 19 20  2  0
 19 21  1  0
 21 22  2  0
 21 32  1  0
 22 23  1  0
 23 24  1  0
 23 26  2  0
 24 25  1  0
 26 27  1  0
 26 32  1  0
 27 28  2  0
 27 29  1  0
 29 30  1  0
 30 31  1  0
 33 34  1  0
 34 35  2  0
M  END
