
     RDKit          3D

 35 39  0  0  0  0  0  0  0  0999 V2000
   -5.2890   -4.7140    0.7010 C   0  0  0  0  0  0  0  0  0  0  0  0
   -5.8490   -3.5280    0.8600 C   0  0  0  0  0  0  0  0  0  0  0  0
   -5.1110   -2.2700    0.7160 C   0  0  0  0  0  0  0  0  0  0  0  0
   -3.7000   -2.4710    0.2050 C   0  0  1  0  0  0  0  0  0  0  0  0
   -3.8520   -3.0990   -1.1630 C   0  0  0  0  0  0  0  0  0  0  0  0
   -3.1050   -1.1390    0.0180 C   0  0  0  0  0  0  0  0  0  0  0  0
   -3.8680   -0.0440    0.0300 N   0  0  0  0  0  0  0  0  0  0  0  0
   -3.4000    1.2050   -0.1610 C   0  0  0  0  0  0  0  0  0  0  0  0
   -4.3150    2.3210   -0.1300 N   0  0  0  0  0  0  0  0  0  0  0  0
   -5.7290    2.1100    0.1110 C   0  0  0  0  0  0  0  0  0  0  0  0
   -6.1900    3.0080    1.2320 C   0  0  0  0  0  0  0  0  0  0  0  0
   -5.2000    3.8710    1.6750 O   0  0  0  0  0  0  0  0  0  0  0  0
   -4.6180    4.5720    0.6260 C   0  0  0  0  0  0  0  0  0  0  0  0
   -3.8690    3.6640   -0.3380 C   0  0  0  0  0  0  0  0  0  0  0  0
   -2.0940    1.3380   -0.3720 N   0  0  0  0  0  0  0  0  0  0  0  0
   -1.2420    0.2710   -0.3990 C   0  0  0  0  0  0  0  0  0  0  0  0
    0.1040    0.4590   -0.6130 C   0  0  0  0  0  0  0  0  0  0  0  0
    0.9940   -0.6120   -0.6370 C   0  0  0  0  0  0  0  0  0  0  0  0
    2.3850   -0.4030   -0.8370 N   0  0  0  0  0  0  0  0  0  0  0  0
    3.0280    0.8830   -0.6780 C   0  0  0  0  0  0  0  0  0  0  0  0
    4.2470    0.7840    0.2250 C   0  0  0  0  0  0  0  0  0  0  0  0
    5.0150   -0.4040   -0.0250 N   0  0  0  0  0  0  0  0  0  0  0  0
    6.0650   -0.2570   -0.9460 C   0  0  0  0  0  0  0  0  0  0  0  0
    7.2220    0.4900   -0.4320 C   0  0  0  0  0  0  0  0  0  0  0  0
    8.3480    0.8360   -1.1900 C   0  0  0  0  0  0  0  0  0  0  0  0
    8.4910    0.5600   -2.5390 O   0  0  0  0  0  0  0  0  0  0  0  0
    9.2020    1.4490   -0.3900 N   0  0  0  0  0  0  0  0  0  0  0  0
    8.6990    1.5080    0.7860 O   0  0  0  0  0  0  0  0  0  0  0  0
    7.4920    0.9380    0.8240 C   0  0  0  0  0  0  0  0  0  0  0  0
    6.6820    0.8600    2.0700 C   0  0  0  0  0  0  0  0  0  0  0  0
    4.2660   -1.6190   -0.0810 C   0  0  0  0  0  0  0  0  0  0  0  0
    3.2560   -1.4890   -1.2300 C   0  0  0  0  0  0  0  0  0  0  0  0
    0.4280   -1.8510   -0.4330 C   0  0  0  0  0  0  0  0  0  0  0  0
   -0.9160   -2.0760   -0.2160 C   0  0  0  0  0  0  0  0  0  0  0  0
   -1.7650   -1.0020   -0.1980 C   0  0  0  0  0  0  0  0  0  0  0  0
  1  2  2  0
  2  3  1  0
  3  4  1  0
  4  5  1  6
  4  6  1  0
  6  7  2  0
  6 35  1  0
  7  8  1  0
  8  9  1  0
  8 15  2  0
  9 10  1  0
  9 14  1  0
 10 11  1  0
 11 12  1  0
 12 13  1  0
 13 14  1  0
 15 16  1  0
 16 17  2  0
 16 35  1  0
 17 18  1  0
 18 19  1  0
 18 33  2  0
 19 20  1  0
 19 32  1  0
 20 21  1  0
 21 22  1  0
 22 23  1  0
 22 31  1  0
 23 24  1  0
 24 25  1  0
 24 29  2  0
 25 26  1  0
 25 27  2  0
 27 28  1  0
 28 29  1  0
 29 30  1  0
 31 32  1  0
 33 34  1  0
 34 35  2  0
M  CHG  1  15   1
M  END
