
     RDKit          3D

 35 39  0  0  0  0  0  0  0  0999 V2000
   -8.0350    0.8450    1.4780 C   0  0  0  0  0  0  0  0  0  0  0  0
   -6.6070    0.9130    1.0400 C   0  0  0  0  0  0  0  0  0  0  0  0
   -6.4750    1.2380   -0.3690 N   0  0  0  0  0  0  0  0  0  0  0  0
   -5.0550    1.2600   -0.7010 C   0  0  0  0  0  0  0  0  0  0  0  0
   -4.5700   -0.1190   -0.3710 C   0  0  0  0  0  0  0  0  0  0  0  0
   -3.4030   -0.3350    0.3490 C   0  0  0  0  0  0  0  0  0  0  0  0
   -3.0190   -1.6240    0.6330 C   0  0  0  0  0  0  0  0  0  0  0  0
   -1.8000   -1.9500    1.3690 C   0  0  0  0  0  0  0  0  0  0  0  0
   -0.5960   -2.2720    0.5660 C   0  0  0  0  0  0  0  0  0  0  0  0
   -0.0790   -1.2180   -0.2630 N   0  0  0  0  0  0  0  0  0  0  0  0
   -0.8120   -0.6900   -1.3850 C   0  0  0  0  0  0  0  0  0  0  0  0
    1.2510   -0.6940   -0.0180 C   0  0  0  0  0  0  0  0  0  0  0  0
    2.2770   -0.7670   -0.8930 N   0  0  0  0  0  0  0  0  0  0  0  0
    3.3750   -0.2250   -0.3280 C   0  0  0  0  0  0  0  0  0  0  0  0
    4.6770   -0.0430   -0.7360 C   0  0  0  0  0  0  0  0  0  0  0  0
    5.6490    0.5500    0.0760 C   0  0  0  0  0  0  0  0  0  0  0  0
    7.0060    0.6990   -0.4370 C   0  0  0  0  0  0  0  0  0  0  0  0
    7.1240    0.7560   -1.6860 O   0  0  0  0  0  0  0  0  0  0  0  0
    8.1580    0.7810    0.3570 N   0  0  0  0  0  0  0  0  0  0  0  0
    9.4670    0.9180   -0.0950 N   0  0  0  0  0  0  0  0  0  0  0  0
   10.5740    1.3890    0.7480 C   0  0  0  0  0  0  0  0  0  0  0  0
   11.4400    2.0960   -0.2700 C   0  0  0  0  0  0  0  0  0  0  0  0
   11.3690    1.2280   -1.3810 O   0  0  0  0  0  0  0  0  0  0  0  0
   10.0760    0.6670   -1.3480 C   0  0  0  0  0  0  0  0  0  0  0  0
    9.5220    0.0310   -2.2820 O   0  0  0  0  0  0  0  0  0  0  0  0
    5.2270    0.9490    1.3230 C   0  0  0  0  0  0  0  0  0  0  0  0
    3.9300    0.7910    1.7860 C   0  0  0  0  0  0  0  0  0  0  0  0
    3.0200    0.2030    0.9450 C   0  0  0  0  0  0  0  0  0  0  0  0
    1.6980   -0.1070    1.0930 N   0  0  0  0  0  0  0  0  0  0  0  0
   -3.8200   -2.6870    0.1840 C   0  0  0  0  0  0  0  0  0  0  0  0
   -4.9740   -2.4940   -0.5270 C   0  0  0  0  0  0  0  0  0  0  0  0
   -5.3430   -1.1680   -0.8040 C   0  0  0  0  0  0  0  0  0  0  0  0
   -6.5620   -0.9270   -1.5710 C   0  0  0  0  0  0  0  0  0  0  0  0
   -7.2200    0.3500   -1.2010 C   0  0  2  0  0  0  0  0  0  0  0  0
   -7.6570    1.0460   -2.4780 C   0  0  0  0  0  0  0  0  0  0  0  0
  1  2  1  0
  2  3  1  0
  3  4  1  0
  3 34  1  0
  4  5  1  0
  5  6  2  0
  5 32  1  0
  6  7  1  0
  7  8  1  0
  7 30  2  0
  8  9  1  0
  9 10  1  0
 10 11  1  0
 10 12  1  0
 12 13  1  0
 12 29  2  0
 13 14  1  0
 14 15  2  0
 14 28  1  0
 15 16  1  0
 16 17  1  0
 16 26  2  0
 17 18  2  0
 17 19  1  0
 19 20  1  0
 20 21  1  0
 20 24  1  0
 21 22  1  0
 22 23  1  0
 23 24  1  0
 24 25  2  0
 26 27  1  0
 27 28  2  0
 28 29  1  0
 30 31  1  0
 31 32  2  0
 32 33  1  0
 33 34  1  0
 34 35  1  6
M  CHG  1  29   1
M  END
