
     RDKit          3D

 35 39  0  0  0  0  0  0  0  0999 V2000
    7.1990    0.7770    2.3010 C   0  0  0  0  0  0  0  0  0  0  0  0
    6.6810   -0.2210    1.6350 C   0  0  0  0  0  0  0  0  0  0  0  0
    5.2660   -0.7390    1.7960 C   0  0  0  0  0  0  0  0  0  0  0  0
    4.6700   -0.5890    0.5910 O   0  0  0  0  0  0  0  0  0  0  0  0
    4.7010   -0.9070   -0.6910 C   0  0  0  0  0  0  0  0  0  0  0  0
    5.6060   -1.7450   -1.2840 C   0  0  0  0  0  0  0  0  0  0  0  0
    5.5680   -1.9950   -2.6510 C   0  0  0  0  0  0  0  0  0  0  0  0
    4.5890   -1.3690   -3.3750 C   0  0  0  0  0  0  0  0  0  0  0  0
    3.6980   -0.5430   -2.7730 N   0  0  0  0  0  0  0  0  0  0  0  0
    3.6920   -0.2760   -1.4650 C   0  0  0  0  0  0  0  0  0  0  0  0
    2.6370    0.4890   -0.8230 C   0  0  2  0  0  0  0  0  0  0  0  0
    2.7210    1.9580   -0.9650 C   0  0  0  0  0  0  0  0  0  0  0  0
    1.4820    2.6660   -0.5440 C   0  0  0  0  0  0  0  0  0  0  0  0
    1.1250    2.1720    0.8770 C   0  0  0  0  0  0  0  0  0  0  0  0
    0.7730    0.7460    0.5950 N   0  0  0  0  0  0  0  0  0  0  0  0
   -0.5830    0.4210    0.4610 C   0  0  0  0  0  0  0  0  0  0  0  0
   -1.4280    1.4130    0.1030 N   0  0  0  0  0  0  0  0  0  0  0  0
   -2.7210    1.3120   -0.1160 C   0  0  0  0  0  0  0  0  0  0  0  0
   -3.4700    2.5290   -0.4550 C   0  0  0  0  0  0  0  0  0  0  0  0
   -4.6820    2.4790   -0.9020 C   0  0  0  0  0  0  0  0  0  0  0  0
   -5.4220    3.7280   -1.2460 C   0  0  0  0  0  0  0  0  0  0  0  0
   -4.8150    4.9000   -0.8220 O   0  0  0  0  0  0  0  0  0  0  0  0
   -3.5220    4.9500   -0.3470 C   0  0  0  0  0  0  0  0  0  0  0  0
   -2.9150    6.1550   -0.0610 O   0  0  0  0  0  0  0  0  0  0  0  0
   -2.8700    3.8260   -0.1640 C   0  0  0  0  0  0  0  0  0  0  0  0
   -3.2890    0.0790    0.0250 C   0  0  0  0  0  0  0  0  0  0  0  0
   -2.4810   -0.9890    0.3940 C   0  0  0  0  0  0  0  0  0  0  0  0
   -3.1120   -2.2460    0.5490 N   0  0  0  0  0  0  0  0  0  0  0  0
   -3.0580   -3.1550   -0.5690 C   0  0  0  0  0  0  0  0  0  0  0  0
   -4.2730   -4.0810   -0.4740 C   0  0  0  0  0  0  0  0  0  0  0  0
   -4.1860   -4.7400    0.8260 N   0  0  0  0  0  0  0  0  0  0  0  0
   -4.5960   -3.7620    1.8020 C   0  0  0  0  0  0  0  0  0  0  0  0
   -3.7680   -2.5190    1.8050 C   0  0  0  0  0  0  0  0  0  0  0  0
   -1.1610   -0.7870    0.6010 N   0  0  0  0  0  0  0  0  0  0  0  0
    1.9560   -0.0730    0.3840 C   0  0  0  0  0  0  0  0  0  0  0  0
  1  2  2  0
  2  3  1  0
  3  4  1  0
  4  5  1  0
  5  6  2  0
  5 10  1  0
  6  7  1  0
  7  8  2  0
  8  9  1  0
  9 10  2  0
 11 10  1  1
 11 12  1  0
 11 35  1  0
 12 13  1  0
 13 14  1  0
 14 15  1  0
 15 16  1  0
 15 35  1  0
 16 17  2  0
 16 34  1  0
 17 18  1  0
 18 19  1  0
 18 26  2  0
 19 20  2  0
 19 25  1  0
 20 21  1  0
 21 22  1  0
 22 23  1  0
 23 24  1  0
 23 25  2  0
 26 27  1  0
 27 28  1  0
 27 34  2  0
 28 29  1  0
 28 33  1  0
 29 30  1  0
 30 31  1  0
 31 32  1  0
 32 33  1  0
M  CHG  1  31   1
M  END
