
     RDKit          3D

 33 36  0  0  0  0  0  0  0  0999 V2000
   -9.7920   -0.0800   -1.1330 C   0  0  0  0  0  0  0  0  0  0  0  0
  -10.0870   -0.7320    0.1480 C   0  0  0  0  0  0  0  0  0  0  0  0
   -9.2850   -1.0540    1.0840 C   0  0  0  0  0  0  0  0  0  0  0  0
   -7.8760   -0.9140    1.2380 C   0  0  0  0  0  0  0  0  0  0  0  0
   -7.3420   -1.3560    2.3420 O   0  0  0  0  0  0  0  0  0  0  0  0
   -6.9940   -0.3510    0.3300 N   0  0  0  0  0  0  0  0  0  0  0  0
   -5.5830   -0.1830    0.4290 C   0  0  0  0  0  0  0  0  0  0  0  0
   -4.8950   -0.5840    1.5290 C   0  0  0  0  0  0  0  0  0  0  0  0
   -3.5130   -0.3960    1.5800 C   0  0  0  0  0  0  0  0  0  0  0  0
   -2.7860    0.1820    0.5680 C   0  0  0  0  0  0  0  0  0  0  0  0
   -1.4230    0.3800    0.5930 O   0  0  0  0  0  0  0  0  0  0  0  0
   -0.4720   -0.5170    0.1580 C   0  0  0  0  0  0  0  0  0  0  0  0
   -0.8800   -1.6090   -0.3020 O   0  0  0  0  0  0  0  0  0  0  0  0
    0.9550   -0.2630    0.2040 C   0  0  0  0  0  0  0  0  0  0  0  0
    1.4920    0.9110    0.6910 C   0  0  0  0  0  0  0  0  0  0  0  0
    2.8800    1.0660    0.6950 C   0  0  0  0  0  0  0  0  0  0  0  0
    3.7100    0.0710    0.2230 C   0  0  0  0  0  0  0  0  0  0  0  0
    5.1410    0.3020    0.2540 C   0  0  0  0  0  0  0  0  0  0  0  0
    5.6500    1.5750    0.0970 C   0  0  0  0  0  0  0  0  0  0  0  0
    7.0070    1.8000    0.1270 C   0  0  0  0  0  0  0  0  0  0  0  0
    7.9300    0.7530    0.3170 C   0  0  0  0  0  0  0  0  0  0  0  0
    7.3930   -0.5020    0.4710 C   0  0  0  0  0  0  0  0  0  0  0  0
    6.0460   -0.7500    0.4450 C   0  0  0  0  0  0  0  0  0  0  0  0
    8.8200   -1.5630    0.6680 S   0  0  0  0  0  0  0  0  0  0  0  0
   10.0030   -0.3040    0.0030 C   0  0  1  0  0  0  0  0  0  0  0  0
   10.0410   -0.3850   -1.4360 N   0  0  0  0  0  0  0  0  0  0  0  0
   10.9090    0.5450   -1.8950 O   0  0  0  0  0  0  0  0  0  0  0  0
    9.2750    0.8450    0.3670 O   0  0  0  0  0  0  0  0  0  0  0  0
    3.1330   -1.0830   -0.2540 C   0  0  0  0  0  0  0  0  0  0  0  0
    1.7940   -1.2070   -0.2460 N   0  0  0  0  0  0  0  0  0  0  0  0
   -3.5260    0.5780   -0.5390 C   0  0  0  0  0  0  0  0  0  0  0  0
   -4.8760    0.4120   -0.6270 C   0  0  0  0  0  0  0  0  0  0  0  0
   -5.6140    0.8070   -1.7310 O   0  0  0  0  0  0  0  0  0  0  0  0
  1  2  1  0
  2  3  2  3
  3  4  1  0
  4  5  2  0
  4  6  1  0
  6  7  1  0
  7  8  2  0
  7 32  1  0
  8  9  1  0
  9 10  2  0
 10 11  1  0
 10 31  1  0
 11 12  1  0
 12 13  2  0
 12 14  1  0
 14 15  2  0
 14 30  1  0
 15 16  1  0
 16 17  2  0
 17 18  1  0
 17 29  1  0
 18 19  2  0
 18 23  1  0
 19 20  1  0
 20 21  2  0
 21 22  1  0
 21 28  1  0
 22 23  2  0
 22 24  1  0
 24 25  1  0
 25 26  1  6
 25 28  1  0
 26 27  1  0
 29 30  2  0
 31 32  2  0
 32 33  1  0
M  END
