
     RDKit          3D

 34 38  0  0  0  0  0  0  0  0999 V2000
    4.2590   -0.6940   -1.7920 C   0  0  0  0  0  0  0  0  0  0  0  0
    3.2500    0.2240   -1.1990 C   0  0  0  0  0  0  0  0  0  0  0  0
    2.4300    0.9040   -1.9290 N   0  0  0  0  0  0  0  0  0  0  0  0
    1.5750    1.6920   -1.1720 N   0  0  0  0  0  0  0  0  0  0  0  0
    0.5130    2.5860   -1.6570 C   0  0  1  0  0  0  0  0  0  0  0  0
    1.2920    3.7440   -2.3190 C   0  0  0  0  0  0  0  0  0  0  0  0
   -0.3100    1.9570   -2.7250 C   0  0  0  0  0  0  0  0  0  0  0  0
   -1.0000    0.7620   -2.3920 N   0  0  0  0  0  0  0  0  0  0  0  0
   -2.0880    0.6640   -1.5150 C   0  0  0  0  0  0  0  0  0  0  0  0
   -2.6630    1.8000   -1.0080 C   0  0  0  0  0  0  0  0  0  0  0  0
   -3.7560    1.7650   -0.1330 C   0  0  0  0  0  0  0  0  0  0  0  0
   -4.2530    0.5550    0.2170 C   0  0  0  0  0  0  0  0  0  0  0  0
   -3.6810   -0.6220   -0.2880 C   0  0  0  0  0  0  0  0  0  0  0  0
   -2.6120   -0.5840   -1.1440 C   0  0  0  0  0  0  0  0  0  0  0  0
   -4.1450   -1.9880    0.0450 C   0  0  0  0  0  0  0  0  0  0  0  0
   -4.1830   -2.0910    1.5620 C   0  0  0  0  0  0  0  0  0  0  0  0
   -5.4950   -1.6810    2.1420 C   0  0  0  0  0  0  0  0  0  0  0  0
   -5.8600   -0.2730    1.8960 C   0  0  0  0  0  0  0  0  0  0  0  0
   -6.9080    0.2650    2.5550 N   0  0  0  0  0  0  0  0  0  0  0  0
   -7.0720    1.5490    2.1730 C   0  0  0  0  0  0  0  0  0  0  0  0
   -6.0930    1.8200    1.2440 C   0  0  0  0  0  0  0  0  0  0  0  0
   -5.3690    0.6940    1.0950 N   0  0  0  0  0  0  0  0  0  0  0  0
    1.9020    1.4760    0.1870 C   0  0  0  0  0  0  0  0  0  0  0  0
    1.3400    2.0190    1.1790 O   0  0  0  0  0  0  0  0  0  0  0  0
    3.0200    0.4980    0.1970 C   0  0  0  0  0  0  0  0  0  0  0  0
    3.5840    0.0690    1.2940 C   0  0  0  0  0  0  0  0  0  0  0  0
    4.6870   -0.8770    1.4100 C   0  0  0  0  0  0  0  0  0  0  0  0
    4.7160   -1.8940    2.3890 C   0  0  0  0  0  0  0  0  0  0  0  0
    5.8810   -2.5830    2.2120 C   0  0  0  0  0  0  0  0  0  0  0  0
    6.5450   -1.9960    1.1480 C   0  0  0  0  0  0  0  0  0  0  0  0
    7.8480   -2.4100    0.5990 C   0  0  0  0  0  0  0  0  0  0  0  0
    8.5240   -3.4840    1.1780 N   0  0  0  0  0  0  0  0  0  0  0  0
    8.3360   -1.8020   -0.3730 O   0  0  0  0  0  0  0  0  0  0  0  0
    5.7900   -1.0180    0.7410 O   0  0  0  0  0  0  0  0  0  0  0  0
  1  2  1  0
  2  3  2  0
  2 25  1  0
  3  4  1  0
  4  5  1  0
  4 23  1  0
  5  6  1  6
  5  7  1  0
  7  8  1  0
  8  9  1  0
  9 10  2  0
  9 14  1  0
 10 11  1  0
 11 12  2  0
 12 13  1  0
 12 22  1  0
 13 14  2  0
 13 15  1  0
 15 16  1  0
 16 17  1  0
 17 18  1  0
 18 19  2  0
 18 22  1  0
 19 20  1  0
 20 21  2  0
 21 22  1  0
 23 24  2  0
 23 25  1  0
 25 26  2  3
 26 27  1  0
 27 28  2  0
 27 34  1  0
 28 29  1  0
 29 30  2  0
 30 31  1  0
 30 34  1  0
 31 32  1  0
 31 33  2  0
M  CHG  1  19   1
M  END
