
     RDKit          3D

 35 37  0  0  0  0  0  0  0  0999 V2000
   -5.9010    3.6260   -0.7610 C   0  0  0  0  0  0  0  0  0  0  0  0
   -7.0850    2.7720   -0.3430 C   0  0  0  0  0  0  0  0  0  0  0  0
   -6.7890    1.1190   -0.8380 S   0  0  2  0  0  0  0  0  0  0  0  0
   -6.6910    0.9390   -2.2830 O   0  0  0  0  0  0  0  0  0  0  0  0
   -7.7400    0.0980   -0.2110 O   0  0  0  0  0  0  0  0  0  0  0  0
   -5.1200    0.7060   -0.1140 C   0  0  0  0  0  0  0  0  0  0  0  0
   -4.1370    0.6570   -0.9510 C   0  0  0  0  0  0  0  0  0  0  0  0
   -2.8950    0.0330   -0.5230 C   0  0  0  0  0  0  0  0  0  0  0  0
   -2.7940   -0.5020    0.7370 C   0  0  0  0  0  0  0  0  0  0  0  0
   -1.8130   -1.4220    1.1700 C   0  0  1  0  0  0  0  0  0  0  0  0
   -2.1240   -2.8070    0.7840 N   0  0  0  0  0  0  0  0  0  0  0  0
   -1.2190   -3.6850    0.3440 C   0  0  0  0  0  0  0  0  0  0  0  0
   -1.9530   -5.0410   -0.0890 C   0  0  0  0  0  0  0  0  0  0  0  0
   -0.0310   -3.6810    0.2150 O   0  0  0  0  0  0  0  0  0  0  0  0
   -0.3650   -1.3690    1.3880 C   0  0  0  0  0  0  0  0  0  0  0  0
    0.2820   -1.7720    2.1830 O   0  0  0  0  0  0  0  0  0  0  0  0
    0.3750   -0.6130    0.2230 N   0  0  0  0  0  0  0  0  0  0  0  0
    1.7280   -0.5600    0.3490 C   0  0  0  0  0  0  0  0  0  0  0  0
    2.8210   -0.2370    0.1240 C   0  0  0  0  0  0  0  0  0  0  0  0
    4.0290   -0.1320    0.1510 C   0  0  0  0  0  0  0  0  0  0  0  0
    5.3370    0.3530   -0.0990 C   0  0  0  0  0  0  0  0  0  0  0  0
    6.1050    0.6020    1.0580 C   0  0  0  0  0  0  0  0  0  0  0  0
    7.5380    0.9670    1.0630 C   0  0  0  0  0  0  0  0  0  0  0  0
    7.7390    1.2820    2.4130 C   0  0  0  0  0  0  0  0  0  0  0  0
    7.9420    1.6020    3.8750 N   0  0  0  0  0  0  0  0  0  0  0  0
    8.1150    1.0570   -0.0830 C   0  0  0  0  0  0  0  0  0  0  0  0
    7.3400    0.8370   -1.2370 C   0  0  0  0  0  0  0  0  0  0  0  0
    8.0120    0.9870   -2.4070 F   0  0  0  0  0  0  0  0  0  0  0  0
    6.0350    0.5250   -1.2270 C   0  0  0  0  0  0  0  0  0  0  0  0
    5.2620    0.4000   -2.3870 O   0  0  0  0  0  0  0  0  0  0  0  0
    4.5990    1.7100   -2.6670 C   0  0  0  0  0  0  0  0  0  0  0  0
    4.1930   -1.2730    1.4330 C   0  0  0  0  0  0  0  0  0  0  0  0
    2.5540   -1.7560    1.7790 S   0  0  0  0  0  0  0  0  0  0  0  0
   -3.9590   -0.3500    1.6110 C   0  0  0  0  0  0  0  0  0  0  0  0
   -5.1710    0.2730    1.1650 C   0  0  0  0  0  0  0  0  0  0  0  0
  1  2  1  0
  3  2  1  6
  3  4  2  0
  3  5  2  0
  3  6  1  0
  6  7  2  0
  6 35  1  0
  7  8  1  0
  8  9  2  0
  9 10  1  0
  9 34  1  0
 10 11  1  6
 10 15  1  0
 11 12  1  0
 12 13  1  0
 12 14  2  0
 15 16  2  0
 15 17  1  0
 17 18  1  0
 18 19  2  0
 18 33  1  0
 19 20  1  0
 20 21  1  0
 20 32  2  0
 21 22  2  0
 21 29  1  0
 22 23  1  0
 23 24  1  0
 23 26  2  0
 24 25  3  0
 26 27  1  0
 27 28  1  0
 27 29  2  0
 29 30  1  0
 30 31  1  0
 32 33  1  0
 34 35  2  0
M  END
