
     RDKit          3D

 35 39  0  0  0  0  0  0  0  0999 V2000
    8.2000    0.2710    1.4320 C   0  0  0  0  0  0  0  0  0  0  0  0
    7.7940   -1.0970    1.1690 N   0  0  0  0  0  0  0  0  0  0  0  0
    6.8480   -1.1910    0.1090 C   0  0  0  0  0  0  0  0  0  0  0  0
    5.9660   -0.1520   -0.1040 C   0  0  0  0  0  0  0  0  0  0  0  0
    5.0440   -0.2420   -1.1310 C   0  0  0  0  0  0  0  0  0  0  0  0
    4.1220    0.9160   -1.3080 C   0  0  0  0  0  0  0  0  0  0  0  0
    3.4370    1.0610   -0.0150 N   0  0  0  0  0  0  0  0  0  0  0  0
    2.7330   -0.1100    0.3260 C   0  0  0  0  0  0  0  0  0  0  0  0
    1.4600    0.0510    1.0700 C   0  0  0  0  0  0  0  0  0  0  0  0
    0.6160    1.2120    0.6300 C   0  0  2  0  0  0  0  0  0  0  0  0
   -0.7370    0.8290    0.3140 N   0  0  0  0  0  0  0  0  0  0  0  0
   -1.0320   -0.3980   -0.0710 N   0  0  0  0  0  0  0  0  0  0  0  0
   -2.2520   -0.8020   -0.3630 N   0  0  0  0  0  0  0  0  0  0  0  0
   -3.2820    0.0140   -0.2870 N   0  0  0  0  0  0  0  0  0  0  0  0
   -4.6190   -0.1460   -0.5240 C   0  0  0  0  0  0  0  0  0  0  0  0
   -5.2570    1.0530   -0.2810 C   0  0  0  0  0  0  0  0  0  0  0  0
   -6.6680    1.3740   -0.3820 C   0  0  0  0  0  0  0  0  0  0  0  0
   -7.1430    2.5260   -0.4770 O   0  0  0  0  0  0  0  0  0  0  0  0
   -7.6290    0.2510   -0.3720 C   0  0  0  0  0  0  0  0  0  0  0  0
   -8.5140    0.0480   -1.4170 C   0  0  0  0  0  0  0  0  0  0  0  0
   -9.3640   -1.0200   -1.3500 C   0  0  0  0  0  0  0  0  0  0  0  0
   -9.3360   -1.8750   -0.2580 C   0  0  0  0  0  0  0  0  0  0  0  0
   -8.4470   -1.6650    0.7850 C   0  0  0  0  0  0  0  0  0  0  0  0
   -7.5800   -0.5770    0.7190 C   0  0  0  0  0  0  0  0  0  0  0  0
   -6.6570   -0.3750    1.8420 C   0  0  0  0  0  0  0  0  0  0  0  0
   -4.2790    1.9380    0.1060 C   0  0  0  0  0  0  0  0  0  0  0  0
   -3.0680    1.2830    0.0970 C   0  0  0  0  0  0  0  0  0  0  0  0
   -1.7660    1.6880    0.4010 C   0  0  0  0  0  0  0  0  0  0  0  0
   -1.5500    2.8620    0.7600 O   0  0  0  0  0  0  0  0  0  0  0  0
    1.2730    1.8610   -0.5950 C   0  0  0  0  0  0  0  0  0  0  0  0
    2.6520    2.2620   -0.1080 C   0  0  0  0  0  0  0  0  0  0  0  0
    4.9980   -1.3520   -1.9400 C   0  0  0  0  0  0  0  0  0  0  0  0
    5.8850   -2.3860   -1.7200 C   0  0  0  0  0  0  0  0  0  0  0  0
    6.8030   -2.3110   -0.7060 C   0  0  0  0  0  0  0  0  0  0  0  0
    7.7190   -3.3310   -0.4470 O   0  0  0  0  0  0  0  0  0  0  0  0
  1  2  1  0
  2  3  1  0
  3  4  2  0
  3 34  1  0
  4  5  1  0
  5  6  1  0
  5 32  2  0
  6  7  1  0
  7  8  1  0
  7 31  1  0
  8  9  1  0
  9 10  1  0
 10 11  1  6
 10 30  1  0
 11 12  1  0
 11 28  1  0
 12 13  2  0
 13 14  1  0
 14 15  1  0
 14 27  1  0
 15 16  2  0
 16 17  1  0
 16 26  1  0
 17 18  2  0
 17 19  1  0
 19 20  2  0
 19 24  1  0
 20 21  1  0
 21 22  2  0
 22 23  1  0
 23 24  2  0
 24 25  1  0
 26 27  2  0
 27 28  1  0
 28 29  2  0
 30 31  1  0
 32 33  1  0
 33 34  2  0
 34 35  1  0
M  CHG  1   2   1
M  END
