
     RDKit          3D

 31 34  0  0  0  0  0  0  0  0999 V2000
   -2.4190   -0.4190    3.5440 C   0  0  0  0  0  0  0  0  0  0  0  0
   -2.5150    0.9040    2.8120 C   0  0  0  0  0  0  0  0  0  0  0  0
   -2.9840    0.5770    1.4300 N   0  0  0  0  0  0  0  0  0  0  0  0
   -2.1030   -0.1440    0.5530 C   0  0  0  0  0  0  0  0  0  0  0  0
   -2.7190   -0.3430   -0.7670 C   0  0  0  0  0  0  0  0  0  0  0  0
   -3.9770    0.0630   -1.1390 C   0  0  0  0  0  0  0  0  0  0  0  0
   -4.2460   -0.2760   -2.4120 N   0  0  0  0  0  0  0  0  0  0  0  0
   -3.1740   -0.9120   -2.9120 C   0  0  0  0  0  0  0  0  0  0  0  0
   -2.9220   -1.4600   -4.1560 C   0  0  0  0  0  0  0  0  0  0  0  0
   -1.6960   -2.0560   -4.3620 C   0  0  0  0  0  0  0  0  0  0  0  0
   -0.7370   -2.1150   -3.3790 C   0  0  0  0  0  0  0  0  0  0  0  0
   -0.9900   -1.5580   -2.1120 C   0  0  0  0  0  0  0  0  0  0  0  0
    0.0120   -1.6190   -1.0700 C   0  0  0  0  0  0  0  0  0  0  0  0
    0.0820   -2.5810   -0.2740 O   0  0  0  0  0  0  0  0  0  0  0  0
    0.9430   -0.5690   -0.9410 N   0  0  0  0  0  0  0  0  0  0  0  0
    0.9820    0.6080   -1.7890 C   0  0  0  0  0  0  0  0  0  0  0  0
    2.3240    0.6480   -2.4390 C   0  0  0  0  0  0  0  0  0  0  0  0
    3.2650   -0.1650   -1.8610 O   0  0  0  0  0  0  0  0  0  0  0  0
    3.2960   -0.1910   -0.4970 C   0  0  1  0  0  0  0  0  0  0  0  0
    3.7430    1.1100    0.1210 C   0  0  0  0  0  0  0  0  0  0  0  0
    4.9850    1.4800   -0.2870 O   0  0  0  0  0  0  0  0  0  0  0  0
    5.9510    0.5590   -0.0020 C   0  0  0  0  0  0  0  0  0  0  0  0
    6.0270    0.2870    1.4800 C   0  0  0  0  0  0  0  0  0  0  0  0
    7.0350   -0.6570    1.7350 O   0  0  0  0  0  0  0  0  0  0  0  0
    7.1070   -0.9110    3.1030 C   0  0  0  0  0  0  0  0  0  0  0  0
    1.9470   -0.6320    0.0980 C   0  0  0  0  0  0  0  0  0  0  0  0
   -2.2070   -0.9710   -1.9170 C   0  0  0  0  0  0  0  0  0  0  0  0
   -4.7860    0.7730   -0.1480 C   0  0  0  0  0  0  0  0  0  0  0  0
   -6.1550    1.2270   -0.5120 C   0  0  0  0  0  0  0  0  0  0  0  0
   -4.2720    0.9850    1.0340 C   0  0  0  0  0  0  0  0  0  0  0  0
   -5.1280    1.7200    2.0400 C   0  0  0  0  0  0  0  0  0  0  0  0
  1  2  1  0
  2  3  1  0
  3  4  1  0
  3 30  1  0
  4  5  1  0
  5  6  2  0
  5 27  1  0
  6  7  1  0
  6 28  1  0
  7  8  1  0
  8  9  2  0
  8 27  1  0
  9 10  1  0
 10 11  2  0
 11 12  1  0
 12 13  1  0
 12 27  2  0
 13 14  2  0
 13 15  1  0
 15 16  1  0
 15 26  1  0
 16 17  1  0
 17 18  1  0
 18 19  1  0
 19 20  1  1
 19 26  1  0
 20 21  1  0
 21 22  1  0
 22 23  1  0
 23 24  1  0
 24 25  1  0
 28 29  1  0
 28 30  2  0
 30 31  1  0
M  END
