
     RDKit          3D

 31 34  0  0  0  0  0  0  0  0999 V2000
   -6.6010   -0.6590   -2.9980 C   0  0  0  0  0  0  0  0  0  0  0  0
   -6.8600   -0.7450   -1.7120 C   0  0  0  0  0  0  0  0  0  0  0  0
   -5.8150   -0.8490   -0.7190 C   0  0  0  0  0  0  0  0  0  0  0  0
   -6.1870   -0.9310    0.5430 C   0  0  0  0  0  0  0  0  0  0  0  0
   -5.3980   -1.0460    1.7960 C   0  0  0  0  0  0  0  0  0  0  0  0
   -4.1890   -1.9390    1.6270 C   0  0  0  0  0  0  0  0  0  0  0  0
   -3.1540   -1.2520    0.7980 C   0  0  0  0  0  0  0  0  0  0  0  0
   -3.2880   -0.7800   -0.4230 C   0  0  0  0  0  0  0  0  0  0  0  0
   -2.2010   -0.1250   -1.1360 C   0  0  0  0  0  0  0  0  0  0  0  0
   -0.9520    0.0060   -0.5240 N   0  0  0  0  0  0  0  0  0  0  0  0
   -0.1550   -1.1420   -0.3040 C   0  0  0  0  0  0  0  0  0  0  0  0
    0.6630   -1.1380    0.9320 C   0  0  0  0  0  0  0  0  0  0  0  0
    1.2450    0.1510    1.2740 N   0  0  0  0  0  0  0  0  0  0  0  0
    2.1910    0.1750    2.3150 C   0  0  0  0  0  0  0  0  0  0  0  0
    2.4240   -0.9420    2.9310 O   0  0  0  0  0  0  0  0  0  0  0  0
    2.9730    1.3040    2.8220 C   0  0  0  0  0  0  0  0  0  0  0  0
    3.0150    2.4610    2.0660 O   0  0  0  0  0  0  0  0  0  0  0  0
    3.5930    2.4670    0.7810 C   0  0  0  0  0  0  0  0  0  0  0  0
    3.6230    3.6280    0.0420 C   0  0  0  0  0  0  0  0  0  0  0  0
    4.2070    3.5820   -1.2230 C   0  0  0  0  0  0  0  0  0  0  0  0
    4.7320    2.4650   -1.7360 N   0  0  0  0  0  0  0  0  0  0  0  0
    4.7130    1.3280   -1.0340 C   0  0  0  0  0  0  0  0  0  0  0  0
    5.2850    0.0830   -1.5720 C   0  0  0  0  0  0  0  0  0  0  0  0
    5.3120   -1.1240   -0.9210 C   0  0  0  0  0  0  0  0  0  0  0  0
    5.9270   -2.0160   -1.7640 C   0  0  0  0  0  0  0  0  0  0  0  0
    6.2550   -1.3180   -2.9070 C   0  0  0  0  0  0  0  0  0  0  0  0
    5.8480   -0.0850   -2.7280 O   0  0  0  0  0  0  0  0  0  0  0  0
    4.1430    1.3350    0.2230 C   0  0  0  0  0  0  0  0  0  0  0  0
    0.7770    1.2860    0.5550 C   0  0  0  0  0  0  0  0  0  0  0  0
   -0.7420    1.0950    0.3550 C   0  0  0  0  0  0  0  0  0  0  0  0
   -4.4830   -0.8540   -1.1680 O   0  0  0  0  0  0  0  0  0  0  0  0
  1  2  2  0
  2  3  1  0
  3  4  2  0
  3 31  1  0
  4  5  1  0
  5  6  1  0
  6  7  1  0
  7  8  2  0
  8  9  1  0
  8 31  1  0
  9 10  1  0
 10 11  1  0
 10 30  1  0
 11 12  1  0
 12 13  1  0
 13 14  1  0
 13 29  1  0
 14 15  2  0
 14 16  1  0
 16 17  1  0
 17 18  1  0
 18 19  2  0
 18 28  1  0
 19 20  1  0
 20 21  2  0
 21 22  1  0
 22 23  1  0
 22 28  2  0
 23 24  2  0
 23 27  1  0
 24 25  1  0
 25 26  2  0
 26 27  1  0
 29 30  1  0
M  END
