
     RDKit          3D

 29 31  0  0  0  0  0  0  0  0999 V2000
    7.5880   -2.7390   -0.4350 C   0  0  0  0  0  0  0  0  0  0  0  0
    7.8870   -1.3930   -0.1630 O   0  0  0  0  0  0  0  0  0  0  0  0
    6.9070   -0.4540    0.1380 C   0  0  0  0  0  0  0  0  0  0  0  0
    7.2380    0.8460    0.3960 C   0  0  0  0  0  0  0  0  0  0  0  0
    6.2210    1.7550    0.6940 C   0  0  0  0  0  0  0  0  0  0  0  0
    4.9050    1.3580    0.7300 C   0  0  0  0  0  0  0  0  0  0  0  0
    3.8790    2.2300    1.0240 O   0  0  0  0  0  0  0  0  0  0  0  0
    2.5540    1.8760    0.9220 C   0  0  0  0  0  0  0  0  0  0  0  0
    1.7560    1.8460    2.0650 C   0  0  0  0  0  0  0  0  0  0  0  0
    0.4460    1.4900    1.9400 C   0  0  0  0  0  0  0  0  0  0  0  0
   -0.1670    1.1470    0.7270 C   0  0  0  0  0  0  0  0  0  0  0  0
   -1.5320    0.7810    0.7440 N   0  0  0  0  0  0  0  0  0  0  0  0
   -2.3520    0.6120   -0.3850 C   0  0  0  0  0  0  0  0  0  0  0  0
   -1.9000    0.7880   -1.5260 O   0  0  0  0  0  0  0  0  0  0  0  0
   -3.7720    0.2200   -0.2750 C   0  0  0  0  0  0  0  0  0  0  0  0
   -4.6740    0.0390   -1.3000 C   0  0  0  0  0  0  0  0  0  0  0  0
   -5.8760   -0.3230   -0.7840 C   0  0  0  0  0  0  0  0  0  0  0  0
   -7.1560   -0.6280   -1.5040 C   0  0  0  0  0  0  0  0  0  0  0  0
   -7.3290   -2.1370   -1.5130 C   0  0  0  0  0  0  0  0  0  0  0  0
   -5.9400   -2.8880   -2.3610 Cl  0  0  0  0  0  0  0  0  0  0  0  0
   -5.7120   -0.3660    0.5850 C   0  0  0  0  0  0  0  0  0  0  0  0
   -6.7430   -0.7130    1.5970 C   0  0  0  0  0  0  0  0  0  0  0  0
   -4.4390   -0.0350    0.8590 N   0  0  0  0  0  0  0  0  0  0  0  0
    0.6550    1.1910   -0.3660 C   0  0  0  0  0  0  0  0  0  0  0  0
    2.0140    1.5530   -0.2900 C   0  0  0  0  0  0  0  0  0  0  0  0
    2.8130    1.6240   -1.4860 C   0  0  0  0  0  0  0  0  0  0  0  0
    2.3320    1.3060   -2.6010 O   0  0  0  0  0  0  0  0  0  0  0  0
    4.6100    0.0430    0.4660 C   0  0  0  0  0  0  0  0  0  0  0  0
    5.6090   -0.8770    0.1670 C   0  0  0  0  0  0  0  0  0  0  0  0
  1  2  1  0
  2  3  1  0
  3  4  2  0
  3 29  1  0
  4  5  1  0
  5  6  2  0
  6  7  1  0
  6 28  1  0
  7  8  1  0
  8  9  2  0
  8 25  1  0
  9 10  1  0
 10 11  2  0
 11 12  1  0
 11 24  1  0
 12 13  1  0
 13 14  2  0
 13 15  1  0
 15 16  2  0
 15 23  1  0
 16 17  1  0
 17 18  1  0
 17 21  2  0
 18 19  1  0
 19 20  1  0
 21 22  1  0
 21 23  1  0
 24 25  2  0
 25 26  1  0
 26 27  2  0
 28 29  2  0
M  END
