
     RDKit          3D

 31 34  0  0  0  0  0  0  0  0999 V2000
    8.9480   -1.2590   -1.8230 C   0  0  0  0  0  0  0  0  0  0  0  0
    7.7950   -1.5650   -1.0970 O   0  0  0  0  0  0  0  0  0  0  0  0
    6.6600   -0.7730   -1.0530 C   0  0  0  0  0  0  0  0  0  0  0  0
    6.6400    0.2860   -1.6930 O   0  0  0  0  0  0  0  0  0  0  0  0
    5.5090   -1.2060   -0.2500 C   0  0  0  0  0  0  0  0  0  0  0  0
    5.4280   -2.3610    0.4970 C   0  0  0  0  0  0  0  0  0  0  0  0
    4.2340   -2.3990    1.0780 N   0  0  0  0  0  0  0  0  0  0  0  0
    3.5170   -1.3170    0.7490 C   0  0  0  0  0  0  0  0  0  0  0  0
    2.1660   -1.0090    1.1910 C   0  0  0  0  0  0  0  0  0  0  0  0
    1.5810   -1.8250    1.9650 O   0  0  0  0  0  0  0  0  0  0  0  0
    1.4920    0.1380    0.8010 O   0  0  0  0  0  0  0  0  0  0  0  0
    0.2000    0.3660    1.2650 C   0  0  2  0  0  0  0  0  0  0  0  0
   -0.8180    0.4910    0.1540 C   0  0  0  0  0  0  0  0  0  0  0  0
   -2.1670    0.7360    0.8270 C   0  0  0  0  0  0  0  0  0  0  0  0
   -3.2530    0.8760   -0.1420 C   0  0  0  0  0  0  0  0  0  0  0  0
   -3.6350    2.0800   -0.6900 C   0  0  0  0  0  0  0  0  0  0  0  0
   -4.6730    2.1520   -1.6050 C   0  0  0  0  0  0  0  0  0  0  0  0
   -5.3490    1.0070   -1.9880 C   0  0  0  0  0  0  0  0  0  0  0  0
   -6.3890    0.7260   -2.8420 C   0  0  0  0  0  0  0  0  0  0  0  0
   -6.6310   -0.6370   -2.8070 C   0  0  0  0  0  0  0  0  0  0  0  0
   -5.7550   -1.1900   -1.9470 N   0  0  0  0  0  0  0  0  0  0  0  0
   -5.7170   -2.6120   -1.6590 C   0  0  0  0  0  0  0  0  0  0  0  0
   -4.9740   -0.2140   -1.4430 C   0  0  0  0  0  0  0  0  0  0  0  0
   -3.9410   -0.2500   -0.5380 C   0  0  0  0  0  0  0  0  0  0  0  0
    0.1450    1.6320    2.0700 C   0  0  0  0  0  0  0  0  0  0  0  0
    0.7620    2.7870    1.6300 C   0  0  0  0  0  0  0  0  0  0  0  0
    0.6760    3.9200    2.4170 C   0  0  0  0  0  0  0  0  0  0  0  0
   -0.0020    3.9370    3.6180 C   0  0  0  0  0  0  0  0  0  0  0  0
   -0.5970    2.7990    4.0280 N   0  0  0  0  0  0  0  0  0  0  0  0
   -0.5290    1.6850    3.2840 C   0  0  0  0  0  0  0  0  0  0  0  0
    4.3060   -0.5590   -0.0850 C   0  0  0  0  0  0  0  0  0  0  0  0
  1  2  1  0
  2  3  1  0
  3  4  2  0
  3  5  1  0
  5  6  2  0
  5 31  1  0
  6  7  1  0
  7  8  1  0
  8  9  1  0
  8 31  2  0
  9 10  2  0
  9 11  1  0
 11 12  1  0
 12 13  1  6
 12 25  1  0
 13 14  1  0
 14 15  1  0
 15 16  2  0
 15 24  1  0
 16 17  1  0
 17 18  2  0
 18 19  1  0
 18 23  1  0
 19 20  2  0
 20 21  1  0
 21 22  1  0
 21 23  1  0
 23 24  2  0
 25 26  2  0
 25 30  1  0
 26 27  1  0
 27 28  2  0
 28 29  1  0
 29 30  2  0
M  END
