
     RDKit          3D

 31 35  0  0  0  0  0  0  0  0999 V2000
    7.8850   -3.6720   -0.8290 C   0  0  0  0  0  0  0  0  0  0  0  0
    6.8810   -2.5720   -1.1840 C   0  0  2  0  0  0  0  0  0  0  0  0
    6.4270   -2.0460    0.0480 O   0  0  0  0  0  0  0  0  0  0  0  0
    5.2680   -1.2990    0.0690 C   0  0  0  0  0  0  0  0  0  0  0  0
    5.0930   -0.3850    1.0780 C   0  0  0  0  0  0  0  0  0  0  0  0
    3.9370    0.3610    1.1000 C   0  0  0  0  0  0  0  0  0  0  0  0
    2.9400    0.2460    0.1670 C   0  0  0  0  0  0  0  0  0  0  0  0
    1.7020    1.0330    0.1760 C   0  0  0  0  0  0  0  0  0  0  0  0
    1.4010    1.9810    1.1280 C   0  0  0  0  0  0  0  0  0  0  0  0
    0.1930    2.6930    1.0680 C   0  0  0  0  0  0  0  0  0  0  0  0
   -0.0250    3.5370    1.9560 O   0  0  0  0  0  0  0  0  0  0  0  0
   -0.7080    2.4830    0.0920 N   0  0  0  0  0  0  0  0  0  0  0  0
   -1.9480    3.2060    0.0220 C   0  0  0  0  0  0  0  0  0  0  0  0
   -3.0770    2.5420    0.7610 C   0  0  1  0  0  0  0  0  0  0  0  0
   -4.3040    3.4150    0.5970 C   0  0  0  0  0  0  0  0  0  0  0  0
   -5.1550    2.9520   -0.5660 C   0  0  0  0  0  0  0  0  0  0  0  0
   -5.5160    1.5330   -0.3090 C   0  0  0  0  0  0  0  0  0  0  0  0
   -4.5850    0.7100    0.1160 C   0  0  0  0  0  0  0  0  0  0  0  0
   -4.9050   -0.6970    0.3790 C   0  0  0  0  0  0  0  0  0  0  0  0
   -4.0690   -1.6050    0.8010 C   0  0  0  0  0  0  0  0  0  0  0  0
   -4.7570   -2.9130    0.9520 C   0  0  0  0  0  0  0  0  0  0  0  0
   -6.1360   -2.6190    0.5480 C   0  0  0  0  0  0  0  0  0  0  0  0
   -6.1950   -1.3560    0.2280 C   0  0  0  0  0  0  0  0  0  0  0  0
   -3.3090    1.2190    0.3010 O   0  0  0  0  0  0  0  0  0  0  0  0
   -0.3850    1.5510   -0.8230 C   0  0  0  0  0  0  0  0  0  0  0  0
    0.7670    0.8570   -0.7840 N   0  0  0  0  0  0  0  0  0  0  0  0
    3.1290   -0.6800   -0.8470 C   0  0  0  0  0  0  0  0  0  0  0  0
    4.2750   -1.4440   -0.8990 C   0  0  0  0  0  0  0  0  0  0  0  0
    4.5110   -2.4050   -1.9190 N   0  0  0  0  0  0  0  0  0  0  0  0
    5.7200   -3.1480   -1.8940 C   0  0  0  0  0  0  0  0  0  0  0  0
    5.7840   -4.2730   -2.4710 O   0  0  0  0  0  0  0  0  0  0  0  0
  2  1  1  1
  2  3  1  0
  2 30  1  0
  3  4  1  0
  4  5  2  0
  4 28  1  0
  5  6  1  0
  6  7  2  0
  7  8  1  0
  7 27  1  0
  8  9  2  0
  8 26  1  0
  9 10  1  0
 10 11  2  0
 10 12  1  0
 12 13  1  0
 12 25  1  0
 14 13  1  6
 14 15  1  0
 14 24  1  0
 15 16  1  0
 16 17  1  0
 17 18  2  0
 18 19  1  0
 18 24  1  0
 19 20  2  0
 19 23  1  0
 20 21  1  0
 21 22  1  0
 22 23  2  0
 25 26  2  0
 27 28  2  0
 28 29  1  0
 29 30  1  0
 30 31  2  0
M  END
