
     RDKit          3D

 29 31  0  0  0  0  0  0  0  0999 V2000
    1.8320    2.9570    3.2420 C   0  0  0  0  0  0  0  0  0  0  0  0
    1.2140    1.5880    3.5360 C   0  0  0  0  0  0  0  0  0  0  0  0
    1.3130    0.8560    2.3150 O   0  0  0  0  0  0  0  0  0  0  0  0
    2.4980    0.5790    1.6990 C   0  0  0  0  0  0  0  0  0  0  0  0
    3.5260    1.0450    2.3300 O   0  0  0  0  0  0  0  0  0  0  0  0
    2.7660   -0.1390    0.4790 C   0  0  0  0  0  0  0  0  0  0  0  0
    4.1110   -0.3000    0.0750 C   0  0  0  0  0  0  0  0  0  0  0  0
    4.4150   -0.9870   -1.0680 C   0  0  0  0  0  0  0  0  0  0  0  0
    5.8190   -1.1600   -1.4970 C   0  0  0  0  0  0  0  0  0  0  0  0
    3.4080   -1.5320   -1.8380 C   0  0  0  0  0  0  0  0  0  0  0  0
    2.0940   -1.3990   -1.4820 C   0  0  0  0  0  0  0  0  0  0  0  0
    1.7880   -0.6880   -0.3020 C   0  0  0  0  0  0  0  0  0  0  0  0
    0.4270   -0.5370    0.0340 N   0  0  0  0  0  0  0  0  0  0  0  0
   -0.6360   -1.2240   -0.7380 C   0  0  1  0  0  0  0  0  0  0  0  0
   -0.4610   -2.6830   -0.5540 C   0  0  0  0  0  0  0  0  0  0  0  0
   -1.5340   -3.3680    0.2090 C   0  0  0  0  0  0  0  0  0  0  0  0
   -1.2620   -5.0500    0.6180 Cl  0  0  0  0  0  0  0  0  0  0  0  0
   -2.6650   -2.8150    0.5990 C   0  0  0  0  0  0  0  0  0  0  0  0
   -3.8180   -3.3540    1.3500 C   0  0  0  0  0  0  0  0  0  0  0  0
   -3.8880   -4.3840    2.0310 O   0  0  0  0  0  0  0  0  0  0  0  0
   -4.9140   -2.3750    1.1130 C   0  0  0  0  0  0  0  0  0  0  0  0
   -4.2390   -1.0770    0.8140 C   0  0  0  0  0  0  0  0  0  0  0  0
   -2.8600   -1.4130    0.3060 C   0  0  0  0  0  0  0  0  0  0  0  0
   -1.9550   -0.6980   -0.3200 C   0  0  0  0  0  0  0  0  0  0  0  0
   -2.2540    0.6980   -0.6290 C   0  0  0  0  0  0  0  0  0  0  0  0
   -1.4160    1.4890   -1.2480 C   0  0  0  0  0  0  0  0  0  0  0  0
   -1.7720    2.8870   -1.5320 C   0  0  0  0  0  0  0  0  0  0  0  0
   -1.7430    3.1090   -2.9210 O   0  0  0  0  0  0  0  0  0  0  0  0
   -2.0760    4.4300   -3.2190 C   0  0  0  0  0  0  0  0  0  0  0  0
  1  2  1  0
  2  3  1  0
  3  4  1  0
  4  5  2  0
  4  6  1  0
  6  7  2  0
  6 12  1  0
  7  8  1  0
  8  9  1  0
  8 10  2  0
 10 11  1  0
 11 12  2  0
 12 13  1  0
 14 13  1  1
 14 15  1  0
 14 24  1  0
 15 16  1  0
 16 17  1  0
 16 18  2  0
 18 19  1  0
 18 23  1  0
 19 20  2  0
 19 21  1  0
 21 22  1  0
 22 23  1  0
 23 24  2  0
 24 25  1  0
 25 26  2  3
 26 27  1  0
 27 28  1  0
 28 29  1  0
M  END
