
     RDKit          3D

 31 34  0  0  0  0  0  0  0  0999 V2000
   -1.8090   -1.1040   -3.5150 C   0  0  0  0  0  0  0  0  0  0  0  0
   -3.0250   -1.5590   -3.7170 C   0  0  0  0  0  0  0  0  0  0  0  0
   -4.0440   -1.3440   -2.6960 C   0  0  0  0  0  0  0  0  0  0  0  0
   -5.2460   -1.8240   -2.9580 C   0  0  0  0  0  0  0  0  0  0  0  0
   -6.4330   -1.7170   -2.0540 C   0  0  0  0  0  0  0  0  0  0  0  0
   -6.1240   -2.3560   -0.7430 C   0  0  0  0  0  0  0  0  0  0  0  0
   -5.1500   -1.6400    0.0990 C   0  0  0  0  0  0  0  0  0  0  0  0
   -4.0830   -0.8990   -0.2260 C   0  0  0  0  0  0  0  0  0  0  0  0
   -3.3480   -0.3440    0.9150 C   0  0  0  0  0  0  0  0  0  0  0  0
   -3.2670    1.0830    0.9940 N   0  0  0  0  0  0  0  0  0  0  0  0
   -2.6730    1.4510    2.2470 C   0  0  0  0  0  0  0  0  0  0  0  0
   -1.2460    0.9840    2.3520 C   0  0  0  0  0  0  0  0  0  0  0  0
   -0.5520    1.4030    1.1570 N   0  0  0  0  0  0  0  0  0  0  0  0
    0.7200    0.8980    0.8690 C   0  0  0  0  0  0  0  0  0  0  0  0
    1.3750    1.2330   -0.1620 O   0  0  0  0  0  0  0  0  0  0  0  0
    1.3430   -0.0740    1.7980 C   0  0  0  0  0  0  0  0  0  0  0  0
    2.6060   -0.4160    1.3480 O   0  0  0  0  0  0  0  0  0  0  0  0
    3.7010    0.3940    1.1740 C   0  0  0  0  0  0  0  0  0  0  0  0
    3.7180    1.7420    1.4490 C   0  0  0  0  0  0  0  0  0  0  0  0
    4.8870    2.4620    1.2300 C   0  0  0  0  0  0  0  0  0  0  0  0
    5.9890    1.8910    0.7630 N   0  0  0  0  0  0  0  0  0  0  0  0
    6.0300    0.5760    0.4760 C   0  0  0  0  0  0  0  0  0  0  0  0
    7.2490   -0.0530   -0.0430 C   0  0  0  0  0  0  0  0  0  0  0  0
    8.4330    0.6050   -0.2790 C   0  0  0  0  0  0  0  0  0  0  0  0
    9.3440   -0.3230   -0.7640 C   0  0  0  0  0  0  0  0  0  0  0  0
    8.6600   -1.5200   -0.8000 C   0  0  0  0  0  0  0  0  0  0  0  0
    7.4530   -1.3030   -0.3720 O   0  0  0  0  0  0  0  0  0  0  0  0
    4.8830   -0.1520    0.6870 C   0  0  0  0  0  0  0  0  0  0  0  0
   -1.2900    2.3500    0.3190 C   0  0  0  0  0  0  0  0  0  0  0  0
   -2.5470    1.6020   -0.1360 C   0  0  0  0  0  0  0  0  0  0  0  0
   -3.6650   -0.6490   -1.5200 O   0  0  0  0  0  0  0  0  0  0  0  0
  1  2  2  0
  2  3  1  0
  3  4  2  0
  3 31  1  0
  4  5  1  0
  5  6  1  0
  6  7  1  0
  7  8  2  0
  8  9  1  0
  8 31  1  0
  9 10  1  0
 10 11  1  0
 10 30  1  0
 11 12  1  0
 12 13  1  0
 13 14  1  0
 13 29  1  0
 14 15  2  0
 14 16  1  0
 16 17  1  0
 17 18  1  0
 18 19  2  0
 18 28  1  0
 19 20  1  0
 20 21  2  0
 21 22  1  0
 22 23  1  0
 22 28  2  0
 23 24  2  0
 23 27  1  0
 24 25  1  0
 25 26  2  0
 26 27  1  0
 29 30  1  0
M  END
