
     RDKit          3D

 29 33  0  0  0  0  0  0  0  0999 V2000
   -2.9680   -2.5770   -1.5220 O   0  0  0  0  0  0  0  0  0  0  0  0
   -3.7400   -1.6080   -1.7000 C   0  0  0  0  0  0  0  0  0  0  0  0
   -5.0110   -1.8640   -2.1800 O   0  0  0  0  0  0  0  0  0  0  0  0
   -3.2890   -0.2320   -1.4000 C   0  0  1  0  0  0  0  0  0  0  0  0
   -4.1330    0.4390   -0.3520 C   0  0  1  0  0  0  0  0  0  0  0  0
   -3.7480   -0.0980    1.0080 C   0  0  0  0  0  0  0  0  0  0  0  0
   -2.3950    0.4760    1.3600 C   0  0  0  0  0  0  0  0  0  0  0  0
   -1.6450    0.8740    0.0840 C   0  0  2  0  0  0  0  0  0  0  0  0
   -2.3170    2.1560   -0.4020 C   0  0  0  0  0  0  0  0  0  0  0  0
   -3.8070    1.9160   -0.3540 C   0  0  0  0  0  0  0  0  0  0  0  0
   -1.8530   -0.2330   -0.9130 C   0  0  2  0  0  0  0  0  0  0  0  0
   -0.9590   -0.1790   -2.0450 N   0  0  0  0  0  0  0  0  0  0  0  0
    0.4480   -0.1950   -1.9500 C   0  0  0  0  0  0  0  0  0  0  0  0
    1.0400   -0.2700   -0.7480 N   0  0  0  0  0  0  0  0  0  0  0  0
    2.3790   -0.2920   -0.5990 C   0  0  0  0  0  0  0  0  0  0  0  0
    2.9730   -0.3750    0.7310 C   0  0  0  0  0  0  0  0  0  0  0  0
    2.3230   -0.4380    1.9180 N   0  0  0  0  0  0  0  0  0  0  0  0
    3.1870   -0.5040    2.9160 N   0  0  0  0  0  0  0  0  0  0  0  0
    4.4550   -0.4890    2.4490 C   0  0  0  0  0  0  0  0  0  0  0  0
    5.6740   -0.5330    3.0020 N   0  0  0  0  0  0  0  0  0  0  0  0
    6.7610   -0.4970    2.1980 C   0  0  0  0  0  0  0  0  0  0  0  0
    6.6910   -0.4170    0.8430 C   0  0  0  0  0  0  0  0  0  0  0  0
    7.7860   -0.3810    0.0500 F   0  0  0  0  0  0  0  0  0  0  0  0
    5.4470   -0.3710    0.2590 C   0  0  0  0  0  0  0  0  0  0  0  0
    4.3120   -0.4070    1.0610 C   0  0  0  0  0  0  0  0  0  0  0  0
    3.1200   -0.2350   -1.6990 N   0  0  0  0  0  0  0  0  0  0  0  0
    2.6200   -0.1580   -2.9460 C   0  0  0  0  0  0  0  0  0  0  0  0
    1.2290   -0.1380   -3.0720 C   0  0  0  0  0  0  0  0  0  0  0  0
    0.6380   -0.0630   -4.2690 F   0  0  0  0  0  0  0  0  0  0  0  0
  1  2  2  0
  2  3  1  0
  4  2  1  1
  4  5  1  0
  4 11  1  0
  5  6  1  1
  5 10  1  0
  6  7  1  0
  8  7  1  1
  8  9  1  0
  8 11  1  0
  9 10  1  0
 11 12  1  6
 12 13  1  0
 13 14  2  0
 13 28  1  0
 14 15  1  0
 15 16  1  0
 15 26  2  0
 16 17  1  0
 16 25  2  0
 17 18  1  0
 18 19  2  0
 19 20  1  0
 19 25  1  0
 20 21  2  0
 21 22  1  0
 22 23  1  0
 22 24  2  0
 24 25  1  0
 26 27  1  0
 27 28  2  0
 28 29  1  0
M  END
