
     RDKit          3D

 29 31  0  0  0  0  0  0  0  0999 V2000
    7.6630    0.6200   -2.6500 C   0  0  0  0  0  0  0  0  0  0  0  0
    7.2490    0.8070   -1.3090 O   0  0  0  0  0  0  0  0  0  0  0  0
    5.9750    0.3760   -0.9630 C   0  0  0  0  0  0  0  0  0  0  0  0
    5.1940   -0.1650   -1.7700 O   0  0  0  0  0  0  0  0  0  0  0  0
    5.4820    0.5600    0.4550 C   0  0  0  0  0  0  0  0  0  0  0  0
    4.1130    0.0690    0.5890 C   0  0  0  0  0  0  0  0  0  0  0  0
    3.9350   -1.0600    1.1350 O   0  0  0  0  0  0  0  0  0  0  0  0
    2.9640    0.7890    0.1310 N   0  0  0  0  0  0  0  0  0  0  0  0
    3.0090    2.1190   -0.4020 C   0  0  0  0  0  0  0  0  0  0  0  0
    2.8140    3.1920    0.6270 C   0  0  0  0  0  0  0  0  0  0  0  0
    3.7440    3.1970    1.6560 O   0  0  0  0  0  0  0  0  0  0  0  0
    1.6820    0.1320    0.1880 C   0  0  0  0  0  0  0  0  0  0  0  0
    0.6450    0.4910    0.9870 C   0  0  0  0  0  0  0  0  0  0  0  0
   -0.5740   -0.2040    0.9480 C   0  0  0  0  0  0  0  0  0  0  0  0
   -0.7930   -1.2690    0.1170 C   0  0  0  0  0  0  0  0  0  0  0  0
   -1.9890   -1.9990    0.0950 N   0  0  0  0  0  0  0  0  0  0  0  0
   -3.2850   -1.6270    0.4710 C   0  0  0  0  0  0  0  0  0  0  0  0
   -3.6960   -0.3230    0.5580 C   0  0  0  0  0  0  0  0  0  0  0  0
   -5.0330   -0.0150    0.8560 C   0  0  0  0  0  0  0  0  0  0  0  0
   -5.9670   -0.9840    1.0670 C   0  0  0  0  0  0  0  0  0  0  0  0
   -5.5600   -2.3090    0.9800 C   0  0  0  0  0  0  0  0  0  0  0  0
   -4.2420   -2.6010    0.6870 C   0  0  0  0  0  0  0  0  0  0  0  0
   -3.7780   -4.2830    0.5890 Cl  0  0  0  0  0  0  0  0  0  0  0  0
   -7.3030   -0.3510    1.3500 C   0  0  0  0  0  0  0  0  0  0  0  0
   -7.1170    0.9740    0.5900 C   0  0  0  0  0  0  0  0  0  0  0  0
   -5.6990    1.3010    1.0070 C   0  0  0  0  0  0  0  0  0  0  0  0
    0.2790   -1.6470   -0.7100 C   0  0  0  0  0  0  0  0  0  0  0  0
    0.1050   -2.7850   -1.6150 C   0  0  0  0  0  0  0  0  0  0  0  0
    1.4540   -0.9640   -0.6590 C   0  0  0  0  0  0  0  0  0  0  0  0
  1  2  1  0
  2  3  1  0
  3  4  2  0
  3  5  1  0
  5  6  1  0
  6  7  2  0
  6  8  1  0
  8  9  1  0
  8 12  1  0
  9 10  1  0
 10 11  1  0
 12 13  2  0
 12 29  1  0
 13 14  1  0
 14 15  2  0
 15 16  1  0
 15 27  1  0
 16 17  1  0
 17 18  2  0
 17 22  1  0
 18 19  1  0
 19 20  2  0
 19 26  1  0
 20 21  1  0
 20 24  1  0
 21 22  2  0
 22 23  1  0
 24 25  1  0
 25 26  1  0
 27 28  1  0
 27 29  2  0
M  END
