
     RDKit          3D

 31 34  0  0  0  0  0  0  0  0999 V2000
    2.9470   -0.0050    3.2620 C   0  0  0  0  0  0  0  0  0  0  0  0
    2.5460    1.1740    2.4230 C   0  0  0  0  0  0  0  0  0  0  0  0
    2.9010    0.9320    0.9880 N   0  0  0  0  0  0  0  0  0  0  0  0
    2.1570   -0.0960    0.3200 C   0  0  0  0  0  0  0  0  0  0  0  0
    2.5720   -0.2900   -1.0580 C   0  0  0  0  0  0  0  0  0  0  0  0
    3.5610    0.4640   -1.6230 C   0  0  0  0  0  0  0  0  0  0  0  0
    3.6880    0.0260   -2.9050 N   0  0  0  0  0  0  0  0  0  0  0  0
    2.8200   -0.9650   -3.1570 C   0  0  0  0  0  0  0  0  0  0  0  0
    2.5510   -1.7370   -4.2860 C   0  0  0  0  0  0  0  0  0  0  0  0
    1.5750   -2.7100   -4.2520 C   0  0  0  0  0  0  0  0  0  0  0  0
    0.8480   -2.9510   -3.1300 C   0  0  0  0  0  0  0  0  0  0  0  0
    1.1110   -2.1810   -1.9890 C   0  0  0  0  0  0  0  0  0  0  0  0
    0.3650   -2.3910   -0.7650 C   0  0  0  0  0  0  0  0  0  0  0  0
    0.7820   -3.2060    0.0750 O   0  0  0  0  0  0  0  0  0  0  0  0
   -0.8150   -1.6810   -0.5340 N   0  0  0  0  0  0  0  0  0  0  0  0
   -1.2950   -0.7400   -1.5170 C   0  0  0  0  0  0  0  0  0  0  0  0
   -2.7770   -0.7680   -1.7340 C   0  0  0  0  0  0  0  0  0  0  0  0
   -3.3840   -1.4830   -0.7390 O   0  0  0  0  0  0  0  0  0  0  0  0
   -2.9350   -1.1990    0.5270 C   0  0  1  0  0  0  0  0  0  0  0  0
   -3.8400   -1.6260    1.6320 C   0  0  0  0  0  0  0  0  0  0  0  0
   -5.0860   -1.0550    1.5940 O   0  0  0  0  0  0  0  0  0  0  0  0
   -5.0670    0.3380    1.6700 C   0  0  0  0  0  0  0  0  0  0  0  0
   -6.5080    0.7940    1.6190 C   0  0  0  0  0  0  0  0  0  0  0  0
   -6.6720    2.1520    1.6850 O   0  0  0  0  0  0  0  0  0  0  0  0
   -6.0580    2.8520    0.6580 C   0  0  0  0  0  0  0  0  0  0  0  0
   -1.5730   -1.8620    0.6830 C   0  0  0  0  0  0  0  0  0  0  0  0
    2.0890   -1.2010   -2.0130 C   0  0  0  0  0  0  0  0  0  0  0  0
    4.2540    1.4990   -0.8550 C   0  0  0  0  0  0  0  0  0  0  0  0
    5.3150    2.2950   -1.4920 C   0  0  0  0  0  0  0  0  0  0  0  0
    3.9200    1.7070    0.3980 C   0  0  0  0  0  0  0  0  0  0  0  0
    4.5950    2.7600    1.2370 C   0  0  0  0  0  0  0  0  0  0  0  0
  1  2  1  0
  2  3  1  0
  3  4  1  0
  3 30  1  0
  4  5  1  0
  5  6  2  0
  5 27  1  0
  6  7  1  0
  6 28  1  0
  7  8  1  0
  8  9  2  0
  8 27  1  0
  9 10  1  0
 10 11  2  0
 11 12  1  0
 12 13  1  0
 12 27  2  0
 13 14  2  0
 13 15  1  0
 15 16  1  0
 15 26  1  0
 16 17  1  0
 17 18  1  0
 18 19  1  0
 19 20  1  1
 19 26  1  0
 20 21  1  0
 21 22  1  0
 22 23  1  0
 23 24  1  0
 24 25  1  0
 28 29  1  0
 28 30  2  0
 30 31  1  0
M  END
