
     RDKit          3D

 31 34  0  0  0  0  0  0  0  0999 V2000
    7.9430    3.6660    1.0220 C   0  0  0  0  0  0  0  0  0  0  0  0
    6.7510    2.8990    1.2180 O   0  0  0  0  0  0  0  0  0  0  0  0
    6.1680    2.2940    0.1140 C   0  0  0  0  0  0  0  0  0  0  0  0
    6.6920    2.4340   -1.0000 O   0  0  0  0  0  0  0  0  0  0  0  0
    4.9470    1.5080    0.3160 C   0  0  0  0  0  0  0  0  0  0  0  0
    4.2590    1.2650    1.4700 C   0  0  0  0  0  0  0  0  0  0  0  0
    3.2110    0.4970    1.1520 N   0  0  0  0  0  0  0  0  0  0  0  0
    3.1750    0.2220   -0.1590 C   0  0  0  0  0  0  0  0  0  0  0  0
    2.1940   -0.5810   -0.8930 C   0  0  0  0  0  0  0  0  0  0  0  0
    2.2880   -0.7560   -2.1350 O   0  0  0  0  0  0  0  0  0  0  0  0
    1.1190   -1.1840   -0.2540 O   0  0  0  0  0  0  0  0  0  0  0  0
    0.1670   -1.9690   -0.9970 C   0  0  2  0  0  0  0  0  0  0  0  0
   -1.1530   -1.2560   -0.9670 C   0  0  0  0  0  0  0  0  0  0  0  0
   -1.7090   -1.0310    0.4020 C   0  0  0  0  0  0  0  0  0  0  0  0
   -3.0150   -0.3210    0.2350 C   0  0  0  0  0  0  0  0  0  0  0  0
   -4.1820   -1.0440    0.1020 C   0  0  0  0  0  0  0  0  0  0  0  0
   -5.3970   -0.4170   -0.0530 C   0  0  0  0  0  0  0  0  0  0  0  0
   -5.4980    0.9660   -0.0810 C   0  0  0  0  0  0  0  0  0  0  0  0
   -6.5590    1.8360   -0.2190 C   0  0  0  0  0  0  0  0  0  0  0  0
   -6.0280    3.0980   -0.1690 C   0  0  0  0  0  0  0  0  0  0  0  0
   -4.6880    2.9980   -0.0050 N   0  0  0  0  0  0  0  0  0  0  0  0
   -3.8260    4.1550    0.0860 C   0  0  0  0  0  0  0  0  0  0  0  0
   -4.3200    1.7040    0.0540 C   0  0  0  0  0  0  0  0  0  0  0  0
   -3.1130    1.0550    0.2080 C   0  0  0  0  0  0  0  0  0  0  0  0
    0.1420   -3.3650   -0.5890 C   0  0  0  0  0  0  0  0  0  0  0  0
    1.2930   -4.0600   -0.2890 C   0  0  0  0  0  0  0  0  0  0  0  0
    1.2240   -5.4030    0.0890 C   0  0  0  0  0  0  0  0  0  0  0  0
    0.0020   -6.0350    0.1620 C   0  0  0  0  0  0  0  0  0  0  0  0
   -1.1080   -5.3500   -0.1320 N   0  0  0  0  0  0  0  0  0  0  0  0
   -1.0360   -4.0590   -0.4950 C   0  0  0  0  0  0  0  0  0  0  0  0
    4.2670    0.8520   -0.7160 C   0  0  0  0  0  0  0  0  0  0  0  0
  1  2  1  0
  2  3  1  0
  3  4  2  0
  3  5  1  0
  5  6  2  0
  5 31  1  0
  6  7  1  0
  7  8  1  0
  8  9  1  0
  8 31  2  0
  9 10  2  0
  9 11  1  0
 11 12  1  0
 12 13  1  1
 12 25  1  0
 13 14  1  0
 14 15  1  0
 15 16  2  0
 15 24  1  0
 16 17  1  0
 17 18  2  0
 18 19  1  0
 18 23  1  0
 19 20  2  0
 20 21  1  0
 21 22  1  0
 21 23  1  0
 23 24  2  0
 25 26  2  0
 25 30  1  0
 26 27  1  0
 27 28  2  0
 28 29  1  0
 29 30  2  0
M  END
