
     RDKit          3D

 29 31  0  0  0  0  0  0  0  0999 V2000
   -2.2360    4.9290    0.8780 C   0  0  0  0  0  0  0  0  0  0  0  0
   -3.3430    3.9970    1.2330 C   0  0  0  0  0  0  0  0  0  0  0  0
   -3.2390    2.7250    0.6270 O   0  0  0  0  0  0  0  0  0  0  0  0
   -2.1330    1.8910    0.8540 C   0  0  0  0  0  0  0  0  0  0  0  0
   -1.2820    2.3590    1.6120 O   0  0  0  0  0  0  0  0  0  0  0  0
   -2.0290    0.5950    0.2350 C   0  0  0  0  0  0  0  0  0  0  0  0
   -3.0850    0.1930   -0.6190 C   0  0  0  0  0  0  0  0  0  0  0  0
   -3.1130   -1.0000   -1.2680 C   0  0  0  0  0  0  0  0  0  0  0  0
   -4.2930   -1.2960   -2.1400 C   0  0  0  0  0  0  0  0  0  0  0  0
   -2.0830   -1.8720   -1.1050 C   0  0  0  0  0  0  0  0  0  0  0  0
   -1.0400   -1.5090   -0.2800 C   0  0  0  0  0  0  0  0  0  0  0  0
   -0.9950   -0.2760    0.4000 C   0  0  0  0  0  0  0  0  0  0  0  0
    0.0970    0.0380    1.2310 N   0  0  0  0  0  0  0  0  0  0  0  0
    1.2100   -0.8690    1.4290 C   0  0  1  0  0  0  0  0  0  0  0  0
    0.8230   -2.0670    2.2180 C   0  0  0  0  0  0  0  0  0  0  0  0
    1.4530   -3.3340    1.8530 C   0  0  0  0  0  0  0  0  0  0  0  0
    1.1060   -4.7320    2.8890 Cl  0  0  0  0  0  0  0  0  0  0  0  0
    2.2490   -3.4790    0.8140 C   0  0  0  0  0  0  0  0  0  0  0  0
    2.9780   -4.6070    0.2530 C   0  0  0  0  0  0  0  0  0  0  0  0
    3.2880   -5.6660    0.8340 O   0  0  0  0  0  0  0  0  0  0  0  0
    3.2980   -4.2840   -1.1580 C   0  0  0  0  0  0  0  0  0  0  0  0
    3.4190   -2.7910   -1.1120 C   0  0  0  0  0  0  0  0  0  0  0  0
    2.5500   -2.3220   -0.0040 C   0  0  0  0  0  0  0  0  0  0  0  0
    2.0570   -1.0890    0.2460 C   0  0  0  0  0  0  0  0  0  0  0  0
    2.4100   -0.0430   -0.6950 C   0  0  0  0  0  0  0  0  0  0  0  0
    2.0550    1.2160   -0.6530 C   0  0  0  0  0  0  0  0  0  0  0  0
    2.5320    2.1520   -1.7380 C   0  0  0  0  0  0  0  0  0  0  0  0
    1.4290    2.6780   -2.3810 O   0  0  0  0  0  0  0  0  0  0  0  0
    0.5750    3.4020   -1.5760 C   0  0  0  0  0  0  0  0  0  0  0  0
  1  2  1  0
  2  3  1  0
  3  4  1  0
  4  5  2  0
  4  6  1  0
  6  7  2  0
  6 12  1  0
  7  8  1  0
  8  9  1  0
  8 10  2  0
 10 11  1  0
 11 12  2  0
 12 13  1  0
 14 13  1  6
 14 15  1  0
 14 24  1  0
 15 16  1  0
 16 17  1  0
 16 18  2  0
 18 19  1  0
 18 23  1  0
 19 20  2  0
 19 21  1  0
 21 22  1  0
 22 23  1  0
 23 24  2  0
 24 25  1  0
 25 26  2  3
 26 27  1  0
 27 28  1  0
 28 29  1  0
M  END
