
     RDKit          3D

 22 22  0  0  0  0  0  0  0  0999 V2000
    0.5520    0.0910    3.2010 C   0  0  0  0  0  0  0  0  0  0  0  0
    0.5270   -0.4280    1.9610 C   0  0  0  0  0  0  0  0  0  0  0  0
   -0.7170   -0.3270    1.2330 C   0  0  0  0  0  0  0  0  0  0  0  0
   -0.9310   -0.7700    0.0070 C   0  0  0  0  0  0  0  0  0  0  0  0
   -2.1580   -0.6430   -0.6400 N   0  0  0  0  0  0  0  0  0  0  0  0
   -2.6910    0.3800   -1.1440 C   0  0  0  0  0  0  0  0  0  0  0  0
   -2.0790    1.6610   -1.1310 N   0  0  0  0  0  0  0  0  0  0  0  0
   -0.6460    1.7790   -1.2980 C   0  0  0  0  0  0  0  0  0  0  0  0
   -4.0360    0.2260   -1.7730 C   0  0  1  0  0  0  0  0  0  0  0  0
   -4.0370    0.6130   -3.2360 C   0  0  0  0  0  0  0  0  0  0  0  0
   -4.5180   -1.2050   -1.6830 C   0  0  0  0  0  0  0  0  0  0  0  0
   -5.0720    1.0860   -1.0770 C   0  0  0  0  0  0  0  0  0  0  0  0
    1.7090   -1.0390    1.4570 N   0  0  0  0  0  0  0  0  0  0  0  0
    1.7690   -2.4640    1.4350 C   0  0  0  0  0  0  0  0  0  0  0  0
    3.0590   -3.0090    0.8790 C   0  0  0  0  0  0  0  0  0  0  0  0
    2.7630   -0.1730    1.0190 C   0  0  0  0  0  0  0  0  0  0  0  0
    2.6180    0.4090   -0.1490 C   0  0  0  0  0  0  0  0  0  0  0  0
    3.6490    1.3060   -0.6680 C   0  0  0  0  0  0  0  0  0  0  0  0
    3.4280    2.0760   -2.2390 Cl  0  0  0  0  0  0  0  0  0  0  0  0
    4.7480    1.5590    0.0050 C   0  0  0  0  0  0  0  0  0  0  0  0
    5.0140    0.9610    1.3160 C   0  0  0  0  0  0  0  0  0  0  0  0
    3.9580    0.0670    1.8310 C   0  0  0  0  0  0  0  0  0  0  0  0
  1  2  2  0
  2  3  1  0
  2 13  1  0
  3  4  2  3
  4  5  1  0
  5  6  2  3
  6  7  1  0
  6  9  1  0
  7  8  1  0
  9 10  1  6
  9 11  1  0
  9 12  1  0
 13 14  1  0
 13 16  1  0
 14 15  1  0
 16 17  2  0
 16 22  1  0
 17 18  1  0
 18 19  1  0
 18 20  2  0
 20 21  1  0
 21 22  1  0
M  END
