
     RDKit          3D

 22 23  0  0  0  0  0  0  0  0999 V2000
    1.0330    3.3490    1.5970 C   0  0  0  0  0  0  0  0  0  0  0  0
   -0.2110    3.1100    1.2140 C   0  0  0  0  0  0  0  0  0  0  0  0
   -0.4970    2.5910   -0.1310 C   0  0  0  0  0  0  0  0  0  0  0  0
   -1.2030    1.3130   -0.1410 N   0  0  0  0  0  0  0  0  0  0  0  0
   -0.6020    0.1010   -0.1860 C   0  0  0  0  0  0  0  0  0  0  0  0
    0.8120    0.1290   -0.3210 C   0  0  0  0  0  0  0  0  0  0  0  0
    1.7470   -0.9380   -0.5320 C   0  0  0  0  0  0  0  0  0  0  0  0
    3.1220   -0.2790   -0.6030 C   0  0  0  0  0  0  0  0  0  0  0  0
    4.0960   -0.5360    0.2490 C   0  0  0  0  0  0  0  0  0  0  0  0
    5.3240    0.2670   -0.0840 C   0  0  0  0  0  0  0  0  0  0  0  0
    4.8920    1.0090   -1.2610 C   0  0  0  0  0  0  0  0  0  0  0  0
    3.6370    0.6900   -1.5450 C   0  0  0  0  0  0  0  0  0  0  0  0
    2.7300    1.3440   -2.8960 Cl  0  0  0  0  0  0  0  0  0  0  0  0
   -1.4410   -0.9940   -0.1480 C   0  0  0  0  0  0  0  0  0  0  0  0
   -0.8850   -2.3220   -0.1260 C   0  0  0  0  0  0  0  0  0  0  0  0
   -0.4220   -2.7390    1.2830 C   0  0  0  0  0  0  0  0  0  0  0  0
   -2.8090   -0.8310   -0.0750 C   0  0  0  0  0  0  0  0  0  0  0  0
   -3.6540   -2.0790   -0.0490 C   0  0  0  0  0  0  0  0  0  0  0  0
   -5.1150   -1.7040    0.1240 C   0  0  0  0  0  0  0  0  0  0  0  0
   -3.3930    0.3800   -0.0330 N   0  0  0  0  0  0  0  0  0  0  0  0
   -2.5670    1.4240   -0.0670 C   0  0  0  0  0  0  0  0  0  0  0  0
   -3.1080    2.6100   -0.0280 N   0  0  0  0  0  0  0  0  0  0  0  0
  1  2  2  0
  2  3  1  0
  3  4  1  0
  4  5  1  0
  4 21  1  0
  5  6  1  0
  5 14  2  0
  6  7  1  0
  7  8  1  0
  8  9  2  0
  8 12  1  0
  9 10  1  0
 10 11  1  0
 11 12  2  0
 12 13  1  0
 14 15  1  0
 14 17  1  0
 15 16  1  0
 17 18  1  0
 17 20  2  0
 18 19  1  0
 20 21  1  0
 21 22  2  0
M  END
