
     RDKit          3D

 18 19  0  0  0  0  0  0  0  0999 V2000
   -2.9290   -0.3700    1.5320 N   0  0  0  0  0  0  0  0  0  0  0  0
   -3.0620   -0.3810    0.0980 C   0  0  1  0  0  0  0  0  0  0  0  0
   -3.8480    0.7670   -0.4450 C   0  0  0  0  0  0  0  0  0  0  0  0
   -3.2530    1.2170   -1.5920 O   0  0  0  0  0  0  0  0  0  0  0  0
   -2.2540    0.3310   -1.9530 C   0  0  0  0  0  0  0  0  0  0  0  0
   -1.7220   -0.1630   -0.5980 C   0  0  2  0  0  0  0  0  0  0  0  0
   -1.0030   -1.3170   -0.7240 O   0  0  0  0  0  0  0  0  0  0  0  0
   -0.9820    0.9660   -0.0180 C   0  0  0  0  0  0  0  0  0  0  0  0
   -1.4850    2.0950    0.1550 O   0  0  0  0  0  0  0  0  0  0  0  0
    0.3840    0.7520    0.3640 N   0  0  0  0  0  0  0  0  0  0  0  0
    1.1550   -0.4570    0.2600 C   0  0  0  0  0  0  0  0  0  0  0  0
    2.5220   -0.1020    0.7310 C   0  0  1  0  0  0  0  0  0  0  0  0
    3.6170   -0.7470   -0.0880 C   0  0  0  0  0  0  0  0  0  0  0  0
    4.8960   -0.3200    0.4160 N   0  0  0  0  0  0  0  0  0  0  0  0
    5.9110   -0.8680   -0.2810 O   0  0  0  0  0  0  0  0  0  0  0  0
    2.5710    1.3030    0.6730 O   0  0  0  0  0  0  0  0  0  0  0  0
    1.2590    1.7420    0.9370 C   0  0  0  0  0  0  0  0  0  0  0  0
    0.8800    2.7700    1.5390 O   0  0  0  0  0  0  0  0  0  0  0  0
  2  1  1  1
  2  3  1  0
  2  6  1  0
  3  4  1  0
  4  5  1  0
  5  6  1  0
  6  7  1  6
  6  8  1  0
  8  9  2  0
  8 10  1  0
 10 11  1  0
 10 17  1  0
 11 12  1  0
 12 13  1  6
 12 16  1  0
 13 14  1  0
 14 15  1  0
 16 17  1  0
 17 18  2  0
M  END
