
     RDKit          3D

 17 18  0  0  0  0  0  0  0  0999 V2000
    6.2800   -0.1670   -0.3260 O   0  0  0  0  0  0  0  0  0  0  0  0
    5.2370    0.7470   -0.2880 C   0  0  0  0  0  0  0  0  0  0  0  0
    3.9380    0.0550   -0.0910 C   0  0  0  0  0  0  0  0  0  0  0  0
    3.6930   -1.2720    0.0430 N   0  0  0  0  0  0  0  0  0  0  0  0
    2.4130   -1.4450    0.1950 O   0  0  0  0  0  0  0  0  0  0  0  0
    1.7770   -0.2970    0.1710 C   0  0  0  0  0  0  0  0  0  0  0  0
    0.2980   -0.0730    0.3120 C   0  0  1  0  0  0  0  0  0  0  0  0
    0.0300    1.3590   -0.0120 C   0  0  0  0  0  0  0  0  0  0  0  0
   -1.3310    1.7550    0.0500 N   0  0  0  0  0  0  0  0  0  0  0  0
   -2.1820    0.8670    0.7970 C   0  0  0  0  0  0  0  0  0  0  0  0
   -2.5880   -0.3600    0.0380 C   0  0  2  0  0  0  0  0  0  0  0  0
   -2.7030   -0.0320   -1.3120 O   0  0  0  0  0  0  0  0  0  0  0  0
   -3.9390   -0.7990    0.5540 C   0  0  0  0  0  0  0  0  0  0  0  0
   -3.7950   -1.1180    1.8940 O   0  0  0  0  0  0  0  0  0  0  0  0
   -1.5280   -1.4070    0.2320 C   0  0  0  0  0  0  0  0  0  0  0  0
   -0.3920   -0.9720   -0.4570 O   0  0  0  0  0  0  0  0  0  0  0  0
    2.7390    0.6390   -0.0090 N   0  0  0  0  0  0  0  0  0  0  0  0
  1  2  1  0
  2  3  1  0
  3  4  2  0
  3 17  1  0
  4  5  1  0
  5  6  1  0
  7  6  1  6
  6 17  2  0
  7  8  1  0
  7 16  1  0
  8  9  1  0
  9 10  1  0
 10 11  1  0
 11 12  1  6
 11 13  1  0
 11 15  1  0
 13 14  1  0
 15 16  1  0
M  END
