
     RDKit          3D

 22 23  0  0  0  0  0  0  0  0999 V2000
    6.7530    0.3650   -0.7690 C   0  0  0  0  0  0  0  0  0  0  0  0
    5.8560    0.3810    0.4410 C   0  0  0  0  0  0  0  0  0  0  0  0
    4.5760    1.1230    0.2040 C   0  0  0  0  0  0  0  0  0  0  0  0
    3.7870    0.4800   -0.9000 C   0  0  0  0  0  0  0  0  0  0  0  0
    3.4290   -0.8930   -0.5910 N   0  0  0  0  0  0  0  0  0  0  0  0
    4.1080   -2.0120   -0.8600 C   0  0  0  0  0  0  0  0  0  0  0  0
    3.3600   -3.0800   -0.3720 C   0  0  0  0  0  0  0  0  0  0  0  0
    2.2690   -2.5350    0.1640 N   0  0  0  0  0  0  0  0  0  0  0  0
    2.2830   -1.2030    0.0450 C   0  0  0  0  0  0  0  0  0  0  0  0
    1.2360   -0.2200    0.5190 C   0  0  0  0  0  0  0  0  0  0  0  0
    0.1690   -0.9410    1.0850 N   0  0  0  0  0  0  0  0  0  0  0  0
   -0.9540   -0.2830    1.5980 C   0  0  1  0  0  0  0  0  0  0  0  0
   -0.4220    1.1350    2.5670 Cl  0  0  0  0  0  0  0  0  0  0  0  0
   -2.0980   -0.0050    0.7340 C   0  0  0  0  0  0  0  0  0  0  0  0
   -2.0230    0.4320   -0.5550 C   0  0  0  0  0  0  0  0  0  0  0  0
   -3.1660    0.6860   -1.3200 C   0  0  0  0  0  0  0  0  0  0  0  0
   -4.4260    0.5010   -0.7900 C   0  0  0  0  0  0  0  0  0  0  0  0
   -5.6510    0.7580   -1.5620 C   0  0  0  0  0  0  0  0  0  0  0  0
   -4.5320    0.0600    0.5110 C   0  0  0  0  0  0  0  0  0  0  0  0
   -5.8510   -0.1480    1.1050 C   0  0  0  0  0  0  0  0  0  0  0  0
   -6.5500    1.1360    1.4970 C   0  0  0  0  0  0  0  0  0  0  0  0
   -3.3840   -0.1830    1.2410 C   0  0  0  0  0  0  0  0  0  0  0  0
  1  2  1  0
  2  3  1  0
  3  4  1  0
  4  5  1  0
  5  6  1  0
  5  9  1  0
  6  7  2  0
  7  8  1  0
  8  9  2  0
  9 10  1  0
 10 11  1  0
 11 12  1  0
 12 13  1  6
 12 14  1  0
 14 15  2  0
 14 22  1  0
 15 16  1  0
 16 17  2  0
 17 18  1  0
 17 19  1  0
 19 20  1  0
 19 22  2  0
 20 21  1  0
M  END
