
     RDKit          3D

 18 18  0  0  0  0  0  0  0  0999 V2000
    2.9390    1.2620    0.5720 O   0  0  0  0  0  0  0  0  0  0  0  0
    3.3530    1.6200   -0.5470 C   0  0  0  0  0  0  0  0  0  0  0  0
    4.0640    2.8080   -0.6180 O   0  0  0  0  0  0  0  0  0  0  0  0
    3.1090    0.8310   -1.7440 C   0  0  0  0  0  0  0  0  0  0  0  0
    2.4640   -0.2670   -1.7480 N   0  0  0  0  0  0  0  0  0  0  0  0
    1.9220   -0.8170   -0.5460 C   0  0  0  0  0  0  0  0  0  0  0  0
    2.6100   -1.4730    0.3670 C   0  0  0  0  0  0  0  0  0  0  0  0
    1.6650   -1.8620    1.4360 C   0  0  2  0  0  0  0  0  0  0  0  0
    1.9070   -3.1560    1.8940 O   0  0  0  0  0  0  0  0  0  0  0  0
    0.3740   -1.7560    0.8000 N   0  0  0  0  0  0  0  0  0  0  0  0
    0.5700   -0.7380   -0.1700 N   0  0  0  0  0  0  0  0  0  0  0  0
   -0.4680    0.1460   -0.6130 C   0  0  0  0  0  0  0  0  0  0  0  0
   -1.7830   -0.1400    0.0750 C   0  0  2  0  0  0  0  0  0  0  0  0
   -2.2150   -1.4370   -0.1720 O   0  0  0  0  0  0  0  0  0  0  0  0
   -2.8580    0.7970   -0.4230 C   0  0  2  0  0  0  0  0  0  0  0  0
   -2.4500    2.0910   -0.1880 O   0  0  0  0  0  0  0  0  0  0  0  0
   -4.1760    0.5350    0.2550 C   0  0  0  0  0  0  0  0  0  0  0  0
   -5.1440    1.3910   -0.2200 O   0  0  0  0  0  0  0  0  0  0  0  0
  1  2  2  0
  2  3  1  0
  2  4  1  0
  4  5  2  3
  5  6  1  0
  6  7  2  0
  6 11  1  0
  7  8  1  0
  8  9  1  6
  8 10  1  0
 10 11  1  0
 11 12  1  0
 12 13  1  0
 13 14  1  6
 13 15  1  0
 15 16  1  1
 15 17  1  0
 17 18  1  0
M  END
