
     RDKit          3D

 25 26  0  0  0  0  0  0  0  0999 V2000
    5.7710   -1.2530   -0.4940 O   0  0  0  0  0  0  0  0  0  0  0  0
    5.3810   -0.0540   -0.4780 C   0  0  0  0  0  0  0  0  0  0  0  0
    4.0280    0.1560   -0.2880 O   0  0  0  0  0  0  0  0  0  0  0  0
    3.1510   -0.9420   -0.1220 C   0  0  0  0  0  0  0  0  0  0  0  0
    1.7240   -0.4670    0.0700 C   0  0  2  0  0  0  0  0  0  0  0  0
    0.8100   -1.6020    0.3610 C   0  0  0  0  0  0  0  0  0  0  0  0
   -0.4930   -1.5120   -0.1700 N   0  0  0  0  0  0  0  0  0  0  0  0
   -1.4850   -0.9380    0.6790 C   0  0  2  0  0  0  0  0  0  0  0  0
   -1.1760    0.3780    1.0540 O   0  0  0  0  0  0  0  0  0  0  0  0
   -1.7090   -1.6670    1.8420 O   0  0  0  0  0  0  0  0  0  0  0  0
   -3.0850   -1.6840    2.0530 C   0  0  0  0  0  0  0  0  0  0  0  0
   -3.6100   -0.7040    1.0170 C   0  0  2  0  0  0  0  0  0  0  0  0
   -4.9900   -1.0580    0.5610 C   0  0  0  0  0  0  0  0  0  0  0  0
   -5.4360   -0.3400   -0.5370 O   0  0  0  0  0  0  0  0  0  0  0  0
   -5.4490    1.0120   -0.2190 C   0  0  0  0  0  0  0  0  0  0  0  0
   -5.9500    1.7870   -1.4330 C   0  0  0  0  0  0  0  0  0  0  0  0
   -5.9600    3.1430   -1.1070 O   0  0  0  0  0  0  0  0  0  0  0  0
   -2.6930   -0.9310   -0.0200 O   0  0  0  0  0  0  0  0  0  0  0  0
   -0.5850   -0.9250   -1.4810 C   0  0  0  0  0  0  0  0  0  0  0  0
    0.8460   -0.6700   -1.9740 C   0  0  0  0  0  0  0  0  0  0  0  0
    1.3850    0.2530   -1.0760 O   0  0  0  0  0  0  0  0  0  0  0  0
    6.3610    1.0330   -0.6590 C   0  0  2  0  0  0  0  0  0  0  0  0
    7.6220    0.5130   -0.8250 O   0  0  0  0  0  0  0  0  0  0  0  0
    6.3430    2.0350    0.4730 C   0  0  0  0  0  0  0  0  0  0  0  0
    7.2270    3.0560    0.1640 O   0  0  0  0  0  0  0  0  0  0  0  0
  1  2  2  0
  2  3  1  0
  2 22  1  0
  3  4  1  0
  5  4  1  6
  5  6  1  0
  5 21  1  0
  6  7  1  0
  7  8  1  0
  7 19  1  0
  8  9  1  1
  8 10  1  0
  8 18  1  0
 10 11  1  0
 11 12  1  0
 12 13  1  6
 12 18  1  0
 13 14  1  0
 14 15  1  0
 15 16  1  0
 16 17  1  0
 19 20  1  0
 20 21  1  0
 22 23  1  1
 22 24  1  0
 24 25  1  0
M  END
