
     RDKit          3D

 25 25  0  0  0  0  0  0  0  0999 V2000
   -2.5050   -2.3290   -0.6260 C   0  0  0  0  0  0  0  0  0  0  0  0
   -2.3280   -1.8870    0.7840 C   0  0  2  0  0  0  0  0  0  0  0  0
   -2.2270   -0.3930    0.9650 C   0  0  0  0  0  0  0  0  0  0  0  0
   -2.4520    0.2970   -0.2530 O   0  0  0  0  0  0  0  0  0  0  0  0
   -2.4780    1.7170   -0.3760 C   0  0  0  0  0  0  0  0  0  0  0  0
   -3.6530    2.3720   -0.9010 C   0  0  0  0  0  0  0  0  0  0  0  0
   -4.7210    1.6450   -1.2640 N   0  0  0  0  0  0  0  0  0  0  0  0
   -3.9120    3.6970   -1.1180 O   0  0  0  0  0  0  0  0  0  0  0  0
   -1.3730    2.3740    0.0030 C   0  0  0  0  0  0  0  0  0  0  0  0
   -1.3720    3.8790   -0.0950 C   0  0  0  0  0  0  0  0  0  0  0  0
   -1.1390    4.3900    1.2300 O   0  0  0  0  0  0  0  0  0  0  0  0
   -0.2800    1.6540    0.4680 O   0  0  0  0  0  0  0  0  0  0  0  0
    0.8750    1.1230    0.0010 C   0  0  0  0  0  0  0  0  0  0  0  0
    0.9500   -0.3520   -0.2230 C   0  0  1  0  0  0  0  0  0  0  0  0
    2.1030   -0.6810   -1.1600 C   0  0  2  0  0  0  0  0  0  0  0  0
    2.1210   -2.0620   -1.3220 O   0  0  0  0  0  0  0  0  0  0  0  0
    3.4280   -0.2490   -0.5720 C   0  0  0  0  0  0  0  0  0  0  0  0
    3.6620   -0.8440    0.6670 O   0  0  0  0  0  0  0  0  0  0  0  0
    4.8740   -0.4250    1.1610 C   0  0  0  0  0  0  0  0  0  0  0  0
    5.1300   -1.0050    2.3970 O   0  0  0  0  0  0  0  0  0  0  0  0
    1.2110   -1.0260    0.9900 O   0  0  0  0  0  0  0  0  0  0  0  0
    0.9850   -2.3670    1.1860 C   0  0  0  0  0  0  0  0  0  0  0  0
    1.8170   -3.0710    1.7770 O   0  0  0  0  0  0  0  0  0  0  0  0
   -0.2670   -2.9650    0.6820 C   0  0  0  0  0  0  0  0  0  0  0  0
   -1.2880   -2.4820    1.4700 O   0  0  0  0  0  0  0  0  0  0  0  0
  2  1  1  6
  2  3  1  0
  2 25  1  0
  3  4  1  0
  4  5  1  0
  5  6  1  0
  5  9  2  0
  6  7  2  0
  6  8  1  0
  9 10  1  0
  9 12  1  0
 10 11  1  0
 12 13  1  0
 14 13  1  1
 14 15  1  0
 14 21  1  0
 15 16  1  1
 15 17  1  0
 17 18  1  0
 18 19  1  0
 19 20  1  0
 21 22  1  0
 22 23  2  0
 22 24  1  0
 24 25  1  0
M  END
