
     RDKit          3D

 25 27  0  0  0  0  0  0  0  0999 V2000
    6.9580    2.6150    0.1360 N   0  0  0  0  0  0  0  0  0  0  0  0
    6.8420    0.9370    0.4260 S   0  0  2  0  0  0  0  0  0  0  0  0
    7.1190    0.6770    1.8780 O   0  0  0  0  0  0  0  0  0  0  0  0
    7.8520    0.2320   -0.4570 O   0  0  0  0  0  0  0  0  0  0  0  0
    5.2160    0.3590    0.0790 C   0  0  0  0  0  0  0  0  0  0  0  0
    4.2480    0.3380    1.0420 C   0  0  0  0  0  0  0  0  0  0  0  0
    2.9660   -0.1240    0.7450 C   0  0  0  0  0  0  0  0  0  0  0  0
    2.6150   -0.5740   -0.5030 C   0  0  0  0  0  0  0  0  0  0  0  0
    1.3130   -1.0840   -0.8690 C   0  0  0  0  0  0  0  0  0  0  0  0
    1.1750   -1.3710   -2.1370 O   0  0  0  0  0  0  0  0  0  0  0  0
    0.2140   -1.3050   -0.0740 N   0  0  0  0  0  0  0  0  0  0  0  0
    0.0370   -1.1220    1.3600 C   0  0  0  0  0  0  0  0  0  0  0  0
   -1.3010   -1.7810    1.7520 C   0  0  0  0  0  0  0  0  0  0  0  0
   -2.3640   -1.0580    1.1230 N   0  0  0  0  0  0  0  0  0  0  0  0
   -2.0650   -0.8120   -0.2540 C   0  0  2  0  0  0  0  0  0  0  0  0
   -3.3380   -0.8180   -1.0600 C   0  0  0  0  0  0  0  0  0  0  0  0
   -4.2190    0.2600   -0.5470 C   0  0  0  0  0  0  0  0  0  0  0  0
   -4.0890    1.5710   -1.0280 C   0  0  0  0  0  0  0  0  0  0  0  0
   -4.8970    2.5920   -0.5870 C   0  0  0  0  0  0  0  0  0  0  0  0
   -5.8690    2.3770    0.3470 C   0  0  0  0  0  0  0  0  0  0  0  0
   -6.0130    1.0960    0.8330 C   0  0  0  0  0  0  0  0  0  0  0  0
   -5.2030    0.0540    0.3940 C   0  0  0  0  0  0  0  0  0  0  0  0
   -1.0500   -1.7980   -0.7480 C   0  0  0  0  0  0  0  0  0  0  0  0
    3.6410   -0.5320   -1.4560 C   0  0  0  0  0  0  0  0  0  0  0  0
    4.9040   -0.0800   -1.1760 C   0  0  0  0  0  0  0  0  0  0  0  0
  2  1  1  1
  2  3  2  0
  2  4  2  0
  2  5  1  0
  5  6  2  0
  5 25  1  0
  6  7  1  0
  7  8  2  0
  8  9  1  0
  8 24  1  0
  9 10  2  0
  9 11  1  0
 11 12  1  0
 11 23  1  0
 12 13  1  0
 13 14  1  0
 14 15  1  0
 15 16  1  6
 15 23  1  0
 16 17  1  0
 17 18  2  0
 17 22  1  0
 18 19  1  0
 19 20  2  0
 20 21  1  0
 21 22  2  0
 24 25  2  0
M  CHG  1  14   1
M  END
