
     RDKit          3D

 25 25  0  0  0  0  0  0  0  0999 V2000
   -5.3000    3.0980   -3.4340 C   0  0  0  0  0  0  0  0  0  0  0  0
   -4.1670    2.1240   -3.6310 C   0  0  0  0  0  0  0  0  0  0  0  0
   -3.7190    1.6870   -2.3420 O   0  0  0  0  0  0  0  0  0  0  0  0
   -2.6770    0.7810   -2.2110 C   0  0  0  0  0  0  0  0  0  0  0  0
   -2.1500    0.3660   -3.2750 O   0  0  0  0  0  0  0  0  0  0  0  0
   -2.2340    0.3470   -0.8610 C   0  0  2  0  0  0  0  0  0  0  0  0
   -1.1470   -0.5880   -0.9120 N   0  0  0  0  0  0  0  0  0  0  0  0
    0.1450   -0.2950   -0.3600 C   0  0  0  0  0  0  0  0  0  0  0  0
    0.2890    0.8230    0.1740 O   0  0  0  0  0  0  0  0  0  0  0  0
    1.1830   -1.1990   -0.4130 O   0  0  0  0  0  0  0  0  0  0  0  0
    2.4900   -0.9560    0.1140 C   0  0  2  0  0  0  0  0  0  0  0  0
    3.0580    0.2260   -0.6360 C   0  0  0  0  0  0  0  0  0  0  0  0
    4.3420    0.5680   -0.2150 O   0  0  0  0  0  0  0  0  0  0  0  0
    3.3070   -2.1680   -0.2600 C   0  0  0  0  0  0  0  0  0  0  0  0
    4.5070   -2.3760    0.5960 C   0  0  2  0  0  0  0  0  0  0  0  0
    4.3280   -3.5940    1.2800 O   0  0  0  0  0  0  0  0  0  0  0  0
    4.7000   -1.3540    1.5240 O   0  0  0  0  0  0  0  0  0  0  0  0
    3.6140   -1.2800    2.3600 C   0  0  1  0  0  0  0  0  0  0  0  0
    3.8700   -0.3540    3.5360 C   0  0  0  0  0  0  0  0  0  0  0  0
    4.1470    0.9430    3.0540 O   0  0  0  0  0  0  0  0  0  0  0  0
    2.4420   -0.7190    1.5980 C   0  0  0  0  0  0  0  0  0  0  0  0
   -3.2840   -0.1570   -0.1120 O   0  0  0  0  0  0  0  0  0  0  0  0
   -3.5410    0.6030    1.0240 C   0  0  0  0  0  0  0  0  0  0  0  0
   -4.7090   -0.0610    1.7520 C   0  0  0  0  0  0  0  0  0  0  0  0
   -4.9600    0.7020    2.8850 O   0  0  0  0  0  0  0  0  0  0  0  0
  1  2  1  0
  2  3  1  0
  3  4  1  0
  4  5  2  0
  4  6  1  0
  6  7  1  6
  6 22  1  0
  7  8  1  0
  8  9  2  0
  8 10  1  0
 10 11  1  0
 11 12  1  6
 11 14  1  0
 11 21  1  0
 12 13  1  0
 14 15  1  0
 15 16  1  1
 15 17  1  0
 17 18  1  0
 18 19  1  1
 18 21  1  0
 19 20  1  0
 22 23  1  0
 23 24  1  0
 24 25  1  0
M  END
