
     RDKit          3D

 23 25  0  0  0  0  0  0  0  0999 V2000
    4.9340   -1.1580    1.6830 C   0  0  0  0  0  0  0  0  0  0  0  0
    4.7490    0.0720    0.8590 C   0  0  0  0  0  0  0  0  0  0  0  0
    5.1920    1.2510    1.3100 C   0  0  0  0  0  0  0  0  0  0  0  0
    4.9740    2.3650    0.5010 O   0  0  0  0  0  0  0  0  0  0  0  0
    4.8940    2.3020   -0.8850 C   0  0  0  0  0  0  0  0  0  0  0  0
    4.3560    1.0040   -1.3470 C   0  0  0  0  0  0  0  0  0  0  0  0
    4.3100   -0.0040   -0.5220 C   0  0  0  0  0  0  0  0  0  0  0  0
    3.7830   -1.3080   -1.0770 C   0  0  0  0  0  0  0  0  0  0  0  0
    2.3370   -1.1410   -1.2080 N   0  0  0  0  0  0  0  0  0  0  0  0
    1.5050   -0.6680   -0.2040 C   0  0  0  0  0  0  0  0  0  0  0  0
    2.0660   -0.2940    0.8970 O   0  0  0  0  0  0  0  0  0  0  0  0
    0.0570   -0.5470   -0.2390 C   0  0  0  0  0  0  0  0  0  0  0  0
   -0.8390   -1.4730   -0.7250 C   0  0  0  0  0  0  0  0  0  0  0  0
   -2.1210   -1.0380   -0.4740 C   0  0  0  0  0  0  0  0  0  0  0  0
   -3.3770   -1.6370   -0.6270 C   0  0  0  0  0  0  0  0  0  0  0  0
   -4.4940   -1.0280   -0.1610 C   0  0  0  0  0  0  0  0  0  0  0  0
   -5.7810   -1.6210   -0.2100 N   0  0  0  0  0  0  0  0  0  0  0  0
   -4.4040    0.2210    0.4730 C   0  0  0  0  0  0  0  0  0  0  0  0
   -5.6140    0.7800    1.0820 C   0  0  0  0  0  0  0  0  0  0  0  0
   -6.0190    1.9270    0.2890 N   0  0  0  0  0  0  0  0  0  0  0  0
   -3.1570    0.8070    0.6240 C   0  0  0  0  0  0  0  0  0  0  0  0
   -2.0010    0.1790    0.1590 C   0  0  0  0  0  0  0  0  0  0  0  0
   -0.6960    0.4310    0.2800 N   0  0  0  0  0  0  0  0  0  0  0  0
  1  2  1  0
  2  3  2  0
  2  7  1  0
  3  4  1  0
  4  5  1  0
  5  6  1  0
  6  7  2  0
  7  8  1  0
  8  9  1  0
  9 10  1  0
 10 11  2  0
 10 12  1  0
 12 13  2  0
 12 23  1  0
 13 14  1  0
 14 15  2  0
 14 22  1  0
 15 16  1  0
 16 17  1  0
 16 18  2  0
 18 19  1  0
 18 21  1  0
 19 20  1  0
 21 22  2  0
 22 23  1  0
M  CHG  1  20   1
M  END
