
     RDKit          3D

 19 21  0  0  0  0  0  0  0  0999 V2000
    4.7190    0.8350    1.6020 N   0  0  0  0  0  0  0  0  0  0  0  0
    3.8360    0.4070    0.5610 C   0  0  0  0  0  0  0  0  0  0  0  0
    4.2760   -0.3880   -0.4200 N   0  0  0  0  0  0  0  0  0  0  0  0
    3.5010   -0.8290   -1.4300 C   0  0  0  0  0  0  0  0  0  0  0  0
    2.2200   -0.4330   -1.4280 N   0  0  0  0  0  0  0  0  0  0  0  0
    1.7180    0.3630   -0.4730 C   0  0  0  0  0  0  0  0  0  0  0  0
    2.5180    0.8080    0.5550 C   0  0  0  0  0  0  0  0  0  0  0  0
    1.7470    1.5710    1.3370 N   0  0  0  0  0  0  0  0  0  0  0  0
    0.4940    1.5940    0.7980 C   0  0  0  0  0  0  0  0  0  0  0  0
    0.4600    0.8540   -0.3180 N   0  0  0  0  0  0  0  0  0  0  0  0
   -0.6440    0.5840   -1.2250 C   0  0  2  0  0  0  0  0  0  0  0  0
   -1.7960    1.1510   -0.7530 O   0  0  0  0  0  0  0  0  0  0  0  0
   -2.5970    0.1860   -0.2070 C   0  0  2  0  0  0  0  0  0  0  0  0
   -3.2500    0.6270    1.0830 C   0  0  0  0  0  0  0  0  0  0  0  0
   -4.0430   -0.3700    1.5940 O   0  0  0  0  0  0  0  0  0  0  0  0
   -1.7270   -1.0490    0.0180 C   0  0  1  0  0  0  0  0  0  0  0  0
   -2.4530   -2.2090    0.0240 O   0  0  0  0  0  0  0  0  0  0  0  0
   -0.8370   -0.9230   -1.2280 C   0  0  1  0  0  0  0  0  0  0  0  0
   -1.5400   -1.2490   -2.3820 O   0  0  0  0  0  0  0  0  0  0  0  0
  1  2  1  0
  2  3  2  0
  2  7  1  0
  3  4  1  0
  4  5  2  0
  5  6  1  0
  6  7  2  0
  6 10  1  0
  7  8  1  0
  8  9  2  0
  9 10  1  0
 11 10  1  1
 11 12  1  0
 11 18  1  0
 12 13  1  0
 13 14  1  1
 13 16  1  0
 14 15  1  0
 16 17  1  6
 16 18  1  0
 18 19  1  6
M  END
