
     RDKit          3D

 11 11  0  0  0  0  0  0  0  0999 V2000
   -2.0180   -0.6170    1.0280 C   0  0  0  0  0  0  0  0  0  0  0  0
   -2.0810    0.3240    0.1210 C   0  0  0  0  0  0  0  0  0  0  0  0
   -3.2810    1.1870    0.0360 C   0  0  0  0  0  0  0  0  0  0  0  0
   -0.9930    0.5310   -0.8410 C   0  0  0  0  0  0  0  0  0  0  0  0
    0.0890   -0.4180   -0.7840 N   0  0  0  0  0  0  0  0  0  0  0  0
   -0.1390   -1.7490   -1.2860 C   0  0  0  0  0  0  0  0  0  0  0  0
    1.3270   -0.0290   -0.2260 C   0  0  0  0  0  0  0  0  0  0  0  0
    1.6120    1.1060    0.3150 N   0  0  0  0  0  0  0  0  0  0  0  0
    2.9890    1.1260    0.7770 C   0  0  0  0  0  0  0  0  0  0  0  0
    3.3040   -0.3660    0.8530 C   0  0  0  0  0  0  0  0  0  0  0  0
    2.4510   -0.8400   -0.1780 O   0  0  0  0  0  0  0  0  0  0  0  0
  1  2  2  0
  2  3  1  0
  2  4  1  0
  4  5  1  0
  5  6  1  0
  5  7  1  0
  7  8  2  0
  7 11  1  0
  8  9  1  0
  9 10  1  0
 10 11  1  0
M  END
