
     RDKit          3D

 19 20  0  0  0  0  0  0  0  0999 V2000
   -2.1890   -2.9620   -1.0780 C   0  0  0  0  0  0  0  0  0  0  0  0
   -1.8030   -1.5570   -0.8700 N   0  0  0  0  0  0  0  0  0  0  0  0
   -2.8650   -0.6450   -1.1250 C   0  0  0  0  0  0  0  0  0  0  0  0
   -2.7620    0.6390   -0.5030 N   0  0  0  0  0  0  0  0  0  0  0  0
   -1.8280    1.2900    0.3450 C   0  0  0  0  0  0  0  0  0  0  0  0
   -2.2200    2.5600    0.9590 C   0  0  1  0  0  0  0  0  0  0  0  0
   -2.6130    3.7400    0.2720 C   0  0  0  0  0  0  0  0  0  0  0  0
   -3.6550    2.8340    0.7170 O   0  0  0  0  0  0  0  0  0  0  0  0
   -0.6410    0.8270    0.6110 N   0  0  0  0  0  0  0  0  0  0  0  0
    0.0270   -0.3490    0.1850 C   0  0  0  0  0  0  0  0  0  0  0  0
    1.4700   -0.4410    0.4910 C   0  0  0  0  0  0  0  0  0  0  0  0
    2.1150   -1.4580    0.1390 O   0  0  0  0  0  0  0  0  0  0  0  0
    2.1570    0.5430    1.1530 O   0  0  0  0  0  0  0  0  0  0  0  0
    3.5100    0.5210    1.4730 C   0  0  0  0  0  0  0  0  0  0  0  0
    4.4130    0.4190    0.3300 C   0  0  0  0  0  0  0  0  0  0  0  0
    5.8220    0.3840    0.4680 N   0  0  0  0  0  0  0  0  0  0  0  0
    3.9480    0.3580   -0.8330 O   0  0  0  0  0  0  0  0  0  0  0  0
   -0.4530   -1.3960   -0.4580 C   0  0  0  0  0  0  0  0  0  0  0  0
    0.4060   -2.4680   -0.7850 N   0  0  0  0  0  0  0  0  0  0  0  0
  1  2  1  0
  2  3  1  0
  2 18  1  0
  3  4  1  0
  4  5  1  0
  6  5  1  6
  5  9  2  0
  6  7  1  0
  6  8  1  0
  7  8  1  0
  9 10  1  0
 10 11  1  0
 10 18  2  0
 11 12  2  0
 11 13  1  0
 13 14  1  0
 14 15  1  0
 15 16  1  0
 15 17  2  0
 18 19  1  0
M  END
