
     RDKit          3D

 19 20  0  0  0  0  0  0  0  0999 V2000
   -5.0640   -0.3460   -1.3090 C   0  0  0  0  0  0  0  0  0  0  0  0
   -3.6970   -0.1600   -0.6910 C   0  0  2  0  0  0  0  0  0  0  0  0
   -3.4300   -1.0890    0.3660 N   0  0  0  0  0  0  0  0  0  0  0  0
   -2.3250   -0.4390    1.0750 C   0  0  1  0  0  0  0  0  0  0  0  0
   -1.0530   -0.8660    0.4000 C   0  0  0  0  0  0  0  0  0  0  0  0
    0.1220   -0.3030    0.9920 N   0  0  0  0  0  0  0  0  0  0  0  0
    1.3920   -0.6320    0.4410 C   0  0  0  0  0  0  0  0  0  0  0  0
    1.4260   -1.4170   -0.5600 O   0  0  0  0  0  0  0  0  0  0  0  0
    2.6580   -0.0700    1.0230 C   0  0  0  0  0  0  0  0  0  0  0  0
    3.8030   -0.5990    0.2290 C   0  0  2  0  0  0  0  0  0  0  0  0
    5.0290   -0.0620    0.7830 N   0  0  0  0  0  0  0  0  0  0  0  0
    5.1010    1.2880    0.3400 C   0  0  0  0  0  0  0  0  0  0  0  0
    5.7400    2.2430    0.8870 O   0  0  0  0  0  0  0  0  0  0  0  0
    4.3140    1.3780   -0.8490 N   0  0  0  0  0  0  0  0  0  0  0  0
    3.7750    0.0750   -1.1080 C   0  0  0  0  0  0  0  0  0  0  0  0
    3.3870   -0.3480   -2.2120 O   0  0  0  0  0  0  0  0  0  0  0  0
   -2.5670    0.9720    0.9800 N   0  0  0  0  0  0  0  0  0  0  0  0
   -3.6060    1.1550    0.0250 C   0  0  0  0  0  0  0  0  0  0  0  0
   -4.3050    2.1810   -0.1890 O   0  0  0  0  0  0  0  0  0  0  0  0
  2  1  1  1
  2  3  1  0
  2 18  1  0
  3  4  1  0
  4  5  1  6
  4 17  1  0
  5  6  1  0
  6  7  1  0
  7  8  2  0
  7  9  1  0
 10  9  1  1
 10 11  1  0
 10 15  1  0
 11 12  1  0
 12 13  2  0
 12 14  1  0
 14 15  1  0
 15 16  2  0
 17 18  1  0
 18 19  2  0
M  END
