
     RDKit          3D

 19 20  0  0  0  0  0  0  0  0999 V2000
    4.2100    0.7090   -0.7840 C   0  0  0  0  0  0  0  0  0  0  0  0
    2.7700    0.9360   -0.8990 C   0  0  0  0  0  0  0  0  0  0  0  0
    1.8070    0.3130   -0.2900 C   0  0  0  0  0  0  0  0  0  0  0  0
    2.0480   -0.7640    0.6500 C   0  0  0  0  0  0  0  0  0  0  0  0
    3.3460   -1.2050    0.9650 N   0  0  0  0  0  0  0  0  0  0  0  0
    1.0520   -1.3740    1.2480 N   0  0  0  0  0  0  0  0  0  0  0  0
   -0.3000   -1.0150    1.0090 C   0  0  0  0  0  0  0  0  0  0  0  0
   -0.6380   -0.0510    0.1760 C   0  0  0  0  0  0  0  0  0  0  0  0
    0.4210    0.6400   -0.4980 N   0  0  0  0  0  0  0  0  0  0  0  0
    0.1420    1.6770   -1.3950 N   0  0  0  0  0  0  0  0  0  0  0  0
    0.4530    2.8630   -1.1780 O   0  0  0  0  0  0  0  0  0  0  0  0
   -2.0460    0.2940   -0.0140 C   0  0  2  0  0  0  0  0  0  0  0  0
   -2.3140    1.0330   -1.3060 C   0  0  0  0  0  0  0  0  0  0  0  0
   -2.4010    1.1970    1.0180 O   0  0  0  0  0  0  0  0  0  0  0  0
   -2.9500   -0.8900    0.1570 C   0  0  2  0  0  0  0  0  0  0  0  0
   -4.2900   -0.4990    0.0560 O   0  0  0  0  0  0  0  0  0  0  0  0
   -2.6580   -1.4810    1.4850 C   0  0  0  0  0  0  0  0  0  0  0  0
   -3.5650   -1.6760    2.3120 O   0  0  0  0  0  0  0  0  0  0  0  0
   -1.2910   -1.7960    1.7230 N   0  0  0  0  0  0  0  0  0  0  0  0
  1  2  1  0
  2  3  2  3
  3  4  1  0
  3  9  1  0
  4  5  1  0
  4  6  2  0
  6  7  1  0
  7  8  2  0
  7 19  1  0
  8  9  1  0
  8 12  1  0
  9 10  1  0
 10 11  2  0
 12 13  1  6
 12 14  1  0
 12 15  1  0
 15 16  1  1
 15 17  1  0
 17 18  2  0
 17 19  1  0
M  END
