
     RDKit          3D

 19 20  0  0  0  0  0  0  0  0999 V2000
   -4.2640   -1.9380   -1.2540 N   0  0  0  0  0  0  0  0  0  0  0  0
   -4.2700   -0.8630   -0.3080 C   0  0  1  0  0  0  0  0  0  0  0  0
   -2.9930   -0.7170    0.4090 C   0  0  0  0  0  0  0  0  0  0  0  0
   -2.3170    0.4200    0.4490 C   0  0  0  0  0  0  0  0  0  0  0  0
   -1.0430    0.4560    1.2020 C   0  0  0  0  0  0  0  0  0  0  0  0
    0.0870    0.8270    0.3570 N   0  0  0  0  0  0  0  0  0  0  0  0
    1.4080    0.9440    0.8830 C   0  0  0  0  0  0  0  0  0  0  0  0
    1.5280    0.7110    2.1200 O   0  0  0  0  0  0  0  0  0  0  0  0
    2.5940    1.3090    0.0950 C   0  0  0  0  0  0  0  0  0  0  0  0
    3.5140    0.2190   -0.1320 N   0  0  0  0  0  0  0  0  0  0  0  0
    4.5490   -0.1180    0.6250 N   0  0  0  0  0  0  0  0  0  0  0  0
    5.1820   -1.1710    0.1120 C   0  0  0  0  0  0  0  0  0  0  0  0
    6.1960   -1.7910    0.5200 O   0  0  0  0  0  0  0  0  0  0  0  0
    4.5190   -1.5090   -1.0110 N   0  0  0  0  0  0  0  0  0  0  0  0
    3.5030   -0.6480   -1.1430 C   0  0  0  0  0  0  0  0  0  0  0  0
    2.6510   -0.6490   -2.0850 O   0  0  0  0  0  0  0  0  0  0  0  0
   -2.8440    1.5840   -0.2560 C   0  0  0  0  0  0  0  0  0  0  0  0
   -3.9800    1.5030   -0.9250 C   0  0  0  0  0  0  0  0  0  0  0  0
   -4.6810    0.3180   -0.9670 O   0  0  0  0  0  0  0  0  0  0  0  0
  2  1  1  6
  2  3  1  0
  2 19  1  0
  3  4  2  0
  4  5  1  0
  4 17  1  0
  5  6  1  0
  6  7  1  0
  7  8  2  0
  7  9  1  0
  9 10  1  0
 10 11  1  0
 10 15  1  0
 11 12  1  0
 12 13  2  0
 12 14  1  0
 14 15  1  0
 15 16  2  0
 17 18  2  0
 18 19  1  0
M  END
