
     RDKit          3D

 19 20  0  0  0  0  0  0  0  0999 V2000
    6.5110   -0.7500    0.2980 N   0  0  0  0  0  0  0  0  0  0  0  0
    5.3640    0.0520    0.0140 C   0  0  0  0  0  0  0  0  0  0  0  0
    5.6060    1.1930   -0.4130 O   0  0  0  0  0  0  0  0  0  0  0  0
    4.0800   -0.4910    0.2320 C   0  0  0  0  0  0  0  0  0  0  0  0
    3.7160   -1.5210    0.6450 O   0  0  0  0  0  0  0  0  0  0  0  0
    2.8270    0.6140   -0.2120 N   0  0  0  0  0  0  0  0  0  0  0  0
    1.7550   -0.2350    0.1290 C   0  0  0  0  0  0  0  0  0  0  0  0
    1.6140   -1.3330    0.5820 O   0  0  0  0  0  0  0  0  0  0  0  0
    0.5390    0.5550   -0.2180 N   0  0  0  0  0  0  0  0  0  0  0  0
   -0.7350    0.1030   -0.0990 C   0  0  0  0  0  0  0  0  0  0  0  0
   -1.0700   -1.0990    0.3060 C   0  0  0  0  0  0  0  0  0  0  0  0
   -2.4580   -1.4410    0.3810 N   0  0  0  0  0  0  0  0  0  0  0  0
   -3.4670   -0.5260    0.0320 C   0  0  0  0  0  0  0  0  0  0  0  0
   -4.7220   -0.7760    0.0780 N   0  0  0  0  0  0  0  0  0  0  0  0
   -5.7210    0.1790   -0.2840 C   0  0  0  0  0  0  0  0  0  0  0  0
   -5.3840    1.4050   -0.6960 C   0  0  0  0  0  0  0  0  0  0  0  0
   -4.0480    1.7360   -0.7680 O   0  0  0  0  0  0  0  0  0  0  0  0
   -3.0720    0.7920   -0.4110 C   0  0  0  0  0  0  0  0  0  0  0  0
   -1.8130    1.0650   -0.4650 C   0  0  0  0  0  0  0  0  0  0  0  0
  1  2  1  0
  2  3  2  0
  2  4  1  0
  4  5  2  0
  4  6  1  0
  6  7  1  0
  7  8  2  0
  7  9  1  0
  9 10  1  0
 10 11  2  0
 10 19  1  0
 11 12  1  0
 12 13  1  0
 13 14  2  0
 13 18  1  0
 14 15  1  0
 15 16  2  0
 16 17  1  0
 17 18  1  0
 18 19  2  0
M  END
