
     RDKit          3D

 25 28  0  0  0  0  0  0  0  0999 V2000
    4.5850    2.4150    0.6890 C   0  0  0  0  0  0  0  0  0  0  0  0
    4.2800    1.0610    0.1570 C   0  0  0  0  0  0  0  0  0  0  0  0
    3.0440    0.4630    0.2800 C   0  0  0  0  0  0  0  0  0  0  0  0
    2.7740   -0.7970   -0.2140 C   0  0  0  0  0  0  0  0  0  0  0  0
    1.4620   -1.4280   -0.1040 C   0  0  0  0  0  0  0  0  0  0  0  0
    1.4050   -3.1360    0.2930 Cl  0  0  0  0  0  0  0  0  0  0  0  0
    0.3260   -0.7930   -0.2820 C   0  0  0  0  0  0  0  0  0  0  0  0
    0.3560    0.5550   -0.5960 O   0  0  0  0  0  0  0  0  0  0  0  0
   -0.8470    1.2680   -0.7960 C   0  0  0  0  0  0  0  0  0  0  0  0
   -2.0320    0.6930   -0.6960 C   0  0  0  0  0  0  0  0  0  0  0  0
   -3.2950    1.4430   -0.9080 C   0  0  0  0  0  0  0  0  0  0  0  0
   -4.2430    1.0240    0.1880 C   0  0  0  0  0  0  0  0  0  0  0  0
   -4.5890   -0.4190    0.0300 C   0  0  2  0  0  0  0  0  0  0  0  0
   -5.3100   -0.9030    1.2910 C   0  0  0  0  0  0  0  0  0  0  0  0
   -6.5260   -0.1660    1.5350 N   0  0  0  0  0  0  0  0  0  0  0  0
   -3.4530   -1.3370   -0.2580 C   0  0  0  0  0  0  0  0  0  0  0  0
   -2.1880   -0.6920   -0.3770 N   0  0  0  0  0  0  0  0  0  0  0  0
   -0.9870   -1.4230   -0.1720 C   0  0  0  0  0  0  0  0  0  0  0  0
   -1.0050   -2.6640    0.1170 O   0  0  0  0  0  0  0  0  0  0  0  0
    3.8320   -1.4410   -0.8530 C   0  0  0  0  0  0  0  0  0  0  0  0
    5.0700   -0.8470   -0.9780 C   0  0  0  0  0  0  0  0  0  0  0  0
    6.2730   -1.2570   -1.5630 C   0  0  0  0  0  0  0  0  0  0  0  0
    7.2100   -0.2610   -1.4110 C   0  0  0  0  0  0  0  0  0  0  0  0
    6.6060    0.7410   -0.7480 N   0  0  0  0  0  0  0  0  0  0  0  0
    5.3260    0.4130   -0.4800 C   0  0  0  0  0  0  0  0  0  0  0  0
  1  2  1  0
  2  3  2  0
  2 25  1  0
  3  4  1  0
  4  5  1  0
  4 20  2  0
  5  6  1  0
  5  7  2  3
  7  8  1  0
  7 18  1  0
  8  9  1  0
  9 10  2  0
 10 11  1  0
 10 17  1  0
 11 12  1  0
 12 13  1  0
 13 14  1  1
 13 16  1  0
 14 15  1  0
 16 17  1  0
 17 18  1  0
 18 19  2  0
 20 21  1  0
 21 22  1  0
 21 25  2  0
 22 23  2  0
 23 24  1  0
 24 25  1  0
M  CHG  1  15   1
M  END
