
     RDKit          3D

 19 18  0  0  0  0  0  0  0  0999 V2000
   -2.1190    2.5200    0.2630 C   0  0  0  0  0  0  0  0  0  0  0  0
   -3.2350    1.6290    0.7640 C   0  0  0  0  0  0  0  0  0  0  0  0
   -2.7370    0.3660    1.3730 C   0  0  0  0  0  0  0  0  0  0  0  0
   -1.9450   -0.5160    0.4850 C   0  0  1  0  0  0  0  0  0  0  0  0
   -1.5380   -1.7470    1.3060 C   0  0  0  0  0  0  0  0  0  0  0  0
   -2.6340   -1.0090   -0.7330 C   0  0  0  0  0  0  0  0  0  0  0  0
   -3.8760   -1.8240   -0.4240 C   0  0  0  0  0  0  0  0  0  0  0  0
   -4.4930   -2.2670   -1.5930 O   0  0  0  0  0  0  0  0  0  0  0  0
   -0.4090    0.3070   -0.0170 S   0  0  0  0  0  0  0  0  0  0  0  0
    0.5860   -0.7400   -1.1030 C   0  0  0  0  0  0  0  0  0  0  0  0
    1.8350    0.0290   -1.4620 C   0  0  2  0  0  0  0  0  0  0  0  0
    2.6990   -0.7560   -2.3460 N   0  0  0  0  0  0  0  0  0  0  0  0
    2.6300    0.3840   -0.2430 C   0  0  0  0  0  0  0  0  0  0  0  0
    2.1330    1.0600    0.6920 O   0  0  0  0  0  0  0  0  0  0  0  0
    3.9820   -0.0270   -0.0870 N   0  0  0  0  0  0  0  0  0  0  0  0
    4.7280    0.3260    1.0960 C   0  0  0  0  0  0  0  0  0  0  0  0
    4.8270    1.7880    1.2590 C   0  0  0  0  0  0  0  0  0  0  0  0
    4.2960    2.5390    0.4200 O   0  0  0  0  0  0  0  0  0  0  0  0
    5.5010    2.3220    2.3300 O   0  0  0  0  0  0  0  0  0  0  0  0
  1  2  1  0
  2  3  1  0
  3  4  1  0
  4  5  1  1
  4  6  1  0
  4  9  1  0
  6  7  1  0
  7  8  1  0
  9 10  1  0
 10 11  1  0
 11 12  1  6
 11 13  1  0
 13 14  2  0
 13 15  1  0
 15 16  1  0
 16 17  1  0
 17 18  2  0
 17 19  1  0
M  CHG  1  12   1
M  END
