
     RDKit          3D

 25 28  0  0  0  0  0  0  0  0999 V2000
   -4.6000    4.0310    0.2600 C   0  0  0  0  0  0  0  0  0  0  0  0
   -3.7820    2.9820    0.3010 C   0  0  0  0  0  0  0  0  0  0  0  0
   -2.5090    2.9690    0.5610 O   0  0  0  0  0  0  0  0  0  0  0  0
   -2.0200    1.7610    0.5160 C   0  0  0  0  0  0  0  0  0  0  0  0
   -0.7590    1.2120    0.7080 C   0  0  0  0  0  0  0  0  0  0  0  0
   -0.5520   -0.1310    0.5880 C   0  0  0  0  0  0  0  0  0  0  0  0
    0.7630   -0.6890    0.7910 C   0  0  0  0  0  0  0  0  0  0  0  0
    1.1550   -1.6860    1.6060 N   0  0  0  0  0  0  0  0  0  0  0  0
    2.4580   -1.8850    1.4860 N   0  0  0  0  0  0  0  0  0  0  0  0
    2.9550   -1.0310    0.5970 C   0  0  0  0  0  0  0  0  0  0  0  0
    1.8980   -0.2700    0.1490 C   0  0  0  0  0  0  0  0  0  0  0  0
    2.2000    0.7670   -0.8610 C   0  0  0  0  0  0  0  0  0  0  0  0
    3.4080    1.5290   -0.3590 C   0  0  0  0  0  0  0  0  0  0  0  0
    4.5150    0.7140    0.0140 N   0  0  2  0  0  0  0  0  0  0  0  0
    5.6340    1.0610   -0.8510 C   0  0  0  0  0  0  0  0  0  0  0  0
    4.2870   -0.7050   -0.0060 C   0  0  0  0  0  0  0  0  0  0  0  0
   -1.5930   -0.9530    0.2760 C   0  0  0  0  0  0  0  0  0  0  0  0
   -1.3750   -2.3070    0.1570 O   0  0  0  0  0  0  0  0  0  0  0  0
   -2.4660   -3.1460   -0.1680 C   0  0  0  0  0  0  0  0  0  0  0  0
   -2.0310   -4.5720   -0.2510 C   0  0  0  0  0  0  0  0  0  0  0  0
   -2.8370   -0.4290    0.0840 C   0  0  0  0  0  0  0  0  0  0  0  0
   -3.0800    0.9060    0.1950 C   0  0  0  0  0  0  0  0  0  0  0  0
   -4.2220    1.6710    0.0530 C   0  0  0  0  0  0  0  0  0  0  0  0
   -5.4590    1.3150   -0.2440 C   0  0  0  0  0  0  0  0  0  0  0  0
   -5.9650   -0.3230   -0.5460 Cl  0  0  0  0  0  0  0  0  0  0  0  0
  1  2  2  0
  2  3  1  0
  2 23  1  0
  3  4  1  0
  4  5  2  0
  4 22  1  0
  5  6  1  0
  6  7  1  0
  6 17  2  0
  7  8  2  0
  7 11  1  0
  8  9  1  0
  9 10  1  0
 10 11  2  0
 10 16  1  0
 11 12  1  0
 12 13  1  0
 13 14  1  0
 14 15  1  6
 14 16  1  0
 17 18  1  0
 17 21  1  0
 18 19  1  0
 19 20  1  0
 21 22  2  0
 22 23  1  0
 23 24  2  3
 24 25  1  0
M  CHG  1  14   1
M  END
