
     RDKit          3D

 25 28  0  0  0  0  0  0  0  0999 V2000
   -4.3210    2.3520    1.1320 C   0  0  0  0  0  0  0  0  0  0  0  0
   -5.1350    1.0750    1.0420 C   0  0  0  0  0  0  0  0  0  0  0  0
   -4.6760    0.2650   -0.1620 C   0  0  2  0  0  0  0  0  0  0  0  0
   -5.4160   -1.0010   -0.3220 C   0  0  0  0  0  0  0  0  0  0  0  0
   -4.6520   -2.1940   -0.4670 N   0  0  0  0  0  0  0  0  0  0  0  0
   -3.5460   -2.3090    0.4340 C   0  0  0  0  0  0  0  0  0  0  0  0
   -2.6750   -1.1190    0.2680 C   0  0  0  0  0  0  0  0  0  0  0  0
   -1.3310   -0.9430    0.3290 N   0  0  0  0  0  0  0  0  0  0  0  0
   -1.1220    0.3590    0.0740 C   0  0  0  0  0  0  0  0  0  0  0  0
    0.1510    1.0350    0.0280 C   0  0  0  0  0  0  0  0  0  0  0  0
    1.3260    0.4180   -0.0800 C   0  0  0  0  0  0  0  0  0  0  0  0
    1.5640   -1.0440   -0.1730 C   0  0  0  0  0  0  0  0  0  0  0  0
    3.0280   -1.1700    0.1490 C   0  0  2  0  0  0  0  0  0  0  0  0
    3.1370   -1.5000    1.5200 O   0  0  0  0  0  0  0  0  0  0  0  0
    3.6180    0.1750   -0.0110 C   0  0  0  0  0  0  0  0  0  0  0  0
    5.0520    0.4360   -0.0260 C   0  0  0  0  0  0  0  0  0  0  0  0
    5.9880   -0.4430   -0.5280 C   0  0  0  0  0  0  0  0  0  0  0  0
    7.3390   -0.1710   -0.5410 C   0  0  0  0  0  0  0  0  0  0  0  0
    7.7240    1.0550   -0.0150 C   0  0  0  0  0  0  0  0  0  0  0  0
    6.8140    1.9490    0.4920 C   0  0  0  0  0  0  0  0  0  0  0  0
    5.5130    1.6090    0.4680 N   0  0  0  0  0  0  0  0  0  0  0  0
    2.6420    1.0520   -0.1380 C   0  0  0  0  0  0  0  0  0  0  0  0
    2.8680    2.7860   -0.3530 Cl  0  0  0  0  0  0  0  0  0  0  0  0
   -2.2570    0.9720   -0.1360 O   0  0  0  0  0  0  0  0  0  0  0  0
   -3.2220    0.0850   -0.0210 C   0  0  0  0  0  0  0  0  0  0  0  0
  1  2  1  0
  3  2  1  1
  3  4  1  0
  3 25  1  0
  4  5  1  0
  5  6  1  0
  6  7  1  0
  7  8  1  0
  7 25  2  0
  8  9  2  0
  9 10  1  0
  9 24  1  0
 10 11  2  3
 11 12  1  0
 11 22  1  0
 12 13  1  0
 13 14  1  1
 13 15  1  0
 15 16  1  0
 15 22  2  0
 16 17  2  0
 16 21  1  0
 17 18  1  0
 18 19  2  0
 19 20  1  0
 20 21  2  0
 22 23  1  0
 24 25  1  0
M  CHG  1   5   1
M  END
