
     RDKit          3D

 25 27  0  0  0  0  0  0  0  0999 V2000
    3.5790    0.9650   -2.7580 C   0  0  0  0  0  0  0  0  0  0  0  0
    4.3210    1.3630   -1.7910 C   0  0  0  0  0  0  0  0  0  0  0  0
    4.8160    0.5830   -0.7040 C   0  0  0  0  0  0  0  0  0  0  0  0
    5.6240    1.2760    0.1650 C   0  0  0  0  0  0  0  0  0  0  0  0
    6.2790    0.7610    1.3570 C   0  0  0  0  0  0  0  0  0  0  0  0
    6.5990    1.8910    2.6460 Cl  0  0  0  0  0  0  0  0  0  0  0  0
    6.6610   -0.4850    1.5440 C   0  0  0  0  0  0  0  0  0  0  0  0
    6.5330   -1.6560    0.6240 C   0  0  0  0  0  0  0  0  0  0  0  0
    5.1770   -1.7360    0.0080 C   0  0  0  0  0  0  0  0  0  0  0  0
    4.4190   -0.7880   -0.5670 C   0  0  0  0  0  0  0  0  0  0  0  0
    3.1450   -1.1650   -0.9950 N   0  0  0  0  0  0  0  0  0  0  0  0
    1.9900   -0.5190   -0.4510 C   0  0  0  0  0  0  0  0  0  0  0  0
    2.1840    0.3760    0.4030 O   0  0  0  0  0  0  0  0  0  0  0  0
    0.6800   -0.8570   -0.8450 N   0  0  0  0  0  0  0  0  0  0  0  0
   -0.4270   -0.1440   -0.2350 C   0  0  0  0  0  0  0  0  0  0  0  0
   -1.7030   -0.6920   -0.8230 C   0  0  0  0  0  0  0  0  0  0  0  0
   -2.8870   -0.0700   -0.3040 N   0  0  2  0  0  0  0  0  0  0  0  0
   -2.7440    0.3260    1.0980 C   0  0  0  0  0  0  0  0  0  0  0  0
   -4.2230    0.3920    1.5050 C   0  0  1  0  0  0  0  0  0  0  0  0
   -4.8750    1.6170    1.0090 C   0  0  0  0  0  0  0  0  0  0  0  0
   -5.9430    1.4710    0.0100 C   0  0  0  0  0  0  0  0  0  0  0  0
   -6.3580    0.2110   -0.2900 O   0  0  0  0  0  0  0  0  0  0  0  0
   -6.2320   -0.7210    0.7050 C   0  0  0  0  0  0  0  0  0  0  0  0
   -4.7350   -0.8970    0.9470 C   0  0  1  0  0  0  0  0  0  0  0  0
   -3.9710   -1.0140   -0.3540 C   0  0  0  0  0  0  0  0  0  0  0  0
  1  2  2  0
  2  3  1  0
  3  4  2  0
  3 10  1  0
  4  5  1  0
  5  6  1  0
  5  7  2  0
  7  8  1  0
  8  9  1  0
  9 10  2  0
 10 11  1  0
 11 12  1  0
 12 13  2  0
 12 14  1  0
 14 15  1  0
 15 16  1  0
 17 16  1  1
 17 18  1  0
 17 25  1  0
 19 18  1  6
 19 20  1  0
 19 24  1  0
 20 21  1  0
 21 22  1  0
 22 23  1  0
 24 23  1  6
 24 25  1  0
M  CHG  1  17   1
M  END
