
     RDKit          3D

 25 28  0  0  0  0  0  0  0  0999 V2000
   -1.8010    2.3260    0.4580 C   0  0  0  0  0  0  0  0  0  0  0  0
   -1.4430    0.9280    0.1960 C   0  0  0  0  0  0  0  0  0  0  0  0
   -0.1510    0.6950   -0.1050 C   0  0  0  0  0  0  0  0  0  0  0  0
    0.8570    1.7400   -0.1810 C   0  0  0  0  0  0  0  0  0  0  0  0
    0.5090    2.8730   -0.5700 O   0  0  0  0  0  0  0  0  0  0  0  0
    2.2560    1.4860    0.1850 C   0  0  0  0  0  0  0  0  0  0  0  0
    2.6200    0.0290    0.1810 C   0  0  2  0  0  0  0  0  0  0  0  0
    4.0010   -0.0840   -0.3550 C   0  0  0  0  0  0  0  0  0  0  0  0
    5.0310   -0.5390    0.3120 C   0  0  0  0  0  0  0  0  0  0  0  0
    6.2430   -0.5060   -0.5380 C   0  0  2  0  0  0  0  0  0  0  0  0
    7.4620    0.5680    0.1930 Cl  0  0  0  0  0  0  0  0  0  0  0  0
    5.7620    0.0400   -1.8100 C   0  0  0  0  0  0  0  0  0  0  0  0
    4.4680    0.2800   -1.6940 C   0  0  0  0  0  0  0  0  0  0  0  0
    1.7380   -0.8210   -0.6890 C   0  0  0  0  0  0  0  0  0  0  0  0
    0.2810   -0.6770   -0.3680 C   0  0  0  0  0  0  0  0  0  0  0  0
   -0.5100   -1.6970   -0.3290 N   0  0  0  0  0  0  0  0  0  0  0  0
   -1.8830   -1.4950   -0.0170 C   0  0  0  0  0  0  0  0  0  0  0  0
   -2.5690   -2.6520   -0.0060 C   0  0  0  0  0  0  0  0  0  0  0  0
   -3.9890   -2.8340    0.2730 C   0  0  0  0  0  0  0  0  0  0  0  0
   -4.8890   -1.9420    0.5440 N   0  0  0  0  0  0  0  0  0  0  0  0
   -4.7450   -0.5120    0.6460 C   0  0  0  0  0  0  0  0  0  0  0  0
   -6.0000    0.2140    0.9390 C   0  0  0  0  0  0  0  0  0  0  0  0
   -5.7480    1.5830    1.0170 O   0  0  0  0  0  0  0  0  0  0  0  0
   -3.6600    0.2390    0.5180 C   0  0  0  0  0  0  0  0  0  0  0  0
   -2.3380   -0.1770    0.2430 N   0  0  0  0  0  0  0  0  0  0  0  0
  1  2  1  0
  2  3  2  0
  2 25  1  0
  3  4  1  0
  3 15  1  0
  4  5  2  0
  4  6  1  0
  6  7  1  0
  7  8  1  6
  7 14  1  0
  8  9  2  0
  8 13  1  0
  9 10  1  0
 10 11  1  1
 10 12  1  0
 12 13  2  0
 14 15  1  0
 15 16  2  0
 16 17  1  0
 17 18  2  0
 17 25  1  0
 18 19  1  0
 19 20  2  0
 20 21  1  0
 21 22  1  0
 21 24  2  0
 22 23  1  0
 24 25  1  0
M  CHG  1  16   1
M  END
