
     RDKit          3D

 24 27  0  0  0  0  0  0  0  0999 V2000
    7.0860    1.0410    0.2250 C   0  0  0  0  0  0  0  0  0  0  0  0
    5.8510    0.4040   -0.3900 C   0  0  2  0  0  0  0  0  0  0  0  0
    5.0120    1.3920   -1.1220 C   0  0  0  0  0  0  0  0  0  0  0  0
    3.8760    1.9540   -0.2630 C   0  0  0  0  0  0  0  0  0  0  0  0
    3.0200    0.7550    0.0240 C   0  0  0  0  0  0  0  0  0  0  0  0
    1.6880    0.7390   -0.1100 N   0  0  0  0  0  0  0  0  0  0  0  0
    0.9580   -0.3850    0.1630 C   0  0  0  0  0  0  0  0  0  0  0  0
    1.5410   -1.5530    0.5870 C   0  0  0  0  0  0  0  0  0  0  0  0
    2.9270   -1.5560    0.7330 C   0  0  0  0  0  0  0  0  0  0  0  0
    3.6350   -0.4090    0.4500 C   0  0  0  0  0  0  0  0  0  0  0  0
    5.0900   -0.3970    0.6030 C   0  0  0  0  0  0  0  0  0  0  0  0
    0.4910   -2.5760    0.7950 C   0  0  2  0  0  0  0  0  0  0  0  0
    0.6420   -3.7040   -0.1040 N   0  0  0  0  0  0  0  0  0  0  0  0
   -0.7560   -1.8570    0.4420 C   0  0  0  0  0  0  0  0  0  0  0  0
   -0.4790   -0.6160    0.0850 C   0  0  0  0  0  0  0  0  0  0  0  0
   -1.3950    0.3780   -0.3200 O   0  0  0  0  0  0  0  0  0  0  0  0
   -2.7680    0.1200   -0.0930 C   0  0  0  0  0  0  0  0  0  0  0  0
   -3.6270    1.2240   -0.5550 C   0  0  0  0  0  0  0  0  0  0  0  0
   -3.0600    2.2260   -1.0740 O   0  0  0  0  0  0  0  0  0  0  0  0
   -5.0340    1.1400   -0.4090 N   0  0  0  0  0  0  0  0  0  0  0  0
   -5.7480    0.0330    0.1720 C   0  0  0  0  0  0  0  0  0  0  0  0
   -7.1880    0.1720   -0.2770 C   0  0  0  0  0  0  0  0  0  0  0  0
   -7.3330    1.6740   -0.5010 C   0  0  0  0  0  0  0  0  0  0  0  0
   -5.9500    2.1800   -0.8340 C   0  0  0  0  0  0  0  0  0  0  0  0
  2  1  1  1
  2  3  1  0
  2 11  1  0
  3  4  1  0
  4  5  1  0
  5  6  2  0
  5 10  1  0
  6  7  1  0
  7  8  2  0
  7 15  1  0
  8  9  1  0
  8 12  1  0
  9 10  2  0
 10 11  1  0
 12 13  1  6
 12 14  1  0
 14 15  2  0
 15 16  1  0
 16 17  1  0
 17 18  1  0
 18 19  2  0
 18 20  1  0
 20 21  1  0
 20 24  1  0
 21 22  1  0
 22 23  1  0
 23 24  1  0
M  CHG  1  13   1
M  END
