
     RDKit          3D

 29 33  0  0  0  0  0  0  0  0999 V2000
    1.8630   -1.9200   -0.3190 O   0  0  0  0  0  0  0  0  0  0  0  0
    2.4960   -0.8450   -0.3490 C   0  0  0  0  0  0  0  0  0  0  0  0
    2.1330    0.1570    0.5860 N   0  0  0  0  0  0  0  0  0  0  0  0
    1.0640   -0.0520    1.5510 C   0  0  0  0  0  0  0  0  0  0  0  0
   -0.2210    0.0870    0.8210 C   0  0  0  0  0  0  0  0  0  0  0  0
   -0.4930    0.4220   -0.4320 N   0  0  0  0  0  0  0  0  0  0  0  0
   -1.7770    0.4030   -0.5960 O   0  0  0  0  0  0  0  0  0  0  0  0
   -2.4000    0.0640    0.5070 C   0  0  0  0  0  0  0  0  0  0  0  0
   -3.7940   -0.0690    0.7340 N   0  0  0  0  0  0  0  0  0  0  0  0
   -4.2870   -0.4630    2.0240 C   0  0  0  0  0  0  0  0  0  0  0  0
   -5.6900   -1.0280    1.9450 C   0  0  0  0  0  0  0  0  0  0  0  0
   -6.6050   -0.1080    1.2090 C   0  0  2  0  0  0  0  0  0  0  0  0
   -7.5000   -0.8270    0.2040 C   0  0  0  0  0  0  0  0  0  0  0  0
   -8.1500    0.3710   -0.4800 C   0  0  0  0  0  0  0  0  0  0  0  0
   -6.9570    1.3000   -0.6900 C   0  0  0  0  0  0  0  0  0  0  0  0
   -5.9220    0.8950    0.3250 C   0  0  2  0  0  0  0  0  0  0  0  0
   -4.7280    0.1910   -0.3280 C   0  0  0  0  0  0  0  0  0  0  0  0
   -1.4030   -0.1390    1.4190 N   0  0  0  0  0  0  0  0  0  0  0  0
    3.5270   -0.6900   -1.3020 N   0  0  0  0  0  0  0  0  0  0  0  0
    3.9780   -1.6400   -2.2940 C   0  0  0  0  0  0  0  0  0  0  0  0
    5.2040   -1.0430   -2.9360 C   0  0  0  0  0  0  0  0  0  0  0  0
    5.6520   -0.0020   -1.9370 C   0  0  2  0  0  0  0  0  0  0  0  0
    6.4270   -0.7110   -0.8480 C   0  0  0  0  0  0  0  0  0  0  0  0
    6.9020    0.2060    0.1650 N   0  0  0  0  0  0  0  0  0  0  0  0
    8.0790    0.8600    0.1750 C   0  0  0  0  0  0  0  0  0  0  0  0
    8.1350    1.6320    1.3160 C   0  0  0  0  0  0  0  0  0  0  0  0
    6.9570    1.4190    1.9870 C   0  0  0  0  0  0  0  0  0  0  0  0
    6.2420    0.5520    1.2580 N   0  0  0  0  0  0  0  0  0  0  0  0
    4.3310    0.5330   -1.4200 C   0  0  0  0  0  0  0  0  0  0  0  0
  1  2  2  0
  2  3  1  0
  2 19  1  0
  3  4  1  0
  4  5  1  0
  5  6  2  0
  5 18  1  0
  6  7  1  0
  7  8  1  0
  8  9  1  0
  8 18  2  0
  9 10  1  0
  9 17  1  0
 10 11  1  0
 12 11  1  6
 12 13  1  0
 12 16  1  0
 13 14  1  0
 14 15  1  0
 16 15  1  6
 16 17  1  0
 19 20  1  0
 19 29  1  0
 20 21  1  0
 21 22  1  0
 22 23  1  1
 22 29  1  0
 23 24  1  0
 24 25  1  0
 24 28  1  0
 25 26  2  0
 26 27  1  0
 27 28  2  0
M  END
