
     RDKit          3D

 29 32  0  0  0  0  0  0  0  0999 V2000
   -3.9870    5.5970   -1.3810 C   0  0  0  0  0  0  0  0  0  0  0  0
   -2.8090    5.0930   -1.0610 C   0  0  0  0  0  0  0  0  0  0  0  0
   -2.6440    4.4210    0.2500 C   0  0  0  0  0  0  0  0  0  0  0  0
   -2.2450    3.0450    0.1190 N   0  0  0  0  0  0  0  0  0  0  0  0
   -3.0110    1.9820    0.0230 N   0  0  0  0  0  0  0  0  0  0  0  0
   -2.2700    0.8710   -0.0850 C   0  0  0  0  0  0  0  0  0  0  0  0
   -2.6780   -0.4790   -0.2100 N   0  0  0  0  0  0  0  0  0  0  0  0
   -3.5830   -0.9950    0.5460 C   0  0  0  0  0  0  0  0  0  0  0  0
   -4.3330   -0.3200    1.6340 C   0  0  0  0  0  0  0  0  0  0  0  0
   -5.6720   -1.0450    1.5710 C   0  0  0  0  0  0  0  0  0  0  0  0
   -5.1970   -2.5030    1.5120 C   0  0  0  0  0  0  0  0  0  0  0  0
   -4.0800   -2.3640    0.5080 C   0  0  0  0  0  0  0  0  0  0  0  0
   -3.6230   -3.3090   -0.2740 C   0  0  0  0  0  0  0  0  0  0  0  0
   -4.1940   -4.6020   -0.2140 N   0  0  0  0  0  0  0  0  0  0  0  0
   -0.9760    1.2710   -0.0540 N   0  0  0  0  0  0  0  0  0  0  0  0
    0.1250    0.3860   -0.1430 C   0  0  0  0  0  0  0  0  0  0  0  0
   -0.0720   -0.8750   -0.2600 O   0  0  0  0  0  0  0  0  0  0  0  0
    1.4780    0.7910   -0.1120 N   0  0  0  0  0  0  0  0  0  0  0  0
    2.5720   -0.1890   -0.2090 C   0  0  1  0  0  0  0  0  0  0  0  0
    3.4340    0.1530   -1.3860 C   0  0  0  0  0  0  0  0  0  0  0  0
    4.8250   -0.1950   -0.9110 C   0  0  2  0  0  0  0  0  0  0  0  0
    5.2040   -1.6130   -1.1640 C   0  0  0  0  0  0  0  0  0  0  0  0
    5.2970   -2.4650    0.0560 C   0  0  0  0  0  0  0  0  0  0  0  0
    6.0140   -1.8230    1.2000 C   0  0  0  0  0  0  0  0  0  0  0  0
    5.8820   -0.3310    1.2470 C   0  0  0  0  0  0  0  0  0  0  0  0
    4.8100    0.1930    0.4610 N   0  0  0  0  0  0  0  0  0  0  0  0
    3.5030   -0.0650    0.9780 C   0  0  0  0  0  0  0  0  0  0  0  0
   -0.9610    2.6190    0.0720 C   0  0  0  0  0  0  0  0  0  0  0  0
    0.0750    3.3530    0.1360 O   0  0  0  0  0  0  0  0  0  0  0  0
  1  2  2  0
  2  3  1  0
  3  4  1  0
  4  5  1  0
  4 28  1  0
  5  6  2  0
  6  7  1  0
  6 15  1  0
  7  8  2  3
  8  9  1  0
  8 12  1  0
  9 10  1  0
 10 11  1  0
 11 12  1  0
 12 13  2  3
 13 14  1  0
 15 16  1  0
 15 28  1  0
 16 17  2  0
 16 18  1  0
 19 18  1  1
 19 20  1  0
 19 27  1  0
 21 20  1  1
 21 22  1  0
 21 26  1  0
 22 23  1  0
 23 24  1  0
 24 25  1  0
 25 26  1  0
 26 27  1  0
 28 29  2  0
M  END
