
     RDKit          3D

 29 32  0  0  0  0  0  0  0  0999 V2000
   -1.3570   -1.3390    2.6060 C   0  0  0  0  0  0  0  0  0  0  0  0
   -1.2490   -1.6290    1.1020 C   0  0  2  0  0  0  0  0  0  0  0  0
   -0.0730   -1.5210    0.6090 O   0  0  0  0  0  0  0  0  0  0  0  0
    1.1030   -1.4130    0.1150 C   0  0  0  0  0  0  0  0  0  0  0  0
    1.8060   -0.2220    0.1170 N   0  0  0  0  0  0  0  0  0  0  0  0
    3.0190   -0.1300   -0.3980 C   0  0  0  0  0  0  0  0  0  0  0  0
    3.6610    1.2040   -0.3310 C   0  0  0  0  0  0  0  0  0  0  0  0
    3.0420    2.1650    0.2120 O   0  0  0  0  0  0  0  0  0  0  0  0
    4.9490    1.4660   -0.8490 N   0  0  0  0  0  0  0  0  0  0  0  0
    5.6110    2.7560   -0.7960 C   0  0  0  0  0  0  0  0  0  0  0  0
    5.8060    3.1600    0.6290 C   0  0  0  0  0  0  0  0  0  0  0  0
    6.4460    4.4030    0.7400 O   0  0  0  0  0  0  0  0  0  0  0  0
    3.6620   -1.1990   -0.9660 C   0  0  0  0  0  0  0  0  0  0  0  0
    3.0150   -2.4270   -1.0020 C   0  0  0  0  0  0  0  0  0  0  0  0
    3.6460   -3.5300   -1.5730 C   0  0  0  0  0  0  0  0  0  0  0  0
    3.0090   -4.7430   -1.6090 C   0  0  0  0  0  0  0  0  0  0  0  0
    1.7390   -4.8390   -1.0700 C   0  0  0  0  0  0  0  0  0  0  0  0
    1.1190   -3.7410   -0.5050 C   0  0  0  0  0  0  0  0  0  0  0  0
    1.7700   -2.5170   -0.4720 C   0  0  0  0  0  0  0  0  0  0  0  0
   -2.3810   -0.8880    0.3710 C   0  0  1  0  0  0  0  0  0  0  0  0
   -3.6970   -1.3750    0.8930 C   0  0  0  0  0  0  0  0  0  0  0  0
   -4.3660   -0.2040    1.5910 C   0  0  0  0  0  0  0  0  0  0  0  0
   -4.6330    0.7630    0.6300 O   0  0  0  0  0  0  0  0  0  0  0  0
   -3.5350    1.2080   -0.0540 C   0  0  1  0  0  0  0  0  0  0  0  0
   -3.7900    0.9700   -1.5360 C   0  0  0  0  0  0  0  0  0  0  0  0
   -4.8950    2.0090   -1.7730 C   0  0  0  0  0  0  0  0  0  0  0  0
   -4.7220    3.0270   -0.7710 N   0  0  0  0  0  0  0  0  0  0  0  0
   -3.5180    2.7200   -0.0220 C   0  0  0  0  0  0  0  0  0  0  0  0
   -2.2400    0.5930    0.4090 C   0  0  0  0  0  0  0  0  0  0  0  0
  2  1  1  1
  2  3  1  0
  2 20  1  0
  3  4  1  0
  4  5  2  0
  4 19  1  0
  5  6  1  0
  6  7  1  0
  6 13  2  0
  7  8  2  0
  7  9  1  0
  9 10  1  0
 10 11  1  0
 11 12  1  0
 13 14  1  0
 14 15  2  0
 14 19  1  0
 15 16  1  0
 16 17  2  0
 17 18  1  0
 18 19  2  0
 20 21  1  1
 20 29  1  0
 21 22  1  0
 22 23  1  0
 23 24  1  0
 24 25  1  6
 24 28  1  0
 24 29  1  0
 25 26  1  0
 26 27  1  0
 27 28  1  0
M  CHG  1  27   1
M  END
