
     RDKit          3D

 29 32  0  0  0  0  0  0  0  0999 V2000
   -6.3000    2.3740   -1.5480 C   0  0  0  0  0  0  0  0  0  0  0  0
   -6.1450    0.9720   -1.0070 C   0  0  0  0  0  0  0  0  0  0  0  0
   -4.7900    0.5450   -1.2900 N   0  0  0  0  0  0  0  0  0  0  0  0
   -4.5580   -0.8150   -0.7900 C   0  0  2  0  0  0  0  0  0  0  0  0
   -4.7150   -0.8300    0.7050 C   0  0  0  0  0  0  0  0  0  0  0  0
   -3.7860   -1.8390    1.3610 C   0  0  0  0  0  0  0  0  0  0  0  0
   -2.3940   -1.4920    1.1390 N   0  0  0  0  0  0  0  0  0  0  0  0
   -2.2690   -0.5960    0.0070 C   0  0  1  0  0  0  0  0  0  0  0  0
   -0.8430   -0.5270   -0.4990 C   0  0  1  0  0  0  0  0  0  0  0  0
   -0.8290    0.4240   -1.6640 C   0  0  0  0  0  0  0  0  0  0  0  0
    0.1220   -0.1340    0.5600 C   0  0  0  0  0  0  0  0  0  0  0  0
    0.0770    1.1180    1.1720 C   0  0  0  0  0  0  0  0  0  0  0  0
    1.1180    1.0990    2.0820 C   0  0  0  0  0  0  0  0  0  0  0  0
    1.7460   -0.1220    2.0010 C   0  0  0  0  0  0  0  0  0  0  0  0
    2.9110   -0.5140    2.8270 C   0  0  0  0  0  0  0  0  0  0  0  0
    4.0080   -0.9790    2.1220 O   0  0  0  0  0  0  0  0  0  0  0  0
    4.7670   -0.3660    1.1770 C   0  0  0  0  0  0  0  0  0  0  0  0
    4.6020    0.9150    0.6950 C   0  0  0  0  0  0  0  0  0  0  0  0
    5.4250    1.4600   -0.2700 C   0  0  0  0  0  0  0  0  0  0  0  0
    6.4620    0.7140   -0.7900 C   0  0  0  0  0  0  0  0  0  0  0  0
    6.6520   -0.5720   -0.3260 C   0  0  0  0  0  0  0  0  0  0  0  0
    5.8220   -1.0890    0.6310 C   0  0  0  0  0  0  0  0  0  0  0  0
    7.8050   -1.1070   -1.0470 C   0  0  0  0  0  0  0  0  0  0  0  0
    8.2990   -2.2540   -0.9100 O   0  0  0  0  0  0  0  0  0  0  0  0
    8.2930   -0.0840   -1.9600 C   0  0  0  0  0  0  0  0  0  0  0  0
    9.2860   -0.1800   -2.7580 O   0  0  0  0  0  0  0  0  0  0  0  0
    7.4390    1.0390   -1.7790 N   0  0  0  0  0  0  0  0  0  0  0  0
    1.1090   -0.8020    1.0840 O   0  0  0  0  0  0  0  0  0  0  0  0
   -3.1190   -1.1510   -1.1130 C   0  0  0  0  0  0  0  0  0  0  0  0
  1  2  1  0
  2  3  1  0
  4  3  1  1
  4  5  1  0
  4 29  1  0
  5  6  1  0
  6  7  1  0
  7  8  1  0
  8  9  1  0
  8 29  1  6
  9 10  1  6
  9 11  1  0
 11 12  2  0
 11 28  1  0
 12 13  1  0
 13 14  2  0
 14 15  1  0
 14 28  1  0
 15 16  1  0
 16 17  1  0
 17 18  2  0
 17 22  1  0
 18 19  1  0
 19 20  2  0
 20 21  1  0
 20 27  1  0
 21 22  2  0
 21 23  1  0
 23 24  2  0
 23 25  1  0
 25 26  2  0
 25 27  1  0
M  CHG  1   7   1
M  END
