
     RDKit          3D

 29 32  0  0  0  0  0  0  0  0999 V2000
    0.3690   -3.8270    2.5790 C   0  0  0  0  0  0  0  0  0  0  0  0
   -0.4690   -2.9850    1.9500 C   0  0  0  0  0  0  0  0  0  0  0  0
   -0.0210   -1.7110    1.4600 C   0  0  0  0  0  0  0  0  0  0  0  0
   -0.6980   -0.7780    0.8210 C   0  0  0  0  0  0  0  0  0  0  0  0
   -2.1000   -0.8990    0.4820 C   0  0  0  0  0  0  0  0  0  0  0  0
   -2.7080   -2.1440    0.4630 O   0  0  0  0  0  0  0  0  0  0  0  0
   -2.4880   -2.9190   -0.7230 C   0  0  0  0  0  0  0  0  0  0  0  0
   -2.8090    0.1940    0.1790 C   0  0  0  0  0  0  0  0  0  0  0  0
   -4.2280    0.0390   -0.1440 C   0  0  0  0  0  0  0  0  0  0  0  0
   -4.8350    1.2460   -0.6610 N   0  0  0  0  0  0  0  0  0  0  0  0
   -4.3970    2.4260    0.0070 C   0  0  0  0  0  0  0  0  0  0  0  0
   -2.9490    2.7290   -0.2630 C   0  0  0  0  0  0  0  0  0  0  0  0
   -2.1610    1.4820    0.0430 C   0  0  0  0  0  0  0  0  0  0  0  0
   -0.8840    1.6010    0.2010 C   0  0  0  0  0  0  0  0  0  0  0  0
   -0.2780    2.9600    0.0450 C   0  0  0  0  0  0  0  0  0  0  0  0
    0.9520    3.1060    0.1990 O   0  0  0  0  0  0  0  0  0  0  0  0
    0.0060    0.4690    0.5050 C   0  0  2  0  0  0  0  0  0  0  0  0
    0.9870    0.3690   -0.6050 C   0  0  0  0  0  0  0  0  0  0  0  0
    2.3590    0.3080   -0.4080 C   0  0  0  0  0  0  0  0  0  0  0  0
    3.2430    0.1680   -1.4300 N   0  0  0  0  0  0  0  0  0  0  0  0
    2.7300    0.0900   -2.6880 C   0  0  0  0  0  0  0  0  0  0  0  0
    3.5870   -0.0390   -3.6160 O   0  0  0  0  0  0  0  0  0  0  0  0
    1.4170    0.1470   -2.9250 N   0  0  0  0  0  0  0  0  0  0  0  0
    0.5280    0.2860   -1.8940 C   0  0  0  0  0  0  0  0  0  0  0  0
   -0.7080    0.3340   -2.1790 O   0  0  0  0  0  0  0  0  0  0  0  0
    4.6040    0.1270   -0.9300 C   0  0  0  0  0  0  0  0  0  0  0  0
    4.4100   -0.3790    0.4840 C   0  0  1  0  0  0  0  0  0  0  0  0
    5.5030    0.0010    1.4230 C   0  0  0  0  0  0  0  0  0  0  0  0
    3.1490    0.4240    0.8530 C   0  0  0  0  0  0  0  0  0  0  0  0
  1  2  2  0
  2  3  1  0
  3  4  2  3
  4  5  1  0
  4 17  1  0
  5  6  1  0
  5  8  2  0
  6  7  1  0
  8  9  1  0
  8 13  1  0
  9 10  1  0
 10 11  1  0
 11 12  1  0
 12 13  1  0
 13 14  2  0
 14 15  1  0
 14 17  1  0
 15 16  2  0
 17 18  1  6
 18 19  2  0
 18 24  1  0
 19 20  1  0
 19 29  1  0
 20 21  1  0
 20 26  1  0
 21 22  2  0
 21 23  1  0
 23 24  1  0
 24 25  2  0
 26 27  1  0
 27 28  1  1
 27 29  1  0
M  CHG  1  10   1
M  END
