
     RDKit          3D

 29 32  0  0  0  0  0  0  0  0999 V2000
    1.7320   -0.4910    1.8750 C   0  0  0  0  0  0  0  0  0  0  0  0
    2.4060   -1.2890    0.9030 N   0  0  0  0  0  0  0  0  0  0  0  0
    3.8550   -1.5220    1.2130 C   0  0  0  0  0  0  0  0  0  0  0  0
    4.6960   -0.4600    0.6520 C   0  0  0  0  0  0  0  0  0  0  0  0
    4.8890    0.7370    1.3130 C   0  0  0  0  0  0  0  0  0  0  0  0
    5.6910    1.7030    0.7460 C   0  0  0  0  0  0  0  0  0  0  0  0
    6.3160    1.5220   -0.4690 C   0  0  0  0  0  0  0  0  0  0  0  0
    7.3210    2.7760   -1.1450 Cl  0  0  0  0  0  0  0  0  0  0  0  0
    6.1370    0.3480   -1.1340 C   0  0  0  0  0  0  0  0  0  0  0  0
    5.3270   -0.6270   -0.5610 C   0  0  0  0  0  0  0  0  0  0  0  0
    1.8650   -1.8330   -0.2470 C   0  0  0  0  0  0  0  0  0  0  0  0
    2.7080   -2.5530   -0.9550 O   0  0  0  0  0  0  0  0  0  0  0  0
    0.5200   -1.7030   -0.7390 C   0  0  0  0  0  0  0  0  0  0  0  0
   -0.4590   -0.8670   -0.2930 C   0  0  0  0  0  0  0  0  0  0  0  0
   -1.7170   -0.8290   -0.8910 C   0  0  0  0  0  0  0  0  0  0  0  0
   -2.8100   -0.0550   -0.5730 C   0  0  0  0  0  0  0  0  0  0  0  0
   -2.8840    0.9400    0.5150 C   0  0  0  0  0  0  0  0  0  0  0  0
   -4.2200    1.5870    0.5650 C   0  0  0  0  0  0  0  0  0  0  0  0
   -5.2580    1.0980    1.3100 C   0  0  0  0  0  0  0  0  0  0  0  0
   -6.4830    1.7210    1.3350 C   0  0  0  0  0  0  0  0  0  0  0  0
   -6.7130    2.8720    0.6040 C   0  0  0  0  0  0  0  0  0  0  0  0
   -5.6830    3.3880   -0.1560 C   0  0  0  0  0  0  0  0  0  0  0  0
   -4.4600    2.7500   -0.1700 C   0  0  0  0  0  0  0  0  0  0  0  0
   -3.7590   -0.4050   -1.4530 N   0  0  0  0  0  0  0  0  0  0  0  0
   -3.3000   -1.3360   -2.2720 N   0  0  0  0  0  0  0  0  0  0  0  0
   -2.0350   -1.6340   -1.9650 C   0  0  0  0  0  0  0  0  0  0  0  0
   -1.0670   -2.4880   -2.4380 C   0  0  0  0  0  0  0  0  0  0  0  0
    0.1600   -2.5110   -1.8370 C   0  0  0  0  0  0  0  0  0  0  0  0
    1.1280   -3.3920   -2.3390 O   0  0  0  0  0  0  0  0  0  0  0  0
  1  2  1  0
  2  3  1  0
  2 11  1  0
  3  4  1  0
  4  5  2  0
  4 10  1  0
  5  6  1  0
  6  7  2  0
  7  8  1  0
  7  9  1  0
  9 10  2  0
 11 12  2  0
 11 13  1  0
 13 14  2  0
 13 28  1  0
 14 15  1  0
 15 16  1  0
 15 26  2  0
 16 17  1  0
 16 24  2  0
 17 18  1  0
 18 19  2  0
 18 23  1  0
 19 20  1  0
 20 21  2  0
 21 22  1  0
 22 23  2  0
 24 25  1  0
 25 26  1  0
 26 27  1  0
 27 28  2  0
 28 29  1  0
M  END
