
     RDKit          3D

 29 33  0  0  0  0  0  0  0  0999 V2000
   -2.5460   -2.5370    1.4910 C   0  0  0  0  0  0  0  0  0  0  0  0
   -2.9120   -2.1140    0.0800 C   0  0  1  0  0  0  0  0  0  0  0  0
   -4.3990   -2.0830    0.0360 C   0  0  0  0  0  0  0  0  0  0  0  0
   -5.2960   -3.0860    0.1150 N   0  0  0  0  0  0  0  0  0  0  0  0
   -6.4920   -2.5180    0.1080 N   0  0  0  0  0  0  0  0  0  0  0  0
   -6.3820   -1.2040    0.0280 N   0  0  0  0  0  0  0  0  0  0  0  0
   -5.0580   -0.8920   -0.0220 C   0  0  0  0  0  0  0  0  0  0  0  0
   -4.3760    0.3730   -0.1850 C   0  0  0  0  0  0  0  0  0  0  0  0
   -3.0050    0.3350   -0.2960 C   0  0  0  0  0  0  0  0  0  0  0  0
   -2.3580    1.5130   -0.4430 N   0  0  0  0  0  0  0  0  0  0  0  0
   -2.9780    2.7030   -0.4850 C   0  0  0  0  0  0  0  0  0  0  0  0
   -4.3080    2.7380   -0.3770 N   0  0  0  0  0  0  0  0  0  0  0  0
   -5.0000    4.0160   -0.4200 C   0  0  0  0  0  0  0  0  0  0  0  0
   -5.0210    1.5950   -0.2280 C   0  0  0  0  0  0  0  0  0  0  0  0
   -6.2750    1.6040   -0.1240 O   0  0  0  0  0  0  0  0  0  0  0  0
   -2.2720   -0.8890   -0.2630 N   0  0  0  0  0  0  0  0  0  0  0  0
   -0.8960   -0.8220   -0.6130 C   0  0  0  0  0  0  0  0  0  0  0  0
    0.1050   -1.0430    0.4820 C   0  0  1  0  0  0  0  0  0  0  0  0
    1.4850   -1.0040   -0.1040 C   0  0  0  0  0  0  0  0  0  0  0  0
    2.4880   -0.4510    0.7610 N   0  0  0  0  0  0  0  0  0  0  0  0
    3.6930   -0.1590    0.0400 C   0  0  2  0  0  0  0  0  0  0  0  0
    4.3350   -1.3810   -0.5590 C   0  0  0  0  0  0  0  0  0  0  0  0
    5.7270   -0.8890   -0.8920 C   0  0  0  0  0  0  0  0  0  0  0  0
    5.9750    0.3380   -0.0240 C   0  0  1  0  0  0  0  0  0  0  0  0
    5.7600    1.6110   -0.8260 C   0  0  0  0  0  0  0  0  0  0  0  0
    4.8180    0.2840    0.9870 C   0  0  0  0  0  0  0  0  0  0  0  0
    2.0860    0.6550    1.5570 C   0  0  0  0  0  0  0  0  0  0  0  0
    0.6780    1.0380    1.1370 C   0  0  0  0  0  0  0  0  0  0  0  0
   -0.1090   -0.0600    1.4410 O   0  0  0  0  0  0  0  0  0  0  0  0
  2  1  1  1
  2  3  1  0
  2 16  1  0
  3  4  1  0
  3  7  2  0
  4  5  1  0
  5  6  2  0
  6  7  1  0
  7  8  1  0
  8  9  2  0
  8 14  1  0
  9 10  1  0
  9 16  1  0
 10 11  2  0
 11 12  1  0
 12 13  1  0
 12 14  1  0
 14 15  2  0
 16 17  1  0
 18 17  1  6
 18 19  1  0
 18 29  1  0
 19 20  1  0
 21 20  1  1
 20 27  1  0
 21 22  1  0
 21 26  1  0
 22 23  1  0
 23 24  1  0
 24 25  1  6
 24 26  1  0
 27 28  1  0
 28 29  1  0
M  END
