
     RDKit          3D

 29 33  0  0  0  0  0  0  0  0999 V2000
   -5.6050   -3.0140   -0.2410 C   0  0  0  0  0  0  0  0  0  0  0  0
   -4.6380   -1.9990   -0.1410 O   0  0  0  0  0  0  0  0  0  0  0  0
   -3.5560   -2.4230    0.6320 C   0  0  2  0  0  0  0  0  0  0  0  0
   -3.2880   -1.5160    1.8050 C   0  0  0  0  0  0  0  0  0  0  0  0
   -1.8940   -0.9370    1.8140 C   0  0  0  0  0  0  0  0  0  0  0  0
   -1.5790   -0.3610    0.5450 N   0  0  0  0  0  0  0  0  0  0  0  0
   -1.0480    0.9280    0.3200 C   0  0  0  0  0  0  0  0  0  0  0  0
   -1.8310    2.0600    0.2920 C   0  0  0  0  0  0  0  0  0  0  0  0
   -1.2650    3.3050    0.0540 C   0  0  0  0  0  0  0  0  0  0  0  0
   -2.0920    4.4720    0.0280 N   0  0  0  0  0  0  0  0  0  0  0  0
   -2.1140    5.4710    0.9200 C   0  0  0  0  0  0  0  0  0  0  0  0
   -3.0360    6.4320    0.5810 C   0  0  0  0  0  0  0  0  0  0  0  0
   -3.5980    5.9550   -0.6080 C   0  0  0  0  0  0  0  0  0  0  0  0
   -3.0000    4.7840   -0.8930 N   0  0  0  0  0  0  0  0  0  0  0  0
    0.0610    3.3510   -0.1450 N   0  0  0  0  0  0  0  0  0  0  0  0
    0.8480    2.2590   -0.1230 C   0  0  0  0  0  0  0  0  0  0  0  0
    2.2050    1.9950   -0.2920 C   0  0  0  0  0  0  0  0  0  0  0  0
    2.4280    0.6450   -0.1580 C   0  0  0  0  0  0  0  0  0  0  0  0
    3.6750   -0.0330   -0.2670 N   0  0  0  0  0  0  0  0  0  0  0  0
    3.7680   -1.4310   -0.0960 C   0  0  0  0  0  0  0  0  0  0  0  0
    2.6810   -2.0510    0.1670 O   0  0  0  0  0  0  0  0  0  0  0  0
    5.0500   -2.1580   -0.2120 C   0  0  2  0  0  0  0  0  0  0  0  0
    6.3390   -1.5530    0.2230 C   0  0  0  0  0  0  0  0  0  0  0  0
    6.0310   -1.6780   -1.2240 C   0  0  1  0  0  0  0  0  0  0  0  0
    6.8650   -2.6920   -1.9920 C   0  0  0  0  0  0  0  0  0  0  0  0
    1.2110    0.1070    0.0900 N   0  0  0  0  0  0  0  0  0  0  0  0
    0.2890    1.0510    0.1100 N   0  0  0  0  0  0  0  0  0  0  0  0
   -1.8080   -1.1750   -0.6480 C   0  0  0  0  0  0  0  0  0  0  0  0
   -2.3480   -2.5320   -0.2780 C   0  0  0  0  0  0  0  0  0  0  0  0
  1  2  1  0
  3  2  1  6
  3  4  1  0
  3 29  1  0
  4  5  1  0
  5  6  1  0
  6  7  1  0
  6 28  1  0
  7  8  2  0
  7 27  1  0
  8  9  1  0
  9 10  1  0
  9 15  2  0
 10 11  1  0
 10 14  1  0
 11 12  2  0
 12 13  1  0
 13 14  2  0
 15 16  1  0
 16 17  2  0
 16 27  1  0
 17 18  1  0
 18 19  1  0
 18 26  2  0
 19 20  1  0
 20 21  2  0
 22 20  1  1
 22 23  1  0
 22 24  1  0
 23 24  1  0
 24 25  1  6
 26 27  1  0
 28 29  1  0
M  END
