
     RDKit          3D

 28 31  0  0  0  0  0  0  0  0999 V2000
   -2.6140   -3.4030    1.2600 C   0  0  0  0  0  0  0  0  0  0  0  0
   -1.8020   -2.1070    1.6360 C   0  0  0  0  0  0  0  0  0  0  0  0
   -2.7550   -0.9790    1.6150 C   0  0  0  0  0  0  0  0  0  0  0  0
   -3.6780   -0.7030    2.6000 N   0  0  0  0  0  0  0  0  0  0  0  0
   -4.5840    0.1640    2.1460 N   0  0  0  0  0  0  0  0  0  0  0  0
   -4.2960    0.4820    0.8790 C   0  0  0  0  0  0  0  0  0  0  0  0
   -3.1580   -0.2050    0.5480 C   0  0  0  0  0  0  0  0  0  0  0  0
   -2.3990   -0.0950   -0.6740 C   0  0  0  0  0  0  0  0  0  0  0  0
   -0.9770   -0.0600   -0.5860 C   0  0  0  0  0  0  0  0  0  0  0  0
   -0.1770   -0.0450    0.4040 C   0  0  0  0  0  0  0  0  0  0  0  0
    1.3000   -0.0210    0.1830 C   0  0  0  0  0  0  0  0  0  0  0  0
    1.7710   -0.0150   -1.2110 C   0  0  0  0  0  0  0  0  0  0  0  0
    2.1240   -0.0060    1.1390 N   0  0  0  0  0  0  0  0  0  0  0  0
    3.5200    0.0170    0.8830 C   0  0  0  0  0  0  0  0  0  0  0  0
    4.3760   -1.0200    0.9020 N   0  0  0  0  0  0  0  0  0  0  0  0
    5.5890   -0.5840    0.6080 C   0  0  0  0  0  0  0  0  0  0  0  0
    5.5010    0.7500    0.4000 N   0  0  0  0  0  0  0  0  0  0  0  0
    4.2330    1.1220    0.5680 N   0  0  0  0  0  0  0  0  0  0  0  0
    6.7160    1.4460    0.0630 C   0  0  0  0  0  0  0  0  0  0  0  0
    7.6530    0.6590   -0.7920 C   0  0  0  0  0  0  0  0  0  0  0  0
    7.4880   -0.7010   -0.7410 O   0  0  0  0  0  0  0  0  0  0  0  0
    6.9590   -1.1640    0.4570 C   0  0  0  0  0  0  0  0  0  0  0  0
   -2.9540    0.0790   -1.8850 C   0  0  0  0  0  0  0  0  0  0  0  0
   -4.3880    0.2200   -2.2140 C   0  0  0  0  0  0  0  0  0  0  0  0
   -5.3530    0.7130   -1.4010 C   0  0  0  0  0  0  0  0  0  0  0  0
   -5.1500    1.1770   -0.0600 N   0  0  0  0  0  0  0  0  0  0  0  0
   -5.8450    2.2940    0.4340 C   0  0  0  0  0  0  0  0  0  0  0  0
   -5.4820    3.4430   -0.4160 N   0  0  0  0  0  0  0  0  0  0  0  0
  1  2  1  0
  2  3  1  0
  3  4  1  0
  3  7  2  0
  4  5  1  0
  5  6  2  0
  6  7  1  0
  6 26  1  0
  7  8  1  0
  8  9  1  0
  8 23  2  0
  9 10  2  3
 10 11  1  0
 11 12  1  0
 11 13  2  3
 13 14  1  0
 14 15  1  0
 14 18  2  0
 15 16  2  0
 16 17  1  0
 16 22  1  0
 17 18  1  0
 17 19  1  0
 19 20  1  0
 20 21  1  0
 21 22  1  0
 23 24  1  0
 24 25  2  0
 25 26  1  0
 26 27  1  0
 27 28  1  0
M  END
