
     RDKit          3D

 31 34  0  0  0  0  0  0  0  0999 V2000
   -3.0720   -3.3370   -0.4530 O   0  0  0  0  0  0  0  0  0  0  0  0
   -3.6550   -2.2240   -0.2900 C   0  0  0  0  0  0  0  0  0  0  0  0
   -5.0910   -2.0770   -0.0210 C   0  0  0  0  0  0  0  0  0  0  0  0
   -5.9120   -3.0260    0.0980 O   0  0  0  0  0  0  0  0  0  0  0  0
   -5.3620   -0.6460    0.0740 C   0  0  0  0  0  0  0  0  0  0  0  0
   -6.5330    0.0590    0.3710 C   0  0  0  0  0  0  0  0  0  0  0  0
   -6.5630    1.4170    0.4780 C   0  0  0  0  0  0  0  0  0  0  0  0
   -5.3930    2.1370    0.2870 C   0  0  0  0  0  0  0  0  0  0  0  0
   -5.3740    3.9170    0.4360 S   0  0  0  0  0  0  0  0  0  0  0  0
   -4.2390    1.4120   -0.0060 C   0  0  0  0  0  0  0  0  0  0  0  0
   -4.2140    0.0330   -0.1170 C   0  0  0  0  0  0  0  0  0  0  0  0
   -3.0800   -0.9210   -0.3470 C   0  0  0  0  0  0  0  0  0  0  0  0
   -1.8500   -0.4210   -0.2550 C   0  0  0  0  0  0  0  0  0  0  0  0
   -0.7750   -1.3670   -0.0200 C   0  0  0  0  0  0  0  0  0  0  0  0
   -1.0970   -2.5190    0.6390 N   0  0  0  0  0  0  0  0  0  0  0  0
   -0.2320   -3.4470    1.0400 C   0  0  0  0  0  0  0  0  0  0  0  0
    1.0960   -3.2310    0.7310 C   0  0  0  0  0  0  0  0  0  0  0  0
    1.4320   -2.0480    0.0440 C   0  0  0  0  0  0  0  0  0  0  0  0
    0.5210   -1.1150   -0.3300 C   0  0  0  0  0  0  0  0  0  0  0  0
    1.0370    0.0570   -1.1220 C   0  0  0  0  0  0  0  0  0  0  0  0
    2.2850    0.3560   -0.7980 O   0  0  0  0  0  0  0  0  0  0  0  0
    3.5180    0.4440   -0.4750 C   0  0  0  0  0  0  0  0  0  0  0  0
    4.2830   -0.5910   -0.0680 C   0  0  0  0  0  0  0  0  0  0  0  0
    5.6360   -0.5040    0.3040 C   0  0  0  0  0  0  0  0  0  0  0  0
    6.2300    0.7120    0.2510 C   0  0  0  0  0  0  0  0  0  0  0  0
    5.5050    1.8430   -0.1800 C   0  0  0  0  0  0  0  0  0  0  0  0
    6.2730    3.1130   -0.2750 C   0  0  1  0  0  0  0  0  0  0  0  0
    7.6300    2.8370    0.0460 F   0  0  0  0  0  0  0  0  0  0  0  0
    6.1700    3.7310   -1.4940 F   0  0  0  0  0  0  0  0  0  0  0  0
    5.8520    3.9620    0.7540 F   0  0  0  0  0  0  0  0  0  0  0  0
    4.2160    1.7170   -0.5280 C   0  0  0  0  0  0  0  0  0  0  0  0
  1  2  2  0
  2  3  1  0
  2 12  1  0
  3  4  2  0
  3  5  1  0
  5  6  2  0
  5 11  1  0
  6  7  1  0
  7  8  2  0
  8  9  1  0
  8 10  1  0
 10 11  2  0
 11 12  1  0
 12 13  2  3
 13 14  1  0
 14 15  2  0
 14 19  1  0
 15 16  1  0
 16 17  2  0
 17 18  1  0
 18 19  2  0
 19 20  1  0
 20 21  1  0
 21 22  1  0
 22 23  2  0
 22 31  1  0
 23 24  1  0
 24 25  2  0
 25 26  1  0
 26 27  1  0
 26 31  2  0
 27 28  1  1
 27 29  1  0
 27 30  1  0
M  END
