
     RDKit          3D

 29 32  0  0  0  0  0  0  0  0999 V2000
    6.0440   -1.0010   -1.6650 C   0  0  0  0  0  0  0  0  0  0  0  0
    4.7670   -0.3050   -1.3820 C   0  0  0  0  0  0  0  0  0  0  0  0
    3.7330   -0.3500   -2.2740 N   0  0  0  0  0  0  0  0  0  0  0  0
    2.5770    0.2850   -2.0090 C   0  0  0  0  0  0  0  0  0  0  0  0
    2.3750    1.0020   -0.8490 C   0  0  0  0  0  0  0  0  0  0  0  0
    1.0750    1.6890   -0.6010 C   0  0  0  0  0  0  0  0  0  0  0  0
    0.1140    0.8240    0.1010 C   0  0  0  0  0  0  0  0  0  0  0  0
   -0.7460    0.0210   -0.6300 C   0  0  0  0  0  0  0  0  0  0  0  0
   -1.6310   -0.7730    0.0830 C   0  0  0  0  0  0  0  0  0  0  0  0
   -2.5190   -1.6030   -0.6680 N   0  0  0  0  0  0  0  0  0  0  0  0
   -2.1540   -2.6860   -1.3850 C   0  0  0  0  0  0  0  0  0  0  0  0
   -3.2820   -3.1730   -1.9320 N   0  0  0  0  0  0  0  0  0  0  0  0
   -4.3320   -2.4150   -1.5680 C   0  0  0  0  0  0  0  0  0  0  0  0
   -3.8420   -1.3970   -0.7500 C   0  0  0  0  0  0  0  0  0  0  0  0
   -4.6680   -0.3570   -0.1440 C   0  0  0  0  0  0  0  0  0  0  0  0
   -5.8910   -0.4630    0.2050 N   0  0  0  0  0  0  0  0  0  0  0  0
   -6.3780    0.7490    0.7620 C   0  0  0  0  0  0  0  0  0  0  0  0
   -7.4640    0.9560    1.4140 N   0  0  0  0  0  0  0  0  0  0  0  0
   -5.3630    1.7790    0.4410 C   0  0  0  0  0  0  0  0  0  0  0  0
   -4.1990    0.9650    0.1490 N   0  0  0  0  0  0  0  0  0  0  0  0
   -1.6460   -0.7570    1.4740 C   0  0  0  0  0  0  0  0  0  0  0  0
   -0.7600    0.0680    2.1450 C   0  0  0  0  0  0  0  0  0  0  0  0
    0.0880    0.8300    1.4340 N   0  0  0  0  0  0  0  0  0  0  0  0
    3.3910    1.0460    0.0270 N   0  0  0  0  0  0  0  0  0  0  0  0
    4.5730    0.4070   -0.2260 C   0  0  0  0  0  0  0  0  0  0  0  0
    5.6570    0.4820    0.7600 C   0  0  0  0  0  0  0  0  0  0  0  0
    6.8650   -0.1460    0.5500 O   0  0  0  0  0  0  0  0  0  0  0  0
    5.4550    1.1790    1.8840 C   0  0  0  0  0  0  0  0  0  0  0  0
    4.2610    1.7880    2.0710 F   0  0  0  0  0  0  0  0  0  0  0  0
  1  2  1  0
  2  3  2  0
  2 25  1  0
  3  4  1  0
  4  5  2  0
  5  6  1  0
  5 24  1  0
  6  7  1  0
  7  8  2  0
  7 23  1  0
  8  9  1  0
  9 10  1  0
  9 21  2  0
 10 11  1  0
 10 14  1  0
 11 12  2  0
 12 13  1  0
 13 14  2  0
 14 15  1  0
 15 16  2  0
 15 20  1  0
 16 17  1  0
 17 18  2  0
 17 19  1  0
 19 20  1  0
 21 22  1  0
 22 23  2  0
 24 25  2  0
 25 26  1  0
 26 27  1  0
 26 28  2  3
 28 29  1  0
M  END
