
     RDKit          3D

 30 33  0  0  0  0  0  0  0  0999 V2000
    5.1900   -3.4970   -0.8260 C   0  0  0  0  0  0  0  0  0  0  0  0
    4.3640   -2.2760   -0.8940 C   0  0  0  0  0  0  0  0  0  0  0  0
    3.6390   -1.9610   -1.9980 C   0  0  0  0  0  0  0  0  0  0  0  0
    2.8770   -0.8150   -2.0350 C   0  0  0  0  0  0  0  0  0  0  0  0
    2.8590    0.0260   -0.9100 C   0  0  0  0  0  0  0  0  0  0  0  0
    3.5830   -0.2790    0.2080 C   0  0  0  0  0  0  0  0  0  0  0  0
    3.5740    0.5830    1.3980 C   0  0  0  0  0  0  0  0  0  0  0  0
    2.6410    0.0760    2.4170 C   0  0  0  0  0  0  0  0  0  0  0  0
    3.0280   -0.6320    3.5230 N   0  0  0  0  0  0  0  0  0  0  0  0
    1.9750   -0.9630    4.2450 N   0  0  0  0  0  0  0  0  0  0  0  0
    0.8900   -0.4680    3.6070 C   0  0  0  0  0  0  0  0  0  0  0  0
   -0.4470   -0.4930    3.8850 C   0  0  0  0  0  0  0  0  0  0  0  0
   -1.3680    0.1040    3.0670 C   0  0  0  0  0  0  0  0  0  0  0  0
   -2.7150    0.0470    3.3980 O   0  0  0  0  0  0  0  0  0  0  0  0
   -1.0060    0.7840    1.8830 C   0  0  0  0  0  0  0  0  0  0  0  0
   -2.0500    1.4080    1.0900 C   0  0  0  0  0  0  0  0  0  0  0  0
   -3.2520    1.3740    1.6250 O   0  0  0  0  0  0  0  0  0  0  0  0
   -1.9050    2.0190   -0.1480 N   0  0  0  0  0  0  0  0  0  0  0  0
   -0.7340    2.1950   -0.9530 C   0  0  0  0  0  0  0  0  0  0  0  0
   -3.1800    2.5950   -0.7060 C   0  0  0  0  0  0  0  0  0  0  0  0
   -3.8860    1.4830   -1.3830 C   0  0  0  0  0  0  0  0  0  0  0  0
   -5.0830    1.0010   -0.8410 C   0  0  0  0  0  0  0  0  0  0  0  0
   -5.7640   -0.0350   -1.4370 C   0  0  0  0  0  0  0  0  0  0  0  0
   -5.3320   -0.6570   -2.5780 C   0  0  0  0  0  0  0  0  0  0  0  0
   -6.2090   -1.9770   -3.3250 Cl  0  0  0  0  0  0  0  0  0  0  0  0
   -4.1520   -0.1950   -3.1310 C   0  0  0  0  0  0  0  0  0  0  0  0
   -3.4530    0.8600   -2.5300 C   0  0  0  0  0  0  0  0  0  0  0  0
    0.3330    0.7970    1.6250 C   0  0  0  0  0  0  0  0  0  0  0  0
    1.2740    0.1850    2.4640 C   0  0  0  0  0  0  0  0  0  0  0  0
    4.3350   -1.4320    0.2120 C   0  0  0  0  0  0  0  0  0  0  0  0
  1  2  1  0
  2  3  2  0
  2 30  1  0
  3  4  1  0
  4  5  2  0
  5  6  1  0
  6  7  1  0
  6 30  2  0
  7  8  1  0
  8  9  2  0
  8 29  1  0
  9 10  1  0
 10 11  1  0
 11 12  2  0
 11 29  1  0
 12 13  1  0
 13 14  1  0
 13 15  2  0
 15 16  1  0
 15 28  1  0
 16 17  2  0
 16 18  1  0
 18 19  1  0
 18 20  1  0
 20 21  1  0
 21 22  2  0
 21 27  1  0
 22 23  1  0
 23 24  2  0
 24 25  1  0
 24 26  1  0
 26 27  2  0
 28 29  2  0
M  END
