
     RDKit          3D

 31 34  0  0  0  0  0  0  0  0999 V2000
   -3.2340    5.5300   -0.1270 C   0  0  0  0  0  0  0  0  0  0  0  0
   -3.3880    4.2580   -0.8780 C   0  0  0  0  0  0  0  0  0  0  0  0
   -4.3200    4.1640   -1.7060 O   0  0  0  0  0  0  0  0  0  0  0  0
   -2.4900    3.1280   -0.6780 C   0  0  0  0  0  0  0  0  0  0  0  0
   -2.4040    1.8870   -1.2140 C   0  0  0  0  0  0  0  0  0  0  0  0
   -1.4210    1.0620   -0.7910 C   0  0  0  0  0  0  0  0  0  0  0  0
   -1.3790   -0.2700   -1.3630 O   0  0  0  0  0  0  0  0  0  0  0  0
   -1.6120   -1.3560   -0.4790 C   0  0  0  0  0  0  0  0  0  0  0  0
   -0.6160   -2.2760   -0.2940 C   0  0  0  0  0  0  0  0  0  0  0  0
   -0.8760   -3.3390    0.5880 C   0  0  0  0  0  0  0  0  0  0  0  0
    0.1240   -4.2600    0.7720 F   0  0  0  0  0  0  0  0  0  0  0  0
   -2.0750   -3.4610    1.2440 C   0  0  0  0  0  0  0  0  0  0  0  0
   -3.0680   -2.5330    1.0510 C   0  0  0  0  0  0  0  0  0  0  0  0
   -4.2600   -2.6470    1.6970 F   0  0  0  0  0  0  0  0  0  0  0  0
   -2.8250   -1.4690    0.1760 C   0  0  0  0  0  0  0  0  0  0  0  0
   -3.9560   -0.5300    0.0040 C   0  0  0  0  0  0  0  0  0  0  0  0
   -0.5570    1.4240    0.0980 C   0  0  0  0  0  0  0  0  0  0  0  0
    0.7600    0.9650    0.6140 C   0  0  0  0  0  0  0  0  0  0  0  0
    1.0360    1.3940    1.7720 O   0  0  0  0  0  0  0  0  0  0  0  0
    1.6180    0.1440   -0.1260 N   0  0  0  0  0  0  0  0  0  0  0  0
    1.7110    0.1270   -1.5690 C   0  0  0  0  0  0  0  0  0  0  0  0
    3.0820   -0.2130   -2.0590 C   0  0  0  0  0  0  0  0  0  0  0  0
    4.2000   -0.0300   -1.0920 C   0  0  0  0  0  0  0  0  0  0  0  0
    3.8790   -0.7710    0.1490 C   0  0  0  0  0  0  0  0  0  0  0  0
    4.7920   -1.5320    0.8480 C   0  0  0  0  0  0  0  0  0  0  0  0
    6.0610   -1.6720    0.4100 F   0  0  0  0  0  0  0  0  0  0  0  0
    4.4200   -2.1660    2.0130 C   0  0  0  0  0  0  0  0  0  0  0  0
    3.1310   -2.0330    2.4740 C   0  0  0  0  0  0  0  0  0  0  0  0
    2.2140   -1.2780    1.7870 C   0  0  0  0  0  0  0  0  0  0  0  0
    2.5860   -0.6360    0.6070 C   0  0  0  0  0  0  0  0  0  0  0  0
   -1.0870    3.1320    0.5000 S   0  0  0  0  0  0  0  0  0  0  0  0
  1  2  1  0
  2  3  2  0
  2  4  1  0
  4  5  2  0
  4 31  1  0
  5  6  1  0
  6  7  1  0
  6 17  2  0
  7  8  1  0
  8  9  2  0
  8 15  1  0
  9 10  1  0
 10 11  1  0
 10 12  2  0
 12 13  1  0
 13 14  1  0
 13 15  2  0
 15 16  1  0
 17 18  1  0
 17 31  1  0
 18 19  2  0
 18 20  1  0
 20 21  1  0
 20 30  1  0
 21 22  1  0
 22 23  1  0
 23 24  1  0
 24 25  2  0
 24 30  1  0
 25 26  1  0
 25 27  1  0
 27 28  2  0
 28 29  1  0
 29 30  2  0
M  END
