
     RDKit          3D

 29 30  0  0  0  0  0  0  0  0999 V2000
    4.5130    1.7000    0.6490 C   0  0  0  0  0  0  0  0  0  0  0  0
    3.1610    1.1450    0.7330 C   0  0  0  0  0  0  0  0  0  0  0  0
    2.2790    1.6340    1.6610 C   0  0  0  0  0  0  0  0  0  0  0  0
    2.5860    2.7310    2.6070 C   0  0  0  0  0  0  0  0  0  0  0  0
    3.6590    2.1560    3.9100 Cl  0  0  0  0  0  0  0  0  0  0  0  0
    1.0070    1.0940    1.7310 C   0  0  0  0  0  0  0  0  0  0  0  0
    0.6040    0.0790    0.8940 C   0  0  0  0  0  0  0  0  0  0  0  0
   -0.6720   -0.4680    0.9580 O   0  0  0  0  0  0  0  0  0  0  0  0
   -1.7600    0.0070    0.2500 C   0  0  0  0  0  0  0  0  0  0  0  0
   -1.6100    0.9950   -0.5060 O   0  0  0  0  0  0  0  0  0  0  0  0
   -3.1060   -0.6080    0.3480 C   0  0  2  0  0  0  0  0  0  0  0  0
   -3.1050   -2.0350   -0.0900 C   0  0  0  0  0  0  0  0  0  0  0  0
   -3.5740   -2.0900   -1.5220 C   0  0  0  0  0  0  0  0  0  0  0  0
   -5.0380   -1.7260   -1.5720 C   0  0  0  0  0  0  0  0  0  0  0  0
   -5.3580   -0.6700   -0.5320 C   0  0  0  0  0  0  0  0  0  0  0  0
   -4.1460    0.2190   -0.3870 C   0  0  1  0  0  0  0  0  0  0  0  0
   -4.4090    1.4670    0.4000 C   0  0  0  0  0  0  0  0  0  0  0  0
   -5.4300    2.3560   -0.2620 C   0  0  0  0  0  0  0  0  0  0  0  0
   -5.6500    3.5200    0.4950 O   0  0  0  0  0  0  0  0  0  0  0  0
    1.5350   -0.3910   -0.0400 C   0  0  0  0  0  0  0  0  0  0  0  0
    1.0180   -1.6630   -1.1390 Cl  0  0  0  0  0  0  0  0  0  0  0  0
    2.8120    0.1120   -0.1490 C   0  0  0  0  0  0  0  0  0  0  0  0
    3.7540   -0.3290   -1.0580 O   0  0  0  0  0  0  0  0  0  0  0  0
    4.6970   -1.3260   -0.7830 C   0  0  1  0  0  0  0  0  0  0  0  0
    4.4070   -2.6540   -1.4810 C   0  0  0  0  0  0  0  0  0  0  0  0
    5.4970   -3.4850   -1.0950 O   0  0  0  0  0  0  0  0  0  0  0  0
    6.1010   -0.9310   -1.0580 C   0  0  0  0  0  0  0  0  0  0  0  0
    6.5040    0.3230   -1.5760 N   0  0  0  0  0  0  0  0  0  0  0  0
    6.9920   -1.7800   -0.8100 O   0  0  0  0  0  0  0  0  0  0  0  0
  1  2  1  0
  2  3  2  0
  2 22  1  0
  3  4  1  0
  3  6  1  0
  4  5  1  0
  6  7  2  0
  7  8  1  0
  7 20  1  0
  8  9  1  0
  9 10  2  0
 11  9  1  6
 11 12  1  0
 11 16  1  0
 12 13  1  0
 13 14  1  0
 14 15  1  0
 15 16  1  0
 16 17  1  1
 17 18  1  0
 18 19  1  0
 20 21  1  0
 20 22  2  0
 22 23  1  0
 23 24  1  0
 24 25  1  6
 24 27  1  0
 25 26  1  0
 27 28  1  0
 27 29  2  0
M  END
