
     RDKit          3D

 29 31  0  0  0  0  0  0  0  0999 V2000
    5.4820    2.5340   -2.5330 C   0  0  0  0  0  0  0  0  0  0  0  0
    4.9800    2.7160   -1.1380 C   0  0  2  0  0  0  0  0  0  0  0  0
    6.1070    2.4000   -0.1780 C   0  0  0  0  0  0  0  0  0  0  0  0
    3.8730    1.8330   -0.8170 N   0  0  0  0  0  0  0  0  0  0  0  0
    4.0330    0.6040   -0.2780 C   0  0  0  0  0  0  0  0  0  0  0  0
    2.7890    0.0520   -0.1080 C   0  0  0  0  0  0  0  0  0  0  0  0
    2.5000   -1.2840    0.4520 C   0  0  0  0  0  0  0  0  0  0  0  0
    3.4530   -2.0200    0.8270 O   0  0  0  0  0  0  0  0  0  0  0  0
    1.2450   -1.7730    0.5890 O   0  0  0  0  0  0  0  0  0  0  0  0
    0.7540   -2.9460    1.0690 C   0  0  0  0  0  0  0  0  0  0  0  0
    1.5110   -3.9330    1.5530 C   0  0  0  0  0  0  0  0  0  0  0  0
    0.9680   -5.2180    2.0800 C   0  0  0  0  0  0  0  0  0  0  0  0
   -0.4400   -5.0100    2.6070 C   0  0  0  0  0  0  0  0  0  0  0  0
   -1.1810   -4.4010    1.5750 O   0  0  0  0  0  0  0  0  0  0  0  0
   -0.6830   -3.1570    1.0640 C   0  0  0  0  0  0  0  0  0  0  0  0
   -1.5590   -2.2920    0.6250 C   0  0  0  0  0  0  0  0  0  0  0  0
   -1.3260   -0.9910    0.0700 C   0  0  0  0  0  0  0  0  0  0  0  0
   -2.3300   -0.2120   -0.3390 C   0  0  0  0  0  0  0  0  0  0  0  0
   -3.7450   -0.6570   -0.2380 C   0  0  0  0  0  0  0  0  0  0  0  0
   -4.6380    0.3030   -0.9940 C   0  0  0  0  0  0  0  0  0  0  0  0
   -4.4110    1.6990   -0.4800 C   0  0  2  0  0  0  0  0  0  0  0  0
   -4.5730    1.7590    1.0170 C   0  0  0  0  0  0  0  0  0  0  0  0
   -5.4290    2.6050   -1.1570 C   0  0  0  0  0  0  0  0  0  0  0  0
   -3.0340    2.2090   -0.8390 C   0  0  0  0  0  0  0  0  0  0  0  0
   -2.0490    1.0890   -0.8950 C   0  0  0  0  0  0  0  0  0  0  0  0
   -0.9570    1.3430   -1.4550 O   0  0  0  0  0  0  0  0  0  0  0  0
    1.9500    0.9410   -0.5390 O   0  0  0  0  0  0  0  0  0  0  0  0
    2.5650    2.0130   -0.9670 C   0  0  0  0  0  0  0  0  0  0  0  0
    2.0470    3.0670   -1.4510 O   0  0  0  0  0  0  0  0  0  0  0  0
  2  1  1  6
  2  3  1  0
  2  4  1  0
  4  5  1  0
  4 28  1  0
  5  6  2  0
  6  7  1  0
  6 27  1  0
  7  8  2  0
  7  9  1  0
  9 10  1  0
 10 11  2  0
 10 15  1  0
 11 12  1  0
 12 13  1  0
 13 14  1  0
 14 15  1  0
 15 16  2  3
 16 17  1  0
 17 18  2  3
 18 19  1  0
 18 25  1  0
 19 20  1  0
 20 21  1  0
 21 22  1  1
 21 23  1  0
 21 24  1  0
 24 25  1  0
 25 26  2  0
 27 28  1  0
 28 29  2  0
M  END
