
     RDKit          3D

 31 35  0  0  0  0  0  0  0  0999 V2000
   -7.5140    1.1830    1.5180 C   0  0  0  0  0  0  0  0  0  0  0  0
   -6.6080    0.2390    0.8090 C   0  0  0  0  0  0  0  0  0  0  0  0
   -7.1710   -0.7960    0.0920 C   0  0  0  0  0  0  0  0  0  0  0  0
   -6.3450   -1.6660   -0.5630 C   0  0  0  0  0  0  0  0  0  0  0  0
   -4.9820   -1.5050   -0.5010 C   0  0  0  0  0  0  0  0  0  0  0  0
   -4.3910   -0.4860    0.2030 C   0  0  0  0  0  0  0  0  0  0  0  0
   -2.9220   -0.3730    0.2230 C   0  0  0  0  0  0  0  0  0  0  0  0
   -2.5090    0.5170   -0.9190 C   0  0  0  0  0  0  0  0  0  0  0  0
   -3.3190    1.1260   -1.8040 N   0  0  0  0  0  0  0  0  0  0  0  0
   -2.6100    1.8290   -2.6660 N   0  0  0  0  0  0  0  0  0  0  0  0
   -1.2940    1.7090   -2.3810 C   0  0  0  0  0  0  0  0  0  0  0  0
   -0.1640    2.2250   -2.9570 C   0  0  0  0  0  0  0  0  0  0  0  0
    1.0910    1.9050   -2.4120 C   0  0  0  0  0  0  0  0  0  0  0  0
    2.2110    2.4240   -2.9840 O   0  0  0  0  0  0  0  0  0  0  0  0
    1.1570    1.0750   -1.3070 C   0  0  0  0  0  0  0  0  0  0  0  0
    2.4330    0.6530   -0.7720 C   0  0  0  0  0  0  0  0  0  0  0  0
    3.4200    0.7760   -1.6200 O   0  0  0  0  0  0  0  0  0  0  0  0
    2.7310    0.1510    0.4990 N   0  0  0  0  0  0  0  0  0  0  0  0
    1.8450    0.1730    1.6120 C   0  0  0  0  0  0  0  0  0  0  0  0
    4.0550   -0.3830    0.7560 C   0  0  0  0  0  0  0  0  0  0  0  0
    4.2060   -1.6000    1.3780 C   0  0  0  0  0  0  0  0  0  0  0  0
    5.4790   -2.1230    1.6310 C   0  0  0  0  0  0  0  0  0  0  0  0
    6.6100   -1.4260    1.2590 C   0  0  0  0  0  0  0  0  0  0  0  0
    6.4630   -0.2030    0.6330 C   0  0  0  0  0  0  0  0  0  0  0  0
    5.1900    0.3000    0.3910 C   0  0  0  0  0  0  0  0  0  0  0  0
    7.7470    0.2600    0.3790 O   0  0  0  0  0  0  0  0  0  0  0  0
    8.6820   -0.4710    1.1490 C   0  0  0  0  0  0  0  0  0  0  0  0
    7.9860   -1.6840    1.3730 O   0  0  0  0  0  0  0  0  0  0  0  0
   -0.0050    0.5580   -0.7350 C   0  0  0  0  0  0  0  0  0  0  0  0
   -1.2250    0.8850   -1.2830 C   0  0  0  0  0  0  0  0  0  0  0  0
   -5.2150    0.3920    0.8630 C   0  0  0  0  0  0  0  0  0  0  0  0
  1  2  1  0
  2  3  2  0
  2 31  1  0
  3  4  1  0
  4  5  2  0
  5  6  1  0
  6  7  1  0
  6 31  2  0
  7  8  1  0
  8  9  2  0
  8 30  1  0
  9 10  1  0
 10 11  1  0
 11 12  2  0
 11 30  1  0
 12 13  1  0
 13 14  1  0
 13 15  2  0
 15 16  1  0
 15 29  1  0
 16 17  2  0
 16 18  1  0
 18 19  1  0
 18 20  1  0
 20 21  2  0
 20 25  1  0
 21 22  1  0
 22 23  2  0
 23 24  1  0
 23 28  1  0
 24 25  2  0
 24 26  1  0
 26 27  1  0
 27 28  1  0
 29 30  2  0
M  END
