
     RDKit          3D

 29 31  0  0  0  0  0  0  0  0999 V2000
   -1.3790   -1.6660   -2.5740 C   0  0  0  0  0  0  0  0  0  0  0  0
   -1.7350   -0.3330   -1.9690 C   0  0  0  0  0  0  0  0  0  0  0  0
   -1.5510   -0.3020   -0.5490 N   0  0  0  0  0  0  0  0  0  0  0  0
   -2.5430   -0.6830    0.3490 C   0  0  0  0  0  0  0  0  0  0  0  0
   -2.2670   -0.3330    1.5830 O   0  0  0  0  0  0  0  0  0  0  0  0
   -3.7920   -1.3820    0.2070 C   0  0  1  0  0  0  0  0  0  0  0  0
   -4.6390   -1.3080    1.4930 C   0  0  0  0  0  0  0  0  0  0  0  0
   -5.8570   -0.4180    1.2620 C   0  0  0  0  0  0  0  0  0  0  0  0
   -5.4530    0.6730    0.5120 O   0  0  0  0  0  0  0  0  0  0  0  0
   -5.3530    0.2640   -0.8260 C   0  0  0  0  0  0  0  0  0  0  0  0
   -4.7200   -1.1110   -0.9090 C   0  0  0  0  0  0  0  0  0  0  0  0
   -0.2760    0.2100   -0.1170 C   0  0  0  0  0  0  0  0  0  0  0  0
    0.0500    1.5250   -0.3180 C   0  0  0  0  0  0  0  0  0  0  0  0
    1.2750    2.0560    0.0800 C   0  0  0  0  0  0  0  0  0  0  0  0
    1.5290    3.4720   -0.1850 C   0  0  2  0  0  0  0  0  0  0  0  0
    0.3710    4.1800   -0.8180 C   0  0  0  0  0  0  0  0  0  0  0  0
    2.7470    3.6970   -1.0540 C   0  0  0  0  0  0  0  0  0  0  0  0
    2.1580    1.2000    0.6900 C   0  0  0  0  0  0  0  0  0  0  0  0
    1.8840   -0.1290    0.9180 C   0  0  0  0  0  0  0  0  0  0  0  0
    0.6650   -0.6130    0.5100 C   0  0  0  0  0  0  0  0  0  0  0  0
    2.8880   -0.9630    1.5730 C   0  0  1  0  0  0  0  0  0  0  0  0
    3.7590   -1.6060    0.6570 O   0  0  0  0  0  0  0  0  0  0  0  0
    3.9430   -2.9700    0.6400 C   0  0  0  0  0  0  0  0  0  0  0  0
    3.3100   -3.6650    1.4710 O   0  0  0  0  0  0  0  0  0  0  0  0
    4.8580   -3.6200   -0.3210 C   0  0  0  0  0  0  0  0  0  0  0  0
    5.4710   -2.6870   -1.1450 O   0  0  0  0  0  0  0  0  0  0  0  0
    3.7780   -0.1580    2.5130 C   0  0  0  0  0  0  0  0  0  0  0  0
    4.3620    1.0280    1.8150 C   0  0  0  0  0  0  0  0  0  0  0  0
    3.3690    1.6890    1.0930 O   0  0  0  0  0  0  0  0  0  0  0  0
  1  2  1  0
  2  3  1  0
  3  4  1  0
  3 12  1  0
  4  5  2  0
  6  4  1  1
  6  7  1  0
  6 11  1  0
  7  8  1  0
  8  9  1  0
  9 10  1  0
 10 11  1  0
 12 13  2  0
 12 20  1  0
 13 14  1  0
 14 15  1  0
 14 18  2  0
 15 16  1  6
 15 17  1  0
 18 19  1  0
 18 29  1  0
 19 20  2  0
 19 21  1  0
 21 22  1  6
 21 27  1  0
 22 23  1  0
 23 24  2  0
 23 25  1  0
 25 26  1  0
 27 28  1  0
 28 29  1  0
M  END
