
     RDKit          3D

 29 30  0  0  0  0  0  0  0  0999 V2000
   -3.6460    2.6220   -1.2450 C   0  0  0  0  0  0  0  0  0  0  0  0
   -3.6760    1.9060    0.0890 C   0  0  0  0  0  0  0  0  0  0  0  0
   -3.9720    0.4370   -0.0830 C   0  0  0  0  0  0  0  0  0  0  0  0
   -5.3110    0.2090   -0.7430 C   0  0  0  0  0  0  0  0  0  0  0  0
   -6.4640    0.5840    0.1230 C   0  0  0  0  0  0  0  0  0  0  0  0
   -3.1270   -0.4920    0.2520 C   0  0  0  0  0  0  0  0  0  0  0  0
   -1.7520   -0.2400    0.8390 C   0  0  1  0  0  0  0  0  0  0  0  0
   -1.7140   -0.6880    2.1570 O   0  0  0  0  0  0  0  0  0  0  0  0
   -0.8070   -1.0310   -0.0190 C   0  0  0  0  0  0  0  0  0  0  0  0
   -1.1620   -2.0550   -0.8360 C   0  0  0  0  0  0  0  0  0  0  0  0
   -0.0140   -2.4980   -1.4350 N   0  0  0  0  0  0  0  0  0  0  0  0
    1.0370   -1.7780   -1.0110 C   0  0  0  0  0  0  0  0  0  0  0  0
    2.4680   -1.9310   -1.4090 C   0  0  0  0  0  0  0  0  0  0  0  0
    0.5880   -0.8360   -0.1130 C   0  0  0  0  0  0  0  0  0  0  0  0
    1.3210    0.1810    0.6300 C   0  0  0  0  0  0  0  0  0  0  0  0
    1.7740   -0.1630    1.7760 O   0  0  0  0  0  0  0  0  0  0  0  0
    1.5670    1.4600    0.2240 O   0  0  0  0  0  0  0  0  0  0  0  0
    2.2770    2.3720    1.0250 C   0  0  0  0  0  0  0  0  0  0  0  0
    3.6610    1.9850    1.3440 C   0  0  0  0  0  0  0  0  0  0  0  0
    4.2810    2.7670    2.1410 O   0  0  0  0  0  0  0  0  0  0  0  0
    4.3340    0.8810    0.8720 O   0  0  0  0  0  0  0  0  0  0  0  0
    5.6690    0.7040    1.3230 C   0  0  0  0  0  0  0  0  0  0  0  0
    6.3460   -0.4880    0.7420 C   0  0  0  0  0  0  0  0  0  0  0  0
    6.4670   -0.4300   -0.7580 C   0  0  0  0  0  0  0  0  0  0  0  0
    5.2630   -0.3420   -1.4050 O   0  0  0  0  0  0  0  0  0  0  0  0
   -2.5810   -2.5470   -0.9900 C   0  0  2  0  0  0  0  0  0  0  0  0
   -3.2340   -2.2320   -2.5780 Cl  0  0  0  0  0  0  0  0  0  0  0  0
   -3.3850   -1.9780    0.1520 C   0  0  2  0  0  0  0  0  0  0  0  0
   -5.0590   -2.4590    0.2170 Cl  0  0  0  0  0  0  0  0  0  0  0  0
  1  2  1  0
  2  3  1  0
  3  4  1  0
  3  6  2  3
  4  5  1  0
  6  7  1  0
  6 28  1  0
  7  8  1  1
  7  9  1  0
  9 10  2  0
  9 14  1  0
 10 11  1  0
 10 26  1  0
 11 12  1  0
 12 13  1  0
 12 14  2  0
 14 15  1  0
 15 16  2  0
 15 17  1  0
 17 18  1  0
 18 19  1  0
 19 20  2  0
 19 21  1  0
 21 22  1  0
 22 23  1  0
 23 24  1  0
 24 25  1  0
 26 27  1  6
 26 28  1  0
 28 29  1  6
M  END
