
     RDKit          3D

 29 30  0  0  0  0  0  0  0  0999 V2000
    6.7080   -0.3210   -0.5440 C   0  0  0  0  0  0  0  0  0  0  0  0
    5.7530   -1.4300   -0.3910 C   0  0  0  0  0  0  0  0  0  0  0  0
    4.6940   -1.3370    0.3760 C   0  0  0  0  0  0  0  0  0  0  0  0
    3.7940   -2.5450    0.4520 C   0  0  0  0  0  0  0  0  0  0  0  0
    3.7120   -3.1040    2.1420 Cl  0  0  0  0  0  0  0  0  0  0  0  0
    4.4080   -0.2140    1.0770 O   0  0  0  0  0  0  0  0  0  0  0  0
    3.6760    0.8930    0.6730 C   0  0  1  0  0  0  0  0  0  0  0  0
    4.3660    1.4260   -0.4480 O   0  0  0  0  0  0  0  0  0  0  0  0
    2.3060    0.4890    0.2140 C   0  0  0  0  0  0  0  0  0  0  0  0
    1.4130    1.6270   -0.2030 C   0  0  1  0  0  0  0  0  0  0  0  0
    1.9400    2.4530   -1.3470 C   0  0  0  0  0  0  0  0  0  0  0  0
    0.9910    3.4320   -1.7230 O   0  0  0  0  0  0  0  0  0  0  0  0
    0.1160    1.0020   -0.6980 C   0  0  0  0  0  0  0  0  0  0  0  0
   -0.7940    0.5680    0.3980 C   0  0  2  0  0  0  0  0  0  0  0  0
   -2.1560    0.3220   -0.1440 C   0  0  0  0  0  0  0  0  0  0  0  0
   -2.4240    0.4800   -1.3650 O   0  0  0  0  0  0  0  0  0  0  0  0
   -3.1680   -0.0890    0.6900 O   0  0  0  0  0  0  0  0  0  0  0  0
   -4.4560   -0.3470    0.3170 C   0  0  0  0  0  0  0  0  0  0  0  0
   -5.4430    0.6140    0.3180 C   0  0  0  0  0  0  0  0  0  0  0  0
   -6.7450    0.3460   -0.0600 C   0  0  0  0  0  0  0  0  0  0  0  0
   -7.0840   -0.9150   -0.4520 C   0  0  0  0  0  0  0  0  0  0  0  0
   -6.1120   -1.9050   -0.4630 C   0  0  0  0  0  0  0  0  0  0  0  0
   -6.5520   -3.5310   -0.9690 Cl  0  0  0  0  0  0  0  0  0  0  0  0
   -4.7990   -1.6240   -0.0790 C   0  0  0  0  0  0  0  0  0  0  0  0
   -3.8110   -2.7310   -0.1150 C   0  0  0  0  0  0  0  0  0  0  0  0
   -4.4280   -3.9410   -0.5610 N   0  0  0  0  0  0  0  0  0  0  0  0
   -0.8890    1.6340    1.4730 C   0  0  0  0  0  0  0  0  0  0  0  0
   -0.0990    2.8480    0.9620 C   0  0  0  0  0  0  0  0  0  0  0  0
    1.2140    2.4650    0.8640 O   0  0  0  0  0  0  0  0  0  0  0  0
  1  2  1  0
  2  3  2  3
  3  4  1  0
  3  6  1  0
  4  5  1  0
  6  7  1  0
  7  8  1  6
  7  9  1  0
 10  9  1  1
 10 11  1  0
 10 13  1  0
 10 29  1  0
 11 12  1  0
 13 14  1  0
 14 15  1  6
 14 27  1  0
 15 16  2  0
 15 17  1  0
 17 18  1  0
 18 19  2  0
 18 24  1  0
 19 20  1  0
 20 21  2  0
 21 22  1  0
 22 23  1  0
 22 24  2  0
 24 25  1  0
 25 26  1  0
 27 28  1  0
 28 29  1  0
M  END
