
     RDKit          3D

 24 25  0  0  0  0  0  0  0  0999 V2000
   -2.2600    0.9940   -2.4310 C   0  0  0  0  0  0  0  0  0  0  0  0
   -0.7890    0.7610   -2.2720 C   0  0  0  0  0  0  0  0  0  0  0  0
   -0.3870   -0.0950   -1.3890 C   0  0  0  0  0  0  0  0  0  0  0  0
   -1.2660   -0.8670   -0.5290 C   0  0  0  0  0  0  0  0  0  0  0  0
   -0.6170   -1.6560    0.2980 O   0  0  0  0  0  0  0  0  0  0  0  0
   -2.6920   -0.9590   -0.3830 C   0  0  0  0  0  0  0  0  0  0  0  0
   -3.1050   -0.1600    0.8420 C   0  0  1  0  0  0  0  0  0  0  0  0
   -4.5020   -0.1720    1.1020 N   0  0  0  0  0  0  0  0  0  0  0  0
   -4.8790   -1.3470    1.8220 C   0  0  0  0  0  0  0  0  0  0  0  0
   -4.0650   -1.3370    3.1270 C   0  0  0  0  0  0  0  0  0  0  0  0
   -2.4330   -0.9350    2.3690 S   0  0  0  0  0  0  0  0  0  0  0  0
    1.0660   -0.3210   -1.1480 C   0  0  2  0  0  0  0  0  0  0  0  0
    1.2870   -1.8490   -1.2780 C   0  0  0  0  0  0  0  0  0  0  0  0
    1.3990    0.0600    0.2230 N   0  0  0  0  0  0  0  0  0  0  0  0
    2.7280   -0.1150    0.6720 C   0  0  0  0  0  0  0  0  0  0  0  0
    3.6630   -0.5860   -0.0330 O   0  0  0  0  0  0  0  0  0  0  0  0
    3.0510    0.2710    2.0360 C   0  0  0  0  0  0  0  0  0  0  0  0
    4.2610    0.1290    2.4920 C   0  0  0  0  0  0  0  0  0  0  0  0
    5.2660   -0.4100    1.6400 N   0  0  0  0  0  0  0  0  0  0  0  0
    6.2570    0.3810    1.0470 N   0  0  0  0  0  0  0  0  0  0  0  0
    1.9060    0.2810   -2.1040 N   0  0  0  0  0  0  0  0  0  0  0  0
    1.4660    1.2200   -3.0550 C   0  0  0  0  0  0  0  0  0  0  0  0
    2.3450    1.8010   -3.7870 O   0  0  0  0  0  0  0  0  0  0  0  0
    0.0990    1.4870   -3.1690 N   0  0  0  0  0  0  0  0  0  0  0  0
  1  2  1  0
  2  3  2  0
  2 24  1  0
  3  4  1  0
  3 12  1  0
  4  5  2  0
  4  6  1  0
  7  6  1  6
  7  8  1  0
  7 11  1  0
  8  9  1  0
  9 10  1  0
 10 11  1  0
 12 13  1  1
 12 14  1  0
 12 21  1  0
 14 15  1  0
 15 16  2  0
 15 17  1  0
 17 18  2  3
 18 19  1  0
 19 20  1  0
 21 22  1  0
 22 23  2  0
 22 24  1  0
M  END
