
     RDKit          3D

 24 26  0  0  0  0  0  0  0  0999 V2000
    5.5970   -1.4450   -1.8600 N   0  0  0  0  0  0  0  0  0  0  0  0
    4.9660   -0.8980   -0.8720 C   0  0  0  0  0  0  0  0  0  0  0  0
    3.4750   -0.9260   -0.7870 C   0  0  0  0  0  0  0  0  0  0  0  0
    3.0040    0.4850   -0.6100 C   0  0  1  0  0  0  0  0  0  0  0  0
    1.2130    0.3620   -0.2640 S   0  0  0  0  0  0  0  0  0  0  0  0
    1.0580   -0.5610    0.9610 O   0  0  0  0  0  0  0  0  0  0  0  0
    0.3970   -0.4300   -1.6290 C   0  0  0  0  0  0  0  0  0  0  0  0
   -1.0760   -0.5220   -1.3390 C   0  0  0  0  0  0  0  0  0  0  0  0
   -1.7590   -1.1230   -2.1920 O   0  0  0  0  0  0  0  0  0  0  0  0
   -1.5890    0.0530   -0.1670 N   0  0  0  0  0  0  0  0  0  0  0  0
   -2.9560    0.0220    0.1960 C   0  0  0  0  0  0  0  0  0  0  0  0
   -3.2900    0.4920    1.4770 C   0  0  0  0  0  0  0  0  0  0  0  0
   -4.5810    0.5040    1.9020 C   0  0  0  0  0  0  0  0  0  0  0  0
   -5.5760    0.0500    1.0640 C   0  0  0  0  0  0  0  0  0  0  0  0
   -6.9250   -0.0540    1.2170 N   0  0  0  0  0  0  0  0  0  0  0  0
   -7.4200   -0.5690    0.0780 C   0  0  0  0  0  0  0  0  0  0  0  0
   -8.6390   -0.8050   -0.1380 O   0  0  0  0  0  0  0  0  0  0  0  0
   -6.3960   -0.7880   -0.7840 N   0  0  0  0  0  0  0  0  0  0  0  0
   -5.2560   -0.4060   -0.1780 C   0  0  0  0  0  0  0  0  0  0  0  0
   -3.9440   -0.4310   -0.6380 C   0  0  0  0  0  0  0  0  0  0  0  0
    3.6940    1.2740    0.4300 C   0  0  0  0  0  0  0  0  0  0  0  0
    4.8940    0.6720    1.0570 C   0  0  2  0  0  0  0  0  0  0  0  0
    5.8280    1.7690    1.3610 N   0  0  0  0  0  0  0  0  0  0  0  0
    5.6330   -0.2350    0.1960 N   0  0  0  0  0  0  0  0  0  0  0  0
  1  2  2  0
  2  3  1  0
  2 24  1  0
  4  3  1  1
  4  5  1  0
  4 21  1  0
  5  6  2  0
  5  7  1  6
  7  8  1  0
  8  9  2  0
  8 10  1  0
 10 11  1  0
 11 12  2  0
 11 20  1  0
 12 13  1  0
 13 14  2  0
 14 15  1  0
 14 19  1  0
 15 16  1  0
 16 17  2  0
 16 18  1  0
 18 19  1  0
 19 20  2  0
 21 22  1  0
 22 23  1  6
 22 24  1  0
M  END
