
     RDKit          3D

 24 26  0  0  0  0  0  0  0  0999 V2000
   -4.4290    1.2110    0.2070 C   0  0  0  0  0  0  0  0  0  0  0  0
   -3.2260    0.3280    0.3800 C   0  0  1  0  0  0  0  0  0  0  0  0
   -3.5200   -0.6870    1.4480 C   0  0  0  0  0  0  0  0  0  0  0  0
   -4.6870   -1.3640    1.0260 O   0  0  0  0  0  0  0  0  0  0  0  0
   -3.0280   -0.3680   -0.8230 O   0  0  0  0  0  0  0  0  0  0  0  0
   -2.3950    0.4030   -1.7590 C   0  0  0  0  0  0  0  0  0  0  0  0
   -0.8830    0.3830   -1.4320 C   0  0  1  0  0  0  0  0  0  0  0  0
   -0.2060    1.4320   -2.2490 C   0  0  0  0  0  0  0  0  0  0  0  0
   -0.8540    3.0950   -1.9050 S   0  0  0  0  0  0  0  0  0  0  0  0
   -0.8030    0.5940    0.0380 C   0  0  0  0  0  0  0  0  0  0  0  0
    0.0820    0.3890    0.9770 C   0  0  0  0  0  0  0  0  0  0  0  0
    1.4250   -0.1740    0.8760 C   0  0  0  0  0  0  0  0  0  0  0  0
    2.1240   -0.2790    1.9570 O   0  0  0  0  0  0  0  0  0  0  0  0
    2.0720   -0.6290   -0.2700 N   0  0  0  0  0  0  0  0  0  0  0  0
    3.4000   -1.1660   -0.2540 C   0  0  0  0  0  0  0  0  0  0  0  0
    3.9430   -1.5840   -1.4420 C   0  0  0  0  0  0  0  0  0  0  0  0
    5.2330   -2.1190   -1.5020 C   0  0  0  0  0  0  0  0  0  0  0  0
    5.9060   -2.2020   -0.3550 N   0  0  0  0  0  0  0  0  0  0  0  0
    5.3960   -1.7990    0.8210 C   0  0  0  0  0  0  0  0  0  0  0  0
    6.2060   -1.9370    1.9740 N   0  0  0  0  0  0  0  0  0  0  0  0
    4.1400   -1.2820    0.8560 N   0  0  0  0  0  0  0  0  0  0  0  0
   -0.5070    0.8170    2.2370 N   0  0  0  0  0  0  0  0  0  0  0  0
   -1.7070    1.4460    1.9940 N   0  0  0  0  0  0  0  0  0  0  0  0
   -2.0210    1.1920    0.6690 C   0  0  2  0  0  0  0  0  0  0  0  0
  2  1  1  6
  2  3  1  0
  2  5  1  0
  2 24  1  0
  3  4  1  0
  5  6  1  0
  6  7  1  0
  7  8  1  6
  7 10  1  0
  8  9  1  0
 10 11  2  0
 10 24  1  0
 11 12  1  0
 11 22  1  0
 12 13  2  0
 12 14  1  0
 14 15  1  0
 15 16  2  0
 15 21  1  0
 16 17  1  0
 17 18  2  0
 18 19  1  0
 19 20  1  0
 19 21  2  0
 22 23  1  0
 24 23  1  1
M  END
