
     RDKit          3D

 24 26  0  0  0  0  0  0  0  0999 V2000
    6.0130   -0.6240    0.2960 C   0  0  0  0  0  0  0  0  0  0  0  0
    5.0600   -0.9830   -0.7300 N   0  0  0  0  0  0  0  0  0  0  0  0
    5.4200   -1.9200   -1.7450 C   0  0  0  0  0  0  0  0  0  0  0  0
    3.7720   -0.3860   -0.7050 C   0  0  0  0  0  0  0  0  0  0  0  0
    3.4100    0.4920    0.2480 N   0  0  0  0  0  0  0  0  0  0  0  0
    2.1920    1.0620    0.2540 C   0  0  0  0  0  0  0  0  0  0  0  0
    1.8140    2.0380    1.3250 C   0  0  0  0  0  0  0  0  0  0  0  0
    2.8330    2.2330    2.2260 O   0  0  0  0  0  0  0  0  0  0  0  0
    1.2530    0.7710   -0.7220 C   0  0  0  0  0  0  0  0  0  0  0  0
    0.0280    1.3870   -0.6860 N   0  0  0  0  0  0  0  0  0  0  0  0
   -1.1540    1.0350   -0.5540 C   0  0  0  0  0  0  0  0  0  0  0  0
   -2.1790    2.0670   -0.5770 N   0  0  0  0  0  0  0  0  0  0  0  0
   -3.4240    1.8080   -0.4580 C   0  0  0  0  0  0  0  0  0  0  0  0
   -4.3380    2.8940   -0.4890 N   0  0  0  0  0  0  0  0  0  0  0  0
   -3.8950    0.4590   -0.3410 C   0  0  2  0  0  0  0  0  0  0  0  0
   -5.0110    0.1820    0.6340 C   0  0  0  0  0  0  0  0  0  0  0  0
   -4.9890   -1.3550    0.6180 C   0  0  0  0  0  0  0  0  0  0  0  0
   -3.5510   -1.7390    0.2290 C   0  0  2  0  0  0  0  0  0  0  0  0
   -3.0680   -2.7420    1.0280 O   0  0  0  0  0  0  0  0  0  0  0  0
   -2.8430   -0.4400    0.3080 C   0  0  1  0  0  0  0  0  0  0  0  0
   -1.6050   -0.3060   -0.3830 N   0  0  0  0  0  0  0  0  0  0  0  0
    1.6440   -0.1330   -1.6900 C   0  0  0  0  0  0  0  0  0  0  0  0
    0.8010   -0.4030   -2.5770 O   0  0  0  0  0  0  0  0  0  0  0  0
    2.8780   -0.6970   -1.6790 N   0  0  0  0  0  0  0  0  0  0  0  0
  1  2  1  0
  2  3  1  0
  2  4  1  0
  4  5  2  0
  4 24  1  0
  5  6  1  0
  6  7  1  0
  6  9  2  0
  7  8  1  0
  9 10  1  0
  9 22  1  0
 10 11  2  3
 11 12  1  0
 11 21  1  0
 12 13  2  0
 13 14  1  0
 13 15  1  0
 15 16  1  1
 15 20  1  0
 16 17  1  0
 17 18  1  0
 18 19  1  1
 18 20  1  0
 20 21  1  6
 22 23  2  0
 22 24  1  0
M  END
