
     RDKit          3D

 24 25  0  0  0  0  0  0  0  0999 V2000
    5.3320    2.0510    0.1860 C   0  0  0  0  0  0  0  0  0  0  0  0
    6.0990    0.8910    0.6790 C   0  0  0  0  0  0  0  0  0  0  0  0
    7.4620    1.0320    1.0230 N   0  0  0  0  0  0  0  0  0  0  0  0
    5.5140   -0.2730    0.7960 C   0  0  0  0  0  0  0  0  0  0  0  0
    4.1010   -0.4470    0.4430 C   0  0  0  0  0  0  0  0  0  0  0  0
    3.5600    0.1760   -0.6140 N   0  0  0  0  0  0  0  0  0  0  0  0
    2.2770    0.0540   -0.9870 C   0  0  0  0  0  0  0  0  0  0  0  0
    1.7380    0.7330   -2.1140 N   0  0  0  0  0  0  0  0  0  0  0  0
    1.5100   -0.7620   -0.2210 N   0  0  0  0  0  0  0  0  0  0  0  0
    1.9730   -1.4190    0.8500 C   0  0  0  0  0  0  0  0  0  0  0  0
    0.9570   -2.4960    1.8600 S   0  0  0  0  0  0  0  0  0  0  0  0
   -0.7230   -2.5970    1.2340 C   0  0  2  0  0  0  0  0  0  0  0  0
   -0.7840   -3.3070   -0.1110 C   0  0  0  0  0  0  0  0  0  0  0  0
   -1.3320   -1.2460    1.0140 C   0  0  0  0  0  0  0  0  0  0  0  0
   -0.6720   -0.2210    1.2270 O   0  0  0  0  0  0  0  0  0  0  0  0
   -2.6500   -1.1100    0.5660 N   0  0  0  0  0  0  0  0  0  0  0  0
   -3.3690    0.0970    0.3050 C   0  0  2  0  0  0  0  0  0  0  0  0
   -4.5470    0.3120    1.1990 C   0  0  0  0  0  0  0  0  0  0  0  0
   -5.3920    1.3120    0.4650 C   0  0  1  0  0  0  0  0  0  0  0  0
   -5.3040    2.5300    1.1370 O   0  0  0  0  0  0  0  0  0  0  0  0
   -4.7940    1.4570   -0.9290 C   0  0  0  0  0  0  0  0  0  0  0  0
   -3.9440    0.2050   -1.0640 C   0  0  1  0  0  0  0  0  0  0  0  0
   -2.9830    0.3600   -2.0630 O   0  0  0  0  0  0  0  0  0  0  0  0
    3.2870   -1.2380    1.1570 N   0  0  0  0  0  0  0  0  0  0  0  0
  1  2  1  0
  2  3  1  0
  2  4  2  3
  4  5  1  0
  5  6  2  0
  5 24  1  0
  6  7  1  0
  7  8  1  0
  7  9  2  0
  9 10  1  0
 10 11  1  0
 10 24  2  0
 11 12  1  0
 12 13  1  6
 12 14  1  0
 14 15  2  0
 14 16  1  0
 17 16  1  6
 17 18  1  0
 17 22  1  0
 18 19  1  0
 19 20  1  1
 19 21  1  0
 21 22  1  0
 22 23  1  6
M  END
