
     RDKit          3D

 24 26  0  0  0  0  0  0  0  0999 V2000
   -7.7280    1.2820    0.8390 C   0  0  0  0  0  0  0  0  0  0  0  0
   -6.8560    0.5240   -0.1400 C   0  0  2  0  0  0  0  0  0  0  0  0
   -6.8450   -0.9480   -0.1630 C   0  0  0  0  0  0  0  0  0  0  0  0
   -5.6980   -0.1840    0.4430 C   0  0  1  0  0  0  0  0  0  0  0  0
   -4.4630   -0.1530   -0.3490 N   0  0  0  0  0  0  0  0  0  0  0  0
   -3.1940   -0.2740    0.2810 C   0  0  0  0  0  0  0  0  0  0  0  0
   -3.2390   -0.4060    1.5520 O   0  0  0  0  0  0  0  0  0  0  0  0
   -1.9670   -0.2540   -0.4110 N   0  0  0  0  0  0  0  0  0  0  0  0
   -1.9200   -0.1140   -1.8350 C   0  0  0  0  0  0  0  0  0  0  0  0
   -1.4330    1.3240   -2.0910 C   0  0  0  0  0  0  0  0  0  0  0  0
   -0.1640    1.4360   -1.4010 N   0  0  0  0  0  0  0  0  0  0  0  0
    0.2330    0.5440   -0.3540 C   0  0  0  0  0  0  0  0  0  0  0  0
    1.4460    0.5470   -0.0020 N   0  0  0  0  0  0  0  0  0  0  0  0
    1.8900   -0.2960    1.0080 N   0  0  0  0  0  0  0  0  0  0  0  0
    3.0810   -1.5160    0.7550 S   0  0  2  0  0  0  0  0  0  0  0  0
    2.8950   -2.0800   -0.5990 O   0  0  0  0  0  0  0  0  0  0  0  0
    2.9070   -2.6540    1.7320 O   0  0  0  0  0  0  0  0  0  0  0  0
    4.6520   -0.7980    1.0620 C   0  0  0  0  0  0  0  0  0  0  0  0
    4.8860    0.3490    0.1420 C   0  0  1  0  0  0  0  0  0  0  0  0
    6.2780    0.9020    0.5120 C   0  0  0  0  0  0  0  0  0  0  0  0
    7.1620   -0.2000   -0.0300 C   0  0  0  0  0  0  0  0  0  0  0  0
    6.4450   -0.8540   -1.1000 N   0  0  0  0  0  0  0  0  0  0  0  0
    5.1860   -0.1470   -1.2420 C   0  0  0  0  0  0  0  0  0  0  0  0
   -0.7270   -0.3710    0.3210 C   0  0  0  0  0  0  0  0  0  0  0  0
  2  1  1  1
  2  3  1  0
  2  4  1  0
  3  4  1  0
  4  5  1  6
  5  6  1  0
  6  7  2  0
  6  8  1  0
  8  9  1  0
  8 24  1  0
  9 10  1  0
 10 11  1  0
 11 12  1  0
 12 13  2  3
 12 24  1  0
 13 14  1  0
 14 15  1  0
 15 16  2  0
 15 17  2  0
 15 18  1  6
 19 18  1  1
 19 20  1  0
 19 23  1  0
 20 21  1  0
 21 22  1  0
 22 23  1  0
M  END
