
     RDKit          3D

 23 25  0  0  0  0  0  0  0  0999 V2000
    5.3500   -3.0670   -1.5550 N   0  0  0  0  0  0  0  0  0  0  0  0
    4.2130   -2.2830   -1.3370 C   0  0  0  0  0  0  0  0  0  0  0  0
    3.2130   -1.9040   -2.5610 S   0  0  0  0  0  0  0  0  0  0  0  0
    3.9230   -1.7920    0.0460 C   0  0  2  0  0  0  0  0  0  0  0  0
    2.6900   -0.9870    0.0760 C   0  0  0  0  0  0  0  0  0  0  0  0
    2.5820    0.1980    0.5740 C   0  0  0  0  0  0  0  0  0  0  0  0
    1.3620    0.9720    0.5920 N   0  0  0  0  0  0  0  0  0  0  0  0
    1.3590    2.1840    1.1790 N   0  0  0  0  0  0  0  0  0  0  0  0
    0.1720    2.7480    1.0950 C   0  0  0  0  0  0  0  0  0  0  0  0
   -0.1340    4.0330    1.6260 N   0  0  0  0  0  0  0  0  0  0  0  0
   -0.6020    1.8840    0.4440 N   0  0  0  0  0  0  0  0  0  0  0  0
    0.1440    0.7760    0.1310 C   0  0  0  0  0  0  0  0  0  0  0  0
   -0.3550   -0.3930   -0.5920 C   0  0  0  0  0  0  0  0  0  0  0  0
   -1.8270   -0.2200   -0.9620 C   0  0  0  0  0  0  0  0  0  0  0  0
   -2.6350   -0.0530    0.1230 O   0  0  0  0  0  0  0  0  0  0  0  0
   -3.9480    0.1010   -0.2260 C   0  0  1  0  0  0  0  0  0  0  0  0
   -4.8460   -0.9850    0.3630 C   0  0  0  0  0  0  0  0  0  0  0  0
   -6.1670   -0.2280    0.3900 C   0  0  0  0  0  0  0  0  0  0  0  0
   -5.7610    0.9900    0.9420 O   0  0  0  0  0  0  0  0  0  0  0  0
   -4.5910    1.3450    0.3200 C   0  0  0  0  0  0  0  0  0  0  0  0
    3.7830    0.8360    1.1670 C   0  0  0  0  0  0  0  0  0  0  0  0
    4.9120    0.1660    1.1600 C   0  0  0  0  0  0  0  0  0  0  0  0
    5.0350   -1.1280    0.6170 N   0  0  0  0  0  0  0  0  0  0  0  0
  1  2  1  0
  2  3  2  0
  4  2  1  6
  4  5  1  0
  4 23  1  0
  5  6  2  0
  6  7  1  0
  6 21  1  0
  7  8  1  0
  7 12  1  0
  8  9  2  0
  9 10  1  0
  9 11  1  0
 11 12  2  0
 12 13  1  0
 13 14  1  0
 14 15  1  0
 16 15  1  1
 16 17  1  0
 16 20  1  0
 17 18  1  0
 18 19  1  0
 19 20  1  0
 21 22  2  0
 22 23  1  0
M  END
