
     RDKit          3D

 24 25  0  0  0  0  0  0  0  0999 V2000
   -4.5040   -0.9460   -0.3490 N   0  0  0  0  0  0  0  0  0  0  0  0
   -3.5760   -0.3840   -1.2700 C   0  0  0  0  0  0  0  0  0  0  0  0
   -2.9780    0.9340   -0.8800 C   0  0  0  0  0  0  0  0  0  0  0  0
   -2.1920    0.8210    0.3780 C   0  0  2  0  0  0  0  0  0  0  0  0
   -2.9840    0.3680    1.5830 C   0  0  0  0  0  0  0  0  0  0  0  0
   -4.0910    1.2860    1.8560 N   0  0  0  0  0  0  0  0  0  0  0  0
   -1.1610    1.8820    0.7610 C   0  0  0  0  0  0  0  0  0  0  0  0
   -0.7180    0.5700    0.3370 C   0  0  2  0  0  0  0  0  0  0  0  0
    0.0320    0.3770   -0.9290 C   0  0  0  0  0  0  0  0  0  0  0  0
    0.3830    1.6030   -1.5760 N   0  0  0  0  0  0  0  0  0  0  0  0
    1.6050    1.9300   -2.2290 C   0  0  0  0  0  0  0  0  0  0  0  0
    2.7560    2.2580   -1.6980 C   0  0  0  0  0  0  0  0  0  0  0  0
    3.1390    2.3930   -0.3510 N   0  0  0  0  0  0  0  0  0  0  0  0
    3.0610    1.4630    0.7050 C   0  0  0  0  0  0  0  0  0  0  0  0
    2.5140    1.9240    1.7930 O   0  0  0  0  0  0  0  0  0  0  0  0
    3.4840    0.1320    0.7510 N   0  0  0  0  0  0  0  0  0  0  0  0
    3.8050   -0.7500   -0.3370 C   0  0  0  0  0  0  0  0  0  0  0  0
    3.6490   -2.2050    0.1230 C   0  0  0  0  0  0  0  0  0  0  0  0
    2.3840   -2.8360   -0.3920 C   0  0  0  0  0  0  0  0  0  0  0  0
    1.1520   -2.7710    0.8860 S   0  0  1  0  0  0  0  0  0  0  0  0
    0.5350   -4.1380    1.0900 O   0  0  0  0  0  0  0  0  0  0  0  0
    1.7810   -2.2880    2.1660 O   0  0  0  0  0  0  0  0  0  0  0  0
   -0.0580   -1.6790    0.4350 N   0  0  0  0  0  0  0  0  0  0  0  0
   -0.1700   -0.4960    1.2880 C   0  0  0  0  0  0  0  0  0  0  0  0
  1  2  1  0
  2  3  1  0
  4  3  1  6
  4  5  1  0
  4  7  1  0
  4  8  1  0
  5  6  1  0
  8  7  1  1
  8  9  1  0
  8 24  1  0
  9 10  1  0
 10 11  1  0
 11 12  2  0
 12 13  1  0
 13 14  1  0
 14 15  2  0
 14 16  1  0
 16 17  1  0
 17 18  1  0
 18 19  1  0
 20 19  1  6
 20 21  2  0
 20 22  2  0
 20 23  1  0
 23 24  1  0
M  END
