
     RDKit          3D

 28 32  0  0  0  0  0  0  0  0999 V2000
   -1.3770    4.4030    0.0350 O   0  0  0  0  0  0  0  0  0  0  0  0
   -0.7030    3.2840   -0.4460 C   0  0  0  0  0  0  0  0  0  0  0  0
    0.3000    3.5090   -1.3930 C   0  0  0  0  0  0  0  0  0  0  0  0
    0.9980    2.4500   -1.9080 C   0  0  0  0  0  0  0  0  0  0  0  0
    1.9940    2.3350   -2.8170 N   0  0  0  0  0  0  0  0  0  0  0  0
    2.3180    1.0710   -2.9670 N   0  0  0  0  0  0  0  0  0  0  0  0
    1.5220    0.3250   -2.1410 C   0  0  0  0  0  0  0  0  0  0  0  0
    1.5860   -1.1500   -1.9790 C   0  0  0  0  0  0  0  0  0  0  0  0
    2.3840   -1.4880   -0.7510 C   0  0  0  0  0  0  0  0  0  0  0  0
    1.8710   -1.7720    0.4660 C   0  0  0  0  0  0  0  0  0  0  0  0
    2.7060   -2.0590    1.5300 C   0  0  0  0  0  0  0  0  0  0  0  0
    4.0770   -2.0560    1.3460 C   0  0  0  0  0  0  0  0  0  0  0  0
    4.6160   -1.7680    0.1060 C   0  0  0  0  0  0  0  0  0  0  0  0
    3.7620   -1.4890   -0.9220 C   0  0  0  0  0  0  0  0  0  0  0  0
    0.6840    1.1860   -1.4680 C   0  0  0  0  0  0  0  0  0  0  0  0
   -0.3280    0.9910   -0.5160 C   0  0  0  0  0  0  0  0  0  0  0  0
   -1.0500    2.0400    0.0210 C   0  0  0  0  0  0  0  0  0  0  0  0
   -2.0760    1.8640    1.0630 C   0  0  0  0  0  0  0  0  0  0  0  0
   -2.5830    2.9110    1.8180 C   0  0  0  0  0  0  0  0  0  0  0  0
   -3.5520    2.3580    2.6410 C   0  0  0  0  0  0  0  0  0  0  0  0
   -3.5850    1.0690    2.3610 N   0  0  0  0  0  0  0  0  0  0  0  0
   -2.6960    0.7340    1.4000 N   0  0  0  0  0  0  0  0  0  0  0  0
   -2.5570   -0.5900    0.8970 C   0  0  0  0  0  0  0  0  0  0  0  0
   -3.1010   -0.9880   -0.3290 C   0  0  0  0  0  0  0  0  0  0  0  0
   -3.0000   -2.2790   -0.8000 C   0  0  0  0  0  0  0  0  0  0  0  0
   -2.3450   -3.2460   -0.0670 C   0  0  0  0  0  0  0  0  0  0  0  0
   -1.8050   -2.8670    1.1430 C   0  0  0  0  0  0  0  0  0  0  0  0
   -1.9070   -1.5690    1.6160 C   0  0  0  0  0  0  0  0  0  0  0  0
  1  2  1  0
  2  3  2  0
  2 17  1  0
  3  4  1  0
  4  5  2  0
  4 15  1  0
  5  6  1  0
  6  7  1  0
  7  8  1  0
  7 15  2  0
  8  9  1  0
  9 10  2  0
  9 14  1  0
 10 11  1  0
 11 12  2  0
 12 13  1  0
 13 14  2  0
 15 16  1  0
 16 17  2  0
 17 18  1  0
 18 19  2  0
 18 22  1  0
 19 20  1  0
 20 21  2  0
 21 22  1  0
 22 23  1  0
 23 24  2  0
 23 28  1  0
 24 25  1  0
 25 26  2  0
 26 27  1  0
 27 28  2  0
M  END
