
     RDKit          3D

 23 24  0  0  0  0  0  0  0  0999 V2000
   -5.0420    2.0650    0.5330 C   0  0  0  0  0  0  0  0  0  0  0  0
   -4.7790    1.2690   -0.7120 C   0  0  0  0  0  0  0  0  0  0  0  0
   -4.1070    0.0450   -0.4910 O   0  0  0  0  0  0  0  0  0  0  0  0
   -2.8360   -0.0550    0.0960 C   0  0  0  0  0  0  0  0  0  0  0  0
   -2.2690    0.9890    0.4180 O   0  0  0  0  0  0  0  0  0  0  0  0
   -2.3200   -1.4410    0.2640 C   0  0  1  0  0  0  0  0  0  0  0  0
   -1.0150   -1.6190    0.9200 C   0  0  0  0  0  0  0  0  0  0  0  0
   -0.9900   -2.2640    2.0070 O   0  0  0  0  0  0  0  0  0  0  0  0
    0.1920   -1.1040    0.3680 N   0  0  0  0  0  0  0  0  0  0  0  0
    0.2870   -0.4910   -0.9520 C   0  0  0  0  0  0  0  0  0  0  0  0
    1.6450    0.1310   -1.0570 C   0  0  1  0  0  0  0  0  0  0  0  0
    1.6390    1.4230   -1.5400 O   0  0  0  0  0  0  0  0  0  0  0  0
    2.1610    0.1350    0.4170 C   0  0  2  0  0  0  0  0  0  0  0  0
    3.5460    0.1060    0.2710 O   0  0  0  0  0  0  0  0  0  0  0  0
    4.3700    1.1560    0.6560 C   0  0  0  0  0  0  0  0  0  0  0  0
    3.7690    2.1380    1.1530 O   0  0  0  0  0  0  0  0  0  0  0  0
    5.8300    1.1730    0.5120 C   0  0  0  0  0  0  0  0  0  0  0  0
    6.3580    0.0410   -0.0710 O   0  0  0  0  0  0  0  0  0  0  0  0
    7.6660    0.2050   -0.1360 O   0  0  0  0  0  0  0  0  0  0  0  0
    1.5010   -1.0450    0.9270 C   0  0  0  0  0  0  0  0  0  0  0  0
    1.9280   -1.9500    1.7400 O   0  0  0  0  0  0  0  0  0  0  0  0
   -3.3090   -2.5760    0.3390 C   0  0  0  0  0  0  0  0  0  0  0  0
   -2.5630   -2.3240   -0.9430 C   0  0  0  0  0  0  0  0  0  0  0  0
  1  2  1  0
  2  3  1  0
  3  4  1  0
  4  5  2  0
  6  4  1  6
  6  7  1  0
  6 22  1  0
  6 23  1  0
  7  8  2  0
  7  9  1  0
  9 10  1  0
  9 20  1  0
 10 11  1  0
 11 12  1  1
 11 13  1  0
 13 14  1  6
 13 20  1  0
 14 15  1  0
 15 16  2  0
 15 17  1  0
 17 18  1  0
 18 19  1  0
 20 21  2  0
 22 23  1  0
M  END
