
     RDKit          3D

 23 22  0  0  0  0  0  0  0  0999 V2000
   -4.3160    1.2160    0.1700 C   0  0  0  0  0  0  0  0  0  0  0  0
   -3.2070    1.8820    0.2510 C   0  0  0  0  0  0  0  0  0  0  0  0
   -3.2880    3.3420    0.0110 C   0  0  0  0  0  0  0  0  0  0  0  0
   -4.3720    3.9170   -0.2580 O   0  0  0  0  0  0  0  0  0  0  0  0
   -2.1570    4.1500    0.0730 O   0  0  0  0  0  0  0  0  0  0  0  0
   -1.9250    1.3130    0.5200 C   0  0  0  0  0  0  0  0  0  0  0  0
   -0.9800    2.2230    0.5970 O   0  0  0  0  0  0  0  0  0  0  0  0
   -1.5140   -0.0050    0.7150 N   0  0  0  0  0  0  0  0  0  0  0  0
   -0.1090   -0.1800    1.1450 C   0  0  0  0  0  0  0  0  0  0  0  0
    0.8510   -0.2980    0.0520 C   0  0  0  0  0  0  0  0  0  0  0  0
    0.5160   -0.1860   -1.1430 O   0  0  0  0  0  0  0  0  0  0  0  0
    2.2120   -0.5420    0.2600 O   0  0  0  0  0  0  0  0  0  0  0  0
    3.0720   -0.6460   -0.7620 O   0  0  0  0  0  0  0  0  0  0  0  0
    4.3430   -0.7550   -0.1990 C   0  0  1  0  0  0  0  0  0  0  0  0
    5.0310   -2.0350   -0.6090 C   0  0  0  0  0  0  0  0  0  0  0  0
    5.1260    0.4650   -0.6980 C   0  0  0  0  0  0  0  0  0  0  0  0
    4.4150    1.5800   -0.2350 O   0  0  0  0  0  0  0  0  0  0  0  0
   -2.2430   -1.1840    0.5330 C   0  0  0  0  0  0  0  0  0  0  0  0
   -2.7060   -1.6090   -0.5950 C   0  0  0  0  0  0  0  0  0  0  0  0
   -2.5060   -0.8640   -1.8540 C   0  0  0  0  0  0  0  0  0  0  0  0
   -2.5060   -2.0140    1.7290 C   0  0  0  0  0  0  0  0  0  0  0  0
   -3.1570   -3.0660    1.5650 O   0  0  0  0  0  0  0  0  0  0  0  0
   -2.0750   -1.6870    2.9920 O   0  0  0  0  0  0  0  0  0  0  0  0
  1  2  2  0
  2  3  1  0
  2  6  1  0
  3  4  2  0
  3  5  1  0
  6  7  2  0
  6  8  1  0
  8  9  1  0
  8 18  1  0
  9 10  1  0
 10 11  2  0
 10 12  1  0
 12 13  1  0
 13 14  1  0
 14 15  1  6
 14 16  1  0
 16 17  1  0
 18 19  2  3
 18 21  1  0
 19 20  1  0
 21 22  2  0
 21 23  1  0
M  END
