
     RDKit          3D

 23 24  0  0  0  0  0  0  0  0999 V2000
   -1.8580    3.4610   -1.0330 O   0  0  0  0  0  0  0  0  0  0  0  0
   -1.5070    3.8520    0.1010 C   0  0  0  0  0  0  0  0  0  0  0  0
   -1.6390    5.1890    0.4060 O   0  0  0  0  0  0  0  0  0  0  0  0
   -0.9730    2.9190    1.0750 C   0  0  0  0  0  0  0  0  0  0  0  0
   -0.9470    1.5120    0.4550 N   0  0  0  0  0  0  0  0  0  0  0  0
    0.2340    1.2010   -0.2030 C   0  0  0  0  0  0  0  0  0  0  0  0
    1.1800    2.1540   -0.2080 O   0  0  0  0  0  0  0  0  0  0  0  0
    0.7010    0.1240   -0.8780 O   0  0  0  0  0  0  0  0  0  0  0  0
    1.8710   -0.0320   -1.4640 O   0  0  0  0  0  0  0  0  0  0  0  0
    2.8030   -0.3450   -0.4730 C   0  0  0  0  0  0  0  0  0  0  0  0
    4.1880   -0.5480   -1.0250 C   0  0  1  0  0  0  0  0  0  0  0  0
    5.1490   -0.8820    0.0850 C   0  0  0  0  0  0  0  0  0  0  0  0
    4.7890   -2.2090   -0.0170 O   0  0  0  0  0  0  0  0  0  0  0  0
    4.5390   -1.9720   -1.3870 C   0  0  0  0  0  0  0  0  0  0  0  0
   -2.1170    0.8330    0.6670 C   0  0  0  0  0  0  0  0  0  0  0  0
   -3.0070    1.5800    1.3670 O   0  0  0  0  0  0  0  0  0  0  0  0
   -2.7070   -0.4400    0.3770 C   0  0  0  0  0  0  0  0  0  0  0  0
   -2.0880   -1.3980   -0.2910 C   0  0  0  0  0  0  0  0  0  0  0  0
   -2.5970   -2.7830   -0.6630 C   0  0  0  0  0  0  0  0  0  0  0  0
   -2.9770   -3.4610    0.4950 O   0  0  0  0  0  0  0  0  0  0  0  0
   -4.2060   -3.1010    0.8850 O   0  0  0  0  0  0  0  0  0  0  0  0
   -4.7220   -1.8290    1.0830 C   0  0  0  0  0  0  0  0  0  0  0  0
   -4.1080   -0.6540    0.8760 C   0  0  0  0  0  0  0  0  0  0  0  0
  1  2  2  0
  2  3  1  0
  2  4  1  0
  4  5  1  0
  5  6  1  0
  5 15  1  0
  6  7  2  0
  6  8  1  0
  8  9  1  0
  9 10  1  0
 11 10  1  1
 11 12  1  0
 11 14  1  0
 12 13  1  0
 13 14  1  0
 15 16  2  0
 15 17  1  0
 17 18  2  0
 17 23  1  0
 18 19  1  0
 19 20  1  0
 20 21  1  0
 21 22  1  0
 22 23  2  0
M  END
