
     RDKit          3D

 23 24  0  0  0  0  0  0  0  0999 V2000
    4.1330   -0.2420    2.6160 O   0  0  0  0  0  0  0  0  0  0  0  0
    4.1000   -0.3710    1.3770 C   0  0  0  0  0  0  0  0  0  0  0  0
    2.7560   -0.4510    0.7830 C   0  0  0  0  0  0  0  0  0  0  0  0
    2.6910    0.5080   -0.3780 C   0  0  2  0  0  0  0  0  0  0  0  0
    3.5810    0.1590   -1.5200 C   0  0  0  0  0  0  0  0  0  0  0  0
    4.3780   -1.0900   -1.3660 C   0  0  0  0  0  0  0  0  0  0  0  0
    5.6580   -0.8730   -0.5510 C   0  0  0  0  0  0  0  0  0  0  0  0
    5.3200   -0.4180    0.7480 O   0  0  0  0  0  0  0  0  0  0  0  0
    3.1200    1.7560    0.1220 O   0  0  0  0  0  0  0  0  0  0  0  0
    1.9520    2.3270    0.6260 C   0  0  0  0  0  0  0  0  0  0  0  0
    0.9600    1.9310   -0.4630 C   0  0  2  0  0  0  0  0  0  0  0  0
   -0.4210    1.9130    0.0200 C   0  0  0  0  0  0  0  0  0  0  0  0
   -0.9840    2.9300    0.3630 O   0  0  0  0  0  0  0  0  0  0  0  0
   -1.1460    0.6250    0.0910 C   0  0  0  0  0  0  0  0  0  0  0  0
   -2.4360    0.8380    0.5750 O   0  0  0  0  0  0  0  0  0  0  0  0
   -3.3580   -0.1950    0.7520 C   0  0  0  0  0  0  0  0  0  0  0  0
   -2.9800   -1.3430    0.4550 O   0  0  0  0  0  0  0  0  0  0  0  0
   -4.6640    0.0640    1.2480 N   0  0  0  0  0  0  0  0  0  0  0  0
   -5.6510   -0.9750    1.4440 C   0  0  0  0  0  0  0  0  0  0  0  0
   -5.9520   -1.6450    0.1440 C   0  0  0  0  0  0  0  0  0  0  0  0
   -6.4430   -0.6840   -0.7380 O   0  0  0  0  0  0  0  0  0  0  0  0
   -6.7300   -1.2070   -1.9060 O   0  0  0  0  0  0  0  0  0  0  0  0
    1.3880    0.6720   -0.7930 O   0  0  0  0  0  0  0  0  0  0  0  0
  1  2  2  0
  2  3  1  0
  2  8  1  0
  4  3  1  1
  4  5  1  0
  4  9  1  0
  4 23  1  0
  5  6  1  0
  6  7  1  0
  7  8  1  0
  9 10  1  0
 10 11  1  0
 11 12  1  1
 11 23  1  0
 12 13  2  0
 12 14  1  0
 14 15  1  0
 15 16  1  0
 16 17  2  0
 16 18  1  0
 18 19  1  0
 19 20  1  0
 20 21  1  0
 21 22  1  0
M  END
