
     RDKit          3D

 23 23  0  0  0  0  0  0  0  0999 V2000
   -4.4620    2.0060   -1.0840 C   0  0  0  0  0  0  0  0  0  0  0  0
   -3.7950    1.1560   -0.2290 C   0  0  0  0  0  0  0  0  0  0  0  0
   -4.5830    0.6580    0.8610 C   0  0  0  0  0  0  0  0  0  0  0  0
   -5.8160    1.0270    0.9220 O   0  0  0  0  0  0  0  0  0  0  0  0
   -4.1800   -0.1740    1.8630 O   0  0  0  0  0  0  0  0  0  0  0  0
   -2.4260    0.9540   -0.5660 C   0  0  0  0  0  0  0  0  0  0  0  0
   -2.0070    1.6460   -1.6040 O   0  0  0  0  0  0  0  0  0  0  0  0
   -1.4160    0.1570   -0.0110 N   0  0  0  0  0  0  0  0  0  0  0  0
   -0.0580    0.3390   -0.6070 C   0  0  0  0  0  0  0  0  0  0  0  0
    0.6980    1.4700   -0.0040 C   0  0  0  0  0  0  0  0  0  0  0  0
    1.8700    1.7070   -0.4700 O   0  0  0  0  0  0  0  0  0  0  0  0
    3.0570    1.2810   -0.6270 C   0  0  0  0  0  0  0  0  0  0  0  0
    3.4140    0.0180   -1.3760 C   0  0  1  0  0  0  0  0  0  0  0  0
    4.9420   -0.1160   -1.2400 C   0  0  0  0  0  0  0  0  0  0  0  0
    4.9970   -1.5750   -0.7610 C   0  0  0  0  0  0  0  0  0  0  0  0
    3.8280   -1.5880    0.0350 O   0  0  0  0  0  0  0  0  0  0  0  0
    2.9150   -1.0720   -0.7460 O   0  0  0  0  0  0  0  0  0  0  0  0
   -1.5850   -0.8960    0.9010 C   0  0  0  0  0  0  0  0  0  0  0  0
   -2.2150   -2.0150    0.4360 C   0  0  0  0  0  0  0  0  0  0  0  0
   -2.6440   -2.0550   -0.8770 O   0  0  0  0  0  0  0  0  0  0  0  0
   -1.1740   -0.9540    2.2710 C   0  0  0  0  0  0  0  0  0  0  0  0
   -0.6050   -0.0120    2.8410 O   0  0  0  0  0  0  0  0  0  0  0  0
   -1.4000   -2.0960    3.0450 O   0  0  0  0  0  0  0  0  0  0  0  0
  1  2  2  0
  2  3  1  0
  2  6  1  0
  3  4  2  0
  3  5  1  0
  6  7  2  0
  6  8  1  0
  8  9  1  0
  8 18  1  0
  9 10  1  0
 10 11  1  0
 11 12  1  0
 13 12  1  1
 13 14  1  0
 13 17  1  0
 14 15  1  0
 15 16  1  0
 16 17  1  0
 18 19  2  3
 18 21  1  0
 19 20  1  0
 21 22  2  0
 21 23  1  0
M  END
