
     RDKit          3D

 22 22  0  0  0  0  0  0  0  0999 V2000
    1.2290   -3.8380    0.4920 C   0  0  0  0  0  0  0  0  0  0  0  0
    1.5060   -2.5690    1.2720 C   0  0  0  0  0  0  0  0  0  0  0  0
    0.3370   -1.6970    1.1510 C   0  0  0  0  0  0  0  0  0  0  0  0
    0.3400   -0.4920    0.6340 C   0  0  0  0  0  0  0  0  0  0  0  0
    1.5630    0.0340    0.1460 N   0  0  0  0  0  0  0  0  0  0  0  0
    2.5080    0.7400    0.9580 C   0  0  0  0  0  0  0  0  0  0  0  0
    3.6880    1.1520    0.1110 C   0  0  0  0  0  0  0  0  0  0  0  0
    4.2850    0.0230   -0.4200 O   0  0  0  0  0  0  0  0  0  0  0  0
    5.6470    0.4540   -1.4000 P   0  0  0  0  0  0  0  0  0  0  0  0
    7.0810   -0.3820   -0.9460 O   0  0  0  0  0  0  0  0  0  0  0  0
    5.8440    2.1610   -1.3610 O   0  0  0  0  0  0  0  0  0  0  0  0
   -0.7910    0.2860    0.5450 O   0  0  0  0  0  0  0  0  0  0  0  0
   -1.7840   -0.0510   -0.4070 C   0  0  0  0  0  0  0  0  0  0  0  0
   -2.9500    0.9120   -0.3620 C   0  0  2  0  0  0  0  0  0  0  0  0
   -2.6290    2.2360   -0.9450 C   0  0  0  0  0  0  0  0  0  0  0  0
   -3.7470    3.0540   -1.1090 O   0  0  0  0  0  0  0  0  0  0  0  0
   -4.5650    3.5490   -0.1240 C   0  0  0  0  0  0  0  0  0  0  0  0
   -4.3240    3.2740    1.0740 O   0  0  0  0  0  0  0  0  0  0  0  0
   -3.5120    0.8790    0.8780 O   0  0  0  0  0  0  0  0  0  0  0  0
   -4.1970   -0.3320    0.9730 C   0  0  0  0  0  0  0  0  0  0  0  0
   -4.4440   -0.7360   -0.4620 C   0  0  0  0  0  0  0  0  0  0  0  0
   -3.9620    0.3430   -1.1630 O   0  0  0  0  0  0  0  0  0  0  0  0
  1  2  1  0
  2  3  1  0
  3  4  2  3
  4  5  1  0
  4 12  1  0
  5  6  1  0
  6  7  1  0
  7  8  1  0
  8  9  1  0
  9 10  1  0
  9 11  1  0
 12 13  1  0
 14 13  1  1
 14 15  1  0
 14 19  1  0
 14 22  1  0
 15 16  1  0
 16 17  1  0
 17 18  2  0
 19 20  1  0
 20 21  1  0
 21 22  1  0
M  END
