
     RDKit          3D

 25 26  0  0  0  0  0  0  0  0999 V2000
   -6.0700    3.0590   -0.8960 O   0  0  0  0  0  0  0  0  0  0  0  0
   -5.2500    2.2130   -0.5000 C   0  0  0  0  0  0  0  0  0  0  0  0
   -4.0800    2.6020    0.1050 C   0  0  0  0  0  0  0  0  0  0  0  0
   -3.1960    1.7200    0.5580 C   0  0  0  0  0  0  0  0  0  0  0  0
   -3.4140    0.3690    0.4670 N   0  0  0  0  0  0  0  0  0  0  0  0
   -2.4660   -0.5140    1.0670 C   0  0  2  0  0  0  0  0  0  0  0  0
   -1.2600    0.1830    1.3210 O   0  0  0  0  0  0  0  0  0  0  0  0
   -0.3490   -0.3520    0.5160 C   0  0  2  0  0  0  0  0  0  0  0  0
    0.5990    0.6290   -0.2120 C   0  0  0  0  0  0  0  0  0  0  0  0
    1.2430   -0.1670   -1.1200 O   0  0  0  0  0  0  0  0  0  0  0  0
    2.8000   -0.4820   -1.1120 P   0  0  0  0  0  0  0  0  0  0  0  0
    3.1070   -2.2230   -1.2250 O   0  0  0  0  0  0  0  0  0  0  0  0
    2.8110   -0.7210    0.4320 O   0  0  0  0  0  0  0  0  0  0  0  0
    4.0810    0.4570   -1.0980 O   0  0  0  0  0  0  0  0  0  0  0  0
    4.9510    0.8710    0.0750 P   0  0  0  0  0  0  0  0  0  0  0  0
    4.7970   -0.5820    0.8280 O   0  0  0  0  0  0  0  0  0  0  0  0
    3.8390    2.0750    0.3970 O   0  0  0  0  0  0  0  0  0  0  0  0
    6.2890    1.2360   -0.7930 O   0  0  0  0  0  0  0  0  0  0  0  0
   -0.8850   -1.3620   -0.4260 C   0  0  1  0  0  0  0  0  0  0  0  0
   -0.1140   -2.5200   -0.5270 O   0  0  0  0  0  0  0  0  0  0  0  0
   -2.1530   -1.7770    0.3520 C   0  0  1  0  0  0  0  0  0  0  0  0
   -1.7620   -2.7150    1.3370 O   0  0  0  0  0  0  0  0  0  0  0  0
   -4.5380    0.0340   -0.0910 C   0  0  0  0  0  0  0  0  0  0  0  0
   -4.8540   -1.2400   -0.1790 O   0  0  0  0  0  0  0  0  0  0  0  0
   -5.4640    0.8580   -0.5900 N   0  0  0  0  0  0  0  0  0  0  0  0
  1  2  2  0
  2  3  1  0
  2 25  1  0
  3  4  2  0
  4  5  1  0
  6  5  1  6
  5 23  1  0
  6  7  1  0
  6 21  1  0
  7  8  1  0
  8  9  1  6
  8 19  1  0
  9 10  1  0
 10 11  1  0
 11 12  1  0
 11 13  1  0
 11 14  1  0
 14 15  1  0
 15 16  1  0
 15 17  1  0
 15 18  1  0
 19 20  1  1
 19 21  1  0
 21 22  1  1
 23 24  2  0
 23 25  1  0
M  END
