
     RDKit          3D

 27 28  0  0  0  0  0  0  0  0999 V2000
    5.7600   -2.5940    1.8460 O   0  0  0  0  0  0  0  0  0  0  0  0
    6.2110   -2.7400    0.6970 C   0  0  0  0  0  0  0  0  0  0  0  0
    6.7920   -3.9370    0.3410 O   0  0  0  0  0  0  0  0  0  0  0  0
    6.1310   -1.6500   -0.2850 C   0  0  0  0  0  0  0  0  0  0  0  0
    5.4460   -0.4620    0.3800 C   0  0  0  0  0  0  0  0  0  0  0  0
    5.3650    0.6680   -0.6410 C   0  0  0  0  0  0  0  0  0  0  0  0
    4.7040    1.8460    0.0040 C   0  0  0  0  0  0  0  0  0  0  0  0
    3.2980    1.4840    0.4830 C   0  0  0  0  0  0  0  0  0  0  0  0
    2.4610    1.0490   -0.6520 C   0  0  0  0  0  0  0  0  0  0  0  0
    1.0260    0.6390   -0.2350 C   0  0  0  0  0  0  0  0  0  0  0  0
    0.3310    1.7830    0.3760 C   0  0  0  0  0  0  0  0  0  0  0  0
   -1.0180    1.6660    0.9400 C   0  0  0  0  0  0  0  0  0  0  0  0
   -2.0980    1.1950    0.0610 C   0  0  0  0  0  0  0  0  0  0  0  0
   -1.9900   -0.2390   -0.3200 C   0  0  0  0  0  0  0  0  0  0  0  0
   -3.1500   -0.5260   -1.1780 N   0  0  0  0  0  0  0  0  0  0  0  0
   -4.4280   -0.5900   -0.6000 C   0  0  0  0  0  0  0  0  0  0  0  0
   -4.7130   -0.5520    0.7390 C   0  0  0  0  0  0  0  0  0  0  0  0
   -5.9890   -0.6420    1.2710 C   0  0  0  0  0  0  0  0  0  0  0  0
   -7.0420   -0.7810    0.3850 C   0  0  0  0  0  0  0  0  0  0  0  0
   -8.3720   -0.8770    0.9140 N   0  0  0  0  0  0  0  0  0  0  0  0
   -9.2320   -1.5540    0.3150 O   0  0  0  0  0  0  0  0  0  0  0  0
   -8.6560   -0.2140    2.0740 O   0  0  0  0  0  0  0  0  0  0  0  0
   -6.8280   -0.8270   -0.9750 C   0  0  0  0  0  0  0  0  0  0  0  0
   -7.6630   -0.9530   -2.0140 N   0  0  0  0  0  0  0  0  0  0  0  0
   -6.9290   -0.9390   -3.1090 O   0  0  0  0  0  0  0  0  0  0  0  0
   -5.6590   -0.8080   -2.7830 N   0  0  0  0  0  0  0  0  0  0  0  0
   -5.5400   -0.7330   -1.4490 C   0  0  0  0  0  0  0  0  0  0  0  0
  1  2  2  0
  2  3  1  0
  2  4  1  0
  4  5  1  0
  5  6  1  0
  6  7  1  0
  7  8  1  0
  8  9  1  0
  9 10  1  0
 10 11  1  0
 11 12  1  0
 12 13  1  0
 13 14  1  0
 14 15  1  0
 15 16  1  0
 16 17  2  0
 16 27  1  0
 17 18  1  0
 18 19  2  0
 19 20  1  0
 19 23  1  0
 20 21  2  0
 20 22  1  0
 23 24  2  0
 23 27  1  0
 24 25  1  0
 25 26  1  0
 26 27  2  0
M  CHG  2  20   1  22  -1
M  END
