
     RDKit          3D

 22 23  0  0  0  0  0  0  0  0999 V2000
    0.2540    0.4050   -4.5400 C   0  0  0  0  0  0  0  0  0  0  0  0
    0.6310    0.1410   -3.0970 C   0  0  0  0  0  0  0  0  0  0  0  0
   -0.6330    0.4420   -2.2730 C   0  0  0  0  0  0  0  0  0  0  0  0
   -0.3740    0.2120   -0.8090 C   0  0  1  0  0  0  0  0  0  0  0  0
    0.6640    1.0100   -0.2710 N   0  0  0  0  0  0  0  0  0  0  0  0
    1.7170    0.4290    0.4740 C   0  0  0  0  0  0  0  0  0  0  0  0
    1.6910   -0.8110    0.6360 O   0  0  0  0  0  0  0  0  0  0  0  0
    2.7810    1.1540    1.0380 N   0  0  0  0  0  0  0  0  0  0  0  0
    3.8220    0.4970    1.7860 C   0  0  0  0  0  0  0  0  0  0  0  0
    4.3000    0.5560    3.0150 C   0  0  0  0  0  0  0  0  0  0  0  0
    5.2790   -0.4740    2.7120 C   0  0  0  0  0  0  0  0  0  0  0  0
    4.8040   -0.5330    1.4900 C   0  0  0  0  0  0  0  0  0  0  0  0
   -1.6960    0.4920   -0.0530 C   0  0  1  0  0  0  0  0  0  0  0  0
   -2.7290   -0.4450   -0.5850 C   0  0  0  0  0  0  0  0  0  0  0  0
   -3.2670   -1.3860    0.1240 C   0  0  0  0  0  0  0  0  0  0  0  0
   -4.2840   -2.2680   -0.5200 C   0  0  0  0  0  0  0  0  0  0  0  0
   -2.9580   -1.5410    1.5280 C   0  0  0  0  0  0  0  0  0  0  0  0
   -2.1380   -0.7170    2.0820 N   0  0  0  0  0  0  0  0  0  0  0  0
   -1.5200    0.3500    1.3880 C   0  0  0  0  0  0  0  0  0  0  0  0
   -0.8120    1.2150    2.0840 C   0  0  0  0  0  0  0  0  0  0  0  0
   -0.6440    1.0540    3.5470 C   0  0  0  0  0  0  0  0  0  0  0  0
   -1.1740    0.0880    4.1510 O   0  0  0  0  0  0  0  0  0  0  0  0
  1  2  1  0
  2  3  1  0
  4  3  1  6
  4  5  1  0
  4 13  1  0
  5  6  1  0
  6  7  2  0
  6  8  1  0
  8  9  1  0
  9 10  2  0
  9 12  1  0
 10 11  1  0
 11 12  2  0
 13 14  1  6
 13 19  1  0
 14 15  2  0
 15 16  1  0
 15 17  1  0
 17 18  2  0
 18 19  1  0
 19 20  2  3
 20 21  1  0
 21 22  2  0
M  END
