
     RDKit          3D

 22 22  0  0  0  0  0  0  0  0999 V2000
    6.0110    1.1350   -2.0070 C   0  0  0  0  0  0  0  0  0  0  0  0
    4.8320    0.1760   -1.8710 C   0  0  0  0  0  0  0  0  0  0  0  0
    4.2160    0.3420   -0.5090 C   0  0  0  0  0  0  0  0  0  0  0  0
    3.0380   -0.5980   -0.3320 C   0  0  0  0  0  0  0  0  0  0  0  0
    1.9630   -0.3430   -1.3500 C   0  0  0  0  0  0  0  0  0  0  0  0
    0.7630   -1.1840   -1.2290 C   0  0  0  0  0  0  0  0  0  0  0  0
   -0.0920   -0.9670   -0.0090 C   0  0  0  0  0  0  0  0  0  0  0  0
    0.1390   -0.0140    0.8660 C   0  0  0  0  0  0  0  0  0  0  0  0
   -0.5690    0.3340    2.0820 C   0  0  0  0  0  0  0  0  0  0  0  0
   -1.6790    1.0280    2.2880 C   0  0  0  0  0  0  0  0  0  0  0  0
   -2.1480    1.1960    3.7430 C   0  0  0  0  0  0  0  0  0  0  0  0
   -2.1890    2.5540    4.0580 O   0  0  0  0  0  0  0  0  0  0  0  0
   -2.4720    1.6540    1.2890 N   0  0  0  0  0  0  0  0  0  0  0  0
   -2.7600    1.3340   -0.0490 C   0  0  0  0  0  0  0  0  0  0  0  0
   -3.4810    0.3960   -0.6310 C   0  0  0  0  0  0  0  0  0  0  0  0
   -3.5460    0.3830   -2.1780 C   0  0  0  0  0  0  0  0  0  0  0  0
   -4.2400   -0.6480    0.0440 C   0  0  0  0  0  0  0  0  0  0  0  0
   -5.3280   -0.9880   -0.5660 O   0  0  0  0  0  0  0  0  0  0  0  0
   -4.0000   -1.3550    1.2450 N   0  0  0  0  0  0  0  0  0  0  0  0
   -2.8560   -1.8450    1.7760 N   0  0  0  0  0  0  0  0  0  0  0  0
   -1.7110   -2.1420    1.4680 C   0  0  0  0  0  0  0  0  0  0  0  0
   -1.2020   -1.9910    0.0880 C   0  0  0  0  0  0  0  0  0  0  0  0
  1  2  1  0
  2  3  1  0
  3  4  1  0
  4  5  1  0
  5  6  1  0
  6  7  1  0
  7  8  2  0
  7 22  1  0
  8  9  1  0
  9 10  2  0
 10 11  1  0
 10 13  1  0
 11 12  1  0
 13 14  1  0
 14 15  2  0
 15 16  1  0
 15 17  1  0
 17 18  2  0
 17 19  1  0
 19 20  1  0
 20 21  2  0
 21 22  1  0
M  END
