
     RDKit          3D

 22 23  0  0  0  0  0  0  0  0999 V2000
    6.7900    0.5080    2.0700 C   0  0  0  0  0  0  0  0  0  0  0  0
    5.8580   -0.0440    1.0440 C   0  0  0  0  0  0  0  0  0  0  0  0
    4.4770    0.1430    1.0670 C   0  0  0  0  0  0  0  0  0  0  0  0
    3.9310   -0.4910   -0.0130 C   0  0  0  0  0  0  0  0  0  0  0  0
    2.5670   -0.5780   -0.4070 N   0  0  0  0  0  0  0  0  0  0  0  0
    1.5060    0.0200    0.3110 C   0  0  0  0  0  0  0  0  0  0  0  0
    1.7290    0.6690    1.3530 O   0  0  0  0  0  0  0  0  0  0  0  0
    0.1410   -0.1050   -0.1430 N   0  0  0  0  0  0  0  0  0  0  0  0
   -0.9210    0.5130    0.6060 C   0  0  0  0  0  0  0  0  0  0  0  0
   -2.2760    0.2710   -0.0280 C   0  0  1  0  0  0  0  0  0  0  0  0
   -2.2230    0.8640   -1.4160 C   0  0  0  0  0  0  0  0  0  0  0  0
   -2.5160   -1.2040   -0.0480 C   0  0  0  0  0  0  0  0  0  0  0  0
   -3.9520   -1.5750   -0.1260 C   0  0  0  0  0  0  0  0  0  0  0  0
   -4.9490   -0.7570    0.0980 C   0  0  0  0  0  0  0  0  0  0  0  0
   -4.7160    0.6430    0.4570 C   0  0  1  0  0  0  0  0  0  0  0  0
   -5.1550    1.5220   -0.7210 C   0  0  0  0  0  0  0  0  0  0  0  0
   -5.6020    0.9930    1.5860 C   0  0  0  0  0  0  0  0  0  0  0  0
   -5.2400    1.8090    2.3960 O   0  0  0  0  0  0  0  0  0  0  0  0
   -3.2970    0.9390    0.8540 C   0  0  0  0  0  0  0  0  0  0  0  0
    4.9990   -1.0660   -0.6940 C   0  0  0  0  0  0  0  0  0  0  0  0
    4.9200   -1.8650   -1.9380 C   0  0  0  0  0  0  0  0  0  0  0  0
    6.1250   -0.7830   -0.0420 N   0  0  0  0  0  0  0  0  0  0  0  0
  1  2  1  0
  2  3  2  0
  2 22  1  0
  3  4  1  0
  4  5  1  0
  4 20  2  0
  5  6  1  0
  6  7  2  0
  6  8  1  0
  8  9  1  0
  9 10  1  0
 10 11  1  6
 10 12  1  0
 10 19  1  0
 12 13  1  0
 13 14  2  0
 14 15  1  0
 15 16  1  6
 15 17  1  0
 15 19  1  0
 17 18  2  0
 20 21  1  0
 20 22  1  0
M  END
