
     RDKit          3D

 22 23  0  0  0  0  0  0  0  0999 V2000
    8.0370   -1.3000    0.3690 C   0  0  0  0  0  0  0  0  0  0  0  0
    7.1060   -0.3300    1.1000 C   0  0  0  0  0  0  0  0  0  0  0  0
    6.7810    0.7350    0.1740 C   0  0  0  0  0  0  0  0  0  0  0  0
    5.6190    1.0750   -0.2490 C   0  0  0  0  0  0  0  0  0  0  0  0
    4.3870    0.3890    0.1740 C   0  0  0  0  0  0  0  0  0  0  0  0
    3.2520    0.8150   -0.3180 C   0  0  0  0  0  0  0  0  0  0  0  0
    1.9400    0.2640   -0.0160 C   0  0  0  0  0  0  0  0  0  0  0  0
    0.8630    0.8320   -0.6200 N   0  0  0  0  0  0  0  0  0  0  0  0
   -0.4110    0.3820   -0.3980 C   0  0  0  0  0  0  0  0  0  0  0  0
   -1.4850    1.0450   -1.0600 N   0  0  0  0  0  0  0  0  0  0  0  0
   -2.8740    0.7310   -1.0280 C   0  0  1  0  0  0  0  0  0  0  0  0
   -3.1430   -0.5750   -1.6930 C   0  0  0  0  0  0  0  0  0  0  0  0
   -4.5550   -1.0960   -1.4610 C   0  0  0  0  0  0  0  0  0  0  0  0
   -4.7340   -1.2000    0.0390 C   0  0  0  0  0  0  0  0  0  0  0  0
   -4.7700    0.2150    0.5670 C   0  0  2  0  0  0  0  0  0  0  0  0
   -5.8650    0.8310   -0.0820 O   0  0  0  0  0  0  0  0  0  0  0  0
   -6.8080    1.2610    0.8480 C   0  0  0  0  0  0  0  0  0  0  0  0
   -3.5010    0.9440    0.3070 C   0  0  0  0  0  0  0  0  0  0  0  0
   -0.6340   -0.6640    0.4480 C   0  0  0  0  0  0  0  0  0  0  0  0
    0.4370   -1.2480    1.0640 N   0  0  0  0  0  0  0  0  0  0  0  0
    1.6830   -0.7790    0.8230 C   0  0  0  0  0  0  0  0  0  0  0  0
    2.6510   -1.3450    1.4110 O   0  0  0  0  0  0  0  0  0  0  0  0
  1  2  1  0
  2  3  1  0
  3  4  2  3
  4  5  1  0
  5  6  2  3
  6  7  1  0
  7  8  2  0
  7 21  1  0
  8  9  1  0
  9 10  1  0
  9 19  2  0
 11 10  1  1
 11 12  1  0
 11 18  1  0
 12 13  1  0
 13 14  1  0
 14 15  1  0
 15 16  1  6
 15 18  1  0
 16 17  1  0
 19 20  1  0
 20 21  1  0
 21 22  2  0
M  END
