
     RDKit          3D

  6  6  0  0  0  0  0  0  0  0999 V2000
    2.2560   -0.0510    0.2230 N   0  0  0  0  0  0  0  0  0  0  0  0
    0.9540    0.0360    0.1180 C   0  0  0  0  0  0  0  0  0  0  0  0
    0.1210    1.1250    0.4800 N   0  0  0  0  0  0  0  0  0  0  0  0
   -1.1020    0.8240    0.2220 C   0  0  0  0  0  0  0  0  0  0  0  0
   -1.1020   -0.5190   -0.3340 C   0  0  0  0  0  0  0  0  0  0  0  0
    0.1010   -0.9540   -0.3850 N   0  0  0  0  0  0  0  0  0  0  0  0
  1  2  2  0
  2  3  1  0
  2  6  1  0
  3  4  2  0
  4  5  1  0
  5  6  2  0
M  END
