
     RDKit          3D

 22 23  0  0  0  0  0  0  0  0999 V2000
   -5.2840   -1.1020    1.5490 C   0  0  0  0  0  0  0  0  0  0  0  0
   -4.5640   -1.0810    0.4480 C   0  0  0  0  0  0  0  0  0  0  0  0
   -3.1290   -1.5200    0.4170 C   0  0  0  0  0  0  0  0  0  0  0  0
   -2.2350   -0.3550   -0.0350 C   0  0  2  0  0  0  0  0  0  0  0  0
   -2.4830    0.7260    1.0190 C   0  0  0  0  0  0  0  0  0  0  0  0
   -2.6330    0.1140   -1.3990 C   0  0  0  0  0  0  0  0  0  0  0  0
   -1.7380    1.2340   -1.7090 N   0  0  0  0  0  0  0  0  0  0  0  0
   -2.1750    2.5660   -1.9900 C   0  0  0  0  0  0  0  0  0  0  0  0
   -0.3610    0.8900   -1.7130 C   0  0  0  0  0  0  0  0  0  0  0  0
    0.4510    1.4750   -2.4710 O   0  0  0  0  0  0  0  0  0  0  0  0
    0.0790   -0.1940   -0.7790 C   0  0  0  0  0  0  0  0  0  0  0  0
    1.4880   -0.5270   -0.8100 C   0  0  0  0  0  0  0  0  0  0  0  0
    2.2330    0.1300   -1.6320 O   0  0  0  0  0  0  0  0  0  0  0  0
    2.1560   -1.4810   -0.0550 N   0  0  0  0  0  0  0  0  0  0  0  0
    3.6180   -1.6320   -0.2760 C   0  0  0  0  0  0  0  0  0  0  0  0
    4.3090   -0.3390    0.0260 C   0  0  0  0  0  0  0  0  0  0  0  0
    5.0360    0.4120   -0.7630 C   0  0  0  0  0  0  0  0  0  0  0  0
    5.5080    1.5930   -0.0180 C   0  0  0  0  0  0  0  0  0  0  0  0
    4.9530    1.4290    1.3250 C   0  0  0  0  0  0  0  0  0  0  0  0
    4.2610    0.3010    1.3280 C   0  0  0  0  0  0  0  0  0  0  0  0
   -0.8160   -0.7520   -0.0160 C   0  0  0  0  0  0  0  0  0  0  0  0
   -0.4840   -1.8070    0.9100 N   0  0  0  0  0  0  0  0  0  0  0  0
  1  2  2  0
  2  3  1  0
  3  4  1  0
  4  5  1  1
  4  6  1  0
  4 21  1  0
  6  7  1  0
  7  8  1  0
  7  9  1  0
  9 10  2  0
  9 11  1  0
 11 12  1  0
 11 21  2  0
 12 13  2  0
 12 14  1  0
 14 15  1  0
 15 16  1  0
 16 17  2  0
 16 20  1  0
 17 18  1  0
 18 19  1  0
 19 20  2  0
 21 22  1  0
M  END
