
     RDKit          3D

 20 20  0  0  0  0  0  0  0  0999 V2000
    5.8790   -1.2760    0.8150 C   0  0  0  0  0  0  0  0  0  0  0  0
    4.5450   -0.5620    0.7860 C   0  0  0  0  0  0  0  0  0  0  0  0
    4.6970    0.7000   -0.0370 C   0  0  0  0  0  0  0  0  0  0  0  0
    3.3930    1.4240   -0.0840 C   0  0  1  0  0  0  0  0  0  0  0  0
    3.5260    2.6920   -0.9060 C   0  0  0  0  0  0  0  0  0  0  0  0
    3.8380    2.3220   -2.1970 O   0  0  0  0  0  0  0  0  0  0  0  0
    2.3520    0.5710   -0.6120 N   0  0  0  0  0  0  0  0  0  0  0  0
    1.1680    0.2260    0.0940 C   0  0  0  0  0  0  0  0  0  0  0  0
    1.0170    0.6930    1.2450 O   0  0  0  0  0  0  0  0  0  0  0  0
    0.1600   -0.6310   -0.4760 N   0  0  0  0  0  0  0  0  0  0  0  0
   -1.0200   -0.9750    0.2150 C   0  0  0  0  0  0  0  0  0  0  0  0
   -1.3970   -2.1990    0.5410 C   0  0  0  0  0  0  0  0  0  0  0  0
   -2.6730   -2.4010    1.2720 C   0  0  0  0  0  0  0  0  0  0  0  0
   -3.7190   -1.6430    0.4790 C   0  0  0  0  0  0  0  0  0  0  0  0
   -3.3380   -0.2680    0.4690 N   0  0  0  0  0  0  0  0  0  0  0  0
   -4.3210    0.7350    0.2840 C   0  0  0  0  0  0  0  0  0  0  0  0
   -3.9640    1.9710    0.2820 O   0  0  0  0  0  0  0  0  0  0  0  0
   -5.7680    0.4890    0.0840 C   0  0  0  0  0  0  0  0  0  0  0  0
   -6.1450    0.5340   -1.3830 C   0  0  0  0  0  0  0  0  0  0  0  0
   -1.9610    0.1190    0.6350 C   0  0  0  0  0  0  0  0  0  0  0  0
  1  2  1  0
  2  3  1  0
  4  3  1  6
  4  5  1  0
  4  7  1  0
  5  6  1  0
  7  8  1  0
  8  9  2  0
  8 10  1  0
 10 11  1  0
 11 12  2  0
 11 20  1  0
 12 13  1  0
 13 14  1  0
 14 15  1  0
 15 16  1  0
 15 20  1  0
 16 17  2  0
 16 18  1  0
 18 19  1  0
M  END
