
     RDKit          3D

 20 20  0  0  0  0  0  0  0  0999 V2000
    7.0270   -1.5310   -0.0260 C   0  0  0  0  0  0  0  0  0  0  0  0
    5.5840   -1.1330   -0.3240 C   0  0  0  0  0  0  0  0  0  0  0  0
    5.4530    0.3220   -0.0200 C   0  0  0  0  0  0  0  0  0  0  0  0
    4.1280    0.7970   -0.2750 N   0  0  0  0  0  0  0  0  0  0  0  0
    3.0150    0.2800    0.4180 C   0  0  0  0  0  0  0  0  0  0  0  0
    3.1810   -0.6100    1.2790 O   0  0  0  0  0  0  0  0  0  0  0  0
    1.6320    0.7600    0.1600 C   0  0  0  0  0  0  0  0  0  0  0  0
    0.6480    0.0390    1.0370 C   0  0  0  0  0  0  0  0  0  0  0  0
   -0.6540    0.4280    0.8560 O   0  0  0  0  0  0  0  0  0  0  0  0
   -1.1570    0.2420   -0.4090 C   0  0  2  0  0  0  0  0  0  0  0  0
   -1.5270    1.5670   -1.0150 C   0  0  0  0  0  0  0  0  0  0  0  0
   -2.8360    2.1060   -0.5400 C   0  0  0  0  0  0  0  0  0  0  0  0
   -3.9160    1.0660   -0.8530 C   0  0  0  0  0  0  0  0  0  0  0  0
   -3.5690   -0.1010   -0.0860 N   0  0  0  0  0  0  0  0  0  0  0  0
   -4.4270   -0.6170    0.9100 C   0  0  0  0  0  0  0  0  0  0  0  0
   -4.2070   -0.4160    2.3350 C   0  0  0  0  0  0  0  0  0  0  0  0
   -4.9870   -0.8890    3.1680 O   0  0  0  0  0  0  0  0  0  0  0  0
   -5.4820   -1.3180    0.5370 C   0  0  0  0  0  0  0  0  0  0  0  0
   -5.7230   -1.5320   -0.8450 N   0  0  0  0  0  0  0  0  0  0  0  0
   -2.3070   -0.7290   -0.3690 C   0  0  0  0  0  0  0  0  0  0  0  0
  1  2  1  0
  2  3  1  0
  3  4  1  0
  4  5  1  0
  5  6  2  0
  5  7  1  0
  7  8  1  0
  8  9  1  0
 10  9  1  1
 10 11  1  0
 10 20  1  0
 11 12  1  0
 12 13  1  0
 13 14  1  0
 14 15  1  0
 14 20  1  0
 15 16  1  0
 15 18  2  3
 16 17  2  0
 18 19  1  0
M  END
