
     RDKit          3D

 19 19  0  0  0  0  0  0  0  0999 V2000
    3.1180    1.2920   -1.0700 C   0  0  0  0  0  0  0  0  0  0  0  0
    3.2050    0.1030   -0.5110 C   0  0  0  0  0  0  0  0  0  0  0  0
    2.9260   -1.1100   -1.3970 C   0  0  0  0  0  0  0  0  0  0  0  0
    1.7930   -1.7720   -0.7560 N   0  0  0  0  0  0  0  0  0  0  0  0
    0.5650   -1.0150   -0.6180 C   0  0  0  0  0  0  0  0  0  0  0  0
    0.5460    0.1470   -1.0500 O   0  0  0  0  0  0  0  0  0  0  0  0
   -0.5420   -1.6060   -0.0130 N   0  0  0  0  0  0  0  0  0  0  0  0
   -1.7820   -0.9570    0.1790 C   0  0  0  0  0  0  0  0  0  0  0  0
   -2.0220    0.3610   -0.0140 C   0  0  0  0  0  0  0  0  0  0  0  0
   -3.3030    0.8750    0.2000 C   0  0  0  0  0  0  0  0  0  0  0  0
   -4.3670    0.1250    0.6020 C   0  0  0  0  0  0  0  0  0  0  0  0
   -5.6820    0.5610    0.8240 N   0  0  0  0  0  0  0  0  0  0  0  0
   -6.1570    1.8280    0.4540 C   0  0  0  0  0  0  0  0  0  0  0  0
   -5.4350    2.6660   -0.1090 O   0  0  0  0  0  0  0  0  0  0  0  0
   -4.0990   -1.2320    0.7960 C   0  0  0  0  0  0  0  0  0  0  0  0
   -2.8690   -1.7490    0.5950 C   0  0  0  0  0  0  0  0  0  0  0  0
    3.5820   -0.1670    0.8810 C   0  0  0  0  0  0  0  0  0  0  0  0
    3.8700    0.9560    1.5830 O   0  0  0  0  0  0  0  0  0  0  0  0
    5.0650    1.5090    1.1730 C   0  0  0  0  0  0  0  0  0  0  0  0
  1  2  2  0
  2  3  1  0
  2 17  1  0
  3  4  1  0
  4  5  1  0
  5  6  2  0
  5  7  1  0
  7  8  1  0
  8  9  2  0
  8 16  1  0
  9 10  1  0
 10 11  2  0
 11 12  1  0
 11 15  1  0
 12 13  1  0
 13 14  2  0
 15 16  2  0
 17 18  1  0
 18 19  1  0
M  END
