
     RDKit          3D

 20 20  0  0  0  0  0  0  0  0999 V2000
   -3.6250    0.2480    2.0200 C   0  0  0  0  0  0  0  0  0  0  0  0
   -3.5360   -0.5510    0.7560 C   0  0  0  0  0  0  0  0  0  0  0  0
   -4.6180   -0.8900    0.1010 C   0  0  0  0  0  0  0  0  0  0  0  0
   -4.6320   -1.6770   -1.1550 C   0  0  0  0  0  0  0  0  0  0  0  0
   -3.2600   -2.0300   -1.5730 C   0  0  0  0  0  0  0  0  0  0  0  0
   -3.1180   -2.7000   -2.6280 O   0  0  0  0  0  0  0  0  0  0  0  0
   -2.0630   -1.6500   -0.8390 C   0  0  0  0  0  0  0  0  0  0  0  0
   -2.2160   -0.9410    0.2740 C   0  0  0  0  0  0  0  0  0  0  0  0
   -1.0710   -0.5430    1.0310 N   0  0  0  0  0  0  0  0  0  0  0  0
   -0.0130    0.1960    0.3280 C   0  0  1  0  0  0  0  0  0  0  0  0
   -0.7000    1.4490   -0.1910 C   0  0  0  0  0  0  0  0  0  0  0  0
    1.0640    0.5070    1.2960 C   0  0  0  0  0  0  0  0  0  0  0  0
    0.8520    0.1920    2.5170 O   0  0  0  0  0  0  0  0  0  0  0  0
    2.3100    1.1320    0.9240 N   0  0  0  0  0  0  0  0  0  0  0  0
    3.2260    1.3780    2.0410 C   0  0  0  0  0  0  0  0  0  0  0  0
    2.6200    1.4940   -0.4380 C   0  0  0  0  0  0  0  0  0  0  0  0
    3.2630    0.4450   -1.2640 C   0  0  0  0  0  0  0  0  0  0  0  0
    4.5580   -0.0650   -0.8540 C   0  0  0  0  0  0  0  0  0  0  0  0
    5.1810   -1.2160   -1.4260 N   0  0  0  0  0  0  0  0  0  0  0  0
    5.2100    0.5030    0.0470 O   0  0  0  0  0  0  0  0  0  0  0  0
  1  2  1  0
  2  3  2  0
  2  8  1  0
  3  4  1  0
  4  5  1  0
  5  6  2  0
  5  7  1  0
  7  8  2  0
  8  9  1  0
  9 10  1  0
 10 11  1  1
 10 12  1  0
 12 13  2  0
 12 14  1  0
 14 15  1  0
 14 16  1  0
 16 17  1  0
 17 18  1  0
 18 19  1  0
 18 20  2  0
M  END
