
     RDKit          3D

 20 20  0  0  0  0  0  0  0  0999 V2000
    4.6850   -0.6210    1.8350 C   0  0  0  0  0  0  0  0  0  0  0  0
    3.8680   -0.1350    0.8170 O   0  0  0  0  0  0  0  0  0  0  0  0
    4.5060    0.7720    0.0400 C   0  0  0  0  0  0  0  0  0  0  0  0
    3.6170    1.2950   -1.0600 C   0  0  1  0  0  0  0  0  0  0  0  0
    3.4210    0.2690   -2.1540 C   0  0  0  0  0  0  0  0  0  0  0  0
    2.4420    1.9290   -0.6080 N   0  0  0  0  0  0  0  0  0  0  0  0
    1.2170    1.3470   -0.1600 C   0  0  0  0  0  0  0  0  0  0  0  0
    0.2110    2.1800    0.2550 N   0  0  0  0  0  0  0  0  0  0  0  0
   -0.9790    1.7230    0.6660 C   0  0  0  0  0  0  0  0  0  0  0  0
   -1.8790    2.5490    1.0470 O   0  0  0  0  0  0  0  0  0  0  0  0
   -1.2850    0.3810    0.7030 C   0  0  0  0  0  0  0  0  0  0  0  0
   -2.5530   -0.2010    1.1240 C   0  0  0  0  0  0  0  0  0  0  0  0
   -3.7020   -0.1620    0.1980 C   0  0  1  0  0  0  0  0  0  0  0  0
   -4.1860    1.2030   -0.2290 C   0  0  0  0  0  0  0  0  0  0  0  0
   -3.5160   -0.9420   -1.0930 C   0  0  0  0  0  0  0  0  0  0  0  0
   -4.9160   -0.7910    0.9170 C   0  0  0  0  0  0  0  0  0  0  0  0
   -0.2650   -0.4670    0.2840 C   0  0  0  0  0  0  0  0  0  0  0  0
   -0.4470   -1.9150    0.3080 C   0  0  0  0  0  0  0  0  0  0  0  0
    0.7340   -2.5470   -0.1570 O   0  0  0  0  0  0  0  0  0  0  0  0
    0.9380    0.0500   -0.1290 N   0  0  0  0  0  0  0  0  0  0  0  0
  1  2  1  0
  2  3  1  0
  3  4  1  0
  4  5  1  6
  4  6  1  0
  6  7  1  0
  7  8  2  0
  7 20  1  0
  8  9  1  0
  9 10  2  0
  9 11  1  0
 11 12  1  0
 11 17  2  0
 12 13  1  0
 13 14  1  6
 13 15  1  0
 13 16  1  0
 17 18  1  0
 17 20  1  0
 18 19  1  0
M  END
