
     RDKit          3D

 20 21  0  0  0  0  0  0  0  0999 V2000
    0.3500   -0.8440   -0.5130 O   0  0  0  0  0  0  0  0  0  0  0  0
    0.0650    0.3100   -0.1660 C   0  0  0  0  0  0  0  0  0  0  0  0
   -1.2340    0.7890   -0.5470 N   0  0  0  0  0  0  0  0  0  0  0  0
   -2.1730   -0.0290   -1.2960 C   0  0  0  0  0  0  0  0  0  0  0  0
   -2.5490   -1.2810   -0.5850 C   0  0  0  0  0  0  0  0  0  0  0  0
   -3.2090   -1.0930    0.7390 C   0  0  0  0  0  0  0  0  0  0  0  0
   -4.5250   -0.4270    0.7120 C   0  0  0  0  0  0  0  0  0  0  0  0
   -5.2800   -0.1560   -0.3220 C   0  0  0  0  0  0  0  0  0  0  0  0
   -6.5020    0.5230    0.1680 C   0  0  0  0  0  0  0  0  0  0  0  0
   -6.3010    0.5830    1.6250 C   0  0  0  0  0  0  0  0  0  0  0  0
   -5.1890    0.0450    1.9020 N   0  0  0  0  0  0  0  0  0  0  0  0
    0.9760    1.0890    0.5570 N   0  0  0  0  0  0  0  0  0  0  0  0
    2.2920    0.7470    0.9560 C   0  0  0  0  0  0  0  0  0  0  0  0
    3.3580    0.5390   -0.0610 C   0  0  1  0  0  0  0  0  0  0  0  0
    3.5000    1.7120   -0.8600 O   0  0  0  0  0  0  0  0  0  0  0  0
    4.6710    0.5350    0.7440 C   0  0  0  0  0  0  0  0  0  0  0  0
    5.7260   -0.3270    0.1180 C   0  0  0  0  0  0  0  0  0  0  0  0
    5.5900   -0.1850   -1.2620 O   0  0  0  0  0  0  0  0  0  0  0  0
    4.5420   -1.0320   -1.6100 C   0  0  0  0  0  0  0  0  0  0  0  0
    3.2380   -0.6110   -0.9530 C   0  0  0  0  0  0  0  0  0  0  0  0
  1  2  2  0
  2  3  1  0
  2 12  1  0
  3  4  1  0
  4  5  1  0
  5  6  1  0
  6  7  1  0
  7  8  2  0
  7 11  1  0
  8  9  1  0
  9 10  1  0
 10 11  2  0
 12 13  1  0
 13 14  1  0
 14 15  1  6
 14 16  1  0
 14 20  1  0
 16 17  1  0
 17 18  1  0
 18 19  1  0
 19 20  1  0
M  END
