
     RDKit          3D

 20 20  0  0  0  0  0  0  0  0999 V2000
   -2.9060   -1.4360    2.7470 C   0  0  0  0  0  0  0  0  0  0  0  0
   -2.8900   -0.2190    2.2020 C   0  0  0  0  0  0  0  0  0  0  0  0
   -3.4880    0.9920    2.7760 C   0  0  0  0  0  0  0  0  0  0  0  0
   -2.8770    2.0300    2.0200 O   0  0  0  0  0  0  0  0  0  0  0  0
   -2.3020    1.5100    0.8690 C   0  0  0  0  0  0  0  0  0  0  0  0
   -2.2910    0.1890    0.9370 C   0  0  0  0  0  0  0  0  0  0  0  0
   -1.7710   -0.7730   -0.0700 C   0  0  0  0  0  0  0  0  0  0  0  0
   -1.2310   -0.0870   -1.2300 N   0  0  0  0  0  0  0  0  0  0  0  0
   -2.0530    0.2390   -2.3790 C   0  0  0  0  0  0  0  0  0  0  0  0
   -2.0550   -0.8640   -3.4110 C   0  0  0  0  0  0  0  0  0  0  0  0
   -2.9590   -0.3730   -4.5500 C   0  0  0  0  0  0  0  0  0  0  0  0
    0.1340    0.2950   -1.2820 C   0  0  0  0  0  0  0  0  0  0  0  0
    0.5960    0.8900   -2.2910 O   0  0  0  0  0  0  0  0  0  0  0  0
    0.9820   -0.0380   -0.1040 C   0  0  0  0  0  0  0  0  0  0  0  0
    2.4060    0.4240   -0.2940 C   0  0  0  0  0  0  0  0  0  0  0  0
    3.1510    0.0540    0.9050 N   0  0  0  0  0  0  0  0  0  0  0  0
    4.5270    0.3400    1.0620 C   0  0  0  0  0  0  0  0  0  0  0  0
    5.1030    0.9380    0.1120 O   0  0  0  0  0  0  0  0  0  0  0  0
    5.2050   -0.0420    2.2520 N   0  0  0  0  0  0  0  0  0  0  0  0
    6.6060    0.2660    2.3750 C   0  0  0  0  0  0  0  0  0  0  0  0
  1  2  2  0
  2  3  1  0
  2  6  1  0
  3  4  1  0
  4  5  1  0
  5  6  2  0
  6  7  1  0
  7  8  1  0
  8  9  1  0
  8 12  1  0
  9 10  1  0
 10 11  1  0
 12 13  2  0
 12 14  1  0
 14 15  1  0
 15 16  1  0
 16 17  1  0
 17 18  2  0
 17 19  1  0
 19 20  1  0
M  END
