
     RDKit          3D

 16 17  0  0  0  0  0  0  0  0999 V2000
   -1.0630    0.9880    1.2530 C   0  0  0  0  0  0  0  0  0  0  0  0
   -0.8350    0.2170   -0.0330 C   0  0  2  0  0  0  0  0  0  0  0  0
    0.4570    0.5340   -0.6800 C   0  0  2  0  0  0  0  0  0  0  0  0
    0.5870   -0.1450   -1.8780 O   0  0  0  0  0  0  0  0  0  0  0  0
    1.6770    0.5410    0.1670 C   0  0  1  0  0  0  0  0  0  0  0  0
    2.2490   -0.8670    0.3010 C   0  0  0  0  0  0  0  0  0  0  0  0
    3.7340   -0.5100    0.3880 C   0  0  0  0  0  0  0  0  0  0  0  0
    3.8370    0.4940   -0.5420 O   0  0  0  0  0  0  0  0  0  0  0  0
    2.7390    1.2280   -0.5810 N   0  0  0  0  0  0  0  0  0  0  0  0
   -1.8990    0.6680   -0.9550 N   0  0  0  0  0  0  0  0  0  0  0  0
   -3.1590    0.0280   -0.9310 C   0  0  0  0  0  0  0  0  0  0  0  0
   -3.9430    0.2270   -1.8960 O   0  0  0  0  0  0  0  0  0  0  0  0
   -3.5750   -0.8600    0.1880 C   0  0  0  0  0  0  0  0  0  0  0  0
   -2.4110   -1.4560    0.7680 O   0  0  0  0  0  0  0  0  0  0  0  0
   -1.1240   -1.1910    0.2340 C   0  0  0  0  0  0  0  0  0  0  0  0
   -0.3830   -2.1750    0.0510 O   0  0  0  0  0  0  0  0  0  0  0  0
  2  1  1  1
  2  3  1  0
  2 10  1  0
  2 15  1  0
  3  4  1  6
  3  5  1  0
  5  6  1  6
  5  9  1  0
  6  7  1  0
  7  8  1  0
  8  9  1  0
 10 11  1  0
 11 12  2  0
 11 13  1  0
 13 14  1  0
 14 15  1  0
 15 16  2  0
M  END
