
     RDKit          3D

 12 12  0  0  0  0  0  0  0  0999 V2000
    3.6930    0.7820   -0.0940 C   0  0  0  0  0  0  0  0  0  0  0  0
    2.8490    0.0170    0.9070 C   0  0  0  0  0  0  0  0  0  0  0  0
    1.5280   -0.0400    0.3510 O   0  0  0  0  0  0  0  0  0  0  0  0
    1.2480   -0.6280   -0.8550 C   0  0  0  0  0  0  0  0  0  0  0  0
    2.1850   -1.1410   -1.5080 O   0  0  0  0  0  0  0  0  0  0  0  0
   -0.0950   -0.6930   -1.4340 C   0  0  0  0  0  0  0  0  0  0  0  0
   -1.1530   -0.1960   -0.8530 C   0  0  0  0  0  0  0  0  0  0  0  0
   -2.5320   -0.2350   -1.3940 C   0  0  0  0  0  0  0  0  0  0  0  0
   -3.3330   -0.5290   -0.1430 C   0  0  0  0  0  0  0  0  0  0  0  0
   -2.7080    0.3830    0.8390 C   0  0  0  0  0  0  0  0  0  0  0  0
   -3.2570    0.9120    1.7710 O   0  0  0  0  0  0  0  0  0  0  0  0
   -1.2820    0.5160    0.4500 C   0  0  0  0  0  0  0  0  0  0  0  0
  1  2  1  0
  2  3  1  0
  3  4  1  0
  4  5  2  0
  4  6  1  0
  6  7  2  3
  7  8  1  0
  7 12  1  0
  8  9  1  0
  9 10  1  0
 10 11  2  0
 10 12  1  0
M  END
