
     RDKit          3D

 16 17  0  0  0  0  0  0  0  0999 V2000
   -0.8370    0.8300    1.5910 C   0  0  0  0  0  0  0  0  0  0  0  0
   -0.8900   -0.3550    0.6400 C   0  0  2  0  0  0  0  0  0  0  0  0
    0.4200   -1.0330    0.6140 C   0  0  0  0  0  0  0  0  0  0  0  0
    0.4740   -2.2450    0.9450 O   0  0  0  0  0  0  0  0  0  0  0  0
    1.6290   -0.4060    0.2400 N   0  0  0  0  0  0  0  0  0  0  0  0
    1.8600    0.9650   -0.1820 C   0  0  0  0  0  0  0  0  0  0  0  0
    3.3580    1.0040   -0.5220 C   0  0  0  0  0  0  0  0  0  0  0  0
    3.8510    0.0330    0.3600 O   0  0  0  0  0  0  0  0  0  0  0  0
    2.9310   -1.0270    0.2000 C   0  0  2  0  0  0  0  0  0  0  0  0
    3.2060   -1.6410   -1.0100 O   0  0  0  0  0  0  0  0  0  0  0  0
   -1.3310    0.1540   -0.6960 C   0  0  0  0  0  0  0  0  0  0  0  0
   -2.8170   -0.1810   -0.7260 C   0  0  2  0  0  0  0  0  0  0  0  0
   -3.6070    0.7990   -0.0260 N   0  0  0  0  0  0  0  0  0  0  0  0
   -2.8450   -1.4330    0.0730 C   0  0  0  0  0  0  0  0  0  0  0  0
   -3.6090   -2.4010   -0.1490 O   0  0  0  0  0  0  0  0  0  0  0  0
   -1.8770   -1.2610    1.0560 O   0  0  0  0  0  0  0  0  0  0  0  0
  2  1  1  1
  2  3  1  0
  2 11  1  0
  2 16  1  0
  3  4  2  0
  3  5  1  0
  5  6  1  0
  5  9  1  0
  6  7  1  0
  7  8  1  0
  8  9  1  0
  9 10  1  6
 11 12  1  0
 12 13  1  1
 12 14  1  0
 14 15  2  0
 14 16  1  0
M  END
