
     RDKit          3D

 16 17  0  0  0  0  0  0  0  0999 V2000
   -5.5870    0.0250    1.2750 N   0  0  0  0  0  0  0  0  0  0  0  0
   -4.2570    0.3980    0.9160 C   0  0  0  0  0  0  0  0  0  0  0  0
   -4.0470    1.6560    0.8350 O   0  0  0  0  0  0  0  0  0  0  0  0
   -3.1840   -0.5970    0.6530 C   0  0  0  0  0  0  0  0  0  0  0  0
   -2.0200    0.1080    0.3320 O   0  0  0  0  0  0  0  0  0  0  0  0
   -0.8060   -0.5340    0.0250 C   0  0  0  0  0  0  0  0  0  0  0  0
   -0.8230   -1.7710    0.0540 O   0  0  0  0  0  0  0  0  0  0  0  0
    0.3910    0.2220   -0.3070 C   0  0  0  0  0  0  0  0  0  0  0  0
    1.5510   -0.3290   -0.6010 C   0  0  0  0  0  0  0  0  0  0  0  0
    2.5380    0.7860   -0.8880 C   0  0  1  0  0  0  0  0  0  0  0  0
    1.9580    1.8840   -0.0790 C   0  0  0  0  0  0  0  0  0  0  0  0
    0.5210    1.6500   -0.3480 N   0  0  0  0  0  0  0  0  0  0  0  0
    3.7750    0.1250   -0.3400 C   0  0  0  0  0  0  0  0  0  0  0  0
    3.6630   -1.1310   -0.9340 O   0  0  0  0  0  0  0  0  0  0  0  0
    2.3550   -1.5460   -0.7760 C   0  0  1  0  0  0  0  0  0  0  0  0
    2.3160   -2.3930    0.3270 O   0  0  0  0  0  0  0  0  0  0  0  0
  1  2  1  0
  2  3  2  0
  2  4  1  0
  4  5  1  0
  5  6  1  0
  6  7  2  0
  6  8  1  0
  8  9  2  0
  8 12  1  0
  9 10  1  0
  9 15  1  0
 10 11  1  1
 10 13  1  0
 11 12  1  0
 13 14  1  0
 14 15  1  0
 15 16  1  1
M  END
