
     RDKit          3D

 12 12  0  0  0  0  0  0  0  0999 V2000
    4.2280    0.6390   -0.8640 C   0  0  0  0  0  0  0  0  0  0  0  0
    3.1380    0.5790    0.0470 O   0  0  0  0  0  0  0  0  0  0  0  0
    2.1790   -0.4210    0.0130 C   0  0  0  0  0  0  0  0  0  0  0  0
    2.2870   -1.3090   -0.8650 O   0  0  0  0  0  0  0  0  0  0  0  0
    1.0370   -0.5010    0.9530 C   0  0  0  0  0  0  0  0  0  0  0  0
   -0.2350    0.0740    0.3750 C   0  0  2  0  0  0  0  0  0  0  0  0
    0.0590    1.4270    0.0790 O   0  0  0  0  0  0  0  0  0  0  0  0
   -1.3270    0.1220    1.3960 C   0  0  0  0  0  0  0  0  0  0  0  0
   -2.6900    0.3850    0.8500 C   0  0  0  0  0  0  0  0  0  0  0  0
   -2.7170    0.3680   -0.6680 C   0  0  0  0  0  0  0  0  0  0  0  0
   -2.0210   -0.9260   -1.0420 C   0  0  0  0  0  0  0  0  0  0  0  0
   -0.5450   -0.6180   -0.8850 C   0  0  0  0  0  0  0  0  0  0  0  0
  1  2  1  0
  2  3  1  0
  3  4  2  0
  3  5  1  0
  5  6  1  0
  6  7  1  6
  6  8  1  0
  6 12  1  0
  8  9  1  0
  9 10  1  0
 10 11  1  0
 11 12  1  0
M  END
