
     RDKit          3D

 16 17  0  0  0  0  0  0  0  0999 V2000
    3.5280    0.9900    0.0570 C   0  0  0  0  0  0  0  0  0  0  0  0
    2.0570    0.8200    0.3710 C   0  0  2  0  0  0  0  0  0  0  0  0
    1.9770    0.5680    1.7570 O   0  0  0  0  0  0  0  0  0  0  0  0
    1.5000   -0.3410   -0.3340 C   0  0  0  0  0  0  0  0  0  0  0  0
    2.2730   -1.0680   -1.1120 C   0  0  0  0  0  0  0  0  0  0  0  0
    1.7740   -2.1770   -1.7940 O   0  0  0  0  0  0  0  0  0  0  0  0
    0.1390   -0.7010   -0.1970 N   0  0  0  0  0  0  0  0  0  0  0  0
   -0.9220    0.0830   -0.8360 C   0  0  2  0  0  0  0  0  0  0  0  0
   -0.8720    1.3700   -0.3610 O   0  0  0  0  0  0  0  0  0  0  0  0
   -2.1690    1.8060   -0.1510 C   0  0  0  0  0  0  0  0  0  0  0  0
   -2.8360    0.5760    0.4050 C   0  0  2  0  0  0  0  0  0  0  0  0
   -2.2770    0.1760    1.6290 O   0  0  0  0  0  0  0  0  0  0  0  0
   -2.3810   -1.2300    1.6370 C   0  0  0  0  0  0  0  0  0  0  0  0
   -2.5340   -1.9770    2.6630 O   0  0  0  0  0  0  0  0  0  0  0  0
   -2.2800   -1.6370    0.2830 N   0  0  0  0  0  0  0  0  0  0  0  0
   -2.2750   -0.4850   -0.5520 C   0  0  2  0  0  0  0  0  0  0  0  0
  2  1  1  6
  2  3  1  0
  2  4  1  0
  4  5  2  3
  4  7  1  0
  5  6  1  0
  8  7  1  1
  8  9  1  0
  8 16  1  0
  9 10  1  0
 11 10  1  6
 11 12  1  0
 11 16  1  0
 12 13  1  0
 13 14  2  0
 13 15  1  0
 16 15  1  1
M  END
