
     RDKit          3D

 13 13  0  0  0  0  0  0  0  0999 V2000
    3.7410   -0.7970   -0.1020 C   0  0  0  0  0  0  0  0  0  0  0  0
    3.3820    0.5400   -0.0490 O   0  0  0  0  0  0  0  0  0  0  0  0
    2.3380    0.8660   -0.8820 C   0  0  0  0  0  0  0  0  0  0  0  0
    1.1070    0.1100   -0.5490 C   0  0  0  0  0  0  0  0  0  0  0  0
   -0.0080    0.7320   -0.1970 C   0  0  0  0  0  0  0  0  0  0  0  0
   -1.2510    0.0850    0.1430 C   0  0  0  0  0  0  0  0  0  0  0  0
   -1.3770   -1.2860    0.1280 C   0  0  0  0  0  0  0  0  0  0  0  0
   -2.5210   -1.9040    0.4410 O   0  0  0  0  0  0  0  0  0  0  0  0
   -3.5700   -1.2110    0.7760 C   0  0  0  0  0  0  0  0  0  0  0  0
   -4.6340   -1.8190    1.0650 O   0  0  0  0  0  0  0  0  0  0  0  0
   -3.5520    0.1520    0.8220 C   0  0  0  0  0  0  0  0  0  0  0  0
   -2.3550    0.8040    0.4950 C   0  0  0  0  0  0  0  0  0  0  0  0
   -2.3350    2.1730    0.5410 O   0  0  0  0  0  0  0  0  0  0  0  0
  1  2  1  0
  2  3  1  0
  3  4  1  0
  4  5  2  3
  5  6  1  0
  6  7  2  0
  6 12  1  0
  7  8  1  0
  8  9  1  0
  9 10  2  0
  9 11  1  0
 11 12  2  0
 12 13  1  0
M  END
