
     RDKit          3D

 13 13  0  0  0  0  0  0  0  0999 V2000
    4.1450    0.4560    0.4690 C   0  0  0  0  0  0  0  0  0  0  0  0
    2.7450   -0.0240    0.7360 C   0  0  0  0  0  0  0  0  0  0  0  0
    2.5580   -1.2420    0.6190 O   0  0  0  0  0  0  0  0  0  0  0  0
    1.7260    0.7660    1.0830 O   0  0  0  0  0  0  0  0  0  0  0  0
    0.4210    0.5740    1.3530 C   0  0  0  0  0  0  0  0  0  0  0  0
   -0.5430    0.1280    0.3000 C   0  0  2  0  0  0  0  0  0  0  0  0
   -0.5130    1.1750   -0.8270 C   0  0  0  0  0  0  0  0  0  0  0  0
   -0.8780    2.4210   -0.3660 O   0  0  0  0  0  0  0  0  0  0  0  0
   -1.9410    0.2470    0.9080 C   0  0  0  0  0  0  0  0  0  0  0  0
   -2.9310   -0.6590    0.2600 C   0  0  0  0  0  0  0  0  0  0  0  0
   -2.4320   -1.9600    0.0790 O   0  0  0  0  0  0  0  0  0  0  0  0
   -1.4710   -1.8400   -0.9240 C   0  0  0  0  0  0  0  0  0  0  0  0
   -0.2500   -1.1980   -0.2380 C   0  0  0  0  0  0  0  0  0  0  0  0
  1  2  1  0
  2  3  2  0
  2  4  1  0
  4  5  1  0
  6  5  1  1
  6  7  1  0
  6  9  1  0
  6 13  1  0
  7  8  1  0
  9 10  1  0
 10 11  1  0
 11 12  1  0
 12 13  1  0
M  END
