
     RDKit          3D

 13 13  0  0  0  0  0  0  0  0999 V2000
    0.6290   -0.9380   -0.9160 O   0  0  0  0  0  0  0  0  0  0  0  0
    0.8360   -0.1000   -0.0120 C   0  0  0  0  0  0  0  0  0  0  0  0
   -0.2330    0.5580    0.7780 C   0  0  0  0  0  0  0  0  0  0  0  0
   -1.5680    0.0940    0.3580 C   0  0  0  0  0  0  0  0  0  0  0  0
   -2.5070    0.8960   -0.1180 C   0  0  0  0  0  0  0  0  0  0  0  0
   -2.4660    2.2700   -0.3240 O   0  0  0  0  0  0  0  0  0  0  0  0
   -3.7230    0.0850   -0.4380 C   0  0  0  0  0  0  0  0  0  0  0  0
   -3.5560   -1.1020    0.5180 C   0  0  0  0  0  0  0  0  0  0  0  0
   -2.0400   -1.3130    0.4100 C   0  0  0  0  0  0  0  0  0  0  0  0
    2.1410    0.2380    0.2730 O   0  0  0  0  0  0  0  0  0  0  0  0
    3.2710   -0.2800   -0.3680 C   0  0  0  0  0  0  0  0  0  0  0  0
    4.4910    0.3860    0.2810 C   0  0  0  0  0  0  0  0  0  0  0  0
    5.6660   -0.0630   -0.2870 O   0  0  0  0  0  0  0  0  0  0  0  0
  1  2  2  0
  2  3  1  0
  2 10  1  0
  3  4  1  0
  4  5  2  0
  4  9  1  0
  5  6  1  0
  5  7  1  0
  7  8  1  0
  8  9  1  0
 10 11  1  0
 11 12  1  0
 12 13  1  0
M  END
