
     RDKit          3D

 39 42  0  0  0  0  0  0  0  0999 V2000
   -5.3190   -2.6280   -1.0000 C   0  0  0  0  0  0  0  0  0  0  0  0
   -4.4520   -1.7130   -1.8380 C   0  0  1  0  0  0  0  0  0  0  0  0
   -5.3500   -0.5540   -2.2930 C   0  0  0  0  0  0  0  0  0  0  0  0
   -3.3550   -1.1300   -1.0130 C   0  0  0  0  0  0  0  0  0  0  0  0
   -2.0620   -1.2930   -1.4100 C   0  0  0  0  0  0  0  0  0  0  0  0
   -1.0350   -0.7640   -0.6650 C   0  0  0  0  0  0  0  0  0  0  0  0
    0.3400   -0.8570   -0.9650 N   0  0  0  0  0  0  0  0  0  0  0  0
    0.8930   -1.5230   -2.0620 C   0  0  0  0  0  0  0  0  0  0  0  0
    0.1730   -2.1100   -2.8890 O   0  0  0  0  0  0  0  0  0  0  0  0
    2.3800   -1.5660   -2.2990 C   0  0  1  0  0  0  0  0  0  0  0  0
    2.7710   -0.8740   -3.5630 C   0  0  0  0  0  0  0  0  0  0  0  0
    3.7720    0.1300   -3.1650 C   0  0  0  0  0  0  0  0  0  0  0  0
    4.4880    1.0210   -4.0630 C   0  0  0  0  0  0  0  0  0  0  0  0
    4.2640    0.9690   -5.3450 C   0  0  0  0  0  0  0  0  0  0  0  0
    3.3680    0.0940   -5.8620 F   0  0  0  0  0  0  0  0  0  0  0  0
    4.9020    1.7730   -6.2130 F   0  0  0  0  0  0  0  0  0  0  0  0
    3.9250    0.0990   -1.8310 C   0  0  0  0  0  0  0  0  0  0  0  0
    4.8190    0.9380   -1.0830 C   0  0  0  0  0  0  0  0  0  0  0  0
    4.9840    0.9320    0.1800 C   0  0  0  0  0  0  0  0  0  0  0  0
    4.3080    0.0750    1.1480 C   0  0  0  0  0  0  0  0  0  0  0  0
    5.6220   -0.8890    1.9890 S   0  0  0  0  0  0  0  0  0  0  0  0
    6.6420    0.2320    2.9320 C   0  0  0  0  0  0  0  0  0  0  0  0
    5.9430    0.8650    4.0870 C   0  0  1  0  0  0  0  0  0  0  0  0
    4.8500    1.6190    3.7770 F   0  0  0  0  0  0  0  0  0  0  0  0
    5.6130   -0.1780    4.9670 F   0  0  0  0  0  0  0  0  0  0  0  0
    6.7970    1.6890    4.8230 F   0  0  0  0  0  0  0  0  0  0  0  0
    3.0860   -0.8660   -1.3200 O   0  0  0  0  0  0  0  0  0  0  0  0
   -1.3420   -0.0540    0.5080 C   0  0  0  0  0  0  0  0  0  0  0  0
   -0.6020    0.5860    1.4630 C   0  0  0  0  0  0  0  0  0  0  0  0
   -1.4630    1.1060    2.3890 N   0  0  0  0  0  0  0  0  0  0  0  0
   -2.7150    0.8040    2.0320 N   0  0  0  0  0  0  0  0  0  0  0  0
   -3.9310    1.1330    2.6890 C   0  0  0  0  0  0  0  0  0  0  0  0
   -4.2700    0.4980    3.8660 C   0  0  0  0  0  0  0  0  0  0  0  0
   -5.4550    0.8120    4.5160 C   0  0  0  0  0  0  0  0  0  0  0  0
   -6.3370    1.7560    4.0290 C   0  0  0  0  0  0  0  0  0  0  0  0
   -5.9930    2.3880    2.8530 C   0  0  0  0  0  0  0  0  0  0  0  0
   -4.8030    2.0780    2.1920 C   0  0  0  0  0  0  0  0  0  0  0  0
   -2.6530    0.0900    0.8760 C   0  0  0  0  0  0  0  0  0  0  0  0
   -3.6430   -0.4490    0.1120 N   0  0  0  0  0  0  0  0  0  0  0  0
  2  1  1  1
  2  3  1  0
  2  4  1  0
  4  5  2  0
  4 39  1  0
  5  6  1  0
  6  7  1  0
  6 28  2  0
  7  8  1  0
  8  9  2  0
 10  8  1  1
 10 11  1  0
 10 27  1  0
 11 12  1  0
 12 13  1  0
 12 17  2  0
 13 14  2  3
 14 15  1  0
 14 16  1  0
 17 18  1  0
 17 27  1  0
 18 19  2  3
 19 20  1  0
 20 21  1  0
 21 22  1  0
 22 23  1  0
 23 24  1  6
 23 25  1  0
 23 26  1  0
 28 29  1  0
 28 38  1  0
 29 30  2  0
 30 31  1  0
 31 32  1  0
 31 38  1  0
 32 33  2  0
 32 37  1  0
 33 34  1  0
 34 35  2  0
 35 36  1  0
 36 37  2  0
 38 39  2  0
M  END
