
     RDKit          3D

 39 42  0  0  0  0  0  0  0  0999 V2000
    0.0610    3.7700    0.8560 C   0  0  0  0  0  0  0  0  0  0  0  0
    0.4480    2.3990    0.6160 N   0  0  0  0  0  0  0  0  0  0  0  0
   -0.5210    1.5020    0.3850 C   0  0  0  0  0  0  0  0  0  0  0  0
   -1.7180    1.8860    0.3900 O   0  0  0  0  0  0  0  0  0  0  0  0
   -0.2010    0.1700    0.1450 C   0  0  0  0  0  0  0  0  0  0  0  0
    1.1330   -0.2410    0.1420 C   0  0  0  0  0  0  0  0  0  0  0  0
    1.1320   -1.5910   -0.1290 C   0  0  0  0  0  0  0  0  0  0  0  0
   -0.2070   -1.9650   -0.2840 C   0  0  0  0  0  0  0  0  0  0  0  0
   -0.9710   -0.8900   -0.1150 N   0  0  0  0  0  0  0  0  0  0  0  0
   -2.4380   -0.8350   -0.1900 C   0  0  0  0  0  0  0  0  0  0  0  0
   -2.8690   -0.4690   -1.5690 C   0  0  0  0  0  0  0  0  0  0  0  0
   -4.5600   -0.2770   -1.9310 S   0  0  0  0  0  0  0  0  0  0  0  0
   -5.7830   -0.2730   -0.6580 C   0  0  2  0  0  0  0  0  0  0  0  0
   -5.6800    0.7850    0.3850 C   0  0  0  0  0  0  0  0  0  0  0  0
   -5.7380    2.1830   -0.1310 C   0  0  0  0  0  0  0  0  0  0  0  0
   -6.9800    2.5520   -0.8580 C   0  0  0  0  0  0  0  0  0  0  0  0
   -6.8410    3.8810   -1.2580 F   0  0  0  0  0  0  0  0  0  0  0  0
   -6.0150   -1.6660   -0.1370 C   0  0  0  0  0  0  0  0  0  0  0  0
   -7.0240   -1.6960    0.9100 N   0  0  0  0  0  0  0  0  0  0  0  0
   -7.2230   -3.1020    1.3030 C   0  0  1  0  0  0  0  0  0  0  0  0
   -7.6440   -3.7530    0.1410 F   0  0  0  0  0  0  0  0  0  0  0  0
   -6.0960   -3.6850    1.7990 F   0  0  0  0  0  0  0  0  0  0  0  0
   -8.2880   -3.1850    2.1880 F   0  0  0  0  0  0  0  0  0  0  0  0
    2.0770    0.6770    0.3750 N   0  0  0  0  0  0  0  0  0  0  0  0
    3.4340    0.3040    0.3660 C   0  0  0  0  0  0  0  0  0  0  0  0
    3.9650   -0.5150    1.3160 C   0  0  0  0  0  0  0  0  0  0  0  0
    5.3280   -0.8340    1.2720 C   0  0  0  0  0  0  0  0  0  0  0  0
    6.1260   -0.3260    0.2770 C   0  0  0  0  0  0  0  0  0  0  0  0
    7.5540   -0.6290    0.2290 C   0  0  0  0  0  0  0  0  0  0  0  0
    8.2910   -0.8360    1.3750 C   0  0  0  0  0  0  0  0  0  0  0  0
    9.6440   -1.1050    1.3350 C   0  0  0  0  0  0  0  0  0  0  0  0
   10.3020   -1.1740    0.1130 C   0  0  0  0  0  0  0  0  0  0  0  0
    9.5600   -0.9670   -1.0260 C   0  0  0  0  0  0  0  0  0  0  0  0
   10.1700   -1.0270   -2.2290 F   0  0  0  0  0  0  0  0  0  0  0  0
    8.2030   -0.6970   -0.9810 C   0  0  0  0  0  0  0  0  0  0  0  0
    5.5680    0.5130   -0.6940 C   0  0  0  0  0  0  0  0  0  0  0  0
    4.2450    0.8050   -0.6250 C   0  0  0  0  0  0  0  0  0  0  0  0
    1.7090    1.9500    0.6020 C   0  0  0  0  0  0  0  0  0  0  0  0
    2.6130    2.8050    0.8210 O   0  0  0  0  0  0  0  0  0  0  0  0
  1  2  1  0
  2  3  1  0
  2 38  1  0
  3  4  2  0
  3  5  1  0
  5  6  2  0
  5  9  1  0
  6  7  1  0
  6 24  1  0
  7  8  2  0
  8  9  1  0
  9 10  1  0
 10 11  1  0
 11 12  1  0
 12 13  1  0
 13 14  1  1
 13 18  1  0
 14 15  1  0
 15 16  1  0
 16 17  1  0
 18 19  1  0
 19 20  1  0
 20 21  1  6
 20 22  1  0
 20 23  1  0
 24 25  1  0
 24 38  1  0
 25 26  2  0
 25 37  1  0
 26 27  1  0
 27 28  2  0
 28 29  1  0
 28 36  1  0
 29 30  2  0
 29 35  1  0
 30 31  1  0
 31 32  2  0
 32 33  1  0
 33 34  1  0
 33 35  2  0
 36 37  2  0
 38 39  2  0
M  END
