
     RDKit          3D

 39 42  0  0  0  0  0  0  0  0999 V2000
   -3.2980    0.1990    3.7820 C   0  0  0  0  0  0  0  0  0  0  0  0
   -3.2390   -0.4550    2.4340 C   0  0  0  0  0  0  0  0  0  0  0  0
   -4.0720    0.3000    1.4040 C   0  0  0  0  0  0  0  0  0  0  0  0
   -3.9340   -0.4560    0.0790 C   0  0  2  0  0  0  0  0  0  0  0  0
   -2.4880   -0.4760   -0.3020 C   0  0  0  0  0  0  0  0  0  0  0  0
   -1.8580   -1.4640   -1.0060 C   0  0  0  0  0  0  0  0  0  0  0  0
   -0.5400   -1.1140   -1.1520 C   0  0  0  0  0  0  0  0  0  0  0  0
   -0.4130    0.0990   -0.5180 C   0  0  0  0  0  0  0  0  0  0  0  0
    0.8720    0.8790   -0.4170 C   0  0  0  0  0  0  0  0  0  0  0  0
    1.5630    0.6320    0.8130 N   0  0  0  0  0  0  0  0  0  0  0  0
    1.3290    1.3220    1.9430 C   0  0  0  0  0  0  0  0  0  0  0  0
    2.1210    0.8460    2.9560 C   0  0  0  0  0  0  0  0  0  0  0  0
    2.8750   -0.1870    2.4160 C   0  0  0  0  0  0  0  0  0  0  0  0
    2.4960   -0.2890    1.0670 C   0  0  0  0  0  0  0  0  0  0  0  0
    3.0890   -1.3160    0.1780 C   0  0  2  0  0  0  0  0  0  0  0  0
    3.6360   -2.4790    0.9620 C   0  0  0  0  0  0  0  0  0  0  0  0
    4.1390   -0.7200   -0.7070 C   0  0  0  0  0  0  0  0  0  0  0  0
    5.2820   -0.1030   -0.0250 C   0  0  0  0  0  0  0  0  0  0  0  0
    5.4340   -0.0680    1.2170 O   0  0  0  0  0  0  0  0  0  0  0  0
    6.3370    0.5230   -0.7910 N   0  0  0  0  0  0  0  0  0  0  0  0
    6.2250    0.5190   -2.2280 C   0  0  0  0  0  0  0  0  0  0  0  0
    7.4360    1.1140   -0.1010 C   0  0  0  0  0  0  0  0  0  0  0  0
    7.2250    2.5700    0.2420 C   0  0  1  0  0  0  0  0  0  0  0  0
    7.0230    3.3580   -0.8620 F   0  0  0  0  0  0  0  0  0  0  0  0
    6.1790    2.6800    1.1580 F   0  0  0  0  0  0  0  0  0  0  0  0
    8.3980    3.0050    0.8540 F   0  0  0  0  0  0  0  0  0  0  0  0
   -1.5900    0.4310   -0.0340 O   0  0  0  0  0  0  0  0  0  0  0  0
   -4.7390    0.1750   -0.9350 N   0  0  0  0  0  0  0  0  0  0  0  0
   -4.5880    1.4220   -1.4150 C   0  0  0  0  0  0  0  0  0  0  0  0
   -3.3150    2.5540   -0.8570 S   0  0  0  0  0  0  0  0  0  0  0  0
   -5.5350    1.6330   -2.3470 N   0  0  0  0  0  0  0  0  0  0  0  0
   -6.2920    0.5130   -2.4590 C   0  0  0  0  0  0  0  0  0  0  0  0
   -7.3710    0.1810   -3.2410 C   0  0  0  0  0  0  0  0  0  0  0  0
   -7.9290   -1.0660   -3.1160 C   0  0  0  0  0  0  0  0  0  0  0  0
   -9.0030   -1.4170   -3.8840 F   0  0  0  0  0  0  0  0  0  0  0  0
   -7.4410   -2.0020   -2.2300 C   0  0  0  0  0  0  0  0  0  0  0  0
   -8.0280   -3.2400   -2.1350 F   0  0  0  0  0  0  0  0  0  0  0  0
   -6.3630   -1.6580   -1.4550 C   0  0  0  0  0  0  0  0  0  0  0  0
   -5.7970   -0.4130   -1.5720 C   0  0  0  0  0  0  0  0  0  0  0  0
  1  2  1  0
  2  3  1  0
  4  3  1  1
  4  5  1  0
  4 28  1  0
  5  6  2  0
  5 27  1  0
  6  7  1  0
  7  8  2  0
  8  9  1  0
  8 27  1  0
  9 10  1  0
 10 11  1  0
 10 14  1  0
 11 12  2  0
 12 13  1  0
 13 14  2  0
 14 15  1  0
 15 16  1  1
 15 17  1  0
 17 18  1  0
 18 19  2  0
 18 20  1  0
 20 21  1  0
 20 22  1  0
 22 23  1  0
 23 24  1  6
 23 25  1  0
 23 26  1  0
 28 29  1  0
 28 39  1  0
 29 30  1  0
 29 31  2  0
 31 32  1  0
 32 33  2  0
 32 39  1  0
 33 34  1  0
 34 35  1  0
 34 36  2  0
 36 37  1  0
 36 38  1  0
 38 39  2  0
M  END
