
     RDKit          3D

 39 42  0  0  0  0  0  0  0  0999 V2000
    7.6250   -1.2710   -2.1090 O   0  0  0  0  0  0  0  0  0  0  0  0
    7.3080   -0.9700   -0.9220 C   0  0  0  0  0  0  0  0  0  0  0  0
    8.3500   -0.7370   -0.0170 N   0  0  0  0  0  0  0  0  0  0  0  0
    9.7600   -0.8200   -0.3670 C   0  0  0  0  0  0  0  0  0  0  0  0
   10.6470   -0.5230    0.8020 C   0  0  1  0  0  0  0  0  0  0  0  0
   10.3640   -1.4600    1.7860 F   0  0  0  0  0  0  0  0  0  0  0  0
   11.9560   -0.5930    0.3870 F   0  0  0  0  0  0  0  0  0  0  0  0
    5.8820   -0.8950   -0.6040 C   0  0  0  0  0  0  0  0  0  0  0  0
    4.9180   -1.2310   -1.5320 C   0  0  0  0  0  0  0  0  0  0  0  0
    3.5740   -1.1610   -1.2420 C   0  0  0  0  0  0  0  0  0  0  0  0
    3.1170   -0.7490   -0.0070 C   0  0  0  0  0  0  0  0  0  0  0  0
    1.6360   -0.6840    0.2750 C   0  0  1  0  0  0  0  0  0  0  0  0
    1.4050    0.1500    1.4750 C   0  0  0  0  0  0  0  0  0  0  0  0
   -0.0190    0.3860    1.7300 N   0  0  0  0  0  0  0  0  0  0  0  0
   -0.5630   -0.8860    2.1030 C   0  0  0  0  0  0  0  0  0  0  0  0
   -1.8960   -0.8850    2.7110 C   0  0  0  0  0  0  0  0  0  0  0  0
   -2.9720   -0.3580    1.8830 C   0  0  0  0  0  0  0  0  0  0  0  0
   -3.7800   -0.7390    1.0240 N   0  0  0  0  0  0  0  0  0  0  0  0
   -4.7200   -0.1280    0.4130 C   0  0  0  0  0  0  0  0  0  0  0  0
   -5.6220   -0.7180   -0.6340 C   0  0  0  0  0  0  0  0  0  0  0  0
   -6.9770   -0.6120   -0.5570 C   0  0  0  0  0  0  0  0  0  0  0  0
   -7.8120   -1.1480   -1.5450 C   0  0  0  0  0  0  0  0  0  0  0  0
   -7.2420   -1.8030   -2.6250 C   0  0  0  0  0  0  0  0  0  0  0  0
   -8.0670   -2.3200   -3.5780 F   0  0  0  0  0  0  0  0  0  0  0  0
   -5.8800   -1.9140   -2.7090 C   0  0  0  0  0  0  0  0  0  0  0  0
   -5.0620   -1.3680   -1.7050 C   0  0  0  0  0  0  0  0  0  0  0  0
   -4.8820    1.2570    0.7750 C   0  0  0  0  0  0  0  0  0  0  0  0
   -5.6800    2.2070    0.3860 N   0  0  0  0  0  0  0  0  0  0  0  0
   -6.7370    2.6870    0.0110 C   0  0  0  0  0  0  0  0  0  0  0  0
   -6.8170    4.1420   -0.2750 C   0  0  0  0  0  0  0  0  0  0  0  0
   -7.9400    4.6650   -0.6760 C   0  0  0  0  0  0  0  0  0  0  0  0
   -9.0780    3.9530   -0.8580 F   0  0  0  0  0  0  0  0  0  0  0  0
   -8.0020    5.9910   -0.9330 F   0  0  0  0  0  0  0  0  0  0  0  0
   -3.5340    1.4250    2.0370 S   0  0  0  0  0  0  0  0  0  0  0  0
   -0.6210    0.9540    0.5570 C   0  0  0  0  0  0  0  0  0  0  0  0
    0.4210    1.0970   -0.5370 C   0  0  0  0  0  0  0  0  0  0  0  0
    1.0510   -0.0800   -0.8200 O   0  0  0  0  0  0  0  0  0  0  0  0
    4.0650   -0.4100    0.9290 C   0  0  0  0  0  0  0  0  0  0  0  0
    5.4310   -0.4830    0.6310 C   0  0  0  0  0  0  0  0  0  0  0  0
  1  2  2  0
  2  3  1  0
  2  8  1  0
  3  4  1  0
  4  5  1  0
  5  6  1  1
  5  7  1  0
  8  9  2  0
  8 39  1  0
  9 10  1  0
 10 11  2  0
 12 11  1  6
 11 38  1  0
 12 13  1  0
 12 37  1  0
 13 14  1  0
 14 15  1  0
 14 35  1  0
 15 16  1  0
 16 17  1  0
 17 18  2  0
 17 34  1  0
 18 19  1  0
 19 20  1  0
 19 27  2  0
 20 21  2  0
 20 26  1  0
 21 22  1  0
 22 23  2  0
 23 24  1  0
 23 25  1  0
 25 26  2  0
 27 28  1  0
 27 34  1  0
 28 29  2  3
 29 30  1  0
 30 31  2  3
 31 32  1  0
 31 33  1  0
 35 36  1  0
 36 37  1  0
 38 39  2  0
M  END
