
     RDKit          3D

 39 42  0  0  0  0  0  0  0  0999 V2000
    0.0930    2.7710    0.1170 O   0  0  0  0  0  0  0  0  0  0  0  0
    0.9450    1.7380    0.8420 S   0  0  1  0  0  0  0  0  0  0  0  0
    2.2130    1.5930    0.0960 O   0  0  0  0  0  0  0  0  0  0  0  0
    1.3480    2.5370    2.3990 C   0  0  0  0  0  0  0  0  0  0  0  0
    2.1110    3.7860    2.1470 C   0  0  0  0  0  0  0  0  0  0  0  0
    1.4800    5.0100    1.9750 C   0  0  0  0  0  0  0  0  0  0  0  0
    2.1830    6.1680    1.7430 C   0  0  0  0  0  0  0  0  0  0  0  0
    3.5530    6.0890    1.6830 C   0  0  0  0  0  0  0  0  0  0  0  0
    4.2090    4.8950    1.8480 C   0  0  0  0  0  0  0  0  0  0  0  0
    5.5740    4.8520    1.7830 F   0  0  0  0  0  0  0  0  0  0  0  0
    3.4980    3.7440    2.0790 C   0  0  0  0  0  0  0  0  0  0  0  0
    0.0670    0.2960    1.1060 N   0  0  0  0  0  0  0  0  0  0  0  0
   -1.2890    0.1690    0.6540 C   0  0  0  0  0  0  0  0  0  0  0  0
   -1.5650   -0.4570   -0.6590 C   0  0  2  0  0  0  0  0  0  0  0  0
   -0.9860    0.2740   -1.8030 C   0  0  0  0  0  0  0  0  0  0  0  0
   -2.0480    1.3050   -2.1310 C   0  0  0  0  0  0  0  0  0  0  0  0
   -3.2550    0.9220   -1.3180 C   0  0  0  0  0  0  0  0  0  0  0  0
   -3.0040   -0.4300   -0.9190 N   0  0  0  0  0  0  0  0  0  0  0  0
   -3.3610   -1.3680   -1.9340 C   0  0  0  0  0  0  0  0  0  0  0  0
   -4.8180   -1.4110   -2.1340 C   0  0  0  0  0  0  0  0  0  0  0  0
   -5.4030   -1.1330   -3.2900 C   0  0  0  0  0  0  0  0  0  0  0  0
   -4.6150   -0.7920   -4.3400 F   0  0  0  0  0  0  0  0  0  0  0  0
   -5.6950   -1.7830   -0.9920 C   0  0  1  0  0  0  0  0  0  0  0  0
   -7.0290   -1.7700   -1.3500 F   0  0  0  0  0  0  0  0  0  0  0  0
   -5.3270   -3.0800   -0.6100 F   0  0  0  0  0  0  0  0  0  0  0  0
   -5.4690   -0.8820    0.0290 F   0  0  0  0  0  0  0  0  0  0  0  0
    0.5870   -0.8060    1.8430 C   0  0  0  0  0  0  0  0  0  0  0  0
    0.3460   -0.8920    3.2190 C   0  0  0  0  0  0  0  0  0  0  0  0
    0.7810   -1.9330    4.0000 C   0  0  0  0  0  0  0  0  0  0  0  0
    1.4880   -2.9390    3.4030 C   0  0  0  0  0  0  0  0  0  0  0  0
    1.7500   -2.8930    2.0460 C   0  0  0  0  0  0  0  0  0  0  0  0
    1.2990   -1.8210    1.2540 C   0  0  0  0  0  0  0  0  0  0  0  0
    1.5760   -1.7180   -0.1130 N   0  0  0  0  0  0  0  0  0  0  0  0
    2.2160   -2.6980   -0.8860 C   0  0  0  0  0  0  0  0  0  0  0  0
    2.4610   -2.4680   -2.2630 C   0  0  0  0  0  0  0  0  0  0  0  0
    3.0690   -3.3650   -3.0800 C   0  0  0  0  0  0  0  0  0  0  0  0
    3.4870   -4.5700   -2.6050 C   0  0  0  0  0  0  0  0  0  0  0  0
    3.2540   -4.8100   -1.2590 C   0  0  0  0  0  0  0  0  0  0  0  0
    2.6510   -3.8980   -0.4850 N   0  0  0  0  0  0  0  0  0  0  0  0
  1  2  2  0
  2  3  2  0
  2  4  1  1
  2 12  1  0
  4  5  1  0
  5  6  2  0
  5 11  1  0
  6  7  1  0
  7  8  2  0
  8  9  1  0
  9 10  1  0
  9 11  2  0
 12 13  1  0
 12 27  1  0
 14 13  1  1
 14 15  1  0
 14 18  1  0
 15 16  1  0
 16 17  1  0
 17 18  1  0
 18 19  1  0
 19 20  1  0
 20 21  2  3
 20 23  1  0
 21 22  1  0
 23 24  1  6
 23 25  1  0
 23 26  1  0
 27 28  2  0
 27 32  1  0
 28 29  1  0
 29 30  2  0
 30 31  1  0
 31 32  2  0
 32 33  1  0
 33 34  1  0
 34 35  2  0
 34 39  1  0
 35 36  1  0
 36 37  2  0
 37 38  1  0
 38 39  2  0
M  END
