
     RDKit          3D

 39 42  0  0  0  0  0  0  0  0999 V2000
   -5.1700   -0.1610    3.9710 C   0  0  0  0  0  0  0  0  0  0  0  0
   -5.5810    0.4420    2.8450 C   0  0  0  0  0  0  0  0  0  0  0  0
   -4.8480    0.1920    1.6410 C   0  0  0  0  0  0  0  0  0  0  0  0
   -5.0060    0.6100    0.4350 C   0  0  0  0  0  0  0  0  0  0  0  0
   -6.0280    1.4820    0.0090 N   0  0  0  0  0  0  0  0  0  0  0  0
   -6.6240    1.3490   -1.2970 C   0  0  0  0  0  0  0  0  0  0  0  0
   -6.1470    0.1170   -1.9820 C   0  0  1  0  0  0  0  0  0  0  0  0
   -6.6430    0.0240   -3.4080 C   0  0  0  0  0  0  0  0  0  0  0  0
   -4.6170    0.1200   -2.0470 C   0  0  0  0  0  0  0  0  0  0  0  0
   -4.0820    0.1790   -0.6460 C   0  0  0  0  0  0  0  0  0  0  0  0
   -2.8370   -0.1440   -0.4310 C   0  0  0  0  0  0  0  0  0  0  0  0
   -1.9690   -0.5580   -1.5100 C   0  0  0  0  0  0  0  0  0  0  0  0
   -0.7100   -0.8890   -1.3190 C   0  0  0  0  0  0  0  0  0  0  0  0
   -0.1800   -0.8250    0.0770 C   0  0  0  0  0  0  0  0  0  0  0  0
    1.2640   -1.0410   -0.0210 N   0  0  0  0  0  0  0  0  0  0  0  0
    2.1770   -0.1510    0.5590 C   0  0  0  0  0  0  0  0  0  0  0  0
    1.8710    1.0690    0.7650 O   0  0  0  0  0  0  0  0  0  0  0  0
    3.5190   -0.5720    0.9560 C   0  0  2  0  0  0  0  0  0  0  0  0
    3.6250   -0.4100    2.4630 C   0  0  0  0  0  0  0  0  0  0  0  0
    4.6010    0.3040    0.3150 C   0  0  0  0  0  0  0  0  0  0  0  0
    5.8900   -0.1960    0.7720 N   0  0  0  0  0  0  0  0  0  0  0  0
    7.1130    0.3930    0.3580 C   0  0  0  0  0  0  0  0  0  0  0  0
    7.0920    1.4700   -0.5040 C   0  0  0  0  0  0  0  0  0  0  0  0
    8.2860    2.0650   -0.9260 C   0  0  0  0  0  0  0  0  0  0  0  0
    8.2890    3.1210   -1.7710 F   0  0  0  0  0  0  0  0  0  0  0  0
    9.4920    1.5710   -0.4760 C   0  0  0  0  0  0  0  0  0  0  0  0
    9.4910    0.4770    0.3990 C   0  0  0  0  0  0  0  0  0  0  0  0
   10.6650   -0.0030    0.8370 F   0  0  0  0  0  0  0  0  0  0  0  0
    8.3070   -0.1070    0.8120 C   0  0  0  0  0  0  0  0  0  0  0  0
    8.4120   -1.4690    1.9060 Cl  0  0  0  0  0  0  0  0  0  0  0  0
    3.8430   -1.9290    0.5630 N   0  0  0  0  0  0  0  0  0  0  0  0
    3.1260   -2.4870   -0.5310 C   0  0  0  0  0  0  0  0  0  0  0  0
    3.7560   -3.2560   -1.3330 O   0  0  0  0  0  0  0  0  0  0  0  0
    1.7100   -2.1960   -0.7410 C   0  0  2  0  0  0  0  0  0  0  0  0
    1.3790   -1.9380   -2.1830 C   0  0  0  0  0  0  0  0  0  0  0  0
    2.1340   -2.2510   -3.1270 O   0  0  0  0  0  0  0  0  0  0  0  0
    0.1080   -1.2920   -2.4090 N   0  0  0  0  0  0  0  0  0  0  0  0
   -6.7650    1.3010    2.9520 C   0  0  0  0  0  0  0  0  0  0  0  0
   -7.2440    1.2400    4.2670 F   0  0  0  0  0  0  0  0  0  0  0  0
  1  2  2  0
  2  3  1  0
  2 38  1  0
  3  4  2  3
  4  5  1  0
  4 10  1  0
  5  6  1  0
  6  7  1  0
  7  8  1  6
  7  9  1  0
  9 10  1  0
 10 11  2  3
 11 12  1  0
 12 13  2  3
 13 14  1  0
 13 37  1  0
 14 15  1  0
 15 16  1  0
 15 34  1  0
 16 17  2  0
 16 18  1  0
 18 19  1  1
 18 20  1  0
 18 31  1  0
 20 21  1  0
 21 22  1  0
 22 23  2  0
 22 29  1  0
 23 24  1  0
 24 25  1  0
 24 26  2  0
 26 27  1  0
 27 28  1  0
 27 29  2  0
 29 30  1  0
 31 32  1  0
 32 33  2  0
 34 32  1  6
 34 35  1  0
 35 36  2  0
 35 37  1  0
 38 39  1  0
M  END
