
     RDKit          3D

 14 15  0  0  0  0  0  0  0  0999 V2000
   -2.0010   -1.9520    1.7300 C   0  0  0  0  0  0  0  0  0  0  0  0
   -0.9250   -1.4140    1.0260 O   0  0  0  0  0  0  0  0  0  0  0  0
   -1.0220   -0.2740    0.2530 C   0  0  0  0  0  0  0  0  0  0  0  0
   -2.1710    0.4680    0.0770 C   0  0  0  0  0  0  0  0  0  0  0  0
   -1.9100    1.4910   -0.7220 N   0  0  0  0  0  0  0  0  0  0  0  0
   -2.7800    2.5510   -1.2060 C   0  0  0  0  0  0  0  0  0  0  0  0
   -0.6410    1.4110   -1.0500 N   0  0  0  0  0  0  0  0  0  0  0  0
   -0.0390    0.3340   -0.4740 C   0  0  0  0  0  0  0  0  0  0  0  0
    1.3620   -0.0380   -0.6360 C   0  0  0  0  0  0  0  0  0  0  0  0
    1.8670   -1.0890   -0.0480 C   0  0  0  0  0  0  0  0  0  0  0  0
    3.3070   -1.5030   -0.1920 C   0  0  0  0  0  0  0  0  0  0  0  0
    4.0130   -0.6340   -1.0180 O   0  0  0  0  0  0  0  0  0  0  0  0
    3.4810    0.4770   -1.6390 C   0  0  0  0  0  0  0  0  0  0  0  0
    2.2080    0.7860   -1.4720 C   0  0  0  0  0  0  0  0  0  0  0  0
  1  2  1  0
  2  3  1  0
  3  4  2  0
  3  8  1  0
  4  5  1  0
  5  6  1  0
  5  7  1  0
  7  8  2  0
  8  9  1  0
  9 10  2  0
  9 14  1  0
 10 11  1  0
 11 12  1  0
 12 13  1  0
 13 14  2  0
M  END
