
     RDKit          3D

 12 12  0  0  0  0  0  0  0  0999 V2000
    2.8660    0.0080    1.2470 O   0  0  0  0  0  0  0  0  0  0  0  0
    2.6690    0.9170    0.2170 C   0  0  0  0  0  0  0  0  0  0  0  0
    1.8010    0.4210   -0.7660 O   0  0  0  0  0  0  0  0  0  0  0  0
    0.5930    0.1560   -0.1610 C   0  0  1  0  0  0  0  0  0  0  0  0
   -0.5410    0.9970   -0.7450 C   0  0  0  0  0  0  0  0  0  0  0  0
   -1.8130    0.5670   -0.1240 C   0  0  1  0  0  0  0  0  0  0  0  0
   -2.7830    0.3940   -1.1390 O   0  0  0  0  0  0  0  0  0  0  0  0
   -1.7800   -0.6130    0.7490 C   0  0  2  0  0  0  0  0  0  0  0  0
   -1.7130   -0.2030    2.1020 O   0  0  0  0  0  0  0  0  0  0  0  0
   -0.8210   -1.5450    0.5510 O   0  0  0  0  0  0  0  0  0  0  0  0
    0.1320   -1.2740   -0.3800 C   0  0  2  0  0  0  0  0  0  0  0  0
    1.1660   -2.1770   -0.3280 O   0  0  0  0  0  0  0  0  0  0  0  0
  1  2  1  0
  2  3  1  0
  4  3  1  6
  4  5  1  0
  4 11  1  0
  5  6  1  0
  6  7  1  6
  6  8  1  0
  8  9  1  1
  8 10  1  0
 10 11  1  0
 11 12  1  1
M  END
