
     RDKit          3D

 14 15  0  0  0  0  0  0  0  0999 V2000
    0.3150    0.2240    0.5690 O   0  0  0  0  0  0  0  0  0  0  0  0
    0.2970   -0.3780   -0.5410 C   0  0  0  0  0  0  0  0  0  0  0  0
    1.5600   -0.8420   -1.1600 C   0  0  0  0  0  0  0  0  0  0  0  0
    2.6970   -0.4810   -0.2900 C   0  0  0  0  0  0  0  0  0  0  0  0
    3.4000    0.7050   -0.3690 C   0  0  0  0  0  0  0  0  0  0  0  0
    4.3860    0.6800    0.6040 C   0  0  0  0  0  0  0  0  0  0  0  0
    4.2560   -0.4870    1.2260 N   0  0  0  0  0  0  0  0  0  0  0  0
    3.2590   -1.1880    0.7090 N   0  0  0  0  0  0  0  0  0  0  0  0
   -0.9440   -0.5700   -1.1200 O   0  0  0  0  0  0  0  0  0  0  0  0
   -2.1040   -0.1030   -0.4740 C   0  0  0  0  0  0  0  0  0  0  0  0
   -2.8340   -0.7830    0.3900 C   0  0  0  0  0  0  0  0  0  0  0  0
   -3.9650    0.0490    0.8430 C   0  0  0  0  0  0  0  0  0  0  0  0
   -3.7910    1.3090    0.1200 C   0  0  0  0  0  0  0  0  0  0  0  0
   -2.7240    1.2070   -0.6280 C   0  0  0  0  0  0  0  0  0  0  0  0
  1  2  2  0
  2  3  1  0
  2  9  1  0
  3  4  1  0
  4  5  2  0
  4  8  1  0
  5  6  1  0
  6  7  2  0
  7  8  1  0
  9 10  1  0
 10 11  2  0
 10 14  1  0
 11 12  1  0
 12 13  1  0
 13 14  2  0
M  END
