
     RDKit          3D

 14 15  0  0  0  0  0  0  0  0999 V2000
    4.3340    0.8400    0.5990 C   0  0  0  0  0  0  0  0  0  0  0  0
    3.0180    0.2480    0.2470 C   0  0  0  0  0  0  0  0  0  0  0  0
    2.8780   -0.9550   -0.4150 C   0  0  0  0  0  0  0  0  0  0  0  0
    1.6340   -1.4810   -0.7300 C   0  0  0  0  0  0  0  0  0  0  0  0
    0.5080   -0.7640   -0.3590 C   0  0  0  0  0  0  0  0  0  0  0  0
   -0.7380   -1.2920   -0.6750 O   0  0  0  0  0  0  0  0  0  0  0  0
   -1.8870   -0.5650   -0.3000 C   0  0  0  0  0  0  0  0  0  0  0  0
   -2.0130    0.6740   -0.7140 C   0  0  0  0  0  0  0  0  0  0  0  0
   -3.1880    1.4920   -0.3600 C   0  0  0  0  0  0  0  0  0  0  0  0
   -4.1010    0.8090    0.4340 O   0  0  0  0  0  0  0  0  0  0  0  0
   -4.0080   -0.4850    0.8890 C   0  0  0  0  0  0  0  0  0  0  0  0
   -2.9170   -1.1630    0.5280 C   0  0  0  0  0  0  0  0  0  0  0  0
    0.6840    0.3910    0.2780 N   0  0  0  0  0  0  0  0  0  0  0  0
    1.8850    0.8940    0.5780 N   0  0  0  0  0  0  0  0  0  0  0  0
  1  2  1  0
  2  3  2  0
  2 14  1  0
  3  4  1  0
  4  5  2  0
  5  6  1  0
  5 13  1  0
  6  7  1  0
  7  8  2  0
  7 12  1  0
  8  9  1  0
  9 10  1  0
 10 11  1  0
 11 12  2  0
 13 14  2  0
M  END
