
     RDKit          3D

 14 15  0  0  0  0  0  0  0  0999 V2000
   -3.0780    0.8970    0.5000 C   0  0  0  0  0  0  0  0  0  0  0  0
   -2.6140   -0.1480    1.4720 C   0  0  0  0  0  0  0  0  0  0  0  0
   -1.7010   -1.0910    0.9110 N   0  0  0  0  0  0  0  0  0  0  0  0
   -0.4390   -0.7920    0.3650 C   0  0  0  0  0  0  0  0  0  0  0  0
    0.3810   -1.7500   -0.1930 C   0  0  0  0  0  0  0  0  0  0  0  0
    1.6280   -1.4210   -0.7250 C   0  0  0  0  0  0  0  0  0  0  0  0
    2.4680   -2.4310   -1.3020 C   0  0  0  0  0  0  0  0  0  0  0  0
    3.1640   -3.2360   -1.7680 N   0  0  0  0  0  0  0  0  0  0  0  0
    2.0300   -0.1030   -0.6800 C   0  0  0  0  0  0  0  0  0  0  0  0
    1.2410    0.8810   -0.1310 C   0  0  0  0  0  0  0  0  0  0  0  0
   -0.0030    0.5120    0.3920 C   0  0  0  0  0  0  0  0  0  0  0  0
    1.9290    2.0810   -0.2430 O   0  0  0  0  0  0  0  0  0  0  0  0
    3.0200    1.8810   -1.1250 C   0  0  0  0  0  0  0  0  0  0  0  0
    3.2150    0.4820   -1.1370 O   0  0  0  0  0  0  0  0  0  0  0  0
  1  2  1  0
  2  3  1  0
  3  4  1  0
  4  5  2  0
  4 11  1  0
  5  6  1  0
  6  7  1  0
  6  9  2  0
  7  8  3  0
  9 10  1  0
  9 14  1  0
 10 11  2  0
 10 12  1  0
 12 13  1  0
 13 14  1  0
M  END
