
     RDKit          3D

 26 27  0  0  0  0  0  0  0  0999 V2000
   -0.5120    2.9730   -0.3190 C   0  0  0  0  0  0  0  0  0  0  0  0
   -0.4770    1.5310    0.1820 C   0  0  2  0  0  0  0  0  0  0  0  0
    0.8500    0.9750   -0.0670 N   0  0  0  0  0  0  0  0  0  0  0  0
    1.6330    0.4320    0.9670 C   0  0  0  0  0  0  0  0  0  0  0  0
    1.1840    0.4230    2.1450 O   0  0  0  0  0  0  0  0  0  0  0  0
    2.9440   -0.1180    0.7250 C   0  0  0  0  0  0  0  0  0  0  0  0
    3.6790   -0.6270    1.6990 C   0  0  0  0  0  0  0  0  0  0  0  0
    4.9940   -1.1750    1.4310 C   0  0  0  0  0  0  0  0  0  0  0  0
    5.6270   -1.2380    0.2030 C   0  0  0  0  0  0  0  0  0  0  0  0
    6.8430   -1.8250    0.4050 C   0  0  0  0  0  0  0  0  0  0  0  0
    6.9200   -2.1060    1.7520 C   0  0  0  0  0  0  0  0  0  0  0  0
    8.0860   -2.7550    2.4120 C   0  0  0  0  0  0  0  0  0  0  0  0
    7.9060   -4.1280    2.3980 F   0  0  0  0  0  0  0  0  0  0  0  0
    5.7990   -1.7000    2.3080 O   0  0  0  0  0  0  0  0  0  0  0  0
   -1.4530    0.7470   -0.6100 C   0  0  0  0  0  0  0  0  0  0  0  0
   -1.0710   -0.1680   -1.3710 O   0  0  0  0  0  0  0  0  0  0  0  0
   -2.8830    1.0050   -0.5360 N   0  0  0  0  0  0  0  0  0  0  0  0
   -3.3020    2.0270    0.3550 C   0  0  0  0  0  0  0  0  0  0  0  0
   -4.5870    2.3060    0.4240 C   0  0  0  0  0  0  0  0  0  0  0  0
   -5.5500    1.5930   -0.3800 C   0  0  0  0  0  0  0  0  0  0  0  0
   -5.1870    0.6400   -1.2070 C   0  0  0  0  0  0  0  0  0  0  0  0
   -6.2370   -0.0590   -2.0140 C   0  0  0  0  0  0  0  0  0  0  0  0
   -5.8430   -1.0810   -2.9000 N   0  0  0  0  0  0  0  0  0  0  0  0
   -7.4460    0.2550   -1.9050 O   0  0  0  0  0  0  0  0  0  0  0  0
   -3.7850    0.2420   -1.3500 C   0  0  2  0  0  0  0  0  0  0  0  0
   -3.7160   -1.2140   -0.8450 C   0  0  0  0  0  0  0  0  0  0  0  0
  2  1  1  6
  2  3  1  0
  2 15  1  0
  3  4  1  0
  4  5  2  0
  4  6  1  0
  6  7  2  3
  7  8  1  0
  8  9  2  0
  8 14  1  0
  9 10  1  0
 10 11  2  0
 11 12  1  0
 11 14  1  0
 12 13  1  0
 15 16  2  0
 15 17  1  0
 17 18  1  0
 17 25  1  0
 18 19  2  0
 19 20  1  0
 20 21  2  0
 21 22  1  0
 21 25  1  0
 22 23  1  0
 22 24  2  0
 25 26  1  1
M  END
