
     RDKit          3D

 26 28  0  0  0  0  0  0  0  0999 V2000
    2.4710   -1.1380    1.6180 O   0  0  0  0  0  0  0  0  0  0  0  0
    2.2130   -1.6080    0.4940 C   0  0  0  0  0  0  0  0  0  0  0  0
    1.0140   -2.4330    0.2220 C   0  0  0  0  0  0  0  0  0  0  0  0
   -0.0570   -2.5130    1.2040 C   0  0  0  0  0  0  0  0  0  0  0  0
   -0.8880   -1.3560    1.5740 C   0  0  1  0  0  0  0  0  0  0  0  0
   -0.3260   -0.1480    2.1940 C   0  0  0  0  0  0  0  0  0  0  0  0
   -0.2340    0.8040    1.0260 C   0  0  0  0  0  0  0  0  0  0  0  0
   -1.4420    0.4090    0.2430 C   0  0  2  0  0  0  0  0  0  0  0  0
   -2.6140    1.2840    0.7200 C   0  0  0  0  0  0  0  0  0  0  0  0
   -3.8180    0.8870   -0.0640 C   0  0  0  0  0  0  0  0  0  0  0  0
   -4.6400   -0.0820    0.3680 N   0  0  0  0  0  0  0  0  0  0  0  0
   -5.7360   -0.4730   -0.3040 C   0  0  0  0  0  0  0  0  0  0  0  0
   -6.0620    0.1290   -1.5020 C   0  0  0  0  0  0  0  0  0  0  0  0
   -7.2020   -0.2690   -2.2120 O   0  0  0  0  0  0  0  0  0  0  0  0
   -5.2200    1.1250   -1.9480 C   0  0  0  0  0  0  0  0  0  0  0  0
   -5.5080    1.6800   -3.0380 O   0  0  0  0  0  0  0  0  0  0  0  0
   -4.1330    1.4820   -1.2380 N   0  0  0  0  0  0  0  0  0  0  0  0
   -1.6530   -0.9050    0.4700 O   0  0  0  0  0  0  0  0  0  0  0  0
    3.1110   -1.3390   -0.5710 N   0  0  0  0  0  0  0  0  0  0  0  0
    4.2920   -0.5840   -0.5150 C   0  0  0  0  0  0  0  0  0  0  0  0
    4.7470    0.0150    0.6230 C   0  0  0  0  0  0  0  0  0  0  0  0
    5.9480    0.7560    0.5780 C   0  0  0  0  0  0  0  0  0  0  0  0
    6.6390    0.8650   -0.5980 C   0  0  0  0  0  0  0  0  0  0  0  0
    6.1820    0.2570   -1.7620 C   0  0  0  0  0  0  0  0  0  0  0  0
    5.0260   -0.4550   -1.7160 C   0  0  0  0  0  0  0  0  0  0  0  0
    4.5780   -1.0510   -2.8580 F   0  0  0  0  0  0  0  0  0  0  0  0
  1  2  2  0
  2  3  1  0
  2 19  1  0
  3  4  1  0
  5  4  1  6
  5  6  1  0
  5 18  1  0
  6  7  1  0
  7  8  1  0
  8  9  1  1
  8 18  1  0
  9 10  1  0
 10 11  2  0
 10 17  1  0
 11 12  1  0
 12 13  2  0
 13 14  1  0
 13 15  1  0
 15 16  2  0
 15 17  1  0
 19 20  1  0
 20 21  2  0
 20 25  1  0
 21 22  1  0
 22 23  2  0
 23 24  1  0
 24 25  2  0
 25 26  1  0
M  END
