
     RDKit          3D

 26 28  0  0  0  0  0  0  0  0999 V2000
   -5.6280    2.2240    3.0560 C   0  0  0  0  0  0  0  0  0  0  0  0
   -5.3710    2.0670    1.5850 C   0  0  0  0  0  0  0  0  0  0  0  0
   -4.3050    0.9990    1.3360 C   0  0  0  0  0  0  0  0  0  0  0  0
   -4.1300    0.9290   -0.1720 C   0  0  2  0  0  0  0  0  0  0  0  0
   -5.3450    0.5810   -0.7310 O   0  0  0  0  0  0  0  0  0  0  0  0
   -5.6140   -0.4700   -1.5690 C   0  0  0  0  0  0  0  0  0  0  0  0
   -6.7870   -0.6550   -1.9960 O   0  0  0  0  0  0  0  0  0  0  0  0
   -4.5530   -1.3250   -1.9330 N   0  0  0  0  0  0  0  0  0  0  0  0
   -3.2540   -1.0250   -1.3900 C   0  0  0  0  0  0  0  0  0  0  0  0
   -2.2130   -1.8420   -1.7320 C   0  0  0  0  0  0  0  0  0  0  0  0
   -0.9170   -1.6070   -1.2390 C   0  0  0  0  0  0  0  0  0  0  0  0
   -0.6640   -0.5590   -0.4070 C   0  0  0  0  0  0  0  0  0  0  0  0
    0.6150   -0.2960    0.0920 N   0  0  0  0  0  0  0  0  0  0  0  0
    1.8360   -0.9250   -0.2270 C   0  0  0  0  0  0  0  0  0  0  0  0
    1.8440   -1.8470   -1.0640 O   0  0  0  0  0  0  0  0  0  0  0  0
    3.0780   -0.5290    0.3920 N   0  0  0  0  0  0  0  0  0  0  0  0
    4.2750   -1.2340    0.0010 C   0  0  2  0  0  0  0  0  0  0  0  0
    4.7090   -1.9670    1.2920 C   0  0  0  0  0  0  0  0  0  0  0  0
    5.5950   -0.9380    1.9180 C   0  0  0  0  0  0  0  0  0  0  0  0
    5.6480    0.1730    1.0640 O   0  0  0  0  0  0  0  0  0  0  0  0
    5.4840   -0.3960   -0.1930 C   0  0  2  0  0  0  0  0  0  0  0  0
    5.5150    0.5450   -1.3180 C   0  0  0  0  0  0  0  0  0  0  0  0
    4.4510    1.5940   -1.3210 C   0  0  0  0  0  0  0  0  0  0  0  0
    4.5750    2.4400   -2.4330 F   0  0  0  0  0  0  0  0  0  0  0  0
   -1.7320    0.2430   -0.0830 C   0  0  0  0  0  0  0  0  0  0  0  0
   -3.0140    0.0370   -0.5510 C   0  0  0  0  0  0  0  0  0  0  0  0
  1  2  1  0
  2  3  1  0
  4  3  1  1
  4  5  1  0
  4 26  1  0
  5  6  1  0
  6  7  2  0
  6  8  1  0
  8  9  1  0
  9 10  2  0
  9 26  1  0
 10 11  1  0
 11 12  2  0
 12 13  1  0
 12 25  1  0
 13 14  1  0
 14 15  2  0
 14 16  1  0
 17 16  1  1
 17 18  1  0
 17 21  1  0
 18 19  1  0
 19 20  1  0
 20 21  1  0
 21 22  1  6
 22 23  1  0
 23 24  1  0
 25 26  2  0
M  END
