
     RDKit          3D

 26 28  0  0  0  0  0  0  0  0999 V2000
   -1.6960   -2.6590    0.5390 O   0  0  0  0  0  0  0  0  0  0  0  0
   -0.9390   -1.6810    0.6440 C   0  0  0  0  0  0  0  0  0  0  0  0
    0.5460   -1.8730    0.3480 C   0  0  0  0  0  0  0  0  0  0  0  0
    1.1770   -0.6540    0.5290 O   0  0  0  0  0  0  0  0  0  0  0  0
    2.5350   -0.5370    0.3280 C   0  0  0  0  0  0  0  0  0  0  0  0
    3.2490   -1.6450   -0.0550 C   0  0  0  0  0  0  0  0  0  0  0  0
    4.5620   -1.5480   -0.2540 N   0  0  0  0  0  0  0  0  0  0  0  0
    5.2250   -0.3920   -0.0920 C   0  0  0  0  0  0  0  0  0  0  0  0
    6.7010   -0.3860   -0.3330 C   0  0  0  0  0  0  0  0  0  0  0  0
    7.3280    0.9620   -0.1670 C   0  0  0  0  0  0  0  0  0  0  0  0
    6.7940    1.8780   -1.0650 O   0  0  0  0  0  0  0  0  0  0  0  0
    4.5410    0.6980    0.2810 N   0  0  0  0  0  0  0  0  0  0  0  0
    3.2080    0.6510    0.4950 C   0  0  0  0  0  0  0  0  0  0  0  0
    2.5910    1.7130    0.8510 O   0  0  0  0  0  0  0  0  0  0  0  0
   -1.4010   -0.4160    1.0230 N   0  0  0  0  0  0  0  0  0  0  0  0
   -2.7260   -0.0200    1.2980 C   0  0  0  0  0  0  0  0  0  0  0  0
   -3.6540    0.1250    0.1260 C   0  0  1  0  0  0  0  0  0  0  0  0
   -3.9830   -0.9940   -0.7210 C   0  0  0  0  0  0  0  0  0  0  0  0
   -5.4500   -1.3760   -0.7750 C   0  0  0  0  0  0  0  0  0  0  0  0
   -6.4090   -0.7060   -0.2180 C   0  0  0  0  0  0  0  0  0  0  0  0
   -6.0900    0.4870    0.5280 C   0  0  0  0  0  0  0  0  0  0  0  0
   -4.8750    0.8650    0.6680 C   0  0  0  0  0  0  0  0  0  0  0  0
   -4.2390    2.0950    1.2010 C   0  0  0  0  0  0  0  0  0  0  0  0
   -4.6410    2.7950    2.2560 F   0  0  0  0  0  0  0  0  0  0  0  0
   -3.2020    2.3800    0.3910 C   0  0  0  0  0  0  0  0  0  0  0  0
   -3.1260    1.3500   -0.6980 C   0  0  0  0  0  0  0  0  0  0  0  0
  1  2  2  0
  2  3  1  0
  2 15  1  0
  3  4  1  0
  4  5  1  0
  5  6  2  0
  5 13  1  0
  6  7  1  0
  7  8  2  0
  8  9  1  0
  8 12  1  0
  9 10  1  0
 10 11  1  0
 12 13  1  0
 13 14  2  0
 15 16  1  0
 17 16  1  1
 17 18  1  0
 17 22  1  0
 17 26  1  0
 18 19  1  0
 19 20  2  0
 20 21  1  0
 21 22  2  0
 22 23  1  0
 23 24  1  0
 23 25  2  0
 25 26  1  0
M  END
