
     RDKit          3D

 26 28  0  0  0  0  0  0  0  0999 V2000
   -0.1340    1.7450    0.2270 O   0  0  0  0  0  0  0  0  0  0  0  0
   -0.1770    0.6620   -0.4190 C   0  0  0  0  0  0  0  0  0  0  0  0
    1.0080   -0.1320   -0.5520 N   0  0  0  0  0  0  0  0  0  0  0  0
    2.2020    0.3780    0.0800 C   0  0  0  0  0  0  0  0  0  0  0  0
    3.3680   -0.4890   -0.1000 C   0  0  0  0  0  0  0  0  0  0  0  0
    3.3750   -1.6690   -0.8110 C   0  0  0  0  0  0  0  0  0  0  0  0
    4.6570   -2.1900   -0.7480 C   0  0  0  0  0  0  0  0  0  0  0  0
    5.3850   -1.2940    0.0070 C   0  0  0  0  0  0  0  0  0  0  0  0
    6.8050   -1.4220    0.3480 C   0  0  0  0  0  0  0  0  0  0  0  0
    7.5530   -0.5460    1.0980 C   0  0  0  0  0  0  0  0  0  0  0  0
    8.8430   -1.0510    1.1730 C   0  0  0  0  0  0  0  0  0  0  0  0
    8.8000   -2.2290    0.4470 C   0  0  0  0  0  0  0  0  0  0  0  0
    7.5800   -2.3890   -0.0090 O   0  0  0  0  0  0  0  0  0  0  0  0
    4.5770   -0.3190    0.3590 O   0  0  0  0  0  0  0  0  0  0  0  0
   -1.4130    0.2930   -0.9810 N   0  0  0  0  0  0  0  0  0  0  0  0
   -2.6140    1.1090   -0.8360 C   0  0  1  0  0  0  0  0  0  0  0  0
   -3.0270    1.7060   -2.1650 C   0  0  0  0  0  0  0  0  0  0  0  0
   -4.0390    0.8370   -2.8810 C   0  0  0  0  0  0  0  0  0  0  0  0
   -5.3050    0.6900   -2.0660 C   0  0  0  0  0  0  0  0  0  0  0  0
   -5.0350    1.0130   -0.6030 C   0  0  0  0  0  0  0  0  0  0  0  0
   -3.7200    0.3780   -0.1550 C   0  0  2  0  0  0  0  0  0  0  0  0
   -3.6600    0.5860    1.3130 C   0  0  0  0  0  0  0  0  0  0  0  0
   -2.7570    1.3090    1.7980 O   0  0  0  0  0  0  0  0  0  0  0  0
   -4.5900   -0.0030    2.2100 N   0  0  0  0  0  0  0  0  0  0  0  0
   -4.5060    0.2190    3.6550 C   0  0  0  0  0  0  0  0  0  0  0  0
   -5.5020   -0.4460    4.3160 F   0  0  0  0  0  0  0  0  0  0  0  0
  1  2  2  0
  2  3  1  0
  2 15  1  0
  3  4  1  0
  4  5  1  0
  5  6  2  0
  5 14  1  0
  6  7  1  0
  7  8  2  0
  8  9  1  0
  8 14  1  0
  9 10  2  0
  9 13  1  0
 10 11  1  0
 11 12  2  0
 12 13  1  0
 16 15  1  6
 16 17  1  0
 16 21  1  0
 17 18  1  0
 18 19  1  0
 19 20  1  0
 20 21  1  0
 21 22  1  1
 22 23  2  0
 22 24  1  0
 24 25  1  0
 25 26  1  0
M  END
