
     RDKit          3D

 18 19  0  0  0  0  0  0  0  0999 V2000
   -3.3960   -1.5470    1.4350 C   0  0  0  0  0  0  0  0  0  0  0  0
   -2.5840   -0.4180    0.9940 N   0  0  2  0  0  0  0  0  0  0  0  0
   -3.0630    0.1580   -0.2250 C   0  0  0  0  0  0  0  0  0  0  0  0
   -1.8520    0.5420   -0.9750 C   0  0  0  0  0  0  0  0  0  0  0  0
   -0.7690   -0.0730   -0.3980 C   0  0  0  0  0  0  0  0  0  0  0  0
    0.4940    0.0930   -0.8760 N   0  0  0  0  0  0  0  0  0  0  0  0
    1.5770   -0.5740   -0.2290 C   0  0  0  0  0  0  0  0  0  0  0  0
    2.2380    0.1800    0.8650 C   0  0  2  0  0  0  0  0  0  0  0  0
    2.8140    1.4370    0.4420 N   0  0  0  0  0  0  0  0  0  0  0  0
    3.3760   -0.6690    1.3650 C   0  0  0  0  0  0  0  0  0  0  0  0
    3.1720   -1.8340    1.8030 O   0  0  0  0  0  0  0  0  0  0  0  0
    4.6880   -0.2200    1.3690 O   0  0  0  0  0  0  0  0  0  0  0  0
    0.6450    0.8910   -1.9460 C   0  0  0  0  0  0  0  0  0  0  0  0
    1.7970    1.0890   -2.4420 O   0  0  0  0  0  0  0  0  0  0  0  0
   -0.3830    1.5140   -2.5450 N   0  0  0  0  0  0  0  0  0  0  0  0
   -1.6360    1.3630   -2.0890 C   0  0  0  0  0  0  0  0  0  0  0  0
   -2.6320    1.9190   -2.6060 O   0  0  0  0  0  0  0  0  0  0  0  0
   -1.2320   -0.8720    0.7340 C   0  0  0  0  0  0  0  0  0  0  0  0
  2  1  1  6
  2  3  1  0
  2 18  1  0
  3  4  1  0
  4  5  2  0
  4 16  1  0
  5  6  1  0
  5 18  1  0
  6  7  1  0
  6 13  1  0
  7  8  1  0
  8  9  1  6
  8 10  1  0
 10 11  2  0
 10 12  1  0
 13 14  2  0
 13 15  1  0
 15 16  1  0
 16 17  2  0
M  CHG  2   2   1   9   1
M  END
