
     RDKit          3D

 25 27  0  0  0  0  0  0  0  0999 V2000
   -0.9130   -0.3230    1.9480 O   0  0  0  0  0  0  0  0  0  0  0  0
   -0.7780   -0.5630    0.7270 C   0  0  0  0  0  0  0  0  0  0  0  0
   -1.9320   -0.4870   -0.0910 N   0  0  0  0  0  0  0  0  0  0  0  0
   -3.2470   -0.1550    0.3700 C   0  0  2  0  0  0  0  0  0  0  0  0
   -4.1510   -1.3390    0.0990 C   0  0  0  0  0  0  0  0  0  0  0  0
   -5.1490   -1.0390   -0.9990 C   0  0  0  0  0  0  0  0  0  0  0  0
   -5.9890   -0.0420   -0.5340 O   0  0  0  0  0  0  0  0  0  0  0  0
   -5.3230    1.0610   -0.0460 C   0  0  2  0  0  0  0  0  0  0  0  0
   -5.9810    2.3040   -0.6200 C   0  0  0  0  0  0  0  0  0  0  0  0
   -5.3760    3.4690   -0.1820 O   0  0  0  0  0  0  0  0  0  0  0  0
   -3.8430    1.0360   -0.3280 C   0  0  0  0  0  0  0  0  0  0  0  0
    0.5430   -0.9150    0.1600 C   0  0  0  0  0  0  0  0  0  0  0  0
    1.6620   -0.9900    0.9500 C   0  0  0  0  0  0  0  0  0  0  0  0
    2.9110   -1.3140    0.4600 C   0  0  0  0  0  0  0  0  0  0  0  0
    4.1110   -1.3900    1.3270 C   0  0  2  0  0  0  0  0  0  0  0  0
    3.8890   -2.0660    2.5110 O   0  0  0  0  0  0  0  0  0  0  0  0
    4.7340   -0.0280    1.5480 C   0  0  0  0  0  0  0  0  0  0  0  0
    5.1310    0.5390    0.2910 N   0  0  0  0  0  0  0  0  0  0  0  0
    4.3750    1.3090   -0.4910 C   0  0  0  0  0  0  0  0  0  0  0  0
    5.0830    1.6720   -1.6190 C   0  0  0  0  0  0  0  0  0  0  0  0
    6.3260    1.0910   -1.5060 C   0  0  0  0  0  0  0  0  0  0  0  0
    6.3230    0.3920   -0.3050 C   0  0  0  0  0  0  0  0  0  0  0  0
    2.9810   -1.5670   -0.9050 C   0  0  0  0  0  0  0  0  0  0  0  0
    1.8570   -1.4930   -1.7000 C   0  0  0  0  0  0  0  0  0  0  0  0
    0.6710   -1.1710   -1.1540 N   0  0  0  0  0  0  0  0  0  0  0  0
  1  2  2  0
  2  3  1  0
  2 12  1  0
  4  3  1  6
  4  5  1  0
  4 11  1  0
  5  6  1  0
  6  7  1  0
  7  8  1  0
  8  9  1  6
  8 11  1  0
  9 10  1  0
 12 13  2  0
 12 25  1  0
 13 14  1  0
 14 15  1  0
 14 23  2  0
 15 16  1  1
 15 17  1  0
 17 18  1  0
 18 19  1  0
 18 22  1  0
 19 20  2  0
 20 21  1  0
 21 22  2  0
 23 24  1  0
 24 25  2  0
M  END
