
     RDKit          3D

 26 27  0  0  0  0  0  0  0  0999 V2000
    7.7260   -0.4830    2.7420 C   0  0  0  0  0  0  0  0  0  0  0  0
    8.4120   -0.1860    1.5910 O   0  0  0  0  0  0  0  0  0  0  0  0
    7.8540   -0.7590    0.4740 C   0  0  0  0  0  0  0  0  0  0  0  0
    6.4710   -0.2760    0.2610 C   0  0  0  0  0  0  0  0  0  0  0  0
    5.4750   -0.9590   -0.3790 N   0  0  0  0  0  0  0  0  0  0  0  0
    4.3660   -0.2000   -0.3840 C   0  0  0  0  0  0  0  0  0  0  0  0
    3.0660   -0.5460   -0.9650 C   0  0  0  0  0  0  0  0  0  0  0  0
    2.9340   -1.6610   -1.5280 O   0  0  0  0  0  0  0  0  0  0  0  0
    1.9810    0.2910   -0.9250 O   0  0  0  0  0  0  0  0  0  0  0  0
    0.7190    0.0300   -1.4550 C   0  0  2  0  0  0  0  0  0  0  0  0
    0.4740    1.0660   -2.5610 C   0  0  0  0  0  0  0  0  0  0  0  0
   -0.3590    0.0980   -0.4330 C   0  0  0  0  0  0  0  0  0  0  0  0
   -0.1260    0.3650    0.7800 O   0  0  0  0  0  0  0  0  0  0  0  0
   -1.7150   -0.1380   -0.7760 N   0  0  0  0  0  0  0  0  0  0  0  0
   -2.8020   -0.0870    0.1690 C   0  0  2  0  0  0  0  0  0  0  0  0
   -3.4770   -1.4460    0.3400 C   0  0  0  0  0  0  0  0  0  0  0  0
   -4.4040   -1.3190    1.5280 C   0  0  2  0  0  0  0  0  0  0  0  0
   -4.9840   -2.6780    1.8590 C   0  0  0  0  0  0  0  0  0  0  0  0
   -5.4500   -0.2820    1.3030 C   0  0  0  0  0  0  0  0  0  0  0  0
   -5.2720    0.5450    0.0790 C   0  0  0  0  0  0  0  0  0  0  0  0
   -3.8660    0.8500   -0.2460 C   0  0  0  0  0  0  0  0  0  0  0  0
   -3.5950    1.9500   -0.8960 C   0  0  0  0  0  0  0  0  0  0  0  0
   -4.6480    2.9010   -1.3200 C   0  0  0  0  0  0  0  0  0  0  0  0
   -2.3110    2.2390   -1.1990 F   0  0  0  0  0  0  0  0  0  0  0  0
    4.7210    0.9600    0.2710 C   0  0  0  0  0  0  0  0  0  0  0  0
    6.0130    0.9130    0.6670 N   0  0  0  0  0  0  0  0  0  0  0  0
  1  2  1  0
  2  3  1  0
  3  4  1  0
  4  5  2  0
  4 26  1  0
  5  6  1  0
  6  7  1  0
  6 25  2  0
  7  8  2  0
  7  9  1  0
  9 10  1  0
 10 11  1  6
 10 12  1  0
 12 13  2  0
 12 14  1  0
 15 14  1  6
 15 16  1  0
 15 21  1  0
 16 17  1  0
 17 18  1  6
 17 19  1  0
 19 20  1  0
 20 21  1  0
 21 22  2  3
 22 23  1  0
 22 24  1  0
 25 26  1  0
M  END
