
     RDKit          3D

 26 27  0  0  0  0  0  0  0  0999 V2000
    7.8850    1.8640    0.7320 C   0  0  0  0  0  0  0  0  0  0  0  0
    6.4640    2.1430    0.4250 C   0  0  0  0  0  0  0  0  0  0  0  0
    5.5790    1.1850    0.4360 C   0  0  0  0  0  0  0  0  0  0  0  0
    6.0120   -0.2000    0.7620 C   0  0  0  0  0  0  0  0  0  0  0  0
    4.2260    1.3980    0.1530 O   0  0  0  0  0  0  0  0  0  0  0  0
    3.3240    0.3370    0.0630 C   0  0  2  0  0  0  0  0  0  0  0  0
    3.6840   -0.6610   -1.0160 C   0  0  0  0  0  0  0  0  0  0  0  0
    1.9400    0.8500   -0.2160 C   0  0  0  0  0  0  0  0  0  0  0  0
    1.0010   -0.2430   -0.3110 N   0  0  0  0  0  0  0  0  0  0  0  0
   -0.3800    0.0050   -0.5720 C   0  0  0  0  0  0  0  0  0  0  0  0
   -0.7730    1.1980   -0.7200 O   0  0  0  0  0  0  0  0  0  0  0  0
   -1.2620   -1.1000   -0.6550 N   0  0  0  0  0  0  0  0  0  0  0  0
   -0.8540   -2.4820   -0.5020 C   0  0  0  0  0  0  0  0  0  0  0  0
   -2.0300   -3.2860   -1.0630 C   0  0  1  0  0  0  0  0  0  0  0  0
   -2.0840   -4.5540   -0.5240 O   0  0  0  0  0  0  0  0  0  0  0  0
   -3.1760   -2.4110   -0.6120 C   0  0  0  0  0  0  0  0  0  0  0  0
   -2.6620   -1.0240   -0.9060 C   0  0  1  0  0  0  0  0  0  0  0  0
   -3.3810   -0.0010   -0.1020 C   0  0  0  0  0  0  0  0  0  0  0  0
   -2.8540    0.7300    0.7700 O   0  0  0  0  0  0  0  0  0  0  0  0
   -4.7730    0.1540   -0.3500 N   0  0  0  0  0  0  0  0  0  0  0  0
   -5.5400    1.1120    0.3750 C   0  0  0  0  0  0  0  0  0  0  0  0
   -6.5750    0.7960    1.1330 C   0  0  0  0  0  0  0  0  0  0  0  0
   -7.1570    2.0170    1.7500 C   0  0  0  0  0  0  0  0  0  0  0  0
   -6.2930    3.0880    1.2270 C   0  0  0  0  0  0  0  0  0  0  0  0
   -5.3720    2.5540    0.4410 C   0  0  0  0  0  0  0  0  0  0  0  0
   -4.3910    3.2430   -0.2240 F   0  0  0  0  0  0  0  0  0  0  0  0
  1  2  1  0
  2  3  2  3
  3  4  1  0
  3  5  1  0
  5  6  1  0
  6  7  1  6
  6  8  1  0
  8  9  1  0
  9 10  1  0
 10 11  2  0
 10 12  1  0
 12 13  1  0
 12 17  1  0
 13 14  1  0
 14 15  1  1
 14 16  1  0
 16 17  1  0
 17 18  1  1
 18 19  2  0
 18 20  1  0
 20 21  1  0
 21 22  2  0
 21 25  1  0
 22 23  1  0
 23 24  1  0
 24 25  2  0
 25 26  1  0
M  END
