
     RDKit          3D

 22 24  0  0  0  0  0  0  0  0999 V2000
    4.1130    1.4760   -0.8770 C   0  0  0  0  0  0  0  0  0  0  0  0
    4.2460    0.2330   -1.6750 C   0  0  0  0  0  0  0  0  0  0  0  0
    3.3000   -0.6820   -1.7350 C   0  0  0  0  0  0  0  0  0  0  0  0
    2.0760   -0.5350   -1.0310 N   0  0  0  0  0  0  0  0  0  0  0  0
    1.8580   -0.9430    0.1610 C   0  0  0  0  0  0  0  0  0  0  0  0
    2.9940   -1.6140    0.8200 C   0  0  0  0  0  0  0  0  0  0  0  0
    2.7520   -2.9250    1.1830 O   0  0  0  0  0  0  0  0  0  0  0  0
    0.5520   -0.7290    0.7640 C   0  0  0  0  0  0  0  0  0  0  0  0
    0.2310   -1.1000    2.0520 C   0  0  0  0  0  0  0  0  0  0  0  0
    1.0790   -1.7690    3.0160 N   0  0  0  0  0  0  0  0  0  0  0  0
   -1.0430   -0.7230    2.2680 N   0  0  0  0  0  0  0  0  0  0  0  0
   -1.5120   -0.1370    1.1660 C   0  0  0  0  0  0  0  0  0  0  0  0
   -0.5560   -0.1270    0.2170 N   0  0  0  0  0  0  0  0  0  0  0  0
   -0.5130    0.3220   -1.1600 C   0  0  1  0  0  0  0  0  0  0  0  0
   -0.4680   -0.9320   -2.0850 C   0  0  0  0  0  0  0  0  0  0  0  0
   -1.7360    1.0400   -1.6230 C   0  0  0  0  0  0  0  0  0  0  0  0
   -2.2660    2.1670   -0.8170 C   0  0  0  0  0  0  0  0  0  0  0  0
   -3.2560    1.5370    0.1320 C   0  0  0  0  0  0  0  0  0  0  0  0
   -4.5180    1.8180    0.2910 C   0  0  0  0  0  0  0  0  0  0  0  0
   -5.0880    0.9270    1.3440 C   0  0  0  0  0  0  0  0  0  0  0  0
   -3.9020    0.0990    1.7480 C   0  0  0  0  0  0  0  0  0  0  0  0
   -2.8640    0.4560    1.0450 C   0  0  0  0  0  0  0  0  0  0  0  0
  1  2  1  0
  2  3  2  3
  3  4  1  0
  4  5  2  3
  5  6  1  0
  5  8  1  0
  6  7  1  0
  8  9  2  0
  8 13  1  0
  9 10  1  0
  9 11  1  0
 11 12  2  0
 12 13  1  0
 12 22  1  0
 13 14  1  0
 14 15  1  6
 14 16  1  0
 16 17  1  0
 17 18  1  0
 18 19  2  0
 18 22  1  0
 19 20  1  0
 20 21  1  0
 21 22  2  0
M  END
