
     RDKit          3D

 22 24  0  0  0  0  0  0  0  0999 V2000
   -5.5760    2.0250   -0.2730 C   0  0  0  0  0  0  0  0  0  0  0  0
   -4.1180    1.6540   -0.3900 C   0  0  0  0  0  0  0  0  0  0  0  0
   -3.7640    0.4190   -0.2040 C   0  0  0  0  0  0  0  0  0  0  0  0
   -2.4570   -0.0900   -0.2760 N   0  0  0  0  0  0  0  0  0  0  0  0
   -2.3270   -1.4310   -0.0440 C   0  0  0  0  0  0  0  0  0  0  0  0
   -3.5010   -2.2980    0.2650 C   0  0  0  0  0  0  0  0  0  0  0  0
   -1.1150   -1.9660   -0.0970 N   0  0  0  0  0  0  0  0  0  0  0  0
    0.0080   -1.2830   -0.3660 C   0  0  0  0  0  0  0  0  0  0  0  0
   -0.1030    0.0710   -0.6030 C   0  0  0  0  0  0  0  0  0  0  0  0
   -1.3660    0.6360   -0.5480 C   0  0  0  0  0  0  0  0  0  0  0  0
   -1.4120    1.8620   -0.7700 O   0  0  0  0  0  0  0  0  0  0  0  0
    1.0650    0.8040   -0.8860 N   0  0  0  0  0  0  0  0  0  0  0  0
    2.3940    0.2520   -0.9510 C   0  0  1  0  0  0  0  0  0  0  0  0
    3.3220    0.9190   -0.0140 C   0  0  0  0  0  0  0  0  0  0  0  0
    2.9990    1.2100    1.2900 C   0  0  0  0  0  0  0  0  0  0  0  0
    3.9240    1.8440    2.1280 C   0  0  0  0  0  0  0  0  0  0  0  0
    5.1550    2.1780    1.6480 N   0  0  0  0  0  0  0  0  0  0  0  0
    5.4880    1.9030    0.3810 C   0  0  0  0  0  0  0  0  0  0  0  0
    4.5820    1.2790   -0.4470 C   0  0  0  0  0  0  0  0  0  0  0  0
    2.4130   -1.2020   -0.6840 C   0  0  0  0  0  0  0  0  0  0  0  0
    1.3280   -1.9000   -0.4180 C   0  0  0  0  0  0  0  0  0  0  0  0
    1.4680   -3.3520   -0.1660 C   0  0  0  0  0  0  0  0  0  0  0  0
  1  2  1  0
  2  3  2  3
  3  4  1  0
  4  5  1  0
  4 10  1  0
  5  6  1  0
  5  7  2  0
  7  8  1  0
  8  9  2  0
  8 21  1  0
  9 10  1  0
  9 12  1  0
 10 11  2  0
 12 13  1  0
 13 14  1  1
 13 20  1  0
 14 15  2  0
 14 19  1  0
 15 16  1  0
 16 17  2  0
 17 18  1  0
 18 19  2  0
 20 21  2  0
 21 22  1  0
M  END
