
     RDKit          3D

 22 24  0  0  0  0  0  0  0  0999 V2000
   -5.8680    1.1800    2.7630 C   0  0  0  0  0  0  0  0  0  0  0  0
   -4.5560    1.4820    2.0960 C   0  0  0  0  0  0  0  0  0  0  0  0
   -4.0350    0.5710    1.3210 C   0  0  0  0  0  0  0  0  0  0  0  0
   -4.4670   -0.7240    0.9480 N   0  0  0  0  0  0  0  0  0  0  0  0
   -3.5120   -1.2890    0.0740 C   0  0  0  0  0  0  0  0  0  0  0  0
   -3.6300   -2.6380   -0.5220 C   0  0  0  0  0  0  0  0  0  0  0  0
   -2.4930   -0.4240   -0.1320 C   0  0  0  0  0  0  0  0  0  0  0  0
   -1.3800   -0.7360   -0.9790 C   0  0  0  0  0  0  0  0  0  0  0  0
   -1.3240   -1.8790   -1.5790 O   0  0  0  0  0  0  0  0  0  0  0  0
   -0.3080    0.1160   -1.2260 N   0  0  0  0  0  0  0  0  0  0  0  0
   -0.0760    1.4360   -0.7200 C   0  0  0  0  0  0  0  0  0  0  0  0
    1.2430    1.9340   -1.3200 C   0  0  0  0  0  0  0  0  0  0  0  0
    2.3410    1.0630   -1.0980 N   0  0  0  0  0  0  0  0  0  0  0  0
    3.0240    1.2650    0.1620 C   0  0  0  0  0  0  0  0  0  0  0  0
    4.1400    0.2520    0.1950 C   0  0  0  0  0  0  0  0  0  0  0  0
    4.2600   -0.6830    1.1160 C   0  0  0  0  0  0  0  0  0  0  0  0
    5.4630   -1.4660    0.8090 C   0  0  0  0  0  0  0  0  0  0  0  0
    6.0120   -0.8520   -0.4100 C   0  0  0  0  0  0  0  0  0  0  0  0
    5.2390    0.1370   -0.7520 C   0  0  0  0  0  0  0  0  0  0  0  0
    2.0370   -0.3320   -1.3300 C   0  0  0  0  0  0  0  0  0  0  0  0
    0.7620   -0.3870   -2.1380 C   0  0  0  0  0  0  0  0  0  0  0  0
   -2.7720    0.7370    0.6160 N   0  0  0  0  0  0  0  0  0  0  0  0
  1  2  1  0
  2  3  2  3
  3  4  1  0
  3 22  1  0
  4  5  1  0
  5  6  1  0
  5  7  2  0
  7  8  1  0
  7 22  1  0
  8  9  2  0
  8 10  1  0
 10 11  1  0
 10 21  1  0
 11 12  1  0
 12 13  1  0
 13 14  1  0
 13 20  1  0
 14 15  1  0
 15 16  2  0
 15 19  1  0
 16 17  1  0
 17 18  1  0
 18 19  2  0
 20 21  1  0
M  END
