
     RDKit          3D

 22 23  0  0  0  0  0  0  0  0999 V2000
   -2.8160    3.7650    0.6730 C   0  0  0  0  0  0  0  0  0  0  0  0
   -1.8120    3.3990   -0.0820 C   0  0  0  0  0  0  0  0  0  0  0  0
   -1.3410    2.0100   -0.2420 C   0  0  0  0  0  0  0  0  0  0  0  0
   -0.4010    1.7570   -0.9720 N   0  0  0  0  0  0  0  0  0  0  0  0
    0.4530    0.9090   -1.5340 N   0  0  0  0  0  0  0  0  0  0  0  0
    1.8520    0.6990   -1.2330 C   0  0  0  0  0  0  0  0  0  0  0  0
    2.3710    0.1050   -0.1730 C   0  0  0  0  0  0  0  0  0  0  0  0
    3.8790    0.0670   -0.1710 C   0  0  0  0  0  0  0  0  0  0  0  0
    4.6410   -0.4630    0.7730 C   0  0  0  0  0  0  0  0  0  0  0  0
    6.0770   -0.3250    0.4520 C   0  0  0  0  0  0  0  0  0  0  0  0
    6.0670    0.3750   -0.8310 C   0  0  0  0  0  0  0  0  0  0  0  0
    4.7970    0.5830   -1.1580 C   0  0  0  0  0  0  0  0  0  0  0  0
    1.6780   -0.4760    0.9120 N   0  0  0  0  0  0  0  0  0  0  0  0
    0.8430   -1.6070    1.0600 C   0  0  0  0  0  0  0  0  0  0  0  0
    0.7860   -2.1220    2.3020 O   0  0  0  0  0  0  0  0  0  0  0  0
    0.0530   -2.3180    0.1680 N   0  0  0  0  0  0  0  0  0  0  0  0
   -1.2000   -2.0810   -0.4870 C   0  0  0  0  0  0  0  0  0  0  0  0
   -2.3990   -2.0170    0.4480 C   0  0  0  0  0  0  0  0  0  0  0  0
   -3.4740   -1.1020   -0.0020 C   0  0  1  0  0  0  0  0  0  0  0  0
   -4.5720   -1.1230    1.0390 C   0  0  0  0  0  0  0  0  0  0  0  0
   -3.0710    0.2670   -0.3930 C   0  0  0  0  0  0  0  0  0  0  0  0
   -2.0600    0.9400    0.5050 C   0  0  0  0  0  0  0  0  0  0  0  0
  1  2  2  0
  2  3  1  0
  3  4  2  0
  3 22  1  0
  4  5  1  0
  5  6  1  0
  6  7  2  0
  7  8  1  0
  7 13  1  0
  8  9  2  0
  8 12  1  0
  9 10  1  0
 10 11  1  0
 11 12  2  0
 13 14  1  0
 14 15  2  0
 14 16  1  0
 16 17  1  0
 17 18  1  0
 18 19  1  0
 19 20  1  1
 19 21  1  0
 21 22  1  0
M  END
