
     RDKit          3D

 22 24  0  0  0  0  0  0  0  0999 V2000
    3.3110    2.5470   -1.0290 C   0  0  0  0  0  0  0  0  0  0  0  0
    2.2840    1.7220   -0.2090 C   0  0  0  0  0  0  0  0  0  0  0  0
    2.7900    0.7310    0.5830 C   0  0  0  0  0  0  0  0  0  0  0  0
    2.5860   -0.5540    0.9060 C   0  0  0  0  0  0  0  0  0  0  0  0
    2.9940   -1.7960    0.5300 C   0  0  0  0  0  0  0  0  0  0  0  0
    3.5060   -2.3840   -0.5940 C   0  0  0  0  0  0  0  0  0  0  0  0
    2.9340   -3.0110   -1.6900 C   0  0  0  0  0  0  0  0  0  0  0  0
    1.5470   -2.9900   -1.9780 C   0  0  0  0  0  0  0  0  0  0  0  0
    0.7480   -1.8750   -1.5930 C   0  0  0  0  0  0  0  0  0  0  0  0
    1.0070   -0.5780   -1.7630 N   0  0  0  0  0  0  0  0  0  0  0  0
    0.0570    0.0690   -1.0770 C   0  0  0  0  0  0  0  0  0  0  0  0
   -0.0020    1.4360   -0.8530 N   0  0  0  0  0  0  0  0  0  0  0  0
    1.0390    2.1640   -0.4250 N   0  0  0  0  0  0  0  0  0  0  0  0
   -0.8110   -0.7780   -0.4900 N   0  0  0  0  0  0  0  0  0  0  0  0
   -1.9950   -0.5450    0.3200 C   0  0  1  0  0  0  0  0  0  0  0  0
   -1.7070   -0.2630    1.7510 C   0  0  0  0  0  0  0  0  0  0  0  0
   -2.9610    0.4420    2.2260 C   0  0  0  0  0  0  0  0  0  0  0  0
   -3.8220    0.6840    1.0070 C   0  0  1  0  0  0  0  0  0  0  0  0
   -4.6060    1.9430    1.0690 C   0  0  0  0  0  0  0  0  0  0  0  0
   -2.7530    0.7090   -0.0960 C   0  0  0  0  0  0  0  0  0  0  0  0
   -0.4070   -2.0170   -0.7950 C   0  0  0  0  0  0  0  0  0  0  0  0
   -0.9770   -3.1100   -0.4220 O   0  0  0  0  0  0  0  0  0  0  0  0
  1  2  1  0
  2  3  2  0
  2 13  1  0
  3  4  1  0
  4  5  2  0
  5  6  1  0
  6  7  2  0
  7  8  1  0
  8  9  2  0
  9 10  1  0
  9 21  1  0
 10 11  1  0
 11 12  2  0
 11 14  1  0
 12 13  1  0
 15 14  1  6
 14 21  1  0
 15 16  1  0
 15 20  1  0
 16 17  1  0
 17 18  1  0
 18 19  1  1
 18 20  1  0
 21 22  2  0
M  END
