
     RDKit          3D

 22 22  0  0  0  0  0  0  0  0999 V2000
   -6.7510   -1.4040   -0.3380 C   0  0  0  0  0  0  0  0  0  0  0  0
   -6.0920   -1.0730   -1.5110 O   0  0  0  0  0  0  0  0  0  0  0  0
   -5.5200    0.1730   -1.4460 C   0  0  0  0  0  0  0  0  0  0  0  0
   -4.5220    0.2400   -0.3520 C   0  0  0  0  0  0  0  0  0  0  0  0
   -3.2600    0.5030   -0.4600 C   0  0  0  0  0  0  0  0  0  0  0  0
   -2.0950    0.5710    0.8950 S   0  0  0  0  0  0  0  0  0  0  0  0
   -0.6350    1.0450   -0.1240 C   0  0  1  0  0  0  0  0  0  0  0  0
   -0.4980    2.5270   -0.0360 C   0  0  0  0  0  0  0  0  0  0  0  0
    0.5700    0.3030    0.3070 C   0  0  0  0  0  0  0  0  0  0  0  0
    1.0500   -0.5880   -0.4330 O   0  0  0  0  0  0  0  0  0  0  0  0
    1.2130    0.5440    1.5110 O   0  0  0  0  0  0  0  0  0  0  0  0
    2.3510   -0.1680    1.9000 C   0  0  0  0  0  0  0  0  0  0  0  0
    3.4790   -0.0090    0.9470 C   0  0  0  0  0  0  0  0  0  0  0  0
    3.3280    0.7150   -0.0790 O   0  0  0  0  0  0  0  0  0  0  0  0
    4.7200   -0.6620    1.1800 N   0  0  0  0  0  0  0  0  0  0  0  0
    5.7970   -0.4890    0.2370 C   0  0  0  0  0  0  0  0  0  0  0  0
    6.9960   -1.2320    0.6360 C   0  0  0  0  0  0  0  0  0  0  0  0
    7.0020   -1.9160    1.6910 O   0  0  0  0  0  0  0  0  0  0  0  0
    8.1450   -1.1960   -0.1390 O   0  0  0  0  0  0  0  0  0  0  0  0
   -1.0940    0.5890   -1.4170 N   0  0  0  0  0  0  0  0  0  0  0  0
   -2.4800    0.8010   -1.6230 C   0  0  0  0  0  0  0  0  0  0  0  0
   -2.9340    1.2060   -2.7190 O   0  0  0  0  0  0  0  0  0  0  0  0
  1  2  1  0
  2  3  1  0
  3  4  1  0
  4  5  2  3
  5  6  1  0
  5 21  1  0
  6  7  1  0
  7  8  1  6
  7  9  1  0
  7 20  1  0
  9 10  2  0
  9 11  1  0
 11 12  1  0
 12 13  1  0
 13 14  2  0
 13 15  1  0
 15 16  1  0
 16 17  1  0
 17 18  2  0
 17 19  1  0
 20 21  1  0
 21 22  2  0
M  END
