
     RDKit          3D

 22 22  0  0  0  0  0  0  0  0999 V2000
    4.7680    0.7180   -1.0760 C   0  0  0  0  0  0  0  0  0  0  0  0
    4.4230    0.7920    0.3950 C   0  0  0  0  0  0  0  0  0  0  0  0
    3.1590    0.8400    0.7560 C   0  0  0  0  0  0  0  0  0  0  0  0
    1.9560    0.8340   -0.0600 C   0  0  0  0  0  0  0  0  0  0  0  0
    0.8480    0.8880    0.5220 O   0  0  0  0  0  0  0  0  0  0  0  0
    1.9850    0.7740   -1.4150 O   0  0  0  0  0  0  0  0  0  0  0  0
    0.8950    0.7610   -2.3040 C   0  0  0  0  0  0  0  0  0  0  0  0
    0.0320   -0.3970   -2.0700 C   0  0  0  0  0  0  0  0  0  0  0  0
   -0.9550   -0.5470   -2.8510 O   0  0  0  0  0  0  0  0  0  0  0  0
    0.3230   -1.2580   -1.0290 O   0  0  0  0  0  0  0  0  0  0  0  0
   -0.4730   -2.3660   -0.7810 C   0  0  0  0  0  0  0  0  0  0  0  0
   -1.8400   -1.9690   -0.4270 C   0  0  0  0  0  0  0  0  0  0  0  0
   -2.6790   -2.9010   -0.2680 O   0  0  0  0  0  0  0  0  0  0  0  0
   -2.2770   -0.6410   -0.2530 N   0  0  0  0  0  0  0  0  0  0  0  0
   -3.6640   -0.4060    0.0940 C   0  0  2  0  0  0  0  0  0  0  0  0
   -4.3560    0.4160   -0.9870 C   0  0  0  0  0  0  0  0  0  0  0  0
   -3.7140    0.2900    1.3930 C   0  0  0  0  0  0  0  0  0  0  0  0
   -4.9620    0.6410    1.9660 N   0  0  0  0  0  0  0  0  0  0  0  0
   -2.6630    0.5700    1.9900 O   0  0  0  0  0  0  0  0  0  0  0  0
    3.2190    0.9060    2.5610 S   0  0  0  0  0  0  0  0  0  0  0  0
    4.9790    0.3450    2.6300 C   0  0  0  0  0  0  0  0  0  0  0  0
    5.3600    0.8120    1.3560 O   0  0  0  0  0  0  0  0  0  0  0  0
  1  2  1  0
  2  3  2  0
  2 22  1  0
  3  4  1  0
  3 20  1  0
  4  5  2  0
  4  6  1  0
  6  7  1  0
  7  8  1  0
  8  9  2  0
  8 10  1  0
 10 11  1  0
 11 12  1  0
 12 13  2  0
 12 14  1  0
 14 15  1  0
 15 16  1  6
 15 17  1  0
 17 18  1  0
 17 19  2  0
 20 21  1  0
 21 22  1  0
M  END
