
     RDKit          3D

 22 22  0  0  0  0  0  0  0  0999 V2000
   -3.9080   -1.2810    0.2340 C   0  0  0  0  0  0  0  0  0  0  0  0
   -3.5780   -0.6610   -1.1060 C   0  0  0  0  0  0  0  0  0  0  0  0
   -2.5340    0.1230   -1.2210 C   0  0  0  0  0  0  0  0  0  0  0  0
   -1.5700    0.5290   -0.2130 C   0  0  0  0  0  0  0  0  0  0  0  0
   -1.7080    0.0980    0.9520 O   0  0  0  0  0  0  0  0  0  0  0  0
   -0.5130    1.3690   -0.4960 O   0  0  0  0  0  0  0  0  0  0  0  0
    0.3510    1.6830    0.5860 C   0  0  0  0  0  0  0  0  0  0  0  0
    0.0420    2.7270    1.2850 C   0  0  0  0  0  0  0  0  0  0  0  0
    0.6700    3.3300    2.4250 C   0  0  0  0  0  0  0  0  0  0  0  0
    0.0700    4.5180    2.9950 N   0  0  0  0  0  0  0  0  0  0  0  0
    1.7030    2.8720    2.9350 O   0  0  0  0  0  0  0  0  0  0  0  0
    1.4590    0.8130    0.7780 C   0  0  0  0  0  0  0  0  0  0  0  0
    2.3320    0.9160    1.6700 O   0  0  0  0  0  0  0  0  0  0  0  0
    1.6840   -0.3050   -0.0680 O   0  0  0  0  0  0  0  0  0  0  0  0
    2.7620   -1.1770    0.0940 C   0  0  1  0  0  0  0  0  0  0  0  0
    2.1860   -2.5420    0.4660 C   0  0  0  0  0  0  0  0  0  0  0  0
    3.5890   -1.3500   -1.0930 C   0  0  0  0  0  0  0  0  0  0  0  0
    4.7150   -2.2050   -1.0700 N   0  0  0  0  0  0  0  0  0  0  0  0
    3.3140   -0.7420   -2.1500 O   0  0  0  0  0  0  0  0  0  0  0  0
   -2.5380    0.6030   -2.9710 S   0  0  0  0  0  0  0  0  0  0  0  0
   -3.6910   -0.7600   -3.4460 C   0  0  0  0  0  0  0  0  0  0  0  0
   -4.3280   -0.8870   -2.1950 O   0  0  0  0  0  0  0  0  0  0  0  0
  1  2  1  0
  2  3  2  0
  2 22  1  0
  3  4  1  0
  3 20  1  0
  4  5  2  0
  4  6  1  0
  6  7  1  0
  7  8  2  3
  7 12  1  0
  8  9  1  0
  9 10  1  0
  9 11  2  0
 12 13  2  0
 12 14  1  0
 14 15  1  0
 15 16  1  6
 15 17  1  0
 17 18  1  0
 17 19  2  0
 20 21  1  0
 21 22  1  0
M  END
