
     RDKit          3D

 22 22  0  0  0  0  0  0  0  0999 V2000
    0.9740   -1.6390   -0.1030 O   0  0  0  0  0  0  0  0  0  0  0  0
    0.6430   -1.0740    0.9890 C   0  0  0  0  0  0  0  0  0  0  0  0
    1.6270   -1.0280    2.0800 C   0  0  0  0  0  0  0  0  0  0  0  0
    2.8530   -1.6330    1.7500 O   0  0  0  0  0  0  0  0  0  0  0  0
    3.6330   -1.1810    0.6650 C   0  0  0  0  0  0  0  0  0  0  0  0
    3.1780   -0.2240    0.0160 O   0  0  0  0  0  0  0  0  0  0  0  0
    4.9100   -1.8200    0.3380 C   0  0  0  0  0  0  0  0  0  0  0  0
    5.7750   -1.1820   -0.6790 C   0  0  0  0  0  0  0  0  0  0  0  0
    6.3540    0.1520   -0.3990 C   0  0  0  0  0  0  0  0  0  0  0  0
    5.1840    1.4640   -0.1480 S   0  0  0  0  0  0  0  0  0  0  0  0
    5.9180    2.9750    0.1590 O   0  0  0  0  0  0  0  0  0  0  0  0
   -0.6400   -0.4940    1.1700 N   0  0  0  0  0  0  0  0  0  0  0  0
   -1.5570   -0.5690    0.0620 C   0  0  0  0  0  0  0  0  0  0  0  0
   -2.8640    0.0740    0.3660 C   0  0  0  0  0  0  0  0  0  0  0  0
   -3.1040    0.6050    1.4710 O   0  0  0  0  0  0  0  0  0  0  0  0
   -3.8690    0.0920   -0.6090 N   0  0  0  0  0  0  0  0  0  0  0  0
   -5.1810    0.6710   -0.4720 C   0  0  1  0  0  0  0  0  0  0  0  0
   -5.3640    1.8390   -1.4490 C   0  0  0  0  0  0  0  0  0  0  0  0
   -6.8920    1.8780   -1.5290 C   0  0  0  0  0  0  0  0  0  0  0  0
   -7.2340    0.5020   -1.5310 O   0  0  0  0  0  0  0  0  0  0  0  0
   -6.2760   -0.2260   -0.8440 C   0  0  0  0  0  0  0  0  0  0  0  0
   -6.4100   -1.4720   -0.6180 O   0  0  0  0  0  0  0  0  0  0  0  0
  1  2  2  0
  2  3  1  0
  2 12  1  0
  3  4  1  0
  4  5  1  0
  5  6  2  0
  5  7  1  0
  7  8  1  0
  8  9  1  0
  9 10  1  0
 10 11  1  0
 12 13  1  0
 13 14  1  0
 14 15  2  0
 14 16  1  0
 17 16  1  6
 17 18  1  0
 17 21  1  0
 18 19  1  0
 19 20  1  0
 20 21  1  0
 21 22  2  0
M  END
