
     RDKit          3D

 22 22  0  0  0  0  0  0  0  0999 V2000
    2.6150   -0.1860   -1.4380 O   0  0  0  0  0  0  0  0  0  0  0  0
    2.6000   -0.5610   -0.2200 C   0  0  0  0  0  0  0  0  0  0  0  0
    1.4510   -0.3840    0.5640 N   0  0  0  0  0  0  0  0  0  0  0  0
    0.2480    0.2420   -0.0230 C   0  0  2  0  0  0  0  0  0  0  0  0
    0.0730    1.6230    0.5000 C   0  0  0  0  0  0  0  0  0  0  0  0
    1.3420    2.4320    0.1630 C   0  0  0  0  0  0  0  0  0  0  0  0
    1.0990    4.1000    0.7760 S   0  0  0  0  0  0  0  0  0  0  0  0
    2.4750    5.0690    0.4250 O   0  0  0  0  0  0  0  0  0  0  0  0
   -0.8250   -0.7080    0.0820 C   0  0  0  0  0  0  0  0  0  0  0  0
   -0.4660   -1.9540    0.1900 O   0  0  0  0  0  0  0  0  0  0  0  0
   -2.2360   -0.5410    0.0890 N   0  0  0  0  0  0  0  0  0  0  0  0
   -2.8910    0.7360    0.0690 C   0  0  0  0  0  0  0  0  0  0  0  0
   -4.3630    0.6170    0.2550 C   0  0  0  0  0  0  0  0  0  0  0  0
   -4.9980   -0.4110   -0.3540 O   0  0  0  0  0  0  0  0  0  0  0  0
   -4.2600   -1.4680   -0.7880 C   0  0  0  0  0  0  0  0  0  0  0  0
   -3.0950   -1.7380    0.0860 C   0  0  2  0  0  0  0  0  0  0  0  0
   -3.5090   -2.1830    1.4380 C   0  0  0  0  0  0  0  0  0  0  0  0
   -4.3210   -3.3310    1.2930 O   0  0  0  0  0  0  0  0  0  0  0  0
    3.7720   -1.1380    0.2580 O   0  0  0  0  0  0  0  0  0  0  0  0
    4.9260   -1.2990   -0.5380 C   0  0  0  0  0  0  0  0  0  0  0  0
    5.4870    0.0200   -1.0410 C   0  0  0  0  0  0  0  0  0  0  0  0
    6.6280   -0.3110   -1.8060 O   0  0  0  0  0  0  0  0  0  0  0  0
  1  2  2  0
  2  3  1  0
  2 19  1  0
  3  4  1  0
  4  5  1  1
  4  9  1  0
  5  6  1  0
  6  7  1  0
  7  8  1  0
  9 10  2  0
  9 11  1  0
 11 12  1  0
 11 16  1  0
 12 13  1  0
 13 14  1  0
 14 15  1  0
 15 16  1  0
 16 17  1  1
 17 18  1  0
 19 20  1  0
 20 21  1  0
 21 22  1  0
M  END
