
     RDKit          3D

 22 22  0  0  0  0  0  0  0  0999 V2000
   -6.3400    1.0270   -1.6850 C   0  0  0  0  0  0  0  0  0  0  0  0
   -6.7530    0.5610   -0.5340 C   0  0  0  0  0  0  0  0  0  0  0  0
   -8.4800    0.7260   -0.0380 S   0  0  0  0  0  0  0  0  0  0  0  0
   -5.8080   -0.1110    0.3800 C   0  0  0  0  0  0  0  0  0  0  0  0
   -4.4960   -0.1610   -0.1510 O   0  0  0  0  0  0  0  0  0  0  0  0
   -3.4320   -0.7280    0.4910 C   0  0  0  0  0  0  0  0  0  0  0  0
   -3.6250   -1.2370    1.6250 O   0  0  0  0  0  0  0  0  0  0  0  0
   -2.1130   -0.7870   -0.0240 N   0  0  0  0  0  0  0  0  0  0  0  0
   -1.0430   -1.4040    0.7180 C   0  0  0  0  0  0  0  0  0  0  0  0
    0.2730   -1.3550   -0.0150 C   0  0  2  0  0  0  0  0  0  0  0  0
    1.2060   -1.9790    0.8030 O   0  0  0  0  0  0  0  0  0  0  0  0
    0.7230    0.0270   -0.3210 C   0  0  0  0  0  0  0  0  0  0  0  0
    1.8850    0.1920   -0.9920 O   0  0  0  0  0  0  0  0  0  0  0  0
    3.0150   -0.2990   -0.4170 C   0  0  0  0  0  0  0  0  0  0  0  0
    4.2240    0.0280   -1.2910 C   0  0  1  0  0  0  0  0  0  0  0  0
    4.3890    1.3800   -1.4620 O   0  0  0  0  0  0  0  0  0  0  0  0
    4.7830    2.0680   -0.3440 C   0  0  0  0  0  0  0  0  0  0  0  0
    6.0070    1.5140    0.2840 C   0  0  0  0  0  0  0  0  0  0  0  0
    6.8100    2.2180    0.9480 O   0  0  0  0  0  0  0  0  0  0  0  0
    6.2940    0.1180    0.1290 N   0  0  0  0  0  0  0  0  0  0  0  0
    5.3930   -0.6270   -0.6670 C   0  0  0  0  0  0  0  0  0  0  0  0
    5.5830   -1.8500   -0.8460 O   0  0  0  0  0  0  0  0  0  0  0  0
  1  2  2  0
  2  3  1  0
  2  4  1  0
  4  5  1  0
  5  6  1  0
  6  7  2  0
  6  8  1  0
  8  9  1  0
  9 10  1  0
 10 11  1  1
 10 12  1  0
 12 13  1  0
 13 14  1  0
 15 14  1  1
 15 16  1  0
 15 21  1  0
 16 17  1  0
 17 18  1  0
 18 19  2  0
 18 20  1  0
 20 21  1  0
 21 22  2  0
M  END
