
     RDKit          3D

 14 15  0  0  0  0  0  0  0  0999 V2000
    2.9790    0.0320    0.8660 O   0  0  0  0  0  0  0  0  0  0  0  0
    2.1830   -0.7720    0.0180 C   0  0  0  0  0  0  0  0  0  0  0  0
    0.7560   -0.4690    0.3260 C   0  0  2  0  0  0  0  0  0  0  0  0
   -0.2000   -1.2640   -0.5130 C   0  0  1  0  0  0  0  0  0  0  0  0
    0.0560   -2.6320   -0.4800 O   0  0  0  0  0  0  0  0  0  0  0  0
   -1.6190   -1.0090   -0.1430 C   0  0  2  0  0  0  0  0  0  0  0  0
   -2.3620   -0.7470   -1.3000 O   0  0  0  0  0  0  0  0  0  0  0  0
   -1.7970    0.1860    0.7650 C   0  0  2  0  0  0  0  0  0  0  0  0
   -3.0970    0.6560    0.7530 O   0  0  0  0  0  0  0  0  0  0  0  0
   -0.8570    1.2740    0.3900 C   0  0  0  0  0  0  0  0  0  0  0  0
   -0.9570    2.5830    0.2020 N   0  0  0  0  0  0  0  0  0  0  0  0
    0.2550    3.0990   -0.1390 C   0  0  0  0  0  0  0  0  0  0  0  0
    1.1340    2.0350   -0.1560 C   0  0  0  0  0  0  0  0  0  0  0  0
    0.4250    0.9290    0.1730 N   0  0  0  0  0  0  0  0  0  0  0  0
  1  2  1  0
  3  2  1  6
  3  4  1  0
  3 14  1  0
  4  5  1  1
  4  6  1  0
  6  7  1  6
  6  8  1  0
  8  9  1  6
  8 10  1  0
 10 11  2  0
 10 14  1  0
 11 12  1  0
 12 13  2  0
 13 14  1  0
M  END
