
     RDKit          3D

 14 14  0  0  0  0  0  0  0  0999 V2000
    3.3430    1.5010   -0.8270 C   0  0  0  0  0  0  0  0  0  0  0  0
    2.3200    0.5570   -0.5990 O   0  0  0  0  0  0  0  0  0  0  0  0
    1.7270    0.3150    0.6120 C   0  0  0  0  0  0  0  0  0  0  0  0
    2.1110    0.9740    1.6060 O   0  0  0  0  0  0  0  0  0  0  0  0
    0.6450   -0.6910    0.8260 C   0  0  1  0  0  0  0  0  0  0  0  0
    0.2540   -0.6830    2.2160 N   0  0  0  0  0  0  0  0  0  0  0  0
   -0.5590   -0.4340   -0.0010 C   0  0  2  0  0  0  0  0  0  0  0  0
   -1.5100   -1.4000    0.2260 O   0  0  0  0  0  0  0  0  0  0  0  0
   -1.1860   -2.6890   -0.0520 C   0  0  0  0  0  0  0  0  0  0  0  0
   -0.2520   -0.3180   -1.4810 C   0  0  0  0  0  0  0  0  0  0  0  0
   -0.3080    1.0440   -1.7750 O   0  0  0  0  0  0  0  0  0  0  0  0
   -1.5170    1.3850   -1.1250 C   0  0  0  0  0  0  0  0  0  0  0  0
   -1.2120    0.9000    0.2780 C   0  0  1  0  0  0  0  0  0  0  0  0
   -2.4860    0.7490    0.9620 N   0  0  0  0  0  0  0  0  0  0  0  0
  1  2  1  0
  2  3  1  0
  3  4  2  0
  3  5  1  0
  5  6  1  1
  5  7  1  0
  7  8  1  6
  7 10  1  0
  7 13  1  0
  8  9  1  0
 10 11  1  0
 11 12  1  0
 12 13  1  0
 13 14  1  1
M  END
