
     RDKit          3D

 14 15  0  0  0  0  0  0  0  0999 V2000
    0.0540   -0.9310    1.9330 N   0  0  0  0  0  0  0  0  0  0  0  0
    0.9710   -0.8840    0.8550 C   0  0  0  0  0  0  0  0  0  0  0  0
    2.1030   -1.6010    0.9490 C   0  0  0  0  0  0  0  0  0  0  0  0
    3.0460   -1.5610   -0.1430 C   0  0  0  0  0  0  0  0  0  0  0  0
    2.8030   -0.8370   -1.2130 C   0  0  0  0  0  0  0  0  0  0  0  0
    1.6460   -0.0770   -1.3590 O   0  0  0  0  0  0  0  0  0  0  0  0
    0.7120   -0.0850   -0.3340 C   0  0  0  0  0  0  0  0  0  0  0  0
   -0.4140    0.6110   -0.3950 C   0  0  0  0  0  0  0  0  0  0  0  0
   -1.4150    0.6790    0.5610 O   0  0  0  0  0  0  0  0  0  0  0  0
   -2.6230    1.0510   -0.1120 C   0  0  1  0  0  0  0  0  0  0  0  0
   -3.5680    1.5620    0.7400 O   0  0  0  0  0  0  0  0  0  0  0  0
   -2.1260    1.9900   -1.0810 N   0  0  0  0  0  0  0  0  0  0  0  0
   -0.8540    1.4710   -1.5020 C   0  0  0  0  0  0  0  0  0  0  0  0
   -0.2510    1.7060   -2.5860 O   0  0  0  0  0  0  0  0  0  0  0  0
  1  2  1  0
  2  3  2  0
  2  7  1  0
  3  4  1  0
  4  5  2  0
  5  6  1  0
  6  7  1  0
  7  8  2  3
  8  9  1  0
  8 13  1  0
  9 10  1  0
 10 11  1  1
 10 12  1  0
 12 13  1  0
 13 14  2  0
M  END
