
     RDKit          3D

 14 15  0  0  0  0  0  0  0  0999 V2000
    2.7770    1.0490    1.6600 N   0  0  0  0  0  0  0  0  0  0  0  0
    1.6100    0.7300    1.0050 N   0  0  0  0  0  0  0  0  0  0  0  0
    1.5810   -0.0130   -0.0330 C   0  0  0  0  0  0  0  0  0  0  0  0
    2.7920   -0.5180   -0.5160 O   0  0  0  0  0  0  0  0  0  0  0  0
    0.3740   -0.3870   -0.7720 C   0  0  1  0  0  0  0  0  0  0  0  0
    0.4750    0.0670   -2.1000 O   0  0  0  0  0  0  0  0  0  0  0  0
    0.1550   -1.8830   -0.8490 C   0  0  0  0  0  0  0  0  0  0  0  0
   -1.3570   -1.9540   -1.0040 C   0  0  0  0  0  0  0  0  0  0  0  0
   -1.8330   -0.6670   -0.9490 O   0  0  0  0  0  0  0  0  0  0  0  0
   -0.9060    0.0890   -0.2180 C   0  0  2  0  0  0  0  0  0  0  0  0
   -1.1710    1.5580   -0.4190 C   0  0  0  0  0  0  0  0  0  0  0  0
   -1.9520    1.8870    0.8580 C   0  0  0  0  0  0  0  0  0  0  0  0
   -1.3060    1.1230    1.8020 O   0  0  0  0  0  0  0  0  0  0  0  0
   -1.1100   -0.1430    1.2360 C   0  0  0  0  0  0  0  0  0  0  0  0
  1  2  1  0
  2  3  2  3
  3  4  1  0
  3  5  1  0
  5  6  1  6
  5  7  1  0
  5 10  1  0
  7  8  1  0
  8  9  1  0
  9 10  1  0
 10 11  1  1
 10 14  1  0
 11 12  1  0
 12 13  1  0
 13 14  1  0
M  END
