
     RDKit          3D

 14 15  0  0  0  0  0  0  0  0999 V2000
   -3.5970   -0.3050    2.1230 O   0  0  0  0  0  0  0  0  0  0  0  0
   -2.7870   -0.2800    1.1590 C   0  0  0  0  0  0  0  0  0  0  0  0
   -3.2770   -0.6840   -0.1730 C   0  0  0  0  0  0  0  0  0  0  0  0
   -2.1950   -0.8070   -1.0950 O   0  0  0  0  0  0  0  0  0  0  0  0
   -0.9070   -0.4470   -0.7970 C   0  0  0  0  0  0  0  0  0  0  0  0
    0.1130   -1.0070   -1.4400 C   0  0  0  0  0  0  0  0  0  0  0  0
    1.4790   -0.6150   -1.1120 C   0  0  0  0  0  0  0  0  0  0  0  0
    2.4610   -1.3380   -1.4160 O   0  0  0  0  0  0  0  0  0  0  0  0
    1.6410    0.6900   -0.3980 C   0  0  2  0  0  0  0  0  0  0  0  0
    3.0300    0.7610    0.1290 C   0  0  0  0  0  0  0  0  0  0  0  0
    3.3260   -0.2400    1.0370 O   0  0  0  0  0  0  0  0  0  0  0  0
    0.6600    0.7960    0.5960 N   0  0  0  0  0  0  0  0  0  0  0  0
   -0.6750    0.5810    0.2580 C   0  0  2  0  0  0  0  0  0  0  0  0
   -1.4530    0.1370    1.4230 N   0  0  0  0  0  0  0  0  0  0  0  0
  1  2  2  0
  2  3  1  0
  2 14  1  0
  3  4  1  0
  4  5  1  0
  5  6  2  0
  5 13  1  0
  6  7  1  0
  7  8  2  0
  7  9  1  0
  9 10  1  1
  9 12  1  0
 10 11  1  0
 13 12  1  1
 13 14  1  0
M  END
