
     RDKit          3D

 13 13  0  0  0  0  0  0  0  0999 V2000
   -4.4100    0.1490   -0.2750 C   0  0  0  0  0  0  0  0  0  0  0  0
   -3.5120    0.6510   -1.2580 O   0  0  0  0  0  0  0  0  0  0  0  0
   -2.2240    0.9330   -0.8320 C   0  0  0  0  0  0  0  0  0  0  0  0
   -1.8660    2.2900   -0.5910 N   0  0  0  0  0  0  0  0  0  0  0  0
   -1.3240   -0.0120   -0.6450 C   0  0  0  0  0  0  0  0  0  0  0  0
    0.0200    0.3090   -0.1980 C   0  0  0  0  0  0  0  0  0  0  0  0
    0.8930   -0.6630   -0.0220 C   0  0  0  0  0  0  0  0  0  0  0  0
    0.6610   -2.0360   -0.2260 O   0  0  0  0  0  0  0  0  0  0  0  0
    1.9690   -2.6060   -0.4070 C   0  0  0  0  0  0  0  0  0  0  0  0
    2.7850   -1.8330    0.4510 O   0  0  0  0  0  0  0  0  0  0  0  0
    2.2770   -0.5450    0.4170 C   0  0  0  0  0  0  0  0  0  0  0  0
    2.9130    0.5930    0.7240 C   0  0  0  0  0  0  0  0  0  0  0  0
    4.2610    0.5110    1.1330 N   0  0  0  0  0  0  0  0  0  0  0  0
  1  2  1  0
  2  3  1  0
  3  4  1  0
  3  5  2  3
  5  6  1  0
  6  7  2  3
  7  8  1  0
  7 11  1  0
  8  9  1  0
  9 10  1  0
 10 11  1  0
 11 12  2  3
 12 13  1  0
M  END
