
     RDKit          3D

 22 24  0  0  0  0  0  0  0  0999 V2000
   -3.9030    2.8400    0.6360 O   0  0  0  0  0  0  0  0  0  0  0  0
   -3.8870    1.5700    0.6860 C   0  0  0  0  0  0  0  0  0  0  0  0
   -5.2140    0.9450    0.9290 C   0  0  0  0  0  0  0  0  0  0  0  0
   -5.4760    0.0110   -0.2470 C   0  0  0  0  0  0  0  0  0  0  0  0
   -4.1910   -0.6110   -0.7460 C   0  0  0  0  0  0  0  0  0  0  0  0
   -3.4220   -1.3000    0.3520 C   0  0  0  0  0  0  0  0  0  0  0  0
   -2.3150   -0.4270    0.9120 C   0  0  1  0  0  0  0  0  0  0  0  0
   -0.9800   -0.8350    0.4710 C   0  0  0  0  0  0  0  0  0  0  0  0
    0.0400   -0.0410    0.6130 C   0  0  0  0  0  0  0  0  0  0  0  0
    1.4030   -0.4230    0.1780 C   0  0  0  0  0  0  0  0  0  0  0  0
    1.7460   -1.6230   -0.4090 C   0  0  0  0  0  0  0  0  0  0  0  0
    3.1060   -1.5430   -0.6430 C   0  0  0  0  0  0  0  0  0  0  0  0
    3.5430   -0.3130   -0.1980 C   0  0  0  0  0  0  0  0  0  0  0  0
    4.9320    0.1580   -0.2690 C   0  0  0  0  0  0  0  0  0  0  0  0
    5.9620   -0.5070   -0.7600 C   0  0  0  0  0  0  0  0  0  0  0  0
    7.1310    0.2360   -0.6700 O   0  0  0  0  0  0  0  0  0  0  0  0
    6.7430    1.5190   -0.2950 N   0  0  2  0  0  0  0  0  0  0  0  0
    6.7650    2.3710   -1.3390 O   0  0  0  0  0  0  0  0  0  0  0  0
    7.5840    1.9010    0.6870 O   0  0  0  0  0  0  0  0  0  0  0  0
    5.4440    1.3750    0.1560 O   0  0  0  0  0  0  0  0  0  0  0  0
    2.4940    0.2890    0.2700 O   0  0  0  0  0  0  0  0  0  0  0  0
   -2.6360    0.9450    0.5060 N   0  0  0  0  0  0  0  0  0  0  0  0
  1  2  2  0
  2  3  1  0
  2 22  1  0
  3  4  1  0
  4  5  1  0
  5  6  1  0
  6  7  1  0
  7  8  1  6
  7 22  1  0
  8  9  2  3
  9 10  1  0
 10 11  2  0
 10 21  1  0
 11 12  1  0
 12 13  2  0
 13 14  1  0
 13 21  1  0
 14 15  2  0
 14 20  1  0
 15 16  1  0
 16 17  1  0
 17 18  1  6
 17 19  1  0
 17 20  1  0
M  CHG  2  17   1  18  -1
M  END
