
     RDKit          3D

  6  5  0  0  0  0  0  0  0  0999 V2000
   -1.3100    2.9740   -0.1480 N   0  0  0  0  0  0  0  0  0  0  0  0
   -1.2590    1.5630   -0.1180 C   0  0  0  0  0  0  0  0  0  0  0  0
   -0.1100    0.8960   -0.0260 C   0  0  0  0  0  0  0  0  0  0  0  0
   -0.0430   -0.5430    0.0060 C   0  0  0  0  0  0  0  0  0  0  0  0
    1.1000   -1.1750    0.0960 C   0  0  0  0  0  0  0  0  0  0  0  0
    1.1520   -2.6120    0.1270 N   0  0  0  0  0  0  0  0  0  0  0  0
  1  2  1  0
  2  3  2  3
  3  4  1  0
  4  5  2  3
  5  6  1  0
M  CHG  1   6   1
M  END
