
     RDKit          3D

  6  5  0  0  0  0  0  0  0  0999 V2000
    2.4570    0.3390   -0.7700 N   0  0  0  0  0  0  0  0  0  0  0  0
    1.6870   -0.1400    0.3640 C   0  0  0  0  0  0  0  0  0  0  0  0
    0.2460    0.1780    0.2110 C   0  0  0  0  0  0  0  0  0  0  0  0
   -0.6250   -0.8090    0.1870 C   0  0  0  0  0  0  0  0  0  0  0  0
   -2.0570   -0.6240    0.0430 C   0  0  0  0  0  0  0  0  0  0  0  0
   -2.5950    0.5310   -0.0730 N   0  0  0  0  0  0  0  0  0  0  0  0
  1  2  1  0
  2  3  1  0
  3  4  2  3
  4  5  1  0
  5  6  2  0
M  CHG  1   6   1
M  END
