
     RDKit          3D

  6  5  0  0  0  0  0  0  0  0999 V2000
   -1.6490    1.3210    0.3980 N   0  0  0  0  0  0  0  0  0  0  0  0
   -1.1850    0.0410    0.1240 C   0  0  0  0  0  0  0  0  0  0  0  0
   -1.8320   -1.0590   -0.4310 N   0  0  0  0  0  0  0  0  0  0  0  0
    0.0730   -0.1700    0.4370 C   0  0  0  0  0  0  0  0  0  0  0  0
    1.3480   -0.3330    0.6350 C   0  0  0  0  0  0  0  0  0  0  0  0
    2.1960   -0.0200   -0.4400 N   0  0  0  0  0  0  0  0  0  0  0  0
  1  2  1  0
  2  3  1  0
  2  4  2  0
  4  5  2  0
  5  6  1  0
M  CHG  1   6   1
M  END
