
     RDKit          3D

  6  5  0  0  0  0  0  0  0  0999 V2000
    2.7460   -0.6750   -0.0690 N   0  0  0  0  0  0  0  0  0  0  0  0
    1.4060   -0.5140   -0.6040 C   0  0  0  0  0  0  0  0  0  0  0  0
    0.7810    0.6270    0.1640 C   0  0  0  0  0  0  0  0  0  0  0  0
   -0.6220    0.9550   -0.2560 C   0  0  0  0  0  0  0  0  0  0  0  0
   -1.5000   -0.2340   -0.0520 C   0  0  0  0  0  0  0  0  0  0  0  0
   -2.8780    0.0280   -0.4360 N   0  0  0  0  0  0  0  0  0  0  0  0
  1  2  1  0
  2  3  1  0
  3  4  1  0
  4  5  1  0
  5  6  1  0
M  CHG  2   1   1   6   1
M  END
