
     RDKit          3D

  6  5  0  0  0  0  0  0  0  0999 V2000
   -1.7200    1.5000   -0.3890 C   0  0  0  0  0  0  0  0  0  0  0  0
   -1.0910    0.4280    0.0240 C   0  0  0  0  0  0  0  0  0  0  0  0
   -1.7970   -0.7900    0.1190 N   0  0  0  0  0  0  0  0  0  0  0  0
    0.3040    0.5110    0.3690 C   0  0  0  0  0  0  0  0  0  0  0  0
    0.9310   -0.5550    0.7790 C   0  0  0  0  0  0  0  0  0  0  0  0
    2.3200   -0.5640    1.1450 N   0  0  0  0  0  0  0  0  0  0  0  0
  1  2  2  0
  2  3  1  0
  2  4  1  0
  4  5  2  3
  5  6  1  0
M  CHG  1   6   1
M  END
