
     RDKit          3D

  6  5  0  0  0  0  0  0  0  0999 V2000
    1.1730    1.7790    0.4510 C   0  0  0  0  0  0  0  0  0  0  0  0
    0.5950    0.6330    0.7150 C   0  0  0  0  0  0  0  0  0  0  0  0
   -0.1400   -0.1260   -0.2790 C   0  0  0  0  0  0  0  0  0  0  0  0
   -0.2290    0.4060   -1.5870 N   0  0  0  0  0  0  0  0  0  0  0  0
   -0.7180   -1.2720   -0.0120 C   0  0  0  0  0  0  0  0  0  0  0  0
   -0.6740   -1.8750    1.2790 N   0  0  0  0  0  0  0  0  0  0  0  0
  1  2  2  0
  2  3  1  0
  3  4  1  0
  3  5  2  3
  5  6  1  0
M  CHG  1   4   1
M  END
