
     RDKit          3D

  6  5  0  0  0  0  0  0  0  0999 V2000
    1.9440   -1.1330    0.0340 C   0  0  0  0  0  0  0  0  0  0  0  0
    1.4480    0.2330    0.3800 C   0  0  0  0  0  0  0  0  0  0  0  0
    0.1930    0.5620    0.1200 C   0  0  0  0  0  0  0  0  0  0  0  0
   -0.2530    1.8680    0.4590 N   0  0  0  0  0  0  0  0  0  0  0  0
   -0.7460   -0.3940   -0.5100 C   0  0  0  0  0  0  0  0  0  0  0  0
   -1.9030   -0.6700    0.3310 N   0  0  0  0  0  0  0  0  0  0  0  0
  1  2  1  0
  2  3  2  3
  3  4  1  0
  3  5  1  0
  5  6  1  0
M  CHG  2   4   1   6   1
M  END
