
     RDKit          3D

  6  5  0  0  0  0  0  0  0  0999 V2000
   -2.3510    0.9220    0.2720 N   0  0  0  0  0  0  0  0  0  0  0  0
   -2.1400   -0.4650   -0.0410 C   0  0  0  0  0  0  0  0  0  0  0  0
   -0.7070   -0.7230   -0.3310 C   0  0  0  0  0  0  0  0  0  0  0  0
    0.2220    0.2160   -0.2990 C   0  0  0  0  0  0  0  0  0  0  0  0
    1.6210   -0.0970   -0.5950 C   0  0  0  0  0  0  0  0  0  0  0  0
    2.5330    0.1830    0.4820 N   0  0  0  0  0  0  0  0  0  0  0  0
  1  2  1  0
  2  3  1  0
  3  4  2  3
  4  5  1  0
  5  6  1  0
M  CHG  1   6   1
M  END
