
     RDKit          3D

 38 41  0  0  0  0  0  0  0  0999 V2000
   -3.7530   -2.1740    0.0800 C   0  0  0  0  0  0  0  0  0  0  0  0
   -4.8590   -1.7530    0.6230 C   0  0  0  0  0  0  0  0  0  0  0  0
   -5.1610   -0.4930    1.1400 C   0  0  0  0  0  0  0  0  0  0  0  0
   -6.4290   -0.2990    1.6120 C   0  0  0  0  0  0  0  0  0  0  0  0
   -6.8200    1.0330    2.1730 C   0  0  0  0  0  0  0  0  0  0  0  0
   -6.5080    2.0470    1.0530 C   0  0  0  0  0  0  0  0  0  0  0  0
   -5.0810    1.7710    0.6360 C   0  0  0  0  0  0  0  0  0  0  0  0
   -4.5500    2.3860   -0.3830 C   0  0  0  0  0  0  0  0  0  0  0  0
   -5.4010    3.3600   -1.1260 C   0  0  0  0  0  0  0  0  0  0  0  0
   -4.6790    3.9990   -2.2190 C   0  0  0  0  0  0  0  0  0  0  0  0
   -3.4290    3.7610   -2.4990 C   0  0  0  0  0  0  0  0  0  0  0  0
   -2.6450    2.8150   -1.7250 C   0  0  0  0  0  0  0  0  0  0  0  0
   -3.1320    2.1400   -0.7100 C   0  0  0  0  0  0  0  0  0  0  0  0
   -2.3240    1.2130    0.1050 C   0  0  0  0  0  0  0  0  0  0  0  0
   -1.0140    0.8600   -0.1980 N   0  0  0  0  0  0  0  0  0  0  0  0
   -0.0320    1.2000   -1.1090 C   0  0  0  0  0  0  0  0  0  0  0  0
   -0.1310    2.0230   -1.9930 O   0  0  0  0  0  0  0  0  0  0  0  0
    1.2940    0.5540   -1.0830 N   0  0  0  0  0  0  0  0  0  0  0  0
    2.2770    0.9340   -2.0910 C   0  0  0  0  0  0  0  0  0  0  0  0
    3.5680    0.1490   -1.8640 C   0  0  2  0  0  0  0  0  0  0  0  0
    3.3260   -1.1690   -1.9230 O   0  0  0  0  0  0  0  0  0  0  0  0
    4.3030    0.7240   -0.6890 C   0  0  0  0  0  0  0  0  0  0  0  0
    5.5410    0.2130   -0.5160 O   0  0  0  0  0  0  0  0  0  0  0  0
    6.0600   -0.9760   -0.1480 C   0  0  0  0  0  0  0  0  0  0  0  0
    5.2990   -2.0360    0.2290 C   0  0  0  0  0  0  0  0  0  0  0  0
    5.8530   -3.2560    0.5980 C   0  0  0  0  0  0  0  0  0  0  0  0
    7.2180   -3.3970    0.5840 C   0  0  0  0  0  0  0  0  0  0  0  0
    8.0130   -2.3420    0.2080 C   0  0  0  0  0  0  0  0  0  0  0  0
    7.4600   -1.1540   -0.1510 C   0  0  0  0  0  0  0  0  0  0  0  0
    8.2290   -0.0500   -0.5410 O   0  0  0  0  0  0  0  0  0  0  0  0
    9.6370   -0.1630   -0.5640 C   0  0  0  0  0  0  0  0  0  0  0  0
   -2.9070    0.5910    1.1490 C   0  0  0  0  0  0  0  0  0  0  0  0
   -2.2920   -0.3100    2.0640 C   0  0  0  0  0  0  0  0  0  0  0  0
   -3.2390   -0.7370    2.9450 O   0  0  0  0  0  0  0  0  0  0  0  0
   -1.0550   -0.9300    2.4080 C   0  0  0  0  0  0  0  0  0  0  0  0
   -0.7670   -2.2850    1.8090 C   0  0  0  0  0  0  0  0  0  0  0  0
    0.5810   -2.7420    2.3160 C   0  0  0  0  0  0  0  0  0  0  0  0
   -4.3510    0.7540    1.3300 C   0  0  2  0  0  0  0  0  0  0  0  0
  1  2  2  0
  2  3  1  0
  3  4  2  0
 38  3  1  6
  4  5  1  0
  5  6  1  0
  6  7  1  0
  7  8  2  0
  7 38  1  0
  8  9  1  0
  8 13  1  0
  9 10  1  0
 10 11  2  0
 11 12  1  0
 12 13  2  0
 13 14  1  0
 14 15  1  0
 14 32  2  0
 15 16  1  0
 16 17  2  0
 16 18  1  0
 18 19  1  0
 19 20  1  0
 20 21  1  1
 20 22  1  0
 22 23  1  0
 23 24  1  0
 24 25  2  0
 24 29  1  0
 25 26  1  0
 26 27  2  0
 27 28  1  0
 28 29  2  0
 29 30  1  0
 30 31  1  0
 32 33  1  0
 32 38  1  0
 33 34  2  0
 33 35  1  0
 35 36  1  0
 36 37  1  0
M  END
