
     RDKit          3D

 38 41  0  0  0  0  0  0  0  0999 V2000
   -7.0120   -3.9470   -1.9340 C   0  0  0  0  0  0  0  0  0  0  0  0
   -7.4460   -2.4910   -1.7560 C   0  0  2  0  0  0  0  0  0  0  0  0
   -8.2530   -2.0860   -2.8170 O   0  0  0  0  0  0  0  0  0  0  0  0
   -6.2180   -1.6830   -1.6940 C   0  0  0  0  0  0  0  0  0  0  0  0
   -5.4520   -1.3730   -2.7930 C   0  0  0  0  0  0  0  0  0  0  0  0
   -4.3170   -0.6280   -2.7300 C   0  0  0  0  0  0  0  0  0  0  0  0
   -3.8570   -0.1210   -1.4900 C   0  0  0  0  0  0  0  0  0  0  0  0
   -2.5850    0.5370   -1.4380 C   0  0  0  0  0  0  0  0  0  0  0  0
   -1.7440    0.2710   -2.4150 O   0  0  0  0  0  0  0  0  0  0  0  0
   -2.0650    1.4530   -0.4750 C   0  0  0  0  0  0  0  0  0  0  0  0
   -0.7580    1.7410   -0.5860 C   0  0  0  0  0  0  0  0  0  0  0  0
    0.0070    2.5860    0.1980 N   0  0  0  0  0  0  0  0  0  0  0  0
    1.2400    2.1420    0.7470 C   0  0  0  0  0  0  0  0  0  0  0  0
    2.0320    2.9600    1.5220 C   0  0  0  0  0  0  0  0  0  0  0  0
    3.2210    2.5270    2.0590 C   0  0  0  0  0  0  0  0  0  0  0  0
    3.5870    1.2160    1.7800 C   0  0  0  0  0  0  0  0  0  0  0  0
    2.8690    0.3460    1.0280 C   0  0  0  0  0  0  0  0  0  0  0  0
    3.2170   -0.9950    0.7210 C   0  0  0  0  0  0  0  0  0  0  0  0
    2.3310   -1.7450    0.1160 O   0  0  0  0  0  0  0  0  0  0  0  0
    4.5120   -1.6130    1.0440 C   0  0  2  0  0  0  0  0  0  0  0  0
    4.3510   -2.1630    2.5120 C   0  0  0  0  0  0  0  0  0  0  0  0
    5.5540   -0.7470    1.0330 O   0  0  0  0  0  0  0  0  0  0  0  0
    5.7690   -0.2180   -0.2280 C   0  0  2  0  0  0  0  0  0  0  0  0
    7.1890   -0.5130   -0.6870 C   0  0  0  0  0  0  0  0  0  0  0  0
    7.4380    0.9490   -0.8480 C   0  0  0  0  0  0  0  0  0  0  0  0
    6.0600    1.2430   -0.3490 C   0  0  0  0  0  0  0  0  0  0  0  0
    4.7660   -2.8150    0.2470 C   0  0  0  0  0  0  0  0  0  0  0  0
    5.9820   -3.0780   -0.3710 N   0  0  0  0  0  0  0  0  0  0  0  0
    3.8420   -3.6920    0.0930 O   0  0  0  0  0  0  0  0  0  0  0  0
    1.6630    0.8560    0.5110 C   0  0  0  0  0  0  0  0  0  0  0  0
   -2.8420    2.1120    0.5780 C   0  0  0  0  0  0  0  0  0  0  0  0
   -4.1750    2.4270    0.4120 C   0  0  0  0  0  0  0  0  0  0  0  0
   -4.9510    2.9850    1.4180 C   0  0  0  0  0  0  0  0  0  0  0  0
   -4.4200    3.2590    2.6550 C   0  0  0  0  0  0  0  0  0  0  0  0
   -3.0960    2.9580    2.8530 C   0  0  0  0  0  0  0  0  0  0  0  0
   -2.3260    2.3960    1.8330 C   0  0  0  0  0  0  0  0  0  0  0  0
   -4.6140   -0.4310   -0.4110 C   0  0  0  0  0  0  0  0  0  0  0  0
   -5.7800   -1.1970   -0.4890 C   0  0  0  0  0  0  0  0  0  0  0  0
  2  1  1  6
  2  3  1  0
  2  4  1  0
  4  5  2  0
  4 38  1  0
  5  6  1  0
  6  7  2  0
  7  8  1  0
  7 37  1  0
  8  9  2  0
  8 10  1  0
 10 11  2  3
 10 31  1  0
 11 12  1  0
 12 13  1  0
 13 14  2  0
 13 30  1  0
 14 15  1  0
 15 16  2  0
 16 17  1  0
 17 18  1  0
 17 30  2  0
 18 19  2  0
 18 20  1  0
 20 21  1  1
 20 22  1  0
 20 27  1  0
 23 22  1  1
 23 24  1  0
 23 26  1  0
 24 25  1  0
 25 26  1  0
 27 28  1  0
 27 29  2  0
 31 32  2  0
 31 36  1  0
 32 33  1  0
 33 34  2  0
 34 35  1  0
 35 36  2  0
 37 38  2  0
M  END
