
     RDKit          3D

 38 41  0  0  0  0  0  0  0  0999 V2000
   -4.4820   -3.2140   -0.6460 C   0  0  0  0  0  0  0  0  0  0  0  0
   -4.6940   -2.7340   -1.8530 C   0  0  0  0  0  0  0  0  0  0  0  0
   -4.7480   -3.5240   -3.0950 C   0  0  0  0  0  0  0  0  0  0  0  0
   -4.7810   -2.5080   -4.2340 C   0  0  0  0  0  0  0  0  0  0  0  0
   -4.2920   -1.2070   -3.5490 C   0  0  0  0  0  0  0  0  0  0  0  0
   -4.9450   -1.3420   -2.2450 C   0  0  2  0  0  0  0  0  0  0  0  0
   -4.8260   -0.3050   -1.2240 C   0  0  1  0  0  0  0  0  0  0  0  0
   -5.7970   -0.7000   -0.2540 O   0  0  0  0  0  0  0  0  0  0  0  0
   -3.5770   -0.0310   -0.5460 C   0  0  0  0  0  0  0  0  0  0  0  0
   -2.4410   -0.7520   -0.7890 C   0  0  0  0  0  0  0  0  0  0  0  0
   -1.2770   -0.4210   -0.0690 C   0  0  0  0  0  0  0  0  0  0  0  0
   -0.1750   -1.1670   -0.3440 O   0  0  0  0  0  0  0  0  0  0  0  0
    1.1050   -1.0960    0.1510 C   0  0  0  0  0  0  0  0  0  0  0  0
    1.8610    0.1510   -0.1360 C   0  0  0  0  0  0  0  0  0  0  0  0
    3.2360    0.1250    0.4330 C   0  0  0  0  0  0  0  0  0  0  0  0
    3.5550   -0.9360    1.0630 O   0  0  0  0  0  0  0  0  0  0  0  0
    4.1800    1.1600    0.3240 N   0  0  0  0  0  0  0  0  0  0  0  0
    5.4900    1.0130    0.9060 C   0  0  0  0  0  0  0  0  0  0  0  0
    6.2650   -0.0640    0.2230 C   0  0  0  0  0  0  0  0  0  0  0  0
    5.7780   -0.7360   -0.8520 C   0  0  0  0  0  0  0  0  0  0  0  0
    6.5190   -1.7130   -1.4840 C   0  0  0  0  0  0  0  0  0  0  0  0
    7.7800   -2.0160   -1.0190 C   0  0  0  0  0  0  0  0  0  0  0  0
    8.5970   -3.0140   -1.6260 N   0  0  0  0  0  0  0  0  0  0  0  0
    8.2610   -1.3220    0.0760 C   0  0  0  0  0  0  0  0  0  0  0  0
    7.5370   -0.3570    0.7050 C   0  0  0  0  0  0  0  0  0  0  0  0
    8.0070    0.3420    1.8000 O   0  0  0  0  0  0  0  0  0  0  0  0
    9.2620    0.1480    2.3840 C   0  0  0  0  0  0  0  0  0  0  0  0
   -1.3050    0.6000    0.8470 C   0  0  0  0  0  0  0  0  0  0  0  0
   -2.4670    1.3170    1.0750 C   0  0  0  0  0  0  0  0  0  0  0  0
   -2.4900    2.3530    2.0020 C   0  0  0  0  0  0  0  0  0  0  0  0
   -3.6380    3.0720    2.2350 C   0  0  0  0  0  0  0  0  0  0  0  0
   -3.6710    4.1640    3.2100 C   0  0  0  0  0  0  0  0  0  0  0  0
   -2.4170    4.5040    3.9480 C   0  0  0  0  0  0  0  0  0  0  0  0
   -4.7010    4.8250    3.4530 O   0  0  0  0  0  0  0  0  0  0  0  0
   -4.8060    2.7710    1.5380 C   0  0  0  0  0  0  0  0  0  0  0  0
   -6.0760    3.5080    1.7420 C   0  0  0  0  0  0  0  0  0  0  0  0
   -4.7920    1.7460    0.6170 C   0  0  0  0  0  0  0  0  0  0  0  0
   -3.6400    1.0220    0.3840 C   0  0  0  0  0  0  0  0  0  0  0  0
  1  2  2  0
  2  3  1  0
  2  6  1  0
  3  4  1  0
  4  5  1  0
  6  5  1  6
  6  7  1  0
  7  8  1  1
  7  9  1  0
  9 10  2  0
  9 38  1  0
 10 11  1  0
 11 12  1  0
 11 28  2  0
 12 13  1  0
 13 14  1  0
 14 15  1  0
 15 16  2  0
 15 17  1  0
 17 18  1  0
 18 19  1  0
 19 20  2  0
 19 25  1  0
 20 21  1  0
 21 22  2  0
 22 23  1  0
 22 24  1  0
 24 25  2  0
 25 26  1  0
 26 27  1  0
 28 29  1  0
 29 30  2  0
 29 38  1  0
 30 31  1  0
 31 32  1  0
 31 35  2  0
 32 33  1  0
 32 34  2  0
 35 36  1  0
 35 37  1  0
 37 38  2  0
M  END
