
     RDKit          3D

 38 41  0  0  0  0  0  0  0  0999 V2000
   -2.3810    3.1100   -3.6100 C   0  0  0  0  0  0  0  0  0  0  0  0
   -2.7470    2.7140   -2.3160 O   0  0  0  0  0  0  0  0  0  0  0  0
   -2.6570    3.4780   -1.1730 C   0  0  0  0  0  0  0  0  0  0  0  0
   -2.1890    4.7670   -1.1690 C   0  0  0  0  0  0  0  0  0  0  0  0
   -2.1310    5.4660    0.0100 C   0  0  0  0  0  0  0  0  0  0  0  0
   -2.5530    4.8330    1.1640 C   0  0  0  0  0  0  0  0  0  0  0  0
   -2.5190    5.5160    2.4430 C   0  0  0  0  0  0  0  0  0  0  0  0
   -2.4780    6.0570    3.4650 N   0  0  0  0  0  0  0  0  0  0  0  0
   -3.0260    3.5430    1.1870 C   0  0  0  0  0  0  0  0  0  0  0  0
   -3.0820    2.8490    0.0080 C   0  0  0  0  0  0  0  0  0  0  0  0
   -3.5710    1.4340   -0.0560 C   0  0  0  0  0  0  0  0  0  0  0  0
   -2.4090    0.5610   -0.1890 C   0  0  0  0  0  0  0  0  0  0  0  0
   -1.1470    1.0630   -0.1250 C   0  0  0  0  0  0  0  0  0  0  0  0
    0.0170    0.2870   -0.2460 C   0  0  0  0  0  0  0  0  0  0  0  0
    1.1950    0.9050   -0.1660 O   0  0  0  0  0  0  0  0  0  0  0  0
    2.5150    0.7330   -0.1860 C   0  0  0  0  0  0  0  0  0  0  0  0
    3.1690   -0.1010    0.8960 C   0  0  1  0  0  0  0  0  0  0  0  0
    2.7680   -1.4060    0.9580 O   0  0  0  0  0  0  0  0  0  0  0  0
    4.6480   -0.0380    0.6220 C   0  0  0  0  0  0  0  0  0  0  0  0
    5.2590   -0.8070   -0.3410 C   0  0  0  0  0  0  0  0  0  0  0  0
    6.6280   -0.7070   -0.5570 C   0  0  0  0  0  0  0  0  0  0  0  0
    7.4250    0.1470    0.1660 C   0  0  0  0  0  0  0  0  0  0  0  0
    8.8820    0.2260   -0.0970 C   0  0  2  0  0  0  0  0  0  0  0  0
    9.6830   -0.5810    0.9240 C   0  0  0  0  0  0  0  0  0  0  0  0
    9.3140    1.5470   -0.1490 O   0  0  0  0  0  0  0  0  0  0  0  0
    6.8180    0.9190    1.1320 C   0  0  0  0  0  0  0  0  0  0  0  0
    5.4470    0.8250    1.3550 C   0  0  0  0  0  0  0  0  0  0  0  0
   -0.1820   -1.0580   -0.4400 C   0  0  0  0  0  0  0  0  0  0  0  0
   -1.4820   -1.5730   -0.5050 C   0  0  0  0  0  0  0  0  0  0  0  0
   -2.6060   -0.7960   -0.3830 C   0  0  0  0  0  0  0  0  0  0  0  0
   -3.9250   -1.3920   -0.5100 C   0  0  0  0  0  0  0  0  0  0  0  0
   -3.8620   -2.8320   -0.6230 N   0  0  0  0  0  0  0  0  0  0  0  0
   -5.1240   -3.3810   -1.0770 C   0  0  0  0  0  0  0  0  0  0  0  0
   -6.2040   -3.4400   -0.0620 C   0  0  0  0  0  0  0  0  0  0  0  0
   -5.7400   -4.4210    1.0140 C   0  0  1  0  0  0  0  0  0  0  0  0
   -5.5780   -5.6930    0.5100 O   0  0  0  0  0  0  0  0  0  0  0  0
   -4.4950   -3.8280    1.5840 C   0  0  0  0  0  0  0  0  0  0  0  0
   -3.4340   -3.4410    0.6240 C   0  0  0  0  0  0  0  0  0  0  0  0
  1  2  1  0
  2  3  1  0
  3  4  2  0
  3 10  1  0
  4  5  1  0
  5  6  2  0
  6  7  1  0
  6  9  1  0
  7  8  3  0
  9 10  2  0
 10 11  1  0
 11 12  1  0
 12 13  2  0
 12 30  1  0
 13 14  1  0
 14 15  1  0
 14 28  2  0
 15 16  1  0
 16 17  1  0
 17 18  1  6
 17 19  1  0
 19 20  2  0
 19 27  1  0
 20 21  1  0
 21 22  2  0
 22 23  1  0
 22 26  1  0
 23 24  1  1
 23 25  1  0
 26 27  2  0
 28 29  1  0
 29 30  2  0
 30 31  1  0
 31 32  1  0
 32 33  1  0
 32 38  1  0
 33 34  1  0
 34 35  1  0
 35 36  1  6
 35 37  1  0
 37 38  1  0
M  END
