
     RDKit          3D

 38 41  0  0  0  0  0  0  0  0999 V2000
    6.1920   -3.1520   -2.3730 C   0  0  0  0  0  0  0  0  0  0  0  0
    5.4020   -2.3640   -1.5130 O   0  0  0  0  0  0  0  0  0  0  0  0
    6.0260   -1.5580   -0.5590 C   0  0  0  0  0  0  0  0  0  0  0  0
    7.4100   -1.4590   -0.3840 C   0  0  0  0  0  0  0  0  0  0  0  0
    7.6330   -0.5730    0.6400 C   0  0  0  0  0  0  0  0  0  0  0  0
    9.0080   -0.2140    1.1120 C   0  0  0  0  0  0  0  0  0  0  0  0
    6.4720   -0.1770    1.0400 O   0  0  0  0  0  0  0  0  0  0  0  0
    5.4760   -0.7140    0.3800 C   0  0  0  0  0  0  0  0  0  0  0  0
    4.0260   -0.4640    0.6030 C   0  0  0  0  0  0  0  0  0  0  0  0
    3.1150   -1.0400   -0.1320 C   0  0  0  0  0  0  0  0  0  0  0  0
    1.6650   -0.7960    0.0830 C   0  0  0  0  0  0  0  0  0  0  0  0
    0.8330   -1.4740   -0.7600 O   0  0  0  0  0  0  0  0  0  0  0  0
    0.6540   -1.3420   -2.1170 C   0  0  0  0  0  0  0  0  0  0  0  0
    0.0680   -0.1380   -2.6860 C   0  0  0  0  0  0  0  0  0  0  0  0
    0.4670    0.2130   -3.8480 O   0  0  0  0  0  0  0  0  0  0  0  0
   -0.9340    0.6710   -2.0210 C   0  0  0  0  0  0  0  0  0  0  0  0
   -1.5390    0.3250   -0.8410 C   0  0  0  0  0  0  0  0  0  0  0  0
   -2.5570    1.0800   -0.2430 C   0  0  0  0  0  0  0  0  0  0  0  0
   -3.0720    0.6290    1.0280 C   0  0  0  0  0  0  0  0  0  0  0  0
   -4.3430   -0.0490    1.1140 C   0  0  0  0  0  0  0  0  0  0  0  0
   -4.5150   -1.3370    0.6580 C   0  0  0  0  0  0  0  0  0  0  0  0
   -5.7190   -1.9930    0.7930 C   0  0  0  0  0  0  0  0  0  0  0  0
   -6.7880   -1.3800    1.3880 C   0  0  0  0  0  0  0  0  0  0  0  0
   -8.1100   -2.0290    1.5640 C   0  0  0  0  0  0  0  0  0  0  0  0
   -6.6470   -0.0930    1.8520 C   0  0  0  0  0  0  0  0  0  0  0  0
   -5.4320    0.5440    1.7070 C   0  0  0  0  0  0  0  0  0  0  0  0
   -2.9380    2.2050   -0.8950 C   0  0  0  0  0  0  0  0  0  0  0  0
   -4.0220    3.0710   -0.4160 C   0  0  0  0  0  0  0  0  0  0  0  0
   -5.3200    2.5260   -0.8510 C   0  0  0  0  0  0  0  0  0  0  0  0
   -6.5420    3.1600   -0.5120 N   0  0  0  0  0  0  0  0  0  0  0  0
   -5.3800    1.4780   -1.5420 O   0  0  0  0  0  0  0  0  0  0  0  0
   -2.3360    2.5910   -2.1070 C   0  0  0  0  0  0  0  0  0  0  0  0
   -1.3540    1.8390   -2.6610 C   0  0  0  0  0  0  0  0  0  0  0  0
   -0.7730    2.2610   -3.8810 N   0  0  0  0  0  0  0  0  0  0  0  0
    1.3590    0.0200    1.0340 C   0  0  0  0  0  0  0  0  0  0  0  0
    2.2890    0.7210    1.9120 C   0  0  0  0  0  0  0  0  0  0  0  0
    3.7040    0.4510    1.6920 C   0  0  1  0  0  0  0  0  0  0  0  0
    4.2640   -0.1870    2.9900 C   0  0  0  0  0  0  0  0  0  0  0  0
  1  2  1  0
  2  3  1  0
  3  4  1  0
  3  8  2  0
  4  5  2  0
  5  6  1  0
  5  7  1  0
  7  8  1  0
  8  9  1  0
  9 10  2  0
  9 37  1  0
 10 11  1  0
 11 12  1  0
 11 35  2  0
 12 13  1  0
 13 14  1  0
 14 15  2  0
 14 16  1  0
 16 17  2  0
 16 33  1  0
 17 18  1  0
 18 19  1  0
 18 27  2  0
 19 20  1  0
 20 21  2  0
 20 26  1  0
 21 22  1  0
 22 23  2  0
 23 24  1  0
 23 25  1  0
 25 26  2  0
 27 28  1  0
 27 32  1  0
 28 29  1  0
 29 30  1  0
 29 31  2  0
 32 33  2  0
 33 34  1  0
 35 36  1  0
 36 37  1  0
 37 38  1  1
M  END
