
     RDKit          3D

 38 39  0  0  0  0  0  0  0  0999 V2000
   -7.4490    3.5530    2.2840 C   0  0  0  0  0  0  0  0  0  0  0  0
   -6.3850    2.5020    2.4010 C   0  0  0  0  0  0  0  0  0  0  0  0
   -5.4170    2.7280    3.1910 O   0  0  0  0  0  0  0  0  0  0  0  0
   -6.4550    1.3120    1.6640 N   0  0  0  0  0  0  0  0  0  0  0  0
   -5.3790    0.3200    1.8180 C   0  0  1  0  0  0  0  0  0  0  0  0
   -6.0550   -0.9520    2.1920 C   0  0  0  0  0  0  0  0  0  0  0  0
   -5.1670   -2.0990    2.4050 C   0  0  0  0  0  0  0  0  0  0  0  0
   -3.9440   -2.0750    2.3030 O   0  0  0  0  0  0  0  0  0  0  0  0
   -5.7420   -3.3330    2.7540 O   0  0  0  0  0  0  0  0  0  0  0  0
   -4.6390    0.2280    0.5230 C   0  0  0  0  0  0  0  0  0  0  0  0
   -5.3180    0.2800   -0.5260 O   0  0  0  0  0  0  0  0  0  0  0  0
   -3.2510    0.0930    0.4540 N   0  0  0  0  0  0  0  0  0  0  0  0
   -2.5230    0.0060   -0.8110 C   0  0  0  0  0  0  0  0  0  0  0  0
   -1.0160   -0.1170   -0.5310 C   0  0  2  0  0  0  0  0  0  0  0  0
   -0.3410   -0.1900   -1.8380 C   0  0  0  0  0  0  0  0  0  0  0  0
    1.1300   -0.2990   -1.8870 C   0  0  1  0  0  0  0  0  0  0  0  0
    1.8400    0.8300   -1.2350 C   0  0  0  0  0  0  0  0  0  0  0  0
    1.3290    1.6720   -0.4760 O   0  0  0  0  0  0  0  0  0  0  0  0
    3.2460    0.9520   -1.5080 N   0  0  0  0  0  0  0  0  0  0  0  0
    4.0060    2.0360   -0.8790 C   0  0  1  0  0  0  0  0  0  0  0  0
    5.3870    1.6160   -0.4930 C   0  0  0  0  0  0  0  0  0  0  0  0
    5.3450    0.4890    0.4550 C   0  0  0  0  0  0  0  0  0  0  0  0
    5.3650   -0.8280    0.0130 C   0  0  0  0  0  0  0  0  0  0  0  0
    5.3520   -1.8950    0.9000 C   0  0  0  0  0  0  0  0  0  0  0  0
    5.3180   -1.6890    2.2620 C   0  0  0  0  0  0  0  0  0  0  0  0
    5.3050   -2.7700    3.1220 O   0  0  0  0  0  0  0  0  0  0  0  0
    5.2980   -0.3920    2.7080 C   0  0  0  0  0  0  0  0  0  0  0  0
    5.3120    0.6930    1.8220 C   0  0  0  0  0  0  0  0  0  0  0  0
    4.0700    3.1860   -1.8680 C   0  0  0  0  0  0  0  0  0  0  0  0
    3.5130    3.0740   -2.9800 O   0  0  0  0  0  0  0  0  0  0  0  0
    4.7280    4.3570   -1.5690 O   0  0  0  0  0  0  0  0  0  0  0  0
    1.7170   -1.5650   -1.3880 C   0  0  0  0  0  0  0  0  0  0  0  0
    1.5780   -2.5300   -2.5280 C   0  0  0  0  0  0  0  0  0  0  0  0
    2.0720   -1.6510   -3.6860 C   0  0  0  0  0  0  0  0  0  0  0  0
    1.5450   -0.2730   -3.3510 C   0  0  0  0  0  0  0  0  0  0  0  0
   -0.8780   -1.2870    0.3500 C   0  0  0  0  0  0  0  0  0  0  0  0
   -0.3910   -1.1770    1.5070 O   0  0  0  0  0  0  0  0  0  0  0  0
   -1.2880   -2.5410   -0.0840 O   0  0  0  0  0  0  0  0  0  0  0  0
  1  2  1  0
  2  3  2  0
  2  4  1  0
  4  5  1  0
  5  6  1  6
  5 10  1  0
  6  7  1  0
  7  8  2  0
  7  9  1  0
 10 11  2  0
 10 12  1  0
 12 13  1  0
 14 13  1  6
 14 15  1  0
 14 36  1  0
 16 15  1  6
 16 17  1  0
 16 32  1  0
 16 35  1  0
 17 18  2  0
 17 19  1  0
 19 20  1  0
 20 21  1  6
 20 29  1  0
 21 22  1  0
 22 23  2  0
 22 28  1  0
 23 24  1  0
 24 25  2  0
 25 26  1  0
 25 27  1  0
 27 28  2  0
 29 30  2  0
 29 31  1  0
 32 33  1  0
 33 34  1  0
 34 35  1  0
 36 37  2  0
 36 38  1  0
M  END
