
     RDKit          3D

 40 43  0  0  0  0  0  0  0  0999 V2000
   -0.6560   -0.2350   -0.4350 N   0  0  0  0  0  0  0  0  0  0  0  0
   -0.7820    0.6310   -1.5560 C   0  0  0  0  0  0  0  0  0  0  0  0
   -1.9450    0.8560   -2.0010 N   0  0  0  0  0  0  0  0  0  0  0  0
   -3.1430    0.2360   -1.3720 C   0  0  2  0  0  0  0  0  0  0  0  0
   -3.5680   -0.9530   -2.1720 C   0  0  0  0  0  0  0  0  0  0  0  0
   -4.9950   -1.8480   -1.6320 S   0  0  0  0  0  0  0  0  0  0  0  0
   -4.8580   -2.7370   -0.0990 C   0  0  0  0  0  0  0  0  0  0  0  0
   -4.8270   -1.8400    1.0800 C   0  0  1  0  0  0  0  0  0  0  0  0
   -6.1390   -1.0400    1.0560 C   0  0  0  0  0  0  0  0  0  0  0  0
   -6.2690   -0.6810    2.5250 C   0  0  0  0  0  0  0  0  0  0  0  0
   -6.0660   -2.0100    3.1190 N   0  0  0  0  0  0  0  0  0  0  0  0
   -4.9950   -2.6100    2.3880 C   0  0  0  0  0  0  0  0  0  0  0  0
   -4.1400    1.3200   -1.3260 C   0  0  0  0  0  0  0  0  0  0  0  0
   -5.3070    1.2540   -2.0250 C   0  0  0  0  0  0  0  0  0  0  0  0
   -6.2490    2.2810   -1.9870 C   0  0  0  0  0  0  0  0  0  0  0  0
   -5.9580    3.3780   -1.2100 C   0  0  0  0  0  0  0  0  0  0  0  0
   -4.7840    3.4610   -0.4980 C   0  0  0  0  0  0  0  0  0  0  0  0
   -3.8690    2.4310   -0.5530 C   0  0  0  0  0  0  0  0  0  0  0  0
   -2.3750    2.5770    0.3780 Cl  0  0  0  0  0  0  0  0  0  0  0  0
    0.3830    1.2420   -2.1800 C   0  0  0  0  0  0  0  0  0  0  0  0
    0.3400    2.0740   -3.2700 C   0  0  0  0  0  0  0  0  0  0  0  0
    1.4750    2.6320   -3.8250 C   0  0  0  0  0  0  0  0  0  0  0  0
    2.6970    2.3450   -3.2650 C   0  0  0  0  0  0  0  0  0  0  0  0
    2.7900    1.4960   -2.1450 C   0  0  0  0  0  0  0  0  0  0  0  0
    4.0750    1.2550   -1.6270 N   0  0  0  0  0  0  0  0  0  0  0  0
    4.4410    0.4530   -0.5410 C   0  0  0  0  0  0  0  0  0  0  0  0
    3.5700   -0.1590    0.0990 O   0  0  0  0  0  0  0  0  0  0  0  0
    5.8620    0.3050   -0.1180 C   0  0  0  0  0  0  0  0  0  0  0  0
    6.7240    0.9190   -0.7500 O   0  0  0  0  0  0  0  0  0  0  0  0
    6.2140   -0.5100    0.9710 N   0  0  0  0  0  0  0  0  0  0  0  0
    7.4980   -0.7600    1.5010 C   0  0  0  0  0  0  0  0  0  0  0  0
    8.6110   -0.1660    0.9670 C   0  0  0  0  0  0  0  0  0  0  0  0
    9.8810   -0.4210    1.5020 C   0  0  0  0  0  0  0  0  0  0  0  0
   10.0250   -1.2710    2.5700 C   0  0  0  0  0  0  0  0  0  0  0  0
   11.3270   -1.5660    3.1600 C   0  0  0  0  0  0  0  0  0  0  0  0
   12.3360   -1.0010    2.6460 O   0  0  0  0  0  0  0  0  0  0  0  0
    8.9120   -1.8600    3.0970 C   0  0  0  0  0  0  0  0  0  0  0  0
    7.6710   -1.6150    2.5800 C   0  0  0  0  0  0  0  0  0  0  0  0
    6.2230   -2.3670    3.2470 Cl  0  0  0  0  0  0  0  0  0  0  0  0
    1.6500    0.9730   -1.6370 C   0  0  0  0  0  0  0  0  0  0  0  0
  1  2  1  0
  2  3  2  3
  2 20  1  0
  3  4  1  0
  4  5  1  6
  4 13  1  0
  5  6  1  0
  6  7  1  0
  8  7  1  6
  8  9  1  0
  8 12  1  0
  9 10  1  0
 10 11  1  0
 11 12  1  0
 13 14  2  0
 13 18  1  0
 14 15  1  0
 15 16  2  0
 16 17  1  0
 17 18  2  0
 18 19  1  0
 20 21  2  0
 20 40  1  0
 21 22  1  0
 22 23  2  0
 23 24  1  0
 24 25  1  0
 24 40  2  0
 25 26  1  0
 26 27  2  0
 26 28  1  0
 28 29  2  0
 28 30  1  0
 30 31  1  0
 31 32  2  0
 31 38  1  0
 32 33  1  0
 33 34  2  0
 34 35  1  0
 34 37  1  0
 35 36  2  0
 37 38  2  0
 38 39  1  0
M  CHG  2   3   1  11   1
M  END
