
     RDKit          3D

 40 43  0  0  0  0  0  0  0  0999 V2000
   -9.1020   -2.0620   -1.2670 C   0  0  0  0  0  0  0  0  0  0  0  0
   -7.9200   -1.9260   -0.6930 C   0  0  0  0  0  0  0  0  0  0  0  0
   -7.4550   -0.6120   -0.2000 C   0  0  0  0  0  0  0  0  0  0  0  0
   -6.3050   -0.4510    0.3650 C   0  0  0  0  0  0  0  0  0  0  0  0
   -5.8250    0.8720    0.8670 C   0  0  2  0  0  0  0  0  0  0  0  0
   -6.8770    1.9070    0.8650 C   0  0  0  0  0  0  0  0  0  0  0  0
   -6.4490    3.2410    1.3940 C   0  0  0  0  0  0  0  0  0  0  0  0
   -5.4130    3.9170    0.6980 N   0  0  0  0  0  0  0  0  0  0  0  0
   -4.5770    1.1900    0.1450 C   0  0  0  0  0  0  0  0  0  0  0  0
   -3.5110    1.3300    0.8040 O   0  0  0  0  0  0  0  0  0  0  0  0
   -4.4920    1.3490   -1.2560 N   0  0  0  0  0  0  0  0  0  0  0  0
   -3.2130    1.6600   -1.8520 C   0  0  0  0  0  0  0  0  0  0  0  0
   -2.2510    0.5730   -1.5540 C   0  0  0  0  0  0  0  0  0  0  0  0
   -0.9150    0.8070   -1.3300 C   0  0  0  0  0  0  0  0  0  0  0  0
   -0.0480   -0.2080   -1.0610 C   0  0  0  0  0  0  0  0  0  0  0  0
    1.4080    0.1210   -0.8250 C   0  0  0  0  0  0  0  0  0  0  0  0
    2.1150    0.9750   -0.7830 N   0  0  0  0  0  0  0  0  0  0  0  0
    3.4320    0.9780   -0.5380 C   0  0  0  0  0  0  0  0  0  0  0  0
    4.3240    2.5090   -0.5340 Cl  0  0  0  0  0  0  0  0  0  0  0  0
    3.9710   -0.2020   -0.3120 C   0  0  0  0  0  0  0  0  0  0  0  0
    5.3480   -0.7020   -0.0010 C   0  0  0  0  0  0  0  0  0  0  0  0
    5.4760   -1.9480    0.1560 O   0  0  0  0  0  0  0  0  0  0  0  0
    6.4580    0.1270    0.1180 N   0  0  0  0  0  0  0  0  0  0  0  0
    7.7570   -0.3180    0.4120 C   0  0  0  0  0  0  0  0  0  0  0  0
    8.1430   -1.5630    0.8090 C   0  0  0  0  0  0  0  0  0  0  0  0
    9.4790   -1.9010    1.0650 C   0  0  0  0  0  0  0  0  0  0  0  0
    9.8220   -3.2780    1.4930 C   0  0  0  0  0  0  0  0  0  0  0  0
   10.4580   -0.9430    0.9140 C   0  0  0  0  0  0  0  0  0  0  0  0
   12.1220   -1.3760    1.2370 Cl  0  0  0  0  0  0  0  0  0  0  0  0
   10.1110    0.3350    0.5140 C   0  0  0  0  0  0  0  0  0  0  0  0
   11.1980    1.3390    0.3630 C   0  0  0  0  0  0  0  0  0  0  0  0
    8.8020    0.6130    0.2770 C   0  0  0  0  0  0  0  0  0  0  0  0
    2.5610   -1.3250   -0.4560 S   0  0  0  0  0  0  0  0  0  0  0  0
   -0.5260   -1.4770   -1.0150 C   0  0  0  0  0  0  0  0  0  0  0  0
   -1.8570   -1.7230   -1.2370 C   0  0  0  0  0  0  0  0  0  0  0  0
   -2.6950   -0.7180   -1.4990 N   0  0  0  0  0  0  0  0  0  0  0  0
   -5.4330   -1.6080    0.5220 C   0  0  0  0  0  0  0  0  0  0  0  0
   -5.7440   -2.8240    0.1200 C   0  0  0  0  0  0  0  0  0  0  0  0
   -7.0250   -3.0590   -0.5210 C   0  0  0  0  0  0  0  0  0  0  0  0
   -7.3420   -4.2180   -0.9120 O   0  0  0  0  0  0  0  0  0  0  0  0
  1  2  2  0
  2  3  1  0
  2 39  1  0
  3  4  2  0
  4  5  1  0
  4 37  1  0
  5  6  1  6
  5  9  1  0
  6  7  1  0
  7  8  1  0
  9 10  2  0
  9 11  1  0
 11 12  1  0
 12 13  1  0
 13 14  2  0
 13 36  1  0
 14 15  1  0
 15 16  1  0
 15 34  2  0
 16 17  2  0
 16 33  1  0
 17 18  1  0
 18 19  1  0
 18 20  2  0
 20 21  1  0
 20 33  1  0
 21 22  2  0
 21 23  1  0
 23 24  1  0
 24 25  2  0
 24 32  1  0
 25 26  1  0
 26 27  1  0
 26 28  2  0
 28 29  1  0
 28 30  1  0
 30 31  1  0
 30 32  2  0
 34 35  1  0
 35 36  2  0
 37 38  2  0
 38 39  1  0
 39 40  2  0
M  CHG  2   8   1  36   1
M  END
