
     RDKit          3D

 40 41  0  0  0  0  0  0  0  0999 V2000
    5.3740    0.6670   -3.3410 C   0  0  0  0  0  0  0  0  0  0  0  0
    6.1850    1.5670   -2.0080 S   0  0  2  0  0  0  0  0  0  0  0  0
    6.2250    3.0130   -2.4880 O   0  0  0  0  0  0  0  0  0  0  0  0
    7.5930    1.1040   -1.9790 O   0  0  0  0  0  0  0  0  0  0  0  0
    5.2840    1.4610   -0.6410 N   0  0  0  0  0  0  0  0  0  0  0  0
    4.9890    0.2600    0.0010 C   0  0  1  0  0  0  0  0  0  0  0  0
    5.2870    0.0310    1.4150 C   0  0  0  0  0  0  0  0  0  0  0  0
    6.7290    0.1600    1.8200 C   0  0  0  0  0  0  0  0  0  0  0  0
    7.6660   -0.7630    1.1370 C   0  0  0  0  0  0  0  0  0  0  0  0
    9.1010   -0.5670    1.6110 C   0  0  0  0  0  0  0  0  0  0  0  0
    9.5210    0.8200    1.3370 N   0  0  0  0  0  0  0  0  0  0  0  0
    3.5330   -0.0550   -0.2780 C   0  0  0  0  0  0  0  0  0  0  0  0
    3.1290    0.3590   -1.3840 O   0  0  0  0  0  0  0  0  0  0  0  0
    2.6690   -0.7280    0.5550 N   0  0  0  0  0  0  0  0  0  0  0  0
    1.2870   -1.0640    0.3980 C   0  0  0  0  0  0  0  0  0  0  0  0
    0.2720   -0.0010    0.3210 C   0  0  2  0  0  0  0  0  0  0  0  0
   -1.1320   -0.4230    0.2500 C   0  0  0  0  0  0  0  0  0  0  0  0
   -1.7710   -1.2770   -0.7140 C   0  0  1  0  0  0  0  0  0  0  0  0
   -3.2460   -1.2770   -0.2550 C   0  0  0  0  0  0  0  0  0  0  0  0
   -3.7040   -2.1890    0.4630 O   0  0  0  0  0  0  0  0  0  0  0  0
   -4.1100   -0.2270   -0.6370 N   0  0  0  0  0  0  0  0  0  0  0  0
   -5.5030   -0.2180   -0.1490 C   0  0  1  0  0  0  0  0  0  0  0  0
   -5.6710    1.1940    0.4290 C   0  0  0  0  0  0  0  0  0  0  0  0
   -7.0390    1.4190    0.9850 C   0  0  0  0  0  0  0  0  0  0  0  0
   -7.2730    1.1320    2.2940 C   0  0  0  0  0  0  0  0  0  0  0  0
   -8.5190    1.3270    2.8370 C   0  0  0  0  0  0  0  0  0  0  0  0
   -9.5510    1.8270    2.0290 C   0  0  0  0  0  0  0  0  0  0  0  0
  -10.7760    2.0060    2.6120 O   0  0  0  0  0  0  0  0  0  0  0  0
   -9.2920    2.1120    0.7070 C   0  0  0  0  0  0  0  0  0  0  0  0
   -8.0440    1.9090    0.1890 C   0  0  0  0  0  0  0  0  0  0  0  0
   -6.4990   -0.4280   -1.1830 C   0  0  0  0  0  0  0  0  0  0  0  0
   -6.1930   -0.4900   -2.3960 O   0  0  0  0  0  0  0  0  0  0  0  0
   -7.8450   -0.5740   -0.8910 O   0  0  0  0  0  0  0  0  0  0  0  0
   -1.8070   -0.9370   -2.1500 C   0  0  0  0  0  0  0  0  0  0  0  0
   -2.7420   -2.0430   -2.6710 C   0  0  0  0  0  0  0  0  0  0  0  0
   -2.4340   -3.2460   -1.8030 C   0  0  0  0  0  0  0  0  0  0  0  0
   -1.4390   -2.7450   -0.7390 C   0  0  0  0  0  0  0  0  0  0  0  0
    0.6090    1.1110   -0.5560 C   0  0  0  0  0  0  0  0  0  0  0  0
    1.1480    2.1540   -0.0450 O   0  0  0  0  0  0  0  0  0  0  0  0
    0.3890    1.1460   -1.9450 O   0  0  0  0  0  0  0  0  0  0  0  0
  2  1  1  6
  2  3  2  0
  2  4  2  0
  2  5  1  0
  5  6  1  0
  6  7  1  1
  6 12  1  0
  7  8  1  0
  8  9  1  0
  9 10  1  0
 10 11  1  0
 12 13  2  0
 12 14  1  0
 14 15  1  0
 16 15  1  6
 16 17  1  0
 16 38  1  0
 18 17  1  1
 18 19  1  0
 18 34  1  0
 18 37  1  0
 19 20  2  0
 19 21  1  0
 21 22  1  0
 22 23  1  6
 22 31  1  0
 23 24  1  0
 24 25  2  0
 24 30  1  0
 25 26  1  0
 26 27  2  0
 27 28  1  0
 27 29  1  0
 29 30  2  0
 31 32  2  0
 31 33  1  0
 34 35  1  0
 35 36  1  0
 36 37  1  0
 38 39  2  0
 38 40  1  0
M  CHG  1  11   1
M  END
