
     RDKit          3D

 40 43  0  0  0  0  0  0  0  0999 V2000
    0.8950    3.8180    2.9700 C   0  0  0  0  0  0  0  0  0  0  0  0
    2.0440    2.9730    2.4960 C   0  0  0  0  0  0  0  0  0  0  0  0
    3.3360    3.3790    2.6830 C   0  0  0  0  0  0  0  0  0  0  0  0
    4.3340    2.5530    2.2220 C   0  0  0  0  0  0  0  0  0  0  0  0
    4.0520    1.3510    1.5900 C   0  0  0  0  0  0  0  0  0  0  0  0
    2.7700    0.9260    1.3950 C   0  0  0  0  0  0  0  0  0  0  0  0
    2.3470   -0.2590    0.7820 N   0  0  0  0  0  0  0  0  0  0  0  0
    3.1750   -1.2550    0.2020 C   0  0  0  0  0  0  0  0  0  0  0  0
    4.4130   -1.1090    0.2100 O   0  0  0  0  0  0  0  0  0  0  0  0
    2.5470   -2.4880   -0.4230 C   0  0  0  0  0  0  0  0  0  0  0  0
    3.6630   -3.3130   -0.9450 C   0  0  0  0  0  0  0  0  0  0  0  0
    4.3290   -4.2620   -0.2230 C   0  0  0  0  0  0  0  0  0  0  0  0
    5.3460   -4.9640   -0.8290 C   0  0  0  0  0  0  0  0  0  0  0  0
    6.2020   -6.1870    0.1050 Cl  0  0  0  0  0  0  0  0  0  0  0  0
    5.7240   -4.7440   -2.1530 C   0  0  0  0  0  0  0  0  0  0  0  0
    5.0490   -3.7890   -2.8700 C   0  0  0  0  0  0  0  0  0  0  0  0
    5.3900   -3.5010   -4.2720 C   0  0  0  0  0  0  0  0  0  0  0  0
    6.5700   -4.1860   -4.7350 N   0  0  0  0  0  0  0  0  0  0  0  0
    4.0390   -3.0970   -2.2570 C   0  0  0  0  0  0  0  0  0  0  0  0
    1.7770    1.7770    1.8690 C   0  0  0  0  0  0  0  0  0  0  0  0
    0.3940    1.4180    1.6920 N   0  0  0  0  0  0  0  0  0  0  0  0
   -0.3470    0.6980    2.6340 C   0  0  0  0  0  0  0  0  0  0  0  0
    0.3220    0.4090    3.6950 O   0  0  0  0  0  0  0  0  0  0  0  0
   -1.7430    0.2800    2.5210 C   0  0  0  0  0  0  0  0  0  0  0  0
   -2.6030   -0.4670    3.9300 S   0  0  0  0  0  0  0  0  0  0  0  0
   -4.1130   -0.7100    3.1780 C   0  0  0  0  0  0  0  0  0  0  0  0
   -3.9220   -0.2250    1.8910 C   0  0  0  0  0  0  0  0  0  0  0  0
   -2.6940    0.2690    1.6050 C   0  0  0  0  0  0  0  0  0  0  0  0
   -2.4080    0.6720    0.1810 C   0  0  0  0  0  0  0  0  0  0  0  0
   -1.4210    0.1500   -0.3990 O   0  0  0  0  0  0  0  0  0  0  0  0
   -3.1890    1.5990   -0.5180 N   0  0  0  0  0  0  0  0  0  0  0  0
   -2.8430    1.9130   -1.8740 C   0  0  0  0  0  0  0  0  0  0  0  0
   -3.7540    2.9110   -2.5150 C   0  0  1  0  0  0  0  0  0  0  0  0
   -3.8170    4.2440   -1.8430 C   0  0  0  0  0  0  0  0  0  0  0  0
   -3.4140    3.0770   -3.9270 N   0  0  0  0  0  0  0  0  0  0  0  0
   -5.1880   -0.3920    1.0650 C   0  0  0  0  0  0  0  0  0  0  0  0
   -6.2390    0.3630    1.8420 C   0  0  0  0  0  0  0  0  0  0  0  0
   -6.5130   -0.2770    3.1750 C   0  0  1  0  0  0  0  0  0  0  0  0
   -8.0600   -1.1870    3.0900 Cl  0  0  0  0  0  0  0  0  0  0  0  0
   -5.4540   -1.2730    3.5810 C   0  0  0  0  0  0  0  0  0  0  0  0
  1  2  1  0
  2  3  2  0
  2 20  1  0
  3  4  1  0
  4  5  2  0
  5  6  1  0
  6  7  1  0
  6 20  2  0
  7  8  1  0
  8  9  2  0
  8 10  1  0
 10 11  1  0
 11 12  2  0
 11 19  1  0
 12 13  1  0
 13 14  1  0
 13 15  2  0
 15 16  1  0
 16 17  1  0
 16 19  2  0
 17 18  1  0
 20 21  1  0
 21 22  1  0
 22 23  2  0
 22 24  1  0
 24 25  1  0
 24 28  2  0
 25 26  1  0
 26 27  2  0
 26 40  1  0
 27 28  1  0
 27 36  1  0
 28 29  1  0
 29 30  2  0
 29 31  1  0
 31 32  1  0
 32 33  1  0
 33 34  1  1
 33 35  1  0
 36 37  1  0
 37 38  1  0
 38 39  1  6
 38 40  1  0
M  CHG  2  18   1  35   1
M  END
