
     RDKit          3D

 40 43  0  0  0  0  0  0  0  0999 V2000
   11.1060   -0.7080   -0.0780 C   0  0  0  0  0  0  0  0  0  0  0  0
    9.8340   -0.0130   -0.5420 C   0  0  0  0  0  0  0  0  0  0  0  0
    8.7110   -0.1040    0.1070 N   0  0  0  0  0  0  0  0  0  0  0  0
    7.6480    0.4210   -0.1960 C   0  0  0  0  0  0  0  0  0  0  0  0
    6.2440    0.5090    0.3150 C   0  0  0  0  0  0  0  0  0  0  0  0
    5.3750   -0.6130   -0.2620 C   0  0  0  0  0  0  0  0  0  0  0  0
    3.9840   -0.4060    0.3360 C   0  0  0  0  0  0  0  0  0  0  0  0
    3.0230   -1.4600   -0.1590 C   0  0  1  0  0  0  0  0  0  0  0  0
    3.4620   -2.8560    0.2050 C   0  0  0  0  0  0  0  0  0  0  0  0
    1.6640   -1.2180    0.2210 N   0  0  0  0  0  0  0  0  0  0  0  0
    1.4540   -0.7090    1.4960 C   0  0  0  0  0  0  0  0  0  0  0  0
    2.0750   -1.2130    2.6170 C   0  0  0  0  0  0  0  0  0  0  0  0
    1.8870   -0.7210    3.8970 C   0  0  0  0  0  0  0  0  0  0  0  0
    2.7010   -1.4010    5.2800 Cl  0  0  0  0  0  0  0  0  0  0  0  0
    1.0170    0.3460    4.0450 C   0  0  0  0  0  0  0  0  0  0  0  0
    0.3850    0.8680    2.9430 C   0  0  0  0  0  0  0  0  0  0  0  0
    0.5940    0.3540    1.6870 C   0  0  0  0  0  0  0  0  0  0  0  0
   -0.1000    0.9190    0.4970 C   0  0  0  0  0  0  0  0  0  0  0  0
   -1.1460    1.9230    0.7870 C   0  0  1  0  0  0  0  0  0  0  0  0
   -2.4930    1.3320    0.7360 N   0  0  0  0  0  0  0  0  0  0  0  0
   -3.4710    1.6830   -0.2010 C   0  0  0  0  0  0  0  0  0  0  0  0
   -3.2070    2.5560   -1.0640 O   0  0  0  0  0  0  0  0  0  0  0  0
   -4.8010    1.0140   -0.1510 C   0  0  0  0  0  0  0  0  0  0  0  0
   -5.0460    0.1580    0.7050 O   0  0  0  0  0  0  0  0  0  0  0  0
   -5.7870    1.3680   -1.0970 N   0  0  0  0  0  0  0  0  0  0  0  0
   -7.0920    0.8530   -1.2090 C   0  0  0  0  0  0  0  0  0  0  0  0
   -7.6480   -0.1000   -0.3920 C   0  0  0  0  0  0  0  0  0  0  0  0
   -8.9640   -0.5630   -0.5670 C   0  0  0  0  0  0  0  0  0  0  0  0
   -9.5070   -1.6020    0.3590 C   0  0  0  0  0  0  0  0  0  0  0  0
  -10.8850   -1.9080    0.0420 N   0  0  0  0  0  0  0  0  0  0  0  0
   -9.7530   -0.0710   -1.5770 C   0  0  0  0  0  0  0  0  0  0  0  0
   -9.1940    0.8840   -2.3950 C   0  0  0  0  0  0  0  0  0  0  0  0
  -10.1720    1.5280   -3.6860 Cl  0  0  0  0  0  0  0  0  0  0  0  0
   -7.9070    1.3420   -2.2290 C   0  0  0  0  0  0  0  0  0  0  0  0
   -7.3330    2.3790   -3.1360 C   0  0  0  0  0  0  0  0  0  0  0  0
   -0.9600    2.7160    2.0520 C   0  0  0  0  0  0  0  0  0  0  0  0
   -0.4730    1.9270    3.1150 O   0  0  0  0  0  0  0  0  0  0  0  0
    8.1490    1.2950   -1.7400 S   0  0  0  0  0  0  0  0  0  0  0  0
    9.8100    0.7600   -1.6950 C   0  0  0  0  0  0  0  0  0  0  0  0
   10.8980    1.0750   -2.6650 C   0  0  0  0  0  0  0  0  0  0  0  0
  1  2  1  0
  2  3  1  0
  2 39  2  0
  3  4  2  0
  4  5  1  0
  4 38  1  0
  5  6  1  0
  6  7  1  0
  7  8  1  0
  8  9  1  1
  8 10  1  0
 10 11  1  0
 11 12  2  0
 11 17  1  0
 12 13  1  0
 13 14  1  0
 13 15  2  0
 15 16  1  0
 16 17  2  0
 16 37  1  0
 17 18  1  0
 18 19  1  0
 19 20  1  1
 19 36  1  0
 20 21  1  0
 21 22  2  0
 21 23  1  0
 23 24  2  0
 23 25  1  0
 25 26  1  0
 26 27  2  0
 26 34  1  0
 27 28  1  0
 28 29  1  0
 28 31  2  0
 29 30  1  0
 31 32  1  0
 32 33  1  0
 32 34  2  0
 34 35  1  0
 36 37  1  0
 38 39  1  0
 39 40  1  0
M  CHG  2  10   1  30   1
M  END
