
     RDKit          3D

 40 43  0  0  0  0  0  0  0  0999 V2000
    9.4610   -0.1320    0.4310 C   0  0  0  0  0  0  0  0  0  0  0  0
    8.7520   -1.5060    0.4730 C   0  0  0  0  0  0  0  0  0  0  0  0
    7.2900   -1.2020    0.3940 C   0  0  0  0  0  0  0  0  0  0  0  0
    6.4800   -1.6760   -0.5190 C   0  0  0  0  0  0  0  0  0  0  0  0
    5.0700   -1.3240   -0.5380 C   0  0  0  0  0  0  0  0  0  0  0  0
    4.5780   -0.1150    0.1250 C   0  0  0  0  0  0  0  0  0  0  0  0
    5.3880    0.9790    0.3190 C   0  0  0  0  0  0  0  0  0  0  0  0
    4.9540    2.0790    1.0210 C   0  0  0  0  0  0  0  0  0  0  0  0
    3.6840    2.0960    1.5420 C   0  0  0  0  0  0  0  0  0  0  0  0
    2.8420    1.0300    1.3720 C   0  0  0  0  0  0  0  0  0  0  0  0
    1.4590    0.9980    1.9190 C   0  0  0  0  0  0  0  0  0  0  0  0
    0.4320    1.5560    0.9590 C   0  0  0  0  0  0  0  0  0  0  0  0
   -0.8630    1.4680    1.6070 N   0  0  0  0  0  0  0  0  0  0  0  0
   -2.0180    1.9400    0.8980 C   0  0  0  0  0  0  0  0  0  0  0  0
   -1.8570    2.4030   -0.2390 O   0  0  0  0  0  0  0  0  0  0  0  0
   -3.2820    1.8670    1.4960 N   0  0  0  0  0  0  0  0  0  0  0  0
   -4.5380    2.2450    0.9700 C   0  0  0  0  0  0  0  0  0  0  0  0
   -5.1540    1.5530   -0.1710 C   0  0  2  0  0  0  0  0  0  0  0  0
   -5.3640    0.0690    0.1170 C   0  0  0  0  0  0  0  0  0  0  0  0
   -6.5100   -0.3600    0.3240 O   0  0  0  0  0  0  0  0  0  0  0  0
   -4.2820   -0.8110    0.1520 N   0  0  0  0  0  0  0  0  0  0  0  0
   -4.2400   -2.2030    0.4030 C   0  0  0  0  0  0  0  0  0  0  0  0
   -5.2110   -3.0290    0.6690 C   0  0  0  0  0  0  0  0  0  0  0  0
   -6.9460   -2.7460    0.8210 Cl  0  0  0  0  0  0  0  0  0  0  0  0
   -4.6620   -4.4150    0.8600 C   0  0  0  0  0  0  0  0  0  0  0  0
   -3.2230   -4.2480    0.6600 C   0  0  0  0  0  0  0  0  0  0  0  0
   -2.9780   -2.9930    0.4000 C   0  0  0  0  0  0  0  0  0  0  0  0
   -1.6950   -2.4710    0.1540 N   0  0  0  0  0  0  0  0  0  0  0  0
   -4.5550    1.6530   -1.5150 C   0  0  0  0  0  0  0  0  0  0  0  0
   -4.4740    3.0400   -2.0930 C   0  0  0  0  0  0  0  0  0  0  0  0
   -5.7370    3.7470   -1.9180 N   0  0  0  0  0  0  0  0  0  0  0  0
   -6.8020    2.8440   -1.5940 C   0  0  0  0  0  0  0  0  0  0  0  0
   -6.5910    2.1420   -0.2960 C   0  0  0  0  0  0  0  0  0  0  0  0
    3.2800   -0.0790    0.6660 C   0  0  0  0  0  0  0  0  0  0  0  0
    4.1430   -2.0730   -1.1500 C   0  0  0  0  0  0  0  0  0  0  0  0
    4.4170   -3.2740   -1.8750 C   0  0  0  0  0  0  0  0  0  0  0  0
    5.5690   -3.8500   -2.1040 C   0  0  0  0  0  0  0  0  0  0  0  0
    5.7330   -5.3270   -2.9900 Cl  0  0  0  0  0  0  0  0  0  0  0  0
    7.0560   -2.9490   -1.6460 S   0  0  0  0  0  0  0  0  0  0  0  0
    7.9690   -3.8870   -0.8480 O   0  0  0  0  0  0  0  0  0  0  0  0
  1  2  1  0
  2  3  1  0
  3  4  2  3
  4  5  1  0
 39  4  1  1
  5  6  1  0
  5 35  2  0
  6  7  2  0
  6 34  1  0
  7  8  1  0
  8  9  2  0
  9 10  1  0
 10 11  1  0
 10 34  2  0
 11 12  1  0
 12 13  1  0
 13 14  1  0
 14 15  2  0
 14 16  1  0
 16 17  1  0
 18 17  1  1
 18 19  1  0
 18 29  1  0
 18 33  1  0
 19 20  2  0
 19 21  1  0
 21 22  1  0
 22 23  2  0
 22 27  1  0
 23 24  1  0
 23 25  1  0
 25 26  1  0
 26 27  2  0
 27 28  1  0
 29 30  1  0
 30 31  1  0
 31 32  1  0
 32 33  1  0
 35 36  1  0
 36 37  2  0
 37 38  1  0
 37 39  1  0
 39 40  2  0
M  CHG  1  31   1
M  END
