
     RDKit          3D

 40 43  0  0  0  0  0  0  0  0999 V2000
    7.8970   -2.6400    0.6800 C   0  0  0  0  0  0  0  0  0  0  0  0
    6.9460   -1.6110    0.0710 C   0  0  0  0  0  0  0  0  0  0  0  0
    7.5350   -0.5810   -0.7460 C   0  0  0  0  0  0  0  0  0  0  0  0
    8.8620   -0.5440   -0.9480 C   0  0  0  0  0  0  0  0  0  0  0  0
    9.6250    0.7070   -1.9480 S   0  0  0  0  0  0  0  0  0  0  0  0
    9.1630    0.5070   -3.4000 O   0  0  0  0  0  0  0  0  0  0  0  0
    5.6710   -1.7220    0.3240 C   0  0  0  0  0  0  0  0  0  0  0  0
    5.1010   -2.7670    1.1530 N   0  0  0  0  0  0  0  0  0  0  0  0
    3.7050   -2.5600    1.1880 C   0  0  0  0  0  0  0  0  0  0  0  0
    2.8600   -3.2630    1.8060 O   0  0  0  0  0  0  0  0  0  0  0  0
    3.4020   -1.4000    0.3920 C   0  0  0  0  0  0  0  0  0  0  0  0
    2.0950   -0.8620    0.1760 N   0  0  0  0  0  0  0  0  0  0  0  0
    1.3890   -0.3700    1.3330 C   0  0  1  0  0  0  0  0  0  0  0  0
    2.1710    0.7560    1.9990 C   0  0  0  0  0  0  0  0  0  0  0  0
    0.0510    0.1140    0.8930 C   0  0  0  0  0  0  0  0  0  0  0  0
   -1.1020   -0.1890    1.5790 C   0  0  0  0  0  0  0  0  0  0  0  0
   -2.3320    0.2720    1.1510 C   0  0  0  0  0  0  0  0  0  0  0  0
   -2.3550    1.0490    0.0070 C   0  0  0  0  0  0  0  0  0  0  0  0
   -1.2470    1.3720   -0.6990 C   0  0  0  0  0  0  0  0  0  0  0  0
   -0.0140    0.8920   -0.2430 C   0  0  0  0  0  0  0  0  0  0  0  0
   -1.5800    2.2100   -1.8700 C   0  0  0  0  0  0  0  0  0  0  0  0
   -2.9380    2.7910   -1.4290 C   0  0  0  0  0  0  0  0  0  0  0  0
   -3.5530    1.6720   -0.6520 C   0  0  2  0  0  0  0  0  0  0  0  0
   -4.4670    2.1730    0.4060 C   0  0  0  0  0  0  0  0  0  0  0  0
   -5.6730    2.7600   -0.0240 N   0  0  0  0  0  0  0  0  0  0  0  0
   -5.9390    3.9290   -0.7290 C   0  0  0  0  0  0  0  0  0  0  0  0
   -7.2930    4.2660   -1.0520 N   0  0  0  0  0  0  0  0  0  0  0  0
   -5.0270    4.6960   -1.0910 O   0  0  0  0  0  0  0  0  0  0  0  0
   -4.1550    0.6880   -1.5100 N   0  0  0  0  0  0  0  0  0  0  0  0
   -3.5990   -0.6150   -1.3970 C   0  0  0  0  0  0  0  0  0  0  0  0
   -4.3310   -1.5430   -0.5090 C   0  0  0  0  0  0  0  0  0  0  0  0
   -5.4760   -1.2330    0.1700 C   0  0  0  0  0  0  0  0  0  0  0  0
   -6.1220   -2.1570    0.9890 C   0  0  0  0  0  0  0  0  0  0  0  0
   -5.6100   -3.4260    1.1330 C   0  0  0  0  0  0  0  0  0  0  0  0
   -6.4060   -4.6140    2.1620 Cl  0  0  0  0  0  0  0  0  0  0  0  0
   -4.4570   -3.7500    0.4550 C   0  0  0  0  0  0  0  0  0  0  0  0
   -3.8280   -2.8210   -0.3540 C   0  0  0  0  0  0  0  0  0  0  0  0
   -2.3550   -3.3300   -1.1840 Cl  0  0  0  0  0  0  0  0  0  0  0  0
    4.5560   -0.9150   -0.1110 C   0  0  0  0  0  0  0  0  0  0  0  0
    4.5590    0.2880   -0.9780 C   0  0  0  0  0  0  0  0  0  0  0  0
  1  2  1  0
  2  3  1  0
  2  7  2  3
  3  4  2  3
  4  5  1  0
  5  6  2  0
  7  8  1  0
  7 39  1  0
  8  9  1  0
  9 10  2  0
  9 11  1  0
 11 12  1  0
 11 39  2  0
 12 13  1  0
 13 14  1  6
 13 15  1  0
 15 16  2  0
 15 20  1  0
 16 17  1  0
 17 18  2  0
 18 19  1  0
 18 23  1  0
 19 20  2  0
 19 21  1  0
 21 22  1  0
 22 23  1  0
 23 24  1  1
 23 29  1  0
 24 25  1  0
 25 26  1  0
 26 27  1  0
 26 28  2  0
 29 30  1  0
 30 31  1  0
 31 32  2  0
 31 37  1  0
 32 33  1  0
 33 34  2  0
 34 35  1  0
 34 36  1  0
 36 37  2  0
 37 38  1  0
 39 40  1  0
M  CHG  1  29   1
M  END
