
     RDKit          3D

 40 43  0  0  0  0  0  0  0  0999 V2000
   -9.0780    2.1660   -0.1340 C   0  0  0  0  0  0  0  0  0  0  0  0
   -7.9650    1.2810    0.2740 C   0  0  2  0  0  0  0  0  0  0  0  0
   -6.8490    1.1660   -0.6960 C   0  0  0  0  0  0  0  0  0  0  0  0
   -6.1990   -0.1830   -0.6500 C   0  0  1  0  0  0  0  0  0  0  0  0
   -4.8590   -0.0870   -0.9980 N   0  0  0  0  0  0  0  0  0  0  0  0
   -3.7100   -0.1620   -0.2930 C   0  0  0  0  0  0  0  0  0  0  0  0
   -3.3430    0.4230    1.0130 C   0  0  0  0  0  0  0  0  0  0  0  0
   -4.2830    1.0320    1.8120 C   0  0  0  0  0  0  0  0  0  0  0  0
   -3.8700    1.3710    3.1290 C   0  0  0  0  0  0  0  0  0  0  0  0
   -4.8180    2.0380    4.0120 N   0  0  0  0  0  0  0  0  0  0  0  0
   -2.6250    1.0980    3.5270 C   0  0  0  0  0  0  0  0  0  0  0  0
   -2.1240    1.5300    5.1750 Cl  0  0  0  0  0  0  0  0  0  0  0  0
   -1.6620    0.4810    2.7070 C   0  0  0  0  0  0  0  0  0  0  0  0
   -2.0480    0.1470    1.4150 C   0  0  0  0  0  0  0  0  0  0  0  0
   -1.0110   -0.2660    0.4860 N   0  0  0  0  0  0  0  0  0  0  0  0
    0.0420   -1.1080    0.7940 C   0  0  0  0  0  0  0  0  0  0  0  0
   -0.1050   -1.5540    2.0730 O   0  0  0  0  0  0  0  0  0  0  0  0
    1.2120   -1.6420    0.2160 C   0  0  0  0  0  0  0  0  0  0  0  0
    1.8640   -1.3580   -0.9650 N   0  0  0  0  0  0  0  0  0  0  0  0
    1.7830   -1.9490   -2.2730 C   0  0  0  0  0  0  0  0  0  0  0  0
    2.4330   -3.2810   -2.2870 C   0  0  0  0  0  0  0  0  0  0  0  0
    1.7310   -4.3360   -1.6720 C   0  0  0  0  0  0  0  0  0  0  0  0
    2.1010   -5.6420   -1.7380 C   0  0  0  0  0  0  0  0  0  0  0  0
    3.2270   -5.9970   -2.4400 C   0  0  0  0  0  0  0  0  0  0  0  0
    3.9460   -4.9730   -3.0660 C   0  0  0  0  0  0  0  0  0  0  0  0
    5.3840   -5.4220   -3.9300 Cl  0  0  0  0  0  0  0  0  0  0  0  0
    3.5550   -3.6520   -2.9900 C   0  0  0  0  0  0  0  0  0  0  0  0
    4.3060   -2.6600   -3.6300 O   0  0  0  0  0  0  0  0  0  0  0  0
    2.9890   -0.3760   -0.9270 C   0  0  0  0  0  0  0  0  0  0  0  0
    3.5400   -0.1090   -2.0180 O   0  0  0  0  0  0  0  0  0  0  0  0
    3.3390    0.1740    0.3680 C   0  0  0  0  0  0  0  0  0  0  0  0
    4.3990    1.1480    0.3480 N   0  0  1  0  0  0  0  0  0  0  0  0
    5.6100    0.7210   -0.2940 C   0  0  0  0  0  0  0  0  0  0  0  0
    6.7410    1.5300    0.3020 C   0  0  0  0  0  0  0  0  0  0  0  0
    6.2730    2.7680    1.0320 C   0  0  1  0  0  0  0  0  0  0  0  0
    7.4260    3.7720    0.9380 C   0  0  0  0  0  0  0  0  0  0  0  0
    5.0740    3.4240    0.4460 C   0  0  0  0  0  0  0  0  0  0  0  0
    4.0450    2.4530   -0.1160 C   0  0  0  0  0  0  0  0  0  0  0  0
   -6.6750   -1.0490    0.4320 C   0  0  0  0  0  0  0  0  0  0  0  0
   -8.4480   -0.4720    0.5370 S   0  0  0  0  0  0  0  0  0  0  0  0
  2  1  1  6
  2  3  1  0
  2 40  1  0
  3  4  1  0
  4  5  1  1
  4 39  1  0
  5  6  1  0
  6  7  1  0
  7  8  2  0
  7 14  1  0
  8  9  1  0
  9 10  1  0
  9 11  2  0
 11 12  1  0
 11 13  1  0
 13 14  2  0
 14 15  1  0
 15 16  1  0
 16 17  2  0
 16 18  1  0
 18 19  1  0
 19 20  1  0
 19 29  1  0
 20 21  1  0
 21 22  2  0
 21 27  1  0
 22 23  1  0
 23 24  2  0
 24 25  1  0
 25 26  1  0
 25 27  2  0
 27 28  1  0
 29 30  2  0
 29 31  1  0
 32 31  1  6
 32 33  1  0
 32 38  1  0
 33 34  1  0
 34 35  1  0
 35 36  1  6
 35 37  1  0
 37 38  1  0
 39 40  1  0
M  CHG  2   5   1  32   1
M  END
