
     RDKit          3D

 40 43  0  0  0  0  0  0  0  0999 V2000
   -3.5360    5.2710   -1.7820 C   0  0  0  0  0  0  0  0  0  0  0  0
   -2.9840    4.2270   -0.8550 C   0  0  0  0  0  0  0  0  0  0  0  0
   -3.1550    2.9180   -1.1580 C   0  0  0  0  0  0  0  0  0  0  0  0
   -2.6530    1.9640   -0.3220 C   0  0  0  0  0  0  0  0  0  0  0  0
   -1.9790    2.3700    0.8350 C   0  0  0  0  0  0  0  0  0  0  0  0
   -1.2920    1.2060    1.5910 C   0  0  0  0  0  0  0  0  0  0  0  0
   -1.0420    0.2350    0.5110 N   0  0  0  0  0  0  0  0  0  0  0  0
    0.0990    0.7010   -0.3690 C   0  0  0  0  0  0  0  0  0  0  0  0
    1.1440   -0.3060   -0.4500 C   0  0  0  0  0  0  0  0  0  0  0  0
    1.2030   -1.1740   -1.5470 C   0  0  0  0  0  0  0  0  0  0  0  0
    2.1180   -2.1860   -1.6690 C   0  0  0  0  0  0  0  0  0  0  0  0
    3.0450   -2.3590   -0.6590 C   0  0  0  0  0  0  0  0  0  0  0  0
    3.0150   -1.5110    0.4450 C   0  0  0  0  0  0  0  0  0  0  0  0
    4.2190   -1.6290    1.2300 N   0  0  0  0  0  0  0  0  0  0  0  0
    5.1740   -0.6660    0.7270 C   0  0  0  0  0  0  0  0  0  0  0  0
    4.7170    0.1720   -0.1600 O   0  0  0  0  0  0  0  0  0  0  0  0
    6.5290   -0.5550    1.0860 N   0  0  0  0  0  0  0  0  0  0  0  0
    7.2690    0.5190    0.4120 C   0  0  0  0  0  0  0  0  0  0  0  0
    8.7310    0.3860    0.5980 C   0  0  2  0  0  0  0  0  0  0  0  0
    9.6120    1.4290   -0.0510 C   0  0  0  0  0  0  0  0  0  0  0  0
    9.6020   -0.1110   -0.9330 S   0  0  0  0  0  0  0  0  0  0  0  0
   10.6700   -1.1540   -0.7540 O   0  0  0  0  0  0  0  0  0  0  0  0
    2.0780   -0.5080    0.5470 C   0  0  0  0  0  0  0  0  0  0  0  0
   -1.6910   -0.8930    0.1900 C   0  0  0  0  0  0  0  0  0  0  0  0
   -1.1870   -1.3160   -1.0460 O   0  0  0  0  0  0  0  0  0  0  0  0
   -2.6830   -1.8800    0.4980 C   0  0  0  0  0  0  0  0  0  0  0  0
   -2.3900   -3.2290    0.0960 C   0  0  0  0  0  0  0  0  0  0  0  0
   -3.3530   -4.1680   -0.0760 C   0  0  0  0  0  0  0  0  0  0  0  0
   -3.1110   -5.4530   -0.7550 C   0  0  0  0  0  0  0  0  0  0  0  0
   -2.5490   -6.3770    0.1760 N   0  0  0  0  0  0  0  0  0  0  0  0
   -4.7000   -3.8440    0.1460 C   0  0  0  0  0  0  0  0  0  0  0  0
   -5.7190   -4.9270   -0.0820 C   0  0  0  0  0  0  0  0  0  0  0  0
   -4.9830   -2.5830    0.5370 C   0  0  0  0  0  0  0  0  0  0  0  0
   -6.6940   -2.2140    0.8680 Cl  0  0  0  0  0  0  0  0  0  0  0  0
   -3.9830   -1.6070    0.7150 C   0  0  0  0  0  0  0  0  0  0  0  0
   -4.5420   -0.1110    1.3860 Cl  0  0  0  0  0  0  0  0  0  0  0  0
   -1.8080    3.7050    1.1570 C   0  0  0  0  0  0  0  0  0  0  0  0
   -2.3190    4.6470    0.2930 C   0  0  0  0  0  0  0  0  0  0  0  0
   -2.0980    6.1040    0.3460 C   0  0  0  0  0  0  0  0  0  0  0  0
   -3.3360    6.7520    0.8380 N   0  0  0  0  0  0  0  0  0  0  0  0
  1  2  1  0
  2  3  2  0
  2 38  1  0
  3  4  1  0
  4  5  2  0
  5  6  1  0
  5 37  1  0
  6  7  1  0
  7  8  1  0
  7 24  1  0
  8  9  1  0
  9 10  2  0
  9 23  1  0
 10 11  1  0
 11 12  2  0
 12 13  1  0
 13 14  1  0
 13 23  2  0
 14 15  1  0
 15 16  2  0
 15 17  1  0
 17 18  1  0
 19 18  1  6
 19 20  1  0
 19 21  1  0
 21 20  1  1
 21 22  2  0
 24 25  2  0
 24 26  1  0
 26 27  2  0
 26 35  1  0
 27 28  1  0
 28 29  1  0
 28 31  2  0
 29 30  1  0
 31 32  1  0
 31 33  1  0
 33 34  1  0
 33 35  2  0
 35 36  1  0
 37 38  2  0
 38 39  1  0
 39 40  1  0
M  CHG  2  30   1  40   1
M  END
