
     RDKit          3D

 29 31  0  0  0  0  0  0  0  0999 V2000
    3.7980   -5.3300   -0.5680 C   0  0  0  0  0  0  0  0  0  0  0  0
    3.5200   -4.6160    0.6210 O   0  0  0  0  0  0  0  0  0  0  0  0
    3.0260   -3.3120    0.6000 C   0  0  0  0  0  0  0  0  0  0  0  0
    2.8390   -2.7980   -0.5150 O   0  0  0  0  0  0  0  0  0  0  0  0
    2.7740   -2.6690    1.9130 C   0  0  0  0  0  0  0  0  0  0  0  0
    2.2220   -1.3880    1.8280 O   0  0  0  0  0  0  0  0  0  0  0  0
    0.9940   -1.1550    1.2620 C   0  0  0  0  0  0  0  0  0  0  0  0
    0.2170   -2.1590    0.7550 C   0  0  0  0  0  0  0  0  0  0  0  0
   -1.0360   -1.8910    0.1820 C   0  0  0  0  0  0  0  0  0  0  0  0
   -1.5150   -0.6040    0.1180 C   0  0  0  0  0  0  0  0  0  0  0  0
   -2.8260   -0.2770   -0.4240 C   0  0  0  0  0  0  0  0  0  0  0  0
   -2.7930    0.5990   -1.4290 C   0  0  0  0  0  0  0  0  0  0  0  0
   -1.1690    1.1480   -1.8640 Cl  0  0  0  0  0  0  0  0  0  0  0  0
   -3.8270    1.1840   -2.2420 C   0  0  0  0  0  0  0  0  0  0  0  0
   -5.1120    1.2920   -2.0620 C   0  0  0  0  0  0  0  0  0  0  0  0
   -6.0980    0.7330   -0.6910 S   0  0  0  0  0  0  0  0  0  0  0  0
   -5.2620   -0.5810    0.1360 C   0  0  0  0  0  0  0  0  0  0  0  0
   -3.9860   -0.9070    0.1920 C   0  0  0  0  0  0  0  0  0  0  0  0
   -3.6360   -2.3110    1.1790 Cl  0  0  0  0  0  0  0  0  0  0  0  0
   -0.7090    0.3850    0.6370 C   0  0  0  0  0  0  0  0  0  0  0  0
    0.5310    0.1710    1.2110 C   0  0  0  0  0  0  0  0  0  0  0  0
    1.3340    1.2180    1.7590 N   0  0  0  0  0  0  0  0  0  0  0  0
    1.0540    2.6060    1.7650 C   0  0  0  0  0  0  0  0  0  0  0  0
    1.0620    3.2490    0.4200 C   0  0  0  0  0  0  0  0  0  0  0  0
    0.0590    3.8940   -0.1390 C   0  0  0  0  0  0  0  0  0  0  0  0
    0.4860    4.3730   -1.4670 C   0  0  0  0  0  0  0  0  0  0  0  0
    1.8680    3.9160   -1.5940 C   0  0  0  0  0  0  0  0  0  0  0  0
    2.2190    3.2610   -0.5050 C   0  0  0  0  0  0  0  0  0  0  0  0
    3.7820    2.5230   -0.1880 Cl  0  0  0  0  0  0  0  0  0  0  0  0
  1  2  1  0
  2  3  1  0
  3  4  2  0
  3  5  1  0
  5  6  1  0
  6  7  1  0
  7  8  2  0
  7 21  1  0
  8  9  1  0
  9 10  2  0
 10 11  1  0
 10 20  1  0
 11 12  2  0
 11 18  1  0
 12 13  1  0
 12 14  1  0
 14 15  2  0
 15 16  1  0
 16 17  1  0
 17 18  2  0
 18 19  1  0
 20 21  2  0
 21 22  1  0
 22 23  1  0
 23 24  1  0
 24 25  2  0
 24 28  1  0
 25 26  1  0
 26 27  1  0
 27 28  2  0
 28 29  1  0
M  END
