
     RDKit          3D

 29 31  0  0  0  0  0  0  0  0999 V2000
   -2.9730    3.9320   -2.0260 C   0  0  0  0  0  0  0  0  0  0  0  0
   -3.4470    3.0800   -0.4850 S   0  0  0  0  0  0  0  0  0  0  0  0
   -3.1430    1.3150   -0.6030 C   0  0  0  0  0  0  0  0  0  0  0  0
   -1.9240    0.7590   -0.2240 C   0  0  0  0  0  0  0  0  0  0  0  0
   -1.6890   -0.5950   -0.3130 C   0  0  0  0  0  0  0  0  0  0  0  0
   -0.4970   -1.1920    0.0510 O   0  0  0  0  0  0  0  0  0  0  0  0
   -0.2490   -1.6590    1.3290 C   0  0  0  0  0  0  0  0  0  0  0  0
   -1.2020   -1.5450    2.3220 C   0  0  0  0  0  0  0  0  0  0  0  0
   -0.9590   -2.0140    3.6110 C   0  0  0  0  0  0  0  0  0  0  0  0
   -2.1360   -1.8920    4.8930 Cl  0  0  0  0  0  0  0  0  0  0  0  0
    0.2550   -2.5980    3.8840 C   0  0  0  0  0  0  0  0  0  0  0  0
    0.5860   -3.1930    5.4880 Cl  0  0  0  0  0  0  0  0  0  0  0  0
    1.2210   -2.7260    2.9230 C   0  0  0  0  0  0  0  0  0  0  0  0
    0.9570   -2.2480    1.6310 C   0  0  0  0  0  0  0  0  0  0  0  0
    2.0030   -2.3950    0.6250 C   0  0  0  0  0  0  0  0  0  0  0  0
    2.7220   -1.1090    0.3540 C   0  0  0  0  0  0  0  0  0  0  0  0
    2.3820   -0.0810    0.9730 O   0  0  0  0  0  0  0  0  0  0  0  0
    3.7780   -1.0370   -0.5900 N   0  0  0  0  0  0  0  0  0  0  0  0
    4.5040    0.1350   -0.9010 C   0  0  0  0  0  0  0  0  0  0  0  0
    4.3990    1.3680   -0.4340 C   0  0  0  0  0  0  0  0  0  0  0  0
    5.3980    2.2270   -1.0870 C   0  0  0  0  0  0  0  0  0  0  0  0
    5.4980    3.5840   -0.9990 O   0  0  0  0  0  0  0  0  0  0  0  0
    6.1410    1.3900   -1.7520 C   0  0  0  0  0  0  0  0  0  0  0  0
    5.5990    0.1880   -1.8850 C   0  0  0  0  0  0  0  0  0  0  0  0
   -2.7220   -1.3660   -0.7970 C   0  0  0  0  0  0  0  0  0  0  0  0
   -3.9350   -0.8360   -1.1780 C   0  0  0  0  0  0  0  0  0  0  0  0
   -4.1630    0.5180   -1.0850 C   0  0  0  0  0  0  0  0  0  0  0  0
   -5.4580    1.1370   -1.4850 C   0  0  0  0  0  0  0  0  0  0  0  0
   -6.3550    1.5340   -0.0170 Cl  0  0  0  0  0  0  0  0  0  0  0  0
  1  2  1  0
  2  3  1  0
  3  4  2  0
  3 27  1  0
  4  5  1  0
  5  6  1  0
  5 25  2  0
  6  7  1  0
  7  8  2  0
  7 14  1  0
  8  9  1  0
  9 10  1  0
  9 11  2  0
 11 12  1  0
 11 13  1  0
 13 14  2  0
 14 15  1  0
 15 16  1  0
 16 17  2  0
 16 18  1  0
 18 19  1  0
 19 20  2  0
 19 24  1  0
 20 21  1  0
 21 22  1  0
 21 23  2  0
 23 24  2  0
 25 26  1  0
 26 27  2  0
 27 28  1  0
 28 29  1  0
M  END
