
     RDKit          3D

 31 33  0  0  0  0  0  0  0  0999 V2000
   -3.6930    3.9410   -0.0540 C   0  0  0  0  0  0  0  0  0  0  0  0
   -2.2270    3.7090   -0.3410 C   0  0  0  0  0  0  0  0  0  0  0  0
   -1.8640    2.3630    0.2880 C   0  0  0  0  0  0  0  0  0  0  0  0
   -1.4170    1.3850   -0.4040 C   0  0  0  0  0  0  0  0  0  0  0  0
   -1.0870    0.1180    0.2660 C   0  0  2  0  0  0  0  0  0  0  0  0
    0.3630   -0.0440    0.6160 C   0  0  0  0  0  0  0  0  0  0  0  0
    1.2110    0.0000   -0.4810 O   0  0  0  0  0  0  0  0  0  0  0  0
    2.4700   -0.1440   -0.1440 O   0  0  0  0  0  0  0  0  0  0  0  0
    2.9410   -1.2500   -0.7130 N   0  0  0  0  0  0  0  0  0  0  0  0
    2.3620   -1.5380   -2.3060 Cl  0  0  0  0  0  0  0  0  0  0  0  0
    4.3860   -1.3200   -0.7260 C   0  0  2  0  0  0  0  0  0  0  0  0
    4.7770   -2.4890   -1.3300 F   0  0  0  0  0  0  0  0  0  0  0  0
    4.9450   -1.2640    0.5720 O   0  0  0  0  0  0  0  0  0  0  0  0
    6.2300   -0.7710    0.4150 C   0  0  0  0  0  0  0  0  0  0  0  0
    7.4020   -0.9150    1.3210 C   0  0  0  0  0  0  0  0  0  0  0  0
    6.2470   -0.1170   -0.7310 C   0  0  0  0  0  0  0  0  0  0  0  0
    7.3910    0.5550   -1.2830 N   0  0  0  0  0  0  0  0  0  0  0  0
    4.9730   -0.1800   -1.3280 O   0  0  0  0  0  0  0  0  0  0  0  0
   -1.6020   -1.0900   -0.4700 C   0  0  2  0  0  0  0  0  0  0  0  0
   -1.1650   -2.3260    0.2410 C   0  0  0  0  0  0  0  0  0  0  0  0
   -1.1180   -1.0650   -1.8760 C   0  0  0  0  0  0  0  0  0  0  0  0
   -2.3010   -0.7770   -2.7860 C   0  0  0  0  0  0  0  0  0  0  0  0
   -3.4790   -0.4930   -1.8660 C   0  0  0  0  0  0  0  0  0  0  0  0
   -3.0870   -1.0810   -0.5610 C   0  0  0  0  0  0  0  0  0  0  0  0
   -3.8810   -1.5180    0.3320 N   0  0  0  0  0  0  0  0  0  0  0  0
   -5.5980   -1.4250    0.0520 Cl  0  0  0  0  0  0  0  0  0  0  0  0
   -3.4610   -2.0750    1.5190 O   0  0  0  0  0  0  0  0  0  0  0  0
   -3.9830   -3.2970    2.0030 C   0  0  0  0  0  0  0  0  0  0  0  0
   -2.0430    0.3450    1.8280 S   0  0  0  0  0  0  0  0  0  0  0  0
   -2.0360    2.1560    1.7500 C   0  0  1  0  0  0  0  0  0  0  0  0
   -0.8290    2.6720    2.4600 C   0  0  0  0  0  0  0  0  0  0  0  0
  1  2  1  0
  2  3  1  0
  3  4  2  0
  3 30  1  0
  4  5  1  0
  5  6  1  1
  5 19  1  0
  5 29  1  0
  6  7  1  0
  7  8  1  0
  8  9  1  0
  9 10  1  0
  9 11  1  0
 11 12  1  6
 11 13  1  0
 11 18  1  0
 13 14  1  0
 14 15  1  0
 14 16  2  0
 16 17  1  0
 16 18  1  0
 19 20  1  1
 19 21  1  0
 19 24  1  0
 21 22  1  0
 22 23  1  0
 23 24  1  0
 24 25  2  3
 25 26  1  0
 25 27  1  0
 27 28  1  0
 29 30  1  0
 30 31  1  1
M  CHG  1  25   1
M  END
