
     RDKit          3D

 17 18  0  0  0  0  0  0  0  0999 V2000
    2.9880   -2.1510   -1.2860 C   0  0  0  0  0  0  0  0  0  0  0  0
    2.6250   -0.9080   -1.4100 C   0  0  0  0  0  0  0  0  0  0  0  0
    1.3400   -0.4510   -0.8330 C   0  0  0  0  0  0  0  0  0  0  0  0
    0.8330    0.7600   -0.8720 C   0  0  0  0  0  0  0  0  0  0  0  0
    1.4520    1.8420   -1.4850 O   0  0  0  0  0  0  0  0  0  0  0  0
    2.1100    2.8470   -0.7280 C   0  0  0  0  0  0  0  0  0  0  0  0
   -0.4530    0.8580   -0.2020 C   0  0  0  0  0  0  0  0  0  0  0  0
   -1.3720    1.8640    0.0350 C   0  0  0  0  0  0  0  0  0  0  0  0
   -2.5470    1.6560    0.7230 C   0  0  0  0  0  0  0  0  0  0  0  0
   -3.6950    2.9630    1.0070 Cl  0  0  0  0  0  0  0  0  0  0  0  0
   -2.8010    0.3860    1.1880 C   0  0  0  0  0  0  0  0  0  0  0  0
   -1.8850   -0.6300    0.9550 C   0  0  0  0  0  0  0  0  0  0  0  0
   -2.2260   -1.9440    1.4790 C   0  0  0  0  0  0  0  0  0  0  0  0
   -1.4180   -2.8830    1.2840 O   0  0  0  0  0  0  0  0  0  0  0  0
   -3.3830   -2.2110    2.1730 O   0  0  0  0  0  0  0  0  0  0  0  0
   -0.7150   -0.4110    0.2660 C   0  0  0  0  0  0  0  0  0  0  0  0
    0.3880   -1.3140   -0.0970 C   0  0  0  0  0  0  0  0  0  0  0  0
  1  2  2  0
  2  3  1  0
  3  4  2  0
  3 17  1  0
  4  5  1  0
  4  7  1  0
  5  6  1  0
  7  8  2  0
  7 16  1  0
  8  9  1  0
  9 10  1  0
  9 11  2  0
 11 12  1  0
 12 13  1  0
 12 16  2  0
 13 14  2  0
 13 15  1  0
 16 17  1  0
M  END
