
     RDKit          3D

 17 18  0  0  0  0  0  0  0  0999 V2000
    2.8500    2.4470   -0.0300 C   0  0  0  0  0  0  0  0  0  0  0  0
    3.6690    1.2580    0.3200 C   0  0  0  0  0  0  0  0  0  0  0  0
    3.1020    0.0850    0.4210 C   0  0  0  0  0  0  0  0  0  0  0  0
    3.9130   -1.0960    0.7680 C   0  0  0  0  0  0  0  0  0  0  0  0
    1.7590   -0.0630    0.2070 O   0  0  0  0  0  0  0  0  0  0  0  0
    1.1210   -0.1020   -1.0270 C   0  0  0  0  0  0  0  0  0  0  0  0
   -0.3370   -0.2740   -0.8150 C   0  0  0  0  0  0  0  0  0  0  0  0
   -0.8510   -0.3670    0.4550 C   0  0  0  0  0  0  0  0  0  0  0  0
   -2.2010   -0.5270    0.6700 C   0  0  0  0  0  0  0  0  0  0  0  0
   -3.0590   -0.5950   -0.4100 C   0  0  0  0  0  0  0  0  0  0  0  0
   -2.5350   -0.5000   -1.6890 C   0  0  0  0  0  0  0  0  0  0  0  0
   -3.3900   -0.5680   -2.7770 O   0  0  0  0  0  0  0  0  0  0  0  0
   -1.1820   -0.3400   -1.9020 C   0  0  0  0  0  0  0  0  0  0  0  0
   -0.4700   -0.2150   -3.4950 Cl  0  0  0  0  0  0  0  0  0  0  0  0
   -4.3330   -0.7550    0.1190 O   0  0  0  0  0  0  0  0  0  0  0  0
   -4.3710   -0.3550    1.4770 C   0  0  0  0  0  0  0  0  0  0  0  0
   -2.9580   -0.6480    1.9330 C   0  0  0  0  0  0  0  0  0  0  0  0
  1  2  1  0
  2  3  2  3
  3  4  1  0
  3  5  1  0
  5  6  1  0
  6  7  1  0
  7  8  2  0
  7 13  1  0
  8  9  1  0
  9 10  2  0
  9 17  1  0
 10 11  1  0
 10 15  1  0
 11 12  1  0
 11 13  2  0
 13 14  1  0
 15 16  1  0
 16 17  1  0
M  END
