
     RDKit          3D

 17 17  0  0  0  0  0  0  0  0999 V2000
   -1.1790   -1.2560    1.7130 C   0  0  0  0  0  0  0  0  0  0  0  0
   -2.0220   -0.6190    0.7070 C   0  0  0  0  0  0  0  0  0  0  0  0
   -3.0140   -1.3610    0.2390 C   0  0  0  0  0  0  0  0  0  0  0  0
   -4.0660   -1.1150   -0.7540 C   0  0  0  0  0  0  0  0  0  0  0  0
   -4.6360    0.2410   -0.7640 C   0  0  0  0  0  0  0  0  0  0  0  0
   -4.0390    1.3980   -0.5580 C   0  0  0  0  0  0  0  0  0  0  0  0
   -5.0500    2.8170   -0.6510 Cl  0  0  0  0  0  0  0  0  0  0  0  0
   -2.6270    1.6010   -0.2580 C   0  0  0  0  0  0  0  0  0  0  0  0
   -1.7440    0.7450    0.2860 C   0  0  0  0  0  0  0  0  0  0  0  0
   -0.3710    1.1900    0.4950 C   0  0  0  0  0  0  0  0  0  0  0  0
    0.4990    0.3640   -0.2310 O   0  0  0  0  0  0  0  0  0  0  0  0
    1.8850    0.5410   -0.2320 C   0  0  0  0  0  0  0  0  0  0  0  0
    2.3370    1.4720    0.4440 O   0  0  0  0  0  0  0  0  0  0  0  0
    2.7170   -0.3870   -1.0320 C   0  0  0  0  0  0  0  0  0  0  0  0
    4.1960   -0.1150   -0.9210 C   0  0  0  0  0  0  0  0  0  0  0  0
    4.7150   -0.2520    0.4860 C   0  0  0  0  0  0  0  0  0  0  0  0
    6.0840    0.0160    0.4720 O   0  0  0  0  0  0  0  0  0  0  0  0
  1  2  1  0
  2  3  2  0
  2  9  1  0
  3  4  1  0
  4  5  1  0
  5  6  2  0
  6  7  1  0
  6  8  1  0
  8  9  2  0
  9 10  1  0
 10 11  1  0
 11 12  1  0
 12 13  2  0
 12 14  1  0
 14 15  1  0
 15 16  1  0
 16 17  1  0
M  END
