
     RDKit          3D

 17 18  0  0  0  0  0  0  0  0999 V2000
    5.2990    1.2040    1.2470 C   0  0  0  0  0  0  0  0  0  0  0  0
    4.0290    0.5830    0.7300 C   0  0  0  0  0  0  0  0  0  0  0  0
    3.9140   -0.7040    0.2830 C   0  0  0  0  0  0  0  0  0  0  0  0
    2.5990   -0.8850   -0.1030 C   0  0  0  0  0  0  0  0  0  0  0  0
    1.9630    0.3010    0.1260 C   0  0  0  0  0  0  0  0  0  0  0  0
    0.5550    0.5700   -0.1340 C   0  0  0  0  0  0  0  0  0  0  0  0
   -0.3710   -0.2910    0.1700 C   0  0  0  0  0  0  0  0  0  0  0  0
    0.1840   -1.7860    0.9100 Cl  0  0  0  0  0  0  0  0  0  0  0  0
   -1.7960   -0.0870   -0.0630 C   0  0  0  0  0  0  0  0  0  0  0  0
   -2.1940    1.0970   -0.6450 C   0  0  0  0  0  0  0  0  0  0  0  0
   -3.5250    1.4020   -0.9150 C   0  0  0  0  0  0  0  0  0  0  0  0
   -4.4640    0.4550   -0.5730 C   0  0  0  0  0  0  0  0  0  0  0  0
   -4.1150   -0.7310    0.0050 C   0  0  0  0  0  0  0  0  0  0  0  0
   -5.0590   -1.6840    0.3490 O   0  0  0  0  0  0  0  0  0  0  0  0
   -2.7550   -1.0410    0.2800 C   0  0  0  0  0  0  0  0  0  0  0  0
   -2.4810   -2.2150    0.8450 O   0  0  0  0  0  0  0  0  0  0  0  0
    2.8580    1.1480    0.6230 O   0  0  0  0  0  0  0  0  0  0  0  0
  1  2  1  0
  2  3  2  0
  2 17  1  0
  3  4  1  0
  4  5  2  0
  5  6  1  0
  5 17  1  0
  6  7  2  3
  7  8  1  0
  7  9  1  0
  9 10  2  0
  9 15  1  0
 10 11  1  0
 11 12  2  0
 12 13  1  0
 13 14  1  0
 13 15  2  0
 15 16  1  0
M  END
