
     RDKit          3D

 17 18  0  0  0  0  0  0  0  0999 V2000
    3.7370    1.3170    0.2130 C   0  0  0  0  0  0  0  0  0  0  0  0
    2.9230    0.2450    0.1860 C   0  0  0  0  0  0  0  0  0  0  0  0
    3.4860   -1.1010   -0.0970 C   0  0  0  0  0  0  0  0  0  0  0  0
    1.4620    0.4100    0.2180 C   0  0  0  0  0  0  0  0  0  0  0  0
    0.6300   -0.5640    0.3190 C   0  0  0  0  0  0  0  0  0  0  0  0
    0.7080   -1.9150    0.4520 O   0  0  0  0  0  0  0  0  0  0  0  0
   -0.4820   -2.5730    0.5200 C   0  0  0  0  0  0  0  0  0  0  0  0
   -0.6730   -3.7950    0.6290 O   0  0  0  0  0  0  0  0  0  0  0  0
   -1.5060   -1.5010    0.4170 C   0  0  0  0  0  0  0  0  0  0  0  0
   -2.8920   -1.6640    0.3690 C   0  0  0  0  0  0  0  0  0  0  0  0
   -3.6330   -0.5290    0.1570 C   0  0  0  0  0  0  0  0  0  0  0  0
   -5.4270   -0.5860    0.1680 Cl  0  0  0  0  0  0  0  0  0  0  0  0
   -3.0680    0.6910   -0.0060 C   0  0  0  0  0  0  0  0  0  0  0  0
   -1.6410    0.7830    0.0630 C   0  0  0  0  0  0  0  0  0  0  0  0
   -1.0820    2.1070   -0.2690 C   0  0  0  0  0  0  0  0  0  0  0  0
   -1.6190    2.3560   -1.6770 O   0  0  0  0  0  0  0  0  0  0  0  0
   -0.8390   -0.3010    0.2860 C   0  0  0  0  0  0  0  0  0  0  0  0
  1  2  2  0
  2  3  1  0
  2  4  1  0
  4  5  2  3
  5  6  1  0
  5 17  1  0
  6  7  1  0
  7  8  2  0
  7  9  1  0
  9 10  2  0
  9 17  1  0
 10 11  1  0
 11 12  1  0
 11 13  2  0
 13 14  1  0
 14 15  1  0
 14 17  2  0
 15 16  1  0
M  END
