
     RDKit          3D

 23 24  0  0  0  0  0  0  0  0999 V2000
    3.9530    0.9230   -3.1480 C   0  0  0  0  0  0  0  0  0  0  0  0
    3.9410    0.6430   -1.6870 C   0  0  0  0  0  0  0  0  0  0  0  0
    5.1200    0.5750   -0.9890 C   0  0  0  0  0  0  0  0  0  0  0  0
    5.1190    0.3180    0.3620 C   0  0  0  0  0  0  0  0  0  0  0  0
    3.9070    0.1270    1.0100 C   0  0  0  0  0  0  0  0  0  0  0  0
    3.9080   -0.1490    2.4610 C   0  0  0  0  0  0  0  0  0  0  0  0
    2.6810    0.1850    0.3530 C   0  0  0  0  0  0  0  0  0  0  0  0
    1.5120   -0.0210    1.0920 N   0  0  0  0  0  0  0  0  0  0  0  0
    0.1610   -0.0020    0.6030 C   0  0  0  0  0  0  0  0  0  0  0  0
   -0.0010    0.2180   -0.5980 O   0  0  0  0  0  0  0  0  0  0  0  0
   -0.8900   -0.2330    1.5130 N   0  0  0  0  0  0  0  0  0  0  0  0
   -2.2520   -0.2420    1.1620 C   0  0  0  0  0  0  0  0  0  0  0  0
   -2.7240   -0.0280   -0.0980 C   0  0  0  0  0  0  0  0  0  0  0  0
   -4.0970   -0.0450   -0.4080 C   0  0  0  0  0  0  0  0  0  0  0  0
   -4.6110    0.2400   -2.0590 S   0  0  2  0  0  0  0  0  0  0  0  0
   -4.7160   -1.2040   -2.9670 N   0  0  0  0  0  0  0  0  0  0  0  0
   -3.6540    1.1760   -2.7150 O   0  0  0  0  0  0  0  0  0  0  0  0
   -5.9570    0.9450   -2.0120 O   0  0  0  0  0  0  0  0  0  0  0  0
   -4.9940   -0.2830    0.5840 C   0  0  0  0  0  0  0  0  0  0  0  0
   -4.5330   -0.5030    1.8700 C   0  0  0  0  0  0  0  0  0  0  0  0
   -3.1980   -0.4850    2.1650 C   0  0  0  0  0  0  0  0  0  0  0  0
   -2.7960   -0.7120    3.4760 O   0  0  0  0  0  0  0  0  0  0  0  0
    2.7450    0.4450   -0.9920 C   0  0  0  0  0  0  0  0  0  0  0  0
  1  2  1  0
  2  3  2  0
  2 23  1  0
  3  4  1  0
  4  5  2  0
  5  6  1  0
  5  7  1  0
  7  8  1  0
  7 23  2  0
  8  9  1  0
  9 10  2  0
  9 11  1  0
 11 12  1  0
 12 13  2  0
 12 21  1  0
 13 14  1  0
 14 15  1  0
 14 19  2  0
 15 16  1  6
 15 17  2  0
 15 18  2  0
 19 20  1  0
 20 21  2  0
 21 22  1  0
M  END
