
     RDKit          3D

 17 18  0  0  0  0  0  0  0  0999 V2000
    4.7700    0.9820   -0.5100 C   0  0  0  0  0  0  0  0  0  0  0  0
    3.3950    1.0830   -0.7560 O   0  0  0  0  0  0  0  0  0  0  0  0
    2.4720    0.2980   -0.0950 C   0  0  0  0  0  0  0  0  0  0  0  0
    2.8970   -0.6290    0.8540 C   0  0  0  0  0  0  0  0  0  0  0  0
    1.9970   -1.4220    1.5280 C   0  0  0  0  0  0  0  0  0  0  0  0
    0.6660   -1.2640    1.2270 C   0  0  0  0  0  0  0  0  0  0  0  0
    0.1900   -0.3560    0.2890 C   0  0  0  0  0  0  0  0  0  0  0  0
   -1.2620   -0.2750    0.0230 C   0  0  0  0  0  0  0  0  0  0  0  0
   -1.9450   -1.3550   -0.5180 C   0  0  0  0  0  0  0  0  0  0  0  0
   -3.3050   -1.3280   -0.7790 C   0  0  0  0  0  0  0  0  0  0  0  0
   -4.0370   -0.1950   -0.4980 C   0  0  0  0  0  0  0  0  0  0  0  0
   -5.3910   -0.1770   -0.7620 O   0  0  0  0  0  0  0  0  0  0  0  0
   -3.3740    0.8880    0.0410 C   0  0  0  0  0  0  0  0  0  0  0  0
   -2.0050    0.8440    0.2960 C   0  0  0  0  0  0  0  0  0  0  0  0
   -1.4140    1.9620    0.8340 O   0  0  0  0  0  0  0  0  0  0  0  0
    1.1130    0.4250   -0.3700 C   0  0  0  0  0  0  0  0  0  0  0  0
    0.6020    1.5900   -1.5500 Cl  0  0  0  0  0  0  0  0  0  0  0  0
  1  2  1  0
  2  3  1  0
  3  4  2  0
  3 16  1  0
  4  5  1  0
  5  6  2  0
  6  7  1  0
  7  8  1  0
  7 16  2  0
  8  9  2  0
  8 14  1  0
  9 10  1  0
 10 11  2  0
 11 12  1  0
 11 13  1  0
 13 14  2  0
 14 15  1  0
 16 17  1  0
M  END
