
     RDKit          3D

 17 18  0  0  0  0  0  0  0  0999 V2000
    5.1470   -0.6690    0.2790 C   0  0  0  0  0  0  0  0  0  0  0  0
    4.2430   -0.2100    1.2670 O   0  0  0  0  0  0  0  0  0  0  0  0
    2.9130   -0.1030    0.9360 C   0  0  0  0  0  0  0  0  0  0  0  0
    2.4680   -0.4300   -0.3170 C   0  0  0  0  0  0  0  0  0  0  0  0
    1.1430   -0.3230   -0.6480 C   0  0  0  0  0  0  0  0  0  0  0  0
    0.2330    0.1240    0.3010 C   0  0  0  0  0  0  0  0  0  0  0  0
   -1.1870    0.2370   -0.0330 C   0  0  0  0  0  0  0  0  0  0  0  0
   -1.5640    0.8770   -1.2070 C   0  0  0  0  0  0  0  0  0  0  0  0
   -2.9000    0.9790   -1.5270 C   0  0  0  0  0  0  0  0  0  0  0  0
   -3.8380    0.4360   -0.6620 C   0  0  0  0  0  0  0  0  0  0  0  0
   -5.1820    0.5500   -1.0060 O   0  0  0  0  0  0  0  0  0  0  0  0
   -3.4520   -0.2030    0.5110 C   0  0  0  0  0  0  0  0  0  0  0  0
   -4.4650   -0.7150    1.3130 O   0  0  0  0  0  0  0  0  0  0  0  0
   -2.1140   -0.3000    0.8230 C   0  0  0  0  0  0  0  0  0  0  0  0
    0.6580    0.4630    1.5790 C   0  0  0  0  0  0  0  0  0  0  0  0
   -0.4770    1.0460    2.8090 Cl  0  0  0  0  0  0  0  0  0  0  0  0
    2.0010    0.3390    1.8660 C   0  0  0  0  0  0  0  0  0  0  0  0
  1  2  1  0
  2  3  1  0
  3  4  2  0
  3 17  1  0
  4  5  1  0
  5  6  2  0
  6  7  1  0
  6 15  1  0
  7  8  2  0
  7 14  1  0
  8  9  1  0
  9 10  2  0
 10 11  1  0
 10 12  1  0
 12 13  1  0
 12 14  2  0
 15 16  1  0
 15 17  2  0
M  END
