
     RDKit          3D

 10 11  0  0  0  0  0  0  0  0999 V2000
   -3.2140    0.4080   -0.2110 N   0  0  0  0  0  0  0  0  0  0  0  0
   -1.8000    0.2440   -0.1720 C   0  0  0  0  0  0  0  0  0  0  0  0
   -0.9260    0.4200   -1.1790 N   0  0  0  0  0  0  0  0  0  0  0  0
    0.3350    0.1770   -0.7840 C   0  0  0  0  0  0  0  0  0  0  0  0
    1.5470    0.2090   -1.3930 N   0  0  0  0  0  0  0  0  0  0  0  0
    2.6830   -0.0910   -0.7360 C   0  0  0  0  0  0  0  0  0  0  0  0
    2.5880   -0.4390    0.5950 C   0  0  0  0  0  0  0  0  0  0  0  0
    1.3840   -0.4720    1.2040 N   0  0  0  0  0  0  0  0  0  0  0  0
    0.2380   -0.1700    0.5460 C   0  0  0  0  0  0  0  0  0  0  0  0
   -1.0600   -0.1230    0.8930 N   0  0  0  0  0  0  0  0  0  0  0  0
  1  2  1  0
  2  3  2  0
  2 10  1  0
  3  4  1  0
  4  5  2  0
  4  9  1  0
  5  6  1  0
  6  7  2  0
  7  8  1  0
  8  9  2  0
  9 10  1  0
M  END
