
     RDKit          3D

 10 11  0  0  0  0  0  0  0  0999 V2000
   -1.5720   -1.4280   -0.1060 N   0  0  0  0  0  0  0  0  0  0  0  0
   -1.0100   -0.1110   -0.0620 C   0  0  0  0  0  0  0  0  0  0  0  0
   -1.8260    0.9960   -0.1030 C   0  0  0  0  0  0  0  0  0  0  0  0
   -1.2550    2.2090   -0.0590 N   0  0  0  0  0  0  0  0  0  0  0  0
    0.0420    2.3480    0.0200 N   0  0  0  0  0  0  0  0  0  0  0  0
    0.8780    1.2960    0.0630 C   0  0  0  0  0  0  0  0  0  0  0  0
    2.2210    1.1530    0.1430 N   0  0  0  0  0  0  0  0  0  0  0  0
    2.5000   -0.1790    0.1500 C   0  0  0  0  0  0  0  0  0  0  0  0
    1.3720   -0.8740    0.0770 N   0  0  0  0  0  0  0  0  0  0  0  0
    0.3730    0.0210    0.0230 C   0  0  0  0  0  0  0  0  0  0  0  0
  1  2  1  0
  2  3  2  0
  2 10  1  0
  3  4  1  0
  4  5  2  0
  5  6  1  0
  6  7  1  0
  6 10  2  0
  7  8  2  0
  8  9  1  0
  9 10  1  0
M  END
