
     RDKit          3D

 10 11  0  0  0  0  0  0  0  0999 V2000
   -2.4530   -0.8170    0.1100 C   0  0  0  0  0  0  0  0  0  0  0  0
   -0.9730   -0.5700    0.0590 C   0  0  0  0  0  0  0  0  0  0  0  0
   -0.0670   -1.5360    0.0990 N   0  0  0  0  0  0  0  0  0  0  0  0
    1.1420   -1.0050    0.0360 N   0  0  0  0  0  0  0  0  0  0  0  0
    2.4730   -1.2930    0.0220 C   0  0  0  0  0  0  0  0  0  0  0  0
    3.1400   -0.1520   -0.0670 N   0  0  0  0  0  0  0  0  0  0  0  0
    2.2710    0.8290   -0.1090 N   0  0  0  0  0  0  0  0  0  0  0  0
    1.0230    0.3190   -0.0460 C   0  0  0  0  0  0  0  0  0  0  0  0
   -0.3290    0.6230   -0.0330 C   0  0  0  0  0  0  0  0  0  0  0  0
   -0.9080    1.9130   -0.1020 N   0  0  0  0  0  0  0  0  0  0  0  0
  1  2  1  0
  2  3  2  0
  2  9  1  0
  3  4  1  0
  4  5  1  0
  4  8  1  0
  5  6  2  0
  6  7  1  0
  7  8  1  0
  8  9  2  0
  9 10  1  0
M  END
