
     RDKit          3D

 12 13  0  0  0  0  0  0  0  0999 V2000
   -2.7990    1.7960   -0.9710 O   0  0  0  0  0  0  0  0  0  0  0  0
   -1.7930    0.9680   -0.5080 C   0  0  0  0  0  0  0  0  0  0  0  0
   -0.4520    1.2660   -0.7690 C   0  0  0  0  0  0  0  0  0  0  0  0
    0.5900    0.4780   -0.3330 C   0  0  0  0  0  0  0  0  0  0  0  0
    1.9150    0.7940   -0.6040 C   0  0  0  0  0  0  0  0  0  0  0  0
    2.9410   -0.0110   -0.1560 C   0  0  0  0  0  0  0  0  0  0  0  0
    2.7110   -1.1580    0.5760 C   0  0  0  0  0  0  0  0  0  0  0  0
    1.3890   -1.4580    0.8370 C   0  0  0  0  0  0  0  0  0  0  0  0
    0.3470   -0.6650    0.3980 C   0  0  0  0  0  0  0  0  0  0  0  0
   -0.9610   -0.9810    0.6690 C   0  0  0  0  0  0  0  0  0  0  0  0
   -2.0210   -0.1730    0.2210 C   0  0  0  0  0  0  0  0  0  0  0  0
   -3.3120   -0.5520    0.5300 O   0  0  0  0  0  0  0  0  0  0  0  0
  1  2  1  0
  2  3  2  0
  2 11  1  0
  3  4  1  0
  4  5  2  0
  4  9  1  0
  5  6  1  0
  6  7  2  0
  7  8  1  0
  8  9  2  0
  9 10  1  0
 10 11  2  0
 11 12  1  0
M  END
