
     RDKit          3D

 10 11  0  0  0  0  0  0  0  0999 V2000
    3.1680   -0.0220    0.0570 N   0  0  0  0  0  0  0  0  0  0  0  0
    1.8660    0.0320    0.0340 C   0  0  0  0  0  0  0  0  0  0  0  0
    1.0000   -0.9970    0.0240 N   0  0  0  0  0  0  0  0  0  0  0  0
   -0.2710   -0.5350   -0.0020 C   0  0  0  0  0  0  0  0  0  0  0  0
   -1.5180   -1.1260   -0.0210 C   0  0  0  0  0  0  0  0  0  0  0  0
   -2.6650   -0.3980   -0.0460 N   0  0  0  0  0  0  0  0  0  0  0  0
   -2.5400    0.9430   -0.0520 C   0  0  0  0  0  0  0  0  0  0  0  0
   -1.3460    1.5620   -0.0340 N   0  0  0  0  0  0  0  0  0  0  0  0
   -0.2000    0.8330   -0.0090 C   0  0  0  0  0  0  0  0  0  0  0  0
    1.1060    1.1410    0.0130 N   0  0  0  0  0  0  0  0  0  0  0  0
  1  2  2  0
  2  3  1  0
  2 10  1  0
  3  4  1  0
  4  5  2  0
  4  9  1  0
  5  6  1  0
  6  7  2  0
  7  8  1  0
  8  9  2  0
  9 10  1  0
M  END
