
     RDKit          3D

 25 28  0  0  0  0  0  0  0  0999 V2000
    0.8610    4.0870    0.6670 C   0  0  0  0  0  0  0  0  0  0  0  0
   -0.1590    3.0080    0.5920 C   0  0  0  0  0  0  0  0  0  0  0  0
   -1.3370    3.3720    0.6800 O   0  0  0  0  0  0  0  0  0  0  0  0
    0.2390    1.6180    0.4250 C   0  0  0  0  0  0  0  0  0  0  0  0
    1.5340    1.3060    0.4340 C   0  0  0  0  0  0  0  0  0  0  0  0
    2.4550    2.3070    0.5880 O   0  0  0  0  0  0  0  0  0  0  0  0
    2.1020   -0.0200    0.3100 C   0  0  0  0  0  0  0  0  0  0  0  0
    3.5120   -0.3730    0.2950 C   0  0  1  0  0  0  0  0  0  0  0  0
    3.6560   -1.9080    0.3080 C   0  0  0  0  0  0  0  0  0  0  0  0
    3.4220   -2.2410   -1.1420 C   0  0  0  0  0  0  0  0  0  0  0  0
    3.9290   -1.0220   -1.8850 C   0  0  0  0  0  0  0  0  0  0  0  0
    4.2920   -0.0630   -0.8510 N   0  0  0  0  0  0  0  0  0  0  0  0
    1.2550   -0.9810    0.1820 N   0  0  0  0  0  0  0  0  0  0  0  0
   -0.1130   -0.7760    0.1560 N   0  0  0  0  0  0  0  0  0  0  0  0
   -0.7200    0.5490    0.2730 C   0  0  0  0  0  0  0  0  0  0  0  0
   -1.9850    0.6740   -0.0560 C   0  0  0  0  0  0  0  0  0  0  0  0
   -2.9530    1.7070   -0.4230 C   0  0  0  0  0  0  0  0  0  0  0  0
   -3.7970    0.8780   -1.4760 C   0  0  0  0  0  0  0  0  0  0  0  0
   -4.0460   -0.3440   -0.6920 C   0  0  0  0  0  0  0  0  0  0  0  0
   -4.9200   -1.3270   -0.4710 C   0  0  0  0  0  0  0  0  0  0  0  0
   -6.1110   -1.4770   -1.0770 F   0  0  0  0  0  0  0  0  0  0  0  0
   -4.3800   -2.2570    0.5400 C   0  0  0  0  0  0  0  0  0  0  0  0
   -3.1140   -1.5620    0.9670 C   0  0  0  0  0  0  0  0  0  0  0  0
   -2.2890   -2.0290    2.1200 C   0  0  0  0  0  0  0  0  0  0  0  0
   -2.9160   -0.5050    0.2120 C   0  0  0  0  0  0  0  0  0  0  0  0
  1  2  1  0
  2  3  2  0
  2  4  1  0
  4  5  2  0
  4 15  1  0
  5  6  1  0
  5  7  1  0
  8  7  1  6
  7 13  2  0
  8  9  1  0
  8 12  1  0
  9 10  1  0
 10 11  1  0
 11 12  1  0
 13 14  1  0
 14 15  1  0
 15 16  2  3
 16 17  1  0
 16 25  1  0
 17 18  1  0
 18 19  1  0
 19 20  2  0
 19 25  1  0
 20 21  1  0
 20 22  1  0
 22 23  1  0
 23 24  1  0
 23 25  2  0
M  CHG  1  12   1
M  END
