
     RDKit          3D

 10 11  0  0  0  0  0  0  0  0999 V2000
    2.9760   -0.6480    0.5700 N   0  0  0  0  0  0  0  0  0  0  0  0
    1.6710   -0.1820    0.2470 C   0  0  0  0  0  0  0  0  0  0  0  0
    1.5480    1.0580   -0.2620 N   0  0  0  0  0  0  0  0  0  0  0  0
    0.3340    1.5690   -0.5950 C   0  0  0  0  0  0  0  0  0  0  0  0
   -0.7860    0.7960   -0.4020 C   0  0  0  0  0  0  0  0  0  0  0  0
   -2.0910    1.0150   -0.6270 N   0  0  0  0  0  0  0  0  0  0  0  0
   -2.7990   -0.0690   -0.2670 C   0  0  0  0  0  0  0  0  0  0  0  0
   -1.9240   -0.9790    0.1890 N   0  0  0  0  0  0  0  0  0  0  0  0
   -0.6680   -0.4930    0.1260 C   0  0  0  0  0  0  0  0  0  0  0  0
    0.5700   -0.9240    0.4290 N   0  0  0  0  0  0  0  0  0  0  0  0
  1  2  1  0
  2  3  2  0
  2 10  1  0
  3  4  1  0
  4  5  2  0
  5  6  1  0
  5  9  1  0
  6  7  2  0
  7  8  1  0
  8  9  1  0
  9 10  2  0
M  END
