
     RDKit          3D

 23 25  0  0  0  0  0  0  0  0999 V2000
    5.7140   -1.6290   -0.5890 C   0  0  0  0  0  0  0  0  0  0  0  0
    4.9360   -0.7200   -1.4810 C   0  0  0  0  0  0  0  0  0  0  0  0
    4.0630    0.2200   -0.7350 C   0  0  0  0  0  0  0  0  0  0  0  0
    4.5770    1.3170   -0.0960 C   0  0  0  0  0  0  0  0  0  0  0  0
    6.3140    1.6650   -0.1310 Cl  0  0  0  0  0  0  0  0  0  0  0  0
    3.7730    2.1840    0.5920 C   0  0  0  0  0  0  0  0  0  0  0  0
    2.4090    1.9320    0.6340 C   0  0  0  0  0  0  0  0  0  0  0  0
    1.3750    2.5750    1.2090 N   0  0  0  0  0  0  0  0  0  0  0  0
    0.2710    1.9280    0.9540 N   0  0  0  0  0  0  0  0  0  0  0  0
    0.4840    0.8270    0.2030 C   0  0  0  0  0  0  0  0  0  0  0  0
   -0.4590   -0.1040   -0.2620 N   0  0  0  0  0  0  0  0  0  0  0  0
   -1.8460   -0.0440   -0.0150 C   0  0  0  0  0  0  0  0  0  0  0  0
   -2.4740    0.9310    0.7130 C   0  0  0  0  0  0  0  0  0  0  0  0
   -3.8620    0.9450    0.9280 C   0  0  0  0  0  0  0  0  0  0  0  0
   -4.6350   -0.0570    0.3890 C   0  0  0  0  0  0  0  0  0  0  0  0
   -6.0970   -0.0960    0.5790 C   0  0  0  0  0  0  0  0  0  0  0  0
   -4.0140   -1.0120   -0.3260 N   0  0  0  0  0  0  0  0  0  0  0  0
   -4.8560   -2.0620   -0.8870 C   0  0  0  0  0  0  0  0  0  0  0  0
   -2.6960   -1.0320   -0.5340 C   0  0  0  0  0  0  0  0  0  0  0  0
   -2.1550   -1.9450   -1.2090 O   0  0  0  0  0  0  0  0  0  0  0  0
    1.8760    0.8190   -0.0120 C   0  0  0  0  0  0  0  0  0  0  0  0
    2.7120   -0.0380   -0.6980 C   0  0  0  0  0  0  0  0  0  0  0  0
    2.0650   -1.4440   -1.5200 Cl  0  0  0  0  0  0  0  0  0  0  0  0
  1  2  1  0
  2  3  1  0
  3  4  2  0
  3 22  1  0
  4  5  1  0
  4  6  1  0
  6  7  2  0
  7  8  1  0
  7 21  1  0
  8  9  1  0
  9 10  2  0
 10 11  1  0
 10 21  1  0
 11 12  1  0
 12 13  2  0
 12 19  1  0
 13 14  1  0
 14 15  2  0
 15 16  1  0
 15 17  1  0
 17 18  1  0
 17 19  1  0
 19 20  2  0
 21 22  2  0
 22 23  1  0
M  END
