
     RDKit          3D

 23 25  0  0  0  0  0  0  0  0999 V2000
   -4.2240   -2.6390   -0.6890 C   0  0  0  0  0  0  0  0  0  0  0  0
   -3.4320   -3.1670    0.4800 C   0  0  0  0  0  0  0  0  0  0  0  0
   -1.9710   -2.7940    0.3920 C   0  0  0  0  0  0  0  0  0  0  0  0
   -1.8490   -1.3720    0.3750 N   0  0  0  0  0  0  0  0  0  0  0  0
   -0.5780   -0.7130    0.2960 C   0  0  0  0  0  0  0  0  0  0  0  0
    0.6320   -1.2920    0.2290 N   0  0  0  0  0  0  0  0  0  0  0  0
    1.5860   -0.3510    0.1660 C   0  0  0  0  0  0  0  0  0  0  0  0
    3.0440   -0.4920    0.0820 C   0  0  0  0  0  0  0  0  0  0  0  0
    3.6280   -1.6690    0.0570 C   0  0  0  0  0  0  0  0  0  0  0  0
    5.0780   -1.8890   -0.0270 C   0  0  2  0  0  0  0  0  0  0  0  0
    5.5480   -2.8510    1.4150 Cl  0  0  0  0  0  0  0  0  0  0  0  0
    5.9290   -0.6800   -0.0850 C   0  0  0  0  0  0  0  0  0  0  0  0
    5.2270    0.6190   -0.0530 C   0  0  0  0  0  0  0  0  0  0  0  0
    6.1170    2.1380   -0.1160 Cl  0  0  0  0  0  0  0  0  0  0  0  0
    3.9250    0.6620    0.0230 C   0  0  0  0  0  0  0  0  0  0  0  0
    0.9360    0.8220    0.1960 N   0  0  0  0  0  0  0  0  0  0  0  0
   -0.3820    0.6030    0.2750 N   0  0  0  0  0  0  0  0  0  0  0  0
   -1.4260    1.6330    0.3280 C   0  0  1  0  0  0  0  0  0  0  0  0
   -0.7710    2.9660    0.6280 C   0  0  0  0  0  0  0  0  0  0  0  0
   -1.5180    4.0550   -0.1130 C   0  0  0  0  0  0  0  0  0  0  0  0
   -2.8880    3.7420   -0.0970 O   0  0  0  0  0  0  0  0  0  0  0  0
   -3.1660    2.7220   -0.9780 C   0  0  0  0  0  0  0  0  0  0  0  0
   -2.0040    1.7300   -1.0690 C   0  0  0  0  0  0  0  0  0  0  0  0
  1  2  1  0
  2  3  1  0
  3  4  1  0
  4  5  1  0
  5  6  2  0
  5 17  1  0
  6  7  1  0
  7  8  1  0
  7 16  2  0
  8  9  2  0
  8 15  1  0
  9 10  1  0
 10 11  1  1
 10 12  1  0
 12 13  1  0
 13 14  1  0
 13 15  2  0
 16 17  1  0
 18 17  1  6
 18 19  1  0
 18 23  1  0
 19 20  1  0
 20 21  1  0
 21 22  1  0
 22 23  1  0
M  END
