
     RDKit          3D

 23 24  0  0  0  0  0  0  0  0999 V2000
    7.0780    0.3160    0.1900 C   0  0  0  0  0  0  0  0  0  0  0  0
    6.4790   -0.7080   -0.6850 C   0  0  0  0  0  0  0  0  0  0  0  0
    5.1790   -0.8590   -0.7900 C   0  0  0  0  0  0  0  0  0  0  0  0
    4.2560   -0.0320   -0.0570 C   0  0  0  0  0  0  0  0  0  0  0  0
    2.8950   -0.1860   -0.1640 C   0  0  0  0  0  0  0  0  0  0  0  0
    2.4230   -1.4510   -1.2510 Cl  0  0  0  0  0  0  0  0  0  0  0  0
    2.1090    0.6970    0.6160 C   0  0  0  0  0  0  0  0  0  0  0  0
    0.8540    0.9290    0.8420 C   0  0  0  0  0  0  0  0  0  0  0  0
    0.5320    1.9640    1.7440 C   0  0  0  0  0  0  0  0  0  0  0  0
   -0.7310    2.2550    2.0210 N   0  0  0  0  0  0  0  0  0  0  0  0
   -1.7710    1.6060    1.4790 C   0  0  0  0  0  0  0  0  0  0  0  0
   -3.0180    1.9750    1.8220 N   0  0  0  0  0  0  0  0  0  0  0  0
   -4.0530    1.3400    1.2920 C   0  0  0  0  0  0  0  0  0  0  0  0
   -5.2330    1.6770    1.6070 O   0  0  0  0  0  0  0  0  0  0  0  0
   -3.9080    0.2960    0.3850 C   0  0  0  0  0  0  0  0  0  0  0  0
   -5.0800   -0.3440   -0.1470 C   0  0  0  0  0  0  0  0  0  0  0  0
   -5.2340   -1.3050   -0.9760 C   0  0  0  0  0  0  0  0  0  0  0  0
   -6.6510   -1.7500   -1.3350 C   0  0  0  0  0  0  0  0  0  0  0  0
   -2.6040   -0.0370    0.0720 C   0  0  0  0  0  0  0  0  0  0  0  0
   -2.3680   -1.3400   -1.0620 Cl  0  0  0  0  0  0  0  0  0  0  0  0
   -1.5360    0.6150    0.6150 N   0  0  0  0  0  0  0  0  0  0  0  0
   -0.2470    0.2670    0.2890 C   0  0  0  0  0  0  0  0  0  0  0  0
   -0.0190   -0.6420   -0.5030 N   0  0  0  0  0  0  0  0  0  0  0  0
  1  2  1  0
  2  3  2  3
  3  4  1  0
  4  5  2  3
  5  6  1  0
  5  7  1  0
  7  8  2  3
  8  9  1  0
  8 22  1  0
  9 10  2  0
 10 11  1  0
 11 12  2  0
 11 21  1  0
 12 13  1  0
 13 14  2  0
 13 15  1  0
 15 16  1  0
 15 19  2  0
 16 17  2  3
 17 18  1  0
 19 20  1  0
 19 21  1  0
 21 22  1  0
 22 23  2  0
M  END
