
     RDKit          3D

 23 25  0  0  0  0  0  0  0  0999 V2000
    5.9440   -0.1770   -0.6370 C   0  0  0  0  0  0  0  0  0  0  0  0
    4.5670    0.2810   -0.5930 N   0  0  0  0  0  0  0  0  0  0  0  0
    4.3400    0.8230    0.7440 C   0  0  0  0  0  0  0  0  0  0  0  0
    3.5310   -0.1610    1.5700 C   0  0  0  0  0  0  0  0  0  0  0  0
    2.1950   -0.2200    0.9000 N   0  0  0  0  0  0  0  0  0  0  0  0
    1.1050    0.0870    1.6960 C   0  0  0  0  0  0  0  0  0  0  0  0
    1.3420    0.3980    2.9510 O   0  0  0  0  0  0  0  0  0  0  0  0
   -0.2750    0.1080    1.3210 C   0  0  0  0  0  0  0  0  0  0  0  0
   -0.8300   -0.1490    0.1670 C   0  0  0  0  0  0  0  0  0  0  0  0
   -2.2530   -0.0910   -0.1170 C   0  0  0  0  0  0  0  0  0  0  0  0
   -2.7950   -0.4150   -1.3010 C   0  0  0  0  0  0  0  0  0  0  0  0
   -2.4740   -0.8520   -2.6090 N   0  0  0  0  0  0  0  0  0  0  0  0
   -3.6780   -1.1680   -3.2840 C   0  0  0  0  0  0  0  0  0  0  0  0
   -4.7030   -0.9420   -2.4430 C   0  0  0  0  0  0  0  0  0  0  0  0
   -4.2020   -0.4790   -1.2090 N   0  0  0  0  0  0  0  0  0  0  0  0
   -4.5720   -0.0940    0.1610 C   0  0  1  0  0  0  0  0  0  0  0  0
   -5.0970   -1.4840    1.1160 Cl  0  0  0  0  0  0  0  0  0  0  0  0
   -3.3270    0.5000    0.7130 C   0  0  0  0  0  0  0  0  0  0  0  0
   -3.2270    1.4310    1.6330 C   0  0  0  0  0  0  0  0  0  0  0  0
   -4.2960    1.9960    2.4530 C   0  0  0  0  0  0  0  0  0  0  0  0
   -5.9000    1.3720    2.2530 Cl  0  0  0  0  0  0  0  0  0  0  0  0
    2.2570   -0.5890   -0.4730 C   0  0  0  0  0  0  0  0  0  0  0  0
    3.7280   -0.8680   -0.8260 C   0  0  0  0  0  0  0  0  0  0  0  0
  1  2  1  0
  2  3  1  0
  2 23  1  0
  3  4  1  0
  4  5  1  0
  5  6  1  0
  5 22  1  0
  6  7  2  0
  6  8  1  0
  8  9  2  3
  9 10  1  0
 10 11  2  0
 10 18  1  0
 11 12  1  0
 11 15  1  0
 12 13  1  0
 13 14  2  0
 14 15  1  0
 15 16  1  0
 16 17  1  1
 16 18  1  0
 18 19  2  3
 19 20  1  0
 20 21  1  0
 22 23  1  0
M  END
