
     RDKit          3D

 23 25  0  0  0  0  0  0  0  0999 V2000
    6.2060    0.5040    1.3920 C   0  0  0  0  0  0  0  0  0  0  0  0
    5.8640   -0.3290    0.3010 O   0  0  0  0  0  0  0  0  0  0  0  0
    4.5530   -0.3020   -0.1590 C   0  0  0  0  0  0  0  0  0  0  0  0
    3.6020    0.5060    0.4160 C   0  0  0  0  0  0  0  0  0  0  0  0
    2.3110    0.5280   -0.0430 C   0  0  0  0  0  0  0  0  0  0  0  0
    1.9130   -0.2560   -1.0980 C   0  0  0  0  0  0  0  0  0  0  0  0
    0.5590   -0.2300   -1.5770 N   0  0  0  0  0  0  0  0  0  0  0  0
    0.1900   -1.0780   -2.6940 C   0  0  0  0  0  0  0  0  0  0  0  0
   -0.3660    0.6300   -0.9310 C   0  0  0  0  0  0  0  0  0  0  0  0
   -0.3690    1.9440   -0.7710 N   0  0  0  0  0  0  0  0  0  0  0  0
   -1.4470    2.3360   -0.0900 N   0  0  0  0  0  0  0  0  0  0  0  0
   -2.1800    1.2480    0.2110 C   0  0  0  0  0  0  0  0  0  0  0  0
   -1.5170    0.1390   -0.3130 C   0  0  0  0  0  0  0  0  0  0  0  0
   -2.0860   -1.2030   -0.1700 C   0  0  0  0  0  0  0  0  0  0  0  0
   -2.8440   -1.3300    1.1190 C   0  0  0  0  0  0  0  0  0  0  0  0
   -3.8900   -0.3180    1.1020 N   0  0  0  0  0  0  0  0  0  0  0  0
   -5.2880   -0.5520    1.2180 C   0  0  0  0  0  0  0  0  0  0  0  0
   -3.4270    1.0430    0.9560 C   0  0  0  0  0  0  0  0  0  0  0  0
   -4.0950    2.0490    1.4510 C   0  0  0  0  0  0  0  0  0  0  0  0
   -3.7060    3.7230    1.3590 Cl  0  0  0  0  0  0  0  0  0  0  0  0
    2.8620   -1.0690   -1.6810 C   0  0  0  0  0  0  0  0  0  0  0  0
    4.1620   -1.1020   -1.2310 C   0  0  0  0  0  0  0  0  0  0  0  0
    5.3530   -2.1390   -1.9810 Cl  0  0  0  0  0  0  0  0  0  0  0  0
  1  2  1  0
  2  3  1  0
  3  4  2  0
  3 22  1  0
  4  5  1  0
  5  6  2  0
  6  7  1  0
  6 21  1  0
  7  8  1  0
  7  9  1  0
  9 10  2  0
  9 13  1  0
 10 11  1  0
 11 12  1  0
 12 13  2  0
 12 18  1  0
 13 14  1  0
 14 15  1  0
 15 16  1  0
 16 17  1  0
 16 18  1  0
 18 19  2  3
 19 20  1  0
 21 22  2  0
 22 23  1  0
M  END
