
     RDKit          3D

 23 25  0  0  0  0  0  0  0  0999 V2000
   -3.4160   -1.0330   -1.1190 C   0  0  0  0  0  0  0  0  0  0  0  0
   -2.3730   -1.5910   -0.6330 C   0  0  0  0  0  0  0  0  0  0  0  0
   -1.0230   -1.4140   -0.2970 C   0  0  0  0  0  0  0  0  0  0  0  0
   -0.4800   -2.6200    0.1660 C   0  0  0  0  0  0  0  0  0  0  0  0
   -1.1890   -3.8390    0.2790 C   0  0  2  0  0  0  0  0  0  0  0  0
   -1.7320   -4.5470   -1.2740 Cl  0  0  0  0  0  0  0  0  0  0  0  0
   -2.4550   -3.9370    1.5340 Cl  0  0  0  0  0  0  0  0  0  0  0  0
   -0.0330   -0.3980   -0.4190 C   0  0  0  0  0  0  0  0  0  0  0  0
   -0.2380    0.8150   -0.6830 C   0  0  0  0  0  0  0  0  0  0  0  0
   -1.5290    1.3890   -0.8750 C   0  0  0  0  0  0  0  0  0  0  0  0
   -1.9980    2.0110   -1.9430 N   0  0  0  0  0  0  0  0  0  0  0  0
   -3.1660    2.6170   -1.5950 C   0  0  0  0  0  0  0  0  0  0  0  0
   -3.4400    2.3610   -0.2580 C   0  0  0  0  0  0  0  0  0  0  0  0
   -2.4050    1.5920    0.1690 N   0  0  0  0  0  0  0  0  0  0  0  0
    0.8930    1.8690   -0.8740 C   0  0  0  0  0  0  0  0  0  0  0  0
    1.5240    2.1450    0.4820 C   0  0  0  0  0  0  0  0  0  0  0  0
    2.4040    1.0410    0.8280 N   0  0  0  0  0  0  0  0  0  0  0  0
    3.4680    1.1770    1.7280 C   0  0  0  0  0  0  0  0  0  0  0  0
    3.6350    2.0630    2.6090 O   0  0  0  0  0  0  0  0  0  0  0  0
    4.4130    0.0590    1.4670 C   0  0  0  0  0  0  0  0  0  0  0  0
    3.7030   -0.8800    0.5290 C   0  0  0  0  0  0  0  0  0  0  0  0
    2.3530   -0.3090    0.3280 C   0  0  0  0  0  0  0  0  0  0  0  0
    1.3700   -0.9330   -0.1920 N   0  0  0  0  0  0  0  0  0  0  0  0
  1  2  2  0
  2  3  1  0
  3  4  2  3
  3  8  1  0
  4  5  1  0
  5  6  1  6
  5  7  1  0
  8  9  2  0
  8 23  1  0
  9 10  1  0
  9 15  1  0
 10 11  2  0
 10 14  1  0
 11 12  1  0
 12 13  2  0
 13 14  1  0
 15 16  1  0
 16 17  1  0
 17 18  1  0
 17 22  1  0
 18 19  2  0
 18 20  1  0
 20 21  1  0
 21 22  1  0
 22 23  2  0
M  END
