
     RDKit          3D

 23 25  0  0  0  0  0  0  0  0999 V2000
   -1.6510    2.0980    0.6840 C   0  0  0  0  0  0  0  0  0  0  0  0
   -0.3970    1.0790    0.6940 C   0  0  2  0  0  0  0  0  0  0  0  0
    0.1090    1.7430   -0.6630 C   0  0  0  0  0  0  0  0  0  0  0  0
   -0.9710   -0.2250    0.3780 C   0  0  0  0  0  0  0  0  0  0  0  0
   -2.1860   -0.5470    1.0260 C   0  0  0  0  0  0  0  0  0  0  0  0
   -2.7180    0.2160    2.1130 C   0  0  0  0  0  0  0  0  0  0  0  0
   -1.7470    0.1800    3.6240 Cl  0  0  0  0  0  0  0  0  0  0  0  0
   -2.8020   -1.7120    0.5360 C   0  0  0  0  0  0  0  0  0  0  0  0
   -3.9110   -2.0210    1.1050 O   0  0  0  0  0  0  0  0  0  0  0  0
   -2.3530   -2.4830   -0.4220 N   0  0  0  0  0  0  0  0  0  0  0  0
   -1.1820   -2.1770   -1.0200 C   0  0  0  0  0  0  0  0  0  0  0  0
   -0.6680   -3.0640   -1.8940 N   0  0  0  0  0  0  0  0  0  0  0  0
    0.5570   -2.9250   -2.4060 C   0  0  0  0  0  0  0  0  0  0  0  0
    1.2800   -1.8750   -2.0190 N   0  0  0  0  0  0  0  0  0  0  0  0
    0.7830   -0.9310   -1.1160 C   0  0  0  0  0  0  0  0  0  0  0  0
    1.8560   -0.1750   -0.5120 C   0  0  0  0  0  0  0  0  0  0  0  0
    2.7550    0.4450   -1.3320 C   0  0  0  0  0  0  0  0  0  0  0  0
    3.9240    1.0410   -0.8550 C   0  0  0  0  0  0  0  0  0  0  0  0
    4.1230    0.9690    0.5020 C   0  0  0  0  0  0  0  0  0  0  0  0
    5.5810    1.7080    1.1490 Cl  0  0  0  0  0  0  0  0  0  0  0  0
    3.2380    0.3570    1.3260 N   0  0  0  0  0  0  0  0  0  0  0  0
    2.1080   -0.2120    0.8030 C   0  0  0  0  0  0  0  0  0  0  0  0
   -0.4760   -1.0310   -0.6020 C   0  0  0  0  0  0  0  0  0  0  0  0
  2  1  1  6
  2  3  1  0
  2  4  1  0
  4  5  2  0
  4 23  1  0
  5  6  1  0
  5  8  1  0
  6  7  1  0
  8  9  2  0
  8 10  1  0
 10 11  1  0
 11 12  2  0
 11 23  1  0
 12 13  1  0
 13 14  2  0
 14 15  1  0
 15 16  1  0
 15 23  2  0
 16 17  2  0
 16 22  1  0
 17 18  1  0
 18 19  2  0
 19 20  1  0
 19 21  1  0
 21 22  2  0
M  END
