
     RDKit          3D

 23 25  0  0  0  0  0  0  0  0999 V2000
    3.1520   -2.6020    0.1770 C   0  0  0  0  0  0  0  0  0  0  0  0
    2.5990   -1.2470    0.1210 C   0  0  0  0  0  0  0  0  0  0  0  0
    1.2750   -0.9110    0.0690 C   0  0  0  0  0  0  0  0  0  0  0  0
    0.1390   -1.8270    0.0580 C   0  0  0  0  0  0  0  0  0  0  0  0
    0.4620   -3.0260    0.0120 O   0  0  0  0  0  0  0  0  0  0  0  0
   -1.2470   -1.4660    0.0930 N   0  0  0  0  0  0  0  0  0  0  0  0
   -1.8510   -0.1830   -0.0160 C   0  0  0  0  0  0  0  0  0  0  0  0
   -3.3360   -0.1330   -0.0830 C   0  0  2  0  0  0  0  0  0  0  0  0
   -3.9720   -0.7370    1.1540 C   0  0  0  0  0  0  0  0  0  0  0  0
   -3.8380   -0.8270   -1.3490 C   0  0  0  0  0  0  0  0  0  0  0  0
   -3.7810    1.3110   -0.1840 C   0  0  0  0  0  0  0  0  0  0  0  0
   -1.2350    0.9480   -0.0640 N   0  0  0  0  0  0  0  0  0  0  0  0
    0.1320    1.3170   -0.0300 C   0  0  0  0  0  0  0  0  0  0  0  0
    0.3630    2.6740   -0.0610 C   0  0  0  0  0  0  0  0  0  0  0  0
    1.6530    3.1930   -0.0340 C   0  0  0  0  0  0  0  0  0  0  0  0
    1.9630    4.9170   -0.0720 Cl  0  0  0  0  0  0  0  0  0  0  0  0
    2.7190    2.3230    0.0250 C   0  0  0  0  0  0  0  0  0  0  0  0
    4.3820    2.9030    0.0630 Cl  0  0  0  0  0  0  0  0  0  0  0  0
    2.4950    0.9530    0.0560 C   0  0  0  0  0  0  0  0  0  0  0  0
    1.2190    0.4830    0.0280 C   0  0  0  0  0  0  0  0  0  0  0  0
    3.3000   -0.1030    0.1120 N   0  0  0  0  0  0  0  0  0  0  0  0
    4.7200   -0.0220    0.1550 C   0  0  0  0  0  0  0  0  0  0  0  0
    5.2620    0.2710    1.2810 N   0  0  0  0  0  0  0  0  0  0  0  0
  1  2  1  0
  2  3  2  0
  2 21  1  0
  3  4  1  0
  3 20  1  0
  4  5  2  0
  4  6  1  0
  6  7  1  0
  7  8  1  0
  7 12  2  0
  8  9  1  1
  8 10  1  0
  8 11  1  0
 12 13  1  0
 13 14  2  0
 13 20  1  0
 14 15  1  0
 15 16  1  0
 15 17  2  0
 17 18  1  0
 17 19  1  0
 19 20  2  0
 19 21  1  0
 21 22  1  0
 22 23  2  0
M  END
