
     RDKit          3D

 19 22  0  0  0  0  0  0  0  0999 V2000
   -5.1230   -0.9040   -0.6460 C   0  0  0  0  0  0  0  0  0  0  0  0
   -5.7270   -0.7750    0.5190 N   0  0  0  0  0  0  0  0  0  0  0  0
   -4.8070   -0.3080    1.4790 O   0  0  0  0  0  0  0  0  0  0  0  0
   -3.8890    0.4330    0.7530 C   0  0  1  0  0  0  0  0  0  0  0  0
   -2.6440    0.7850    1.2940 N   0  0  0  0  0  0  0  0  0  0  0  0
   -1.3810    0.6160    0.6370 C   0  0  0  0  0  0  0  0  0  0  0  0
   -0.2230    1.1680    1.1520 C   0  0  0  0  0  0  0  0  0  0  0  0
    1.0120    1.0070    0.5230 C   0  0  0  0  0  0  0  0  0  0  0  0
    1.0270    0.2710   -0.6340 C   0  0  0  0  0  0  0  0  0  0  0  0
    2.2160    0.0160   -1.3330 N   0  0  0  0  0  0  0  0  0  0  0  0
    3.4920   -0.1850   -0.7900 C   0  0  0  0  0  0  0  0  0  0  0  0
    3.9060   -0.2770    0.5090 C   0  0  0  0  0  0  0  0  0  0  0  0
    5.2980   -0.4550    0.5490 C   0  0  0  0  0  0  0  0  0  0  0  0
    5.6800   -0.4660   -0.7240 N   0  0  0  0  0  0  0  0  0  0  0  0
    4.6430   -0.3100   -1.5170 N   0  0  0  0  0  0  0  0  0  0  0  0
   -0.1480   -0.2890   -1.1560 C   0  0  0  0  0  0  0  0  0  0  0  0
   -1.3550   -0.1210   -0.5270 C   0  0  0  0  0  0  0  0  0  0  0  0
   -2.6100   -0.6910   -1.0490 C   0  0  0  0  0  0  0  0  0  0  0  0
   -3.7470   -0.5030   -0.4410 C   0  0  0  0  0  0  0  0  0  0  0  0
  1  2  2  0
  1 19  1  0
  2  3  1  0
  3  4  1  0
  4  5  1  1
  4 19  1  0
  5  6  1  0
  6  7  2  0
  6 17  1  0
  7  8  1  0
  8  9  2  0
  9 10  1  0
  9 16  1  0
 10 11  1  0
 11 12  1  0
 11 15  2  0
 12 13  2  0
 13 14  1  0
 14 15  1  0
 16 17  2  0
 17 18  1  0
 18 19  2  0
M  END
