
     RDKit          3D

 20 22  0  0  0  0  0  0  0  0999 V2000
    2.1560   -0.7290   -3.8740 N   0  0  0  0  0  0  0  0  0  0  0  0
    1.6330   -0.5630   -2.5660 C   0  0  0  0  0  0  0  0  0  0  0  0
    2.3220   -0.8320   -1.4540 N   0  0  0  0  0  0  0  0  0  0  0  0
    1.8240   -0.6730   -0.2140 C   0  0  0  0  0  0  0  0  0  0  0  0
    2.6280   -0.9850    0.9500 C   0  0  0  0  0  0  0  0  0  0  0  0
    2.1260   -0.8240    2.1470 C   0  0  0  0  0  0  0  0  0  0  0  0
    2.8790   -1.1190    3.3930 C   0  0  0  0  0  0  0  0  0  0  0  0
    2.9820    0.0400    4.1600 O   0  0  0  0  0  0  0  0  0  0  0  0
    0.5540   -0.2150   -0.1150 N   0  0  0  0  0  0  0  0  0  0  0  0
   -0.1890    0.0730   -1.1980 C   0  0  0  0  0  0  0  0  0  0  0  0
    0.3320   -0.0930   -2.4730 C   0  0  0  0  0  0  0  0  0  0  0  0
   -0.6280    0.2710   -3.3740 C   0  0  0  0  0  0  0  0  0  0  0  0
   -1.7020    0.6470   -2.6480 N   0  0  0  0  0  0  0  0  0  0  0  0
   -1.4470    0.5320   -1.3600 N   0  0  0  0  0  0  0  0  0  0  0  0
   -2.3180    0.8290   -0.2750 C   0  0  0  0  0  0  0  0  0  0  0  0
   -2.0790    0.7190    1.0190 C   0  0  0  0  0  0  0  0  0  0  0  0
   -3.2730    1.1390    1.7850 C   0  0  0  0  0  0  0  0  0  0  0  0
   -4.2580    1.5140    0.7350 C   0  0  0  0  0  0  0  0  0  0  0  0
   -3.6880    1.3280   -0.4370 C   0  0  0  0  0  0  0  0  0  0  0  0
   -4.5440    1.6680   -2.1260 Br  0  0  0  0  0  0  0  0  0  0  0  0
  1  2  1  0
  2  3  2  0
  2 11  1  0
  3  4  1  0
  4  5  1  0
  4  9  2  0
  5  6  2  3
  6  7  1  0
  7  8  1  0
  9 10  1  0
 10 11  2  0
 10 14  1  0
 11 12  1  0
 12 13  2  0
 13 14  1  0
 14 15  1  0
 15 16  2  0
 15 19  1  0
 16 17  1  0
 17 18  1  0
 18 19  2  0
 19 20  1  0
M  END
