
     RDKit          3D

 20 22  0  0  0  0  0  0  0  0999 V2000
   -4.3650    0.2440   -2.1680 C   0  0  0  0  0  0  0  0  0  0  0  0
   -3.2890    0.1450   -1.1930 C   0  0  0  0  0  0  0  0  0  0  0  0
   -1.9790    0.1690   -1.6120 C   0  0  0  0  0  0  0  0  0  0  0  0
   -0.9150    0.0780   -0.7200 C   0  0  0  0  0  0  0  0  0  0  0  0
   -1.1740   -0.0400    0.6280 C   0  0  0  0  0  0  0  0  0  0  0  0
   -2.5000   -0.0650    1.0630 C   0  0  0  0  0  0  0  0  0  0  0  0
   -3.5520    0.0280    0.1530 C   0  0  0  0  0  0  0  0  0  0  0  0
   -4.9720    0.0060    0.5630 C   0  0  0  0  0  0  0  0  0  0  0  0
   -0.1420   -0.1340    1.5570 O   0  0  0  0  0  0  0  0  0  0  0  0
    1.1640   -0.1040    1.0640 C   0  0  0  0  0  0  0  0  0  0  0  0
    2.1430   -0.1890    1.8910 N   0  0  0  0  0  0  0  0  0  0  0  0
    3.4870   -0.1650    1.4610 C   0  0  0  0  0  0  0  0  0  0  0  0
    4.5740   -0.2610    2.4040 N   0  0  0  0  0  0  0  0  0  0  0  0
    3.7740   -0.0520    0.1660 C   0  0  0  0  0  0  0  0  0  0  0  0
    5.1700   -0.0300   -0.2430 C   0  0  0  0  0  0  0  0  0  0  0  0
    6.0990   -0.1210    0.6570 N   0  0  0  0  0  0  0  0  0  0  0  0
    7.9200   -0.0980    0.1820 Br  0  0  0  0  0  0  0  0  0  0  0  0
    2.7610    0.0460   -0.8040 N   0  0  0  0  0  0  0  0  0  0  0  0
    1.3950    0.0210   -0.3630 C   0  0  0  0  0  0  0  0  0  0  0  0
    0.4250    0.1040   -1.1810 N   0  0  0  0  0  0  0  0  0  0  0  0
  1  2  1  0
  2  3  2  0
  2  7  1  0
  3  4  1  0
  4  5  2  0
  4 20  1  0
  5  6  1  0
  5  9  1  0
  6  7  2  0
  7  8  1  0
  9 10  1  0
 10 11  2  0
 10 19  1  0
 11 12  1  0
 12 13  1  0
 12 14  2  0
 14 15  1  0
 14 18  1  0
 15 16  2  3
 16 17  1  0
 18 19  1  0
 19 20  2  0
M  END
