
     RDKit          3D

  9  9  0  0  0  0  0  0  0  0999 V2000
    3.0480    0.2440   -0.2340 C   0  0  0  0  0  0  0  0  0  0  0  0
    1.9330   -0.0950   -1.0010 O   0  0  0  0  0  0  0  0  0  0  0  0
    0.8600   -0.2490   -0.1590 C   0  0  2  0  0  0  0  0  0  0  0  0
    0.1890   -1.5940   -0.2780 C   0  0  0  0  0  0  0  0  0  0  0  0
   -1.1830   -1.3070   -0.3710 O   0  0  0  0  0  0  0  0  0  0  0  0
   -1.2620   -0.0460    0.1700 C   0  0  2  0  0  0  0  0  0  0  0  0
   -2.5560    0.6580   -0.0900 C   0  0  0  0  0  0  0  0  0  0  0  0
   -2.4750    1.9180    0.5230 O   0  0  0  0  0  0  0  0  0  0  0  0
   -0.2080    0.6120   -0.4980 O   0  0  0  0  0  0  0  0  0  0  0  0
  1  2  1  0
  3  2  1  6
  3  4  1  0
  3  9  1  0
  4  5  1  0
  5  6  1  0
  6  7  1  6
  6  9  1  0
  7  8  1  0
M  END
