
     RDKit          3D

  9  9  0  0  0  0  0  0  0  0999 V2000
   -2.5400   -1.1320    0.3250 O   0  0  0  0  0  0  0  0  0  0  0  0
   -1.6680   -0.3300   -0.4180 C   0  0  0  0  0  0  0  0  0  0  0  0
   -0.5470    0.1580    0.4850 C   0  0  1  0  0  0  0  0  0  0  0  0
    0.1470   -0.9050    0.9980 O   0  0  0  0  0  0  0  0  0  0  0  0
    1.1430   -1.3630    0.1370 C   0  0  0  0  0  0  0  0  0  0  0  0
    2.0480   -0.1700   -0.1400 C   0  0  0  0  0  0  0  0  0  0  0  0
    1.2930    0.6610   -0.9980 O   0  0  0  0  0  0  0  0  0  0  0  0
    0.2750    1.1860   -0.2040 C   0  0  1  0  0  0  0  0  0  0  0  0
   -0.5950    1.9810   -0.9740 O   0  0  0  0  0  0  0  0  0  0  0  0
  1  2  1  0
  3  2  1  6
  3  4  1  0
  3  8  1  0
  4  5  1  0
  5  6  1  0
  6  7  1  0
  7  8  1  0
  8  9  1  6
M  END
