
     RDKit          3D

 10 10  0  0  0  0  0  0  0  0999 V2000
    2.5470   -1.4910    0.1010 O   0  0  0  0  0  0  0  0  0  0  0  0
    1.7430   -0.5470   -0.5750 C   0  0  0  0  0  0  0  0  0  0  0  0
    0.8960    0.1170    0.4770 C   0  0  2  0  0  0  0  0  0  0  0  0
    0.1260   -0.8250    1.1040 O   0  0  0  0  0  0  0  0  0  0  0  0
   -0.9840   -1.2300    0.3770 C   0  0  0  0  0  0  0  0  0  0  0  0
   -1.8320   -0.0110    0.0700 C   0  0  2  0  0  0  0  0  0  0  0  0
   -2.9630   -0.4720   -0.6060 O   0  0  0  0  0  0  0  0  0  0  0  0
   -1.0540    0.8000   -0.7770 O   0  0  0  0  0  0  0  0  0  0  0  0
    0.0510    1.2350   -0.0560 C   0  0  2  0  0  0  0  0  0  0  0  0
    0.7770    2.1550   -0.7870 O   0  0  0  0  0  0  0  0  0  0  0  0
  1  2  1  0
  3  2  1  6
  3  4  1  0
  3  9  1  0
  4  5  1  0
  5  6  1  0
  6  7  1  6
  6  8  1  0
  8  9  1  0
  9 10  1  6
M  END
