
     RDKit          3D

 10 10  0  0  0  0  0  0  0  0999 V2000
    2.6990    1.0470   -0.4140 O   0  0  0  0  0  0  0  0  0  0  0  0
    2.5870   -0.3140   -0.1070 C   0  0  0  0  0  0  0  0  0  0  0  0
    1.1590   -0.5830    0.2590 C   0  0  1  0  0  0  0  0  0  0  0  0
    0.8160    0.1910    1.3570 O   0  0  0  0  0  0  0  0  0  0  0  0
   -0.5850    0.1230    1.3490 C   0  0  0  0  0  0  0  0  0  0  0  0
   -0.9530   -0.3560   -0.0600 C   0  0  1  0  0  0  0  0  0  0  0  0
   -1.2620   -1.7010   -0.0830 O   0  0  0  0  0  0  0  0  0  0  0  0
   -2.0580    0.4950   -0.6380 C   0  0  0  0  0  0  0  0  0  0  0  0
   -1.6790    1.8190   -0.5800 O   0  0  0  0  0  0  0  0  0  0  0  0
    0.2640   -0.1380   -0.7200 O   0  0  0  0  0  0  0  0  0  0  0  0
  1  2  1  0
  3  2  1  6
  3  4  1  0
  3 10  1  0
  4  5  1  0
  5  6  1  0
  6  7  1  1
  6  8  1  0
  6 10  1  0
  8  9  1  0
M  END
