
     RDKit          3D

  9  9  0  0  0  0  0  0  0  0999 V2000
    2.8640   -0.4640    0.2420 O   0  0  0  0  0  0  0  0  0  0  0  0
    2.2180    0.7140   -0.1670 C   0  0  0  0  0  0  0  0  0  0  0  0
    0.9560    0.8290    0.3960 O   0  0  0  0  0  0  0  0  0  0  0  0
    0.1070   -0.1920    0.0760 C   0  0  1  0  0  0  0  0  0  0  0  0
   -0.5130   -0.8550    1.3120 C   0  0  0  0  0  0  0  0  0  0  0  0
   -1.5610   -1.5560    0.6850 O   0  0  0  0  0  0  0  0  0  0  0  0
   -2.2330   -0.4980    0.0540 C   0  0  0  0  0  0  0  0  0  0  0  0
   -1.1530    0.3900   -0.5350 C   0  0  2  0  0  0  0  0  0  0  0  0
   -1.1230    0.3530   -1.9040 O   0  0  0  0  0  0  0  0  0  0  0  0
  1  2  1  0
  2  3  1  0
  4  3  1  1
  4  5  1  0
  4  8  1  0
  5  6  1  0
  6  7  1  0
  7  8  1  0
  8  9  1  6
M  END
