
     RDKit          3D

 32 34  0  0  0  0  0  0  0  0999 V2000
   -4.8060   -2.9100    0.3690 N   0  0  0  0  0  0  0  0  0  0  0  0
   -5.0430   -1.5460   -0.0030 C   0  0  0  0  0  0  0  0  0  0  0  0
   -4.0590   -0.6320    0.0750 N   0  0  0  0  0  0  0  0  0  0  0  0
   -4.3760    0.6340   -0.2980 C   0  0  0  0  0  0  0  0  0  0  0  0
   -5.6490    0.9720   -0.7380 C   0  0  0  0  0  0  0  0  0  0  0  0
   -5.5860    2.2880   -1.0130 N   0  0  0  0  0  0  0  0  0  0  0  0
   -4.3330    2.7310   -0.7530 C   0  0  0  0  0  0  0  0  0  0  0  0
   -3.5750    1.7130   -0.3090 N   0  0  0  0  0  0  0  0  0  0  0  0
   -2.1830    1.7780    0.0740 C   0  0  2  0  0  0  0  0  0  0  0  0
   -1.3450    1.2030   -0.8660 O   0  0  0  0  0  0  0  0  0  0  0  0
   -0.1800    0.9060   -0.1600 C   0  0  2  0  0  0  0  0  0  0  0  0
    0.7420    0.0130   -0.9550 C   0  0  0  0  0  0  0  0  0  0  0  0
    1.8760   -0.2580   -0.2310 O   0  0  0  0  0  0  0  0  0  0  0  0
    2.9390   -1.2490   -1.0670 P   0  0  2  0  0  0  0  0  0  0  0  0
    3.7760   -0.4030   -1.9880 O   0  0  0  0  0  0  0  0  0  0  0  0
    2.0030   -2.3680   -1.9480 O   0  0  0  0  0  0  0  0  0  0  0  0
    3.8920   -2.0630    0.0680 O   0  0  0  0  0  0  0  0  0  0  0  0
    5.4770   -1.5290    0.0260 P   0  0  2  0  0  0  0  0  0  0  0  0
    6.1500   -1.7930   -1.2850 O   0  0  0  0  0  0  0  0  0  0  0  0
    6.3220   -2.2560    1.3090 O   0  0  0  0  0  0  0  0  0  0  0  0
    5.4860    0.1450    0.2850 O   0  0  0  0  0  0  0  0  0  0  0  0
    6.9310    0.7390   -0.4030 P   0  0  2  0  0  0  0  0  0  0  0  0
    6.8630    0.5980   -1.9160 O   0  0  0  0  0  0  0  0  0  0  0  0
    8.2600   -0.1790    0.1120 O   0  0  0  0  0  0  0  0  0  0  0  0
    7.1520    2.3700   -0.0590 O   0  0  0  0  0  0  0  0  0  0  0  0
   -0.7430    0.1940    1.0550 C   0  0  1  0  0  0  0  0  0  0  0  0
    0.1780    0.1680    2.1030 O   0  0  0  0  0  0  0  0  0  0  0  0
   -1.9250    1.0780    1.3890 C   0  0  1  0  0  0  0  0  0  0  0  0
   -1.5170    1.9680    2.3880 O   0  0  0  0  0  0  0  0  0  0  0  0
   -6.6290    0.0030   -0.8020 C   0  0  0  0  0  0  0  0  0  0  0  0
   -7.7720    0.3290   -1.2020 O   0  0  0  0  0  0  0  0  0  0  0  0
   -6.2900   -1.2440   -0.4270 N   0  0  0  0  0  0  0  0  0  0  0  0
  1  2  1  0
  2  3  2  0
  2 32  1  0
  3  4  1  0
  4  5  2  0
  4  8  1  0
  5  6  1  0
  5 30  1  0
  6  7  2  0
  7  8  1  0
  9  8  1  6
  9 10  1  0
  9 28  1  0
 10 11  1  0
 11 12  1  6
 11 26  1  0
 12 13  1  0
 13 14  1  0
 14 15  2  0
 14 16  1  6
 14 17  1  0
 17 18  1  0
 18 19  2  0
 18 20  1  1
 18 21  1  0
 21 22  1  0
 22 23  2  0
 22 24  1  1
 22 25  1  0
 26 27  1  1
 26 28  1  0
 28 29  1  1
 30 31  2  0
 30 32  1  0
M  END
