
     RDKit          3D

 32 33  0  0  0  0  0  0  0  0999 V2000
    6.5520   -2.9650   -2.1200 C   0  0  0  0  0  0  0  0  0  0  0  0
    5.9160   -1.6380   -1.7680 C   0  0  0  0  0  0  0  0  0  0  0  0
    4.8800   -1.7950   -0.8470 O   0  0  0  0  0  0  0  0  0  0  0  0
    4.1340   -0.3210   -0.4210 P   0  0  0  0  0  0  0  0  0  0  0  0
    2.2650   -0.4160   -0.4190 C   0  0  0  0  0  0  0  0  0  0  0  0
    1.7120    0.2020   -1.5740 N   0  0  0  0  0  0  0  0  0  0  0  0
    1.5330   -0.7090   -2.7410 C   0  0  0  0  0  0  0  0  0  0  0  0
    1.3410    1.5220   -1.7170 C   0  0  0  0  0  0  0  0  0  0  0  0
    0.9390    1.8480   -2.9240 O   0  0  0  0  0  0  0  0  0  0  0  0
    1.3170    2.6270   -0.7830 C   0  0  0  0  0  0  0  0  0  0  0  0
    1.2700    2.3910    0.5810 O   0  0  0  0  0  0  0  0  0  0  0  0
    0.1440    1.7710    1.1220 C   0  0  0  0  0  0  0  0  0  0  0  0
    0.1230    1.5480    2.4810 C   0  0  0  0  0  0  0  0  0  0  0  0
   -0.9630    0.9350    3.1040 C   0  0  0  0  0  0  0  0  0  0  0  0
   -2.0320    0.5490    2.3220 C   0  0  0  0  0  0  0  0  0  0  0  0
   -2.0300    0.7630    0.9590 C   0  0  0  0  0  0  0  0  0  0  0  0
   -0.9480    1.3700    0.3640 C   0  0  0  0  0  0  0  0  0  0  0  0
   -3.2360    0.3050    0.2250 C   0  0  1  0  0  0  0  0  0  0  0  0
   -3.2080    0.6100   -1.1600 N   0  0  0  0  0  0  0  0  0  0  0  0
   -4.4310    0.2740   -1.8070 C   0  0  0  0  0  0  0  0  0  0  0  0
   -4.3790    0.6390   -3.3010 C   0  0  0  0  0  0  0  0  0  0  0  0
   -5.5920    0.2920   -3.8820 O   0  0  0  0  0  0  0  0  0  0  0  0
   -3.3920   -1.1550    0.5630 C   0  0  0  0  0  0  0  0  0  0  0  0
   -3.5190   -1.3440    2.0570 C   0  0  2  0  0  0  0  0  0  0  0  0
   -4.8390   -1.8400    2.3710 N   0  0  0  0  0  0  0  0  0  0  0  0
   -5.0210   -3.0690    3.0130 C   0  0  0  0  0  0  0  0  0  0  0  0
   -4.0670   -3.8270    3.3610 O   0  0  0  0  0  0  0  0  0  0  0  0
   -6.3060   -3.5100    3.2970 O   0  0  0  0  0  0  0  0  0  0  0  0
   -3.2460   -0.1150    2.8660 C   0  0  0  0  0  0  0  0  0  0  0  0
    4.7490    0.4050    1.0030 O   0  0  0  0  0  0  0  0  0  0  0  0
    5.0510    1.7490    0.6900 C   0  0  0  0  0  0  0  0  0  0  0  0
    5.5970    2.4330    1.9100 C   0  0  0  0  0  0  0  0  0  0  0  0
  1  2  1  0
  2  3  1  0
  3  4  1  0
  4  5  1  0
  4 30  1  0
  5  6  1  0
  6  7  1  0
  6  8  1  0
  8  9  2  0
  8 10  1  0
 10 11  1  0
 11 12  1  0
 12 13  2  0
 12 17  1  0
 13 14  1  0
 14 15  2  0
 15 16  1  0
 15 29  1  0
 16 17  2  0
 16 18  1  0
 18 19  1  6
 18 23  1  0
 19 20  1  0
 20 21  1  0
 21 22  1  0
 23 24  1  0
 24 25  1  6
 24 29  1  0
 25 26  1  0
 26 27  2  0
 26 28  1  0
 30 31  1  0
 31 32  1  0
M  END
