
     RDKit          3D

 32 33  0  0  0  0  0  0  0  0999 V2000
   -1.8260   -5.0630   -0.3620 C   0  0  0  0  0  0  0  0  0  0  0  0
   -2.7490   -4.1850   -1.1890 C   0  0  0  0  0  0  0  0  0  0  0  0
   -3.4250   -3.2590   -0.4360 O   0  0  0  0  0  0  0  0  0  0  0  0
   -2.5540   -2.3730    0.2430 C   0  0  2  0  0  0  0  0  0  0  0  0
   -2.8050   -2.5740    1.7010 C   0  0  0  0  0  0  0  0  0  0  0  0
   -2.2020   -1.3940    2.4620 C   0  0  0  0  0  0  0  0  0  0  0  0
   -2.8020   -0.2630    1.9730 O   0  0  0  0  0  0  0  0  0  0  0  0
   -2.3010    0.0480    0.6380 C   0  0  1  0  0  0  0  0  0  0  0  0
   -2.8060    1.4280    0.4350 C   0  0  0  0  0  0  0  0  0  0  0  0
   -2.5810    2.0880   -0.8310 C   0  0  0  0  0  0  0  0  0  0  0  0
   -2.0870    1.5660   -1.8860 O   0  0  0  0  0  0  0  0  0  0  0  0
   -2.9310    3.4600   -0.9690 N   0  0  0  0  0  0  0  0  0  0  0  0
   -2.7210    4.1890   -2.2130 C   0  0  0  0  0  0  0  0  0  0  0  0
   -3.5240    4.1900    0.1320 C   0  0  0  0  0  0  0  0  0  0  0  0
   -5.3720    4.0140    0.0080 P   0  0  0  0  0  0  0  0  0  0  0  0
   -5.7230    2.6650   -1.0100 O   0  0  0  0  0  0  0  0  0  0  0  0
   -6.0800    3.8040    1.5870 O   0  0  0  0  0  0  0  0  0  0  0  0
   -0.8930   -0.0820    0.8390 N   0  0  0  0  0  0  0  0  0  0  0  0
    0.0150    0.3200   -0.1600 C   0  0  0  0  0  0  0  0  0  0  0  0
    1.4090   -0.0750    0.3510 C   0  0  0  0  0  0  0  0  0  0  0  0
    2.4330    0.2800   -0.5650 N   0  0  0  0  0  0  0  0  0  0  0  0
    3.7860   -0.0060   -0.2630 C   0  0  0  0  0  0  0  0  0  0  0  0
    4.1620   -0.6630    0.9060 C   0  0  0  0  0  0  0  0  0  0  0  0
    5.4810   -0.9450    1.2170 C   0  0  0  0  0  0  0  0  0  0  0  0
    6.4670   -0.5640    0.3410 C   0  0  0  0  0  0  0  0  0  0  0  0
    7.8750   -0.8660    0.6810 C   0  0  0  0  0  0  0  0  0  0  0  0
    8.4430    0.2430    1.4670 C   0  0  0  0  0  0  0  0  0  0  0  0
    7.7350    1.2320    1.7390 O   0  0  0  0  0  0  0  0  0  0  0  0
    9.7490    0.1850    1.8960 O   0  0  0  0  0  0  0  0  0  0  0  0
    6.1460    0.0870   -0.8250 C   0  0  0  0  0  0  0  0  0  0  0  0
    4.8250    0.3570   -1.1130 C   0  0  0  0  0  0  0  0  0  0  0  0
   -2.8820   -0.9830   -0.2540 C   0  0  0  0  0  0  0  0  0  0  0  0
  1  2  1  0
  2  3  1  0
  4  3  1  6
  4  5  1  0
  4 32  1  0
  5  6  1  0
  6  7  1  0
  7  8  1  0
  8  9  1  6
  8 18  1  0
  8 32  1  0
  9 10  1  0
 10 11  2  0
 10 12  1  0
 12 13  1  0
 12 14  1  0
 14 15  1  0
 15 16  1  0
 15 17  1  0
 18 19  1  0
 19 20  1  0
 20 21  1  0
 21 22  1  0
 22 23  2  0
 22 31  1  0
 23 24  1  0
 24 25  2  0
 25 26  1  0
 25 30  1  0
 26 27  1  0
 27 28  2  0
 27 29  1  0
 30 31  2  0
M  END
