
     RDKit          3D

 32 33  0  0  0  0  0  0  0  0999 V2000
   -1.2240    1.8540   -3.2200 C   0  0  0  0  0  0  0  0  0  0  0  0
   -0.9590    1.0590   -1.8930 C   0  0  1  0  0  0  0  0  0  0  0  0
   -1.5460   -0.1690   -2.0110 O   0  0  0  0  0  0  0  0  0  0  0  0
   -2.7090   -0.3880   -1.3340 C   0  0  0  0  0  0  0  0  0  0  0  0
   -2.6780   -0.2780    0.1670 C   0  0  2  0  0  0  0  0  0  0  0  0
   -1.8450   -1.2790    0.7660 N   0  0  0  0  0  0  0  0  0  0  0  0
   -2.0220   -2.6730    0.7560 C   0  0  0  0  0  0  0  0  0  0  0  0
   -3.0020   -3.4470    0.2360 C   0  0  0  0  0  0  0  0  0  0  0  0
   -2.6790   -4.7780    0.5110 C   0  0  0  0  0  0  0  0  0  0  0  0
   -1.4900   -4.7330    1.2010 C   0  0  0  0  0  0  0  0  0  0  0  0
   -1.1290   -3.4850    1.3290 O   0  0  0  0  0  0  0  0  0  0  0  0
   -4.0280   -0.2220    0.7880 C   0  0  0  0  0  0  0  0  0  0  0  0
   -4.3830   -1.2230    1.5300 O   0  0  0  0  0  0  0  0  0  0  0  0
   -4.9770    0.7940    0.6730 N   0  0  0  0  0  0  0  0  0  0  0  0
   -6.2810    0.6300    1.2780 C   0  0  0  0  0  0  0  0  0  0  0  0
   -4.6960    2.0410    0.0330 C   0  0  0  0  0  0  0  0  0  0  0  0
   -4.0510    3.2880    1.2890 P   0  0  0  0  0  0  0  0  0  0  0  0
   -5.3830    3.6990    2.3250 O   0  0  0  0  0  0  0  0  0  0  0  0
   -2.8080    2.6260    2.2690 O   0  0  0  0  0  0  0  0  0  0  0  0
    0.4910    0.9530   -1.7120 C   0  0  0  0  0  0  0  0  0  0  0  0
    1.3720    1.8830   -2.2710 C   0  0  0  0  0  0  0  0  0  0  0  0
    2.7360    1.8070   -2.1380 C   0  0  0  0  0  0  0  0  0  0  0  0
    3.3090    0.7630   -1.4140 C   0  0  0  0  0  0  0  0  0  0  0  0
    4.7580    0.7060   -1.2890 C   0  0  0  0  0  0  0  0  0  0  0  0
    5.4700    1.5340   -1.9300 O   0  0  0  0  0  0  0  0  0  0  0  0
    5.4000   -0.2470   -0.4710 N   0  0  0  0  0  0  0  0  0  0  0  0
    6.8650   -0.2780   -0.3690 C   0  0  0  0  0  0  0  0  0  0  0  0
    7.3190   -1.3670    0.5650 C   0  0  0  0  0  0  0  0  0  0  0  0
    6.7450   -1.1050    1.9400 C   0  0  0  0  0  0  0  0  0  0  0  0
    7.2130    0.1370    2.3660 O   0  0  0  0  0  0  0  0  0  0  0  0
    2.4670   -0.1510   -0.8630 C   0  0  0  0  0  0  0  0  0  0  0  0
    1.0950   -0.0580   -1.0080 C   0  0  0  0  0  0  0  0  0  0  0  0
  2  1  1  6
  2  3  1  0
  2 20  1  0
  3  4  1  0
  5  4  1  6
  5  6  1  0
  5 12  1  0
  6  7  1  0
  7  8  2  0
  7 11  1  0
  8  9  1  0
  9 10  2  0
 10 11  1  0
 12 13  2  0
 12 14  1  0
 14 15  1  0
 14 16  1  0
 16 17  1  0
 17 18  1  0
 17 19  1  0
 20 21  2  0
 20 32  1  0
 21 22  1  0
 22 23  2  0
 23 24  1  0
 23 31  1  0
 24 25  2  0
 24 26  1  0
 26 27  1  0
 27 28  1  0
 28 29  1  0
 29 30  1  0
 31 32  2  0
M  END
