
     RDKit          3D

 17 18  0  0  0  0  0  0  0  0999 V2000
   -1.1660    2.4980   -0.4750 C   0  0  0  0  0  0  0  0  0  0  0  0
   -1.9140    1.4750    0.0680 C   0  0  0  0  0  0  0  0  0  0  0  0
   -3.3280    1.8430    0.1660 C   0  0  0  0  0  0  0  0  0  0  0  0
   -1.2400    0.3040    0.4680 C   0  0  0  0  0  0  0  0  0  0  0  0
   -1.8970   -0.7260    0.9580 C   0  0  0  0  0  0  0  0  0  0  0  0
   -3.3460   -0.7150    1.1120 C   0  0  0  0  0  0  0  0  0  0  0  0
   -1.2910   -2.0520    1.4230 C   0  0  0  0  0  0  0  0  0  0  0  0
   -0.1920   -2.4320    0.4620 C   0  0  0  0  0  0  0  0  0  0  0  0
   -0.2160   -1.6720   -0.8230 C   0  0  0  0  0  0  0  0  0  0  0  0
    0.6460   -0.4900   -0.8220 N   0  0  0  0  0  0  0  0  0  0  0  0
    2.0170   -0.8840   -0.8490 C   0  0  0  0  0  0  0  0  0  0  0  0
    2.9600    0.2470   -0.8500 C   0  0  0  0  0  0  0  0  0  0  0  0
    4.3310    0.0900   -0.8750 C   0  0  0  0  0  0  0  0  0  0  0  0
    4.9080    1.3390   -0.8680 C   0  0  0  0  0  0  0  0  0  0  0  0
    3.8370    2.2240   -0.8400 C   0  0  0  0  0  0  0  0  0  0  0  0
    2.7370    1.5370   -0.8310 O   0  0  0  0  0  0  0  0  0  0  0  0
    0.2710    0.2470    0.3420 C   0  0  0  0  0  0  0  0  0  0  0  0
  1  2  2  0
  2  3  1  0
  2  4  1  0
  4  5  2  0
  4 17  1  0
  5  6  1  0
  5  7  1  0
  7  8  1  0
  8  9  1  0
  9 10  1  0
 10 11  1  0
 10 17  1  0
 11 12  1  0
 12 13  2  0
 12 16  1  0
 13 14  1  0
 14 15  2  0
 15 16  1  0
M  END
