
     RDKit          3D

 17 18  0  0  0  0  0  0  0  0999 V2000
    4.5770    4.1840   -0.1790 C   0  0  0  0  0  0  0  0  0  0  0  0
    3.4130    3.4370   -0.3730 O   0  0  0  0  0  0  0  0  0  0  0  0
    3.0910    2.2550    0.2510 C   0  0  0  0  0  0  0  0  0  0  0  0
    3.9230    1.6650    1.1710 C   0  0  0  0  0  0  0  0  0  0  0  0
    3.5740    0.4780    1.7800 C   0  0  0  0  0  0  0  0  0  0  0  0
    2.3720   -0.1040    1.4480 C   0  0  0  0  0  0  0  0  0  0  0  0
    1.5050    0.4520    0.5300 C   0  0  0  0  0  0  0  0  0  0  0  0
    0.2480   -0.1310    0.1650 C   0  0  0  0  0  0  0  0  0  0  0  0
   -0.8280   -0.6320   -0.1260 C   0  0  0  0  0  0  0  0  0  0  0  0
   -2.0890   -1.2080   -0.4880 C   0  0  0  0  0  0  0  0  0  0  0  0
   -2.6990   -0.9730   -1.7250 C   0  0  0  0  0  0  0  0  0  0  0  0
   -3.9090   -1.5410   -2.0390 C   0  0  0  0  0  0  0  0  0  0  0  0
   -4.5020   -2.3460   -1.1020 C   0  0  0  0  0  0  0  0  0  0  0  0
   -3.9090   -2.5770    0.1070 C   0  0  0  0  0  0  0  0  0  0  0  0
   -4.5900   -3.4640    1.1030 C   0  0  0  0  0  0  0  0  0  0  0  0
   -2.7040   -2.0030    0.4040 N   0  0  0  0  0  0  0  0  0  0  0  0
    1.8940    1.6500   -0.0640 C   0  0  0  0  0  0  0  0  0  0  0  0
  1  2  1  0
  2  3  1  0
  3  4  2  0
  3 17  1  0
  4  5  1  0
  5  6  2  0
  6  7  1  0
  7  8  1  0
  7 17  2  0
  8  9  3  0
  9 10  1  0
 10 11  2  0
 10 16  1  0
 11 12  1  0
 12 13  2  0
 13 14  1  0
 14 15  1  0
 14 16  2  0
M  END
