
     RDKit          3D

 17 18  0  0  0  0  0  0  0  0999 V2000
   -0.9820    2.0210   -2.0140 C   0  0  0  0  0  0  0  0  0  0  0  0
   -0.2630    0.7860   -1.5790 C   0  0  0  0  0  0  0  0  0  0  0  0
   -0.9530    0.0420   -0.4640 C   0  0  2  0  0  0  0  0  0  0  0  0
   -0.1700   -1.1470   -0.1130 C   0  0  0  0  0  0  0  0  0  0  0  0
   -0.8860   -2.2370   -0.0390 O   0  0  0  0  0  0  0  0  0  0  0  0
    1.1740   -1.3440    0.1500 N   0  0  0  0  0  0  0  0  0  0  0  0
    1.6740   -2.7250    0.4290 C   0  0  0  0  0  0  0  0  0  0  0  0
    2.1980   -0.3700    0.2320 C   0  0  0  0  0  0  0  0  0  0  0  0
    2.3700    0.5890    1.1180 C   0  0  0  0  0  0  0  0  0  0  0  0
    3.5710    1.3590    0.8030 C   0  0  0  0  0  0  0  0  0  0  0  0
    4.1180    0.7280   -0.4140 C   0  0  0  0  0  0  0  0  0  0  0  0
    3.3160   -0.2610   -0.7250 C   0  0  0  0  0  0  0  0  0  0  0  0
   -2.3100   -0.4360   -1.0070 C   0  0  0  0  0  0  0  0  0  0  0  0
   -3.3480   -0.5130    0.0460 C   0  0  0  0  0  0  0  0  0  0  0  0
   -2.9120   -0.6170    1.4590 C   0  0  0  0  0  0  0  0  0  0  0  0
   -1.6440    0.1040    1.8260 C   0  0  0  0  0  0  0  0  0  0  0  0
   -1.1690    0.9700    0.6790 C   0  0  0  0  0  0  0  0  0  0  0  0
  1  2  1  0
  3  2  1  6
  3  4  1  0
  3 13  1  0
  3 17  1  0
  4  5  2  0
  4  6  1  0
  6  7  1  0
  6  8  1  0
  8  9  2  0
  8 12  1  0
  9 10  1  0
 10 11  1  0
 11 12  2  0
 13 14  1  0
 14 15  1  0
 15 16  1  0
 16 17  1  0
M  END
