
     RDKit          3D

 17 18  0  0  0  0  0  0  0  0999 V2000
    4.1380   -1.9360   -1.9180 C   0  0  0  0  0  0  0  0  0  0  0  0
    3.3690   -1.0540   -1.2520 C   0  0  0  0  0  0  0  0  0  0  0  0
    1.9520   -1.3430   -1.1640 C   0  0  0  0  0  0  0  0  0  0  0  0
    1.1000   -0.5820   -0.4490 C   0  0  0  0  0  0  0  0  0  0  0  0
   -0.2800   -0.9650   -0.4350 C   0  0  0  0  0  0  0  0  0  0  0  0
   -0.5780   -2.0150   -1.1980 O   0  0  0  0  0  0  0  0  0  0  0  0
   -1.4070   -0.4830    0.2040 N   0  0  0  0  0  0  0  0  0  0  0  0
   -1.4600    0.5410    1.2050 C   0  0  0  0  0  0  0  0  0  0  0  0
   -1.9890    1.7620    0.4320 C   0  0  0  0  0  0  0  0  0  0  0  0
   -3.4240    1.4150    0.1310 C   0  0  0  0  0  0  0  0  0  0  0  0
   -3.6910    0.0990   -0.4680 C   0  0  0  0  0  0  0  0  0  0  0  0
   -2.7290   -1.0100   -0.2150 C   0  0  2  0  0  0  0  0  0  0  0  0
   -3.1730   -1.9310    0.8880 C   0  0  0  0  0  0  0  0  0  0  0  0
    1.6900    0.5680    0.1790 C   0  0  0  0  0  0  0  0  0  0  0  0
    2.9710    0.9310    0.1180 C   0  0  0  0  0  0  0  0  0  0  0  0
    3.4630    2.1560    0.8200 C   0  0  0  0  0  0  0  0  0  0  0  0
    3.9570    0.1500   -0.6430 C   0  0  0  0  0  0  0  0  0  0  0  0
  1  2  2  0
  2  3  1  0
  2 17  1  0
  3  4  2  0
  4  5  1  0
  4 14  1  0
  5  6  2  0
  5  7  1  0
  7  8  1  0
  7 12  1  0
  8  9  1  0
  9 10  1  0
 10 11  1  0
 11 12  1  0
 12 13  1  1
 14 15  2  0
 15 16  1  0
 15 17  1  0
M  END
