
     RDKit          3D

 17 18  0  0  0  0  0  0  0  0999 V2000
    3.3010    0.8640    1.2330 C   0  0  0  0  0  0  0  0  0  0  0  0
    3.0790    0.1670    0.1350 C   0  0  0  0  0  0  0  0  0  0  0  0
    2.2560    0.8030   -0.9740 C   0  0  0  0  0  0  0  0  0  0  0  0
    1.1310   -0.0530   -1.1400 N   0  0  0  0  0  0  0  0  0  0  0  0
    1.2290   -1.1400   -2.0830 C   0  0  0  0  0  0  0  0  0  0  0  0
    2.0940   -0.9610   -2.9710 O   0  0  0  0  0  0  0  0  0  0  0  0
    0.4960   -2.4030   -2.1770 C   0  0  0  0  0  0  0  0  0  0  0  0
   -0.2420   -2.8360   -1.0060 C   0  0  0  0  0  0  0  0  0  0  0  0
   -0.8380   -2.2250    0.0110 C   0  0  0  0  0  0  0  0  0  0  0  0
   -0.8660   -0.7660    0.1640 C   0  0  0  0  0  0  0  0  0  0  0  0
   -1.9230   -0.3270    0.9290 C   0  0  0  0  0  0  0  0  0  0  0  0
   -2.8530   -1.3430    1.4940 C   0  0  0  0  0  0  0  0  0  0  0  0
   -2.1510    1.0080    1.1920 C   0  0  0  0  0  0  0  0  0  0  0  0
   -1.2920    1.9610    0.6730 C   0  0  0  0  0  0  0  0  0  0  0  0
   -1.4360    3.4070    0.8860 C   0  0  0  0  0  0  0  0  0  0  0  0
   -0.2150    1.5440   -0.1050 C   0  0  0  0  0  0  0  0  0  0  0  0
   -0.0050    0.2070   -0.3540 C   0  0  0  0  0  0  0  0  0  0  0  0
  1  2  2  0
  2  3  1  0
  3  4  1  0
  4  5  1  0
  4 17  1  0
  5  6  2  0
  5  7  1  0
  7  8  1  0
  8  9  2  0
  9 10  1  0
 10 11  2  0
 10 17  1  0
 11 12  1  0
 11 13  1  0
 13 14  2  0
 14 15  1  0
 14 16  1  0
 16 17  2  0
M  END
