
     RDKit          3D

 16 16  0  0  0  0  0  0  0  0999 V2000
    4.6200    1.1120    0.4590 C   0  0  0  0  0  0  0  0  0  0  0  0
    4.0930   -0.2390    0.2450 C   0  0  0  0  0  0  0  0  0  0  0  0
    5.1400   -1.3530    0.2520 C   0  0  0  0  0  0  0  0  0  0  0  0
    2.8730   -0.6090    0.0500 C   0  0  0  0  0  0  0  0  0  0  0  0
    1.6470    0.2120   -0.0210 C   0  0  0  0  0  0  0  0  0  0  0  0
    1.6430    1.6740    0.0650 C   0  0  0  0  0  0  0  0  0  0  0  0
    0.5180   -0.4490   -0.2110 C   0  0  0  0  0  0  0  0  0  0  0  0
   -0.8160    0.0960   -0.3140 C   0  0  0  0  0  0  0  0  0  0  0  0
   -1.1430    1.3250   -0.2260 N   0  0  0  0  0  0  0  0  0  0  0  0
   -2.4600    1.8090   -0.3330 C   0  0  0  0  0  0  0  0  0  0  0  0
   -2.7840    2.9800    0.0710 O   0  0  0  0  0  0  0  0  0  0  0  0
   -3.4790    0.9130   -0.9340 C   0  0  0  0  0  0  0  0  0  0  0  0
   -3.2660   -0.4400   -0.2730 C   0  0  1  0  0  0  0  0  0  0  0  0
   -3.5530   -0.3080    1.2010 C   0  0  0  0  0  0  0  0  0  0  0  0
   -4.2590   -1.4460   -0.8280 C   0  0  0  0  0  0  0  0  0  0  0  0
   -1.8970   -0.9500   -0.5550 C   0  0  0  0  0  0  0  0  0  0  0  0
  1  2  1  0
  2  3  1  0
  2  4  2  3
  4  5  1  0
  5  6  1  0
  5  7  2  3
  7  8  1  0
  8  9  2  0
  8 16  1  0
  9 10  1  0
 10 11  2  0
 10 12  1  0
 12 13  1  0
 13 14  1  1
 13 15  1  0
 13 16  1  0
M  END
