
     RDKit          3D

 17 18  0  0  0  0  0  0  0  0999 V2000
   -3.8010    2.4050   -0.1240 C   0  0  0  0  0  0  0  0  0  0  0  0
   -3.5780    1.0420    0.2760 N   0  0  0  0  0  0  0  0  0  0  0  0
   -4.5750    0.2360    0.6520 C   0  0  0  0  0  0  0  0  0  0  0  0
   -4.3700   -1.0710    1.0360 C   0  0  0  0  0  0  0  0  0  0  0  0
   -3.1100   -1.5850    1.0420 C   0  0  0  0  0  0  0  0  0  0  0  0
   -2.0460   -0.7690    0.6550 C   0  0  0  0  0  0  0  0  0  0  0  0
   -0.7100   -1.2930    0.6550 C   0  0  0  0  0  0  0  0  0  0  0  0
    0.3650   -0.6210    0.3110 C   0  0  0  0  0  0  0  0  0  0  0  0
    1.6240   -1.3790    0.3940 C   0  0  0  0  0  0  0  0  0  0  0  0
    2.7490   -0.7420    0.0570 C   0  0  0  0  0  0  0  0  0  0  0  0
    4.0170   -1.4510    0.1220 C   0  0  0  0  0  0  0  0  0  0  0  0
    5.1280   -0.8510   -0.2160 C   0  0  0  0  0  0  0  0  0  0  0  0
    5.0440    0.5250   -0.6480 C   0  0  0  0  0  0  0  0  0  0  0  0
    3.9490    1.2220   -0.7260 C   0  0  0  0  0  0  0  0  0  0  0  0
    2.6380    0.6590   -0.3670 C   0  0  0  0  0  0  0  0  0  0  0  0
   -2.3140    0.5200    0.2840 C   0  0  0  0  0  0  0  0  0  0  0  0
   -1.4320    1.3540   -0.0860 O   0  0  0  0  0  0  0  0  0  0  0  0
  1  2  1  0
  2  3  1  0
  2 16  1  0
  3  4  2  0
  4  5  1  0
  5  6  2  0
  6  7  1  0
  6 16  1  0
  7  8  2  3
  8  9  1  0
  9 10  2  3
 10 11  1  0
 10 15  1  0
 11 12  2  0
 12 13  1  0
 13 14  2  0
 14 15  1  0
 16 17  2  0
M  END
