
     RDKit          3D

 26 28  0  0  0  0  0  0  0  0999 V2000
    7.3150    1.0730   -1.4000 C   0  0  0  0  0  0  0  0  0  0  0  0
    6.2860    1.0570   -0.4350 O   0  0  0  0  0  0  0  0  0  0  0  0
    4.9710    0.9840   -0.8110 C   0  0  0  0  0  0  0  0  0  0  0  0
    4.6910    0.9320   -2.0310 O   0  0  0  0  0  0  0  0  0  0  0  0
    3.8420    0.9620    0.1690 C   0  0  2  0  0  0  0  0  0  0  0  0
    4.1020    1.8690    1.3640 C   0  0  0  0  0  0  0  0  0  0  0  0
    4.0980    0.4000    1.5610 C   0  0  1  0  0  0  0  0  0  0  0  0
    3.0290   -0.3500    2.1780 C   0  0  0  0  0  0  0  0  0  0  0  0
    3.3640   -1.5560    2.5720 O   0  0  0  0  0  0  0  0  0  0  0  0
    1.7000    0.0110    2.4210 N   0  0  0  0  0  0  0  0  0  0  0  0
    1.0180    1.2330    2.1140 C   0  0  0  0  0  0  0  0  0  0  0  0
   -0.4940    1.0970    2.1740 C   0  0  0  0  0  0  0  0  0  0  0  0
   -0.8970   -0.2100    1.5790 N   0  0  0  0  0  0  0  0  0  0  0  0
   -1.8790   -0.1810    0.5910 C   0  0  0  0  0  0  0  0  0  0  0  0
   -2.3530    0.9840    0.2610 O   0  0  0  0  0  0  0  0  0  0  0  0
   -2.4660   -1.2850   -0.1450 C   0  0  0  0  0  0  0  0  0  0  0  0
   -2.1820   -2.5630   -0.0140 C   0  0  0  0  0  0  0  0  0  0  0  0
   -2.9980   -3.2860   -0.9370 N   0  0  0  0  0  0  0  0  0  0  0  0
   -3.7480   -2.3590   -1.5880 N   0  0  0  0  0  0  0  0  0  0  0  0
   -3.5070   -1.1590   -1.1930 C   0  0  0  0  0  0  0  0  0  0  0  0
   -4.1560    0.0980   -1.7040 C   0  0  2  0  0  0  0  0  0  0  0  0
   -5.1620   -0.3870   -2.7750 C   0  0  0  0  0  0  0  0  0  0  0  0
   -3.1930    0.9770   -2.4340 C   0  0  0  0  0  0  0  0  0  0  0  0
   -4.9810    0.7890   -0.6680 C   0  0  0  0  0  0  0  0  0  0  0  0
   -0.2190   -1.3850    2.0840 C   0  0  0  0  0  0  0  0  0  0  0  0
    0.8300   -0.9810    3.1180 C   0  0  0  0  0  0  0  0  0  0  0  0
  1  2  1  0
  2  3  1  0
  3  4  2  0
  5  3  1  6
  5  6  1  0
  5  7  1  0
  6  7  1  0
  7  8  1  1
  8  9  2  0
  8 10  1  0
 10 11  1  0
 10 26  1  0
 11 12  1  0
 12 13  1  0
 13 14  1  0
 13 25  1  0
 14 15  2  0
 14 16  1  0
 16 17  2  0
 16 20  1  0
 17 18  1  0
 18 19  1  0
 19 20  2  0
 20 21  1  0
 21 22  1  6
 21 23  1  0
 21 24  1  0
 25 26  1  0
M  CHG  1  18   1
M  END
