
     RDKit          3D

 10  9  0  0  0  0  0  0  0  0999 V2000
   -0.6650   -2.2660    1.1980 N   0  0  0  0  0  0  0  0  0  0  0  0
   -1.0930   -1.2520    0.6270 C   0  0  0  0  0  0  0  0  0  0  0  0
   -0.4780   -0.1500   -0.0100 C   0  0  0  0  0  0  0  0  0  0  0  0
    0.9890   -0.0130   -0.1120 C   0  0  0  0  0  0  0  0  0  0  0  0
    1.9490   -0.7510    0.2910 C   0  0  0  0  0  0  0  0  0  0  0  0
    3.3800   -0.2940    0.0080 C   0  0  0  0  0  0  0  0  0  0  0  0
    3.4240    0.9420   -0.6950 N   0  0  0  0  0  0  0  0  0  0  0  0
   -1.1890    0.8580   -0.5710 C   0  0  0  0  0  0  0  0  0  0  0  0
   -2.5510    1.1720   -0.7260 C   0  0  0  0  0  0  0  0  0  0  0  0
   -3.6390    0.4060   -0.2690 N   0  0  0  0  0  0  0  0  0  0  0  0
  1  2  2  0
  2  3  1  0
  3  4  1  0
  3  8  2  3
  4  5  2  3
  5  6  1  0
  6  7  1  0
  8  9  1  0
  9 10  1  0
M  CHG  3   1   1   7   1  10   1
M  END
