
     RDKit          3D

 26 28  0  0  0  0  0  0  0  0999 V2000
   -5.3290    0.6220    0.1750 C   0  0  0  0  0  0  0  0  0  0  0  0
   -4.8200   -0.5240    0.5310 C   0  0  0  0  0  0  0  0  0  0  0  0
   -5.6170   -1.7760    0.8890 C   0  0  0  0  0  0  0  0  0  0  0  0
   -4.8870   -2.0780    2.1450 N   0  0  0  0  0  0  0  0  0  0  0  0
   -3.5350   -1.8900    1.7350 C   0  0  0  0  0  0  0  0  0  0  0  0
   -3.4480   -0.9590    0.7510 C   0  0  0  0  0  0  0  0  0  0  0  0
   -2.2300   -0.5240    0.1340 C   0  0  0  0  0  0  0  0  0  0  0  0
   -1.1650   -1.0660    0.6910 O   0  0  0  0  0  0  0  0  0  0  0  0
   -1.9290    0.3240   -0.9070 N   0  0  0  0  0  0  0  0  0  0  0  0
   -2.7940    1.0220   -1.7970 C   0  0  0  0  0  0  0  0  0  0  0  0
   -1.9890    1.2630   -3.0810 C   0  0  0  0  0  0  0  0  0  0  0  0
   -1.0030    2.2170   -2.8850 O   0  0  0  0  0  0  0  0  0  0  0  0
   -0.3450    2.0310   -1.6650 C   0  0  2  0  0  0  0  0  0  0  0  0
    1.0860    2.3450   -1.8700 C   0  0  0  0  0  0  0  0  0  0  0  0
    1.9620    2.2480   -0.7620 N   0  0  0  0  0  0  0  0  0  0  0  0
    2.2270    3.3220    0.1800 C   0  0  0  0  0  0  0  0  0  0  0  0
    2.6420    1.0230   -0.5340 C   0  0  0  0  0  0  0  0  0  0  0  0
    2.5010    0.0350   -1.2970 O   0  0  0  0  0  0  0  0  0  0  0  0
    3.5240    0.8410    0.5710 N   0  0  0  0  0  0  0  0  0  0  0  0
    4.1630   -0.4150    0.7230 C   0  0  0  0  0  0  0  0  0  0  0  0
    3.9810   -1.1500    1.8150 C   0  0  0  0  0  0  0  0  0  0  0  0
    4.6920   -2.4530    1.8850 C   0  0  0  0  0  0  0  0  0  0  0  0
    4.5510   -3.0870    0.5260 C   0  0  0  0  0  0  0  0  0  0  0  0
    4.9560   -2.3150   -0.5240 O   0  0  0  0  0  0  0  0  0  0  0  0
    5.0580   -0.9710   -0.3130 C   0  0  0  0  0  0  0  0  0  0  0  0
   -0.4880    0.6060   -1.1910 C   0  0  0  0  0  0  0  0  0  0  0  0
  1  2  2  0
  2  3  1  0
  2  6  1  0
  3  4  1  0
  4  5  1  0
  5  6  2  0
  6  7  1  0
  7  8  2  0
  7  9  1  0
  9 10  1  0
  9 26  1  0
 10 11  1  0
 11 12  1  0
 12 13  1  0
 13 14  1  6
 13 26  1  0
 14 15  1  0
 15 16  1  0
 15 17  1  0
 17 18  2  0
 17 19  1  0
 19 20  1  0
 20 21  2  0
 20 25  1  0
 21 22  1  0
 22 23  1  0
 23 24  1  0
 24 25  1  0
M  CHG  1   4   1
M  END
