
     RDKit          3D

 26 28  0  0  0  0  0  0  0  0999 V2000
   -5.9060    2.4100    0.2710 C   0  0  0  0  0  0  0  0  0  0  0  0
   -5.2030    1.1810    0.5220 N   0  0  0  0  0  0  0  0  0  0  0  0
   -4.3480    0.6250   -0.4730 C   0  0  0  0  0  0  0  0  0  0  0  0
   -4.3390   -0.8800   -0.5070 C   0  0  1  0  0  0  0  0  0  0  0  0
   -3.0650   -1.4230   -1.0420 C   0  0  0  0  0  0  0  0  0  0  0  0
   -3.0860   -2.1340   -2.0660 O   0  0  0  0  0  0  0  0  0  0  0  0
   -1.8370   -1.1550   -0.4260 N   0  0  0  0  0  0  0  0  0  0  0  0
   -0.5570   -1.5950   -0.8100 C   0  0  0  0  0  0  0  0  0  0  0  0
   -0.2710   -2.4540   -1.8390 C   0  0  0  0  0  0  0  0  0  0  0  0
    1.0370   -2.8250   -2.1450 C   0  0  0  0  0  0  0  0  0  0  0  0
    2.0810   -2.3240   -1.4040 C   0  0  0  0  0  0  0  0  0  0  0  0
    3.3780   -2.4940   -1.4630 O   0  0  0  0  0  0  0  0  0  0  0  0
    3.9610   -1.7810   -0.5130 C   0  0  0  0  0  0  0  0  0  0  0  0
    5.2170   -1.7600   -0.3410 O   0  0  0  0  0  0  0  0  0  0  0  0
    3.0340   -1.1220    0.1950 N   0  0  0  0  0  0  0  0  0  0  0  0
    3.2390   -0.2450    1.3020 C   0  0  0  0  0  0  0  0  0  0  0  0
    3.4220    1.1880    0.9080 C   0  0  0  0  0  0  0  0  0  0  0  0
    4.5480    1.4230    0.0430 N   0  0  1  0  0  0  0  0  0  0  0  0
    4.4630    2.8290   -0.3820 C   0  0  0  0  0  0  0  0  0  0  0  0
    5.8090    1.2980    0.7470 C   0  0  0  0  0  0  0  0  0  0  0  0
    1.8430   -1.4510   -0.3520 C   0  0  0  0  0  0  0  0  0  0  0  0
    0.5470   -1.1200   -0.0940 C   0  0  0  0  0  0  0  0  0  0  0  0
   -4.5470   -1.4900    0.8270 C   0  0  0  0  0  0  0  0  0  0  0  0
   -5.0150   -0.8740    1.8740 C   0  0  0  0  0  0  0  0  0  0  0  0
   -5.3790    0.5370    1.7740 C   0  0  0  0  0  0  0  0  0  0  0  0
   -5.8330    1.1500    2.7740 O   0  0  0  0  0  0  0  0  0  0  0  0
  1  2  1  0
  2  3  1  0
  2 25  1  0
  3  4  1  0
  4  5  1  1
  4 23  1  0
  5  6  2  0
  5  7  1  0
  7  8  1  0
  8  9  2  0
  8 22  1  0
  9 10  1  0
 10 11  2  0
 11 12  1  0
 11 21  1  0
 12 13  1  0
 13 14  2  0
 13 15  1  0
 15 16  1  0
 15 21  1  0
 16 17  1  0
 17 18  1  0
 18 19  1  1
 18 20  1  0
 21 22  2  0
 23 24  2  0
 24 25  1  0
 25 26  2  0
M  CHG  1  18   1
M  END
