
     RDKit          3D

 26 28  0  0  0  0  0  0  0  0999 V2000
    0.6680    5.5280   -1.0980 C   0  0  0  0  0  0  0  0  0  0  0  0
    0.7740    4.0820   -0.7330 C   0  0  0  0  0  0  0  0  0  0  0  0
   -0.1280    3.1980   -1.1630 C   0  0  0  0  0  0  0  0  0  0  0  0
   -0.0870    1.8820   -0.8710 O   0  0  0  0  0  0  0  0  0  0  0  0
    0.9160    1.2810   -0.0730 C   0  0  0  0  0  0  0  0  0  0  0  0
    0.8690    0.0240    0.1590 C   0  0  0  0  0  0  0  0  0  0  0  0
   -0.3440   -0.7130   -0.4600 C   0  0  0  0  0  0  0  0  0  0  0  0
   -1.2640    0.2020   -1.0150 N   0  0  0  0  0  0  0  0  0  0  0  0
   -2.1150   -0.5960   -1.9430 C   0  0  0  0  0  0  0  0  0  0  0  0
   -3.4880   -0.0190   -2.0320 C   0  0  0  0  0  0  0  0  0  0  0  0
   -4.2580   -0.1440   -0.8350 N   0  0  1  0  0  0  0  0  0  0  0  0
   -5.2230   -1.2270   -0.9360 C   0  0  0  0  0  0  0  0  0  0  0  0
   -3.3020   -0.3900    0.2550 C   0  0  0  0  0  0  0  0  0  0  0  0
   -2.2000    0.6420    0.0710 C   0  0  0  0  0  0  0  0  0  0  0  0
    1.7790   -0.9330    0.7160 C   0  0  0  0  0  0  0  0  0  0  0  0
    1.2460   -2.1360    0.8940 O   0  0  0  0  0  0  0  0  0  0  0  0
    3.1130   -0.8900    1.1110 N   0  0  0  0  0  0  0  0  0  0  0  0
    3.8640   -1.9650    1.6990 C   0  0  0  0  0  0  0  0  0  0  0  0
    3.3360   -3.0610    2.3020 C   0  0  0  0  0  0  0  0  0  0  0  0
    4.1460   -4.0620    2.8230 C   0  0  0  0  0  0  0  0  0  0  0  0
    5.5010   -3.9100    2.7100 C   0  0  0  0  0  0  0  0  0  0  0  0
    6.0630   -2.8460    2.1240 N   0  0  0  0  0  0  0  0  0  0  0  0
    5.2410   -1.8940    1.6290 C   0  0  0  0  0  0  0  0  0  0  0  0
    1.8970    2.2260    0.4020 C   0  0  0  0  0  0  0  0  0  0  0  0
    2.8650    1.9340    1.1310 O   0  0  0  0  0  0  0  0  0  0  0  0
    1.7770    3.5850    0.0460 O   0  0  0  0  0  0  0  0  0  0  0  0
  1  2  1  0
  2  3  2  0
  2 26  1  0
  3  4  1  0
  4  5  1  0
  5  6  2  3
  5 24  1  0
  6  7  1  0
  6 15  1  0
  7  8  1  0
  8  9  1  0
  8 14  1  0
  9 10  1  0
 10 11  1  0
 11 12  1  6
 11 13  1  0
 13 14  1  0
 15 16  2  0
 15 17  1  0
 17 18  1  0
 18 19  2  0
 18 23  1  0
 19 20  1  0
 20 21  2  0
 21 22  1  0
 22 23  2  0
 24 25  2  0
 24 26  1  0
M  CHG  1  11   1
M  END
