
     RDKit          3D

 26 28  0  0  0  0  0  0  0  0999 V2000
    0.1010   -0.5750    2.3440 C   0  0  0  0  0  0  0  0  0  0  0  0
   -0.5700   -0.8140    1.0920 N   0  0  0  0  0  0  0  0  0  0  0  0
   -1.8710   -1.3220    1.0770 C   0  0  0  0  0  0  0  0  0  0  0  0
   -2.4290   -1.5950    2.1770 O   0  0  0  0  0  0  0  0  0  0  0  0
   -2.5850   -1.5380   -0.1920 C   0  0  2  0  0  0  0  0  0  0  0  0
   -2.9300   -0.2450   -0.9130 C   0  0  0  0  0  0  0  0  0  0  0  0
   -4.3540    0.0250   -0.9030 N   0  0  0  0  0  0  0  0  0  0  0  0
   -4.9690    1.1500   -0.3600 C   0  0  0  0  0  0  0  0  0  0  0  0
   -6.2230    1.2500   -0.4280 O   0  0  0  0  0  0  0  0  0  0  0  0
   -4.2440    2.1800    0.2640 N   0  0  0  0  0  0  0  0  0  0  0  0
   -4.9180    3.3390    0.8190 C   0  0  0  0  0  0  0  0  0  0  0  0
   -6.1500    3.4180    0.7400 O   0  0  0  0  0  0  0  0  0  0  0  0
   -5.1580   -1.0470   -1.5500 C   0  0  0  0  0  0  0  0  0  0  0  0
   -4.3800   -2.3290   -1.2570 C   0  0  0  0  0  0  0  0  0  0  0  0
   -3.8430   -2.1560    0.0400 O   0  0  0  0  0  0  0  0  0  0  0  0
    0.1180   -0.5500   -0.1340 C   0  0  1  0  0  0  0  0  0  0  0  0
    0.5090    0.9080   -0.2580 C   0  0  0  0  0  0  0  0  0  0  0  0
    1.9030    0.9320    0.2880 C   0  0  0  0  0  0  0  0  0  0  0  0
    2.4870   -0.3520    0.0030 N   0  0  2  0  0  0  0  0  0  0  0  0
    3.3630   -0.1900   -1.1410 C   0  0  0  0  0  0  0  0  0  0  0  0
    4.7410    0.1780   -0.7500 C   0  0  0  0  0  0  0  0  0  0  0  0
    5.2530    0.3710    0.4630 C   0  0  0  0  0  0  0  0  0  0  0  0
    6.6950    0.7280    0.3350 C   0  0  0  0  0  0  0  0  0  0  0  0
    6.9190    0.7080   -1.1150 C   0  0  0  0  0  0  0  0  0  0  0  0
    5.8010    0.3930   -1.7350 C   0  0  0  0  0  0  0  0  0  0  0  0
    1.4270   -1.2700   -0.2520 C   0  0  0  0  0  0  0  0  0  0  0  0
  1  2  1  0
  2  3  1  0
 16  2  1  1
  3  4  2  0
  5  3  1  1
  5  6  1  0
  5 15  1  0
  6  7  1  0
  7  8  1  0
  7 13  1  0
  8  9  2  0
  8 10  1  0
 10 11  1  0
 11 12  2  0
 13 14  1  0
 14 15  1  0
 16 17  1  0
 16 26  1  0
 17 18  1  0
 18 19  1  0
 19 20  1  6
 19 26  1  0
 20 21  1  0
 21 22  2  0
 21 25  1  0
 22 23  1  0
 23 24  1  0
 24 25  2  0
M  CHG  1  19   1
M  END
