
     RDKit          3D

 26 27  0  0  0  0  0  0  0  0999 V2000
   -3.9390    4.3440    0.3570 C   0  0  0  0  0  0  0  0  0  0  0  0
   -3.5650    2.8650    0.4230 C   0  0  0  0  0  0  0  0  0  0  0  0
   -4.2330    2.1360   -0.3810 N   0  0  0  0  0  0  0  0  0  0  0  0
   -4.2350    0.7830   -0.6580 C   0  0  0  0  0  0  0  0  0  0  0  0
   -4.2290    0.4250   -1.8970 O   0  0  0  0  0  0  0  0  0  0  0  0
   -4.2440   -0.3400    0.3140 C   0  0  0  0  0  0  0  0  0  0  0  0
   -3.8990   -1.6420   -0.3570 C   0  0  2  0  0  0  0  0  0  0  0  0
   -3.9230   -2.7550    0.6440 C   0  0  0  0  0  0  0  0  0  0  0  0
   -2.7480   -1.5250   -1.0860 O   0  0  0  0  0  0  0  0  0  0  0  0
   -1.8090   -2.5010   -0.9240 C   0  0  0  0  0  0  0  0  0  0  0  0
   -0.5640   -2.0340   -0.2330 C   0  0  0  0  0  0  0  0  0  0  0  0
   -0.0490   -0.8010   -0.9430 C   0  0  0  0  0  0  0  0  0  0  0  0
    0.1600    0.2850   -0.0120 N   0  0  1  0  0  0  0  0  0  0  0  0
    1.5430    0.7040   -0.1100 C   0  0  0  0  0  0  0  0  0  0  0  0
    2.4220   -0.0520    0.8880 C   0  0  0  0  0  0  0  0  0  0  0  0
    3.7640    0.4070    0.7490 N   0  0  0  0  0  0  0  0  0  0  0  0
    4.0790    1.7580    1.1550 C   0  0  0  0  0  0  0  0  0  0  0  0
    4.7640   -0.4570    0.2170 C   0  0  0  0  0  0  0  0  0  0  0  0
    5.7710   -0.1640   -0.5640 C   0  0  0  0  0  0  0  0  0  0  0  0
    6.5230   -1.3910   -0.8390 C   0  0  0  0  0  0  0  0  0  0  0  0
    5.7800   -2.4350   -0.3440 O   0  0  0  0  0  0  0  0  0  0  0  0
    4.8090   -1.8990    0.4900 C   0  0  0  0  0  0  0  0  0  0  0  0
   -0.7600    1.3730   -0.1800 C   0  0  0  0  0  0  0  0  0  0  0  0
   -1.4030    1.6930    1.0920 C   0  0  0  0  0  0  0  0  0  0  0  0
   -0.7930    1.2050    2.1200 O   0  0  0  0  0  0  0  0  0  0  0  0
   -2.5610    2.4400    1.3280 N   0  0  0  0  0  0  0  0  0  0  0  0
  1  2  1  0
  2  3  2  0
  2 26  1  0
  3  4  1  0
  4  5  2  0
  4  6  1  0
  6  7  1  0
  7  8  1  1
  7  9  1  0
  9 10  1  0
 10 11  1  0
 11 12  1  0
 12 13  1  0
 13 14  1  6
 13 23  1  0
 14 15  1  0
 15 16  1  0
 16 17  1  0
 16 18  1  0
 18 19  2  0
 18 22  1  0
 19 20  1  0
 20 21  1  0
 21 22  1  0
 23 24  1  0
 24 25  2  0
 24 26  1  0
M  CHG  1  13   1
M  END
