
     RDKit          3D

 20 21  0  0  0  0  0  0  0  0999 V2000
   -3.0770    2.6650    1.0240 O   0  0  0  0  0  0  0  0  0  0  0  0
   -3.2690    1.4300    0.8530 C   0  0  0  0  0  0  0  0  0  0  0  0
   -4.5390    0.8680    1.2260 N   0  0  0  0  0  0  0  0  0  0  0  0
   -4.7380   -0.5060    0.8290 C   0  0  0  0  0  0  0  0  0  0  0  0
   -4.1680   -0.6330   -0.5630 C   0  0  2  0  0  0  0  0  0  0  0  0
   -4.5650   -1.7680   -1.2220 O   0  0  0  0  0  0  0  0  0  0  0  0
   -2.6330   -0.5960   -0.4300 C   0  0  0  0  0  0  0  0  0  0  0  0
   -2.2350    0.5810    0.2910 N   0  0  0  0  0  0  0  0  0  0  0  0
   -0.9040    0.9430    0.4890 C   0  0  0  0  0  0  0  0  0  0  0  0
   -0.7370    2.0640    1.1410 O   0  0  0  0  0  0  0  0  0  0  0  0
    0.3000    0.2420    0.0700 C   0  0  0  0  0  0  0  0  0  0  0  0
    0.5130   -0.8740   -0.5730 C   0  0  0  0  0  0  0  0  0  0  0  0
    1.9090   -1.1040   -0.7270 O   0  0  0  0  0  0  0  0  0  0  0  0
    2.4960   -0.3670    0.3020 C   0  0  1  0  0  0  0  0  0  0  0  0
    3.9020    0.0760    0.0000 C   0  0  0  0  0  0  0  0  0  0  0  0
    4.7620   -0.9750   -0.2320 O   0  0  0  0  0  0  0  0  0  0  0  0
    6.3340   -0.2960   -0.5630 P   0  0  0  0  0  0  0  0  0  0  0  0
    6.2550    1.4330   -0.7200 O   0  0  0  0  0  0  0  0  0  0  0  0
    7.3610   -0.7290    0.7780 O   0  0  0  0  0  0  0  0  0  0  0  0
    1.5990    0.7490    0.3420 O   0  0  0  0  0  0  0  0  0  0  0  0
  1  2  2  0
  2  3  1  0
  2  8  1  0
  3  4  1  0
  4  5  1  0
  5  6  1  1
  5  7  1  0
  7  8  1  0
  8  9  1  0
  9 10  2  0
  9 11  1  0
 11 12  2  0
 11 20  1  0
 12 13  1  0
 13 14  1  0
 14 15  1  6
 14 20  1  0
 15 16  1  0
 16 17  1  0
 17 18  1  0
 17 19  1  0
M  END
