
     RDKit          3D

 20 20  0  0  0  0  0  0  0  0999 V2000
   -2.8440   -0.1490    2.4530 N   0  0  0  0  0  0  0  0  0  0  0  0
   -2.2140    0.5550    1.3810 C   0  0  2  0  0  0  0  0  0  0  0  0
   -3.0650    1.6860    0.8930 C   0  0  0  0  0  0  0  0  0  0  0  0
   -4.3020    1.3340    0.4490 O   0  0  0  0  0  0  0  0  0  0  0  0
   -4.4880   -0.1730   -0.2500 P   0  0  0  0  0  0  0  0  0  0  0  0
   -4.6280   -0.2450   -1.9340 O   0  0  0  0  0  0  0  0  0  0  0  0
   -3.7730   -1.4940    0.5110 O   0  0  0  0  0  0  0  0  0  0  0  0
   -2.4390   -1.6840    0.2630 C   0  0  0  0  0  0  0  0  0  0  0  0
   -1.7470   -0.3410    0.2600 C   0  0  1  0  0  0  0  0  0  0  0  0
   -1.9800    0.3600   -0.9360 O   0  0  0  0  0  0  0  0  0  0  0  0
   -0.2860   -0.6030    0.3210 C   0  0  0  0  0  0  0  0  0  0  0  0
    0.1460   -1.2310    1.3310 O   0  0  0  0  0  0  0  0  0  0  0  0
    0.6180   -0.1920   -0.6730 N   0  0  0  0  0  0  0  0  0  0  0  0
    2.0660   -0.5250   -0.4800 C   0  0  0  0  0  0  0  0  0  0  0  0
    2.8230   -0.0050   -1.6290 C   0  0  0  0  0  0  0  0  0  0  0  0
    4.2770   -0.2630   -1.7010 C   0  0  0  0  0  0  0  0  0  0  0  0
    5.0190    0.2020   -0.6420 O   0  0  0  0  0  0  0  0  0  0  0  0
    5.0700   -0.3070    0.6150 C   0  0  0  0  0  0  0  0  0  0  0  0
    4.4260   -1.3200    0.9450 O   0  0  0  0  0  0  0  0  0  0  0  0
    5.8580    0.2820    1.6320 O   0  0  0  0  0  0  0  0  0  0  0  0
  2  1  1  1
  2  3  1  0
  2  9  1  0
  3  4  1  0
  4  5  1  0
  5  6  1  0
  5  7  1  0
  7  8  1  0
  8  9  1  0
  9 10  1  6
  9 11  1  0
 11 12  2  0
 11 13  1  0
 13 14  1  0
 14 15  1  0
 15 16  1  0
 16 17  1  0
 17 18  1  0
 18 19  2  0
 18 20  1  0
M  END
