
     RDKit          3D

 20 21  0  0  0  0  0  0  0  0999 V2000
   -2.8030    1.5500   -2.6140 N   0  0  0  0  0  0  0  0  0  0  0  0
   -2.7000    0.6630   -1.7090 C   0  0  0  0  0  0  0  0  0  0  0  0
   -1.3790    0.2940   -1.2690 N   0  0  0  0  0  0  0  0  0  0  0  0
   -1.0390   -0.5520   -0.3570 C   0  0  0  0  0  0  0  0  0  0  0  0
    0.4070   -0.7010   -0.1480 C   0  0  0  0  0  0  0  0  0  0  0  0
    1.0250   -1.4820    0.7060 C   0  0  0  0  0  0  0  0  0  0  0  0
    2.4050   -1.3690    0.6350 O   0  0  0  0  0  0  0  0  0  0  0  0
    2.6700   -0.6090   -0.5350 C   0  0  2  0  0  0  0  0  0  0  0  0
    3.6780    0.4500   -0.1490 C   0  0  0  0  0  0  0  0  0  0  0  0
    4.8120   -0.1780    0.3060 O   0  0  0  0  0  0  0  0  0  0  0  0
    6.0540    0.9120    0.7830 P   0  0  0  0  0  0  0  0  0  0  0  0
    7.5920    0.2220    0.2970 O   0  0  0  0  0  0  0  0  0  0  0  0
    5.9220    2.4510   -0.0010 O   0  0  0  0  0  0  0  0  0  0  0  0
    1.4000   -0.0210   -0.8350 O   0  0  0  0  0  0  0  0  0  0  0  0
   -1.8920   -1.3010    0.4090 O   0  0  0  0  0  0  0  0  0  0  0  0
   -3.2470   -1.6760    0.2770 C   0  0  0  0  0  0  0  0  0  0  0  0
   -4.1450   -0.4850    0.0340 C   0  0  1  0  0  0  0  0  0  0  0  0
   -4.1260    0.4960    1.1820 C   0  0  0  0  0  0  0  0  0  0  0  0
   -5.1150    1.4550    0.8990 O   0  0  0  0  0  0  0  0  0  0  0  0
   -3.8720    0.1120   -1.2070 O   0  0  0  0  0  0  0  0  0  0  0  0
  1  2  2  0
  2  3  1  0
  2 20  1  0
  3  4  2  0
  4  5  1  0
  4 15  1  0
  5  6  2  0
  5 14  1  0
  6  7  1  0
  7  8  1  0
  8  9  1  1
  8 14  1  0
  9 10  1  0
 10 11  1  0
 11 12  1  0
 11 13  1  0
 15 16  1  0
 16 17  1  0
 17 18  1  1
 17 20  1  0
 18 19  1  0
M  END
