
     RDKit          3D

 20 21  0  0  0  0  0  0  0  0999 V2000
    5.3070    1.7140    2.0920 O   0  0  0  0  0  0  0  0  0  0  0  0
    4.7230    1.2090    1.1010 C   0  0  0  0  0  0  0  0  0  0  0  0
    5.3740    0.6300   -0.0200 N   0  0  0  0  0  0  0  0  0  0  0  0
    4.3180    0.0880   -0.8520 C   0  0  0  0  0  0  0  0  0  0  0  0
    3.1720    0.9910   -0.5040 C   0  0  1  0  0  0  0  0  0  0  0  0
    1.8510    0.4100   -0.8100 C   0  0  0  0  0  0  0  0  0  0  0  0
    1.5510    0.2270   -2.0180 O   0  0  0  0  0  0  0  0  0  0  0  0
    0.9290    0.0570    0.1350 O   0  0  0  0  0  0  0  0  0  0  0  0
   -0.3330   -0.4950   -0.1020 C   0  0  1  0  0  0  0  0  0  0  0  0
   -0.5450   -1.8070    0.5340 C   0  0  0  0  0  0  0  0  0  0  0  0
    0.2340   -2.6580    0.9200 O   0  0  0  0  0  0  0  0  0  0  0  0
   -2.0210   -1.9640    0.6550 C   0  0  0  0  0  0  0  0  0  0  0  0
   -2.4900   -0.5900    0.7600 N   0  0  0  0  0  0  0  0  0  0  0  0
   -3.8330   -0.1770    1.1410 C   0  0  0  0  0  0  0  0  0  0  0  0
   -4.9590   -0.0130   -0.3010 P   0  0  0  0  0  0  0  0  0  0  0  0
   -4.2470   -0.5310   -1.7840 O   0  0  0  0  0  0  0  0  0  0  0  0
   -5.5750    1.6190   -0.4170 O   0  0  0  0  0  0  0  0  0  0  0  0
   -1.4450    0.3180    0.4370 C   0  0  0  0  0  0  0  0  0  0  0  0
   -1.4540    1.5680    0.5770 O   0  0  0  0  0  0  0  0  0  0  0  0
    3.3300    1.1220    0.9130 O   0  0  0  0  0  0  0  0  0  0  0  0
  1  2  2  0
  2  3  1  0
  2 20  1  0
  3  4  1  0
  4  5  1  0
  5  6  1  1
  5 20  1  0
  6  7  2  0
  6  8  1  0
  9  8  1  1
  9 10  1  0
  9 18  1  0
 10 11  2  0
 10 12  1  0
 12 13  1  0
 13 14  1  0
 13 18  1  0
 14 15  1  0
 15 16  1  0
 15 17  1  0
 18 19  2  0
M  END
