
     RDKit          3D

 21 22  0  0  0  0  0  0  0  0999 V2000
    5.5520   -0.8770   -1.0330 O   0  0  0  0  0  0  0  0  0  0  0  0
    5.8360    0.2060    0.1690 P   0  0  0  0  0  0  0  0  0  0  0  0
    4.4430    0.1150    1.3100 O   0  0  0  0  0  0  0  0  0  0  0  0
    3.3850    0.5260    0.4490 C   0  0  0  0  0  0  0  0  0  0  0  0
    2.4490   -0.6990    0.4710 C   0  0  0  0  0  0  0  0  0  0  0  0
    1.3880   -0.4240   -0.4270 N   0  0  0  0  0  0  0  0  0  0  0  0
    1.5470   -0.5170   -1.8440 C   0  0  0  0  0  0  0  0  0  0  0  0
    2.6820   -0.8080   -2.2930 O   0  0  0  0  0  0  0  0  0  0  0  0
    0.4640   -0.2700   -2.6190 O   0  0  0  0  0  0  0  0  0  0  0  0
   -0.8030    0.0590   -2.2020 C   0  0  0  0  0  0  0  0  0  0  0  0
   -1.6540    0.4430   -3.0210 O   0  0  0  0  0  0  0  0  0  0  0  0
   -1.0930   -0.0590   -0.7590 C   0  0  2  0  0  0  0  0  0  0  0  0
   -2.0120   -1.2930   -0.5750 C   0  0  0  0  0  0  0  0  0  0  0  0
   -3.2970   -0.7180   -0.3580 O   0  0  0  0  0  0  0  0  0  0  0  0
   -2.9220    0.2820    0.4620 C   0  0  2  0  0  0  0  0  0  0  0  0
   -3.8480    1.0620    1.2280 C   0  0  0  0  0  0  0  0  0  0  0  0
   -3.4520    1.8410    2.1450 O   0  0  0  0  0  0  0  0  0  0  0  0
   -5.2400    1.0250    1.0040 O   0  0  0  0  0  0  0  0  0  0  0  0
   -1.8940    0.9990   -0.2110 N   0  0  0  0  0  0  0  0  0  0  0  0
    0.1100   -0.0950    0.0850 C   0  0  0  0  0  0  0  0  0  0  0  0
    0.0330    0.1620    1.3140 O   0  0  0  0  0  0  0  0  0  0  0  0
  1  2  2  0
  2  3  1  0
  3  4  1  0
  4  5  1  0
  5  6  1  0
  6  7  1  0
  6 20  1  0
  7  8  2  0
  7  9  1  0
  9 10  1  0
 10 11  2  0
 10 12  1  0
 12 13  1  6
 12 19  1  0
 12 20  1  0
 13 14  1  0
 14 15  1  0
 15 16  1  6
 15 19  1  0
 16 17  2  0
 16 18  1  0
 20 21  2  0
M  END
