
     RDKit          3D

 27 29  0  0  0  0  0  0  0  0999 V2000
    6.0630    0.4600    2.1970 N   0  0  0  0  0  0  0  0  0  0  0  0
    4.6940    0.5600    1.8390 C   0  0  0  0  0  0  0  0  0  0  0  0
    3.7650    1.1250    2.6450 N   0  0  0  0  0  0  0  0  0  0  0  0
    2.4660    1.2070    2.2780 C   0  0  0  0  0  0  0  0  0  0  0  0
    2.0260    0.7300    1.0860 N   0  0  0  0  0  0  0  0  0  0  0  0
    2.9210    0.1670    0.2680 C   0  0  0  0  0  0  0  0  0  0  0  0
    4.2540    0.0740    0.6280 C   0  0  0  0  0  0  0  0  0  0  0  0
    4.8710   -0.5340   -0.4000 N   0  0  0  0  0  0  0  0  0  0  0  0
    3.9880   -0.8080   -1.3490 C   0  0  0  0  0  0  0  0  0  0  0  0
    2.7760   -0.3800   -0.9480 N   0  0  0  0  0  0  0  0  0  0  0  0
    1.5880   -0.5310   -1.7620 C   0  0  2  0  0  0  0  0  0  0  0  0
    0.4170   -0.3270   -1.0410 O   0  0  0  0  0  0  0  0  0  0  0  0
   -0.5260   -0.9370   -1.8940 C   0  0  2  0  0  0  0  0  0  0  0  0
   -1.8340   -0.9780   -1.1370 C   0  0  0  0  0  0  0  0  0  0  0  0
   -2.1910    0.3070   -0.8350 O   0  0  0  0  0  0  0  0  0  0  0  0
   -3.6100    0.4000   -0.0050 P   0  0  0  0  0  0  0  0  0  0  0  0
   -4.6790    1.6590   -0.3290 O   0  0  0  0  0  0  0  0  0  0  0  0
   -4.0760   -0.7410    1.0470 O   0  0  0  0  0  0  0  0  0  0  0  0
   -2.9580    1.2820    1.0560 O   0  0  0  0  0  0  0  0  0  0  0  0
   -3.7140    2.0730    2.2320 P   0  0  0  0  0  0  0  0  0  0  0  0
   -4.7870    1.3150    3.2380 O   0  0  0  0  0  0  0  0  0  0  0  0
   -2.5900    1.9370    3.2590 O   0  0  0  0  0  0  0  0  0  0  0  0
   -3.5850    3.7640    2.3790 O   0  0  0  0  0  0  0  0  0  0  0  0
    0.0620   -2.2880   -2.1230 C   0  0  1  0  0  0  0  0  0  0  0  0
   -0.4000   -2.8280   -3.3280 O   0  0  0  0  0  0  0  0  0  0  0  0
    1.5430   -1.9820   -2.2240 C   0  0  1  0  0  0  0  0  0  0  0  0
    2.0230   -2.0310   -3.5080 O   0  0  0  0  0  0  0  0  0  0  0  0
  1  2  1  0
  2  3  2  0
  2  7  1  0
  3  4  1  0
  4  5  2  0
  5  6  1  0
  6  7  2  0
  6 10  1  0
  7  8  1  0
  8  9  2  0
  9 10  1  0
 11 10  1  1
 11 12  1  0
 11 26  1  0
 12 13  1  0
 13 14  1  1
 13 24  1  0
 14 15  1  0
 15 16  1  0
 16 17  1  0
 16 18  1  0
 16 19  1  0
 19 20  1  0
 20 21  1  0
 20 22  1  0
 20 23  1  0
 24 25  1  6
 24 26  1  0
 26 27  1  6
M  END
