
     RDKit          3D

 12 13  0  0  0  0  0  0  0  0999 V2000
   -0.8020   -2.1860   -0.3270 N   0  0  0  0  0  0  0  0  0  0  0  0
   -1.1620   -0.7980   -0.1120 C   0  0  1  0  0  0  0  0  0  0  0  0
   -1.8680   -0.6630    1.2360 C   0  0  0  0  0  0  0  0  0  0  0  0
   -2.5100    0.5580    1.2330 O   0  0  0  0  0  0  0  0  0  0  0  0
   -1.9030    1.5120    0.4440 C   0  0  0  0  0  0  0  0  0  0  0  0
   -0.3740    1.4140    0.5260 C   0  0  0  0  0  0  0  0  0  0  0  0
    0.0750    0.0930   -0.0180 C   0  0  2  0  0  0  0  0  0  0  0  0
    0.7340    0.1880   -1.3630 C   0  0  0  0  0  0  0  0  0  0  0  0
    1.9560    0.8310   -1.2510 O   0  0  0  0  0  0  0  0  0  0  0  0
    2.7820    0.2480   -0.3070 C   0  0  0  0  0  0  0  0  0  0  0  0
    2.0540    0.2720    1.0390 C   0  0  0  0  0  0  0  0  0  0  0  0
    0.9120   -0.4960    0.9270 O   0  0  0  0  0  0  0  0  0  0  0  0
  2  1  1  1
  2  3  1  0
  2  7  1  0
  3  4  1  0
  4  5  1  0
  5  6  1  0
  7  6  1  1
  7  8  1  0
  7 12  1  0
  8  9  1  0
  9 10  1  0
 10 11  1  0
 11 12  1  0
M  CHG  1   1   1
M  END
