
     RDKit          3D

 10 10  0  0  0  0  0  0  0  0999 V2000
   -2.9330   -0.3370    0.3520 N   0  0  0  0  0  0  0  0  0  0  0  0
   -2.3470    0.9090   -0.1290 C   0  0  0  0  0  0  0  0  0  0  0  0
   -0.8630    0.8020   -0.2090 C   0  0  0  0  0  0  0  0  0  0  0  0
   -0.2470    1.8080   -0.6080 O   0  0  0  0  0  0  0  0  0  0  0  0
   -0.1740   -0.3650    0.1430 N   0  0  0  0  0  0  0  0  0  0  0  0
    1.2680   -0.4730    0.0660 C   0  0  0  0  0  0  0  0  0  0  0  0
    2.1690   -1.1940    0.2460 N   0  0  0  0  0  0  0  0  0  0  0  0
    3.4480   -1.0340    0.0890 C   0  0  0  0  0  0  0  0  0  0  0  0
    3.8220    0.2500   -0.3880 C   0  0  0  0  0  0  0  0  0  0  0  0
    2.2150    1.0440   -0.5370 S   0  0  0  0  0  0  0  0  0  0  0  0
  1  2  1  0
  2  3  1  0
  3  4  2  0
  3  5  1  0
  5  6  1  0
  6  7  2  0
  6 10  1  0
  7  8  1  0
  8  9  2  0
  9 10  1  0
M  CHG  1   1   1
M  END
