
     RDKit          3D

 13 13  0  0  0  0  0  0  0  0999 V2000
   -2.4550    2.1620    0.7400 C   0  0  0  0  0  0  0  0  0  0  0  0
   -1.5770    1.0790    0.8810 O   0  0  0  0  0  0  0  0  0  0  0  0
   -0.9720    0.7320   -0.3260 C   0  0  1  0  0  0  0  0  0  0  0  0
    0.5020    0.9390   -0.2700 C   0  0  0  0  0  0  0  0  0  0  0  0
    1.3220   -0.2240    0.1030 C   0  0  2  0  0  0  0  0  0  0  0  0
    2.6640   -0.0910   -0.4410 N   0  0  0  0  0  0  0  0  0  0  0  0
    3.8360   -0.0680    0.3250 C   0  0  0  0  0  0  0  0  0  0  0  0
    3.7530   -0.1680    1.5650 O   0  0  0  0  0  0  0  0  0  0  0  0
    5.1040    0.0620   -0.2410 O   0  0  0  0  0  0  0  0  0  0  0  0
    0.8000   -1.5550   -0.3550 C   0  0  0  0  0  0  0  0  0  0  0  0
   -0.6530   -1.7470   -0.0640 C   0  0  0  0  0  0  0  0  0  0  0  0
   -1.4130   -0.6330   -0.7330 C   0  0  1  0  0  0  0  0  0  0  0  0
   -2.8100   -0.7880   -0.3690 N   0  0  0  0  0  0  0  0  0  0  0  0
  1  2  1  0
  3  2  1  1
  3  4  1  0
  3 12  1  0
  4  5  1  0
  5  6  1  6
  5 10  1  0
  6  7  1  0
  7  8  2  0
  7  9  1  0
 10 11  1  0
 11 12  1  0
 12 13  1  1
M  CHG  1  13   1
M  END
