
     RDKit          3D

 13 13  0  0  0  0  0  0  0  0999 V2000
    2.9010    1.5240    0.1150 C   0  0  0  0  0  0  0  0  0  0  0  0
    2.4520    0.2320    0.5680 N   0  0  0  0  0  0  0  0  0  0  0  0
    1.6950   -0.4860   -0.4210 C   0  0  0  0  0  0  0  0  0  0  0  0
    0.3010   -0.6970    0.0110 C   0  0  2  0  0  0  0  0  0  0  0  0
   -0.5140   -1.4840   -1.0300 C   0  0  1  0  0  0  0  0  0  0  0  0
    0.1790   -2.6070   -1.4630 O   0  0  0  0  0  0  0  0  0  0  0  0
   -1.8520   -1.8600   -0.4910 C   0  0  0  0  0  0  0  0  0  0  0  0
   -2.5360   -0.8720    0.3560 C   0  0  0  0  0  0  0  0  0  0  0  0
   -1.6630    0.0830    1.1090 C   0  0  2  0  0  0  0  0  0  0  0  0
   -2.3850    1.1290    1.6210 O   0  0  0  0  0  0  0  0  0  0  0  0
   -0.5320    0.5530    0.1850 C   0  0  1  0  0  0  0  0  0  0  0  0
    0.1120    1.6460    0.6630 O   0  0  0  0  0  0  0  0  0  0  0  0
   -0.1480    2.7120   -0.1280 N   0  0  0  0  0  0  0  0  0  0  0  0
  1  2  1  0
  2  3  1  0
  4  3  1  6
  4  5  1  0
  4 11  1  0
  5  6  1  1
  5  7  1  0
  7  8  1  0
  8  9  1  0
  9 10  1  6
  9 11  1  0
 11 12  1  1
 12 13  1  0
M  CHG  1   2   1
M  END
