
     RDKit          3D

 27 29  0  0  0  0  0  0  0  0999 V2000
    7.1810   -2.3640    0.0750 C   0  0  0  0  0  0  0  0  0  0  0  0
    5.9860   -3.2390    0.0300 C   0  0  0  0  0  0  0  0  0  0  0  0
    4.8100   -2.6660   -0.2200 C   0  0  0  0  0  0  0  0  0  0  0  0
    4.6900   -1.2510   -0.4410 C   0  0  0  0  0  0  0  0  0  0  0  0
    3.5510   -0.5900   -0.6930 C   0  0  0  0  0  0  0  0  0  0  0  0
    3.5980    0.8640   -0.8990 C   0  0  0  0  0  0  0  0  0  0  0  0
    2.4400    1.5800   -0.3260 C   0  0  0  0  0  0  0  0  0  0  0  0
    1.2020    0.7810   -0.1720 C   0  0  0  0  0  0  0  0  0  0  0  0
    0.0650    1.5420    0.2180 C   0  0  0  0  0  0  0  0  0  0  0  0
    0.1220    2.8250    0.4340 O   0  0  0  0  0  0  0  0  0  0  0  0
    0.1710    4.0920    0.6500 C   0  0  0  0  0  0  0  0  0  0  0  0
   -0.7970    4.9750   -0.1830 C   0  0  0  0  0  0  0  0  0  0  0  0
   -2.2260    4.6370    0.1370 C   0  0  0  0  0  0  0  0  0  0  0  0
   -1.1580    0.8890    0.3730 C   0  0  0  0  0  0  0  0  0  0  0  0
   -1.2610   -0.4500    0.1550 C   0  0  0  0  0  0  0  0  0  0  0  0
   -2.5030   -1.0930    0.3010 C   0  0  0  0  0  0  0  0  0  0  0  0
   -3.6590   -0.2340    0.6640 C   0  0  0  0  0  0  0  0  0  0  0  0
   -4.9600   -0.9420    0.4200 C   0  0  1  0  0  0  0  0  0  0  0  0
   -6.1310   -0.0360    0.7960 C   0  0  0  0  0  0  0  0  0  0  0  0
   -5.0770   -1.3430   -1.0210 C   0  0  0  0  0  0  0  0  0  0  0  0
   -2.6260   -2.4270    0.0790 C   0  0  0  0  0  0  0  0  0  0  0  0
   -1.5500   -3.1770   -0.2930 C   0  0  0  0  0  0  0  0  0  0  0  0
   -0.3210   -2.5330   -0.4390 C   0  0  0  0  0  0  0  0  0  0  0  0
    0.7940   -3.2920   -0.8270 O   0  0  0  0  0  0  0  0  0  0  0  0
   -0.1370   -1.1850   -0.2270 C   0  0  0  0  0  0  0  0  0  0  0  0
    1.0880   -0.5640   -0.3870 C   0  0  0  0  0  0  0  0  0  0  0  0
    2.2900   -1.3940   -0.7530 C   0  0  0  0  0  0  0  0  0  0  0  0
  1  2  1  0
  2  3  2  3
  3  4  1  0
  4  5  2  3
  5  6  1  0
  5 27  1  0
  6  7  1  0
  7  8  1  0
  8  9  2  0
  8 26  1  0
  9 10  1  0
  9 14  1  0
 10 11  1  0
 11 12  1  0
 12 13  1  0
 14 15  2  0
 15 16  1  0
 15 25  1  0
 16 17  1  0
 16 21  2  0
 17 18  1  0
 18 19  1  6
 18 20  1  0
 21 22  1  0
 22 23  2  0
 23 24  1  0
 23 25  1  0
 25 26  2  0
 26 27  1  0
M  END
