
     RDKit          3D

 14 13  0  0  0  0  0  0  0  0999 V2000
   -1.5110   -0.8240    2.9270 C   0  0  0  0  0  0  0  0  0  0  0  0
   -2.1090   -0.5150    1.5990 C   0  0  0  0  0  0  0  0  0  0  0  0
   -1.4580   -0.0750    0.5490 C   0  0  0  0  0  0  0  0  0  0  0  0
   -2.1820    0.1810   -0.6800 C   0  0  0  0  0  0  0  0  0  0  0  0
   -3.4210   -0.0140   -0.8190 N   0  0  0  0  0  0  0  0  0  0  0  0
    0.0390    0.1460    0.5910 C   0  0  2  0  0  0  0  0  0  0  0  0
    0.2090    1.5240    0.1610 N   0  0  0  0  0  0  0  0  0  0  0  0
    1.3480    2.1880    0.7230 C   0  0  0  0  0  0  0  0  0  0  0  0
    1.1200    3.7080    0.7990 C   0  0  0  0  0  0  0  0  0  0  0  0
    0.8260   -0.8170   -0.2110 C   0  0  2  0  0  0  0  0  0  0  0  0
    0.5160   -2.2140    0.3820 C   0  0  0  0  0  0  0  0  0  0  0  0
    2.2710   -0.6770    0.0100 N   0  0  0  0  0  0  0  0  0  0  0  0
    0.6110   -0.8480   -1.6780 C   0  0  0  0  0  0  0  0  0  0  0  0
    1.5340   -1.8660   -2.2330 N   0  0  0  0  0  0  0  0  0  0  0  0
  1  2  1  0
  2  3  2  3
  3  4  1  0
  3  6  1  0
  4  5  2  0
  6  7  1  6
  6 10  1  0
  7  8  1  0
  8  9  1  0
 10 11  1  1
 10 12  1  0
 10 13  1  0
 13 14  1  0
M  CHG  3   5   1   7   1  14   1
M  END
