
     RDKit          3D

 14 13  0  0  0  0  0  0  0  0999 V2000
    2.2470    3.1730   -0.2520 C   0  0  0  0  0  0  0  0  0  0  0  0
    1.0250    2.2510   -0.2850 C   0  0  0  0  0  0  0  0  0  0  0  0
    1.2050    0.9310   -0.2230 C   0  0  0  0  0  0  0  0  0  0  0  0
    2.6170    0.5880   -0.1290 N   0  0  0  0  0  0  0  0  0  0  0  0
    0.1880   -0.0890   -0.2110 C   0  0  0  0  0  0  0  0  0  0  0  0
    0.4610   -1.3510   -0.1650 C   0  0  0  0  0  0  0  0  0  0  0  0
    1.7070   -2.0690   -0.1180 C   0  0  0  0  0  0  0  0  0  0  0  0
    1.8310   -2.8740    1.1310 N   0  0  0  0  0  0  0  0  0  0  0  0
   -1.2430    0.3760   -0.2360 C   0  0  2  0  0  0  0  0  0  0  0  0
   -1.4690    1.2330   -1.4250 C   0  0  0  0  0  0  0  0  0  0  0  0
   -1.5510    1.0550    1.0590 C   0  0  0  0  0  0  0  0  0  0  0  0
   -1.3600    0.1020    2.1710 N   0  0  0  0  0  0  0  0  0  0  0  0
   -2.1780   -0.7670   -0.2800 N   0  0  0  0  0  0  0  0  0  0  0  0
   -2.2670   -1.4020   -1.5400 C   0  0  0  0  0  0  0  0  0  0  0  0
  1  2  1  0
  2  3  2  3
  3  4  1  0
  3  5  1  0
  5  6  2  3
  5  9  1  0
  6  7  1  0
  7  8  1  0
  9 10  1  6
  9 11  1  0
  9 13  1  0
 11 12  1  0
 13 14  1  0
M  CHG  3   8   1  12   1  13   1
M  END
