
     RDKit          3D

 14 13  0  0  0  0  0  0  0  0999 V2000
   -3.9300    1.2280   -0.9080 C   0  0  0  0  0  0  0  0  0  0  0  0
   -3.6580   -0.2590   -0.9590 C   0  0  0  0  0  0  0  0  0  0  0  0
   -2.1840   -0.5670   -1.0690 C   0  0  0  0  0  0  0  0  0  0  0  0
   -1.4650   -0.0090    0.0930 C   0  0  1  0  0  0  0  0  0  0  0  0
   -2.0200   -0.6350    1.3600 C   0  0  0  0  0  0  0  0  0  0  0  0
   -1.8790   -2.0520    1.3880 N   0  0  0  0  0  0  0  0  0  0  0  0
   -0.0520   -0.2390    0.1180 N   0  0  0  0  0  0  0  0  0  0  0  0
    0.7490    0.5870   -0.6890 C   0  0  1  0  0  0  0  0  0  0  0  0
    0.1880    1.9650   -0.9530 C   0  0  0  0  0  0  0  0  0  0  0  0
    2.0990    0.7860   -0.0340 C   0  0  0  0  0  0  0  0  0  0  0  0
    2.8470   -0.4560    0.1820 C   0  0  0  0  0  0  0  0  0  0  0  0
    2.4340   -1.6170   -0.1410 N   0  0  0  0  0  0  0  0  0  0  0  0
    4.1820   -0.3540    0.8210 C   0  0  0  0  0  0  0  0  0  0  0  0
    5.0930    0.4640    0.0480 N   0  0  0  0  0  0  0  0  0  0  0  0
  1  2  1  0
  2  3  1  0
  4  3  1  6
  4  5  1  0
  4  7  1  0
  5  6  1  0
  7  8  1  0
  8  9  1  1
  8 10  1  0
 10 11  1  0
 11 12  2  0
 11 13  1  0
 13 14  1  0
M  CHG  3   6   1   7   1  14   1
M  END
