
     RDKit          3D

 14 14  0  0  0  0  0  0  0  0999 V2000
    4.4560    1.1010   -0.4840 N   0  0  0  0  0  0  0  0  0  0  0  0
    3.3310    0.2000   -0.6440 C   0  0  0  0  0  0  0  0  0  0  0  0
    2.4870    0.1400    0.6210 C   0  0  0  0  0  0  0  0  0  0  0  0
    1.3550   -0.8150    0.3410 C   0  0  1  0  0  0  0  0  0  0  0  0
    1.8650   -2.1420    0.0110 N   0  0  0  0  0  0  0  0  0  0  0  0
    0.3410   -0.8610    1.4340 C   0  0  0  0  0  0  0  0  0  0  0  0
   -0.2900    0.4980    1.6500 C   0  0  0  0  0  0  0  0  0  0  0  0
   -0.9150    0.9070    0.4090 N   0  0  0  0  0  0  0  0  0  0  0  0
   -2.0690    0.1810   -0.0170 C   0  0  0  0  0  0  0  0  0  0  0  0
   -2.1430   -0.9580   -0.6640 C   0  0  0  0  0  0  0  0  0  0  0  0
   -3.5340   -1.3180   -0.8860 C   0  0  0  0  0  0  0  0  0  0  0  0
   -4.3030   -0.3900   -0.3700 C   0  0  0  0  0  0  0  0  0  0  0  0
   -3.4430    0.6400    0.2250 C   0  0  2  0  0  0  0  0  0  0  0  0
   -3.6800    1.9580   -0.3510 N   0  0  0  0  0  0  0  0  0  0  0  0
  1  2  1  0
  2  3  1  0
  3  4  1  0
  4  5  1  1
  4  6  1  0
  6  7  1  0
  7  8  1  0
  8  9  1  0
  9 10  2  0
  9 13  1  0
 10 11  1  0
 11 12  2  0
 12 13  1  0
 13 14  1  6
M  CHG  3   1   1   5   1  14   1
M  END
