
     RDKit          3D

 14 13  0  0  0  0  0  0  0  0999 V2000
    4.9550    0.0890    0.9690 C   0  0  0  0  0  0  0  0  0  0  0  0
    3.5490   -0.1340    0.4340 C   0  0  2  0  0  0  0  0  0  0  0  0
    3.6630   -1.1320   -0.5990 N   0  0  0  0  0  0  0  0  0  0  0  0
    3.0250    1.1500   -0.0640 C   0  0  0  0  0  0  0  0  0  0  0  0
    1.7140    1.3820   -0.2330 C   0  0  0  0  0  0  0  0  0  0  0  0
    0.7290    0.3820    0.0650 C   0  0  0  0  0  0  0  0  0  0  0  0
   -0.5820    0.5160   -0.0680 C   0  0  0  0  0  0  0  0  0  0  0  0
   -1.1160    1.8070   -0.5670 C   0  0  0  0  0  0  0  0  0  0  0  0
   -1.8270    1.7120   -1.8190 N   0  0  0  0  0  0  0  0  0  0  0  0
   -1.4440   -0.6350    0.2980 C   0  0  2  0  0  0  0  0  0  0  0  0
   -2.0880   -1.3130   -0.9100 C   0  0  0  0  0  0  0  0  0  0  0  0
   -2.8930   -2.4340   -0.3780 N   0  0  0  0  0  0  0  0  0  0  0  0
   -2.4080   -0.4270    1.3960 C   0  0  0  0  0  0  0  0  0  0  0  0
   -3.4110    0.5580    1.2790 N   0  0  0  0  0  0  0  0  0  0  0  0
  2  1  1  6
  2  3  1  0
  2  4  1  0
  4  5  2  3
  5  6  1  0
  6  7  2  3
  7  8  1  0
  7 10  1  0
  8  9  1  0
 10 11  1  6
 10 13  1  0
 11 12  1  0
 13 14  1  0
M  CHG  4   3   1   9   1  12   1  14   1
M  END
