
     RDKit          3D

 27 29  0  0  0  0  0  0  0  0999 V2000
   -2.8230   -2.9110   -0.9680 C   0  0  0  0  0  0  0  0  0  0  0  0
   -2.6190   -2.9620   -2.1940 C   0  0  0  0  0  0  0  0  0  0  0  0
   -2.3890   -1.8490   -3.0750 C   0  0  0  0  0  0  0  0  0  0  0  0
   -2.3720   -2.0790   -4.3950 C   0  0  0  0  0  0  0  0  0  0  0  0
   -2.1900   -1.2260   -5.5780 C   0  0  0  0  0  0  0  0  0  0  0  0
   -2.4580    0.0660   -5.7830 C   0  0  0  0  0  0  0  0  0  0  0  0
   -3.0280    1.1370   -4.9310 C   0  0  0  0  0  0  0  0  0  0  0  0
   -2.9720    1.4440   -3.6230 C   0  0  0  0  0  0  0  0  0  0  0  0
   -2.2570    0.7330   -2.5540 C   0  0  0  0  0  0  0  0  0  0  0  0
   -1.7310    1.7110   -1.7500 C   0  0  0  0  0  0  0  0  0  0  0  0
   -2.0920    3.1030   -1.9930 C   0  0  0  0  0  0  0  0  0  0  0  0
   -0.8760    1.2550   -0.7330 C   0  0  0  0  0  0  0  0  0  0  0  0
   -0.5640   -0.0660   -0.5290 C   0  0  0  0  0  0  0  0  0  0  0  0
    0.3560   -0.5450    0.4540 C   0  0  0  0  0  0  0  0  0  0  0  0
    0.1570   -1.7700    0.8280 O   0  0  0  0  0  0  0  0  0  0  0  0
    1.4670    0.1470    1.0710 C   0  0  0  0  0  0  0  0  0  0  0  0
    2.0590    1.2810    0.6110 C   0  0  0  0  0  0  0  0  0  0  0  0
    3.1280    1.8870    1.2560 C   0  0  0  0  0  0  0  0  0  0  0  0
    3.6440    1.3540    2.4140 C   0  0  0  0  0  0  0  0  0  0  0  0
    4.7760    1.9680    3.1640 C   0  0  0  0  0  0  0  0  0  0  0  0
    3.0540    0.1890    2.9050 C   0  0  0  0  0  0  0  0  0  0  0  0
    3.5440   -0.3730    4.0550 O   0  0  0  0  0  0  0  0  0  0  0  0
    3.0400   -1.5260    4.6560 C   0  0  0  0  0  0  0  0  0  0  0  0
    1.6120   -1.3870    5.1070 C   0  0  0  0  0  0  0  0  0  0  0  0
    2.0090   -0.3770    2.2460 C   0  0  0  0  0  0  0  0  0  0  0  0
   -1.1410   -1.0180   -1.3900 C   0  0  0  0  0  0  0  0  0  0  0  0
   -1.9800   -0.6090   -2.3840 C   0  0  0  0  0  0  0  0  0  0  0  0
  1  2  2  0
  2  3  1  0
  3  4  2  0
  3 27  1  0
  4  5  1  0
  5  6  2  0
  6  7  1  0
  7  8  2  0
  8  9  1  0
  9 10  2  0
  9 27  1  0
 10 11  1  0
 10 12  1  0
 12 13  2  0
 13 14  1  0
 13 26  1  0
 14 15  2  0
 14 16  1  0
 16 17  2  0
 16 25  1  0
 17 18  1  0
 18 19  2  0
 19 20  1  0
 19 21  1  0
 21 22  1  0
 21 25  2  0
 22 23  1  0
 23 24  1  0
 26 27  2  0
M  END
