
     RDKit          3D

 31 34  0  0  0  0  0  0  0  0999 V2000
   -5.3150    2.6730    1.1450 C   0  0  0  0  0  0  0  0  0  0  0  0
   -4.2430    1.6530    1.3520 C   0  0  0  0  0  0  0  0  0  0  0  0
   -4.1770    0.6830    0.3480 O   0  0  0  0  0  0  0  0  0  0  0  0
   -5.1720   -0.1810   -0.0040 C   0  0  0  0  0  0  0  0  0  0  0  0
   -6.4000   -0.1880    0.6190 C   0  0  0  0  0  0  0  0  0  0  0  0
   -7.4020   -1.0770    0.2450 C   0  0  0  0  0  0  0  0  0  0  0  0
   -7.1820   -1.9730   -0.7640 C   0  0  0  0  0  0  0  0  0  0  0  0
   -5.9540   -1.9720   -1.3920 C   0  0  0  0  0  0  0  0  0  0  0  0
   -4.9510   -1.0840   -1.0190 C   0  0  0  0  0  0  0  0  0  0  0  0
   -3.7590   -1.1350   -1.6820 O   0  0  0  0  0  0  0  0  0  0  0  0
   -2.5290   -1.3840   -1.1600 C   0  0  0  0  0  0  0  0  0  0  0  0
   -1.5300   -0.4450   -1.2730 C   0  0  0  0  0  0  0  0  0  0  0  0
   -0.2800   -0.6900   -0.7450 C   0  0  0  0  0  0  0  0  0  0  0  0
    0.7290    0.2590   -0.8600 C   0  0  0  0  0  0  0  0  0  0  0  0
    1.9640   -0.0280   -0.3180 C   0  0  0  0  0  0  0  0  0  0  0  0
    2.8840    0.8690   -0.4370 N   0  0  0  0  0  0  0  0  0  0  0  0
    4.1930    0.6770    0.0850 C   0  0  0  0  0  0  0  0  0  0  0  0
    4.5130   -0.5080    0.4930 N   0  0  0  0  0  0  0  0  0  0  0  0
    5.7310   -0.9730    1.0490 N   0  0  0  0  0  0  0  0  0  0  0  0
    7.0250   -0.3940    0.9170 C   0  0  0  0  0  0  0  0  0  0  0  0
    8.1970   -1.2920    1.1600 C   0  0  0  0  0  0  0  0  0  0  0  0
    7.2980    0.8720    0.5990 C   0  0  0  0  0  0  0  0  0  0  0  0
    6.3400    1.9590    0.3110 C   0  0  0  0  0  0  0  0  0  0  0  0
    5.0280    1.8560    0.0960 C   0  0  0  0  0  0  0  0  0  0  0  0
    4.3580    3.1400   -0.1650 C   0  0  0  0  0  0  0  0  0  0  0  0
    2.1240   -1.1770    0.2760 O   0  0  0  0  0  0  0  0  0  0  0  0
    1.2130   -2.0720    0.3980 N   0  0  0  0  0  0  0  0  0  0  0  0
   -0.0080   -1.8730   -0.0990 C   0  0  0  0  0  0  0  0  0  0  0  0
   -1.0010   -2.7870    0.0050 N   0  0  0  0  0  0  0  0  0  0  0  0
   -2.2440   -2.5620   -0.5110 C   0  0  0  0  0  0  0  0  0  0  0  0
   -3.0880   -3.4660   -0.3630 O   0  0  0  0  0  0  0  0  0  0  0  0
  1  2  1  0
  2  3  1  0
  3  4  1  0
  4  5  2  0
  4  9  1  0
  5  6  1  0
  6  7  2  0
  7  8  1  0
  8  9  2  0
  9 10  1  0
 10 11  1  0
 11 12  2  0
 11 30  1  0
 12 13  1  0
 13 14  2  0
 13 28  1  0
 14 15  1  0
 15 16  2  3
 15 26  1  0
 16 17  1  0
 17 18  2  0
 17 24  1  0
 18 19  1  0
 19 20  1  0
 20 21  1  0
 20 22  2  0
 22 23  1  0
 23 24  2  0
 24 25  1  0
 26 27  1  0
 27 28  2  0
 28 29  1  0
 29 30  1  0
 30 31  2  0
M  END
