
     RDKit          3D

 31 33  0  0  0  0  0  0  0  0999 V2000
    4.4000   -3.6910   -0.5390 C   0  0  0  0  0  0  0  0  0  0  0  0
    3.7040   -2.6350   -0.2350 C   0  0  0  0  0  0  0  0  0  0  0  0
    4.3170   -1.3610   -0.0190 C   0  0  0  0  0  0  0  0  0  0  0  0
    3.5770   -0.2770    0.2990 C   0  0  0  0  0  0  0  0  0  0  0  0
    2.2890   -0.1650    0.4610 O   0  0  0  0  0  0  0  0  0  0  0  0
    1.0390   -0.6610    0.3180 C   0  0  2  0  0  0  0  0  0  0  0  0
    0.7880   -0.8870   -1.1520 C   0  0  0  0  0  0  0  0  0  0  0  0
    0.0630    0.1770   -1.8520 C   0  0  0  0  0  0  0  0  0  0  0  0
   -1.0280    0.8780   -1.1310 C   0  0  2  0  0  0  0  0  0  0  0  0
   -0.5470    2.2370   -1.0470 O   0  0  0  0  0  0  0  0  0  0  0  0
   -1.3190    0.3690    0.2370 C   0  0  1  0  0  0  0  0  0  0  0  0
   -1.8770    1.6230    0.9630 C   0  0  0  0  0  0  0  0  0  0  0  0
   -3.0820    2.1840    0.3060 C   0  0  0  0  0  0  0  0  0  0  0  0
   -3.5920    3.4230    1.0230 C   0  0  1  0  0  0  0  0  0  0  0  0
   -2.5760    4.5260    1.0660 C   0  0  0  0  0  0  0  0  0  0  0  0
   -4.7800    3.9310    0.2300 C   0  0  0  0  0  0  0  0  0  0  0  0
   -2.3100   -0.6640    0.4740 C   0  0  2  0  0  0  0  0  0  0  0  0
   -2.3290   -0.8840    1.8980 O   0  0  0  0  0  0  0  0  0  0  0  0
   -2.3030   -2.0040   -0.1210 C   0  0  1  0  0  0  0  0  0  0  0  0
   -3.5330   -2.7570    0.4680 C   0  0  0  0  0  0  0  0  0  0  0  0
   -3.5850   -4.1310   -0.0960 C   0  0  0  0  0  0  0  0  0  0  0  0
   -3.7510   -4.1380   -1.4400 C   0  0  0  0  0  0  0  0  0  0  0  0
   -3.8370   -2.7560   -1.9970 C   0  0  0  0  0  0  0  0  0  0  0  0
   -2.5140   -2.0680   -1.6080 C   0  0  0  0  0  0  0  0  0  0  0  0
   -0.0180    0.1600    1.0130 C   0  0  0  0  0  0  0  0  0  0  0  0
    4.4200    0.9540    0.4830 C   0  0  0  0  0  0  0  0  0  0  0  0
    4.2170    1.7570    1.5090 C   0  0  0  0  0  0  0  0  0  0  0  0
    3.1920    1.5330    2.5280 C   0  0  0  0  0  0  0  0  0  0  0  0
    5.4770    1.2490   -0.5110 C   0  0  0  0  0  0  0  0  0  0  0  0
    6.0770   -0.0030   -1.0730 C   0  0  0  0  0  0  0  0  0  0  0  0
    5.7840   -1.1900   -0.1340 C   0  0  0  0  0  0  0  0  0  0  0  0
  1  2  2  0
  2  3  1  0
  3  4  2  0
  3 31  1  0
  4  5  1  0
  4 26  1  0
  6  5  1  6
  6  7  1  0
  6 25  1  0
  7  8  1  0
  8  9  1  0
  9 10  1  1
  9 11  1  0
 11 12  1  1
 11 17  1  0
 11 25  1  0
 12 13  1  0
 13 14  1  0
 14 15  1  6
 14 16  1  0
 17 18  1  1
 17 19  1  0
 19 20  1  1
 19 24  1  0
 20 21  1  0
 21 22  2  0
 22 23  1  0
 23 24  1  0
 26 27  2  3
 26 29  1  0
 27 28  1  0
 29 30  1  0
 30 31  1  0
M  END
