
     RDKit          3D

 31 33  0  0  0  0  0  0  0  0999 V2000
    5.5910    0.1310   -0.3750 C   0  0  0  0  0  0  0  0  0  0  0  0
    4.8320    0.8670    0.6640 C   0  0  1  0  0  0  0  0  0  0  0  0
    4.6500    2.2980    0.1530 C   0  0  0  0  0  0  0  0  0  0  0  0
    6.0650    2.8440   -0.0360 C   0  0  0  0  0  0  0  0  0  0  0  0
    6.6890    2.7930    1.2180 O   0  0  0  0  0  0  0  0  0  0  0  0
    3.6190    0.2910    1.2260 C   0  0  0  0  0  0  0  0  0  0  0  0
    2.4340    0.0260    0.3090 C   0  0  1  0  0  0  0  0  0  0  0  0
    2.8230   -0.9170   -0.7540 C   0  0  0  0  0  0  0  0  0  0  0  0
    1.5320   -1.0960   -1.5930 C   0  0  1  0  0  0  0  0  0  0  0  0
    1.9910   -1.8620   -2.8310 C   0  0  0  0  0  0  0  0  0  0  0  0
    0.6420   -1.9420   -0.7460 C   0  0  0  0  0  0  0  0  0  0  0  0
    0.3100   -1.4110    0.5850 C   0  0  2  0  0  0  0  0  0  0  0  0
    0.5070   -2.6220    1.5520 C   0  0  0  0  0  0  0  0  0  0  0  0
   -1.1700   -1.0230    0.8020 C   0  0  2  0  0  0  0  0  0  0  0  0
   -1.1370   -0.6100    2.1310 O   0  0  0  0  0  0  0  0  0  0  0  0
   -2.1530   -2.0500    0.6300 C   0  0  2  0  0  0  0  0  0  0  0  0
   -3.6170   -1.6860    0.8770 C   0  0  0  0  0  0  0  0  0  0  0  0
   -4.3580   -2.9350    0.3420 C   0  0  0  0  0  0  0  0  0  0  0  0
   -3.3240   -4.0150    0.2730 C   0  0  0  0  0  0  0  0  0  0  0  0
   -2.1880   -3.3990    1.1470 C   0  0  0  0  0  0  0  0  0  0  0  0
   -1.5340    0.2860    0.0590 C   0  0  1  0  0  0  0  0  0  0  0  0
   -0.3270    1.0450    0.0390 O   0  0  0  0  0  0  0  0  0  0  0  0
   -1.9030    0.2230   -1.3460 C   0  0  0  0  0  0  0  0  0  0  0  0
   -1.4830    1.5340   -2.0530 C   0  0  0  0  0  0  0  0  0  0  0  0
   -2.2520    2.7210   -1.6780 C   0  0  0  0  0  0  0  0  0  0  0  0
   -3.5340    2.3600   -1.0280 C   0  0  0  0  0  0  0  0  0  0  0  0
   -3.4620    1.9970    0.4130 C   0  0  2  0  0  0  0  0  0  0  0  0
   -4.8990    1.7000    0.8410 C   0  0  0  0  0  0  0  0  0  0  0  0
   -3.2180    3.3860    1.1040 C   0  0  0  0  0  0  0  0  0  0  0  0
   -2.4590    1.1120    0.9310 C   0  0  0  0  0  0  0  0  0  0  0  0
    1.2510   -0.4060    1.1410 C   0  0  0  0  0  0  0  0  0  0  0  0
  2  1  1  6
  2  3  1  0
  2  6  1  0
  3  4  1  0
  4  5  1  0
  7  6  1  1
  7  8  1  0
  7 31  1  0
  8  9  1  0
  9 10  1  6
  9 11  1  0
 11 12  1  0
 12 13  1  1
 12 14  1  0
 12 31  1  0
 14 15  1  1
 14 16  1  0
 14 21  1  0
 16 17  1  1
 16 20  1  0
 17 18  1  0
 18 19  1  0
 19 20  1  0
 21 22  1  6
 21 23  1  0
 21 30  1  0
 23 24  1  0
 24 25  1  0
 25 26  1  0
 26 27  1  0
 27 28  1  1
 27 29  1  0
 27 30  1  0
M  END
