
     RDKit          3D

 31 35  0  0  0  0  0  0  0  0999 V2000
   -7.9570    3.1460    0.4880 C   0  0  0  0  0  0  0  0  0  0  0  0
   -7.1810    2.8120   -0.6170 O   0  0  0  0  0  0  0  0  0  0  0  0
   -6.0670    1.9770   -0.6170 C   0  0  0  0  0  0  0  0  0  0  0  0
   -5.4000    1.7510   -1.8280 C   0  0  0  0  0  0  0  0  0  0  0  0
   -4.2980    0.9250   -1.8290 C   0  0  0  0  0  0  0  0  0  0  0  0
   -3.8310    0.3150   -0.6730 C   0  0  0  0  0  0  0  0  0  0  0  0
   -2.7420   -0.4900   -0.6960 N   0  0  0  0  0  0  0  0  0  0  0  0
   -2.3480   -1.0390    0.4580 C   0  0  0  0  0  0  0  0  0  0  0  0
   -1.2700   -1.8750    0.6630 C   0  0  0  0  0  0  0  0  0  0  0  0
   -0.2970   -2.3890   -0.3040 C   0  0  2  0  0  0  0  0  0  0  0  0
    0.8410   -3.0400    0.4370 C   0  0  0  0  0  0  0  0  0  0  0  0
    1.5710   -2.0370    1.2870 C   0  0  0  0  0  0  0  0  0  0  0  0
    1.4910   -0.6390    0.6830 C   0  0  0  0  0  0  0  0  0  0  0  0
    1.5290   -0.8220   -0.7350 N   0  0  0  0  0  0  0  0  0  0  0  0
    2.5900   -0.5530   -1.5740 C   0  0  0  0  0  0  0  0  0  0  0  0
    2.2750   -0.7850   -2.8500 O   0  0  0  0  0  0  0  0  0  0  0  0
    3.9190   -0.0940   -1.3990 C   0  0  0  0  0  0  0  0  0  0  0  0
    4.6280    0.2210   -0.3570 C   0  0  0  0  0  0  0  0  0  0  0  0
    6.0220    0.6830   -0.4780 C   0  0  0  0  0  0  0  0  0  0  0  0
    6.8520    1.0370    0.5530 C   0  0  0  0  0  0  0  0  0  0  0  0
    8.0710    1.4110    0.0130 C   0  0  0  0  0  0  0  0  0  0  0  0
    9.2110    1.8440    0.6770 O   0  0  0  0  0  0  0  0  0  0  0  0
    7.9130    1.2610   -1.3600 C   0  0  0  0  0  0  0  0  0  0  0  0
    6.6930    0.8310   -1.6080 O   0  0  0  0  0  0  0  0  0  0  0  0
    0.2460   -1.3920   -1.2680 C   0  0  0  0  0  0  0  0  0  0  0  0
   -1.2700   -2.1610    1.9740 N   0  0  0  0  0  0  0  0  0  0  0  0
   -2.2770   -1.5510    2.5690 N   0  0  0  0  0  0  0  0  0  0  0  0
   -2.9590   -0.8530    1.6630 C   0  0  0  0  0  0  0  0  0  0  0  0
   -4.0530   -0.0460    1.6920 N   0  0  0  0  0  0  0  0  0  0  0  0
   -4.4770    0.5280    0.5280 C   0  0  0  0  0  0  0  0  0  0  0  0
   -5.5840    1.3600    0.5170 C   0  0  0  0  0  0  0  0  0  0  0  0
  1  2  1  0
  2  3  1  0
  3  4  2  0
  3 31  1  0
  4  5  1  0
  5  6  2  0
  6  7  1  0
  6 30  1  0
  7  8  2  0
  8  9  1  0
  8 28  1  0
 10  9  1  1
  9 26  2  0
 10 11  1  0
 10 25  1  0
 11 12  1  0
 12 13  1  0
 13 14  1  0
 14 15  1  0
 14 25  1  0
 15 16  2  0
 15 17  1  0
 17 18  2  3
 18 19  1  0
 19 20  2  0
 19 24  1  0
 20 21  1  0
 21 22  1  0
 21 23  2  0
 23 24  1  0
 26 27  1  0
 27 28  1  0
 28 29  2  0
 29 30  1  0
 30 31  2  0
M  END
