
     RDKit          3D

 30 32  0  0  0  0  0  0  0  0999 V2000
   -4.3720    4.4360   -1.9050 C   0  0  0  0  0  0  0  0  0  0  0  0
   -4.5000    3.0760   -1.3260 C   0  0  0  0  0  0  0  0  0  0  0  0
   -5.5280    2.8060   -0.6400 O   0  0  0  0  0  0  0  0  0  0  0  0
   -3.5460    2.0430   -1.4840 N   0  0  0  0  0  0  0  0  0  0  0  0
   -3.7450    0.7190   -0.8780 C   0  0  1  0  0  0  0  0  0  0  0  0
   -3.7790   -0.3480   -1.9520 C   0  0  0  0  0  0  0  0  0  0  0  0
   -2.6130    0.4290    0.0380 C   0  0  0  0  0  0  0  0  0  0  0  0
   -1.4010    1.4890    0.2450 S   0  0  0  0  0  0  0  0  0  0  0  0
   -2.6180   -0.8080    0.7320 N   0  0  0  0  0  0  0  0  0  0  0  0
   -3.6170   -1.8710    0.6670 C   0  0  0  0  0  0  0  0  0  0  0  0
   -3.7490   -2.2830    2.1290 C   0  0  2  0  0  0  0  0  0  0  0  0
   -4.4450   -1.3340    2.8580 O   0  0  0  0  0  0  0  0  0  0  0  0
   -2.2990   -2.2330    2.5770 C   0  0  0  0  0  0  0  0  0  0  0  0
   -1.6110   -1.2680    1.6620 C   0  0  1  0  0  0  0  0  0  0  0  0
   -0.4860   -1.8770    0.8930 C   0  0  0  0  0  0  0  0  0  0  0  0
   -0.5140   -1.8720   -0.3610 O   0  0  0  0  0  0  0  0  0  0  0  0
    0.6260   -2.4680    1.5500 N   0  0  0  0  0  0  0  0  0  0  0  0
    1.7460   -3.0710    0.8630 C   0  0  0  0  0  0  0  0  0  0  0  0
    2.6260   -1.9520    0.3710 C   0  0  0  0  0  0  0  0  0  0  0  0
    3.4770   -1.3220    1.2410 C   0  0  0  0  0  0  0  0  0  0  0  0
    4.2790   -0.2910    0.7380 C   0  0  0  0  0  0  0  0  0  0  0  0
    4.2390    0.0970   -0.5650 C   0  0  0  0  0  0  0  0  0  0  0  0
    5.0620    1.1860   -1.1470 C   0  0  0  0  0  0  0  0  0  0  0  0
    4.9650    1.6230   -2.8880 S   0  0  0  0  0  0  0  0  0  0  0  0
    6.2550    2.9790   -2.6580 C   0  0  0  0  0  0  0  0  0  0  0  0
    6.4770    2.8890   -1.5820 N   0  0  0  0  0  0  0  0  0  0  0  0
    5.9590    2.0330   -0.6790 C   0  0  0  0  0  0  0  0  0  0  0  0
    6.4020    2.0810    0.7580 C   0  0  0  0  0  0  0  0  0  0  0  0
    3.3520   -0.5890   -1.3870 C   0  0  0  0  0  0  0  0  0  0  0  0
    2.5380   -1.6080   -0.9630 C   0  0  0  0  0  0  0  0  0  0  0  0
  1  2  1  0
  2  3  2  0
  2  4  1  0
  4  5  1  0
  5  6  1  6
  5  7  1  0
  7  8  2  0
  7  9  1  0
  9 10  1  0
  9 14  1  0
 10 11  1  0
 11 12  1  1
 11 13  1  0
 13 14  1  0
 14 15  1  6
 15 16  2  0
 15 17  1  0
 17 18  1  0
 18 19  1  0
 19 20  2  0
 19 30  1  0
 20 21  1  0
 21 22  2  0
 22 23  1  0
 22 29  1  0
 23 24  1  0
 23 27  2  0
 24 25  1  0
 25 26  2  0
 26 27  1  0
 27 28  1  0
 29 30  2  0
M  END
