
     RDKit          3D

 31 33  0  0  0  0  0  0  0  0999 V2000
    6.7960   -1.3060    1.4590 C   0  0  0  0  0  0  0  0  0  0  0  0
    6.6400   -0.5190    0.2290 C   0  0  0  0  0  0  0  0  0  0  0  0
    5.8050    0.6720    0.1750 C   0  0  2  0  0  0  0  0  0  0  0  0
    6.0340    1.1520   -1.2100 O   0  0  0  0  0  0  0  0  0  0  0  0
    6.3110    1.8540    0.9800 C   0  0  0  0  0  0  0  0  0  0  0  0
    7.6800    2.3070    0.5140 C   0  0  0  0  0  0  0  0  0  0  0  0
    4.3350    0.6430    0.1970 C   0  0  0  0  0  0  0  0  0  0  0  0
    3.5310    0.0760    1.2710 C   0  0  2  0  0  0  0  0  0  0  0  0
    3.6700   -1.4060    1.4780 C   0  0  0  0  0  0  0  0  0  0  0  0
    2.0420    0.3900    1.0860 C   0  0  1  0  0  0  0  0  0  0  0  0
    1.9910    1.8070    1.0990 O   0  0  0  0  0  0  0  0  0  0  0  0
    1.5820   -0.1280   -0.2160 C   0  0  0  0  0  0  0  0  0  0  0  0
    0.1500    0.1030   -0.5060 C   0  0  0  0  0  0  0  0  0  0  0  0
   -0.7630   -0.8870   -0.6440 C   0  0  0  0  0  0  0  0  0  0  0  0
   -0.2450   -2.2510   -0.4810 C   0  0  0  0  0  0  0  0  0  0  0  0
   -2.1050   -0.4900   -0.8880 C   0  0  0  0  0  0  0  0  0  0  0  0
   -3.1430   -1.2700   -1.1020 C   0  0  0  0  0  0  0  0  0  0  0  0
   -4.4500   -0.5510   -1.3280 C   0  0  1  0  0  0  0  0  0  0  0  0
   -5.5960   -1.4060   -1.7070 C   0  0  0  0  0  0  0  0  0  0  0  0
   -5.5020   -2.6950   -0.9080 C   0  0  0  0  0  0  0  0  0  0  0  0
   -4.3430   -3.4280   -1.5110 C   0  0  0  0  0  0  0  0  0  0  0  0
   -3.0070   -2.7110   -1.1550 C   0  0  1  0  0  0  0  0  0  0  0  0
   -2.1770   -3.1630   -2.1820 O   0  0  0  0  0  0  0  0  0  0  0  0
   -4.7080    0.1930   -0.0160 C   0  0  0  0  0  0  0  0  0  0  0  0
   -3.6000    1.1740    0.1210 C   0  0  2  0  0  0  0  0  0  0  0  0
   -2.9720    0.9630    1.5050 C   0  0  0  0  0  0  0  0  0  0  0  0
   -4.0970    1.5160    2.3880 C   0  0  0  0  0  0  0  0  0  0  0  0
   -4.6840    2.6520    1.5820 C   0  0  0  0  0  0  0  0  0  0  0  0
   -4.0520    2.5920    0.2140 C   0  0  2  0  0  0  0  0  0  0  0  0
   -5.0200    3.0140   -0.8390 C   0  0  0  0  0  0  0  0  0  0  0  0
   -2.4790    0.9860   -0.8860 C   0  0  0  0  0  0  0  0  0  0  0  0
  1  2  1  0
  2  3  1  0
  3  4  1  6
  3  5  1  0
  3  7  1  0
  5  6  1  0
  7  8  1  0
  8  9  1  6
  8 10  1  0
 10 11  1  6
 10 12  1  0
 12 13  1  0
 13 14  2  3
 14 15  1  0
 14 16  1  0
 16 17  2  0
 16 31  1  0
 17 18  1  0
 17 22  1  0
 18 19  1  1
 18 24  1  0
 19 20  1  0
 20 21  1  0
 21 22  1  0
 22 23  1  6
 25 24  1  6
 25 26  1  0
 25 29  1  0
 25 31  1  0
 26 27  1  0
 27 28  1  0
 28 29  1  0
 29 30  1  6
M  END
