
     RDKit          3D

 31 33  0  0  0  0  0  0  0  0999 V2000
    8.2630   -1.6050    0.2390 C   0  0  0  0  0  0  0  0  0  0  0  0
    7.3070   -0.4750    0.6480 C   0  0  2  0  0  0  0  0  0  0  0  0
    8.1480    0.7660    0.7650 C   0  0  0  0  0  0  0  0  0  0  0  0
    6.7630   -0.8620    2.0050 C   0  0  0  0  0  0  0  0  0  0  0  0
    5.3040   -1.2570    1.9240 C   0  0  0  0  0  0  0  0  0  0  0  0
    4.5400   -0.0450    1.4220 C   0  0  0  0  0  0  0  0  0  0  0  0
    4.9770    0.2880    0.0390 C   0  0  2  0  0  0  0  0  0  0  0  0
    5.2580    1.7770   -0.0240 C   0  0  0  0  0  0  0  0  0  0  0  0
    3.9180   -0.1220   -0.9510 C   0  0  0  0  0  0  0  0  0  0  0  0
    2.5920    0.5280   -0.7790 C   0  0  0  0  0  0  0  0  0  0  0  0
    1.6760   -0.0270   -1.8840 C   0  0  0  0  0  0  0  0  0  0  0  0
    0.3320    0.5870   -1.7630 C   0  0  0  0  0  0  0  0  0  0  0  0
   -0.7730   -0.1300   -1.5560 C   0  0  0  0  0  0  0  0  0  0  0  0
   -2.1050    0.4660   -1.4350 C   0  0  0  0  0  0  0  0  0  0  0  0
   -2.7750    0.1770   -0.0850 C   0  0  1  0  0  0  0  0  0  0  0  0
   -2.0320    0.6730    1.0550 C   0  0  1  0  0  0  0  0  0  0  0  0
   -1.0670    1.6680    0.7250 O   0  0  0  0  0  0  0  0  0  0  0  0
   -2.7100    1.2350    2.2470 C   0  0  0  0  0  0  0  0  0  0  0  0
   -3.6190    0.2980    2.9770 C   0  0  0  0  0  0  0  0  0  0  0  0
   -4.5010   -0.4320    2.0220 C   0  0  0  0  0  0  0  0  0  0  0  0
   -5.0230    0.5520    0.9790 C   0  0  2  0  0  0  0  0  0  0  0  0
   -6.4840    0.3280    0.8500 C   0  0  1  0  0  0  0  0  0  0  0  0
   -7.2670    1.3880    1.3770 O   0  0  0  0  0  0  0  0  0  0  0  0
   -6.9760    0.1230   -0.5450 C   0  0  0  0  0  0  0  0  0  0  0  0
   -6.1010   -0.9020   -1.1970 C   0  0  1  0  0  0  0  0  0  0  0  0
   -6.0580   -2.2180   -0.5150 C   0  0  0  0  0  0  0  0  0  0  0  0
   -6.7220   -1.1510   -2.5840 C   0  0  0  0  0  0  0  0  0  0  0  0
   -4.7350   -0.3320   -1.3720 C   0  0  0  0  0  0  0  0  0  0  0  0
   -4.2280    0.5500   -0.2660 C   0  0  2  0  0  0  0  0  0  0  0  0
   -4.2070    1.8650   -0.7990 O   0  0  0  0  0  0  0  0  0  0  0  0
    6.2460   -0.4070   -0.4020 C   0  0  0  0  0  0  0  0  0  0  0  0
  2  1  1  6
  2  3  1  0
  2  4  1  0
  2 31  1  0
  4  5  1  0
  5  6  1  0
  6  7  1  0
  7  8  1  1
  7  9  1  0
  7 31  1  0
  9 10  1  0
 10 11  1  0
 11 12  1  0
 12 13  2  3
 13 14  1  0
 15 14  1  6
 15 16  1  0
 15 29  1  0
 16 17  1  6
 16 18  1  0
 18 19  1  0
 19 20  1  0
 21 20  1  1
 21 22  1  0
 21 29  1  0
 22 23  1  6
 22 24  1  0
 24 25  1  0
 25 26  1  1
 25 27  1  0
 25 28  1  0
 28 29  1  0
 29 30  1  6
M  END
