
     RDKit          3D

 27 28  0  0  0  0  0  0  0  0999 V2000
   -2.2450    1.3230    1.6590 C   0  0  0  0  0  0  0  0  0  0  0  0
   -1.8040    1.0420    0.2060 C   0  0  1  0  0  0  0  0  0  0  0  0
   -0.9230   -0.1070    0.2830 N   0  0  0  0  0  0  0  0  0  0  0  0
    0.4720    0.1900    0.3680 C   0  0  2  0  0  0  0  0  0  0  0  0
    0.9620   -0.4370    1.6580 C   0  0  0  0  0  0  0  0  0  0  0  0
    0.8240   -1.9160    1.6310 C   0  0  0  0  0  0  0  0  0  0  0  0
   -0.2160   -2.4840    1.9590 O   0  0  0  0  0  0  0  0  0  0  0  0
    1.9350   -2.6770    1.2130 N   0  0  0  0  0  0  0  0  0  0  0  0
    3.2010   -2.0910    0.8200 C   0  0  0  0  0  0  0  0  0  0  0  0
    3.7700   -3.0360   -0.2480 C   0  0  0  0  0  0  0  0  0  0  0  0
    4.1340   -4.2400    0.3190 O   0  0  0  0  0  0  0  0  0  0  0  0
    3.2200   -4.7640    1.2000 C   0  0  0  0  0  0  0  0  0  0  0  0
    1.8620   -4.1310    1.1520 C   0  0  0  0  0  0  0  0  0  0  0  0
    0.8820    1.5640    0.1270 C   0  0  0  0  0  0  0  0  0  0  0  0
    1.2220    2.4170    1.0470 C   0  0  0  0  0  0  0  0  0  0  0  0
    1.3180    2.3830    2.4650 C   0  0  0  0  0  0  0  0  0  0  0  0
    1.7160    3.4680    3.0610 O   0  0  0  0  0  0  0  0  0  0  0  0
    0.8270    2.1010   -1.2810 C   0  0  0  0  0  0  0  0  0  0  0  0
    0.5210    1.3020   -2.2580 C   0  0  0  0  0  0  0  0  0  0  0  0
    0.3850    1.5000   -3.6930 C   0  0  0  0  0  0  0  0  0  0  0  0
    0.6600    3.1930   -4.1740 S   0  0  0  0  0  0  0  0  0  0  0  0
    1.0520    4.0840   -2.7070 C   0  0  0  0  0  0  0  0  0  0  0  0
    1.0940    3.5030   -1.5030 C   0  0  0  0  0  0  0  0  0  0  0  0
   -3.0900    0.6100   -0.4820 C   0  0  1  0  0  0  0  0  0  0  0  0
   -4.1340    1.7050   -0.4140 C   0  0  0  0  0  0  0  0  0  0  0  0
   -2.9070    0.2200   -1.9070 C   0  0  0  0  0  0  0  0  0  0  0  0
   -3.6420   -0.5860    0.2730 C   0  0  0  0  0  0  0  0  0  0  0  0
  2  1  1  1
  2  3  1  0
  2 24  1  0
  3  4  1  0
  4  5  1  1
  4 14  1  0
  5  6  1  0
  6  7  2  0
  6  8  1  0
  8  9  1  0
  8 13  1  0
  9 10  1  0
 10 11  1  0
 11 12  1  0
 12 13  1  0
 14 15  2  3
 14 18  1  0
 15 16  1  0
 16 17  2  0
 18 19  2  0
 18 23  1  0
 19 20  1  0
 20 21  1  0
 21 22  1  0
 22 23  2  0
 24 25  1  6
 24 26  1  0
 24 27  1  0
M  CHG  1   3   1
M  END
