
     RDKit          3D

 11 10  0  0  0  0  0  0  0  0999 V2000
    3.6660   -1.3370    0.2130 C   0  0  0  0  0  0  0  0  0  0  0  0
    3.5450   -0.0470    0.0930 C   0  0  0  0  0  0  0  0  0  0  0  0
    4.7210    0.7260    0.0020 O   0  0  0  0  0  0  0  0  0  0  0  0
    2.2820    0.7020    0.0410 C   0  0  0  0  0  0  0  0  0  0  0  0
    1.1390   -0.0940    0.1340 O   0  0  0  0  0  0  0  0  0  0  0  0
   -0.1050    0.5180    0.0950 C   0  0  0  0  0  0  0  0  0  0  0  0
   -0.1590    1.7690   -0.0230 O   0  0  0  0  0  0  0  0  0  0  0  0
   -1.3240   -0.2430    0.1850 N   0  0  0  0  0  0  0  0  0  0  0  0
   -2.6060    0.4340    0.1410 C   0  0  0  0  0  0  0  0  0  0  0  0
   -3.6740   -0.6160    0.2570 C   0  0  0  0  0  0  0  0  0  0  0  0
   -4.9590   -0.0670    0.2240 O   0  0  0  0  0  0  0  0  0  0  0  0
  1  2  2  0
  2  3  1  0
  2  4  1  0
  4  5  1  0
  5  6  1  0
  6  7  2  0
  6  8  1  0
  8  9  1  0
  9 10  1  0
 10 11  1  0
M  END
