
     RDKit          3D

 19 20  0  0  0  0  0  0  0  0999 V2000
   -3.8940    0.3480    0.4500 C   0  0  0  0  0  0  0  0  0  0  0  0
   -2.4360    0.5950    0.2460 C   0  0  0  0  0  0  0  0  0  0  0  0
   -1.8890    1.8590    0.2980 C   0  0  0  0  0  0  0  0  0  0  0  0
   -0.5170    2.0490    0.1020 C   0  0  0  0  0  0  0  0  0  0  0  0
    0.3280    0.9970   -0.1480 C   0  0  0  0  0  0  0  0  0  0  0  0
   -0.2100   -0.2690   -0.2020 C   0  0  0  0  0  0  0  0  0  0  0  0
   -1.5790   -0.4570   -0.0060 C   0  0  0  0  0  0  0  0  0  0  0  0
   -2.1020   -1.7610   -0.0660 N   0  0  0  0  0  0  0  0  0  0  0  0
   -1.9340   -2.6160    0.8230 O   0  0  0  0  0  0  0  0  0  0  0  0
   -2.8480   -2.1490   -1.1590 O   0  0  0  0  0  0  0  0  0  0  0  0
    0.6890   -1.3770   -0.4660 C   0  0  0  0  0  0  0  0  0  0  0  0
    0.1930   -2.4750   -0.8150 O   0  0  0  0  0  0  0  0  0  0  0  0
    2.1770   -1.2760   -0.3420 C   0  0  0  0  0  0  0  0  0  0  0  0
    2.5940    0.0840    0.0970 C   0  0  1  0  0  0  0  0  0  0  0  0
    4.0030    0.4530   -0.2480 C   0  0  2  0  0  0  0  0  0  0  0  0
    4.2780    1.7350    0.2060 F   0  0  0  0  0  0  0  0  0  0  0  0
    4.2640    0.4170   -1.5880 F   0  0  0  0  0  0  0  0  0  0  0  0
    4.8730   -0.3850    0.4500 F   0  0  0  0  0  0  0  0  0  0  0  0
    1.7030    1.1180   -0.3510 O   0  0  0  0  0  0  0  0  0  0  0  0
  1  2  1  0
  2  3  2  0
  2  7  1  0
  3  4  1  0
  4  5  2  0
  5  6  1  0
  5 19  1  0
  6  7  2  0
  6 11  1  0
  7  8  1  0
  8  9  2  0
  8 10  1  0
 11 12  2  0
 11 13  1  0
 14 13  1  6
 14 15  1  0
 14 19  1  0
 15 16  1  1
 15 17  1  0
 15 18  1  0
M  CHG  2   8   1  10  -1
M  END
