
     RDKit          3D

 27 27  0  0  0  0  0  0  0  0999 V2000
    4.1660    2.3390    0.5890 C   0  0  0  0  0  0  0  0  0  0  0  0
    4.1240    1.8900   -0.6490 C   0  0  0  0  0  0  0  0  0  0  0  0
    3.6490    0.5940   -1.0410 C   0  0  0  0  0  0  0  0  0  0  0  0
    3.6980    0.2770   -2.3450 C   0  0  0  0  0  0  0  0  0  0  0  0
    3.1690   -0.4090   -0.1230 C   0  0  0  0  0  0  0  0  0  0  0  0
    1.7130   -0.4210    0.1770 C   0  0  0  0  0  0  0  0  0  0  0  0
    0.9730   -1.5180   -0.0870 C   0  0  0  0  0  0  0  0  0  0  0  0
   -0.4500   -1.7080    0.1390 C   0  0  0  0  0  0  0  0  0  0  0  0
   -0.7970   -2.8310    0.7530 C   0  0  0  0  0  0  0  0  0  0  0  0
   -2.1690   -3.1720    1.0500 C   0  0  0  0  0  0  0  0  0  0  0  0
   -2.4490   -4.3100    1.6720 C   0  0  0  0  0  0  0  0  0  0  0  0
   -1.3240   -5.2010    2.0430 C   0  0  0  0  0  0  0  0  0  0  0  0
   -1.5040   -0.7880   -0.2450 C   0  0  0  0  0  0  0  0  0  0  0  0
   -2.3980   -0.4250    0.5760 O   0  0  0  0  0  0  0  0  0  0  0  0
   -1.7150   -0.1440   -1.5810 C   0  0  2  0  0  0  0  0  0  0  0  0
   -0.4640    0.2590   -2.2860 C   0  0  0  0  0  0  0  0  0  0  0  0
   -2.7390    0.8710   -1.5530 N   0  0  0  0  0  0  0  0  0  0  0  0
   -3.6990    0.8480   -2.6590 C   0  0  0  0  0  0  0  0  0  0  0  0
   -2.9330    1.8720   -0.5870 C   0  0  0  0  0  0  0  0  0  0  0  0
   -4.1090    2.0240   -0.0840 O   0  0  0  0  0  0  0  0  0  0  0  0
   -1.9340    2.8200   -0.0400 C   0  0  0  0  0  0  0  0  0  0  0  0
   -1.7330    2.6260    1.7330 S   0  0  0  0  0  0  0  0  0  0  0  0
   -0.1130    3.0490    2.3590 C   0  0  0  0  0  0  0  0  0  0  0  0
    0.5630    1.8480    2.9630 C   0  0  0  0  0  0  0  0  0  0  0  0
    0.4200    1.6700    4.1990 O   0  0  0  0  0  0  0  0  0  0  0  0
    1.3270    0.9540    2.1750 N   0  0  0  0  0  0  0  0  0  0  0  0
    1.1280    0.7950    0.7540 C   0  0  0  0  0  0  0  0  0  0  0  0
  1  2  2  0
  2  3  1  0
  3  4  2  0
  3  5  1  0
  5  6  1  0
  6  7  2  0
  6 27  1  0
  7  8  1  0
  8  9  2  3
  8 13  1  0
  9 10  1  0
 10 11  2  3
 11 12  1  0
 13 14  2  0
 13 15  1  0
 15 16  1  1
 15 17  1  0
 17 18  1  0
 17 19  1  0
 19 20  2  0
 19 21  1  0
 21 22  1  0
 22 23  1  0
 23 24  1  0
 24 25  2  0
 24 26  1  0
 26 27  1  0
M  END
