
     RDKit          3D

 37 40  0  0  0  0  0  0  0  0999 V2000
    4.8260    2.3820    2.7630 C   0  0  0  0  0  0  0  0  0  0  0  0
    4.4170    2.0760    1.3200 C   0  0  2  0  0  0  0  0  0  0  0  0
    2.7080    1.5720    1.1650 S   0  0  0  0  0  0  0  0  0  0  0  0
    2.4050   -0.0270    1.8400 C   0  0  0  0  0  0  0  0  0  0  0  0
    1.1550   -0.4400    1.9290 C   0  0  0  0  0  0  0  0  0  0  0  0
    0.0800    0.4240    1.4760 C   0  0  0  0  0  0  0  0  0  0  0  0
   -0.0420    1.7470    1.7940 C   0  0  0  0  0  0  0  0  0  0  0  0
   -1.0890    2.5060    1.3070 C   0  0  0  0  0  0  0  0  0  0  0  0
   -2.0200    1.9620    0.5040 N   0  0  0  0  0  0  0  0  0  0  0  0
   -1.9360    0.6640    0.1680 C   0  0  0  0  0  0  0  0  0  0  0  0
   -2.9010    0.0290   -0.6710 N   0  0  0  0  0  0  0  0  0  0  0  0
   -2.7510   -1.3680   -1.0730 C   0  0  0  0  0  0  0  0  0  0  0  0
   -3.7620   -1.6450   -2.1430 C   0  0  0  0  0  0  0  0  0  0  0  0
   -5.0750   -1.4580   -1.7130 O   0  0  0  0  0  0  0  0  0  0  0  0
   -5.2380   -0.3180   -0.9730 C   0  0  2  0  0  0  0  0  0  0  0  0
   -6.5470    0.3320   -1.3560 C   0  0  0  0  0  0  0  0  0  0  0  0
   -7.6390   -0.5820   -1.0860 N   0  0  0  0  0  0  0  0  0  0  0  0
   -9.1810    0.0910   -1.4920 S   0  0  0  0  0  0  0  0  0  0  0  0
  -10.1010    0.2560    0.0020 N   0  0  0  0  0  0  0  0  0  0  0  0
   -9.9240   -0.8850   -2.3850 O   0  0  0  0  0  0  0  0  0  0  0  0
   -4.0910    0.6850   -1.1780 C   0  0  0  0  0  0  0  0  0  0  0  0
   -0.9070   -0.1180    0.6350 C   0  0  0  0  0  0  0  0  0  0  0  0
    0.8710   -1.7250    2.4760 N   0  0  0  0  0  0  0  0  0  0  0  0
    1.8820   -2.5750    2.9290 N   0  0  0  0  0  0  0  0  0  0  0  0
    3.2290   -2.1440    2.8400 C   0  0  0  0  0  0  0  0  0  0  0  0
    4.1900   -2.8880    3.2420 O   0  0  0  0  0  0  0  0  0  0  0  0
    3.4870   -0.8580    2.2900 N   0  0  0  0  0  0  0  0  0  0  0  0
    5.4010    1.1880    0.7010 C   0  0  0  0  0  0  0  0  0  0  0  0
    6.4800    0.9450    1.2840 O   0  0  0  0  0  0  0  0  0  0  0  0
    5.1470    0.6020   -0.5530 N   0  0  0  0  0  0  0  0  0  0  0  0
    6.0770   -0.2860   -1.2170 C   0  0  2  0  0  0  0  0  0  0  0  0
    6.4120    0.1550   -2.6270 C   0  0  0  0  0  0  0  0  0  0  0  0
    6.5270   -1.1390   -3.3740 C   0  0  0  0  0  0  0  0  0  0  0  0
    7.0730   -1.3320   -4.4930 O   0  0  0  0  0  0  0  0  0  0  0  0
    5.8910   -2.1550   -2.5780 N   0  0  0  0  0  0  0  0  0  0  0  0
    5.3810   -1.5850   -1.3950 C   0  0  0  0  0  0  0  0  0  0  0  0
    4.5220   -2.0710   -0.6470 O   0  0  0  0  0  0  0  0  0  0  0  0
  2  1  1  1
  2  3  1  0
  2 28  1  0
  3  4  1  0
  4  5  2  0
  4 27  1  0
  5  6  1  0
  5 23  1  0
  6  7  2  0
  6 22  1  0
  7  8  1  0
  8  9  2  0
  9 10  1  0
 10 11  1  0
 10 22  2  0
 11 12  1  0
 11 21  1  0
 12 13  1  0
 13 14  1  0
 14 15  1  0
 15 16  1  6
 15 21  1  0
 16 17  1  0
 17 18  1  0
 18 19  1  1
 18 20  2  0
 23 24  1  0
 24 25  1  0
 25 26  2  0
 25 27  1  0
 28 29  2  0
 28 30  1  0
 31 30  1  6
 31 32  1  0
 31 36  1  0
 32 33  1  0
 33 34  2  0
 33 35  1  0
 35 36  1  0
 36 37  2  0
M  CHG  1   9   1
M  END
