
     RDKit          3D

 36 40  0  0  0  0  0  0  0  0999 V2000
    6.0630   -2.1470    0.3770 C   0  0  0  0  0  0  0  0  0  0  0  0
    6.3050   -0.9900    0.8960 C   0  0  0  0  0  0  0  0  0  0  0  0
    7.7350   -0.5540    1.1540 C   0  0  0  0  0  0  0  0  0  0  0  0
    7.8160   -0.0180    2.4390 O   0  0  0  0  0  0  0  0  0  0  0  0
    6.9250    0.9690    2.7280 C   0  0  0  0  0  0  0  0  0  0  0  0
    5.5890    0.8710    2.1440 C   0  0  0  0  0  0  0  0  0  0  0  0
    5.2570   -0.0500    1.2660 C   0  0  0  0  0  0  0  0  0  0  0  0
    3.9300   -0.1180    0.6990 C   0  0  0  0  0  0  0  0  0  0  0  0
    3.4380   -0.9580   -0.2120 N   0  0  0  0  0  0  0  0  0  0  0  0
    2.1530   -0.6760   -0.4610 C   0  0  0  0  0  0  0  0  0  0  0  0
    1.2310   -1.3660   -1.3980 C   0  0  0  0  0  0  0  0  0  0  0  0
    0.0230   -0.6790   -1.5710 O   0  0  0  0  0  0  0  0  0  0  0  0
   -0.0560    0.5890   -2.0750 C   0  0  0  0  0  0  0  0  0  0  0  0
    1.0800    1.2890   -2.4610 C   0  0  0  0  0  0  0  0  0  0  0  0
    0.9750    2.5580   -2.9630 C   0  0  0  0  0  0  0  0  0  0  0  0
   -0.2460    3.1550   -3.0930 C   0  0  0  0  0  0  0  0  0  0  0  0
   -1.3570    2.4520   -2.7080 C   0  0  0  0  0  0  0  0  0  0  0  0
   -1.3170    1.1730   -2.1960 C   0  0  0  0  0  0  0  0  0  0  0  0
   -2.4800    0.4300   -1.7900 C   0  0  0  0  0  0  0  0  0  0  0  0
   -3.1110   -0.3610   -2.7270 C   0  0  0  0  0  0  0  0  0  0  0  0
   -2.6370   -0.4480   -4.0560 N   0  0  0  0  0  0  0  0  0  0  0  0
   -4.1850   -1.0710   -2.4180 O   0  0  0  0  0  0  0  0  0  0  0  0
   -4.6910   -1.0490   -1.2100 C   0  0  0  0  0  0  0  0  0  0  0  0
   -6.0320   -1.9490   -0.8660 S   0  0  0  0  0  0  0  0  0  0  0  0
   -4.1230   -0.3020   -0.2630 N   0  0  0  0  0  0  0  0  0  0  0  0
   -4.6790   -0.2840    1.0490 C   0  0  0  0  0  0  0  0  0  0  0  0
   -3.9650    0.1620    2.0810 N   0  0  0  0  0  0  0  0  0  0  0  0
   -4.4730    0.1860    3.3170 C   0  0  0  0  0  0  0  0  0  0  0  0
   -5.7700   -0.2660    3.5170 C   0  0  0  0  0  0  0  0  0  0  0  0
   -6.5070   -0.7260    2.4480 C   0  0  0  0  0  0  0  0  0  0  0  0
   -7.8960   -1.2030    2.6970 C   0  0  0  0  0  0  0  0  0  0  0  0
   -5.9450   -0.7250    1.2390 N   0  0  0  0  0  0  0  0  0  0  0  0
   -3.0380    0.4290   -0.5300 C   0  0  0  0  0  0  0  0  0  0  0  0
   -2.4930    1.1380    0.3540 O   0  0  0  0  0  0  0  0  0  0  0  0
    1.8720    0.3720    0.3330 N   0  0  0  0  0  0  0  0  0  0  0  0
    2.9210    0.6970    1.0140 O   0  0  0  0  0  0  0  0  0  0  0  0
  1  2  2  0
  2  3  1  0
  2  7  1  0
  3  4  1  0
  4  5  1  0
  5  6  1  0
  6  7  2  0
  7  8  1  0
  8  9  2  0
  8 36  1  0
  9 10  1  0
 10 11  1  0
 10 35  2  0
 11 12  1  0
 12 13  1  0
 13 14  2  0
 13 18  1  0
 14 15  1  0
 15 16  2  0
 16 17  1  0
 17 18  2  0
 18 19  1  0
 19 20  2  0
 19 33  1  0
 20 21  1  0
 20 22  1  0
 22 23  1  0
 23 24  2  0
 23 25  1  0
 25 26  1  0
 25 33  1  0
 26 27  2  0
 26 32  1  0
 27 28  1  0
 28 29  2  0
 29 30  1  0
 30 31  1  0
 30 32  2  0
 33 34  2  0
 35 36  1  0
M  END
