
     RDKit          3D

 37 41  0  0  0  0  0  0  0  0999 V2000
   -0.6980   -1.3100    4.6460 C   0  0  0  0  0  0  0  0  0  0  0  0
    0.1050   -1.3160    3.3850 C   0  0  0  0  0  0  0  0  0  0  0  0
    1.2940   -2.0090    3.3430 C   0  0  0  0  0  0  0  0  0  0  0  0
    2.0430   -2.0260    2.1950 C   0  0  0  0  0  0  0  0  0  0  0  0
    1.5640   -1.3200    1.0830 C   0  0  0  0  0  0  0  0  0  0  0  0
    2.4650   -1.2490   -0.1090 C   0  0  0  0  0  0  0  0  0  0  0  0
    2.0280   -1.2320   -1.2530 O   0  0  0  0  0  0  0  0  0  0  0  0
    3.8610   -1.1930    0.1350 N   0  0  0  0  0  0  0  0  0  0  0  0
    4.8890   -1.0950   -0.8170 C   0  0  0  0  0  0  0  0  0  0  0  0
    6.1920   -1.3420   -0.3550 C   0  0  0  0  0  0  0  0  0  0  0  0
    7.3070   -1.2290   -1.1640 C   0  0  0  0  0  0  0  0  0  0  0  0
    7.1130   -0.8580   -2.4660 C   0  0  0  0  0  0  0  0  0  0  0  0
    5.8360   -0.6100   -2.9470 C   0  0  0  0  0  0  0  0  0  0  0  0
    5.6380   -0.1690   -4.3780 C   0  0  2  0  0  0  0  0  0  0  0  0
    4.3090   -0.0930   -4.6500 F   0  0  0  0  0  0  0  0  0  0  0  0
    6.3120   -1.0310   -5.2030 F   0  0  0  0  0  0  0  0  0  0  0  0
    6.1800    1.1170   -4.4780 F   0  0  0  0  0  0  0  0  0  0  0  0
    4.7420   -0.7280   -2.1320 C   0  0  0  0  0  0  0  0  0  0  0  0
    0.3800   -0.6450    1.1630 C   0  0  0  0  0  0  0  0  0  0  0  0
   -0.4020   -0.6110    2.3220 C   0  0  0  0  0  0  0  0  0  0  0  0
   -1.5370    0.1790    2.4590 N   0  0  0  0  0  0  0  0  0  0  0  0
   -2.4130    0.7510    1.5440 C   0  0  0  0  0  0  0  0  0  0  0  0
   -2.4270    0.3800    0.2490 N   0  0  0  0  0  0  0  0  0  0  0  0
   -3.3700    0.8890   -0.5650 C   0  0  0  0  0  0  0  0  0  0  0  0
   -3.5000    0.4080   -1.9280 C   0  0  0  0  0  0  0  0  0  0  0  0
   -4.2150    1.0170   -2.8760 C   0  0  0  0  0  0  0  0  0  0  0  0
   -4.4230    0.5290   -4.1760 C   0  0  0  0  0  0  0  0  0  0  0  0
   -3.8320   -0.7040   -4.5040 C   0  0  0  0  0  0  0  0  0  0  0  0
   -3.1240   -1.2940   -3.5420 N   0  0  0  0  0  0  0  0  0  0  0  0
   -2.9180   -0.8410   -2.3070 C   0  0  0  0  0  0  0  0  0  0  0  0
   -4.2950    1.7770   -0.0750 N   0  0  0  0  0  0  0  0  0  0  0  0
   -4.3150    2.1720    1.1960 C   0  0  0  0  0  0  0  0  0  0  0  0
   -3.3560    1.6470    2.0200 C   0  0  0  0  0  0  0  0  0  0  0  0
   -3.5740    2.2170    3.2790 C   0  0  0  0  0  0  0  0  0  0  0  0
   -4.6260    3.0400    3.1870 N   0  0  0  0  0  0  0  0  0  0  0  0
   -5.0810    3.0130    1.9080 N   0  0  0  0  0  0  0  0  0  0  0  0
   -6.2140    3.7830    1.4510 C   0  0  0  0  0  0  0  0  0  0  0  0
  1  2  1  0
  2  3  2  0
  2 20  1  0
  3  4  1  0
  4  5  2  0
  5  6  1  0
  5 19  1  0
  6  7  2  0
  6  8  1  0
  8  9  1  0
  9 10  2  0
  9 18  1  0
 10 11  1  0
 11 12  2  0
 12 13  1  0
 13 14  1  0
 13 18  2  0
 14 15  1  6
 14 16  1  0
 14 17  1  0
 19 20  2  0
 20 21  1  0
 21 22  1  0
 22 23  2  0
 22 33  1  0
 23 24  1  0
 24 25  1  0
 24 31  2  0
 25 26  2  0
 25 30  1  0
 26 27  1  0
 27 28  2  0
 28 29  1  0
 29 30  2  0
 31 32  1  0
 32 33  2  0
 32 36  1  0
 33 34  1  0
 34 35  2  0
 35 36  1  0
 36 37  1  0
M  END
