
     RDKit          3D

 35 39  0  0  0  0  0  0  0  0999 V2000
    2.1140    7.1430    0.2540 C   0  0  0  0  0  0  0  0  0  0  0  0
    1.9000    6.2010   -0.8210 N   0  0  0  0  0  0  0  0  0  0  0  0
    1.4650    4.8710   -0.5360 C   0  0  0  0  0  0  0  0  0  0  0  0
    1.2400    4.4450    0.7100 N   0  0  0  0  0  0  0  0  0  0  0  0
    0.8330    3.1940    0.9560 C   0  0  0  0  0  0  0  0  0  0  0  0
    0.6150    2.2460   -0.0730 C   0  0  0  0  0  0  0  0  0  0  0  0
    0.2120    0.9200    0.2400 C   0  0  0  0  0  0  0  0  0  0  0  0
   -0.0170    0.7620    1.5460 O   0  0  0  0  0  0  0  0  0  0  0  0
   -0.0060   -0.2550   -0.4500 N   0  0  0  0  0  0  0  0  0  0  0  0
    0.1910   -0.5250   -1.8430 C   0  0  0  0  0  0  0  0  0  0  0  0
    1.5220   -1.0890   -2.2140 C   0  0  1  0  0  0  0  0  0  0  0  0
    2.6830   -0.1810   -2.0760 C   0  0  0  0  0  0  0  0  0  0  0  0
    3.1950   -0.1630   -0.7470 O   0  0  0  0  0  0  0  0  0  0  0  0
    3.4190   -1.3890   -0.1290 C   0  0  0  0  0  0  0  0  0  0  0  0
    4.3440   -1.5360    0.8850 C   0  0  0  0  0  0  0  0  0  0  0  0
    4.5770   -2.7500    1.5070 C   0  0  0  0  0  0  0  0  0  0  0  0
    3.8450   -3.8390    1.0840 C   0  0  0  0  0  0  0  0  0  0  0  0
    2.9200   -3.7080    0.0760 C   0  0  0  0  0  0  0  0  0  0  0  0
    2.6930   -2.4730   -0.5490 C   0  0  0  0  0  0  0  0  0  0  0  0
    1.7660   -2.3420   -1.5590 O   0  0  0  0  0  0  0  0  0  0  0  0
   -0.5610   -1.4140    0.3150 C   0  0  1  0  0  0  0  0  0  0  0  0
    0.1680   -1.7180    1.5510 C   0  0  0  0  0  0  0  0  0  0  0  0
   -2.0270   -1.1200    0.5840 C   0  0  0  0  0  0  0  0  0  0  0  0
   -3.0590   -1.8520    0.5180 N   0  0  0  0  0  0  0  0  0  0  0  0
   -4.2650   -1.4800    0.7650 C   0  0  0  0  0  0  0  0  0  0  0  0
   -5.4410   -2.3720    0.6750 C   0  0  0  0  0  0  0  0  0  0  0  0
   -6.7370   -1.9840    0.9380 C   0  0  0  0  0  0  0  0  0  0  0  0
   -7.5390   -3.0920    0.7440 C   0  0  0  0  0  0  0  0  0  0  0  0
   -6.6890   -4.1070    0.3710 C   0  0  0  0  0  0  0  0  0  0  0  0
   -5.4510   -3.6420    0.3400 O   0  0  0  0  0  0  0  0  0  0  0  0
   -4.3920   -0.0950    1.1470 C   0  0  0  0  0  0  0  0  0  0  0  0
   -2.7170    0.4230    1.0770 S   0  0  0  0  0  0  0  0  0  0  0  0
    0.8460    2.7000   -1.3070 N   0  0  0  0  0  0  0  0  0  0  0  0
    1.2650    3.9850   -1.5520 C   0  0  0  0  0  0  0  0  0  0  0  0
    1.4590    4.3230   -2.7580 O   0  0  0  0  0  0  0  0  0  0  0  0
  1  2  1  0
  2  3  1  0
  3  4  2  0
  3 34  1  0
  4  5  1  0
  5  6  2  0
  6  7  1  0
  6 33  1  0
  7  8  2  0
  7  9  1  0
  9 10  1  0
  9 21  1  0
 11 10  1  1
 11 12  1  0
 11 20  1  0
 12 13  1  0
 13 14  1  0
 14 15  2  0
 14 19  1  0
 15 16  1  0
 16 17  2  0
 17 18  1  0
 18 19  2  0
 19 20  1  0
 21 22  1  1
 21 23  1  0
 23 24  2  0
 23 32  1  0
 24 25  1  0
 25 26  1  0
 25 31  2  0
 26 27  2  0
 26 30  1  0
 27 28  1  0
 28 29  2  0
 29 30  1  0
 31 32  1  0
 33 34  1  0
 34 35  2  0
M  END
