
     RDKit          3D

 37 39  0  0  0  0  0  0  0  0999 V2000
   -2.3140    2.9800    1.2350 C   0  0  0  0  0  0  0  0  0  0  0  0
   -3.2090    2.0940    0.9110 N   0  0  0  0  0  0  0  0  0  0  0  0
   -3.4420    1.8000   -0.4350 O   0  0  0  0  0  0  0  0  0  0  0  0
   -4.5660    0.9960   -0.7290 C   0  0  2  0  0  0  0  0  0  0  0  0
   -4.0090   -0.2880   -1.3690 C   0  0  1  0  0  0  0  0  0  0  0  0
   -3.4720   -1.1110   -0.3640 N   0  0  1  0  0  0  0  0  0  0  0  0
   -4.0430   -2.3780   -0.0980 C   0  0  0  0  0  0  0  0  0  0  0  0
   -2.9370   -3.3050    0.4490 C   0  0  0  0  0  0  0  0  0  0  0  0
   -2.1100   -2.5730    1.4990 C   0  0  0  0  0  0  0  0  0  0  0  0
   -1.4770   -1.3550    0.9290 C   0  0  1  0  0  0  0  0  0  0  0  0
   -0.0210   -1.5350    0.8570 N   0  0  0  0  0  0  0  0  0  0  0  0
    0.8450   -0.4430    0.9690 C   0  0  0  0  0  0  0  0  0  0  0  0
    0.2260    0.7020    1.0580 O   0  0  0  0  0  0  0  0  0  0  0  0
    2.3080   -0.4380    1.0190 C   0  0  0  0  0  0  0  0  0  0  0  0
    2.8020    0.9110    1.0170 N   0  0  0  0  0  0  0  0  0  0  0  0
    4.0280    1.4470    1.3200 C   0  0  0  0  0  0  0  0  0  0  0  0
    4.9580    0.7330    1.7050 O   0  0  0  0  0  0  0  0  0  0  0  0
    4.2730    2.9520    1.1840 C   0  0  0  0  0  0  0  0  0  0  0  0
    5.9250    3.3480    1.7360 S   0  0  0  0  0  0  0  0  0  0  0  0
    7.1570    2.5430    0.7230 C   0  0  0  0  0  0  0  0  0  0  0  0
    7.0980    3.0220   -0.6230 N   0  0  0  0  0  0  0  0  0  0  0  0
    8.0280    2.5150   -1.6040 C   0  0  0  0  0  0  0  0  0  0  0  0
    7.9890    2.9550   -2.9180 N   0  0  0  0  0  0  0  0  0  0  0  0
    8.8550    1.6560   -1.1540 O   0  0  0  0  0  0  0  0  0  0  0  0
    3.0530   -1.4730    1.3240 C   0  0  0  0  0  0  0  0  0  0  0  0
    4.4820   -1.3900    1.3160 N   0  0  0  0  0  0  0  0  0  0  0  0
    5.2060   -2.3460    1.7020 C   0  0  0  0  0  0  0  0  0  0  0  0
    4.6590   -3.5890    2.1800 N   0  0  0  0  0  0  0  0  0  0  0  0
    3.4030   -3.7510    2.2250 C   0  0  0  0  0  0  0  0  0  0  0  0
    2.5350   -2.6910    1.7960 N   0  0  0  0  0  0  0  0  0  0  0  0
   -1.9980   -1.2060   -0.4960 C   0  0  0  0  0  0  0  0  0  0  0  0
   -4.9960   -0.8870   -2.3210 C   0  0  0  0  0  0  0  0  0  0  0  0
   -6.4370   -0.6640   -1.8670 C   0  0  0  0  0  0  0  0  0  0  0  0
   -6.8660    0.7040   -2.3900 C   0  0  0  0  0  0  0  0  0  0  0  0
   -5.5190    1.8210   -1.9740 S   0  0  2  0  0  0  0  0  0  0  0  0
   -4.6250    2.0240   -3.1640 O   0  0  0  0  0  0  0  0  0  0  0  0
   -6.0180    3.1460   -1.4920 O   0  0  0  0  0  0  0  0  0  0  0  0
  1  2  2  0
  2  3  1  0
  4  3  1  6
  4  5  1  0
  4 35  1  0
  5  6  1  0
  5 32  1  1
  6  7  1  6
  6 31  1  0
  7  8  1  0
  8  9  1  0
  9 10  1  0
 10 11  1  6
 10 31  1  0
 11 12  1  0
 12 13  2  0
 12 14  1  0
 14 15  1  0
 14 25  2  3
 15 16  1  0
 16 17  2  0
 16 18  1  0
 18 19  1  0
 19 20  1  0
 20 21  1  0
 21 22  1  0
 22 23  1  0
 22 24  2  0
 25 26  1  0
 25 30  1  0
 26 27  2  0
 27 28  1  0
 28 29  2  0
 29 30  1  0
 32 33  1  0
 33 34  1  0
 35 34  1  6
 35 36  2  0
 35 37  2  0
M  CHG  1   6   1
M  END
