
     RDKit          3D

 37 41  0  0  0  0  0  0  0  0999 V2000
    7.6500    2.7980   -0.6810 C   0  0  0  0  0  0  0  0  0  0  0  0
    6.7830    2.0870   -1.6780 C   0  0  0  0  0  0  0  0  0  0  0  0
    5.5400    1.6900   -1.0020 N   0  0  0  0  0  0  0  0  0  0  0  0
    4.4610    2.6150   -1.0300 C   0  0  0  0  0  0  0  0  0  0  0  0
    4.5600    3.8420   -1.1960 O   0  0  0  0  0  0  0  0  0  0  0  0
    3.0940    2.0270   -0.8390 C   0  0  0  0  0  0  0  0  0  0  0  0
    3.1410    1.0480    0.2970 C   0  0  1  0  0  0  0  0  0  0  0  0
    1.8300    0.5330    0.6530 C   0  0  0  0  0  0  0  0  0  0  0  0
    0.8640    0.5140   -0.2400 C   0  0  0  0  0  0  0  0  0  0  0  0
   -0.5120    0.0140    0.0230 C   0  0  0  0  0  0  0  0  0  0  0  0
   -1.3250   -0.1820   -0.9930 C   0  0  0  0  0  0  0  0  0  0  0  0
   -0.6440    0.1260   -2.6410 S   0  0  0  0  0  0  0  0  0  0  0  0
   -1.6230   -0.9350   -3.6900 C   0  0  0  0  0  0  0  0  0  0  0  0
   -2.7390   -1.4590   -3.2620 C   0  0  0  0  0  0  0  0  0  0  0  0
   -3.2740   -1.3060   -1.9230 C   0  0  0  0  0  0  0  0  0  0  0  0
   -2.6710   -0.6940   -0.9130 C   0  0  0  0  0  0  0  0  0  0  0  0
   -3.4760   -0.2950    0.2430 C   0  0  0  0  0  0  0  0  0  0  0  0
   -2.9490    0.4850    1.1480 O   0  0  0  0  0  0  0  0  0  0  0  0
   -4.8000   -0.6250    0.5730 N   0  0  0  0  0  0  0  0  0  0  0  0
   -5.7650   -1.4500   -0.0700 C   0  0  0  0  0  0  0  0  0  0  0  0
   -7.0040   -1.5310    0.8530 C   0  0  2  0  0  0  0  0  0  0  0  0
   -8.0190   -2.3410    0.0340 C   0  0  0  0  0  0  0  0  0  0  0  0
   -7.5570   -0.3080    1.1190 O   0  0  0  0  0  0  0  0  0  0  0  0
   -6.6090    0.6650    1.4150 C   0  0  1  0  0  0  0  0  0  0  0  0
   -7.1790    1.6510    2.3780 C   0  0  0  0  0  0  0  0  0  0  0  0
   -5.3510   -0.0020    1.8420 C   0  0  0  0  0  0  0  0  0  0  0  0
   -0.6990   -0.4600    1.3740 C   0  0  0  0  0  0  0  0  0  0  0  0
    0.2650   -0.4490    2.3200 C   0  0  0  0  0  0  0  0  0  0  0  0
    1.5910    0.0460    2.0290 C   0  0  0  0  0  0  0  0  0  0  0  0
    2.4950    0.0690    2.9020 O   0  0  0  0  0  0  0  0  0  0  0  0
    4.2700    0.1480    0.2690 C   0  0  0  0  0  0  0  0  0  0  0  0
    5.4280    0.4320   -0.3370 C   0  0  0  0  0  0  0  0  0  0  0  0
    6.6010   -0.4420   -0.3720 C   0  0  0  0  0  0  0  0  0  0  0  0
    6.5810   -1.6690    0.4500 C   0  0  0  0  0  0  0  0  0  0  0  0
    5.4420   -1.7640    1.4470 C   0  0  0  0  0  0  0  0  0  0  0  0
    4.2050   -1.1830    0.8430 C   0  0  0  0  0  0  0  0  0  0  0  0
    3.1730   -1.8900    0.8650 O   0  0  0  0  0  0  0  0  0  0  0  0
  1  2  1  0
  2  3  1  0
  3  4  1  0
  3 32  1  0
  4  5  2  0
  4  6  1  0
  6  7  1  0
  7  8  1  6
  7 31  1  0
  8  9  2  0
  8 29  1  0
  9 10  1  0
 10 11  2  3
 10 27  1  0
 11 12  1  0
 11 16  1  0
 12 13  1  0
 13 14  2  0
 14 15  1  0
 15 16  2  0
 16 17  1  0
 17 18  2  0
 17 19  1  0
 19 20  1  0
 19 26  1  0
 20 21  1  0
 21 22  1  6
 21 23  1  0
 23 24  1  0
 24 25  1  1
 24 26  1  0
 27 28  2  0
 28 29  1  0
 29 30  2  0
 31 32  2  0
 31 36  1  0
 32 33  1  0
 33 34  1  0
 34 35  1  0
 35 36  1  0
 36 37  2  0
M  END
