
     RDKit          3D

 37 42  0  0  0  0  0  0  0  0999 V2000
    1.7180   -3.0390    0.6640 O   0  0  0  0  0  0  0  0  0  0  0  0
    1.5840   -2.3850   -0.3930 C   0  0  0  0  0  0  0  0  0  0  0  0
    2.5200   -2.6630   -1.5120 C   0  0  0  0  0  0  0  0  0  0  0  0
    3.4650   -3.7700   -1.1550 C   0  0  0  0  0  0  0  0  0  0  0  0
    4.4650   -3.3800    0.2790 S   0  0  0  0  0  0  0  0  0  0  0  0
    5.5930   -2.0450   -0.1200 C   0  0  0  0  0  0  0  0  0  0  0  0
    6.5310   -1.7110    0.7390 C   0  0  0  0  0  0  0  0  0  0  0  0
    7.4700   -0.6450    0.4750 C   0  0  0  0  0  0  0  0  0  0  0  0
    8.4230   -0.3630    1.4460 C   0  0  0  0  0  0  0  0  0  0  0  0
    9.3420    0.6310    1.2510 C   0  0  0  0  0  0  0  0  0  0  0  0
    9.3480    1.3750    0.0920 C   0  0  0  0  0  0  0  0  0  0  0  0
    8.4270    1.1250   -0.8840 C   0  0  0  0  0  0  0  0  0  0  0  0
    7.4900    0.1030   -0.6690 C   0  0  0  0  0  0  0  0  0  0  0  0
    8.5820    1.9310   -1.9190 C   0  0  0  0  0  0  0  0  0  0  0  0
    9.7420    2.8370   -1.6210 C   0  0  0  0  0  0  0  0  0  0  0  0
   10.1510    2.3640   -0.2720 C   0  0  0  0  0  0  0  0  0  0  0  0
    0.5670   -1.4560   -0.4270 O   0  0  0  0  0  0  0  0  0  0  0  0
   -0.3100   -1.2020    0.6280 C   0  0  2  0  0  0  0  0  0  0  0  0
   -1.7330   -1.6130    0.2830 C   0  0  0  0  0  0  0  0  0  0  0  0
   -2.4950   -0.7880    1.3030 C   0  0  2  0  0  0  0  0  0  0  0  0
   -3.9290   -0.7330    1.0290 C   0  0  0  0  0  0  0  0  0  0  0  0
   -4.5680   -1.7950    0.9730 O   0  0  0  0  0  0  0  0  0  0  0  0
   -4.6130    0.4770    0.8270 N   0  0  0  0  0  0  0  0  0  0  0  0
   -6.0320    0.5770    0.7710 C   0  0  0  0  0  0  0  0  0  0  0  0
   -6.7610    0.2000    1.8760 C   0  0  0  0  0  0  0  0  0  0  0  0
   -8.1170    0.2690    1.8840 C   0  0  0  0  0  0  0  0  0  0  0  0
   -8.7960    0.7310    0.7550 C   0  0  0  0  0  0  0  0  0  0  0  0
   -8.0890    1.1130   -0.3600 C   0  0  0  0  0  0  0  0  0  0  0  0
   -6.6970    1.0290   -0.3350 C   0  0  0  0  0  0  0  0  0  0  0  0
   -8.7550    1.5720   -1.4850 O   0  0  0  0  0  0  0  0  0  0  0  0
  -10.1000    1.9850   -1.3550 C   0  0  0  0  0  0  0  0  0  0  0  0
  -10.8260    0.9820   -0.4820 C   0  0  0  0  0  0  0  0  0  0  0  0
  -10.1830    0.8080    0.7450 O   0  0  0  0  0  0  0  0  0  0  0  0
   -3.8330    1.6880    0.6680 C   0  0  0  0  0  0  0  0  0  0  0  0
   -2.3850    1.4310    0.3860 C   0  0  0  0  0  0  0  0  0  0  0  0
   -1.8300    0.4960    1.3410 N   0  0  0  0  0  0  0  0  0  0  0  0
   -0.4370    0.2290    1.0350 C   0  0  0  0  0  0  0  0  0  0  0  0
  1  2  2  0
  2  3  1  0
  2 17  1  0
  3  4  1  0
  4  5  1  0
  5  6  1  0
  6  7  2  3
  7  8  1  0
  8  9  1  0
  8 13  2  0
  9 10  2  0
 10 11  1  0
 11 12  1  0
 11 16  2  0
 12 13  1  0
 12 14  2  0
 14 15  1  0
 15 16  1  0
 18 17  1  6
 18 19  1  0
 18 37  1  0
 20 19  1  6
 20 21  1  0
 20 36  1  0
 21 22  2  0
 21 23  1  0
 23 24  1  0
 23 34  1  0
 24 25  2  0
 24 29  1  0
 25 26  1  0
 26 27  2  0
 27 28  1  0
 27 33  1  0
 28 29  2  0
 28 30  1  0
 30 31  1  0
 31 32  1  0
 32 33  1  0
 34 35  1  0
 35 36  1  0
 36 37  1  0
M  END
