
     RDKit          3D

 37 41  0  0  0  0  0  0  0  0999 V2000
   -6.1420   -3.5650    1.0080 C   0  0  0  0  0  0  0  0  0  0  0  0
   -6.0560   -2.2310    0.3530 C   0  0  0  0  0  0  0  0  0  0  0  0
   -4.7380   -1.5420    0.7670 C   0  0  0  0  0  0  0  0  0  0  0  0
   -4.7100    0.0300   -0.0450 S   0  0  0  0  0  0  0  0  0  0  0  0
   -3.2650    1.0620    0.3790 C   0  0  2  0  0  0  0  0  0  0  0  0
   -3.2220    1.5120    1.7830 C   0  0  0  0  0  0  0  0  0  0  0  0
   -4.2700    2.1960    2.2430 O   0  0  0  0  0  0  0  0  0  0  0  0
   -5.5210    1.7380    2.3100 C   0  0  0  0  0  0  0  0  0  0  0  0
   -3.3750    2.2820   -0.5050 C   0  0  0  0  0  0  0  0  0  0  0  0
   -4.0460    3.4860   -0.3820 C   0  0  0  0  0  0  0  0  0  0  0  0
   -4.1460    4.3570   -1.4560 C   0  0  0  0  0  0  0  0  0  0  0  0
   -3.5660    4.0140   -2.6700 C   0  0  0  0  0  0  0  0  0  0  0  0
   -2.8930    2.8090   -2.7830 C   0  0  0  0  0  0  0  0  0  0  0  0
   -2.8000    1.9470   -1.6840 C   0  0  0  0  0  0  0  0  0  0  0  0
   -1.9870    0.7400   -1.4930 C   0  0  0  0  0  0  0  0  0  0  0  0
   -1.3290    0.1470   -2.3790 O   0  0  0  0  0  0  0  0  0  0  0  0
   -2.1020    0.3850   -0.0840 N   0  0  0  0  0  0  0  0  0  0  0  0
   -1.0930   -0.4300    0.4880 C   0  0  0  0  0  0  0  0  0  0  0  0
   -1.3180   -1.2860    1.5050 C   0  0  0  0  0  0  0  0  0  0  0  0
   -0.3030   -2.0730    2.0800 C   0  0  0  0  0  0  0  0  0  0  0  0
    0.9910   -1.9750    1.5880 C   0  0  0  0  0  0  0  0  0  0  0  0
    1.2660   -1.1040    0.5400 C   0  0  0  0  0  0  0  0  0  0  0  0
    2.6420   -0.9810    0.1060 C   0  0  0  0  0  0  0  0  0  0  0  0
    3.6550   -1.5100    0.7840 C   0  0  0  0  0  0  0  0  0  0  0  0
    5.0580   -1.3700    0.3340 C   0  0  0  0  0  0  0  0  0  0  0  0
    5.3910   -0.7090   -0.7580 C   0  0  0  0  0  0  0  0  0  0  0  0
    4.3730   -0.0580   -1.6100 C   0  0  0  0  0  0  0  0  0  0  0  0
    2.9850   -0.3650   -1.1530 C   0  0  0  0  0  0  0  0  0  0  0  0
    2.0650   -0.0440   -1.9740 O   0  0  0  0  0  0  0  0  0  0  0  0
    6.7520   -0.5900   -1.1460 N   0  0  0  0  0  0  0  0  0  0  0  0
    7.2440    0.4090   -2.0810 C   0  0  0  0  0  0  0  0  0  0  0  0
    8.1170    1.4310   -1.3620 C   0  0  0  0  0  0  0  0  0  0  0  0
    7.7720   -1.4960   -0.5950 C   0  0  0  0  0  0  0  0  0  0  0  0
    7.4210   -1.8600    0.7350 O   0  0  0  0  0  0  0  0  0  0  0  0
    6.1110   -1.9750    1.1210 C   0  0  0  0  0  0  0  0  0  0  0  0
    5.8670   -2.6210    2.1810 O   0  0  0  0  0  0  0  0  0  0  0  0
    0.2380   -0.3640    0.0210 C   0  0  0  0  0  0  0  0  0  0  0  0
  1  2  1  0
  2  3  1  0
  3  4  1  0
  4  5  1  0
  5  6  1  1
  5  9  1  0
  5 17  1  0
  6  7  1  0
  7  8  1  0
  9 10  2  0
  9 14  1  0
 10 11  1  0
 11 12  2  0
 12 13  1  0
 13 14  2  0
 14 15  1  0
 15 16  2  0
 15 17  1  0
 17 18  1  0
 18 19  2  0
 18 37  1  0
 19 20  1  0
 20 21  2  0
 21 22  1  0
 22 23  1  0
 22 37  2  0
 23 24  2  0
 23 28  1  0
 24 25  1  0
 25 26  2  0
 25 35  1  0
 26 27  1  0
 26 30  1  0
 27 28  1  0
 28 29  2  0
 30 31  1  0
 30 33  1  0
 31 32  1  0
 33 34  1  0
 34 35  1  0
 35 36  2  0
M  END
