
     RDKit          3D

 37 41  0  0  0  0  0  0  0  0999 V2000
   -1.5170    3.9650    1.0910 C   0  0  0  0  0  0  0  0  0  0  0  0
   -0.3510    3.0340    1.1110 C   0  0  0  0  0  0  0  0  0  0  0  0
    0.7210    3.2860    1.8560 C   0  0  0  0  0  0  0  0  0  0  0  0
    1.7940    2.4180    1.8910 C   0  0  0  0  0  0  0  0  0  0  0  0
    1.7730    1.2380    1.1310 C   0  0  0  0  0  0  0  0  0  0  0  0
    2.9910    0.4180    1.1210 C   0  0  0  0  0  0  0  0  0  0  0  0
    3.4600    0.0260    2.2560 O   0  0  0  0  0  0  0  0  0  0  0  0
    3.6890    0.0450   -0.0330 N   0  0  0  0  0  0  0  0  0  0  0  0
    4.8930   -0.7040   -0.1200 C   0  0  0  0  0  0  0  0  0  0  0  0
    5.5870   -0.5700   -1.3310 C   0  0  0  0  0  0  0  0  0  0  0  0
    6.7930   -1.2030   -1.5670 C   0  0  0  0  0  0  0  0  0  0  0  0
    7.3110   -1.9880   -0.5670 C   0  0  0  0  0  0  0  0  0  0  0  0
    6.6170   -2.1220    0.6470 C   0  0  0  0  0  0  0  0  0  0  0  0
    7.1910   -2.9770    1.7100 C   0  0  2  0  0  0  0  0  0  0  0  0
    8.3990   -2.4000    2.1280 F   0  0  0  0  0  0  0  0  0  0  0  0
    7.4970   -4.2560    1.2760 F   0  0  0  0  0  0  0  0  0  0  0  0
    6.3810   -3.0020    2.8280 F   0  0  0  0  0  0  0  0  0  0  0  0
    5.4370   -1.4910    0.8490 C   0  0  0  0  0  0  0  0  0  0  0  0
    0.6600    0.9940    0.3750 C   0  0  0  0  0  0  0  0  0  0  0  0
   -0.4320    1.8490    0.3130 C   0  0  0  0  0  0  0  0  0  0  0  0
   -1.4940    1.8250   -0.6140 N   0  0  0  0  0  0  0  0  0  0  0  0
   -2.4090    0.7780   -0.8200 C   0  0  0  0  0  0  0  0  0  0  0  0
   -2.6960   -0.2150    0.0780 N   0  0  0  0  0  0  0  0  0  0  0  0
   -3.7670   -1.0320   -0.0930 C   0  0  0  0  0  0  0  0  0  0  0  0
   -4.1510   -2.0310    0.9060 C   0  0  0  0  0  0  0  0  0  0  0  0
   -5.3940   -2.6540    0.7650 C   0  0  0  0  0  0  0  0  0  0  0  0
   -5.8860   -3.5730    1.6640 C   0  0  0  0  0  0  0  0  0  0  0  0
   -5.1130   -3.8960    2.7540 C   0  0  0  0  0  0  0  0  0  0  0  0
   -3.9230   -3.3050    2.8890 N   0  0  0  0  0  0  0  0  0  0  0  0
   -3.4200   -2.3890    2.0020 C   0  0  0  0  0  0  0  0  0  0  0  0
   -4.5390   -0.8480   -1.1840 N   0  0  0  0  0  0  0  0  0  0  0  0
   -4.3120    0.0980   -2.1060 C   0  0  0  0  0  0  0  0  0  0  0  0
   -4.9000    0.4680   -3.2620 N   0  0  0  0  0  0  0  0  0  0  0  0
   -4.2740    1.4750   -3.8330 N   0  0  0  0  0  0  0  0  0  0  0  0
   -4.5910    2.1490   -5.1040 C   0  0  0  0  0  0  0  0  0  0  0  0
   -3.2310    1.7870   -3.0320 C   0  0  0  0  0  0  0  0  0  0  0  0
   -3.2400    0.9330   -1.9440 C   0  0  0  0  0  0  0  0  0  0  0  0
  1  2  1  0
  2  3  2  0
  2 20  1  0
  3  4  1  0
  4  5  2  0
  5  6  1  0
  5 19  1  0
  6  7  2  0
  6  8  1  0
  8  9  1  0
  9 10  2  0
  9 18  1  0
 10 11  1  0
 11 12  2  0
 12 13  1  0
 13 14  1  0
 13 18  2  0
 14 15  1  1
 14 16  1  0
 14 17  1  0
 19 20  2  0
 20 21  1  0
 21 22  1  0
 22 23  2  0
 22 37  1  0
 23 24  1  0
 24 25  1  0
 24 31  2  0
 25 26  2  0
 25 30  1  0
 26 27  1  0
 27 28  2  0
 28 29  1  0
 29 30  2  0
 31 32  1  0
 32 33  2  0
 32 37  1  0
 33 34  1  0
 34 35  1  0
 34 36  1  0
 36 37  2  0
M  END
