
     RDKit          3D

 37 42  0  0  0  0  0  0  0  0999 V2000
    0.2180   -1.3900    4.9990 C   0  0  0  0  0  0  0  0  0  0  0  0
   -0.7190   -1.9400    3.9300 C   0  0  0  0  0  0  0  0  0  0  0  0
    0.1360   -2.1030    2.6700 C   0  0  0  0  0  0  0  0  0  0  0  0
    0.6980   -0.8250    2.2360 C   0  0  0  0  0  0  0  0  0  0  0  0
    1.8280   -0.5490    2.8080 O   0  0  0  0  0  0  0  0  0  0  0  0
    0.1600    0.1300    1.2820 C   0  0  0  0  0  0  0  0  0  0  0  0
    0.8830    1.3720    0.9680 C   0  0  0  0  0  0  0  0  0  0  0  0
    2.2000    1.2530    0.4150 N   0  0  0  0  0  0  0  0  0  0  0  0
    3.3700    1.4290    1.1790 C   0  0  0  0  0  0  0  0  0  0  0  0
    3.3020    1.7900    2.4030 O   0  0  0  0  0  0  0  0  0  0  0  0
    4.7180    1.2240    0.6290 C   0  0  0  0  0  0  0  0  0  0  0  0
    5.7360    1.4190    1.4530 C   0  0  0  0  0  0  0  0  0  0  0  0
    7.4240    1.2120    0.9370 S   0  0  0  0  0  0  0  0  0  0  0  0
    7.4750    0.7290   -0.7710 C   0  0  0  0  0  0  0  0  0  0  0  0
    6.1200    0.6100   -1.3670 C   0  0  0  0  0  0  0  0  0  0  0  0
    6.1410    0.2240   -2.7330 C   0  0  0  0  0  0  0  0  0  0  0  0
    5.0120    0.0550   -3.4760 C   0  0  0  0  0  0  0  0  0  0  0  0
    3.8110    0.2740   -2.8540 C   0  0  0  0  0  0  0  0  0  0  0  0
    3.7400    0.6550   -1.5120 C   0  0  0  0  0  0  0  0  0  0  0  0
    4.9190    0.8210   -0.7720 C   0  0  0  0  0  0  0  0  0  0  0  0
    2.4200    0.8620   -0.9460 C   0  0  0  0  0  0  0  0  0  0  0  0
    1.4140    0.6950   -1.6640 O   0  0  0  0  0  0  0  0  0  0  0  0
   -1.0120   -0.1780    0.7140 C   0  0  0  0  0  0  0  0  0  0  0  0
   -1.6830   -1.3460    1.0190 O   0  0  0  0  0  0  0  0  0  0  0  0
   -2.7290   -1.9710    0.4150 C   0  0  0  0  0  0  0  0  0  0  0  0
   -3.5400   -1.0320   -0.4030 C   0  0  0  0  0  0  0  0  0  0  0  0
   -4.8100   -1.3750   -0.7000 C   0  0  0  0  0  0  0  0  0  0  0  0
   -5.5920   -0.4620   -1.5040 C   0  0  0  0  0  0  0  0  0  0  0  0
   -6.9330   -0.7350   -1.8040 C   0  0  0  0  0  0  0  0  0  0  0  0
   -7.7260    0.1200   -2.5280 C   0  0  0  0  0  0  0  0  0  0  0  0
   -7.1560    1.2950   -2.9700 C   0  0  0  0  0  0  0  0  0  0  0  0
   -5.8320    1.5970   -2.6920 C   0  0  0  0  0  0  0  0  0  0  0  0
   -5.0390    0.7100   -1.9520 C   0  0  0  0  0  0  0  0  0  0  0  0
   -3.6380    1.0720   -1.7360 C   0  0  0  0  0  0  0  0  0  0  0  0
   -2.9660    0.1930   -0.7970 N   0  0  0  0  0  0  0  0  0  0  0  0
   -1.7050    0.6510   -0.2630 C   0  0  0  0  0  0  0  0  0  0  0  0
   -1.2850    1.7230   -0.6680 O   0  0  0  0  0  0  0  0  0  0  0  0
  1  2  1  0
  2  3  1  0
  3  4  1  0
  4  5  2  0
  4  6  1  0
  6  7  1  0
  6 23  2  3
  7  8  1  0
  8  9  1  0
  8 21  1  0
  9 10  2  0
  9 11  1  0
 11 12  2  0
 11 20  1  0
 12 13  1  0
 13 14  1  0
 14 15  1  0
 15 16  2  0
 15 20  1  0
 16 17  1  0
 17 18  2  0
 18 19  1  0
 19 20  2  0
 19 21  1  0
 21 22  2  0
 23 24  1  0
 23 36  1  0
 24 25  1  0
 25 26  1  0
 26 27  2  0
 26 35  1  0
 27 28  1  0
 28 29  2  0
 28 33  1  0
 29 30  1  0
 30 31  2  0
 31 32  1  0
 32 33  2  0
 33 34  1  0
 34 35  1  0
 35 36  1  0
 36 37  2  0
M  END
