
     RDKit          3D

 37 41  0  0  0  0  0  0  0  0999 V2000
    8.2810    3.3170    2.2040 C   0  0  0  0  0  0  0  0  0  0  0  0
    7.6510    2.1030    1.5900 C   0  0  0  0  0  0  0  0  0  0  0  0
    8.0860    1.7250    0.3360 C   0  0  0  0  0  0  0  0  0  0  0  0
    7.5260    0.6110   -0.2560 C   0  0  0  0  0  0  0  0  0  0  0  0
    6.5520   -0.1090    0.3930 C   0  0  0  0  0  0  0  0  0  0  0  0
    5.9770   -1.2860   -0.2630 C   0  0  1  0  0  0  0  0  0  0  0  0
    6.5110   -2.5230    0.4670 C   0  0  0  0  0  0  0  0  0  0  0  0
    4.5690   -1.3480   -0.1710 O   0  0  0  0  0  0  0  0  0  0  0  0
    3.8230   -1.4940   -1.3290 C   0  0  0  0  0  0  0  0  0  0  0  0
    4.4170   -1.5660   -2.4100 O   0  0  0  0  0  0  0  0  0  0  0  0
    2.3530   -1.5630   -1.2820 C   0  0  0  0  0  0  0  0  0  0  0  0
    1.6870   -1.4830   -0.0770 C   0  0  0  0  0  0  0  0  0  0  0  0
    0.3130   -1.5410    0.0380 C   0  0  0  0  0  0  0  0  0  0  0  0
   -0.4570   -1.6890   -1.1200 C   0  0  0  0  0  0  0  0  0  0  0  0
    0.2020   -1.7680   -2.3140 C   0  0  0  0  0  0  0  0  0  0  0  0
   -0.7790   -1.9090   -3.2880 C   0  0  0  0  0  0  0  0  0  0  0  0
   -1.9830   -1.9070   -2.6200 C   0  0  0  0  0  0  0  0  0  0  0  0
   -1.7840   -1.7730   -1.3020 N   0  0  0  0  0  0  0  0  0  0  0  0
   -2.8080   -1.7250   -0.2460 C   0  0  0  0  0  0  0  0  0  0  0  0
   -3.2490   -0.3550    0.0120 C   0  0  0  0  0  0  0  0  0  0  0  0
   -2.7500    0.5840   -0.6400 O   0  0  0  0  0  0  0  0  0  0  0  0
   -4.2270   -0.0810    0.9830 N   0  0  0  0  0  0  0  0  0  0  0  0
   -4.8090   -1.1680    1.7440 C   0  0  0  0  0  0  0  0  0  0  0  0
   -4.0590   -1.2580    3.0560 C   0  0  0  0  0  0  0  0  0  0  0  0
   -3.7860    0.4500    3.6220 S   0  0  0  0  0  0  0  0  0  0  0  0
   -4.9580    1.4920    2.6750 C   0  0  0  0  0  0  0  0  0  0  0  0
   -4.6610    1.2800    1.2300 C   0  0  2  0  0  0  0  0  0  0  0  0
   -5.7700    1.6760    0.3320 C   0  0  0  0  0  0  0  0  0  0  0  0
   -6.3670    0.8430   -0.4820 C   0  0  0  0  0  0  0  0  0  0  0  0
   -7.4730    1.2070   -1.3870 C   0  0  0  0  0  0  0  0  0  0  0  0
   -7.5080    2.6980   -1.6460 C   0  0  0  0  0  0  0  0  0  0  0  0
   -7.2630    3.4560   -0.4820 O   0  0  0  0  0  0  0  0  0  0  0  0
   -6.2090    3.0650    0.3660 C   0  0  0  0  0  0  0  0  0  0  0  0
   -5.6990    3.9370    1.1130 O   0  0  0  0  0  0  0  0  0  0  0  0
    1.5980   -1.7080   -2.4210 C   0  0  0  0  0  0  0  0  0  0  0  0
    6.1400    0.2920    1.6390 C   0  0  0  0  0  0  0  0  0  0  0  0
    6.6760    1.3960    2.2580 C   0  0  0  0  0  0  0  0  0  0  0  0
  1  2  1  0
  2  3  2  0
  2 37  1  0
  3  4  1  0
  4  5  2  0
  5  6  1  0
  5 36  1  0
  6  7  1  1
  6  8  1  0
  8  9  1  0
  9 10  2  0
  9 11  1  0
 11 12  2  0
 11 35  1  0
 12 13  1  0
 13 14  2  0
 14 15  1  0
 14 18  1  0
 15 16  1  0
 15 35  2  0
 16 17  2  0
 17 18  1  0
 18 19  1  0
 19 20  1  0
 20 21  2  0
 20 22  1  0
 22 23  1  0
 22 27  1  0
 23 24  1  0
 24 25  1  0
 25 26  1  0
 26 27  1  0
 27 28  1  6
 28 29  2  0
 28 33  1  0
 29 30  1  0
 30 31  1  0
 31 32  1  0
 32 33  1  0
 33 34  2  0
 36 37  2  0
M  END
