
     RDKit          3D

 36 40  0  0  0  0  0  0  0  0999 V2000
    6.5810    0.5640   -1.6180 C   0  0  0  0  0  0  0  0  0  0  0  0
    6.8310    0.7990   -0.3470 C   0  0  0  0  0  0  0  0  0  0  0  0
    8.1930    0.7170    0.2130 C   0  0  0  0  0  0  0  0  0  0  0  0
    8.3140    1.0490    1.5390 O   0  0  0  0  0  0  0  0  0  0  0  0
    7.5520    2.2080    1.7760 C   0  0  0  0  0  0  0  0  0  0  0  0
    6.0930    1.8700    1.6090 C   0  0  0  0  0  0  0  0  0  0  0  0
    5.7280    1.1530    0.5310 C   0  0  0  0  0  0  0  0  0  0  0  0
    4.3410    0.7850    0.3050 C   0  0  0  0  0  0  0  0  0  0  0  0
    3.2700    1.0980    1.0730 N   0  0  0  0  0  0  0  0  0  0  0  0
    2.1610    0.5720    0.5290 C   0  0  0  0  0  0  0  0  0  0  0  0
    0.8160    0.7330    1.1170 C   0  0  0  0  0  0  0  0  0  0  0  0
   -0.1670   -0.0240    0.4880 O   0  0  0  0  0  0  0  0  0  0  0  0
   -0.1900   -1.3940    0.3860 C   0  0  0  0  0  0  0  0  0  0  0  0
    0.8340   -2.1230    0.9490 C   0  0  0  0  0  0  0  0  0  0  0  0
    0.8570   -3.5160    0.8720 C   0  0  0  0  0  0  0  0  0  0  0  0
   -0.1480   -4.1820    0.2320 C   0  0  0  0  0  0  0  0  0  0  0  0
   -1.1700   -3.4430   -0.3290 C   0  0  0  0  0  0  0  0  0  0  0  0
   -1.2100   -2.0550   -0.2630 C   0  0  0  0  0  0  0  0  0  0  0  0
   -2.2740   -1.2600   -0.8450 C   0  0  0  0  0  0  0  0  0  0  0  0
   -2.1310   -0.8360   -2.1510 C   0  0  0  0  0  0  0  0  0  0  0  0
   -0.9670   -1.1650   -2.9200 N   0  0  0  0  0  0  0  0  0  0  0  0
   -3.1090   -0.1190   -2.6530 O   0  0  0  0  0  0  0  0  0  0  0  0
   -4.1770    0.1870   -1.9570 C   0  0  0  0  0  0  0  0  0  0  0  0
   -5.3750    1.0930   -2.6440 S   0  0  0  0  0  0  0  0  0  0  0  0
   -4.3620   -0.2020   -0.6830 N   0  0  0  0  0  0  0  0  0  0  0  0
   -5.5340    0.1450    0.0500 C   0  0  0  0  0  0  0  0  0  0  0  0
   -6.0070   -0.6660    1.0220 N   0  0  0  0  0  0  0  0  0  0  0  0
   -7.1120   -0.3450    1.7190 C   0  0  0  0  0  0  0  0  0  0  0  0
   -7.8080    0.8200    1.4740 C   0  0  0  0  0  0  0  0  0  0  0  0
   -7.3180    1.6410    0.4800 C   0  0  0  0  0  0  0  0  0  0  0  0
   -8.0640    2.9040    0.2070 C   0  0  0  0  0  0  0  0  0  0  0  0
   -6.2220    1.2800   -0.1810 N   0  0  0  0  0  0  0  0  0  0  0  0
   -3.4020   -0.9330   -0.1230 C   0  0  0  0  0  0  0  0  0  0  0  0
   -3.5420   -1.3130    1.0650 O   0  0  0  0  0  0  0  0  0  0  0  0
    2.5730   -0.0660   -0.5800 N   0  0  0  0  0  0  0  0  0  0  0  0
    3.8460    0.0830   -0.6720 O   0  0  0  0  0  0  0  0  0  0  0  0
  1  2  2  0
  2  3  1  0
  2  7  1  0
  3  4  1  0
  4  5  1  0
  5  6  1  0
  6  7  2  0
  7  8  1  0
  8  9  2  0
  8 36  1  0
  9 10  1  0
 10 11  1  0
 10 35  2  0
 11 12  1  0
 12 13  1  0
 13 14  2  0
 13 18  1  0
 14 15  1  0
 15 16  2  0
 16 17  1  0
 17 18  2  0
 18 19  1  0
 19 20  2  0
 19 33  1  0
 20 21  1  0
 20 22  1  0
 22 23  1  0
 23 24  2  0
 23 25  1  0
 25 26  1  0
 25 33  1  0
 26 27  2  0
 26 32  1  0
 27 28  1  0
 28 29  2  0
 29 30  1  0
 30 31  1  0
 30 32  2  0
 33 34  2  0
 35 36  1  0
M  END
