
     RDKit          3D

 36 40  0  0  0  0  0  0  0  0999 V2000
   -1.6800    0.4550    4.5180 C   0  0  0  0  0  0  0  0  0  0  0  0
   -1.6610    0.2520    3.0610 C   0  0  0  0  0  0  0  0  0  0  0  0
   -2.5340   -0.3790    2.2040 C   0  0  0  0  0  0  0  0  0  0  0  0
   -3.7260   -1.0860    2.5770 C   0  0  0  0  0  0  0  0  0  0  0  0
   -3.9880   -1.1270    3.8520 O   0  0  0  0  0  0  0  0  0  0  0  0
   -4.6600   -1.7440    1.7820 N   0  0  0  0  0  0  0  0  0  0  0  0
   -5.8110   -2.4010    2.4480 C   0  0  0  0  0  0  0  0  0  0  0  0
   -6.6360   -3.0660    1.3950 C   0  0  0  0  0  0  0  0  0  0  0  0
   -7.0350   -2.1440    0.2710 C   0  0  0  0  0  0  0  0  0  0  0  0
   -5.8980   -1.2930   -0.2060 C   0  0  0  0  0  0  0  0  0  0  0  0
   -4.5940   -1.8360    0.3650 C   0  0  0  0  0  0  0  0  0  0  0  0
   -2.0470   -0.1980    0.9420 N   0  0  0  0  0  0  0  0  0  0  0  0
   -0.9340    0.5040    1.0160 C   0  0  0  0  0  0  0  0  0  0  0  0
   -0.6960    0.7780    2.2850 N   0  0  0  0  0  0  0  0  0  0  0  0
    0.3650    1.6270    2.4110 N   0  0  0  0  0  0  0  0  0  0  0  0
    0.8480    1.9730    1.2990 C   0  0  0  0  0  0  0  0  0  0  0  0
    1.9580    2.8890    1.5260 N   0  0  0  0  0  0  0  0  0  0  0  0
    2.2100    3.8520    0.5850 C   0  0  0  0  0  0  0  0  0  0  0  0
    1.3150    3.8250   -0.3170 O   0  0  0  0  0  0  0  0  0  0  0  0
    3.3080    4.8020    0.5660 C   0  0  0  0  0  0  0  0  0  0  0  0
    3.0040    5.8460   -0.5190 C   0  0  0  0  0  0  0  0  0  0  0  0
    4.0940    6.7550   -0.4660 N   0  0  0  0  0  0  0  0  0  0  0  0
    0.2350    1.1180    0.3040 C   0  0  1  0  0  0  0  0  0  0  0  0
    1.1200    0.0470   -0.0990 O   0  0  0  0  0  0  0  0  0  0  0  0
    1.2390   -0.2210   -1.4440 C   0  0  0  0  0  0  0  0  0  0  0  0
    0.5820    0.4710   -2.2550 O   0  0  0  0  0  0  0  0  0  0  0  0
    2.0910   -1.2620   -1.9380 C   0  0  0  0  0  0  0  0  0  0  0  0
    2.7960   -2.0080   -1.1130 C   0  0  0  0  0  0  0  0  0  0  0  0
    3.6860   -3.0920   -1.5330 C   0  0  0  0  0  0  0  0  0  0  0  0
    4.5830   -2.7400   -2.6500 C   0  0  0  0  0  0  0  0  0  0  0  0
    5.8870   -2.9600   -2.8470 C   0  0  0  0  0  0  0  0  0  0  0  0
    6.2290   -2.3770   -4.1550 C   0  0  0  0  0  0  0  0  0  0  0  0
    4.9710   -1.8140   -4.6630 C   0  0  0  0  0  0  0  0  0  0  0  0
    4.0420   -2.0270   -3.7960 C   0  0  0  0  0  0  0  0  0  0  0  0
    2.3060   -1.6260   -3.6840 S   0  0  0  0  0  0  0  0  0  0  0  0
    2.0020   -0.3410   -4.4440 O   0  0  0  0  0  0  0  0  0  0  0  0
  1  2  1  0
  2  3  2  0
  2 14  1  0
  3  4  1  0
  3 12  1  0
  4  5  2  0
  4  6  1  0
  6  7  1  0
  6 11  1  0
  7  8  1  0
  8  9  1  0
  9 10  1  0
 10 11  1  0
 12 13  2  0
 13 14  1  0
 13 23  1  0
 14 15  1  0
 15 16  2  0
 16 17  1  0
 16 23  1  0
 17 18  1  0
 18 19  2  0
 18 20  1  0
 20 21  1  0
 21 22  1  0
 23 24  1  1
 24 25  1  0
 25 26  2  0
 25 27  1  0
 27 28  2  0
 35 27  1  1
 28 29  1  0
 29 30  1  0
 30 31  2  0
 30 34  1  0
 31 32  1  0
 32 33  1  0
 33 34  2  0
 34 35  1  0
 35 36  2  0
M  END
