
     RDKit          3D

 37 40  0  0  0  0  0  0  0  0999 V2000
   -9.9330    3.0360   -0.2080 C   0  0  0  0  0  0  0  0  0  0  0  0
   -9.0400    1.9420    0.1810 C   0  0  0  0  0  0  0  0  0  0  0  0
   -9.2790    0.5890    0.3200 C   0  0  0  0  0  0  0  0  0  0  0  0
   -8.2780   -0.2010    0.6840 C   0  0  0  0  0  0  0  0  0  0  0  0
   -7.0400    0.2620    0.9220 C   0  0  0  0  0  0  0  0  0  0  0  0
   -5.7770   -0.3200    1.3260 C   0  0  2  0  0  0  0  0  0  0  0  0
   -5.0130    0.4130    2.3690 C   0  0  0  0  0  0  0  0  0  0  0  0
   -3.7530    0.8940    1.7130 C   0  0  0  0  0  0  0  0  0  0  0  0
   -3.5920    0.0940    0.5120 N   0  0  1  0  0  0  0  0  0  0  0  0
   -2.5150   -0.8860    0.6540 C   0  0  1  0  0  0  0  0  0  0  0  0
   -3.1640   -2.1700    0.6580 N   0  0  0  0  0  0  0  0  0  0  0  0
   -2.9470   -2.7740   -0.5880 N   0  0  0  0  0  0  0  0  0  0  0  0
   -2.4890   -1.7440   -1.4550 C   0  0  0  0  0  0  0  0  0  0  0  0
   -2.7020   -1.6250   -2.6590 O   0  0  0  0  0  0  0  0  0  0  0  0
   -1.6950   -0.8450   -0.5830 C   0  0  2  0  0  0  0  0  0  0  0  0
   -0.3860   -1.3680   -0.5540 N   0  0  0  0  0  0  0  0  0  0  0  0
    0.8410   -0.7450   -0.8340 C   0  0  0  0  0  0  0  0  0  0  0  0
    0.7930    0.4580   -1.1460 O   0  0  0  0  0  0  0  0  0  0  0  0
    2.1440   -1.4240   -0.7850 C   0  0  1  0  0  0  0  0  0  0  0  0
    2.1630   -2.6530   -1.6920 C   0  0  0  0  0  0  0  0  0  0  0  0
    3.2350   -0.6170   -1.1680 O   0  0  0  0  0  0  0  0  0  0  0  0
    4.3590   -0.4970   -0.3820 C   0  0  0  0  0  0  0  0  0  0  0  0
    4.3920   -1.1280    0.7050 O   0  0  0  0  0  0  0  0  0  0  0  0
    5.4900    0.3410   -0.8100 C   0  0  0  0  0  0  0  0  0  0  0  0
    5.6500    1.1250   -1.8460 N   0  0  0  0  0  0  0  0  0  0  0  0
    6.7650    1.6950   -2.0350 N   0  0  0  0  0  0  0  0  0  0  0  0
    7.7570    1.6160   -1.3600 C   0  0  0  0  0  0  0  0  0  0  0  0
    9.0770    2.0750   -1.3020 N   0  0  0  0  0  0  0  0  0  0  0  0
    9.9830    1.5620   -0.2250 C   0  0  0  0  0  0  0  0  0  0  0  0
    9.5340    0.8330    0.5810 O   0  0  0  0  0  0  0  0  0  0  0  0
   11.2930    2.1340   -0.4760 N   0  0  0  0  0  0  0  0  0  0  0  0
   12.0930    1.3730    0.8730 C   0  0  0  0  0  0  0  0  0  0  0  0
   13.4160    1.7600    0.9380 N   0  0  0  0  0  0  0  0  0  0  0  0
   11.4290    0.6760    1.5030 O   0  0  0  0  0  0  0  0  0  0  0  0
    7.0920    0.4410   -0.0390 S   0  0  0  0  0  0  0  0  0  0  0  0
   -4.8460   -0.4610    0.1490 C   0  0  0  0  0  0  0  0  0  0  0  0
   -7.2910    2.0720    0.5950 S   0  0  0  0  0  0  0  0  0  0  0  0
  1  2  1  0
  2  3  2  0
  2 37  1  0
  3  4  1  0
  4  5  2  0
  6  5  1  6
  5 37  1  0
  6  7  1  0
  6 36  1  0
  7  8  1  0
  9  8  1  1
  9 10  1  0
  9 36  1  0
 10 11  1  6
 10 15  1  0
 11 12  1  0
 12 13  1  0
 13 14  2  0
 13 15  1  0
 15 16  1  1
 16 17  1  0
 17 18  2  0
 17 19  1  0
 19 20  1  6
 19 21  1  0
 21 22  1  0
 22 23  2  0
 22 24  1  0
 24 25  2  0
 24 35  1  0
 25 26  1  0
 26 27  2  0
 27 28  1  0
 27 35  1  0
 28 29  1  0
 29 30  2  0
 29 31  1  0
 31 32  1  0
 32 33  1  0
 32 34  2  0
M  CHG  1   9   1
M  END
