
     RDKit          3D

 37 39  0  0  0  0  0  0  0  0999 V2000
   -5.3430    2.7520   -2.1650 C   0  0  0  0  0  0  0  0  0  0  0  0
   -6.0300    1.6900   -2.3800 N   0  0  0  0  0  0  0  0  0  0  0  0
   -5.6560    0.4160   -2.0470 O   0  0  0  0  0  0  0  0  0  0  0  0
   -5.7160   -0.0490   -0.6910 C   0  0  2  0  0  0  0  0  0  0  0  0
   -4.4110   -0.6200   -0.2240 C   0  0  1  0  0  0  0  0  0  0  0  0
   -3.5450    0.4090    0.3190 N   0  0  1  0  0  0  0  0  0  0  0  0
   -3.1070    0.1180    1.6530 C   0  0  0  0  0  0  0  0  0  0  0  0
   -2.5660    1.4490    2.1960 C   0  0  0  0  0  0  0  0  0  0  0  0
   -1.3490    1.8500    1.4320 C   0  0  0  0  0  0  0  0  0  0  0  0
   -1.2320    1.2890    0.0470 C   0  0  1  0  0  0  0  0  0  0  0  0
   -0.0530    0.3890    0.0850 N   0  0  0  0  0  0  0  0  0  0  0  0
    1.2020    0.8640   -0.2870 C   0  0  0  0  0  0  0  0  0  0  0  0
    1.2580    2.1040   -0.6250 O   0  0  0  0  0  0  0  0  0  0  0  0
    2.4600    0.0380   -0.3240 C   0  0  0  0  0  0  0  0  0  0  0  0
    3.5660    0.8030   -0.6910 N   0  0  0  0  0  0  0  0  0  0  0  0
    4.8040    0.5110   -1.2310 C   0  0  0  0  0  0  0  0  0  0  0  0
    5.1080   -0.6250   -1.5390 O   0  0  0  0  0  0  0  0  0  0  0  0
    5.8120    1.6490   -1.4410 C   0  0  0  0  0  0  0  0  0  0  0  0
    6.5170    1.9940    0.1910 S   0  0  0  0  0  0  0  0  0  0  0  0
    7.4800    0.6150    0.8420 C   0  0  0  0  0  0  0  0  0  0  0  0
    8.6740    0.3660    0.0990 N   0  0  0  0  0  0  0  0  0  0  0  0
    9.6640    1.3720   -0.0110 C   0  0  0  0  0  0  0  0  0  0  0  0
   10.8600    1.1510   -0.7400 N   0  0  0  0  0  0  0  0  0  0  0  0
    9.5010    2.4890    0.5410 O   0  0  0  0  0  0  0  0  0  0  0  0
    2.3240   -1.2470   -0.3460 C   0  0  0  0  0  0  0  0  0  0  0  0
    1.0660   -1.9140   -0.3740 N   0  0  0  0  0  0  0  0  0  0  0  0
    0.9290   -3.1580   -0.2490 C   0  0  0  0  0  0  0  0  0  0  0  0
    2.0390   -4.0470   -0.0620 N   0  0  0  0  0  0  0  0  0  0  0  0
    3.2130   -3.5750   -0.0180 C   0  0  0  0  0  0  0  0  0  0  0  0
    3.4300   -2.1670   -0.1520 N   0  0  0  0  0  0  0  0  0  0  0  0
   -2.3680    0.5640   -0.5030 C   0  0  0  0  0  0  0  0  0  0  0  0
   -4.5870   -1.7920    0.7110 C   0  0  0  0  0  0  0  0  0  0  0  0
   -5.7960   -1.7140    1.5890 C   0  0  0  0  0  0  0  0  0  0  0  0
   -6.9610   -2.2880    0.7660 C   0  0  0  0  0  0  0  0  0  0  0  0
   -7.0640   -1.2120   -0.6550 S   0  0  1  0  0  0  0  0  0  0  0  0
   -8.3280   -0.3800   -0.4690 O   0  0  0  0  0  0  0  0  0  0  0  0
   -7.2220   -1.9570   -1.9330 O   0  0  0  0  0  0  0  0  0  0  0  0
  1  2  2  0
  2  3  1  0
  4  3  1  6
  4  5  1  0
  4 35  1  0
  5  6  1  0
  5 32  1  1
  6  7  1  1
  6 31  1  0
  7  8  1  0
  8  9  1  0
  9 10  1  0
 10 11  1  1
 10 31  1  0
 11 12  1  0
 12 13  2  0
 12 14  1  0
 14 15  1  0
 14 25  2  3
 15 16  1  0
 16 17  2  0
 16 18  1  0
 18 19  1  0
 19 20  1  0
 20 21  1  0
 21 22  1  0
 22 23  1  0
 22 24  2  0
 25 26  1  0
 25 30  1  0
 26 27  2  0
 27 28  1  0
 28 29  2  0
 29 30  1  0
 32 33  1  0
 33 34  1  0
 35 34  1  1
 35 36  2  0
 35 37  2  0
M  CHG  1   6   1
M  END
