
     RDKit          3D

 37 41  0  0  0  0  0  0  0  0999 V2000
   -1.0600   -4.0980   -2.3550 C   0  0  0  0  0  0  0  0  0  0  0  0
   -0.1440   -3.1750   -1.6270 C   0  0  0  0  0  0  0  0  0  0  0  0
    1.1400   -3.5660   -1.3390 C   0  0  0  0  0  0  0  0  0  0  0  0
    1.9910   -2.7080   -0.6880 C   0  0  0  0  0  0  0  0  0  0  0  0
    1.6010   -1.4340   -0.3020 C   0  0  0  0  0  0  0  0  0  0  0  0
    2.5900   -0.4870    0.2360 C   0  0  0  0  0  0  0  0  0  0  0  0
    2.3000    0.7440    0.4080 O   0  0  0  0  0  0  0  0  0  0  0  0
    3.9030   -0.8660    0.5740 N   0  0  0  0  0  0  0  0  0  0  0  0
    4.9600   -0.0230    1.0010 C   0  0  0  0  0  0  0  0  0  0  0  0
    5.9200   -0.5720    1.8550 C   0  0  0  0  0  0  0  0  0  0  0  0
    7.0480    0.1300    2.1950 C   0  0  0  0  0  0  0  0  0  0  0  0
    7.1980    1.4150    1.6560 C   0  0  0  0  0  0  0  0  0  0  0  0
    6.2610    1.9570    0.8250 C   0  0  0  0  0  0  0  0  0  0  0  0
    6.4040    3.3200    0.2110 C   0  0  1  0  0  0  0  0  0  0  0  0
    6.6350    3.2330   -1.1560 F   0  0  0  0  0  0  0  0  0  0  0  0
    5.3180    4.1240    0.4940 F   0  0  0  0  0  0  0  0  0  0  0  0
    7.5200    3.9080    0.7530 F   0  0  0  0  0  0  0  0  0  0  0  0
    5.1280    1.2440    0.4880 C   0  0  0  0  0  0  0  0  0  0  0  0
    0.3170   -1.0540   -0.5910 C   0  0  0  0  0  0  0  0  0  0  0  0
   -0.5750   -1.9090   -1.2550 C   0  0  0  0  0  0  0  0  0  0  0  0
   -1.8400   -1.5200   -1.7110 N   0  0  0  0  0  0  0  0  0  0  0  0
   -2.6430   -0.4810   -1.2070 C   0  0  0  0  0  0  0  0  0  0  0  0
   -2.4760    0.1670   -0.0350 N   0  0  0  0  0  0  0  0  0  0  0  0
   -3.3140    1.0730    0.4470 C   0  0  0  0  0  0  0  0  0  0  0  0
   -3.1830    1.6940    1.7790 C   0  0  0  0  0  0  0  0  0  0  0  0
   -4.0280    2.7240    2.1680 C   0  0  0  0  0  0  0  0  0  0  0  0
   -3.9110    3.2180    3.4690 C   0  0  0  0  0  0  0  0  0  0  0  0
   -2.9890    2.6900    4.2960 C   0  0  0  0  0  0  0  0  0  0  0  0
   -2.1920    1.7130    3.9060 N   0  0  0  0  0  0  0  0  0  0  0  0
   -2.2670    1.2000    2.6660 C   0  0  0  0  0  0  0  0  0  0  0  0
   -4.4490    1.4440   -0.2280 N   0  0  0  0  0  0  0  0  0  0  0  0
   -4.6900    0.8380   -1.4250 C   0  0  0  0  0  0  0  0  0  0  0  0
   -3.8110   -0.0930   -1.8880 C   0  0  0  0  0  0  0  0  0  0  0  0
   -4.3050   -0.5110   -3.1080 C   0  0  0  0  0  0  0  0  0  0  0  0
   -5.4430    0.1630   -3.3420 N   0  0  0  0  0  0  0  0  0  0  0  0
   -5.6900    0.9830   -2.3340 N   0  0  0  0  0  0  0  0  0  0  0  0
   -6.7990    1.8940   -2.2260 C   0  0  0  0  0  0  0  0  0  0  0  0
  1  2  1  0
  2  3  2  0
  2 20  1  0
  3  4  1  0
  4  5  2  0
  5  6  1  0
  5 19  1  0
  6  7  2  0
  6  8  1  0
  8  9  1  0
  9 10  2  0
  9 18  1  0
 10 11  1  0
 11 12  2  0
 12 13  1  0
 13 14  1  0
 13 18  2  0
 14 15  1  6
 14 16  1  0
 14 17  1  0
 19 20  2  0
 20 21  1  0
 21 22  1  0
 22 23  2  0
 22 33  1  0
 23 24  1  0
 24 25  1  0
 24 31  2  0
 25 26  2  0
 25 30  1  0
 26 27  1  0
 27 28  2  0
 28 29  1  0
 29 30  2  0
 31 32  1  0
 32 33  2  0
 32 36  1  0
 33 34  1  0
 34 35  2  0
 35 36  1  0
 36 37  1  0
M  END
