
     RDKit          3D

 37 40  0  0  0  0  0  0  0  0999 V2000
   -8.0920    2.4650   -0.5600 C   0  0  0  0  0  0  0  0  0  0  0  0
   -6.7000    1.9560   -0.3050 C   0  0  1  0  0  0  0  0  0  0  0  0
   -5.9750    2.9800    0.4260 N   0  0  0  0  0  0  0  0  0  0  0  0
   -6.5700    3.2600    1.6080 O   0  0  0  0  0  0  0  0  0  0  0  0
   -6.7160    0.6720    0.5170 C   0  0  1  0  0  0  0  0  0  0  0  0
   -7.4330   -0.3790   -0.1370 N   0  0  0  0  0  0  0  0  0  0  0  0
   -6.5710   -1.0120   -1.4870 S   0  0  2  0  0  0  0  0  0  0  0  0
   -7.2260   -0.7080   -2.7810 O   0  0  0  0  0  0  0  0  0  0  0  0
   -6.4070   -2.5060   -1.3400 O   0  0  0  0  0  0  0  0  0  0  0  0
   -4.9650   -0.3290   -1.3920 N   0  0  0  0  0  0  0  0  0  0  0  0
   -4.5450   -0.4790   -0.0140 C   0  0  1  0  0  0  0  0  0  0  0  0
   -3.1400   -0.1240    0.0960 N   0  0  0  0  0  0  0  0  0  0  0  0
   -2.1360   -1.0610    0.4660 C   0  0  0  0  0  0  0  0  0  0  0  0
   -2.4520   -2.2570    0.7150 O   0  0  0  0  0  0  0  0  0  0  0  0
   -0.7180   -0.5760    0.5460 C   0  0  0  0  0  0  0  0  0  0  0  0
    0.1340   -1.7320    0.9490 C   0  0  0  0  0  0  0  0  0  0  0  0
    1.5220   -1.4870    1.0760 N   0  0  0  0  0  0  0  0  0  0  0  0
    2.4150   -1.2650    0.0100 C   0  0  0  0  0  0  0  0  0  0  0  0
    3.7750   -1.0280    0.2740 C   0  0  0  0  0  0  0  0  0  0  0  0
    4.7010   -0.8240   -0.7210 C   0  0  0  0  0  0  0  0  0  0  0  0
    6.0890   -0.5820   -0.4400 N   0  0  0  0  0  0  0  0  0  0  0  0
    6.5340    0.6970   -0.2460 C   0  0  0  0  0  0  0  0  0  0  0  0
    7.8680    0.8440    0.0170 C   0  0  0  0  0  0  0  0  0  0  0  0
    8.7160   -0.2260    0.0840 C   0  0  0  0  0  0  0  0  0  0  0  0
    9.9230   -0.0430    0.3260 O   0  0  0  0  0  0  0  0  0  0  0  0
    8.2540   -1.4990   -0.1130 N   0  0  0  0  0  0  0  0  0  0  0  0
    9.1690   -2.6190   -0.0380 C   0  0  0  0  0  0  0  0  0  0  0  0
    6.9450   -1.6110   -0.3680 C   0  0  0  0  0  0  0  0  0  0  0  0
    6.4910   -2.7840   -0.5550 O   0  0  0  0  0  0  0  0  0  0  0  0
    8.1450    2.5990    0.1960 S   0  0  0  0  0  0  0  0  0  0  0  0
    6.5890    3.1030   -0.6720 C   0  0  0  0  0  0  0  0  0  0  0  0
    5.7450    1.9170   -0.2720 C   0  0  0  0  0  0  0  0  0  0  0  0
    4.2140   -0.8640   -2.0110 C   0  0  0  0  0  0  0  0  0  0  0  0
    2.8760   -1.0970   -2.2720 C   0  0  0  0  0  0  0  0  0  0  0  0
    1.9900   -1.2960   -1.2600 N   0  0  0  0  0  0  0  0  0  0  0  0
   -5.3440    0.3020    0.9590 C   0  0  2  0  0  0  0  0  0  0  0  0
   -5.4660   -0.4600    2.2010 N   0  0  0  0  0  0  0  0  0  0  0  0
  2  1  1  1
  2  3  1  0
  2  5  1  0
  3  4  1  0
  5  6  1  6
  5 36  1  0
  7  6  1  1
  7  8  2  0
  7  9  2  0
  7 10  1  0
 10 11  1  0
 11 12  1  6
 11 36  1  0
 12 13  1  0
 13 14  2  0
 13 15  1  0
 15 16  1  0
 16 17  1  0
 17 18  1  0
 18 19  2  0
 18 35  1  0
 19 20  1  0
 20 21  1  0
 20 33  2  0
 21 22  1  0
 21 28  1  0
 22 23  2  0
 22 32  1  0
 23 24  1  0
 23 30  1  0
 24 25  2  0
 24 26  1  0
 26 27  1  0
 26 28  1  0
 28 29  2  0
 30 31  1  0
 31 32  1  0
 33 34  1  0
 34 35  2  0
 36 37  1  1
M  CHG  1  35   1
M  END
