
     RDKit          3D

 35 39  0  0  0  0  0  0  0  0999 V2000
   -4.0950   -5.0380   -2.0580 C   0  0  0  0  0  0  0  0  0  0  0  0
   -3.1910   -5.2640   -0.9590 N   0  0  0  0  0  0  0  0  0  0  0  0
   -2.3410   -4.2500   -0.4080 C   0  0  0  0  0  0  0  0  0  0  0  0
   -2.3350   -3.0100   -0.8890 N   0  0  0  0  0  0  0  0  0  0  0  0
   -1.5140   -2.0590   -0.3450 C   0  0  0  0  0  0  0  0  0  0  0  0
   -0.6600   -2.2920    0.6970 C   0  0  0  0  0  0  0  0  0  0  0  0
    0.2080   -1.3380    1.3050 C   0  0  0  0  0  0  0  0  0  0  0  0
    0.8620   -1.8720    2.3430 O   0  0  0  0  0  0  0  0  0  0  0  0
    0.5530   -0.0260    1.1100 N   0  0  0  0  0  0  0  0  0  0  0  0
    1.5620    0.5360    2.0590 C   0  0  0  0  0  0  0  0  0  0  0  0
    2.9610    0.4060    1.5270 C   0  0  1  0  0  0  0  0  0  0  0  0
    3.5520   -0.9500    1.5280 C   0  0  0  0  0  0  0  0  0  0  0  0
    4.9490   -0.8150    1.2070 O   0  0  0  0  0  0  0  0  0  0  0  0
    5.2660    0.0400    0.1670 C   0  0  0  0  0  0  0  0  0  0  0  0
    6.5150   -0.0090   -0.4560 C   0  0  0  0  0  0  0  0  0  0  0  0
    6.8710    0.8240   -1.4940 C   0  0  0  0  0  0  0  0  0  0  0  0
    5.9720    1.7590   -1.9610 C   0  0  0  0  0  0  0  0  0  0  0  0
    4.7380    1.8110   -1.3470 C   0  0  0  0  0  0  0  0  0  0  0  0
    4.3770    0.9820   -0.3110 C   0  0  0  0  0  0  0  0  0  0  0  0
    3.1390    1.0380    0.2990 O   0  0  0  0  0  0  0  0  0  0  0  0
    0.1200    0.8940    0.1370 C   0  0  1  0  0  0  0  0  0  0  0  0
    0.2760    0.5620   -1.2970 C   0  0  0  0  0  0  0  0  0  0  0  0
   -1.2710    1.3960    0.4770 C   0  0  0  0  0  0  0  0  0  0  0  0
   -1.9680    2.3310    0.2210 N   0  0  0  0  0  0  0  0  0  0  0  0
   -3.1540    2.6000    0.6850 C   0  0  0  0  0  0  0  0  0  0  0  0
   -3.9390    3.8130    0.2870 C   0  0  0  0  0  0  0  0  0  0  0  0
   -5.1920    4.1650    0.7310 C   0  0  0  0  0  0  0  0  0  0  0  0
   -5.5390    5.3480    0.1150 C   0  0  0  0  0  0  0  0  0  0  0  0
   -4.4760    5.6820   -0.6920 C   0  0  0  0  0  0  0  0  0  0  0  0
   -3.5760    4.7500   -0.5490 O   0  0  0  0  0  0  0  0  0  0  0  0
   -3.6710    1.7090    1.5730 C   0  0  0  0  0  0  0  0  0  0  0  0
   -2.3120    0.4770    1.6710 S   0  0  0  0  0  0  0  0  0  0  0  0
   -0.7010   -3.5870    1.1620 N   0  0  0  0  0  0  0  0  0  0  0  0
   -1.5010   -4.5250    0.6370 C   0  0  0  0  0  0  0  0  0  0  0  0
   -1.4810   -5.6930    1.1190 O   0  0  0  0  0  0  0  0  0  0  0  0
  1  2  1  0
  2  3  1  0
  3  4  2  0
  3 34  1  0
  4  5  1  0
  5  6  2  0
  6  7  1  0
  6 33  1  0
  7  8  2  0
  7  9  1  0
  9 10  1  0
  9 21  1  0
 11 10  1  6
 11 12  1  0
 11 20  1  0
 12 13  1  0
 13 14  1  0
 14 15  2  0
 14 19  1  0
 15 16  1  0
 16 17  2  0
 17 18  1  0
 18 19  2  0
 19 20  1  0
 21 22  1  6
 21 23  1  0
 23 24  2  0
 23 32  1  0
 24 25  1  0
 25 26  1  0
 25 31  2  0
 26 27  2  0
 26 30  1  0
 27 28  1  0
 28 29  2  0
 29 30  1  0
 31 32  1  0
 33 34  1  0
 34 35  2  0
M  END
