
     RDKit          3D

 37 39  0  0  0  0  0  0  0  0999 V2000
   -7.7850    2.7470   -1.5430 C   0  0  0  0  0  0  0  0  0  0  0  0
   -8.1280    2.4070   -0.1410 C   0  0  0  0  0  0  0  0  0  0  0  0
   -8.5710    3.2800    0.8100 N   0  0  0  0  0  0  0  0  0  0  0  0
   -8.7530    2.5760    1.9050 N   0  0  0  0  0  0  0  0  0  0  0  0
   -8.4340    1.2780    1.6600 C   0  0  0  0  0  0  0  0  0  0  0  0
   -8.5340    0.2850    2.6540 N   0  0  0  0  0  0  0  0  0  0  0  0
   -8.0440    1.1760    0.3850 N   0  0  0  0  0  0  0  0  0  0  0  0
   -7.6210   -0.0470   -0.2580 C   0  0  0  0  0  0  0  0  0  0  0  0
   -6.1460   -0.1830   -0.0950 C   0  0  1  0  0  0  0  0  0  0  0  0
   -5.6790   -0.2480    1.3420 C   0  0  0  0  0  0  0  0  0  0  0  0
   -4.2570   -0.7480    1.1660 C   0  0  0  0  0  0  0  0  0  0  0  0
   -4.2840   -1.6250    0.0400 N   0  0  2  0  0  0  0  0  0  0  0  0
   -3.2440   -1.3390   -0.9270 C   0  0  0  0  0  0  0  0  0  0  0  0
   -1.8620   -1.6230   -0.4420 C   0  0  0  0  0  0  0  0  0  0  0  0
   -0.9100   -1.2680   -1.5640 C   0  0  0  0  0  0  0  0  0  0  0  0
    0.5040   -1.5170   -1.1750 C   0  0  0  0  0  0  0  0  0  0  0  0
    0.7240   -1.9680   -0.0230 O   0  0  0  0  0  0  0  0  0  0  0  0
    1.5910   -1.2650   -2.0460 N   0  0  0  0  0  0  0  0  0  0  0  0
    2.8830   -1.5290   -1.5930 N   0  0  0  0  0  0  0  0  0  0  0  0
    3.4770   -1.0020   -0.4360 C   0  0  0  0  0  0  0  0  0  0  0  0
    2.7990   -0.2180    0.2730 O   0  0  0  0  0  0  0  0  0  0  0  0
    4.7980   -1.2950   -0.0120 N   0  0  0  0  0  0  0  0  0  0  0  0
    5.3770   -0.7290    1.1910 C   0  0  1  0  0  0  0  0  0  0  0  0
    5.6170   -1.8780    2.1640 C   0  0  0  0  0  0  0  0  0  0  0  0
    6.5870    0.0450    0.9330 C   0  0  0  0  0  0  0  0  0  0  0  0
    7.0550    0.2080   -0.2750 C   0  0  0  0  0  0  0  0  0  0  0  0
    8.2400    0.9560   -0.6130 C   0  0  0  0  0  0  0  0  0  0  0  0
    8.9970    1.5680    0.2680 C   0  0  0  0  0  0  0  0  0  0  0  0
   10.1810    2.2940   -0.2420 C   0  0  0  0  0  0  0  0  0  0  0  0
   10.9550    2.9030    0.5150 O   0  0  0  0  0  0  0  0  0  0  0  0
   10.4790    2.3250   -1.6080 O   0  0  0  0  0  0  0  0  0  0  0  0
   11.8590    3.1730   -2.1950 S   0  0  0  0  0  0  0  0  0  0  0  0
   13.1480    2.6940   -1.5440 O   0  0  0  0  0  0  0  0  0  0  0  0
    8.7960    1.6030    1.6590 N   0  0  0  0  0  0  0  0  0  0  0  0
    7.4190    0.7750    2.3250 S   0  0  0  0  0  0  0  0  0  0  0  0
    7.8480   -0.2690    3.3250 O   0  0  0  0  0  0  0  0  0  0  0  0
   -5.5790   -1.4890   -0.6180 C   0  0  0  0  0  0  0  0  0  0  0  0
  1  2  1  0
  2  3  2  0
  2  7  1  0
  3  4  1  0
  4  5  2  0
  5  6  1  0
  5  7  1  0
  7  8  1  0
  9  8  1  1
  9 10  1  0
  9 37  1  0
 10 11  1  0
 11 12  1  0
 12 13  1  6
 12 37  1  0
 13 14  1  0
 14 15  1  0
 15 16  1  0
 16 17  2  0
 16 18  1  0
 18 19  1  0
 19 20  1  0
 20 21  2  0
 20 22  1  0
 22 23  1  0
 23 24  1  1
 23 25  1  0
 25 26  2  0
 25 35  1  0
 26 27  1  0
 27 28  2  0
 28 29  1  0
 28 34  1  0
 29 30  2  0
 29 31  1  0
 31 32  1  0
 32 33  2  0
 35 34  1  6
 35 36  2  0
M  CHG  1  12   1
M  END
