
     RDKit          3D

 37 40  0  0  0  0  0  0  0  0999 V2000
    0.9220    5.3540   -0.0040 C   0  0  0  0  0  0  0  0  0  0  0  0
   -0.3820    4.6930   -0.3530 C   0  0  0  0  0  0  0  0  0  0  0  0
   -1.3600    5.2310   -1.1440 N   0  0  0  0  0  0  0  0  0  0  0  0
   -2.3670    4.3740   -1.2430 N   0  0  0  0  0  0  0  0  0  0  0  0
   -3.6200    4.5330   -1.9960 C   0  0  0  0  0  0  0  0  0  0  0  0
   -2.1020    3.2700   -0.5390 C   0  0  0  0  0  0  0  0  0  0  0  0
   -0.8400    3.4570    0.0330 C   0  0  0  0  0  0  0  0  0  0  0  0
   -0.2450    2.3960    0.8700 C   0  0  2  0  0  0  0  0  0  0  0  0
    0.7050    1.5900    0.0970 N   0  0  0  0  0  0  0  0  0  0  0  0
    2.1140    1.7480    0.1940 C   0  0  0  0  0  0  0  0  0  0  0  0
    2.5080    2.6460    0.9940 O   0  0  0  0  0  0  0  0  0  0  0  0
    3.0520    0.9390   -0.5740 C   0  0  0  0  0  0  0  0  0  0  0  0
    2.8420   -0.1420   -1.3890 C   0  0  0  0  0  0  0  0  0  0  0  0
    4.0470   -0.5610   -1.8920 C   0  0  0  0  0  0  0  0  0  0  0  0
    4.9870    0.3240   -1.3370 C   0  0  0  0  0  0  0  0  0  0  0  0
    6.4350    0.2080   -1.6400 C   0  0  0  0  0  0  0  0  0  0  0  0
    7.3180   -0.6990   -0.3690 S   0  0  0  0  0  0  0  0  0  0  0  0
    6.8490   -2.4080   -0.2540 C   0  0  0  0  0  0  0  0  0  0  0  0
    5.9200   -3.0090   -1.0130 N   0  0  0  0  0  0  0  0  0  0  0  0
    5.8430   -4.2930   -0.6320 N   0  0  0  0  0  0  0  0  0  0  0  0
    6.7330   -4.4690    0.3630 C   0  0  0  0  0  0  0  0  0  0  0  0
    6.9410   -5.5570    0.9700 O   0  0  0  0  0  0  0  0  0  0  0  0
    7.3680   -3.3150    0.6140 N   0  0  0  0  0  0  0  0  0  0  0  0
    4.3370    1.1560   -0.5910 O   0  0  0  0  0  0  0  0  0  0  0  0
   -1.2000    1.5820    1.6360 C   0  0  0  0  0  0  0  0  0  0  0  0
   -2.5490    1.4770    1.0730 C   0  0  2  0  0  0  0  0  0  0  0  0
   -3.1620    0.0880    1.1930 C   0  0  0  0  0  0  0  0  0  0  0  0
   -2.4350   -0.9410    0.5490 N   0  0  0  0  0  0  0  0  0  0  0  0
   -3.1120   -1.7510   -0.3950 C   0  0  2  0  0  0  0  0  0  0  0  0
   -4.4510   -1.2870   -0.8650 C   0  0  0  0  0  0  0  0  0  0  0  0
   -3.2560   -3.1990    0.0150 C   0  0  0  0  0  0  0  0  0  0  0  0
   -4.1440   -3.4380    1.5090 S   0  0  1  0  0  0  0  0  0  0  0  0
   -3.4010   -2.8440    2.6960 O   0  0  0  0  0  0  0  0  0  0  0  0
   -5.5250   -2.9180    1.3860 O   0  0  0  0  0  0  0  0  0  0  0  0
   -4.2610   -5.1440    1.8580 N   0  0  0  0  0  0  0  0  0  0  0  0
   -3.1890   -5.5130    2.5890 O   0  0  0  0  0  0  0  0  0  0  0  0
   -2.7080    2.0280   -0.2210 N   0  0  0  0  0  0  0  0  0  0  0  0
  1  2  1  0
  2  3  2  0
  2  7  1  0
  3  4  1  0
  4  5  1  0
  4  6  1  0
  6  7  2  0
  6 37  1  0
  7  8  1  0
  8  9  1  6
  8 25  1  0
  9 10  1  0
 10 11  2  0
 10 12  1  0
 12 13  2  0
 12 24  1  0
 13 14  1  0
 14 15  2  0
 15 16  1  0
 15 24  1  0
 16 17  1  0
 17 18  1  0
 18 19  2  0
 18 23  1  0
 19 20  1  0
 20 21  1  0
 21 22  2  0
 21 23  1  0
 25 26  1  0
 26 27  1  6
 26 37  1  0
 27 28  1  0
 28 29  1  0
 29 30  1  1
 29 31  1  0
 32 31  1  6
 32 33  2  0
 32 34  2  0
 32 35  1  0
 35 36  1  0
M  CHG  1  28   1
M  END
