
     RDKit          3D

 37 42  0  0  0  0  0  0  0  0999 V2000
    1.9100    1.7950   -1.9410 O   0  0  0  0  0  0  0  0  0  0  0  0
    1.9350    1.6660   -0.6680 C   0  0  0  0  0  0  0  0  0  0  0  0
    3.1340    2.1570    0.0420 C   0  0  0  0  0  0  0  0  0  0  0  0
    4.3630    1.5190   -0.5640 C   0  0  0  0  0  0  0  0  0  0  0  0
    4.2430   -0.2930   -0.3460 S   0  0  0  0  0  0  0  0  0  0  0  0
    4.3290   -0.6520    1.3750 C   0  0  0  0  0  0  0  0  0  0  0  0
    5.4240   -0.6930    2.0640 C   0  0  0  0  0  0  0  0  0  0  0  0
    6.7950   -0.4810    1.6830 C   0  0  0  0  0  0  0  0  0  0  0  0
    7.7980   -0.4450    2.6800 C   0  0  0  0  0  0  0  0  0  0  0  0
    9.1030   -0.2550    2.3590 C   0  0  0  0  0  0  0  0  0  0  0  0
    9.5360   -0.0880    1.0660 C   0  0  0  0  0  0  0  0  0  0  0  0
    8.6010   -0.1170    0.0800 C   0  0  0  0  0  0  0  0  0  0  0  0
    7.2520   -0.3130    0.4070 C   0  0  0  0  0  0  0  0  0  0  0  0
    9.1510    0.0570   -1.1180 C   0  0  0  0  0  0  0  0  0  0  0  0
   10.6130    0.2210   -0.9180 C   0  0  0  0  0  0  0  0  0  0  0  0
   10.7410    0.1100    0.5490 C   0  0  0  0  0  0  0  0  0  0  0  0
    0.8520    1.0860   -0.0760 O   0  0  0  0  0  0  0  0  0  0  0  0
   -0.2300    0.6700   -0.8620 C   0  0  2  0  0  0  0  0  0  0  0  0
   -1.5380    1.3100   -0.3770 C   0  0  0  0  0  0  0  0  0  0  0  0
   -2.5370    0.4390   -1.0990 C   0  0  2  0  0  0  0  0  0  0  0  0
   -3.8580    0.4380   -0.4680 C   0  0  0  0  0  0  0  0  0  0  0  0
   -4.2540    1.4600    0.1440 O   0  0  0  0  0  0  0  0  0  0  0  0
   -4.7070   -0.6980   -0.5310 N   0  0  0  0  0  0  0  0  0  0  0  0
   -6.1300   -0.5870   -0.5160 C   0  0  0  0  0  0  0  0  0  0  0  0
   -6.8690   -0.8050   -1.6580 C   0  0  0  0  0  0  0  0  0  0  0  0
   -8.2620   -0.7040   -1.6510 C   0  0  0  0  0  0  0  0  0  0  0  0
   -8.9250   -0.3850   -0.5020 C   0  0  0  0  0  0  0  0  0  0  0  0
   -8.1990   -0.1610    0.6610 C   0  0  0  0  0  0  0  0  0  0  0  0
   -6.8120   -0.2650    0.6370 C   0  0  0  0  0  0  0  0  0  0  0  0
   -8.8710    0.1630    1.8230 O   0  0  0  0  0  0  0  0  0  0  0  0
  -10.2660    0.1560    1.8530 C   0  0  0  0  0  0  0  0  0  0  0  0
  -10.8450    0.5760    0.5380 C   0  0  0  0  0  0  0  0  0  0  0  0
  -10.3140   -0.2800   -0.4740 O   0  0  0  0  0  0  0  0  0  0  0  0
   -4.0540   -1.9870   -0.6090 C   0  0  0  0  0  0  0  0  0  0  0  0
   -2.6510   -1.9990   -1.0410 C   0  0  0  0  0  0  0  0  0  0  0  0
   -1.9290   -0.8300   -1.2160 N   0  0  0  0  0  0  0  0  0  0  0  0
   -0.5810   -0.7960   -0.7210 C   0  0  0  0  0  0  0  0  0  0  0  0
  1  2  2  0
  2  3  1  0
  2 17  1  0
  3  4  1  0
  4  5  1  0
  5  6  1  0
  6  7  2  3
  7  8  1  0
  8  9  1  0
  8 13  2  0
  9 10  2  0
 10 11  1  0
 11 12  1  0
 11 16  2  0
 12 13  1  0
 12 14  2  0
 14 15  1  0
 15 16  1  0
 18 17  1  1
 18 19  1  0
 18 37  1  0
 20 19  1  1
 20 21  1  0
 20 36  1  0
 21 22  2  0
 21 23  1  0
 23 24  1  0
 23 34  1  0
 24 25  2  0
 24 29  1  0
 25 26  1  0
 26 27  2  0
 27 28  1  0
 27 33  1  0
 28 29  2  0
 28 30  1  0
 30 31  1  0
 31 32  1  0
 32 33  1  0
 34 35  1  0
 35 36  1  0
 36 37  1  0
M  END
