
     RDKit          3D

 37 42  0  0  0  0  0  0  0  0999 V2000
   -5.6870    0.5450    2.4710 O   0  0  0  0  0  0  0  0  0  0  0  0
   -5.7720   -0.3620    1.5360 C   0  0  0  0  0  0  0  0  0  0  0  0
   -4.9320   -0.0960    0.3900 C   0  0  0  0  0  0  0  0  0  0  0  0
   -4.9720   -0.7670   -0.8090 C   0  0  0  0  0  0  0  0  0  0  0  0
   -4.1110   -0.5070   -1.8630 C   0  0  0  0  0  0  0  0  0  0  0  0
   -3.1600    0.4680   -1.7290 C   0  0  0  0  0  0  0  0  0  0  0  0
   -2.2390    0.9290   -2.5110 O   0  0  0  0  0  0  0  0  0  0  0  0
   -1.5370    1.8770   -1.9820 C   0  0  0  0  0  0  0  0  0  0  0  0
   -0.4040    2.6850   -2.4910 C   0  0  0  0  0  0  0  0  0  0  0  0
    0.8310    1.9710   -2.1650 N   0  0  0  0  0  0  0  0  0  0  0  0
    1.4850    2.1830   -0.9320 C   0  0  0  0  0  0  0  0  0  0  0  0
    0.9690    3.0080   -0.1280 O   0  0  0  0  0  0  0  0  0  0  0  0
    2.7100    1.5210   -0.5160 C   0  0  0  0  0  0  0  0  0  0  0  0
    3.2500    1.7830    0.6610 C   0  0  0  0  0  0  0  0  0  0  0  0
    4.4620    1.1640    1.1360 C   0  0  0  0  0  0  0  0  0  0  0  0
    4.9850    1.4800    2.3940 C   0  0  0  0  0  0  0  0  0  0  0  0
    6.1360    0.9150    2.8860 C   0  0  0  0  0  0  0  0  0  0  0  0
    6.8180   -0.0070    2.1200 C   0  0  0  0  0  0  0  0  0  0  0  0
    6.3050   -0.3190    0.8820 C   0  0  0  0  0  0  0  0  0  0  0  0
    5.1320    0.2540    0.3730 C   0  0  0  0  0  0  0  0  0  0  0  0
    6.8670   -1.2270   -0.0170 O   0  0  0  0  0  0  0  0  0  0  0  0
    8.0490   -1.9760   -0.0270 C   0  0  0  0  0  0  0  0  0  0  0  0
    8.5230   -2.3380    1.3620 C   0  0  0  0  0  0  0  0  0  0  0  0
    9.0420   -1.1360    2.1130 C   0  0  0  0  0  0  0  0  0  0  0  0
    7.9660   -0.4880    2.7620 O   0  0  0  0  0  0  0  0  0  0  0  0
    1.3630    1.0650   -3.1410 C   0  0  2  0  0  0  0  0  0  0  0  0
    1.5260    1.5860   -4.5690 C   0  0  0  0  0  0  0  0  0  0  0  0
    0.5960    0.4600   -4.2350 C   0  0  0  0  0  0  0  0  0  0  0  0
   -2.0440    2.0760   -0.6980 C   0  0  0  0  0  0  0  0  0  0  0  0
   -3.0770    1.1730   -0.5460 C   0  0  0  0  0  0  0  0  0  0  0  0
   -3.9390    0.9010    0.4880 C   0  0  0  0  0  0  0  0  0  0  0  0
   -6.6470   -1.4040    1.8190 N   0  0  0  0  0  0  0  0  0  0  0  0
   -7.4310   -1.3360    3.0930 C   0  0  0  0  0  0  0  0  0  0  0  0
   -8.8010   -0.8850    2.7490 C   0  0  0  0  0  0  0  0  0  0  0  0
   -9.1810   -1.1130    1.0220 S   0  0  0  0  0  0  0  0  0  0  0  0
   -8.1850   -2.4430    0.2570 C   0  0  0  0  0  0  0  0  0  0  0  0
   -6.9080   -2.6020    1.0710 C   0  0  0  0  0  0  0  0  0  0  0  0
  1  2  2  0
  2  3  1  0
  2 32  1  0
  3  4  2  0
  3 31  1  0
  4  5  1  0
  5  6  2  0
  6  7  1  0
  6 30  1  0
  7  8  1  0
  8  9  1  0
  8 29  2  0
  9 10  1  0
 10 11  1  0
 26 10  1  1
 11 12  2  0
 11 13  1  0
 13 14  2  3
 14 15  1  0
 15 16  2  0
 15 20  1  0
 16 17  1  0
 17 18  2  0
 18 19  1  0
 18 25  1  0
 19 20  2  0
 19 21  1  0
 21 22  1  0
 22 23  1  0
 23 24  1  0
 24 25  1  0
 26 27  1  0
 26 28  1  0
 27 28  1  0
 29 30  1  0
 30 31  2  0
 32 33  1  0
 32 37  1  0
 33 34  1  0
 34 35  1  0
 35 36  1  0
 36 37  1  0
M  END
