
     RDKit          3D

 37 41  0  0  0  0  0  0  0  0999 V2000
   -6.1340   -0.7260   -3.1390 C   0  0  0  0  0  0  0  0  0  0  0  0
   -4.6660   -0.5050   -2.8220 C   0  0  0  0  0  0  0  0  0  0  0  0
   -4.2910   -0.9470   -1.5240 N   0  0  0  0  0  0  0  0  0  0  0  0
   -3.8150   -2.2490   -1.2270 C   0  0  0  0  0  0  0  0  0  0  0  0
   -3.2470   -2.9060   -2.1000 O   0  0  0  0  0  0  0  0  0  0  0  0
   -4.0540   -2.7340    0.1830 C   0  0  0  0  0  0  0  0  0  0  0  0
   -3.5100   -1.7300    1.1580 C   0  0  1  0  0  0  0  0  0  0  0  0
   -2.0230   -1.7460    1.1990 C   0  0  0  0  0  0  0  0  0  0  0  0
   -1.3950   -0.6250    0.9130 C   0  0  0  0  0  0  0  0  0  0  0  0
    0.0930   -0.4880    0.9150 C   0  0  0  0  0  0  0  0  0  0  0  0
    0.5770    0.7260    0.8450 C   0  0  0  0  0  0  0  0  0  0  0  0
   -0.6080    2.1080    0.8210 S   0  0  0  0  0  0  0  0  0  0  0  0
    0.3350    3.4530    1.5280 C   0  0  0  0  0  0  0  0  0  0  0  0
    1.6370    3.3910    1.6510 C   0  0  0  0  0  0  0  0  0  0  0  0
    2.4350    2.2260    1.2900 C   0  0  0  0  0  0  0  0  0  0  0  0
    1.9740    1.0480    0.8830 C   0  0  0  0  0  0  0  0  0  0  0  0
    2.9420    0.1820    0.2350 C   0  0  0  0  0  0  0  0  0  0  0  0
    2.4290   -0.8730   -0.3680 O   0  0  0  0  0  0  0  0  0  0  0  0
    4.3170    0.2080    0.1010 N   0  0  0  0  0  0  0  0  0  0  0  0
    5.2870    1.1040    0.6000 C   0  0  0  0  0  0  0  0  0  0  0  0
    6.6800    0.4640    0.3670 C   0  0  2  0  0  0  0  0  0  0  0  0
    7.7490    1.4230    0.9100 C   0  0  0  0  0  0  0  0  0  0  0  0
    6.9460    0.3180   -0.9710 O   0  0  0  0  0  0  0  0  0  0  0  0
    5.8660   -0.2150   -1.6740 C   0  0  1  0  0  0  0  0  0  0  0  0
    6.2870   -1.0970   -2.8130 C   0  0  0  0  0  0  0  0  0  0  0  0
    4.9040   -0.8960   -0.7250 C   0  0  0  0  0  0  0  0  0  0  0  0
    0.8140   -1.6880    1.2610 C   0  0  0  0  0  0  0  0  0  0  0  0
    0.1810   -2.8510    1.5560 C   0  0  0  0  0  0  0  0  0  0  0  0
   -1.2670   -2.9280    1.5360 C   0  0  0  0  0  0  0  0  0  0  0  0
   -1.8920   -3.9770    1.8000 O   0  0  0  0  0  0  0  0  0  0  0  0
   -4.0230   -0.3880    0.8260 C   0  0  0  0  0  0  0  0  0  0  0  0
   -4.3700   -0.0450   -0.3950 C   0  0  0  0  0  0  0  0  0  0  0  0
   -4.8610    1.3390   -0.6330 C   0  0  0  0  0  0  0  0  0  0  0  0
   -5.8780    1.6850    0.4310 C   0  0  0  0  0  0  0  0  0  0  0  0
   -5.2350    1.6840    1.8070 C   0  0  0  0  0  0  0  0  0  0  0  0
   -4.1880    0.6320    1.8890 C   0  0  0  0  0  0  0  0  0  0  0  0
   -3.4370    0.6120    2.8760 O   0  0  0  0  0  0  0  0  0  0  0  0
  1  2  1  0
  2  3  1  0
  3  4  1  0
  3 32  1  0
  4  5  2  0
  4  6  1  0
  6  7  1  0
  7  8  1  6
  7 31  1  0
  8  9  2  0
  8 29  1  0
  9 10  1  0
 10 11  2  3
 10 27  1  0
 11 12  1  0
 11 16  1  0
 12 13  1  0
 13 14  2  0
 14 15  1  0
 15 16  2  0
 16 17  1  0
 17 18  2  0
 17 19  1  0
 19 20  1  0
 19 26  1  0
 20 21  1  0
 21 22  1  6
 21 23  1  0
 23 24  1  0
 24 25  1  6
 24 26  1  0
 27 28  2  0
 28 29  1  0
 29 30  2  0
 31 32  2  0
 31 36  1  0
 32 33  1  0
 33 34  1  0
 34 35  1  0
 35 36  1  0
 36 37  2  0
M  END
