
     RDKit          3D

 37 42  0  0  0  0  0  0  0  0999 V2000
    4.4470    2.1200    2.3540 C   0  0  0  0  0  0  0  0  0  0  0  0
    4.0830    1.0490    1.3280 C   0  0  1  0  0  0  0  0  0  0  0  0
    2.6400    1.1790    1.0190 C   0  0  0  0  0  0  0  0  0  0  0  0
    2.0990    0.1810    0.0180 C   0  0  0  0  0  0  0  0  0  0  0  0
    2.2870   -1.2210    0.5070 C   0  0  0  0  0  0  0  0  0  0  0  0
    1.8160   -2.1620   -0.3530 O   0  0  0  0  0  0  0  0  0  0  0  0
    0.5470   -2.4400   -0.7670 C   0  0  0  0  0  0  0  0  0  0  0  0
    0.3950   -3.4760   -1.7220 C   0  0  0  0  0  0  0  0  0  0  0  0
   -0.8360   -3.8320   -2.1970 C   0  0  0  0  0  0  0  0  0  0  0  0
   -1.9550   -3.1900   -1.7540 C   0  0  0  0  0  0  0  0  0  0  0  0
   -1.8750   -2.1590   -0.8100 C   0  0  0  0  0  0  0  0  0  0  0  0
   -2.9530   -1.5100   -0.3270 N   0  0  0  0  0  0  0  0  0  0  0  0
   -3.6880   -0.5530   -0.5000 C   0  0  0  0  0  0  0  0  0  0  0  0
   -3.6370    0.4210   -1.5040 C   0  0  0  0  0  0  0  0  0  0  0  0
   -2.6360    0.3220   -2.4440 C   0  0  0  0  0  0  0  0  0  0  0  0
   -2.6050    1.3060   -3.4370 C   0  0  0  0  0  0  0  0  0  0  0  0
   -3.5340    2.3250   -3.4690 C   0  0  0  0  0  0  0  0  0  0  0  0
   -4.5150    2.3970   -2.5240 C   0  0  0  0  0  0  0  0  0  0  0  0
   -4.5700    1.4400   -1.5330 C   0  0  0  0  0  0  0  0  0  0  0  0
   -5.5210    1.5290   -0.6350 O   0  0  0  0  0  0  0  0  0  0  0  0
   -5.6040    0.6420    0.3180 C   0  0  0  0  0  0  0  0  0  0  0  0
   -6.6210    0.7300    1.2850 C   0  0  0  0  0  0  0  0  0  0  0  0
   -6.7350   -0.1900    2.3000 C   0  0  0  0  0  0  0  0  0  0  0  0
   -5.8500   -1.2350    2.4040 C   0  0  0  0  0  0  0  0  0  0  0  0
   -4.8400   -1.3360    1.4570 C   0  0  0  0  0  0  0  0  0  0  0  0
   -4.7400   -0.4000    0.4390 C   0  0  0  0  0  0  0  0  0  0  0  0
   -7.8310    0.1660    3.0870 O   0  0  0  0  0  0  0  0  0  0  0  0
   -8.5640    1.1690    2.3720 C   0  0  0  0  0  0  0  0  0  0  0  0
   -7.6240    1.6640    1.4120 O   0  0  0  0  0  0  0  0  0  0  0  0
   -0.5920   -1.8410   -0.3630 C   0  0  0  0  0  0  0  0  0  0  0  0
    4.9940    1.1250    0.1600 C   0  0  0  0  0  0  0  0  0  0  0  0
    4.5610    1.4010   -1.0060 O   0  0  0  0  0  0  0  0  0  0  0  0
    6.3740    0.8860    0.3490 N   0  0  0  0  0  0  0  0  0  0  0  0
    7.3480    0.9290   -0.6810 C   0  0  0  0  0  0  0  0  0  0  0  0
    8.1920   -0.3200   -0.6250 C   0  0  0  0  0  0  0  0  0  0  0  0
    8.3590   -0.5110    1.1920 S   0  0  0  0  0  0  0  0  0  0  0  0
    6.9440    0.5680    1.6430 C   0  0  0  0  0  0  0  0  0  0  0  0
  2  1  1  1
  2  3  1  0
  2 31  1  0
  3  4  1  0
  4  5  1  0
  5  6  1  0
  6  7  1  0
  7  8  2  0
  7 30  1  0
  8  9  1  0
  9 10  2  0
 10 11  1  0
 11 12  1  0
 11 30  2  0
 12 13  2  3
 13 14  1  0
 13 26  1  0
 14 15  2  0
 14 19  1  0
 15 16  1  0
 16 17  2  0
 17 18  1  0
 18 19  2  0
 19 20  1  0
 20 21  1  0
 21 22  2  0
 21 26  1  0
 22 23  1  0
 22 29  1  0
 23 24  2  0
 23 27  1  0
 24 25  1  0
 25 26  2  0
 27 28  1  0
 28 29  1  0
 31 32  2  0
 31 33  1  0
 33 34  1  0
 33 37  1  0
 34 35  1  0
 35 36  1  0
 36 37  1  0
M  END
