
     RDKit          3D

 37 41  0  0  0  0  0  0  0  0999 V2000
    9.8050   -0.8020   -0.6730 C   0  0  0  0  0  0  0  0  0  0  0  0
    8.5470   -0.0020   -0.4640 C   0  0  0  0  0  0  0  0  0  0  0  0
    8.4920    0.7830    0.6470 C   0  0  0  0  0  0  0  0  0  0  0  0
    7.3910    1.5450    0.9270 C   0  0  0  0  0  0  0  0  0  0  0  0
    6.3220    1.4970    0.0410 C   0  0  0  0  0  0  0  0  0  0  0  0
    5.1230    2.3150    0.3630 C   0  0  1  0  0  0  0  0  0  0  0  0
    5.0100    3.5750   -0.4070 C   0  0  0  0  0  0  0  0  0  0  0  0
    3.9540    1.5200    0.1300 O   0  0  0  0  0  0  0  0  0  0  0  0
    3.1490    1.1090    1.2130 C   0  0  0  0  0  0  0  0  0  0  0  0
    3.5080    1.4630    2.3470 O   0  0  0  0  0  0  0  0  0  0  0  0
    1.9620    0.3040    0.9450 C   0  0  0  0  0  0  0  0  0  0  0  0
    1.1840   -0.2150    1.9580 C   0  0  0  0  0  0  0  0  0  0  0  0
    0.0470   -0.9610    1.7310 C   0  0  0  0  0  0  0  0  0  0  0  0
   -0.3380   -1.2040    0.4190 C   0  0  0  0  0  0  0  0  0  0  0  0
    0.4080   -0.7050   -0.6090 C   0  0  0  0  0  0  0  0  0  0  0  0
   -0.2110   -1.1010   -1.7600 C   0  0  0  0  0  0  0  0  0  0  0  0
   -1.3190   -1.8330   -1.3880 C   0  0  0  0  0  0  0  0  0  0  0  0
   -1.4130   -1.9070   -0.0550 N   0  0  0  0  0  0  0  0  0  0  0  0
   -2.3890   -2.5780    0.7780 C   0  0  0  0  0  0  0  0  0  0  0  0
   -3.4930   -1.6630    1.1170 C   0  0  0  0  0  0  0  0  0  0  0  0
   -3.2120   -0.7910    2.0130 O   0  0  0  0  0  0  0  0  0  0  0  0
   -4.7870   -1.6640    0.5630 N   0  0  0  0  0  0  0  0  0  0  0  0
   -5.1530   -2.6110   -0.4410 C   0  0  0  0  0  0  0  0  0  0  0  0
   -5.8580   -3.7850    0.2410 C   0  0  0  0  0  0  0  0  0  0  0  0
   -6.9680   -3.0580    1.4760 S   0  0  0  0  0  0  0  0  0  0  0  0
   -7.1600   -1.3090    1.0320 C   0  0  0  0  0  0  0  0  0  0  0  0
   -5.7610   -0.7140    1.0200 C   0  0  2  0  0  0  0  0  0  0  0  0
   -5.7210    0.5870    0.3090 C   0  0  0  0  0  0  0  0  0  0  0  0
   -4.9540    0.8120   -0.7420 C   0  0  0  0  0  0  0  0  0  0  0  0
   -4.8580    2.0640   -1.4980 C   0  0  0  0  0  0  0  0  0  0  0  0
   -5.6320    3.2120   -0.9560 C   0  0  0  0  0  0  0  0  0  0  0  0
   -6.4970    2.8900    0.1040 O   0  0  0  0  0  0  0  0  0  0  0  0
   -6.5550    1.6970    0.7730 C   0  0  0  0  0  0  0  0  0  0  0  0
   -7.3070    1.5220    1.7860 O   0  0  0  0  0  0  0  0  0  0  0  0
    1.5580    0.0490   -0.3400 C   0  0  0  0  0  0  0  0  0  0  0  0
    6.3360    0.7220   -1.0890 C   0  0  0  0  0  0  0  0  0  0  0  0
    7.4860   -0.0400   -1.3300 C   0  0  0  0  0  0  0  0  0  0  0  0
  1  2  1  0
  2  3  2  0
  2 37  1  0
  3  4  1  0
  4  5  2  0
  5  6  1  0
  5 36  1  0
  6  7  1  6
  6  8  1  0
  8  9  1  0
  9 10  2  0
  9 11  1  0
 11 12  2  0
 11 35  1  0
 12 13  1  0
 13 14  2  0
 14 15  1  0
 14 18  1  0
 15 16  1  0
 15 35  2  0
 16 17  2  0
 17 18  1  0
 18 19  1  0
 19 20  1  0
 20 21  2  0
 20 22  1  0
 22 23  1  0
 22 27  1  0
 23 24  1  0
 24 25  1  0
 25 26  1  0
 26 27  1  0
 27 28  1  6
 28 29  2  0
 28 33  1  0
 29 30  1  0
 30 31  1  0
 31 32  1  0
 32 33  1  0
 33 34  2  0
 36 37  2  0
M  END
