
     RDKit          3D

 37 41  0  0  0  0  0  0  0  0999 V2000
   -8.4280   -0.3000    1.7590 C   0  0  0  0  0  0  0  0  0  0  0  0
   -7.0800   -0.3770    1.1030 C   0  0  0  0  0  0  0  0  0  0  0  0
   -6.3960   -1.5850    1.2450 C   0  0  0  0  0  0  0  0  0  0  0  0
   -5.1720   -1.6970    0.6500 C   0  0  0  0  0  0  0  0  0  0  0  0
   -4.6370   -0.6240   -0.0780 C   0  0  0  0  0  0  0  0  0  0  0  0
   -5.3190    0.5470   -0.2060 C   0  0  0  0  0  0  0  0  0  0  0  0
   -6.5510    0.6610    0.3930 C   0  0  0  0  0  0  0  0  0  0  0  0
   -7.3200    1.9000    0.2200 C   0  0  0  0  0  0  0  0  0  0  0  0
   -6.6770    2.8930   -0.7000 C   0  0  0  0  0  0  0  0  0  0  0  0
   -5.8960    2.1910   -1.7940 C   0  0  0  0  0  0  0  0  0  0  0  0
   -4.6720    1.6070   -1.0140 C   0  0  0  0  0  0  0  0  0  0  0  0
   -3.3740   -0.8280   -0.6830 N   0  0  0  0  0  0  0  0  0  0  0  0
   -2.3730    0.1150   -0.5780 C   0  0  0  0  0  0  0  0  0  0  0  0
   -2.3210    1.1070    0.1150 O   0  0  0  0  0  0  0  0  0  0  0  0
   -1.1330   -0.1460   -1.4550 C   0  0  0  0  0  0  0  0  0  0  0  0
   -0.1560   -0.3930   -0.5020 O   0  0  0  0  0  0  0  0  0  0  0  0
    0.6060    0.5780    0.1200 C   0  0  0  0  0  0  0  0  0  0  0  0
    0.5090    1.7800   -0.1780 O   0  0  0  0  0  0  0  0  0  0  0  0
    1.5280    0.0760    1.1320 C   0  0  0  0  0  0  0  0  0  0  0  0
    1.3410   -1.5070    1.9630 S   0  0  0  0  0  0  0  0  0  0  0  0
    2.9230   -1.4450    2.8040 C   0  0  0  0  0  0  0  0  0  0  0  0
    3.4390   -0.2520    2.3800 C   0  0  0  0  0  0  0  0  0  0  0  0
    2.7680    0.5250    1.5440 C   0  0  0  0  0  0  0  0  0  0  0  0
    3.2070    1.9080    0.9640 C   0  0  0  0  0  0  0  0  0  0  0  0
    4.0890    1.6360   -0.0310 O   0  0  0  0  0  0  0  0  0  0  0  0
    5.2810    1.0920   -0.2290 C   0  0  0  0  0  0  0  0  0  0  0  0
    6.1660    0.6610    0.7170 C   0  0  0  0  0  0  0  0  0  0  0  0
    7.3880    0.0540    0.3950 C   0  0  0  0  0  0  0  0  0  0  0  0
    7.7700   -0.1420   -0.9130 C   0  0  0  0  0  0  0  0  0  0  0  0
    8.9710   -0.8620   -1.2240 N   0  0  0  0  0  0  0  0  0  0  0  0
    8.9020   -2.3260   -1.4010 C   0  0  0  0  0  0  0  0  0  0  0  0
   10.2050   -0.1890   -1.3600 C   0  0  0  0  0  0  0  0  0  0  0  0
    6.8970    0.2950   -1.8990 C   0  0  0  0  0  0  0  0  0  0  0  0
    5.7100    0.8850   -1.5790 C   0  0  0  0  0  0  0  0  0  0  0  0
   -3.1270   -2.1240   -1.3370 C   0  0  0  0  0  0  0  0  0  0  0  0
   -3.6230   -3.2470   -0.4530 C   0  0  0  0  0  0  0  0  0  0  0  0
   -4.3460   -2.8170    0.6850 O   0  0  0  0  0  0  0  0  0  0  0  0
  1  2  1  0
  2  3  2  0
  2  7  1  0
  3  4  1  0
  4  5  2  0
  4 37  1  0
  5  6  1  0
  5 12  1  0
  6  7  2  0
  6 11  1  0
  7  8  1  0
  8  9  1  0
  9 10  1  0
 10 11  1  0
 12 13  1  0
 12 35  1  0
 13 14  2  0
 13 15  1  0
 15 16  1  0
 16 17  1  0
 17 18  2  0
 17 19  1  0
 19 20  1  0
 19 23  2  0
 20 21  1  0
 21 22  2  0
 22 23  1  0
 23 24  1  0
 24 25  1  0
 25 26  1  0
 26 27  2  0
 26 34  1  0
 27 28  1  0
 28 29  2  0
 29 30  1  0
 29 33  1  0
 30 31  1  0
 30 32  1  0
 33 34  2  0
 35 36  1  0
 36 37  1  0
M  END
