
     RDKit          3D

 14 14  0  0  0  0  0  0  0  0999 V2000
   -1.7910    1.1580   -0.8130 C   0  0  0  0  0  0  0  0  0  0  0  0
   -1.2890    0.1830    0.1750 N   0  0  2  0  0  0  0  0  0  0  0  0
   -2.5290   -0.4190    0.7030 C   0  0  0  0  0  0  0  0  0  0  0  0
   -0.6820    0.8880    1.2380 C   0  0  0  0  0  0  0  0  0  0  0  0
   -0.5220   -0.7770   -0.5300 C   0  0  1  0  0  0  0  0  0  0  0  0
    0.6300   -0.3020   -1.3160 C   0  0  0  0  0  0  0  0  0  0  0  0
    1.7130    0.3870   -0.6270 C   0  0  0  0  0  0  0  0  0  0  0  0
    1.8330    1.7390   -0.4470 C   0  0  0  0  0  0  0  0  0  0  0  0
    2.9850    1.9300    0.2460 N   0  0  0  0  0  0  0  0  0  0  0  0
    3.5320    0.7280    0.4700 C   0  0  0  0  0  0  0  0  0  0  0  0
    2.7750   -0.2420   -0.0530 N   0  0  0  0  0  0  0  0  0  0  0  0
   -0.1760   -1.9740    0.3170 C   0  0  0  0  0  0  0  0  0  0  0  0
   -0.5010   -2.1210    1.4970 O   0  0  0  0  0  0  0  0  0  0  0  0
    0.5690   -2.9960   -0.2790 O   0  0  0  0  0  0  0  0  0  0  0  0
  2  1  1  6
  2  3  1  0
  2  4  1  0
  2  5  1  0
  5  6  1  1
  5 12  1  0
  6  7  1  0
  7  8  2  0
  7 11  1  0
  8  9  1  0
  9 10  2  0
 10 11  1  0
 12 13  2  0
 12 14  1  0
M  CHG  1   2   1
M  END
