
     RDKit          3D

 14 14  0  0  0  0  0  0  0  0999 V2000
   -0.2040    1.7530   -2.0270 C   0  0  0  0  0  0  0  0  0  0  0  0
   -0.8300    0.8780   -1.0060 C   0  0  0  0  0  0  0  0  0  0  0  0
   -2.1600    0.9600   -0.6980 N   0  0  0  0  0  0  0  0  0  0  0  0
   -2.4570    0.0570    0.2050 N   0  0  0  0  0  0  0  0  0  0  0  0
   -3.7860   -0.1530    0.7770 C   0  0  0  0  0  0  0  0  0  0  0  0
   -1.3900   -0.6600    0.5500 C   0  0  0  0  0  0  0  0  0  0  0  0
   -1.2780   -1.7760    1.5310 C   0  0  0  0  0  0  0  0  0  0  0  0
   -0.3300   -0.1320   -0.2310 C   0  0  0  0  0  0  0  0  0  0  0  0
    0.9910   -0.6090   -0.1180 N   0  0  0  0  0  0  0  0  0  0  0  0
    2.1870    0.1020   -0.3080 C   0  0  0  0  0  0  0  0  0  0  0  0
    2.2040    1.3180   -0.6060 O   0  0  0  0  0  0  0  0  0  0  0  0
    3.5320   -0.5360   -0.1700 C   0  0  0  0  0  0  0  0  0  0  0  0
    4.6260    0.3950   -0.4130 C   0  0  0  0  0  0  0  0  0  0  0  0
    4.4200    1.5580   -0.6950 O   0  0  0  0  0  0  0  0  0  0  0  0
  1  2  1  0
  2  3  1  0
  2  8  2  0
  3  4  1  0
  4  5  1  0
  4  6  2  0
  6  7  1  0
  6  8  1  0
  8  9  1  0
  9 10  1  0
 10 11  2  0
 10 12  1  0
 12 13  1  0
 13 14  2  0
M  CHG  1   4   1
M  END
