
     RDKit          3D

 14 14  0  0  0  0  0  0  0  0999 V2000
    4.0720    0.7090    2.0590 C   0  0  0  0  0  0  0  0  0  0  0  0
    3.6910    0.3850    0.6310 C   0  0  0  0  0  0  0  0  0  0  0  0
    2.1880    0.3700    0.5010 C   0  0  0  0  0  0  0  0  0  0  0  0
    1.7650    0.0640   -0.8480 N   0  0  0  0  0  0  0  0  0  0  0  0
    0.3970   -0.0030   -1.2010 C   0  0  0  0  0  0  0  0  0  0  0  0
   -0.6180    0.2200   -0.2690 C   0  0  0  0  0  0  0  0  0  0  0  0
   -1.9170    0.1590   -0.5890 N   0  0  0  0  0  0  0  0  0  0  0  0
   -2.9850    0.3900    0.3720 C   0  0  0  0  0  0  0  0  0  0  0  0
   -3.3030   -0.9770    0.9740 C   0  0  0  0  0  0  0  0  0  0  0  0
   -4.3230   -0.8320    1.9090 O   0  0  0  0  0  0  0  0  0  0  0  0
   -2.2610   -0.1280   -1.8590 C   0  0  0  0  0  0  0  0  0  0  0  0
   -1.3140   -0.3510   -2.7890 N   0  0  0  0  0  0  0  0  0  0  0  0
   -0.0080   -0.2920   -2.4760 C   0  0  0  0  0  0  0  0  0  0  0  0
    0.8160   -0.5120   -3.4020 O   0  0  0  0  0  0  0  0  0  0  0  0
  1  2  1  0
  2  3  1  0
  3  4  1  0
  4  5  1  0
  5  6  2  0
  5 13  1  0
  6  7  1  0
  7  8  1  0
  7 11  1  0
  8  9  1  0
  9 10  1  0
 11 12  2  0
 12 13  1  0
 13 14  2  0
M  CHG  1  12   1
M  END
