
     RDKit          3D

 14 14  0  0  0  0  0  0  0  0999 V2000
   -4.4220    0.2030    0.3520 N   0  0  0  0  0  0  0  0  0  0  0  0
   -3.4970    0.8450    0.0030 C   0  0  0  0  0  0  0  0  0  0  0  0
   -2.3620    1.6350   -0.4520 C   0  0  0  0  0  0  0  0  0  0  0  0
   -1.3670    0.7720   -1.1830 C   0  0  0  0  0  0  0  0  0  0  0  0
   -0.8650   -0.2330   -0.3650 N   0  0  0  0  0  0  0  0  0  0  0  0
   -1.6600   -1.2980    0.0650 C   0  0  0  0  0  0  0  0  0  0  0  0
   -0.8650   -2.6000    0.2940 C   0  0  0  0  0  0  0  0  0  0  0  0
    0.1730   -2.3160    1.2640 O   0  0  0  0  0  0  0  0  0  0  0  0
    0.5170   -0.9760    1.3310 C   0  0  0  0  0  0  0  0  0  0  0  0
    0.8370   -0.3580    2.3570 O   0  0  0  0  0  0  0  0  0  0  0  0
    0.4820   -0.2630    0.0300 C   0  0  2  0  0  0  0  0  0  0  0  0
    1.1590    1.0730    0.1690 C   0  0  0  0  0  0  0  0  0  0  0  0
    2.5850    0.9630    0.5840 C   0  0  0  0  0  0  0  0  0  0  0  0
    3.3970    0.2040   -0.3560 N   0  0  0  0  0  0  0  0  0  0  0  0
  1  2  3  0
  2  3  1  0
  3  4  1  0
  4  5  1  0
  5  6  1  0
  5 11  1  0
  6  7  1  0
  7  8  1  0
  8  9  1  0
  9 10  2  0
  9 11  1  0
 11 12  1  1
 12 13  1  0
 13 14  1  0
M  CHG  1  14   1
M  END
