
     RDKit          3D

 14 14  0  0  0  0  0  0  0  0999 V2000
    1.8910   -2.5380    0.9310 C   0  0  0  0  0  0  0  0  0  0  0  0
    1.7500   -1.2020    1.2970 O   0  0  0  0  0  0  0  0  0  0  0  0
    1.4830   -0.4460    0.1320 C   0  0  0  0  0  0  0  0  0  0  0  0
    1.3320    0.9810    0.5070 C   0  0  0  0  0  0  0  0  0  0  0  0
    0.2200    1.6400    0.2760 C   0  0  0  0  0  0  0  0  0  0  0  0
   -0.9160    1.0120   -0.3580 C   0  0  1  0  0  0  0  0  0  0  0  0
   -0.7000    0.5210   -1.7050 N   0  0  0  0  0  0  0  0  0  0  0  0
   -1.7410   -0.4320   -1.9700 C   0  0  0  0  0  0  0  0  0  0  0  0
   -2.2990   -0.7840   -0.6260 C   0  0  0  0  0  0  0  0  0  0  0  0
   -3.2910   -1.5640   -0.3620 N   0  0  0  0  0  0  0  0  0  0  0  0
   -1.5190   -0.0870    0.3330 N   0  0  0  0  0  0  0  0  0  0  0  0
   -1.3660   -0.4200    1.7440 C   0  0  0  0  0  0  0  0  0  0  0  0
    2.3860    1.6590    1.1240 O   0  0  0  0  0  0  0  0  0  0  0  0
    2.8080    2.9380    0.6860 C   0  0  0  0  0  0  0  0  0  0  0  0
  1  2  1  0
  2  3  1  0
  3  4  1  0
  4  5  2  3
  4 13  1  0
  6  5  1  1
  6  7  1  0
  6 11  1  0
  7  8  1  0
  8  9  1  0
  9 10  2  0
  9 11  1  0
 11 12  1  0
 13 14  1  0
M  CHG  1  10   1
M  END
