
     RDKit          3D

 13 13  0  0  0  0  0  0  0  0999 V2000
    3.9640    0.6460   -0.2450 C   0  0  0  0  0  0  0  0  0  0  0  0
    2.8790    1.0260   -1.0100 O   0  0  0  0  0  0  0  0  0  0  0  0
    2.1510   -0.0390   -1.4870 C   0  0  0  0  0  0  0  0  0  0  0  0
    1.5770   -0.9170   -0.4350 C   0  0  0  0  0  0  0  0  0  0  0  0
    0.6650   -0.3360    0.5550 C   0  0  2  0  0  0  0  0  0  0  0  0
    0.2900   -1.5090    1.5020 C   0  0  0  0  0  0  0  0  0  0  0  0
   -0.7830   -0.9150    2.2350 N   0  0  0  0  0  0  0  0  0  0  0  0
   -1.3550   -0.0200    1.4920 C   0  0  0  0  0  0  0  0  0  0  0  0
   -2.4570    0.7480    1.9280 N   0  0  0  0  0  0  0  0  0  0  0  0
   -0.6640    0.0250    0.2000 N   0  0  0  0  0  0  0  0  0  0  0  0
   -1.3960    0.3810   -0.9680 C   0  0  1  0  0  0  0  0  0  0  0  0
   -2.5480   -0.5560   -1.2960 C   0  0  0  0  0  0  0  0  0  0  0  0
   -2.0940    1.7430   -0.7550 C   0  0  0  0  0  0  0  0  0  0  0  0
  1  2  1  0
  2  3  1  0
  3  4  1  0
  5  4  1  6
  5  6  1  0
  5 10  1  0
  6  7  1  0
  7  8  2  0
  8  9  1  0
  8 10  1  0
 10 11  1  0
 11 12  1  1
 11 13  1  0
M  CHG  1   7   1
M  END
