
     RDKit          3D

  9  8  0  0  0  0  0  0  0  0999 V2000
    2.5720    1.2920   -0.3290 C   0  0  0  0  0  0  0  0  0  0  0  0
    2.2860   -0.1540   -0.2160 C   0  0  0  0  0  0  0  0  0  0  0  0
    3.4020   -1.1200   -0.3040 C   0  0  0  0  0  0  0  0  0  0  0  0
    1.0390   -0.5320   -0.0410 C   0  0  0  0  0  0  0  0  0  0  0  0
   -0.0520    0.4150    0.0450 C   0  0  0  0  0  0  0  0  0  0  0  0
   -1.2950    0.0260    0.2200 C   0  0  0  0  0  0  0  0  0  0  0  0
   -1.5710   -1.4480    0.3330 C   0  0  0  0  0  0  0  0  0  0  0  0
   -2.4470    0.9350    0.3150 C   0  0  0  0  0  0  0  0  0  0  0  0
   -3.3740    0.6260   -0.7460 N   0  0  0  0  0  0  0  0  0  0  0  0
  1  2  1  0
  2  3  1  0
  2  4  2  3
  4  5  1  0
  5  6  2  3
  6  7  1  0
  6  8  1  0
  8  9  1  0
M  CHG  1   9   1
M  END
