
     RDKit          3D

 10 10  0  0  0  0  0  0  0  0999 V2000
    3.0930   -0.7860    0.1980 C   0  0  0  0  0  0  0  0  0  0  0  0
    1.6440   -0.5760    0.0030 C   0  0  0  0  0  0  0  0  0  0  0  0
    0.9110   -1.6760   -0.0810 C   0  0  0  0  0  0  0  0  0  0  0  0
   -0.5560   -1.7220   -0.2740 C   0  0  0  0  0  0  0  0  0  0  0  0
   -1.4410   -0.7470   -0.0460 C   0  0  0  0  0  0  0  0  0  0  0  0
   -2.8610   -1.0940   -0.3380 C   0  0  0  0  0  0  0  0  0  0  0  0
   -1.2570    0.6130    0.4490 C   0  0  0  0  0  0  0  0  0  0  0  0
   -0.0150    1.2850    0.1130 C   0  0  0  0  0  0  0  0  0  0  0  0
   -0.0810    2.7070   -0.0470 N   0  0  0  0  0  0  0  0  0  0  0  0
    1.1950    0.8030   -0.0740 C   0  0  0  0  0  0  0  0  0  0  0  0
  1  2  1  0
  2  3  2  0
  2 10  1  0
  3  4  1  0
  4  5  2  0
  5  6  1  0
  5  7  1  0
  7  8  1  0
  8  9  1  0
  8 10  2  0
M  CHG  1   9   1
M  END
