
     RDKit          3D

 10 10  0  0  0  0  0  0  0  0999 V2000
    3.2850   -0.1640   -0.4950 C   0  0  0  0  0  0  0  0  0  0  0  0
    1.8080    0.0980   -0.7290 C   0  0  0  0  0  0  0  0  0  0  0  0
    1.1510    0.2560    0.6030 C   0  0  0  0  0  0  0  0  0  0  0  0
   -0.3290    0.5200    0.4770 C   0  0  2  0  0  0  0  0  0  0  0  0
   -0.5120    1.7800   -0.3040 C   0  0  0  0  0  0  0  0  0  0  0  0
   -0.8140    0.7900    1.8370 N   0  0  0  0  0  0  0  0  0  0  0  0
   -1.0650   -0.6570   -0.1140 C   0  0  2  0  0  0  0  0  0  0  0  0
   -1.0050   -1.9780    0.6210 C   0  0  0  0  0  0  0  0  0  0  0  0
   -1.2990   -0.7000   -1.5830 C   0  0  0  0  0  0  0  0  0  0  0  0
   -2.4480   -0.3460   -0.6550 C   0  0  0  0  0  0  0  0  0  0  0  0
  1  2  1  0
  2  3  1  0
  3  4  1  0
  4  5  1  6
  4  6  1  0
  4  7  1  0
  7  8  1  1
  7  9  1  0
  7 10  1  0
  9 10  1  0
M  CHG  1   6   1
M  END
