
     RDKit          3D

 10 10  0  0  0  0  0  0  0  0999 V2000
    4.1150   -0.1120    0.7200 C   0  0  0  0  0  0  0  0  0  0  0  0
    3.0860    0.4310   -0.2500 C   0  0  0  0  0  0  0  0  0  0  0  0
    1.7170    0.0030    0.2930 C   0  0  0  0  0  0  0  0  0  0  0  0
    0.6940    0.5460   -0.6760 C   0  0  0  0  0  0  0  0  0  0  0  0
   -0.6790    0.2040   -0.2690 C   0  0  0  0  0  0  0  0  0  0  0  0
   -0.8930   -0.4940    0.8230 C   0  0  0  0  0  0  0  0  0  0  0  0
   -2.2480   -0.8820    1.3050 C   0  0  0  0  0  0  0  0  0  0  0  0
   -3.2590   -0.1200    0.4740 C   0  0  0  0  0  0  0  0  0  0  0  0
   -2.8980   -0.2620   -0.9280 N   0  0  0  0  0  0  0  0  0  0  0  0
   -1.7950    0.6860   -1.1510 C   0  0  0  0  0  0  0  0  0  0  0  0
  1  2  1  0
  2  3  1  0
  3  4  1  0
  4  5  1  0
  5  6  2  0
  5 10  1  0
  6  7  1  0
  7  8  1  0
  8  9  1  0
  9 10  1  0
M  CHG  1   9   1
M  END
