
     RDKit          3D

 10 10  0  0  0  0  0  0  0  0999 V2000
    3.6890    0.6210   -0.5770 C   0  0  0  0  0  0  0  0  0  0  0  0
    2.6940   -0.1320    0.2800 C   0  0  0  0  0  0  0  0  0  0  0  0
    1.2850    0.0040   -0.2780 C   0  0  0  0  0  0  0  0  0  0  0  0
    0.3600   -0.7810    0.6420 C   0  0  0  0  0  0  0  0  0  0  0  0
   -1.0420   -0.7340    0.2160 C   0  0  0  0  0  0  0  0  0  0  0  0
   -1.8210   -1.7700   -0.1170 C   0  0  0  0  0  0  0  0  0  0  0  0
   -3.1170   -1.3070   -0.4720 N   0  0  0  0  0  0  0  0  0  0  0  0
   -3.0590    0.0960   -0.3260 C   0  0  0  0  0  0  0  0  0  0  0  0
   -1.8460    0.4740    0.0810 C   0  0  0  0  0  0  0  0  0  0  0  0
   -1.4330    1.8850    0.3370 C   0  0  0  0  0  0  0  0  0  0  0  0
  1  2  1  0
  2  3  1  0
  3  4  1  0
  4  5  1  0
  5  6  2  0
  5  9  1  0
  6  7  1  0
  7  8  1  0
  8  9  2  0
  9 10  1  0
M  CHG  1   7   1
M  END
