
     RDKit          3D

 10 10  0  0  0  0  0  0  0  0999 V2000
    3.6280    0.3540    0.3180 C   0  0  0  0  0  0  0  0  0  0  0  0
    2.5630   -0.7310    0.3060 C   0  0  0  0  0  0  0  0  0  0  0  0
    1.3450   -0.2940   -0.3970 C   0  0  0  0  0  0  0  0  0  0  0  0
    0.2050   -0.2560    0.2320 C   0  0  0  0  0  0  0  0  0  0  0  0
    0.1530   -0.6550    1.6550 C   0  0  0  0  0  0  0  0  0  0  0  0
   -1.0370    0.1760   -0.4360 C   0  0  1  0  0  0  0  0  0  0  0  0
   -0.8140    0.8040   -1.7390 N   0  0  0  0  0  0  0  0  0  0  0  0
   -2.1460   -0.8300   -0.4810 C   0  0  0  0  0  0  0  0  0  0  0  0
   -3.0340    0.0240    0.3920 C   0  0  0  0  0  0  0  0  0  0  0  0
   -1.9400    1.0680    0.3940 C   0  0  0  0  0  0  0  0  0  0  0  0
  1  2  1  0
  2  3  1  0
  3  4  2  3
  4  5  1  0
  4  6  1  0
  6  7  1  6
  6  8  1  0
  6 10  1  0
  8  9  1  0
  9 10  1  0
M  CHG  1   7   1
M  END
