
     RDKit          3D

 36 39  0  0  0  0  0  0  0  0999 V2000
    8.7090   -0.2650    0.9020 C   0  0  0  0  0  0  0  0  0  0  0  0
    9.0340    0.8700    0.0590 C   0  0  0  0  0  0  0  0  0  0  0  0
   10.2610    1.0710   -0.4380 N   0  0  0  0  0  0  0  0  0  0  0  0
   10.1620    2.0980   -1.3180 C   0  0  0  0  0  0  0  0  0  0  0  0
    8.8390    2.5230   -1.3320 N   0  0  0  0  0  0  0  0  0  0  0  0
    8.1690    1.8320   -0.5150 C   0  0  0  0  0  0  0  0  0  0  0  0
    6.7760    1.9740    0.0060 C   0  0  0  0  0  0  0  0  0  0  0  0
    6.7410    2.9200    0.9100 O   0  0  0  0  0  0  0  0  0  0  0  0
    5.7520    1.2230   -0.3240 N   0  0  0  0  0  0  0  0  0  0  0  0
    4.5240    1.3350    0.2890 C   0  0  2  0  0  0  0  0  0  0  0  0
    4.7970    0.1540    1.3530 C   0  0  0  0  0  0  0  0  0  0  0  0
    3.1620    1.1050   -0.0470 C   0  0  0  0  0  0  0  0  0  0  0  0
    2.2520    1.9590    0.0220 O   0  0  0  0  0  0  0  0  0  0  0  0
    2.8600   -0.2710   -0.4920 N   0  0  0  0  0  0  0  0  0  0  0  0
    1.5650   -0.7120   -0.2540 C   0  0  0  0  0  0  0  0  0  0  0  0
    0.5370   -0.0610    0.0210 N   0  0  0  0  0  0  0  0  0  0  0  0
   -0.6410   -0.7320    0.1830 N   0  0  0  0  0  0  0  0  0  0  0  0
   -2.0640   -0.6200    0.1860 C   0  0  0  0  0  0  0  0  0  0  0  0
   -2.5840   -1.7350    0.6270 C   0  0  0  0  0  0  0  0  0  0  0  0
   -4.1030   -1.6040    0.7550 C   0  0  0  0  0  0  0  0  0  0  0  0
   -4.3140   -0.6020   -0.3370 C   0  0  2  0  0  0  0  0  0  0  0  0
   -5.6450    0.1350   -0.3260 C   0  0  0  0  0  0  0  0  0  0  0  0
   -5.6530    1.5170    0.0970 C   0  0  0  0  0  0  0  0  0  0  0  0
   -5.5950    1.9060    1.5120 C   0  0  0  0  0  0  0  0  0  0  0  0
   -6.9950    2.5500    1.8180 C   0  0  0  0  0  0  0  0  0  0  0  0
   -7.1320    3.5910    0.8740 O   0  0  0  0  0  0  0  0  0  0  0  0
   -4.2770   -1.3870   -1.6290 C   0  0  0  0  0  0  0  0  0  0  0  0
   -5.4600   -2.3000   -1.7600 C   0  0  0  0  0  0  0  0  0  0  0  0
   -5.0340   -3.5910   -2.3830 C   0  0  2  0  0  0  0  0  0  0  0  0
   -4.3950   -3.3110   -3.5590 F   0  0  0  0  0  0  0  0  0  0  0  0
   -6.3010   -4.1190   -2.8980 F   0  0  0  0  0  0  0  0  0  0  0  0
   -3.1800    0.3430   -0.1490 C   0  0  0  0  0  0  0  0  0  0  0  0
   -1.5500   -2.7810    0.5980 C   0  0  0  0  0  0  0  0  0  0  0  0
   -1.7550   -3.9640    0.4580 O   0  0  0  0  0  0  0  0  0  0  0  0
   -0.3180   -2.1060    0.6660 C   0  0  1  0  0  0  0  0  0  0  0  0
    0.9410   -2.3990   -0.5870 S   0  0  0  0  0  0  0  0  0  0  0  0
  1  2  1  0
  2  3  1  0
  2  6  2  0
  3  4  1  0
  4  5  2  0
  5  6  1  0
  6  7  1  0
  7  8  2  0
  7  9  1  0
  9 10  1  0
 10 11  1  1
 10 12  1  0
 12 13  2  0
 12 14  1  0
 14 15  1  0
 15 16  2  0
 15 36  1  0
 16 17  1  0
 17 18  1  0
 17 35  1  0
 18 19  2  0
 18 32  1  0
 19 20  1  0
 19 33  1  0
 20 21  1  0
 21 22  1  1
 21 27  1  0
 21 32  1  0
 22 23  1  0
 23 24  1  0
 24 25  1  0
 25 26  1  0
 27 28  1  0
 28 29  1  0
 29 30  1  6
 29 31  1  0
 33 34  2  0
 33 35  1  0
 35 36  1  6
M  END
