
     RDKit          3D

 36 39  0  0  0  0  0  0  0  0999 V2000
   -8.2570   -0.2330   -1.5420 C   0  0  0  0  0  0  0  0  0  0  0  0
   -7.0800   -0.0830   -0.7110 N   0  0  0  0  0  0  0  0  0  0  0  0
   -7.0730    1.1690    0.0020 C   0  0  0  0  0  0  0  0  0  0  0  0
   -5.8240    1.2690    0.8240 C   0  0  0  0  0  0  0  0  0  0  0  0
   -4.7060    1.2390    0.1470 O   0  0  0  0  0  0  0  0  0  0  0  0
   -4.1850    0.3110   -0.6290 C   0  0  2  0  0  0  0  0  0  0  0  0
   -2.9170   -0.3510    0.0210 C   0  0  0  0  0  0  0  0  0  0  0  0
   -1.7880    0.4840   -0.1590 N   0  0  0  0  0  0  0  0  0  0  0  0
   -0.4820    0.1520    0.2010 C   0  0  0  0  0  0  0  0  0  0  0  0
    0.4730    0.9940   -0.0270 O   0  0  0  0  0  0  0  0  0  0  0  0
   -0.0780   -1.0940    0.8300 C   0  0  0  0  0  0  0  0  0  0  0  0
    1.2610   -1.4120    1.1440 C   0  0  0  0  0  0  0  0  0  0  0  0
    1.2690   -2.6520    1.7080 C   0  0  0  0  0  0  0  0  0  0  0  0
    2.4970   -3.3570    2.1740 C   0  0  0  0  0  0  0  0  0  0  0  0
    3.6690   -2.6430    1.7340 N   0  0  0  0  0  0  0  0  0  0  0  0
    4.0620   -1.4630    2.3980 C   0  0  0  0  0  0  0  0  0  0  0  0
    3.4160   -1.0320    3.3500 O   0  0  0  0  0  0  0  0  0  0  0  0
    5.2460   -0.7500    1.9510 C   0  0  0  0  0  0  0  0  0  0  0  0
    6.1090   -0.9810    0.9620 C   0  0  0  0  0  0  0  0  0  0  0  0
    7.1480   -0.1410    0.7610 C   0  0  0  0  0  0  0  0  0  0  0  0
    8.1450   -0.2020   -0.1960 N   0  0  0  0  0  0  0  0  0  0  0  0
    9.1320    0.6810   -0.3090 C   0  0  0  0  0  0  0  0  0  0  0  0
   10.1640    0.4860   -1.4180 C   0  0  0  0  0  0  0  0  0  0  0  0
   11.3340   -0.0070   -0.9390 F   0  0  0  0  0  0  0  0  0  0  0  0
    9.2510    1.7540    0.5310 C   0  0  0  0  0  0  0  0  0  0  0  0
   10.2330    2.6290    0.4160 F   0  0  0  0  0  0  0  0  0  0  0  0
    8.2770    1.8880    1.5320 C   0  0  0  0  0  0  0  0  0  0  0  0
    7.2760    0.9320    1.5930 C   0  0  0  0  0  0  0  0  0  0  0  0
    5.8540    0.7140    2.6910 S   0  0  0  0  0  0  0  0  0  0  0  0
    0.0270   -3.1070    1.7580 N   0  0  0  0  0  0  0  0  0  0  0  0
   -0.7590   -2.1720    1.2340 N   0  0  0  0  0  0  0  0  0  0  0  0
   -1.9300    1.8270   -0.7640 C   0  0  0  0  0  0  0  0  0  0  0  0
   -2.7260    1.7880   -2.0280 C   0  0  0  0  0  0  0  0  0  0  0  0
   -3.7730    0.7020   -2.0300 C   0  0  2  0  0  0  0  0  0  0  0  0
   -4.9360    1.1690   -2.8240 C   0  0  0  0  0  0  0  0  0  0  0  0
   -3.2700   -0.4680   -2.6360 O   0  0  0  0  0  0  0  0  0  0  0  0
  1  2  1  0
  2  3  1  0
  3  4  1  0
  4  5  1  0
  6  5  1  1
  6  7  1  0
  6 34  1  0
  7  8  1  0
  8  9  1  0
  8 32  1  0
  9 10  2  0
  9 11  1  0
 11 12  2  0
 11 31  1  0
 12 13  1  0
 13 14  1  0
 13 30  2  0
 14 15  1  0
 15 16  1  0
 16 17  2  0
 16 18  1  0
 18 19  2  0
 18 29  1  0
 19 20  1  0
 20 21  2  0
 20 28  1  0
 21 22  1  0
 22 23  1  0
 22 25  2  0
 23 24  1  0
 25 26  1  0
 25 27  1  0
 27 28  2  0
 28 29  1  0
 30 31  1  0
 32 33  1  0
 33 34  1  0
 34 35  1  6
 34 36  1  0
M  END
