
     RDKit          3D

 36 39  0  0  0  0  0  0  0  0999 V2000
    2.6410    1.7700    2.4550 C   0  0  0  0  0  0  0  0  0  0  0  0
    3.8490    1.2250    1.7510 C   0  0  0  0  0  0  0  0  0  0  0  0
    3.5660    0.7210    0.3740 C   0  0  1  0  0  0  0  0  0  0  0  0
    4.6910    0.1270   -0.4440 C   0  0  2  0  0  0  0  0  0  0  0  0
    4.7660    0.4810   -1.9090 C   0  0  0  0  0  0  0  0  0  0  0  0
    4.9250    1.9150   -2.0090 N   0  0  0  0  0  0  0  0  0  0  0  0
    6.2330    2.3440   -1.5360 C   0  0  0  0  0  0  0  0  0  0  0  0
    6.3870    3.7700   -1.6140 N   0  0  0  0  0  0  0  0  0  0  0  0
    3.6370   -0.7410    0.1250 C   0  0  2  0  0  0  0  0  0  0  0  0
    2.6670   -1.4190   -0.6690 N   0  0  0  0  0  0  0  0  0  0  0  0
    2.1600   -2.6720   -0.2970 C   0  0  0  0  0  0  0  0  0  0  0  0
    2.5900   -3.1840    0.7680 O   0  0  0  0  0  0  0  0  0  0  0  0
    1.1540   -3.4560   -1.0510 C   0  0  0  0  0  0  0  0  0  0  0  0
   -0.1340   -3.5430   -0.4870 N   0  0  0  0  0  0  0  0  0  0  0  0
   -0.4920   -4.5090    0.3660 C   0  0  0  0  0  0  0  0  0  0  0  0
    0.6410   -5.6110    0.7640 S   0  0  0  0  0  0  0  0  0  0  0  0
   -1.7070   -4.6400    0.9140 N   0  0  0  0  0  0  0  0  0  0  0  0
   -2.6840   -3.7580    0.6200 C   0  0  0  0  0  0  0  0  0  0  0  0
   -3.8130   -3.9060    1.1490 O   0  0  0  0  0  0  0  0  0  0  0  0
   -2.3750   -2.7460   -0.2500 C   0  0  0  0  0  0  0  0  0  0  0  0
   -3.1150   -1.7690   -0.7060 O   0  0  0  0  0  0  0  0  0  0  0  0
   -2.4150   -1.0140   -1.5300 C   0  0  0  0  0  0  0  0  0  0  0  0
   -2.9890    0.1800   -2.2120 C   0  0  0  0  0  0  0  0  0  0  0  0
   -4.2340    0.5610   -1.7510 O   0  0  0  0  0  0  0  0  0  0  0  0
   -4.6060    0.9640   -0.4880 C   0  0  0  0  0  0  0  0  0  0  0  0
   -3.7430    1.0500    0.5750 C   0  0  0  0  0  0  0  0  0  0  0  0
   -4.2010    1.4700    1.8230 C   0  0  0  0  0  0  0  0  0  0  0  0
   -5.5040    1.8040    2.0250 C   0  0  0  0  0  0  0  0  0  0  0  0
   -6.0630    2.2870    3.3170 C   0  0  0  0  0  0  0  0  0  0  0  0
   -6.3510    1.7120    0.9610 N   0  0  0  0  0  0  0  0  0  0  0  0
   -5.9410    1.3110   -0.2530 C   0  0  0  0  0  0  0  0  0  0  0  0
   -6.8720    1.2180   -1.4050 C   0  0  2  0  0  0  0  0  0  0  0  0
   -7.5420    2.4110   -1.5890 F   0  0  0  0  0  0  0  0  0  0  0  0
   -7.8480    0.2490   -1.1600 F   0  0  0  0  0  0  0  0  0  0  0  0
   -1.1550   -1.5340   -1.6080 C   0  0  0  0  0  0  0  0  0  0  0  0
   -1.0870   -2.6480   -0.8000 C   0  0  0  0  0  0  0  0  0  0  0  0
  1  2  1  0
  3  2  1  1
  3  4  1  0
  3  9  1  0
  4  5  1  6
  4  9  1  0
  5  6  1  0
  6  7  1  0
  7  8  1  0
  9 10  1  6
 10 11  1  0
 11 12  2  0
 11 13  1  0
 13 14  1  0
 14 15  1  0
 14 36  1  0
 15 16  2  0
 15 17  1  0
 17 18  1  0
 18 19  2  0
 18 20  1  0
 20 21  1  0
 20 36  2  0
 21 22  1  0
 22 23  1  0
 22 35  2  0
 23 24  1  0
 24 25  1  0
 25 26  2  0
 25 31  1  0
 26 27  1  0
 27 28  2  0
 28 29  1  0
 28 30  1  0
 30 31  2  0
 31 32  1  0
 32 33  1  1
 32 34  1  0
 35 36  1  0
M  END
