
     RDKit          3D

 36 39  0  0  0  0  0  0  0  0999 V2000
    7.4460    1.5680   -1.0930 C   0  0  0  0  0  0  0  0  0  0  0  0
    5.9370    1.4790   -1.0570 C   0  0  2  0  0  0  0  0  0  0  0  0
    5.3910    2.2900   -0.0350 O   0  0  0  0  0  0  0  0  0  0  0  0
    4.0470    2.1230    0.2750 C   0  0  0  0  0  0  0  0  0  0  0  0
    3.4660    0.9780   -0.0250 C   0  0  0  0  0  0  0  0  0  0  0  0
    2.0830    0.9380    0.3490 C   0  0  0  0  0  0  0  0  0  0  0  0
    1.8110    2.0680    0.8830 N   0  0  0  0  0  0  0  0  0  0  0  0
    2.9720    2.9530    0.9140 C   0  0  2  0  0  0  0  0  0  0  0  0
    2.7240    4.2340    0.1870 C   0  0  0  0  0  0  0  0  0  0  0  0
    1.3690   -0.3190    0.0410 C   0  0  0  0  0  0  0  0  0  0  0  0
    1.9900   -1.3430   -0.5490 C   0  0  0  0  0  0  0  0  0  0  0  0
    1.1370   -2.5480   -0.7970 C   0  0  1  0  0  0  0  0  0  0  0  0
    1.6790   -3.7360   -0.0890 C   0  0  0  0  0  0  0  0  0  0  0  0
   -0.2610   -2.3010   -0.5030 N   0  0  0  0  0  0  0  0  0  0  0  0
   -1.2670   -2.2630   -1.4830 C   0  0  0  0  0  0  0  0  0  0  0  0
   -0.8690   -2.4640   -2.6870 O   0  0  0  0  0  0  0  0  0  0  0  0
   -2.6860   -2.0290   -1.3160 C   0  0  0  0  0  0  0  0  0  0  0  0
   -3.1330   -1.7950    0.0590 N   0  0  0  0  0  0  0  0  0  0  0  0
   -4.4720   -1.6020    0.2190 N   0  0  0  0  0  0  0  0  0  0  0  0
   -5.1950   -0.6020    0.4920 C   0  0  0  0  0  0  0  0  0  0  0  0
   -6.6560   -0.8390    0.5540 C   0  0  0  0  0  0  0  0  0  0  0  0
   -7.5930    0.4760   -0.2850 S   0  0  0  0  0  0  0  0  0  0  0  0
   -6.5990    1.3560   -1.4450 C   0  0  0  0  0  0  0  0  0  0  0  0
   -5.3950    1.8360   -1.3330 N   0  0  0  0  0  0  0  0  0  0  0  0
   -4.5770    1.7310   -0.1470 C   0  0  0  0  0  0  0  0  0  0  0  0
   -4.4750    0.6620    0.6790 C   0  0  0  0  0  0  0  0  0  0  0  0
   -3.5490    0.7980    1.7640 C   0  0  0  0  0  0  0  0  0  0  0  0
   -2.7920    2.0400    1.6960 O   0  0  0  0  0  0  0  0  0  0  0  0
   -3.2620    0.0380    2.7730 C   0  0  0  0  0  0  0  0  0  0  0  0
   -3.7520   -1.2510    3.2390 C   0  0  1  0  0  0  0  0  0  0  0  0
   -3.3860   -1.3610    4.6280 F   0  0  0  0  0  0  0  0  0  0  0  0
   -5.1350   -1.3820    3.2210 F   0  0  0  0  0  0  0  0  0  0  0  0
    3.4050   -1.3540   -0.9540 C   0  0  0  0  0  0  0  0  0  0  0  0
    4.0940   -0.1230   -0.6570 N   0  0  0  0  0  0  0  0  0  0  0  0
    5.4770    0.0690   -0.9800 C   0  0  0  0  0  0  0  0  0  0  0  0
    6.2110   -0.9170   -1.1750 O   0  0  0  0  0  0  0  0  0  0  0  0
  2  1  1  1
  2  3  1  0
  2 35  1  0
  3  4  1  0
  4  5  2  0
  4  8  1  0
  5  6  1  0
  5 34  1  0
  6  7  2  0
  6 10  1  0
  7  8  1  0
  8  9  1  6
 10 11  2  0
 11 12  1  0
 11 33  1  0
 12 13  1  1
 12 14  1  0
 14 15  1  0
 15 16  2  0
 15 17  1  0
 17 18  1  0
 18 19  1  0
 19 20  2  3
 20 21  1  0
 20 26  1  0
 21 22  1  0
 22 23  1  0
 23 24  2  0
 24 25  1  0
 25 26  2  0
 26 27  1  0
 27 28  1  0
 27 29  2  3
 29 30  1  0
 30 31  1  1
 30 32  1  0
 33 34  1  0
 34 35  1  0
 35 36  2  0
M  CHG  1   7   1
M  END
