
     RDKit          3D

 36 39  0  0  0  0  0  0  0  0999 V2000
   -1.6030    3.2540    3.0680 C   0  0  0  0  0  0  0  0  0  0  0  0
   -0.7530    2.3560    2.3700 O   0  0  0  0  0  0  0  0  0  0  0  0
   -0.5350    2.4510    1.0310 N   0  0  0  0  0  0  0  0  0  0  0  0
   -1.3910    1.9350    0.1900 C   0  0  0  0  0  0  0  0  0  0  0  0
   -2.4900    1.3110    0.6940 N   0  0  0  0  0  0  0  0  0  0  0  0
   -3.3980    0.7830   -0.1340 C   0  0  0  0  0  0  0  0  0  0  0  0
   -4.5570    0.1240    0.3850 N   0  0  0  0  0  0  0  0  0  0  0  0
   -5.5230   -0.4370   -0.4910 C   0  0  0  0  0  0  0  0  0  0  0  0
   -5.3380   -0.3430   -1.7290 O   0  0  0  0  0  0  0  0  0  0  0  0
   -6.7430   -1.1310   -0.0240 C   0  0  1  0  0  0  0  0  0  0  0  0
   -7.9880   -1.1480   -0.8300 C   0  0  2  0  0  0  0  0  0  0  0  0
   -9.2920   -1.0710   -0.0850 C   0  0  0  0  0  0  0  0  0  0  0  0
   -9.3120    0.1220    0.6340 O   0  0  0  0  0  0  0  0  0  0  0  0
   -7.1390   -2.3390   -0.8750 C   0  0  2  0  0  0  0  0  0  0  0  0
   -7.3870   -3.5820   -0.0910 C   0  0  2  0  0  0  0  0  0  0  0  0
   -6.1910   -3.8760    0.5790 F   0  0  0  0  0  0  0  0  0  0  0  0
   -7.5910   -4.6320   -0.9640 F   0  0  0  0  0  0  0  0  0  0  0  0
   -3.1810    0.8950   -1.4550 N   0  0  0  0  0  0  0  0  0  0  0  0
   -2.1210    1.4960   -1.9540 N   0  0  0  0  0  0  0  0  0  0  0  0
   -1.1560    2.0560   -1.1570 C   0  0  0  0  0  0  0  0  0  0  0  0
    0.2610    2.8380   -1.8800 S   0  0  0  0  0  0  0  0  0  0  0  0
    1.4060    3.4070   -0.6120 C   0  0  0  0  0  0  0  0  0  0  0  0
    2.0670    2.2540    0.0840 C   0  0  0  0  0  0  0  0  0  0  0  0
    2.8520    2.4520    1.0440 O   0  0  0  0  0  0  0  0  0  0  0  0
    1.8480    0.8970   -0.2950 N   0  0  0  0  0  0  0  0  0  0  0  0
    2.5060   -0.1900    0.4010 C   0  0  0  0  0  0  0  0  0  0  0  0
    3.9270   -0.2410   -0.0500 C   0  0  0  0  0  0  0  0  0  0  0  0
    4.4170    0.6340   -1.0010 C   0  0  0  0  0  0  0  0  0  0  0  0
    5.7560    0.5620   -1.4040 C   0  0  0  0  0  0  0  0  0  0  0  0
    6.6090   -0.3790   -0.8630 C   0  0  0  0  0  0  0  0  0  0  0  0
    6.1450   -1.2430    0.0690 C   0  0  0  0  0  0  0  0  0  0  0  0
    4.8120   -1.1830    0.4800 C   0  0  0  0  0  0  0  0  0  0  0  0
    6.9950   -2.2620    0.6810 C   0  0  0  0  0  0  0  0  0  0  0  0
    8.4590   -1.9070    0.6590 C   0  0  0  0  0  0  0  0  0  0  0  0
    8.9150   -1.3370   -0.6360 C   0  0  0  0  0  0  0  0  0  0  0  0
    7.9960   -0.4060   -1.3250 C   0  0  0  0  0  0  0  0  0  0  0  0
  1  2  1  0
  2  3  1  0
  3  4  2  3
  4  5  1  0
  4 20  1  0
  5  6  1  0
  6  7  1  0
  6 18  2  0
  7  8  1  0
  8  9  2  0
 10  8  1  6
 10 11  1  0
 10 14  1  0
 11 12  1  1
 11 14  1  0
 12 13  1  0
 14 15  1  1
 15 16  1  1
 15 17  1  0
 18 19  1  0
 19 20  2  0
 20 21  1  0
 21 22  1  0
 22 23  1  0
 23 24  2  0
 23 25  1  0
 25 26  1  0
 26 27  1  0
 27 28  2  0
 27 32  1  0
 28 29  1  0
 29 30  2  0
 30 31  1  0
 30 36  1  0
 31 32  2  0
 31 33  1  0
 33 34  1  0
 34 35  1  0
 35 36  1  0
M  END
