
     RDKit          3D

 36 39  0  0  0  0  0  0  0  0999 V2000
   -6.3850    0.0770    1.6440 C   0  0  0  0  0  0  0  0  0  0  0  0
   -7.1480    0.1520    0.3720 C   0  0  0  0  0  0  0  0  0  0  0  0
   -6.5220   -0.1140   -0.7340 C   0  0  0  0  0  0  0  0  0  0  0  0
   -5.1480   -0.4720   -0.7980 N   0  0  0  0  0  0  0  0  0  0  0  0
   -4.2800    0.3550   -1.6140 C   0  0  0  0  0  0  0  0  0  0  0  0
   -2.9040   -0.1400   -1.5780 N   0  0  0  0  0  0  0  0  0  0  0  0
   -2.3480   -1.0400   -2.4080 C   0  0  0  0  0  0  0  0  0  0  0  0
   -2.9440   -1.6070   -3.3690 O   0  0  0  0  0  0  0  0  0  0  0  0
   -1.0690   -1.2190   -2.0360 N   0  0  0  0  0  0  0  0  0  0  0  0
   -0.7800   -0.4500   -0.9730 N   0  0  0  0  0  0  0  0  0  0  0  0
    0.4590   -0.3690   -0.3040 C   0  0  0  0  0  0  0  0  0  0  0  0
    1.5570    0.0260   -0.7770 N   0  0  0  0  0  0  0  0  0  0  0  0
    2.7090    0.0490    0.0110 C   0  0  2  0  0  0  0  0  0  0  0  0
    3.7070   -1.0490   -0.3000 C   0  0  1  0  0  0  0  0  0  0  0  0
    4.1680   -0.9430   -1.7350 C   0  0  0  0  0  0  0  0  0  0  0  0
    4.9370   -0.7220    0.5440 C   0  0  0  0  0  0  0  0  0  0  0  0
    5.3220   -1.5600    1.3890 O   0  0  0  0  0  0  0  0  0  0  0  0
    5.5920    0.4130    0.3990 O   0  0  0  0  0  0  0  0  0  0  0  0
    6.6240    1.1190    0.8230 C   0  0  0  0  0  0  0  0  0  0  0  0
    8.0260    0.7520    0.6120 C   0  0  0  0  0  0  0  0  0  0  0  0
    8.7680    1.6310   -0.1050 C   0  0  0  0  0  0  0  0  0  0  0  0
   10.1840    1.4140   -0.4060 C   0  0  0  0  0  0  0  0  0  0  0  0
   10.7240    0.2320    0.1990 N   0  0  0  0  0  0  0  0  0  0  0  0
    9.9520   -0.6810    0.9500 C   0  0  0  0  0  0  0  0  0  0  0  0
    8.6380   -0.4260    1.1500 C   0  0  0  0  0  0  0  0  0  0  0  0
    8.0010   -1.3370    1.9140 F   0  0  0  0  0  0  0  0  0  0  0  0
    2.3890    0.0970    1.4900 C   0  0  0  0  0  0  0  0  0  0  0  0
    0.7730   -0.7970    1.4010 S   0  0  0  0  0  0  0  0  0  0  0  0
   -1.9350    0.2050   -0.7130 C   0  0  0  0  0  0  0  0  0  0  0  0
   -2.0870    1.0290    0.2110 O   0  0  0  0  0  0  0  0  0  0  0  0
   -7.2610   -0.0460   -1.9860 C   0  0  0  0  0  0  0  0  0  0  0  0
   -8.5450    0.2780   -2.0140 C   0  0  0  0  0  0  0  0  0  0  0  0
   -9.3360    0.5940   -0.8150 C   0  0  0  0  0  0  0  0  0  0  0  0
   -8.5580    0.5220    0.4370 C   0  0  1  0  0  0  0  0  0  0  0  0
   -9.2210   -0.5280    1.3580 C   0  0  0  0  0  0  0  0  0  0  0  0
  -10.5510   -0.1970    1.4330 F   0  0  0  0  0  0  0  0  0  0  0  0
  1  2  1  0
  2  3  2  0
  2 34  1  0
  3  4  1  0
  3 31  1  0
  4  5  1  0
  5  6  1  0
  6  7  1  0
  6 29  1  0
  7  8  2  0
  7  9  1  0
  9 10  1  0
 10 11  1  0
 10 29  1  0
 11 12  2  0
 11 28  1  0
 12 13  1  0
 13 14  1  0
 13 27  1  1
 14 15  1  6
 14 16  1  0
 16 17  2  0
 16 18  1  0
 18 19  1  0
 19 20  1  0
 20 21  2  0
 20 25  1  0
 21 22  1  0
 22 23  1  0
 23 24  1  0
 24 25  2  0
 25 26  1  0
 27 28  1  0
 29 30  2  0
 31 32  2  0
 32 33  1  0
 33 34  1  0
 34 35  1  1
 35 36  1  0
M  END
