
     RDKit          3D

 18 19  0  0  0  0  0  0  0  0999 V2000
   -3.1270   -2.6060   -1.5260 C   0  0  0  0  0  0  0  0  0  0  0  0
   -1.7380   -2.1720   -1.3670 C   0  0  0  0  0  0  0  0  0  0  0  0
   -0.6800   -2.8480   -1.9030 N   0  0  0  0  0  0  0  0  0  0  0  0
    0.4640   -2.2280   -1.6020 C   0  0  0  0  0  0  0  0  0  0  0  0
    0.1890   -1.1170   -0.8520 C   0  0  0  0  0  0  0  0  0  0  0  0
    1.1470   -0.1290   -0.2930 C   0  0  0  0  0  0  0  0  0  0  0  0
    2.4590   -0.4670   -0.6320 N   0  0  0  0  0  0  0  0  0  0  0  0
    3.5110    0.3450   -0.1890 C   0  0  1  0  0  0  0  0  0  0  0  0
    3.6350    1.7640   -0.6060 C   0  0  0  0  0  0  0  0  0  0  0  0
    4.3570    1.9880    0.7360 C   0  0  0  0  0  0  0  0  0  0  0  0
    3.4550    0.8490    1.2470 C   0  0  0  0  0  0  0  0  0  0  0  0
   -1.2120   -1.0800   -0.7010 C   0  0  0  0  0  0  0  0  0  0  0  0
   -1.9160   -0.0670    0.0300 C   0  0  0  0  0  0  0  0  0  0  0  0
   -3.1920    0.0670    0.2500 C   0  0  0  0  0  0  0  0  0  0  0  0
   -3.8650    1.4030    1.1900 S   0  0  1  0  0  0  0  0  0  0  0  0
   -2.9680    1.6510    2.6890 C   0  0  0  0  0  0  0  0  0  0  0  0
   -3.7950    2.6650    0.3600 O   0  0  0  0  0  0  0  0  0  0  0  0
   -5.3180    1.1600    1.4780 O   0  0  0  0  0  0  0  0  0  0  0  0
  1  2  1  0
  2  3  1  0
  2 12  2  0
  3  4  1  0
  4  5  2  0
  5  6  1  0
  5 12  1  0
  6  7  1  0
  8  7  1  6
  8  9  1  0
  8 11  1  0
  9 10  1  0
 10 11  1  0
 12 13  1  0
 13 14  2  3
 14 15  1  0
 15 16  1  1
 15 17  2  0
 15 18  2  0
M  END
