
     RDKit          3D

 18 19  0  0  0  0  0  0  0  0999 V2000
    3.5950   -0.5460   -0.4500 C   0  0  0  0  0  0  0  0  0  0  0  0
    2.4350   -0.3780   -1.3380 C   0  0  0  0  0  0  0  0  0  0  0  0
    1.3110    0.1540   -1.0760 C   0  0  0  0  0  0  0  0  0  0  0  0
    0.7590    0.7830    0.1380 C   0  0  0  0  0  0  0  0  0  0  0  0
    1.5100    1.5820    0.9000 C   0  0  0  0  0  0  0  0  0  0  0  0
    2.8990    2.1320    0.7800 C   0  0  0  0  0  0  0  0  0  0  0  0
    0.4180    2.0430    2.2260 S   0  0  0  0  0  0  0  0  0  0  0  0
   -0.9660    1.1330    1.6620 C   0  0  0  0  0  0  0  0  0  0  0  0
   -2.2560    1.0020    2.1910 C   0  0  0  0  0  0  0  0  0  0  0  0
   -2.4980    1.6240    3.2550 O   0  0  0  0  0  0  0  0  0  0  0  0
   -3.1590    0.2410    1.5620 N   0  0  0  0  0  0  0  0  0  0  0  0
   -2.8040   -0.3830    0.4390 C   0  0  0  0  0  0  0  0  0  0  0  0
   -3.8210   -1.2550   -0.2820 C   0  0  0  0  0  0  0  0  0  0  0  0
   -1.5340   -0.2610   -0.0890 C   0  0  0  0  0  0  0  0  0  0  0  0
   -1.3280   -1.0710   -1.2780 C   0  0  0  0  0  0  0  0  0  0  0  0
   -0.3290   -2.0240   -1.5040 N   0  0  0  0  0  0  0  0  0  0  0  0
   -2.1800   -0.8920   -2.2240 O   0  0  0  0  0  0  0  0  0  0  0  0
   -0.5420    0.5200    0.5050 C   0  0  0  0  0  0  0  0  0  0  0  0
  1  2  1  0
  2  3  2  3
  3  4  1  0
  4  5  2  0
  4 18  1  0
  5  6  1  0
  5  7  1  0
  7  8  1  0
  8  9  1  0
  8 18  2  0
  9 10  2  0
  9 11  1  0
 11 12  1  0
 12 13  1  0
 12 14  2  0
 14 15  1  0
 14 18  1  0
 15 16  1  0
 15 17  2  0
M  END
