
     RDKit          3D

 18 19  0  0  0  0  0  0  0  0999 V2000
    5.6780   -0.7990   -0.5470 C   0  0  0  0  0  0  0  0  0  0  0  0
    5.1580    0.4840   -1.1480 C   0  0  0  0  0  0  0  0  0  0  0  0
    3.9080    1.2650   -0.1110 S   0  0  0  0  0  0  0  0  0  0  0  0
    2.4210    0.2970    0.0030 C   0  0  0  0  0  0  0  0  0  0  0  0
    2.2350   -0.8020   -0.5650 O   0  0  0  0  0  0  0  0  0  0  0  0
    1.3670    0.8100    0.7980 N   0  0  0  0  0  0  0  0  0  0  0  0
    0.1560    0.0850    0.9280 C   0  0  0  0  0  0  0  0  0  0  0  0
   -0.8950    0.2710    0.0650 C   0  0  0  0  0  0  0  0  0  0  0  0
   -2.0850   -0.4300    0.1790 C   0  0  0  0  0  0  0  0  0  0  0  0
   -2.2260   -1.3370    1.1760 C   0  0  0  0  0  0  0  0  0  0  0  0
   -3.5020   -2.1020    1.3130 C   0  0  0  0  0  0  0  0  0  0  0  0
   -1.1970   -1.5440    2.0510 N   0  0  0  0  0  0  0  0  0  0  0  0
   -0.0430   -0.8490    1.9230 C   0  0  0  0  0  0  0  0  0  0  0  0
    0.8660   -1.0970    2.7720 O   0  0  0  0  0  0  0  0  0  0  0  0
   -3.1590   -0.1530   -0.8010 C   0  0  0  0  0  0  0  0  0  0  0  0
   -3.3240    1.3730   -0.7660 C   0  0  0  0  0  0  0  0  0  0  0  0
   -2.0620    2.1100   -1.0590 C   0  0  0  0  0  0  0  0  0  0  0  0
   -0.8400    1.2440   -1.0630 C   0  0  0  0  0  0  0  0  0  0  0  0
  1  2  1  0
  2  3  1  0
  3  4  1  0
  4  5  2  0
  4  6  1  0
  6  7  1  0
  7  8  2  0
  7 13  1  0
  8  9  1  0
  8 18  1  0
  9 10  2  0
  9 15  1  0
 10 11  1  0
 10 12  1  0
 12 13  1  0
 13 14  2  0
 15 16  1  0
 16 17  1  0
 17 18  1  0
M  END
