
     RDKit          3D

 18 19  0  0  0  0  0  0  0  0999 V2000
   -3.3540    1.5920    1.3770 C   0  0  0  0  0  0  0  0  0  0  0  0
   -3.5380    0.6450    0.5340 C   0  0  0  0  0  0  0  0  0  0  0  0
   -2.6730   -0.2110   -0.2070 C   0  0  0  0  0  0  0  0  0  0  0  0
   -3.3100   -1.1230   -1.0280 C   0  0  0  0  0  0  0  0  0  0  0  0
   -4.7720   -1.1840   -1.1130 C   0  0  0  0  0  0  0  0  0  0  0  0
   -1.2300   -0.3080   -0.2590 C   0  0  0  0  0  0  0  0  0  0  0  0
   -0.7910   -1.2230   -1.0630 O   0  0  0  0  0  0  0  0  0  0  0  0
   -0.2720    0.4350    0.4230 N   0  0  0  0  0  0  0  0  0  0  0  0
    1.1240    0.3090    0.3290 C   0  0  0  0  0  0  0  0  0  0  0  0
    1.9650    0.8170    1.3060 C   0  0  0  0  0  0  0  0  0  0  0  0
    3.3150    0.7640    1.2900 C   0  0  0  0  0  0  0  0  0  0  0  0
    3.9870    0.1410    0.1950 C   0  0  0  0  0  0  0  0  0  0  0  0
    5.2750    0.0210    0.0540 N   0  0  0  0  0  0  0  0  0  0  0  0
    5.8070   -0.5840   -1.0180 C   0  0  0  0  0  0  0  0  0  0  0  0
    6.9530   -0.8140   -1.3700 O   0  0  0  0  0  0  0  0  0  0  0  0
    4.3010   -1.0500   -1.9610 S   0  0  0  0  0  0  0  0  0  0  0  0
    3.1500   -0.3580   -0.7670 C   0  0  0  0  0  0  0  0  0  0  0  0
    1.7510   -0.2930   -0.7330 C   0  0  0  0  0  0  0  0  0  0  0  0
  1  2  2  0
  2  3  1  0
  3  4  2  3
  3  6  1  0
  4  5  1  0
  6  7  2  0
  6  8  1  0
  8  9  1  0
  9 10  2  0
  9 18  1  0
 10 11  1  0
 11 12  2  0
 12 13  1  0
 12 17  1  0
 13 14  1  0
 14 15  2  0
 14 16  1  0
 16 17  1  0
 17 18  2  0
M  END
