
     RDKit          3D

 13 14  0  0  0  0  0  0  0  0999 V2000
    3.2490    2.1710   -0.3740 O   0  0  0  0  0  0  0  0  0  0  0  0
    3.0910    0.9560   -0.2050 C   0  0  0  0  0  0  0  0  0  0  0  0
    4.2100    0.1510   -0.1120 O   0  0  0  0  0  0  0  0  0  0  0  0
    1.7270    0.4120   -0.1090 C   0  0  0  0  0  0  0  0  0  0  0  0
    1.4780   -0.9310    0.0790 C   0  0  0  0  0  0  0  0  0  0  0  0
    0.1890   -1.4180    0.1660 C   0  0  0  0  0  0  0  0  0  0  0  0
   -0.9050   -0.5690    0.0660 C   0  0  0  0  0  0  0  0  0  0  0  0
   -2.1960   -1.0490    0.1520 C   0  0  0  0  0  0  0  0  0  0  0  0
   -3.2570   -0.1690    0.0480 C   0  0  0  0  0  0  0  0  0  0  0  0
   -2.9340    1.1600   -0.1400 C   0  0  0  0  0  0  0  0  0  0  0  0
   -1.6700    1.6110   -0.2210 N   0  0  0  0  0  0  0  0  0  0  0  0
   -0.6200    0.7690   -0.1220 C   0  0  0  0  0  0  0  0  0  0  0  0
    0.6630    1.2290   -0.2050 N   0  0  0  0  0  0  0  0  0  0  0  0
  1  2  2  0
  2  3  1  0
  2  4  1  0
  4  5  2  0
  4 13  1  0
  5  6  1  0
  6  7  2  0
  7  8  1  0
  7 12  1  0
  8  9  2  0
  9 10  1  0
 10 11  2  0
 11 12  1  0
 12 13  2  0
M  END
