
     RDKit          3D

 18 19  0  0  0  0  0  0  0  0999 V2000
    4.5120    0.4930   -0.3940 C   0  0  0  0  0  0  0  0  0  0  0  0
    3.0530    0.3250   -0.2110 C   0  0  0  0  0  0  0  0  0  0  0  0
    2.2250    1.4220   -0.1630 C   0  0  0  0  0  0  0  0  0  0  0  0
    0.8470    1.2520    0.0140 C   0  0  0  0  0  0  0  0  0  0  0  0
    0.3310   -0.0070    0.1400 C   0  0  0  0  0  0  0  0  0  0  0  0
   -1.0910   -0.2260    0.3410 C   0  0  0  0  0  0  0  0  0  0  0  0
   -1.5150   -1.0530    1.3470 C   0  0  0  0  0  0  0  0  0  0  0  0
   -2.8650   -1.2560    1.5200 C   0  0  0  0  0  0  0  0  0  0  0  0
   -3.2750   -2.0150    2.4390 O   0  0  0  0  0  0  0  0  0  0  0  0
   -3.7660   -0.6490    0.7140 N   0  0  0  0  0  0  0  0  0  0  0  0
   -3.3520    0.1600   -0.2680 C   0  0  0  0  0  0  0  0  0  0  0  0
   -1.9910    0.3960   -0.4830 C   0  0  0  0  0  0  0  0  0  0  0  0
   -1.5890    1.2770   -1.5370 N   0  0  0  0  0  0  0  0  0  0  0  0
   -2.1710    2.9050   -1.5360 S   0  0  0  0  0  0  0  0  0  0  0  0
   -3.6770    2.9870   -1.7340 O   0  0  0  0  0  0  0  0  0  0  0  0
    1.1230   -1.1380    0.0990 C   0  0  0  0  0  0  0  0  0  0  0  0
    0.6270   -2.5310    0.2190 C   0  0  0  0  0  0  0  0  0  0  0  0
    2.4890   -0.9220   -0.0800 C   0  0  0  0  0  0  0  0  0  0  0  0
  1  2  1  0
  2  3  2  0
  2 18  1  0
  3  4  1  0
  4  5  2  0
  5  6  1  0
  5 16  1  0
  6  7  2  0
  6 12  1  0
  7  8  1  0
  8  9  2  0
  8 10  1  0
 10 11  1  0
 11 12  2  0
 12 13  1  0
 13 14  1  0
 14 15  2  0
 16 17  1  0
 16 18  2  0
M  END
