
     RDKit          3D

 18 19  0  0  0  0  0  0  0  0999 V2000
   -4.0370    0.2210   -0.9010 C   0  0  0  0  0  0  0  0  0  0  0  0
   -2.7580    0.2950   -0.1890 C   0  0  0  0  0  0  0  0  0  0  0  0
   -1.9100    1.3180   -0.4530 N   0  0  0  0  0  0  0  0  0  0  0  0
   -0.7220    1.4610    0.1530 C   0  0  0  0  0  0  0  0  0  0  0  0
    0.1760    2.6130   -0.1780 C   0  0  0  0  0  0  0  0  0  0  0  0
    1.2360    2.0790   -1.5430 S   0  0  0  0  0  0  0  0  0  0  0  0
    2.3140    0.7770   -0.9730 C   0  0  0  0  0  0  0  0  0  0  0  0
    3.5450    1.0880   -0.4390 C   0  0  0  0  0  0  0  0  0  0  0  0
    4.3820    0.0860    0.0030 C   0  0  0  0  0  0  0  0  0  0  0  0
    4.0280   -1.2500   -0.0690 C   0  0  0  0  0  0  0  0  0  0  0  0
    4.9120   -2.2390    0.3940 O   0  0  0  0  0  0  0  0  0  0  0  0
    2.8000   -1.5620   -0.6010 C   0  0  0  0  0  0  0  0  0  0  0  0
    1.9700   -0.5680   -1.0400 C   0  0  0  0  0  0  0  0  0  0  0  0
   -0.3640    0.5340    1.0700 N   0  0  0  0  0  0  0  0  0  0  0  0
   -1.1470   -0.5080    1.3880 C   0  0  0  0  0  0  0  0  0  0  0  0
   -0.8470   -1.3890    2.2350 O   0  0  0  0  0  0  0  0  0  0  0  0
   -2.3620   -0.6260    0.7470 C   0  0  0  0  0  0  0  0  0  0  0  0
   -3.2620   -1.7540    1.0620 C   0  0  0  0  0  0  0  0  0  0  0  0
  1  2  1  0
  2  3  1  0
  2 17  2  0
  3  4  1  0
  4  5  1  0
  4 14  2  0
  5  6  1  0
  6  7  1  0
  7  8  2  0
  7 13  1  0
  8  9  1  0
  9 10  2  0
 10 11  1  0
 10 12  1  0
 12 13  2  0
 14 15  1  0
 15 16  2  0
 15 17  1  0
 17 18  1  0
M  END
