
     RDKit          3D

 46 51  0  0  0  0  0  0  0  0999 V2000
  -10.5850    0.1870   -0.0300 C   0  0  0  0  0  0  0  0  0  0  0  0
  -10.4090    0.5380   -1.4200 N   0  0  0  0  0  0  0  0  0  0  0  0
   -9.2120   -0.0520   -1.9840 C   0  0  0  0  0  0  0  0  0  0  0  0
   -7.9730    0.2620   -1.2260 C   0  0  2  0  0  0  0  0  0  0  0  0
   -7.6180    1.7050   -1.1080 C   0  0  0  0  0  0  0  0  0  0  0  0
   -6.1870    1.9780   -0.8570 C   0  0  0  0  0  0  0  0  0  0  0  0
   -5.7450    3.1520   -0.8520 O   0  0  0  0  0  0  0  0  0  0  0  0
   -5.2730    0.8840   -0.6110 C   0  0  0  0  0  0  0  0  0  0  0  0
   -4.0830    1.0510    0.1040 C   0  0  0  0  0  0  0  0  0  0  0  0
   -3.1980    0.0190    0.3450 C   0  0  0  0  0  0  0  0  0  0  0  0
   -1.9520    0.1880    1.1240 C   0  0  2  0  0  0  0  0  0  0  0  0
   -2.2600    0.6190    2.5370 C   0  0  0  0  0  0  0  0  0  0  0  0
   -1.9650    2.0540    2.8300 C   0  0  0  0  0  0  0  0  0  0  0  0
   -0.5620    2.4790    2.4460 C   0  0  0  0  0  0  0  0  0  0  0  0
   -0.0250    1.4790    1.5440 N   0  0  0  0  0  0  0  0  0  0  0  0
    1.2740    0.9630    1.7570 C   0  0  0  0  0  0  0  0  0  0  0  0
    1.9460    1.3830    2.7410 O   0  0  0  0  0  0  0  0  0  0  0  0
    1.9040   -0.0600    0.8840 C   0  0  0  0  0  0  0  0  0  0  0  0
    3.2330   -0.4590    1.4890 C   0  0  2  0  0  0  0  0  0  0  0  0
    4.3480    0.9430    1.6360 S   0  0  0  0  0  0  0  0  0  0  0  0
    4.9140    1.5650    0.0610 C   0  0  0  0  0  0  0  0  0  0  0  0
    6.0810    1.0580   -0.4610 C   0  0  0  0  0  0  0  0  0  0  0  0
    6.5720    1.4970   -1.6700 C   0  0  0  0  0  0  0  0  0  0  0  0
    5.9120    2.4600   -2.3960 C   0  0  0  0  0  0  0  0  0  0  0  0
    6.3690    2.9360   -3.6200 O   0  0  0  0  0  0  0  0  0  0  0  0
    7.5650    2.4340   -4.1700 C   0  0  0  0  0  0  0  0  0  0  0  0
    4.7360    2.9540   -1.8450 C   0  0  0  0  0  0  0  0  0  0  0  0
    4.2350    2.5260   -0.6410 C   0  0  0  0  0  0  0  0  0  0  0  0
    3.9200   -1.4760    0.6230 C   0  0  0  0  0  0  0  0  0  0  0  0
    3.4430   -1.6580   -0.5040 O   0  0  0  0  0  0  0  0  0  0  0  0
    5.0410   -2.1350    1.1520 N   0  0  0  0  0  0  0  0  0  0  0  0
    5.5440   -1.8310    2.4710 C   0  0  0  0  0  0  0  0  0  0  0  0
    6.9920   -1.5440    2.2890 C   0  0  0  0  0  0  0  0  0  0  0  0
    7.5120   -0.5230    2.7580 O   0  0  0  0  0  0  0  0  0  0  0  0
    7.7350   -2.4980    1.5550 N   0  0  0  0  0  0  0  0  0  0  0  0
    7.0650   -3.3080    0.5770 C   0  0  0  0  0  0  0  0  0  0  0  0
    7.7480   -4.2530   -0.1420 C   0  0  0  0  0  0  0  0  0  0  0  0
    7.0580   -5.0150   -1.0660 C   0  0  0  0  0  0  0  0  0  0  0  0
    5.7070   -4.8570   -1.2860 C   0  0  0  0  0  0  0  0  0  0  0  0
    5.0470   -3.8990   -0.5470 C   0  0  0  0  0  0  0  0  0  0  0  0
    5.7110   -3.1180    0.3830 C   0  0  0  0  0  0  0  0  0  0  0  0
   -0.9180    1.0670    0.4680 C   0  0  0  0  0  0  0  0  0  0  0  0
   -3.5520   -1.2180   -0.1670 C   0  0  0  0  0  0  0  0  0  0  0  0
   -4.7320   -1.3980   -0.8790 C   0  0  0  0  0  0  0  0  0  0  0  0
   -5.5900   -0.3580   -1.1010 C   0  0  0  0  0  0  0  0  0  0  0  0
   -6.8380   -0.5580   -1.8280 C   0  0  0  0  0  0  0  0  0  0  0  0
  1  2  1  0
  2  3  1  0
  4  3  1  6
  4  5  1  0
  4 46  1  0
  5  6  1  0
  6  7  2  0
  6  8  1  0
  8  9  2  0
  8 45  1  0
  9 10  1  0
 11 10  1  6
 10 43  2  0
 11 12  1  0
 11 42  1  0
 12 13  1  0
 13 14  1  0
 14 15  1  0
 15 16  1  0
 15 42  1  0
 16 17  2  0
 16 18  1  0
 19 18  1  6
 19 20  1  0
 19 29  1  0
 20 21  1  0
 21 22  2  0
 21 28  1  0
 22 23  1  0
 23 24  2  0
 24 25  1  0
 24 27  1  0
 25 26  1  0
 27 28  2  0
 29 30  2  0
 29 31  1  0
 31 32  1  0
 31 41  1  0
 32 33  1  0
 33 34  2  0
 33 35  1  0
 35 36  1  0
 36 37  2  0
 36 41  1  0
 37 38  1  0
 38 39  2  0
 39 40  1  0
 40 41  2  0
 43 44  1  0
 44 45  2  0
 45 46  1  0
M  CHG  1   2   1
M  END
