
     RDKit          3D

 46 50  0  0  0  0  0  0  0  0999 V2000
   -5.3070   -2.5120    2.1600 C   0  0  0  0  0  0  0  0  0  0  0  0
   -4.5340   -1.3510    2.2300 N   0  0  0  0  0  0  0  0  0  0  0  0
   -4.5810   -0.3970    1.1440 C   0  0  1  0  0  0  0  0  0  0  0  0
   -5.9190    0.2250    0.9230 C   0  0  2  0  0  0  0  0  0  0  0  0
   -6.3300    0.9740    2.1750 C   0  0  0  0  0  0  0  0  0  0  0  0
   -7.0660   -0.5640    0.4720 C   0  0  0  0  0  0  0  0  0  0  0  0
   -3.8350    0.8120    1.7690 C   0  0  0  0  0  0  0  0  0  0  0  0
   -2.3910    0.7070    1.8840 C   0  0  0  0  0  0  0  0  0  0  0  0
   -1.6940    0.1080    0.7600 N   0  0  0  0  0  0  0  0  0  0  0  0
   -0.4830    0.6450    0.3700 C   0  0  0  0  0  0  0  0  0  0  0  0
   -0.0250    1.6750    1.0350 O   0  0  0  0  0  0  0  0  0  0  0  0
    0.3460    0.1470   -0.7400 C   0  0  2  0  0  0  0  0  0  0  0  0
    1.6350    0.9000   -0.7260 N   0  0  0  0  0  0  0  0  0  0  0  0
    2.8380    0.1830   -0.6220 C   0  0  0  0  0  0  0  0  0  0  0  0
    2.6750   -1.1170   -0.5450 O   0  0  0  0  0  0  0  0  0  0  0  0
    4.1880    0.6830   -0.5870 C   0  0  0  0  0  0  0  0  0  0  0  0
    5.1480   -0.2430   -0.5190 C   0  0  0  0  0  0  0  0  0  0  0  0
    4.9550   -1.6340   -0.4830 C   0  0  0  0  0  0  0  0  0  0  0  0
    5.0820   -2.2660    0.7580 C   0  0  0  0  0  0  0  0  0  0  0  0
    4.9710   -3.6230    0.8650 C   0  0  0  0  0  0  0  0  0  0  0  0
    5.0960   -4.2630    2.0980 C   0  0  0  0  0  0  0  0  0  0  0  0
    4.9880   -5.6250    2.2240 C   0  0  0  0  0  0  0  0  0  0  0  0
    4.7480   -6.3450    1.0770 C   0  0  0  0  0  0  0  0  0  0  0  0
    4.6240   -5.7180   -0.1440 C   0  0  0  0  0  0  0  0  0  0  0  0
    4.7300   -4.3570   -0.2840 C   0  0  0  0  0  0  0  0  0  0  0  0
    4.6140   -3.7360   -1.4500 O   0  0  0  0  0  0  0  0  0  0  0  0
    4.7150   -2.4330   -1.5880 C   0  0  0  0  0  0  0  0  0  0  0  0
    4.5980   -1.8860   -2.7270 O   0  0  0  0  0  0  0  0  0  0  0  0
    4.6940    2.0380   -0.6040 C   0  0  0  0  0  0  0  0  0  0  0  0
    6.0060    2.1740   -0.5580 O   0  0  0  0  0  0  0  0  0  0  0  0
    4.0370    3.2640   -0.6590 N   0  0  0  0  0  0  0  0  0  0  0  0
    4.6360    4.5730   -0.6580 C   0  0  0  0  0  0  0  0  0  0  0  0
    3.9480    5.6210   -1.2630 C   0  0  0  0  0  0  0  0  0  0  0  0
    4.5090    6.8700   -1.2310 C   0  0  0  0  0  0  0  0  0  0  0  0
    5.7180    7.0650   -0.6140 C   0  0  0  0  0  0  0  0  0  0  0  0
    6.4210    6.0530   -0.0090 C   0  0  0  0  0  0  0  0  0  0  0  0
    5.8340    4.7740   -0.0470 C   0  0  0  0  0  0  0  0  0  0  0  0
   -0.2840    0.4710   -2.0280 C   0  0  0  0  0  0  0  0  0  0  0  0
   -0.7550   -0.3120   -3.0750 C   0  0  0  0  0  0  0  0  0  0  0  0
   -1.2750    0.3010   -4.1400 C   0  0  0  0  0  0  0  0  0  0  0  0
   -1.3510    1.6380   -4.2180 C   0  0  0  0  0  0  0  0  0  0  0  0
   -0.6050    2.1070   -2.6050 S   0  0  0  0  0  0  0  0  0  0  0  0
   -2.3400   -0.9910    0.1930 C   0  0  0  0  0  0  0  0  0  0  0  0
   -3.8410   -0.8050   -0.0510 C   0  0  2  0  0  0  0  0  0  0  0  0
   -4.0120    0.2650   -1.1320 C   0  0  0  0  0  0  0  0  0  0  0  0
   -4.1640   -2.1070   -0.6970 C   0  0  0  0  0  0  0  0  0  0  0  0
  1  2  1  0
  3  2  1  1
  3  4  1  0
  3  7  1  0
  3 44  1  0
  4  5  1  1
  4  6  1  0
  7  8  1  0
  8  9  1  0
  9 10  1  0
  9 43  1  0
 10 11  2  0
 10 12  1  0
 12 13  1  6
 12 38  1  0
 13 14  1  0
 14 15  2  0
 14 16  1  0
 16 17  2  3
 16 29  1  0
 17 18  1  0
 18 19  2  0
 18 27  1  0
 19 20  1  0
 20 21  2  0
 20 25  1  0
 21 22  1  0
 22 23  2  0
 23 24  1  0
 24 25  2  0
 25 26  1  0
 26 27  1  0
 27 28  2  0
 29 30  2  0
 29 31  1  0
 31 32  1  0
 32 33  2  0
 32 37  1  0
 33 34  1  0
 34 35  2  0
 35 36  1  0
 36 37  2  0
 38 39  2  0
 38 42  1  0
 39 40  1  0
 40 41  2  0
 41 42  1  0
 43 44  1  0
 44 45  1  6
 44 46  1  0
M  CHG  1   2   1
M  END
