
     RDKit          3D

 43 48  0  0  0  0  0  0  0  0999 V2000
    8.9790    1.1030   -1.0320 C   0  0  0  0  0  0  0  0  0  0  0  0
    8.0800    0.8270    0.1410 C   0  0  0  0  0  0  0  0  0  0  0  0
    8.0230   -0.3140    0.9020 C   0  0  0  0  0  0  0  0  0  0  0  0
    7.0560   -0.1100    1.8580 C   0  0  0  0  0  0  0  0  0  0  0  0
    6.6320   -1.0000    2.9310 C   0  0  0  0  0  0  0  0  0  0  0  0
    5.3950   -2.2330    2.5190 S   0  0  0  0  0  0  0  0  0  0  0  0
    3.8530   -1.4230    2.0820 C   0  0  0  0  0  0  0  0  0  0  0  0
    3.9330   -0.7720    0.7380 C   0  0  0  0  0  0  0  0  0  0  0  0
    4.9330   -0.7760   -0.1590 N   0  0  0  0  0  0  0  0  0  0  0  0
    4.5960   -0.1080   -1.2510 N   0  0  0  0  0  0  0  0  0  0  0  0
    5.4490    0.0760   -2.4110 C   0  0  0  0  0  0  0  0  0  0  0  0
    3.3480    0.3720   -1.1240 C   0  0  0  0  0  0  0  0  0  0  0  0
    2.6070    1.1850   -2.1510 C   0  0  0  0  0  0  0  0  0  0  0  0
    2.9190   -0.0360    0.1160 C   0  0  0  0  0  0  0  0  0  0  0  0
    1.6390    0.2390    0.7020 C   0  0  0  0  0  0  0  0  0  0  0  0
    1.4140    1.3570    1.4650 C   0  0  0  0  0  0  0  0  0  0  0  0
    0.1560    1.5470    1.9890 C   0  0  0  0  0  0  0  0  0  0  0  0
   -0.8820    0.6590    1.7770 C   0  0  0  0  0  0  0  0  0  0  0  0
   -0.6240   -0.4540    1.0070 C   0  0  0  0  0  0  0  0  0  0  0  0
   -1.4120   -1.5370    0.5940 C   0  0  0  0  0  0  0  0  0  0  0  0
   -2.8300   -1.6970    0.9500 C   0  0  0  0  0  0  0  0  0  0  0  0
   -3.6790   -0.7740    0.1090 C   0  0  0  0  0  0  0  0  0  0  0  0
   -5.1340   -0.9500    0.4810 C   0  0  0  0  0  0  0  0  0  0  0  0
   -5.9360   -0.0850   -0.3050 O   0  0  0  0  0  0  0  0  0  0  0  0
   -7.3020   -0.0980   -0.1160 C   0  0  0  0  0  0  0  0  0  0  0  0
   -7.8980   -0.9260    0.8110 C   0  0  0  0  0  0  0  0  0  0  0  0
   -9.2540   -0.9610    1.0210 C   0  0  0  0  0  0  0  0  0  0  0  0
  -10.0780   -0.1390    0.2830 C   0  0  0  0  0  0  0  0  0  0  0  0
   -9.5030    0.7100   -0.6620 C   0  0  0  0  0  0  0  0  0  0  0  0
  -10.3170    1.5430   -1.4110 C   0  0  0  0  0  0  0  0  0  0  0  0
   -9.7890    2.4060   -2.3640 C   0  0  0  0  0  0  0  0  0  0  0  0
   -8.4380    2.4240   -2.5560 C   0  0  0  0  0  0  0  0  0  0  0  0
   -7.6160    1.5940   -1.8110 C   0  0  0  0  0  0  0  0  0  0  0  0
   -8.1330    0.7250   -0.8540 C   0  0  0  0  0  0  0  0  0  0  0  0
   -0.6370   -2.3610   -0.1650 C   0  0  0  0  0  0  0  0  0  0  0  0
   -1.0290   -3.6260   -0.8210 C   0  0  0  0  0  0  0  0  0  0  0  0
   -0.2140   -4.2950   -1.4970 O   0  0  0  0  0  0  0  0  0  0  0  0
   -2.3130   -4.1270   -0.7170 O   0  0  0  0  0  0  0  0  0  0  0  0
    0.5830   -1.8450   -0.2420 N   0  0  0  0  0  0  0  0  0  0  0  0
    0.6160   -0.6840    0.4640 C   0  0  0  0  0  0  0  0  0  0  0  0
    6.5710    1.1250    1.6460 N   0  0  0  0  0  0  0  0  0  0  0  0
    7.1760    1.6940    0.6230 N   0  0  0  0  0  0  0  0  0  0  0  0
    6.8650    3.0290    0.1570 C   0  0  0  0  0  0  0  0  0  0  0  0
  1  2  1  0
  2  3  2  0
  2 42  1  0
  3  4  1  0
  4  5  1  0
  4 41  2  0
  5  6  1  0
  6  7  1  0
  7  8  1  0
  8  9  2  0
  8 14  1  0
  9 10  1  0
 10 11  1  0
 10 12  1  0
 12 13  1  0
 12 14  2  0
 14 15  1  0
 15 16  2  0
 15 40  1  0
 16 17  1  0
 17 18  2  0
 18 19  1  0
 19 20  1  0
 19 40  2  0
 20 21  1  0
 20 35  2  0
 21 22  1  0
 22 23  1  0
 23 24  1  0
 24 25  1  0
 25 26  2  0
 25 34  1  0
 26 27  1  0
 27 28  2  0
 28 29  1  0
 29 30  2  0
 29 34  1  0
 30 31  1  0
 31 32  2  0
 32 33  1  0
 33 34  2  0
 35 36  1  0
 35 39  1  0
 36 37  2  0
 36 38  1  0
 39 40  1  0
 41 42  1  0
 42 43  1  0
M  END
