
     RDKit          3D

 46 51  0  0  0  0  0  0  0  0999 V2000
    2.4370   -5.5380    1.5680 C   0  0  0  0  0  0  0  0  0  0  0  0
    2.0700   -4.2930    2.8340 S   0  0  0  0  0  0  0  0  0  0  0  0
    2.8050   -2.6700    2.3620 C   0  0  0  0  0  0  0  0  0  0  0  0
    2.0010   -2.2550    1.0750 C   0  0  1  0  0  0  0  0  0  0  0  0
    0.6760   -2.2020    1.5900 N   0  0  0  0  0  0  0  0  0  0  0  0
   -0.4810   -2.5990    0.8800 C   0  0  0  0  0  0  0  0  0  0  0  0
   -0.4060   -2.6630   -0.5410 C   0  0  0  0  0  0  0  0  0  0  0  0
   -1.2700   -1.9660   -1.5160 C   0  0  0  0  0  0  0  0  0  0  0  0
   -0.9600   -2.5010   -2.8210 C   0  0  0  0  0  0  0  0  0  0  0  0
   -1.5220   -2.0780   -3.9700 C   0  0  0  0  0  0  0  0  0  0  0  0
   -2.4410   -1.0850   -3.9090 C   0  0  0  0  0  0  0  0  0  0  0  0
   -2.7580   -0.5560   -2.6940 C   0  0  0  0  0  0  0  0  0  0  0  0
   -2.1930   -0.9680   -1.4430 C   0  0  0  0  0  0  0  0  0  0  0  0
   -2.7540   -0.2150   -0.2700 C   0  0  0  0  0  0  0  0  0  0  0  0
   -4.2630   -0.1980   -0.2750 C   0  0  0  0  0  0  0  0  0  0  0  0
   -4.8860    0.6870    0.6490 N   0  0  0  0  0  0  0  0  0  0  0  0
   -4.8570    2.0760    0.3310 C   0  0  0  0  0  0  0  0  0  0  0  0
   -6.0870    2.5470   -0.4330 C   0  0  2  0  0  0  0  0  0  0  0  0
   -6.5770    3.8750    0.0860 C   0  0  0  0  0  0  0  0  0  0  0  0
   -7.2220    1.5850   -0.4190 C   0  0  0  0  0  0  0  0  0  0  0  0
   -7.3080    0.9650    0.9580 C   0  0  1  0  0  0  0  0  0  0  0  0
   -8.5390    0.1200    1.0230 C   0  0  0  0  0  0  0  0  0  0  0  0
   -6.0520    0.2150    1.3130 C   0  0  0  0  0  0  0  0  0  0  0  0
   -2.0290    0.4210    0.6640 C   0  0  0  0  0  0  0  0  0  0  0  0
   -2.7860    1.0560    1.6700 O   0  0  0  0  0  0  0  0  0  0  0  0
   -2.5600    1.0240    3.0430 C   0  0  0  0  0  0  0  0  0  0  0  0
   -1.0920    0.9430    3.2390 C   0  0  0  0  0  0  0  0  0  0  0  0
   -0.4170    1.3110    2.0590 O   0  0  0  0  0  0  0  0  0  0  0  0
   -0.5660    0.5600    0.8500 C   0  0  0  0  0  0  0  0  0  0  0  0
    0.4940    0.2150    0.2300 C   0  0  0  0  0  0  0  0  0  0  0  0
    1.9410    0.1100    0.0650 C   0  0  0  0  0  0  0  0  0  0  0  0
    2.5910   -1.0500    0.4710 C   0  0  0  0  0  0  0  0  0  0  0  0
    4.0460   -1.0810    0.2600 C   0  0  0  0  0  0  0  0  0  0  0  0
    4.8170   -0.0600   -0.1840 N   0  0  0  0  0  0  0  0  0  0  0  0
    6.0740   -0.5240   -0.2340 C   0  0  0  0  0  0  0  0  0  0  0  0
    7.2870    0.1530   -0.6340 C   0  0  0  0  0  0  0  0  0  0  0  0
    8.3730   -0.4580   -0.6410 O   0  0  0  0  0  0  0  0  0  0  0  0
    7.2740    1.5170   -1.0230 N   0  0  0  0  0  0  0  0  0  0  0  0
    8.5030    2.2090   -1.4280 C   0  0  2  0  0  0  0  0  0  0  0  0
    8.8060    3.3400   -0.4610 C   0  0  0  0  0  0  0  0  0  0  0  0
    9.5350    4.2630   -1.3140 N   0  0  0  0  0  0  0  0  0  0  0  0
    9.0410    4.1550   -2.6440 C   0  0  0  0  0  0  0  0  0  0  0  0
    9.2130    4.9460   -3.5900 O   0  0  0  0  0  0  0  0  0  0  0  0
    8.2560    2.8970   -2.7290 C   0  0  0  0  0  0  0  0  0  0  0  0
    6.0430   -1.8460    0.1900 C   0  0  0  0  0  0  0  0  0  0  0  0
    4.8150   -2.1000    0.4630 O   0  0  0  0  0  0  0  0  0  0  0  0
  1  2  1  0
  2  3  1  0
  4  3  1  1
  4  5  1  0
  4 32  1  0
  5  6  1  0
  6  7  1  0
  7  8  1  0
  8  9  2  0
  8 13  1  0
  9 10  1  0
 10 11  2  0
 11 12  1  0
 12 13  2  0
 13 14  1  0
 14 15  1  0
 14 24  2  0
 15 16  1  0
 16 17  1  0
 16 23  1  0
 17 18  1  0
 18 19  1  1
 18 20  1  0
 20 21  1  0
 21 22  1  6
 21 23  1  0
 24 25  1  0
 24 29  1  0
 25 26  1  0
 26 27  1  0
 27 28  1  0
 28 29  1  0
 29 30  2  0
 30 31  1  0
 31 32  2  0
 32 33  1  0
 33 34  2  0
 33 46  1  0
 34 35  1  0
 35 36  1  0
 35 45  2  0
 36 37  2  0
 36 38  1  0
 39 38  1  1
 39 40  1  0
 39 44  1  0
 40 41  1  0
 41 42  1  0
 42 43  2  0
 42 44  1  0
 45 46  1  0
M  CHG  1   5   1
M  END
