
     RDKit          3D

 46 52  0  0  0  0  0  0  0  0999 V2000
    6.4600    2.3570   -2.0650 C   0  0  0  0  0  0  0  0  0  0  0  0
    6.3640    0.8690   -2.2550 C   0  0  0  0  0  0  0  0  0  0  0  0
    5.3170    0.2860   -1.2940 C   0  0  0  0  0  0  0  0  0  0  0  0
    4.0880   -0.0970   -1.6610 C   0  0  0  0  0  0  0  0  0  0  0  0
    3.2510   -0.6010   -0.6970 C   0  0  0  0  0  0  0  0  0  0  0  0
    1.8660   -1.0630   -0.9500 C   0  0  0  0  0  0  0  0  0  0  0  0
    1.3200   -1.6580    0.2880 N   0  0  0  0  0  0  0  0  0  0  0  0
    0.6710   -0.7060    1.1430 C   0  0  0  0  0  0  0  0  0  0  0  0
   -0.0280    0.3980    0.4680 C   0  0  0  0  0  0  0  0  0  0  0  0
    0.4980    1.6700    0.8480 O   0  0  0  0  0  0  0  0  0  0  0  0
   -1.0040    0.4370   -0.3820 C   0  0  0  0  0  0  0  0  0  0  0  0
   -1.4340    1.8190   -0.8380 C   0  0  0  0  0  0  0  0  0  0  0  0
   -0.6080    2.7080   -1.4170 N   0  0  0  0  0  0  0  0  0  0  0  0
   -1.2730    3.8160   -1.6650 N   0  0  0  0  0  0  0  0  0  0  0  0
   -2.5450    3.6970   -1.2620 C   0  0  0  0  0  0  0  0  0  0  0  0
   -3.6560    4.4960   -1.2500 C   0  0  0  0  0  0  0  0  0  0  0  0
   -4.8380    4.0180   -0.7160 C   0  0  0  0  0  0  0  0  0  0  0  0
   -4.9750    2.7700   -0.1850 C   0  0  0  0  0  0  0  0  0  0  0  0
   -6.2070    2.2520    0.3820 C   0  0  0  0  0  0  0  0  0  0  0  0
   -6.2460    1.0930    0.8500 O   0  0  0  0  0  0  0  0  0  0  0  0
   -7.4530    3.0490    0.4360 C   0  0  1  0  0  0  0  0  0  0  0  0
   -8.7760    2.3790    0.3290 C   0  0  0  0  0  0  0  0  0  0  0  0
   -8.3190    2.9470    1.6790 C   0  0  0  0  0  0  0  0  0  0  0  0
   -3.8310    1.9610   -0.2030 C   0  0  0  0  0  0  0  0  0  0  0  0
   -2.6490    2.4100   -0.7280 C   0  0  0  0  0  0  0  0  0  0  0  0
   -1.7760   -0.5440   -1.0870 C   0  0  0  0  0  0  0  0  0  0  0  0
   -1.9710   -1.8850   -0.7000 N   0  0  2  0  0  0  0  0  0  0  0  0
   -2.6200   -2.4570   -1.9060 C   0  0  0  0  0  0  0  0  0  0  0  0
   -3.5930   -3.5260   -1.6710 C   0  0  0  0  0  0  0  0  0  0  0  0
   -4.6060   -3.2660   -0.6090 C   0  0  0  0  0  0  0  0  0  0  0  0
   -4.2220   -1.9890    0.1040 C   0  0  0  0  0  0  0  0  0  0  0  0
   -2.7570   -2.1010    0.4730 C   0  0  1  0  0  0  0  0  0  0  0  0
   -2.5590   -3.4010    1.1670 C   0  0  0  0  0  0  0  0  0  0  0  0
   -1.5890   -3.3940    2.2860 C   0  0  0  0  0  0  0  0  0  0  0  0
   -2.0320   -3.4360    3.4590 O   0  0  0  0  0  0  0  0  0  0  0  0
   -0.2700   -3.3420    2.0280 O   0  0  0  0  0  0  0  0  0  0  0  0
    0.5590   -3.9850    1.1500 C   0  0  0  0  0  0  0  0  0  0  0  0
    1.4950   -3.0300    0.5160 C   0  0  0  0  0  0  0  0  0  0  0  0
    2.6020   -3.5330    0.1320 O   0  0  0  0  0  0  0  0  0  0  0  0
    4.1730   -0.5450    0.7320 S   0  0  0  0  0  0  0  0  0  0  0  0
    5.6900    0.1620    0.0210 C   0  0  0  0  0  0  0  0  0  0  0  0
    6.9220    0.4740    0.7390 C   0  0  0  0  0  0  0  0  0  0  0  0
    6.8220    0.1590    2.1540 N   0  0  0  0  0  0  0  0  0  0  0  0
    8.0440    0.4740    2.8230 C   0  0  1  0  0  0  0  0  0  0  0  0
    9.2630   -0.3110    2.3650 C   0  0  0  0  0  0  0  0  0  0  0  0
    9.1590    1.1790    2.1750 C   0  0  0  0  0  0  0  0  0  0  0  0
  1  2  1  0
  2  3  1  0
  3  4  1  0
  3 41  2  0
  4  5  2  0
  5  6  1  0
  5 40  1  0
  6  7  1  0
  7  8  1  0
  7 38  1  0
  8  9  1  0
  9 10  1  0
  9 11  2  0
 11 12  1  0
 11 26  1  0
 12 13  2  0
 12 25  1  0
 13 14  1  0
 14 15  1  0
 15 16  2  0
 15 25  1  0
 16 17  1  0
 17 18  2  0
 18 19  1  0
 18 24  1  0
 19 20  2  0
 21 19  1  1
 21 22  1  0
 21 23  1  0
 22 23  1  0
 24 25  2  0
 27 26  1  6
 27 28  1  0
 27 32  1  0
 28 29  1  0
 29 30  1  0
 30 31  1  0
 32 31  1  6
 32 33  1  0
 33 34  1  0
 34 35  2  0
 34 36  1  0
 36 37  1  0
 37 38  1  0
 38 39  2  0
 40 41  1  0
 41 42  1  0
 42 43  1  0
 44 43  1  6
 44 45  1  0
 44 46  1  0
 45 46  1  0
M  CHG  1  27   1
M  END
