
     RDKit          3D

 46 50  0  0  0  0  0  0  0  0999 V2000
    8.3900    1.0860   -2.9360 C   0  0  0  0  0  0  0  0  0  0  0  0
    8.0850    1.4180   -1.4890 C   0  0  0  0  0  0  0  0  0  0  0  0
    8.6660    2.4080   -1.0480 O   0  0  0  0  0  0  0  0  0  0  0  0
    7.2080    0.6440   -0.7420 N   0  0  0  0  0  0  0  0  0  0  0  0
    6.8370    0.8490    0.6030 C   0  0  0  0  0  0  0  0  0  0  0  0
    7.1990    2.0380    1.2260 C   0  0  0  0  0  0  0  0  0  0  0  0
    6.8140    2.2960    2.5100 C   0  0  0  0  0  0  0  0  0  0  0  0
    6.0620    1.3780    3.1990 C   0  0  0  0  0  0  0  0  0  0  0  0
    5.6970    0.1830    2.5780 C   0  0  0  0  0  0  0  0  0  0  0  0
    6.0800   -0.0830    1.2920 C   0  0  0  0  0  0  0  0  0  0  0  0
    5.7060   -1.3510    0.7150 C   0  0  1  0  0  0  0  0  0  0  0  0
    5.8170   -2.5000    1.6190 C   0  0  0  0  0  0  0  0  0  0  0  0
    6.8140   -2.8700    2.3320 O   0  0  0  0  0  0  0  0  0  0  0  0
    4.5860   -3.1730    1.5800 N   0  0  0  0  0  0  0  0  0  0  0  0
    3.7570   -2.5640    0.7700 C   0  0  0  0  0  0  0  0  0  0  0  0
    2.3970   -2.6270    0.2240 C   0  0  0  0  0  0  0  0  0  0  0  0
    1.5170   -3.4800    0.4710 O   0  0  0  0  0  0  0  0  0  0  0  0
    2.3060   -1.4830   -0.6600 C   0  0  0  0  0  0  0  0  0  0  0  0
    1.0750   -1.1250   -1.4530 C   0  0  0  0  0  0  0  0  0  0  0  0
   -0.0460   -0.8980   -0.5590 N   0  0  0  0  0  0  0  0  0  0  0  0
   -1.2370   -0.6280   -1.3210 C   0  0  2  0  0  0  0  0  0  0  0  0
   -1.5660    0.8250   -1.0720 C   0  0  0  0  0  0  0  0  0  0  0  0
   -1.5700    1.2080    0.2600 C   0  0  0  0  0  0  0  0  0  0  0  0
   -1.8510    2.5130    0.5870 C   0  0  0  0  0  0  0  0  0  0  0  0
   -2.1230    3.4190   -0.4130 C   0  0  0  0  0  0  0  0  0  0  0  0
   -2.4010    4.7240   -0.0440 O   0  0  0  0  0  0  0  0  0  0  0  0
   -2.4130    5.1500    1.3010 C   0  0  0  0  0  0  0  0  0  0  0  0
   -2.7460    6.6130    1.3480 C   0  0  2  0  0  0  0  0  0  0  0  0
   -4.1170    6.7890    0.7150 C   0  0  0  0  0  0  0  0  0  0  0  0
   -1.7070    7.4100    0.5540 C   0  0  0  0  0  0  0  0  0  0  0  0
   -2.1150    3.0220   -1.7310 C   0  0  0  0  0  0  0  0  0  0  0  0
   -1.8320    1.6980   -2.0840 C   0  0  0  0  0  0  0  0  0  0  0  0
   -2.4420   -1.3710   -0.7240 C   0  0  1  0  0  0  0  0  0  0  0  0
   -3.6300   -1.0190   -1.5940 C   0  0  0  0  0  0  0  0  0  0  0  0
   -2.2270   -2.8370   -0.6790 C   0  0  0  0  0  0  0  0  0  0  0  0
   -1.2000   -3.3920   -1.1240 O   0  0  0  0  0  0  0  0  0  0  0  0
   -3.2670   -3.6090   -0.0920 N   0  0  0  0  0  0  0  0  0  0  0  0
   -2.9830   -5.0410   -0.0850 C   0  0  0  0  0  0  0  0  0  0  0  0
   -3.9230   -5.7490   -1.0350 C   0  0  0  0  0  0  0  0  0  0  0  0
   -5.5720   -5.0110   -0.8650 S   0  0  0  0  0  0  0  0  0  0  0  0
   -5.9250   -4.8870    0.9180 C   0  0  2  0  0  0  0  0  0  0  0  0
   -7.3830   -4.5370    1.1330 C   0  0  0  0  0  0  0  0  0  0  0  0
   -5.0290   -3.8230    1.5190 C   0  0  0  0  0  0  0  0  0  0  0  0
   -4.4420   -2.9480    0.4170 C   0  0  0  0  0  0  0  0  0  0  0  0
    3.4250   -0.8020   -0.6760 C   0  0  0  0  0  0  0  0  0  0  0  0
    4.3720   -1.4380    0.2050 N   0  0  0  0  0  0  0  0  0  0  0  0
  1  2  1  0
  2  3  2  0
  2  4  1  0
  4  5  1  0
  5  6  2  0
  5 10  1  0
  6  7  1  0
  7  8  2  0
  8  9  1  0
  9 10  2  0
 11 10  1  1
 11 12  1  0
 11 46  1  0
 12 13  2  0
 12 14  1  0
 14 15  2  0
 15 16  1  0
 15 46  1  0
 16 17  2  0
 16 18  1  0
 18 19  1  0
 18 45  2  0
 19 20  1  0
 21 20  1  1
 21 22  1  0
 21 33  1  0
 22 23  2  0
 22 32  1  0
 23 24  1  0
 24 25  2  0
 25 26  1  0
 25 31  1  0
 26 27  1  0
 27 28  1  0
 28 29  1  6
 28 30  1  0
 31 32  2  0
 33 34  1  6
 33 35  1  0
 35 36  2  0
 35 37  1  0
 37 38  1  0
 37 44  1  0
 38 39  1  0
 39 40  1  0
 40 41  1  0
 41 42  1  6
 41 43  1  0
 43 44  1  0
 45 46  1  0
M  CHG  1  20   1
M  END
