
     RDKit          3D

 46 51  0  0  0  0  0  0  0  0999 V2000
   -7.3210    2.3940   -0.6670 C   0  0  0  0  0  0  0  0  0  0  0  0
   -8.3420    1.4840   -1.7900 S   0  0  2  0  0  0  0  0  0  0  0  0
   -8.2290    2.0560   -3.1470 O   0  0  0  0  0  0  0  0  0  0  0  0
   -9.8030    1.5890   -1.3510 O   0  0  0  0  0  0  0  0  0  0  0  0
   -7.9290   -0.1910   -1.8380 N   0  0  0  0  0  0  0  0  0  0  0  0
   -8.1400   -0.8020   -0.5310 C   0  0  0  0  0  0  0  0  0  0  0  0
   -7.4850   -2.1670   -0.5370 C   0  0  0  0  0  0  0  0  0  0  0  0
   -5.9620   -1.9330   -0.4140 C   0  0  0  0  0  0  0  0  0  0  0  0
   -5.6050   -0.6080   -1.0560 C   0  0  1  0  0  0  0  0  0  0  0  0
   -4.2080   -0.5940   -1.5960 C   0  0  0  0  0  0  0  0  0  0  0  0
   -3.0970   -0.7950   -0.6490 C   0  0  0  0  0  0  0  0  0  0  0  0
   -2.8940    0.1560    0.3840 N   0  0  2  0  0  0  0  0  0  0  0  0
   -1.4430    0.3360    0.6640 C   0  0  0  0  0  0  0  0  0  0  0  0
   -0.8100   -0.9890    0.9520 C   0  0  0  0  0  0  0  0  0  0  0  0
    0.6610   -0.8640    1.2870 C   0  0  1  0  0  0  0  0  0  0  0  0
    1.1680   -2.2910    1.5460 C   0  0  0  0  0  0  0  0  0  0  0  0
    1.4970   -2.9430    0.2010 C   0  0  0  0  0  0  0  0  0  0  0  0
    2.7410   -2.2740   -0.3800 C   0  0  0  0  0  0  0  0  0  0  0  0
    2.7380   -0.8490   -0.0810 N   0  0  0  0  0  0  0  0  0  0  0  0
    3.9200   -0.0780   -0.1190 C   0  0  0  0  0  0  0  0  0  0  0  0
    3.8850    1.1170    0.2260 O   0  0  0  0  0  0  0  0  0  0  0  0
    5.1770   -0.6690   -0.5590 C   0  0  0  0  0  0  0  0  0  0  0  0
    5.1640   -1.8290   -1.0140 O   0  0  0  0  0  0  0  0  0  0  0  0
    6.3670    0.0660   -0.4640 N   0  0  0  0  0  0  0  0  0  0  0  0
    7.6290   -0.3890   -0.8750 C   0  0  0  0  0  0  0  0  0  0  0  0
    7.8090   -1.4280   -1.7640 C   0  0  0  0  0  0  0  0  0  0  0  0
    9.0670   -1.8040   -2.2250 C   0  0  0  0  0  0  0  0  0  0  0  0
   10.1480   -1.1010   -1.7630 C   0  0  0  0  0  0  0  0  0  0  0  0
   10.0110   -0.0600   -0.8760 C   0  0  0  0  0  0  0  0  0  0  0  0
   11.1210    0.6300   -0.3940 C   0  0  0  0  0  0  0  0  0  0  0  0
   11.0010    1.6540    0.5120 C   0  0  0  0  0  0  0  0  0  0  0  0
   11.9150    2.4860    1.1520 C   0  0  0  0  0  0  0  0  0  0  0  0
   11.1900    3.3430    1.9860 C   0  0  0  0  0  0  0  0  0  0  0  0
    9.8750    3.0360    1.8520 N   0  0  0  0  0  0  0  0  0  0  0  0
    9.7650    2.0280    0.9720 C   0  0  0  0  0  0  0  0  0  0  0  0
    8.6480    1.3380    0.4900 C   0  0  0  0  0  0  0  0  0  0  0  0
    8.7630    0.3180   -0.4130 C   0  0  0  0  0  0  0  0  0  0  0  0
    1.4700   -0.2080    0.2370 C   0  0  0  0  0  0  0  0  0  0  0  0
   -3.4460   -0.2090    1.6720 C   0  0  0  0  0  0  0  0  0  0  0  0
   -4.4400    0.7790    2.1810 C   0  0  0  0  0  0  0  0  0  0  0  0
   -4.1830    2.1340    2.1330 C   0  0  0  0  0  0  0  0  0  0  0  0
   -5.1100    3.0500    2.6280 C   0  0  0  0  0  0  0  0  0  0  0  0
   -6.3070    2.6480    3.1770 C   0  0  0  0  0  0  0  0  0  0  0  0
   -6.5640    1.2900    3.2240 C   0  0  0  0  0  0  0  0  0  0  0  0
   -5.6360    0.3900    2.7310 C   0  0  0  0  0  0  0  0  0  0  0  0
   -6.5430   -0.3940   -2.2210 C   0  0  0  0  0  0  0  0  0  0  0  0
  2  1  1  1
  2  3  2  0
  2  4  2  0
  2  5  1  0
  5  6  1  0
  5 46  1  0
  6  7  1  0
  7  8  1  0
  8  9  1  0
  9 10  1  6
  9 46  1  0
 10 11  1  0
 12 11  1  6
 12 13  1  0
 12 39  1  0
 13 14  1  0
 15 14  1  6
 15 16  1  0
 15 38  1  0
 16 17  1  0
 17 18  1  0
 18 19  1  0
 19 20  1  0
 19 38  1  0
 20 21  2  0
 20 22  1  0
 22 23  2  0
 22 24  1  0
 24 25  1  0
 25 26  2  0
 25 37  1  0
 26 27  1  0
 27 28  2  0
 28 29  1  0
 29 30  2  0
 29 37  1  0
 30 31  1  0
 31 32  1  0
 31 35  2  0
 32 33  2  0
 33 34  1  0
 34 35  1  0
 35 36  1  0
 36 37  2  0
 39 40  1  0
 40 41  2  0
 40 45  1  0
 41 42  1  0
 42 43  2  0
 43 44  1  0
 44 45  2  0
M  CHG  1  12   1
M  END
