
     RDKit          3D

 47 51  0  0  0  0  0  0  0  0999 V2000
    8.0700   -0.8520   -1.1530 C   0  0  0  0  0  0  0  0  0  0  0  0
    7.1560   -0.8020   -2.3300 C   0  0  0  0  0  0  0  0  0  0  0  0
    5.7720   -0.2860   -1.9630 C   0  0  0  0  0  0  0  0  0  0  0  0
    5.2190   -1.1980   -0.9660 N   0  0  0  0  0  0  0  0  0  0  0  0
    3.9080   -0.7060   -0.5300 C   0  0  1  0  0  0  0  0  0  0  0  0
    2.9890   -0.6430   -1.7060 C   0  0  0  0  0  0  0  0  0  0  0  0
    1.5610   -0.7030   -1.2480 N   0  0  0  0  0  0  0  0  0  0  0  0
    0.7670    0.4150   -1.4570 C   0  0  0  0  0  0  0  0  0  0  0  0
    1.5050    1.4030   -1.9810 O   0  0  0  0  0  0  0  0  0  0  0  0
   -0.6070    0.7640   -1.2630 C   0  0  2  0  0  0  0  0  0  0  0  0
   -0.7520    2.2250   -1.8850 C   0  0  0  0  0  0  0  0  0  0  0  0
   -2.1200    2.6950   -1.7660 C   0  0  0  0  0  0  0  0  0  0  0  0
   -2.9760    2.1350   -2.5650 O   0  0  0  0  0  0  0  0  0  0  0  0
   -2.6320    3.6740   -0.9010 N   0  0  0  0  0  0  0  0  0  0  0  0
   -4.0500    4.0210   -0.9090 C   0  0  0  0  0  0  0  0  0  0  0  0
   -4.2480    5.3430   -0.2210 C   0  0  0  0  0  0  0  0  0  0  0  0
   -3.1960    6.2990   -0.6820 C   0  0  1  0  0  0  0  0  0  0  0  0
   -3.3810    7.6720   -0.0510 C   0  0  0  0  0  0  0  0  0  0  0  0
   -1.7990    5.8450   -0.3570 C   0  0  0  0  0  0  0  0  0  0  0  0
   -1.8060    4.3790    0.0370 C   0  0  0  0  0  0  0  0  0  0  0  0
   -1.2910    0.8580    0.0020 C   0  0  0  0  0  0  0  0  0  0  0  0
   -1.5420   -0.1820    0.9540 C   0  0  0  0  0  0  0  0  0  0  0  0
   -0.6020   -0.5050    1.9500 C   0  0  0  0  0  0  0  0  0  0  0  0
   -0.8500   -1.4220    2.9480 C   0  0  0  0  0  0  0  0  0  0  0  0
    0.0130   -1.6910    3.8320 O   0  0  0  0  0  0  0  0  0  0  0  0
   -2.0360   -2.0450    2.9810 N   0  0  0  0  0  0  0  0  0  0  0  0
   -2.3560   -3.0240    4.0250 C   0  0  0  0  0  0  0  0  0  0  0  0
   -1.9610   -4.4070    3.6370 C   0  0  0  0  0  0  0  0  0  0  0  0
   -2.9370   -1.7500    2.0400 C   0  0  0  0  0  0  0  0  0  0  0  0
   -4.0370   -2.3550    2.1040 O   0  0  0  0  0  0  0  0  0  0  0  0
   -2.7130   -0.8380    1.0360 N   0  0  0  0  0  0  0  0  0  0  0  0
   -3.7980   -0.5800    0.1540 C   0  0  0  0  0  0  0  0  0  0  0  0
   -3.9410   -1.5470   -0.9500 C   0  0  0  0  0  0  0  0  0  0  0  0
   -5.1910   -1.9150   -1.4020 C   0  0  0  0  0  0  0  0  0  0  0  0
   -5.3630   -2.8300   -2.4270 C   0  0  0  0  0  0  0  0  0  0  0  0
   -4.2230   -3.3680   -2.9860 C   0  0  0  0  0  0  0  0  0  0  0  0
   -2.9720   -3.0180   -2.5510 C   0  0  0  0  0  0  0  0  0  0  0  0
   -2.8370   -2.1050   -1.5310 C   0  0  0  0  0  0  0  0  0  0  0  0
    1.2090   -1.9350   -0.6600 C   0  0  0  0  0  0  0  0  0  0  0  0
    2.1670   -2.2690    0.4400 C   0  0  0  0  0  0  0  0  0  0  0  0
    3.3920   -1.6770    0.4960 C   0  0  0  0  0  0  0  0  0  0  0  0
    4.2280   -1.9720    1.4970 N   0  0  0  0  0  0  0  0  0  0  0  0
    3.9240   -2.8520    2.4900 C   0  0  0  0  0  0  0  0  0  0  0  0
    4.8820   -3.1510    3.5860 C   0  0  0  0  0  0  0  0  0  0  0  0
    2.6910   -3.4490    2.4310 C   0  0  0  0  0  0  0  0  0  0  0  0
    1.7910   -3.1780    1.4190 C   0  0  0  0  0  0  0  0  0  0  0  0
    0.6570   -3.7330    1.3660 O   0  0  0  0  0  0  0  0  0  0  0  0
  1  2  1  0
  2  3  1  0
  3  4  1  0
  5  4  1  6
  5  6  1  0
  5 41  1  0
  6  7  1  0
  7  8  1  0
  7 39  1  0
  8  9  2  0
  8 10  1  0
 10 11  1  1
 10 21  1  0
 11 12  1  0
 12 13  2  0
 12 14  1  0
 14 15  1  0
 14 20  1  0
 15 16  1  0
 16 17  1  0
 17 18  1  1
 17 19  1  0
 19 20  1  0
 21 22  1  0
 22 23  2  0
 22 31  1  0
 23 24  1  0
 24 25  2  0
 24 26  1  0
 26 27  1  0
 26 29  1  0
 27 28  1  0
 29 30  2  0
 29 31  1  0
 31 32  1  0
 32 33  1  0
 33 34  2  0
 33 38  1  0
 34 35  1  0
 35 36  2  0
 36 37  1  0
 37 38  2  0
 39 40  1  0
 40 41  2  0
 40 46  1  0
 41 42  1  0
 42 43  1  0
 43 44  1  0
 43 45  2  0
 45 46  1  0
 46 47  2  0
M  CHG  1   4   1
M  END
