
     RDKit          3D

 38 41  0  0  0  0  0  0  0  0999 V2000
    7.1880    1.3210    0.8700 C   0  0  0  0  0  0  0  0  0  0  0  0
    6.8410    0.3880   -0.2950 C   0  0  1  0  0  0  0  0  0  0  0  0
    7.2150    1.1350   -1.5740 C   0  0  0  0  0  0  0  0  0  0  0  0
    7.5720   -0.8830   -0.2000 C   0  0  0  0  0  0  0  0  0  0  0  0
    8.8910   -0.8610   -0.2180 C   0  0  0  0  0  0  0  0  0  0  0  0
    9.6510   -2.1170   -0.1230 C   0  0  0  0  0  0  0  0  0  0  0  0
    8.8790   -3.2580   -0.7040 C   0  0  0  0  0  0  0  0  0  0  0  0
    7.6350   -3.3190   -0.0170 O   0  0  0  0  0  0  0  0  0  0  0  0
    6.8550   -2.1490   -0.0960 C   0  0  0  0  0  0  0  0  0  0  0  0
    5.5410   -2.1550   -0.0790 C   0  0  0  0  0  0  0  0  0  0  0  0
    4.7660   -0.9350   -0.1630 C   0  0  0  0  0  0  0  0  0  0  0  0
    5.3750    0.2120   -0.2610 C   0  0  0  0  0  0  0  0  0  0  0  0
    4.6060    1.3560   -0.3400 O   0  0  0  0  0  0  0  0  0  0  0  0
    3.2600    1.4240   -0.0080 C   0  0  0  0  0  0  0  0  0  0  0  0
    2.6270    0.1540    0.4490 C   0  0  1  0  0  0  0  0  0  0  0  0
    1.2500    0.1640    0.1130 O   0  0  0  0  0  0  0  0  0  0  0  0
    0.2450    0.0900    1.0660 C   0  0  0  0  0  0  0  0  0  0  0  0
    0.5970    0.0140    2.2630 O   0  0  0  0  0  0  0  0  0  0  0  0
   -1.2040    0.0970    0.7330 C   0  0  1  0  0  0  0  0  0  0  0  0
   -1.9240    1.2830    1.3330 C   0  0  0  0  0  0  0  0  0  0  0  0
   -2.5040    1.9490    0.1240 C   0  0  1  0  0  0  0  0  0  0  0  0
   -3.7690    2.5920    0.3760 N   0  0  0  0  0  0  0  0  0  0  0  0
   -1.4820    2.9470   -0.3840 C   0  0  0  0  0  0  0  0  0  0  0  0
   -1.3450    3.9240    0.6290 O   0  0  0  0  0  0  0  0  0  0  0  0
   -2.5910    0.8240   -0.8570 C   0  0  2  0  0  0  0  0  0  0  0  0
   -3.6390   -0.1960   -0.5230 C   0  0  0  0  0  0  0  0  0  0  0  0
   -4.9150    0.3280   -0.7090 O   0  0  0  0  0  0  0  0  0  0  0  0
   -5.8920   -0.6370   -0.3920 C   0  0  2  0  0  0  0  0  0  0  0  0
   -6.7260   -0.7830   -1.6340 C   0  0  0  0  0  0  0  0  0  0  0  0
   -5.8980   -1.2290   -2.8260 C   0  0  0  0  0  0  0  0  0  0  0  0
   -5.2850   -2.4560   -2.6190 O   0  0  0  0  0  0  0  0  0  0  0  0
   -6.7250   -0.0230    0.6910 C   0  0  0  0  0  0  0  0  0  0  0  0
   -7.8390   -0.8420    1.2250 C   0  0  2  0  0  0  0  0  0  0  0  0
   -8.8000   -1.2100    0.3190 O   0  0  0  0  0  0  0  0  0  0  0  0
   -8.4880   -0.0050    2.3400 C   0  0  0  0  0  0  0  0  0  0  0  0
   -9.4710   -0.7450    2.9940 O   0  0  0  0  0  0  0  0  0  0  0  0
   -1.3430    0.1910   -0.6380 O   0  0  0  0  0  0  0  0  0  0  0  0
    3.2830   -1.0760   -0.1310 C   0  0  0  0  0  0  0  0  0  0  0  0
  2  1  1  1
  2  3  1  0
  2  4  1  0
  2 12  1  0
  4  5  2  0
  4  9  1  0
  5  6  1  0
  6  7  1  0
  7  8  1  0
  8  9  1  0
  9 10  2  0
 10 11  1  0
 11 12  2  0
 11 38  1  0
 12 13  1  0
 13 14  1  0
 14 15  1  0
 15 16  1  6
 15 38  1  0
 16 17  1  0
 17 18  2  0
 19 17  1  6
 19 20  1  0
 19 37  1  0
 20 21  1  0
 21 22  1  1
 21 23  1  0
 21 25  1  0
 23 24  1  0
 25 26  1  1
 25 37  1  0
 26 27  1  0
 27 28  1  0
 28 29  1  6
 28 32  1  0
 29 30  1  0
 30 31  1  0
 32 33  1  0
 33 34  1  6
 33 35  1  0
 35 36  1  0
M  CHG  1  22   1
M  END
