
     RDKit          3D

 39 43  0  0  0  0  0  0  0  0999 V2000
  -10.4450   -0.6060   -1.4730 C   0  0  0  0  0  0  0  0  0  0  0  0
   -9.0990   -0.6760   -0.8470 C   0  0  0  0  0  0  0  0  0  0  0  0
   -8.9360   -0.2280    0.4430 C   0  0  0  0  0  0  0  0  0  0  0  0
   -7.6750   -0.2940    1.0290 C   0  0  0  0  0  0  0  0  0  0  0  0
   -6.6080   -0.7950    0.3420 C   0  0  0  0  0  0  0  0  0  0  0  0
   -6.7100   -1.2530   -0.9400 C   0  0  0  0  0  0  0  0  0  0  0  0
   -5.6220   -1.7490   -1.7600 C   0  0  0  0  0  0  0  0  0  0  0  0
   -4.3550   -1.6480   -1.7550 C   0  0  0  0  0  0  0  0  0  0  0  0
   -3.3250   -1.0100   -0.9980 C   0  0  0  0  0  0  0  0  0  0  0  0
   -2.0430   -1.2990   -1.2230 N   0  0  0  0  0  0  0  0  0  0  0  0
   -1.0360   -0.6880   -0.4590 C   0  0  0  0  0  0  0  0  0  0  0  0
   -1.2890    0.2050    0.5560 C   0  0  0  0  0  0  0  0  0  0  0  0
   -0.2660    0.7960    1.1860 N   0  0  0  0  0  0  0  0  0  0  0  0
   -0.5240    1.6630    2.1760 C   0  0  0  0  0  0  0  0  0  0  0  0
    0.5330    2.2730    2.8320 C   0  0  0  0  0  0  0  0  0  0  0  0
    1.8530    2.0000    2.4790 C   0  0  0  0  0  0  0  0  0  0  0  0
    2.1010    1.1110    1.4650 C   0  0  0  0  0  0  0  0  0  0  0  0
    3.5030    0.8340    1.1050 C   0  0  0  0  0  0  0  0  0  0  0  0
    3.8010    0.0180    0.1710 N   0  0  0  0  0  0  0  0  0  0  0  0
    5.1670   -0.2160   -0.1390 N   0  0  0  0  0  0  0  0  0  0  0  0
    6.1450    0.5250    0.5680 C   0  0  0  0  0  0  0  0  0  0  0  0
    7.5500    0.2530    0.1870 C   0  0  0  0  0  0  0  0  0  0  0  0
    7.8400   -0.6170   -0.7450 C   0  0  0  0  0  0  0  0  0  0  0  0
    9.2560   -0.8400   -1.0760 C   0  0  0  0  0  0  0  0  0  0  0  0
    9.5590   -1.7040   -2.0070 C   0  0  0  0  0  0  0  0  0  0  0  0
   10.8670   -1.9140   -2.3170 F   0  0  0  0  0  0  0  0  0  0  0  0
    8.5720   -2.3720   -2.6460 F   0  0  0  0  0  0  0  0  0  0  0  0
   10.3380   -0.1210   -0.3910 C   0  0  0  0  0  0  0  0  0  0  0  0
    9.8740    0.8260    0.6320 C   0  0  0  0  0  0  0  0  0  0  0  0
    8.6260    0.9950    0.8940 C   0  0  0  0  0  0  0  0  0  0  0  0
    8.2040    1.8800    1.8500 F   0  0  0  0  0  0  0  0  0  0  0  0
    1.0300    0.5240    0.8350 C   0  0  0  0  0  0  0  0  0  0  0  0
    1.3240   -0.3430   -0.1490 N   0  0  0  0  0  0  0  0  0  0  0  0
    0.3160   -0.9370   -0.7820 C   0  0  0  0  0  0  0  0  0  0  0  0
    0.5440   -1.7550   -1.7080 O   0  0  0  0  0  0  0  0  0  0  0  0
   -2.7380    0.4210    0.9730 C   0  0  0  0  0  0  0  0  0  0  0  0
   -3.5170    0.1780   -0.2250 N   0  0  0  0  0  0  0  0  0  0  0  0
   -4.4190    1.2190   -0.6960 C   0  0  0  0  0  0  0  0  0  0  0  0
   -8.0010   -1.1660   -1.4900 C   0  0  0  0  0  0  0  0  0  0  0  0
  1  2  1  0
  2  3  2  0
  2 39  1  0
  3  4  1  0
  4  5  2  0
  5  6  1  0
  6  7  1  0
  6 39  2  0
  7  8  2  3
  8  9  1  0
  9 10  2  0
  9 37  1  0
 10 11  1  0
 11 12  2  0
 11 34  1  0
 12 13  1  0
 12 36  1  0
 13 14  1  0
 13 32  1  0
 14 15  2  0
 15 16  1  0
 16 17  2  0
 17 18  1  0
 17 32  1  0
 18 19  2  3
 19 20  1  0
 20 21  1  0
 21 22  1  0
 22 23  2  0
 22 30  1  0
 23 24  1  0
 24 25  2  3
 24 28  1  0
 25 26  1  0
 25 27  1  0
 28 29  1  0
 29 30  2  0
 30 31  1  0
 32 33  2  0
 33 34  1  0
 34 35  2  0
 36 37  1  0
 37 38  1  0
M  END
