
     RDKit          3D

 39 43  0  0  0  0  0  0  0  0999 V2000
    2.4810   -3.1290   -1.1200 O   0  0  0  0  0  0  0  0  0  0  0  0
    2.6370   -2.0270   -0.4500 C   0  0  0  0  0  0  0  0  0  0  0  0
    4.0050   -1.7060   -0.1570 C   0  0  0  0  0  0  0  0  0  0  0  0
    5.0450   -2.6040   -0.4290 C   0  0  0  0  0  0  0  0  0  0  0  0
    6.3690   -2.3150   -0.2060 C   0  0  0  0  0  0  0  0  0  0  0  0
    6.7500   -1.0970    0.3100 C   0  0  0  0  0  0  0  0  0  0  0  0
    8.1890   -0.7640    0.5570 C   0  0  1  0  0  0  0  0  0  0  0  0
    8.8120   -1.6970    1.3350 F   0  0  0  0  0  0  0  0  0  0  0  0
    8.8590   -0.7790   -0.6760 F   0  0  0  0  0  0  0  0  0  0  0  0
    5.7580   -0.1930    0.5880 C   0  0  0  0  0  0  0  0  0  0  0  0
    6.1200    1.0060    1.0960 F   0  0  0  0  0  0  0  0  0  0  0  0
    4.4060   -0.5000    0.3550 C   0  0  0  0  0  0  0  0  0  0  0  0
    1.4580   -1.3750   -0.1500 N   0  0  0  0  0  0  0  0  0  0  0  0
    1.3310   -0.1590    0.6490 C   0  0  0  0  0  0  0  0  0  0  0  0
    0.7470    0.8450    0.3160 N   0  0  0  0  0  0  0  0  0  0  0  0
    0.0500    1.7970   -0.2970 C   0  0  0  0  0  0  0  0  0  0  0  0
    0.8300    2.8390   -1.0150 N   0  0  0  0  0  0  0  0  0  0  0  0
    1.0570    4.0220   -0.2400 C   0  0  0  0  0  0  0  0  0  0  0  0
    1.2880    5.2110   -0.7660 C   0  0  0  0  0  0  0  0  0  0  0  0
    1.4720    6.1750    0.3340 C   0  0  0  0  0  0  0  0  0  0  0  0
    1.3150    5.3850    1.5700 C   0  0  0  0  0  0  0  0  0  0  0  0
    1.0760    4.1450    1.2120 C   0  0  0  0  0  0  0  0  0  0  0  0
   -1.2690    2.0200   -0.4460 C   0  0  0  0  0  0  0  0  0  0  0  0
   -1.9790    3.1640   -1.1710 C   0  0  0  0  0  0  0  0  0  0  0  0
   -3.1870    3.4240   -0.3100 C   0  0  0  0  0  0  0  0  0  0  0  0
   -3.2060    2.3620    0.7610 C   0  0  0  0  0  0  0  0  0  0  0  0
   -2.4270    1.2480   -0.0060 C   0  0  0  0  0  0  0  0  0  0  0  0
   -2.8190    0.0880   -0.1780 N   0  0  0  0  0  0  0  0  0  0  0  0
   -2.7240   -1.1760   -0.6900 C   0  0  0  0  0  0  0  0  0  0  0  0
   -3.5860   -2.2180   -0.1030 N   0  0  0  0  0  0  0  0  0  0  0  0
   -4.8810   -2.5330   -0.5980 C   0  0  0  0  0  0  0  0  0  0  0  0
   -5.8330   -2.4210    0.5770 C   0  0  0  0  0  0  0  0  0  0  0  0
   -5.4160   -3.1920    1.7710 C   0  0  0  0  0  0  0  0  0  0  0  0
   -4.0010   -3.6090    1.8720 C   0  0  0  0  0  0  0  0  0  0  0  0
   -3.0070   -2.8960    1.0340 C   0  0  0  0  0  0  0  0  0  0  0  0
   -2.0250   -1.6020   -1.5880 N   0  0  0  0  0  0  0  0  0  0  0  0
   -1.1930   -1.9480   -2.6030 C   0  0  0  0  0  0  0  0  0  0  0  0
    0.1520   -2.4610   -2.0120 C   0  0  0  0  0  0  0  0  0  0  0  0
    0.1970   -1.8330   -0.6710 C   0  0  0  0  0  0  0  0  0  0  0  0
  1  2  2  0
  2  3  1  0
  2 13  1  0
  3  4  2  0
  3 12  1  0
  4  5  1  0
  5  6  2  0
  6  7  1  0
  6 10  1  0
  7  8  1  1
  7  9  1  0
 10 11  1  0
 10 12  2  0
 13 14  1  0
 13 39  1  0
 14 15  2  0
 15 16  1  0
 16 17  1  0
 16 23  2  0
 17 18  1  0
 18 19  2  0
 18 22  1  0
 19 20  1  0
 20 21  1  0
 21 22  2  0
 23 24  1  0
 23 27  1  0
 24 25  1  0
 25 26  1  0
 26 27  1  0
 27 28  2  0
 28 29  1  0
 29 30  1  0
 29 36  2  0
 30 31  1  0
 30 35  1  0
 31 32  1  0
 32 33  1  0
 33 34  1  0
 34 35  1  0
 36 37  1  0
 37 38  1  0
 38 39  1  0
M  END
