
     RDKit          3D

 39 42  0  0  0  0  0  0  0  0999 V2000
   -4.0100   -1.1290    3.5470 C   0  0  0  0  0  0  0  0  0  0  0  0
   -5.1390   -1.5360    2.6270 C   0  0  2  0  0  0  0  0  0  0  0  0
   -5.2600   -2.9130    2.6460 O   0  0  0  0  0  0  0  0  0  0  0  0
   -4.8590   -1.0620    1.2480 C   0  0  0  0  0  0  0  0  0  0  0  0
   -3.7460   -0.3440    0.9230 C   0  0  0  0  0  0  0  0  0  0  0  0
   -3.4730    0.1100   -0.3860 C   0  0  0  0  0  0  0  0  0  0  0  0
   -2.2410    0.8710   -0.5910 C   0  0  0  0  0  0  0  0  0  0  0  0
   -1.9220    1.3020   -1.6870 O   0  0  0  0  0  0  0  0  0  0  0  0
   -1.3820    1.1280    0.4780 O   0  0  0  0  0  0  0  0  0  0  0  0
   -0.1780    1.8500    0.3740 C   0  0  1  0  0  0  0  0  0  0  0  0
   -0.3710    3.1250    1.1580 C   0  0  0  0  0  0  0  0  0  0  0  0
    0.8540    3.9520    0.9640 C   0  0  1  0  0  0  0  0  0  0  0  0
    0.6370    5.1850    1.5870 O   0  0  0  0  0  0  0  0  0  0  0  0
    1.9960    3.2690    1.6450 C   0  0  2  0  0  0  0  0  0  0  0  0
    2.2110    3.8580    3.0490 C   0  0  0  0  0  0  0  0  0  0  0  0
    3.2600    3.6940    0.8750 C   0  0  0  0  0  0  0  0  0  0  0  0
    4.4010    3.1270    1.4050 O   0  0  0  0  0  0  0  0  0  0  0  0
    1.9480    1.8000    1.7220 C   0  0  0  0  0  0  0  0  0  0  0  0
    1.0250    1.0770    0.7990 C   0  0  2  0  0  0  0  0  0  0  0  0
    1.8090    0.5810   -0.2500 O   0  0  0  0  0  0  0  0  0  0  0  0
    2.0250   -0.7700   -0.4890 C   0  0  0  0  0  0  0  0  0  0  0  0
    1.4450   -1.5130    0.3310 O   0  0  0  0  0  0  0  0  0  0  0  0
    2.8410   -1.2470   -1.5840 C   0  0  0  0  0  0  0  0  0  0  0  0
    3.4470   -0.4740   -2.5500 C   0  0  0  0  0  0  0  0  0  0  0  0
    4.1210   -1.3180   -3.4230 C   0  0  0  0  0  0  0  0  0  0  0  0
    4.9160   -0.8970   -4.6210 C   0  0  0  0  0  0  0  0  0  0  0  0
    4.8310    0.4840   -4.7540 O   0  0  0  0  0  0  0  0  0  0  0  0
    3.9280   -2.5420   -2.9980 O   0  0  0  0  0  0  0  0  0  0  0  0
    3.1680   -2.5440   -1.9000 C   0  0  0  0  0  0  0  0  0  0  0  0
    2.7740   -3.7690   -1.1810 C   0  0  0  0  0  0  0  0  0  0  0  0
    3.6240   -3.9500    0.0610 C   0  0  0  0  0  0  0  0  0  0  0  0
    5.0220   -4.0520   -0.3940 N   0  0  0  0  0  0  0  0  0  0  0  0
   -4.3450   -0.1690   -1.3930 C   0  0  0  0  0  0  0  0  0  0  0  0
   -4.1580    0.2310   -2.6860 O   0  0  0  0  0  0  0  0  0  0  0  0
   -5.4980   -0.9120   -1.0650 C   0  0  0  0  0  0  0  0  0  0  0  0
   -5.7380   -1.3370    0.2060 C   0  0  0  0  0  0  0  0  0  0  0  0
   -6.9380   -2.0310    0.1980 O   0  0  0  0  0  0  0  0  0  0  0  0
   -7.6420   -1.8270   -1.0080 C   0  0  0  0  0  0  0  0  0  0  0  0
   -6.5860   -1.3430   -1.9690 C   0  0  0  0  0  0  0  0  0  0  0  0
  2  1  1  1
  2  3  1  0
  2  4  1  0
  4  5  2  0
  4 36  1  0
  5  6  1  0
  6  7  1  0
  6 33  2  0
  7  8  2  0
  7  9  1  0
 10  9  1  1
 10 11  1  0
 10 19  1  0
 11 12  1  0
 12 13  1  1
 12 14  1  0
 14 15  1  1
 14 16  1  0
 14 18  1  0
 16 17  1  0
 18 19  1  0
 19 20  1  6
 20 21  1  0
 21 22  2  0
 21 23  1  0
 23 24  1  0
 23 29  2  0
 24 25  2  0
 25 26  1  0
 25 28  1  0
 26 27  1  0
 28 29  1  0
 29 30  1  0
 30 31  1  0
 31 32  1  0
 33 34  1  0
 33 35  1  0
 35 36  2  0
 35 39  1  0
 36 37  1  0
 37 38  1  0
 38 39  1  0
M  CHG  1  32   1
M  END
