
     RDKit          3D

 39 41  0  0  0  0  0  0  0  0999 V2000
   -6.0620    3.6830   -0.0040 C   0  0  0  0  0  0  0  0  0  0  0  0
   -4.9200    4.5050    0.0460 O   0  0  0  0  0  0  0  0  0  0  0  0
   -3.6580    3.8950    0.2210 C   0  0  0  0  0  0  0  0  0  0  0  0
   -3.5290    2.5440    0.3410 C   0  0  0  0  0  0  0  0  0  0  0  0
   -2.3080    1.8590    0.5170 C   0  0  0  0  0  0  0  0  0  0  0  0
   -1.1820    2.6460    0.5680 C   0  0  0  0  0  0  0  0  0  0  0  0
   -1.3170    4.0400    0.4440 C   0  0  0  0  0  0  0  0  0  0  0  0
   -2.5230    4.6680    0.2740 C   0  0  0  0  0  0  0  0  0  0  0  0
   -2.6360    6.0430    0.1540 O   0  0  0  0  0  0  0  0  0  0  0  0
    0.2110    2.1590    0.7580 C   0  0  1  0  0  0  0  0  0  0  0  0
    0.3750    1.6110    2.0310 O   0  0  0  0  0  0  0  0  0  0  0  0
    0.7040    1.3560   -0.3560 C   0  0  0  0  0  0  0  0  0  0  0  0
    0.0130    1.5300   -1.6940 C   0  0  0  0  0  0  0  0  0  0  0  0
    0.1630    2.8910   -2.1110 N   0  0  0  0  0  0  0  0  0  0  0  0
    1.6910    0.5020   -0.3480 C   0  0  0  0  0  0  0  0  0  0  0  0
    2.5770    0.1110    0.7700 C   0  0  2  0  0  0  0  0  0  0  0  0
    3.8660    0.9460    0.7320 C   0  0  2  0  0  0  0  0  0  0  0  0
    3.4950    2.2740    0.8520 O   0  0  0  0  0  0  0  0  0  0  0  0
    4.6340    0.6690   -0.4850 C   0  0  0  0  0  0  0  0  0  0  0  0
    5.0740   -0.6170   -0.7170 O   0  0  0  0  0  0  0  0  0  0  0  0
    4.9110    1.6170   -1.3550 C   0  0  0  0  0  0  0  0  0  0  0  0
    5.6390    1.3040   -2.4880 O   0  0  0  0  0  0  0  0  0  0  0  0
    2.9500   -1.2620    0.6500 O   0  0  0  0  0  0  0  0  0  0  0  0
    1.7500   -1.9670    0.6880 C   0  0  0  0  0  0  0  0  0  0  0  0
    1.9210   -3.3920    0.3040 C   0  0  0  0  0  0  0  0  0  0  0  0
    2.8090   -3.6200   -0.7270 C   0  0  0  0  0  0  0  0  0  0  0  0
    3.0850   -4.8790   -1.1920 C   0  0  0  0  0  0  0  0  0  0  0  0
    2.4520   -5.9430   -0.6060 C   0  0  0  0  0  0  0  0  0  0  0  0
    1.5660   -5.7070    0.4250 C   0  0  0  0  0  0  0  0  0  0  0  0
    1.2630   -4.4450    0.9200 C   0  0  0  0  0  0  0  0  0  0  0  0
    0.3840   -4.2920    1.9310 O   0  0  0  0  0  0  0  0  0  0  0  0
   -0.7830   -3.5700    2.0990 C   0  0  0  0  0  0  0  0  0  0  0  0
   -1.7030   -3.5220    0.9020 C   0  0  0  0  0  0  0  0  0  0  0  0
   -1.2810   -2.7800   -0.1470 O   0  0  0  0  0  0  0  0  0  0  0  0
   -1.8290   -1.5590   -0.3660 C   0  0  1  0  0  0  0  0  0  0  0  0
   -3.1990   -1.5670   -0.9850 C   0  0  0  0  0  0  0  0  0  0  0  0
   -4.1620   -2.2140   -0.2540 O   0  0  0  0  0  0  0  0  0  0  0  0
   -1.7500   -0.6080    0.8400 C   0  0  0  0  0  0  0  0  0  0  0  0
   -2.4310    0.5230    0.6120 O   0  0  0  0  0  0  0  0  0  0  0  0
  1  2  1  0
  2  3  1  0
  3  4  2  0
  3  8  1  0
  4  5  1  0
  5  6  2  0
  5 39  1  0
  6  7  1  0
  6 10  1  0
  7  8  2  0
  8  9  1  0
 10 11  1  1
 10 12  1  0
 12 13  1  0
 12 15  2  0
 13 14  1  0
 15 16  1  0
 16 17  1  0
 16 23  1  6
 17 18  1  6
 17 19  1  0
 19 20  1  0
 19 21  2  3
 21 22  1  0
 23 24  1  0
 24 25  1  0
 25 26  2  0
 25 30  1  0
 26 27  1  0
 27 28  2  0
 28 29  1  0
 29 30  2  0
 30 31  1  0
 31 32  1  0
 32 33  1  0
 33 34  1  0
 34 35  1  0
 35 36  1  1
 35 38  1  0
 36 37  1  0
 38 39  1  0
M  CHG  1  14   1
M  END
