
     RDKit          3D

 39 43  0  0  0  0  0  0  0  0999 V2000
   -3.7090    4.1480    1.3910 C   0  0  0  0  0  0  0  0  0  0  0  0
   -3.6590    2.8700    1.6450 C   0  0  0  0  0  0  0  0  0  0  0  0
   -3.4160    2.3720    2.9370 C   0  0  0  0  0  0  0  0  0  0  0  0
   -3.4330    1.0150    2.8390 C   0  0  0  0  0  0  0  0  0  0  0  0
   -3.6680    0.6840    1.5830 N   0  0  0  0  0  0  0  0  0  0  0  0
   -3.7570   -0.6570    1.1070 C   0  0  0  0  0  0  0  0  0  0  0  0
   -4.8750   -1.3900    1.4710 C   0  0  0  0  0  0  0  0  0  0  0  0
   -4.9450   -2.6850    0.9990 C   0  0  0  0  0  0  0  0  0  0  0  0
   -3.9680   -3.2480    0.2060 C   0  0  0  0  0  0  0  0  0  0  0  0
   -4.0770   -4.6650   -0.2910 C   0  0  0  0  0  0  0  0  0  0  0  0
   -2.8810   -2.4680   -0.1210 C   0  0  0  0  0  0  0  0  0  0  0  0
   -2.7390   -1.1460    0.3180 C   0  0  0  0  0  0  0  0  0  0  0  0
   -1.6030   -0.4020   -0.0510 N   0  0  0  0  0  0  0  0  0  0  0  0
   -0.6800    0.1360    0.8950 C   0  0  0  0  0  0  0  0  0  0  0  0
    0.6920    0.3850    0.2770 C   0  0  0  0  0  0  0  0  0  0  0  0
    0.9970   -0.4400   -0.8010 N   0  0  0  0  0  0  0  0  0  0  0  0
    1.9510   -1.4230   -0.7480 C   0  0  1  0  0  0  0  0  0  0  0  0
    1.7110   -2.4360    0.4020 C   0  0  0  0  0  0  0  0  0  0  0  0
    1.7610   -2.3600   -1.9340 N   0  0  0  0  0  0  0  0  0  0  0  0
    2.8070   -3.2200   -1.5290 O   0  0  0  0  0  0  0  0  0  0  0  0
    3.8820   -2.3500   -1.3410 C   0  0  0  0  0  0  0  0  0  0  0  0
    5.2910   -2.6570   -1.6270 C   0  0  0  0  0  0  0  0  0  0  0  0
    3.3700   -1.1700   -0.8420 C   0  0  0  0  0  0  0  0  0  0  0  0
    4.2970   -0.0990   -0.5790 C   0  0  0  0  0  0  0  0  0  0  0  0
    4.0790    1.1030   -0.1210 C   0  0  0  0  0  0  0  0  0  0  0  0
    5.1610    2.0910    0.0940 C   0  0  0  0  0  0  0  0  0  0  0  0
    6.4800    1.8530   -0.1600 C   0  0  0  0  0  0  0  0  0  0  0  0
    7.4200    2.8000    0.0580 N   0  0  0  0  0  0  0  0  0  0  0  0
    7.1020    4.0010    0.5280 C   0  0  0  0  0  0  0  0  0  0  0  0
    5.7640    4.2720    0.7970 C   0  0  0  0  0  0  0  0  0  0  0  0
    4.8520    3.3220    0.5750 N   0  0  0  0  0  0  0  0  0  0  0  0
    0.0510   -0.4770   -1.8770 C   0  0  0  0  0  0  0  0  0  0  0  0
   -1.3530   -0.1730   -1.4540 C   0  0  0  0  0  0  0  0  0  0  0  0
   -3.8190    1.8040    0.7890 C   0  0  0  0  0  0  0  0  0  0  0  0
   -4.0620    1.7530   -0.4970 C   0  0  0  0  0  0  0  0  0  0  0  0
   -4.2440    2.8300   -1.4380 C   0  0  1  0  0  0  0  0  0  0  0  0
   -3.1200    3.6060   -1.6950 F   0  0  0  0  0  0  0  0  0  0  0  0
   -4.4930    2.2960   -2.7520 F   0  0  0  0  0  0  0  0  0  0  0  0
   -5.3990    3.5910   -1.2500 F   0  0  0  0  0  0  0  0  0  0  0  0
  1  2  2  0
  2  3  1  0
  2 34  1  0
  3  4  2  0
  4  5  1  0
  5  6  1  0
  5 34  1  0
  6  7  2  0
  6 12  1  0
  7  8  1  0
  8  9  2  0
  9 10  1  0
  9 11  1  0
 11 12  2  0
 12 13  1  0
 13 14  1  0
 13 33  1  0
 14 15  1  0
 15 16  1  0
 16 17  1  0
 16 32  1  0
 17 18  1  1
 17 19  1  0
 17 23  1  0
 19 20  1  0
 20 21  1  0
 21 22  1  0
 21 23  2  0
 23 24  1  0
 24 25  2  3
 25 26  1  0
 26 27  2  0
 26 31  1  0
 27 28  1  0
 28 29  2  0
 29 30  1  0
 30 31  2  0
 32 33  1  0
 34 35  2  3
 35 36  1  0
 36 37  1  6
 36 38  1  0
 36 39  1  0
M  END
