
     RDKit          3D

  9  9  0  0  0  0  0  0  0  0999 V2000
   -2.3460    1.2110    0.1970 O   0  0  0  0  0  0  0  0  0  0  0  0
   -1.8010    0.0540   -0.3630 C   0  0  0  0  0  0  0  0  0  0  0  0
   -0.4790   -0.1960    0.3100 C   0  0  1  0  0  0  0  0  0  0  0  0
   -0.6570   -0.3670    1.6710 O   0  0  0  0  0  0  0  0  0  0  0  0
    0.2970   -1.3100   -0.3360 C   0  0  0  0  0  0  0  0  0  0  0  0
    1.5390   -0.8070   -0.6880 O   0  0  0  0  0  0  0  0  0  0  0  0
    1.7880    0.1920    0.2520 C   0  0  1  0  0  0  0  0  0  0  0  0
    2.8850    0.9550   -0.0190 O   0  0  0  0  0  0  0  0  0  0  0  0
    0.4750    0.9820    0.1390 C   0  0  0  0  0  0  0  0  0  0  0  0
  1  2  1  0
  2  3  1  0
  3  4  1  1
  3  5  1  0
  3  9  1  0
  5  6  1  0
  6  7  1  0
  7  8  1  6
  7  9  1  0
M  END
