
     RDKit          3D

 18 19  0  0  0  0  0  0  0  0999 V2000
    6.2740    0.6750    0.2880 C   0  0  0  0  0  0  0  0  0  0  0  0
    5.1000    0.2310    0.7050 C   0  0  0  0  0  0  0  0  0  0  0  0
    5.0610   -1.0010    1.9690 Cl  0  0  0  0  0  0  0  0  0  0  0  0
    3.9040    0.7780    0.0920 C   0  0  0  0  0  0  0  0  0  0  0  0
    2.6940    0.4340    0.4090 C   0  0  0  0  0  0  0  0  0  0  0  0
    2.2070   -0.5100    1.3790 C   0  0  0  0  0  0  0  0  0  0  0  0
    0.9870   -0.9440    1.0160 C   0  0  0  0  0  0  0  0  0  0  0  0
    0.6210   -0.2740   -0.2510 C   0  0  1  0  0  0  0  0  0  0  0  0
   -0.8310   -0.0430   -0.3750 C   0  0  0  0  0  0  0  0  0  0  0  0
   -1.4180    1.1920   -0.5000 C   0  0  0  0  0  0  0  0  0  0  0  0
   -2.7800    1.3700   -0.6150 C   0  0  0  0  0  0  0  0  0  0  0  0
   -3.4130    2.7050   -0.7510 C   0  0  0  0  0  0  0  0  0  0  0  0
   -3.5990    0.2580   -0.6040 C   0  0  0  0  0  0  0  0  0  0  0  0
   -3.0470   -1.0000   -0.4800 C   0  0  0  0  0  0  0  0  0  0  0  0
   -3.9290   -2.1960   -0.4670 C   0  0  0  0  0  0  0  0  0  0  0  0
   -1.6600   -1.1480   -0.3650 C   0  0  0  0  0  0  0  0  0  0  0  0
   -1.1710   -2.4660   -0.2420 N   0  0  0  0  0  0  0  0  0  0  0  0
    1.4310    0.9770   -0.2210 C   0  0  0  0  0  0  0  0  0  0  0  0
  1  2  2  0
  2  3  1  0
  2  4  1  0
  4  5  2  3
  5  6  1  0
  5 18  1  0
  6  7  2  0
  7  8  1  0
  8  9  1  1
  8 18  1  0
  9 10  2  0
  9 16  1  0
 10 11  1  0
 11 12  1  0
 11 13  2  0
 13 14  1  0
 14 15  1  0
 14 16  2  0
 16 17  1  0
M  END
