
     RDKit          3D

 18 19  0  0  0  0  0  0  0  0999 V2000
   -4.0130   -0.3030    1.5250 C   0  0  0  0  0  0  0  0  0  0  0  0
   -2.6480    0.0400    1.1000 C   0  0  0  0  0  0  0  0  0  0  0  0
   -1.7040    0.4060    2.0120 C   0  0  0  0  0  0  0  0  0  0  0  0
   -0.4240    0.6520    1.6300 C   0  0  0  0  0  0  0  0  0  0  0  0
    0.5580    1.1850    2.6060 C   0  0  0  0  0  0  0  0  0  0  0  0
   -0.0430    0.5340    0.2750 C   0  0  0  0  0  0  0  0  0  0  0  0
    1.4130    0.3680    0.0030 C   0  0  0  0  0  0  0  0  0  0  0  0
    2.3350    1.2820   -0.3210 C   0  0  0  0  0  0  0  0  0  0  0  0
    3.6690    0.8690   -0.4430 C   0  0  0  0  0  0  0  0  0  0  0  0
    4.0570   -0.4550   -0.2460 C   0  0  0  0  0  0  0  0  0  0  0  0
    5.4220   -0.9530   -0.3160 C   0  0  0  0  0  0  0  0  0  0  0  0
    5.9110   -1.5170   -1.9060 Cl  0  0  0  0  0  0  0  0  0  0  0  0
    3.0780   -1.3640    0.0790 C   0  0  0  0  0  0  0  0  0  0  0  0
    1.7980   -0.9950    0.2030 C   0  0  0  0  0  0  0  0  0  0  0  0
   -0.9750    0.1820   -0.6570 C   0  0  0  0  0  0  0  0  0  0  0  0
   -2.3050   -0.0740   -0.2380 C   0  0  0  0  0  0  0  0  0  0  0  0
   -3.2900   -0.6810   -1.1630 C   0  0  0  0  0  0  0  0  0  0  0  0
   -3.7170    0.3600   -2.1110 N   0  0  0  0  0  0  0  0  0  0  0  0
  1  2  1  0
  2  3  2  0
  2 16  1  0
  3  4  1  0
  4  5  1  0
  4  6  2  0
  6  7  1  0
  6 15  1  0
  7  8  2  0
  7 14  1  0
  8  9  1  0
  9 10  2  0
 10 11  1  0
 10 13  1  0
 11 12  1  0
 13 14  2  0
 15 16  2  0
 16 17  1  0
 17 18  1  0
M  CHG  1  18   1
M  END
