
     RDKit          3D

 18 19  0  0  0  0  0  0  0  0999 V2000
    5.4460    0.5180    0.4180 C   0  0  0  0  0  0  0  0  0  0  0  0
    4.6040   -0.3840   -0.3430 C   0  0  0  0  0  0  0  0  0  0  0  0
    3.3430   -0.5000   -0.4110 C   0  0  0  0  0  0  0  0  0  0  0  0
    2.8600   -1.6160   -1.3690 C   0  0  0  0  0  0  0  0  0  0  0  0
    2.2870    0.2470    0.2720 C   0  0  0  0  0  0  0  0  0  0  0  0
    2.4840    1.2560    1.1680 C   0  0  0  0  0  0  0  0  0  0  0  0
    1.4170    1.9260    1.7780 C   0  0  0  0  0  0  0  0  0  0  0  0
    1.8110    3.1970    2.9040 Cl  0  0  0  0  0  0  0  0  0  0  0  0
    0.1400    1.5470    1.4560 C   0  0  0  0  0  0  0  0  0  0  0  0
   -0.1370    0.5430    0.5660 C   0  0  0  0  0  0  0  0  0  0  0  0
   -1.5180    0.1660    0.2330 C   0  0  0  0  0  0  0  0  0  0  0  0
   -1.8270   -0.8230   -0.5830 C   0  0  0  0  0  0  0  0  0  0  0  0
   -3.2540   -1.1860   -0.9040 C   0  0  1  0  0  0  0  0  0  0  0  0
   -3.8550   -1.9510    0.1650 N   0  0  0  0  0  0  0  0  0  0  0  0
   -3.9610    0.0880   -1.2110 C   0  0  0  0  0  0  0  0  0  0  0  0
   -3.7620    1.1640   -0.2120 C   0  0  0  0  0  0  0  0  0  0  0  0
   -2.6660    0.9050    0.8050 C   0  0  0  0  0  0  0  0  0  0  0  0
    0.9430   -0.0830   -0.0050 C   0  0  0  0  0  0  0  0  0  0  0  0
  1  2  1  0
  2  3  2  3
  3  4  1  0
  3  5  1  0
  5  6  2  0
  5 18  1  0
  6  7  1  0
  7  8  1  0
  7  9  2  0
  9 10  1  0
 10 11  1  0
 10 18  2  0
 11 12  2  0
 11 17  1  0
 12 13  1  0
 13 14  1  1
 13 15  1  0
 15 16  1  0
 16 17  1  0
M  CHG  1  14   1
M  END
