
     RDKit          3D

 10 10  0  0  0  0  0  0  0  0999 V2000
   -2.5330    1.8840   -0.2060 O   0  0  0  0  0  0  0  0  0  0  0  0
   -2.4400    0.5160   -0.4560 C   0  0  0  0  0  0  0  0  0  0  0  0
   -1.2200    0.0020    0.2550 C   0  0  1  0  0  0  0  0  0  0  0  0
   -1.0340   -1.3650    0.0690 O   0  0  0  0  0  0  0  0  0  0  0  0
    0.2940   -1.6230    0.3390 C   0  0  0  0  0  0  0  0  0  0  0  0
    0.9200   -0.2310    0.3950 C   0  0  1  0  0  0  0  0  0  0  0  0
    1.0900    0.1760    1.7070 O   0  0  0  0  0  0  0  0  0  0  0  0
    2.2310   -0.2380   -0.3540 C   0  0  0  0  0  0  0  0  0  0  0  0
    2.7400    1.0430   -0.3390 O   0  0  0  0  0  0  0  0  0  0  0  0
   -0.0340    0.5180   -0.2800 O   0  0  0  0  0  0  0  0  0  0  0  0
  1  2  1  0
  3  2  1  6
  3  4  1  0
  3 10  1  0
  4  5  1  0
  5  6  1  0
  6  7  1  1
  6  8  1  0
  6 10  1  0
  8  9  1  0
M  END
