
     RDKit          3D

 18 19  0  0  0  0  0  0  0  0999 V2000
    4.5790    1.9100   -0.1700 C   0  0  0  0  0  0  0  0  0  0  0  0
    3.8930    0.6120   -0.1160 C   0  0  0  0  0  0  0  0  0  0  0  0
    4.6390   -0.5440   -0.1810 C   0  0  0  0  0  0  0  0  0  0  0  0
    4.0030   -1.8010   -0.1860 C   0  0  0  0  0  0  0  0  0  0  0  0
    2.6260   -1.8930   -0.1360 C   0  0  0  0  0  0  0  0  0  0  0  0
    1.8930   -0.7490   -0.0710 C   0  0  0  0  0  0  0  0  0  0  0  0
    0.5210   -0.6930    0.0490 N   0  0  0  0  0  0  0  0  0  0  0  0
   -0.4810   -1.6970   -0.1090 C   0  0  0  0  0  0  0  0  0  0  0  0
   -1.6890   -0.7770   -0.3120 C   0  0  0  0  0  0  0  0  0  0  0  0
   -1.5350    0.1710   -1.2980 C   0  0  0  0  0  0  0  0  0  0  0  0
   -2.5230    1.1900   -1.3110 C   0  0  0  0  0  0  0  0  0  0  0  0
   -2.4390    2.4320   -2.5710 Cl  0  0  0  0  0  0  0  0  0  0  0  0
   -3.5290    1.1980   -0.3970 C   0  0  0  0  0  0  0  0  0  0  0  0
   -4.3630    2.4870   -0.3920 C   0  0  0  0  0  0  0  0  0  0  0  0
   -3.6490    0.2400    0.5550 C   0  0  0  0  0  0  0  0  0  0  0  0
   -2.6660   -0.8240    0.6000 C   0  0  0  0  0  0  0  0  0  0  0  0
   -2.7870   -1.8100    1.6560 C   0  0  0  0  0  0  0  0  0  0  0  0
    2.5760    0.5230   -0.0660 C   0  0  0  0  0  0  0  0  0  0  0  0
  1  2  1  0
  2  3  2  0
  2 18  1  0
  3  4  1  0
  4  5  2  0
  5  6  1  0
  6  7  1  0
  6 18  2  0
  7  8  1  0
  8  9  1  0
  9 10  2  0
  9 16  1  0
 10 11  1  0
 11 12  1  0
 11 13  2  0
 13 14  1  0
 13 15  1  0
 15 16  2  0
 16 17  1  0
M  CHG  1   7   1
M  END
