
     RDKit          3D

 10 10  0  0  0  0  0  0  0  0999 V2000
    2.8710    1.1010    1.2920 O   0  0  0  0  0  0  0  0  0  0  0  0
    2.5890    0.7580   -0.0260 C   0  0  0  0  0  0  0  0  0  0  0  0
    1.3700   -0.1190   -0.0460 C   0  0  2  0  0  0  0  0  0  0  0  0
    1.0070   -0.5150   -1.3160 O   0  0  0  0  0  0  0  0  0  0  0  0
   -0.2530   -1.1050   -1.0670 C   0  0  0  0  0  0  0  0  0  0  0  0
   -0.7340   -0.4440    0.1890 C   0  0  2  0  0  0  0  0  0  0  0  0
   -2.1240    0.1080    0.0740 C   0  0  1  0  0  0  0  0  0  0  0  0
   -2.4480    0.7770    1.2360 O   0  0  0  0  0  0  0  0  0  0  0  0
   -2.2850    0.9590   -1.0030 O   0  0  0  0  0  0  0  0  0  0  0  0
    0.2250    0.5470    0.3920 O   0  0  0  0  0  0  0  0  0  0  0  0
  1  2  1  0
  3  2  1  6
  3  4  1  0
  3 10  1  0
  4  5  1  0
  6  5  1  6
  6  7  1  0
  6 10  1  0
  7  8  1  1
  7  9  1  0
M  END
