
     RDKit          3D

 26 28  0  0  0  0  0  0  0  0999 V2000
   -6.4730   -2.7000    0.2530 C   0  0  0  0  0  0  0  0  0  0  0  0
   -5.8860   -1.3660    0.0620 C   0  0  0  0  0  0  0  0  0  0  0  0
   -6.6700   -0.2750   -0.2600 C   0  0  0  0  0  0  0  0  0  0  0  0
   -6.0820    0.9570   -0.4820 C   0  0  0  0  0  0  0  0  0  0  0  0
   -4.6990    1.1370   -0.3900 C   0  0  0  0  0  0  0  0  0  0  0  0
   -4.0380    2.4530   -0.6620 C   0  0  0  0  0  0  0  0  0  0  0  0
   -3.9000    0.0750   -0.0660 C   0  0  0  0  0  0  0  0  0  0  0  0
   -2.4620    0.1300    0.0820 C   0  0  0  0  0  0  0  0  0  0  0  0
   -1.9820   -0.3470    1.2970 C   0  0  0  0  0  0  0  0  0  0  0  0
   -0.6480   -0.4620    1.5550 C   0  0  0  0  0  0  0  0  0  0  0  0
    0.2860   -0.0920    0.5770 C   0  0  0  0  0  0  0  0  0  0  0  0
    1.5790   -0.2000    0.7540 O   0  0  0  0  0  0  0  0  0  0  0  0
    2.7430   -0.4500    1.2310 C   0  0  0  0  0  0  0  0  0  0  0  0
    3.9270    0.1190    0.4900 C   0  0  0  0  0  0  0  0  0  0  0  0
    4.2170    1.4640    0.4360 C   0  0  0  0  0  0  0  0  0  0  0  0
    5.4680    1.8940   -0.0330 C   0  0  0  0  0  0  0  0  0  0  0  0
    6.4130    1.0070   -0.4400 C   0  0  0  0  0  0  0  0  0  0  0  0
    7.7270    1.4220   -0.8860 C   0  0  0  0  0  0  0  0  0  0  0  0
    8.5590    0.5700   -1.3330 O   0  0  0  0  0  0  0  0  0  0  0  0
    6.1240   -0.3540   -0.3940 C   0  0  0  0  0  0  0  0  0  0  0  0
    4.9030   -0.7500    0.0620 C   0  0  0  0  0  0  0  0  0  0  0  0
    4.5030   -2.1860   -0.0090 C   0  0  0  0  0  0  0  0  0  0  0  0
   -0.2050    0.4020   -0.6510 C   0  0  0  0  0  0  0  0  0  0  0  0
    0.8530    0.6900   -1.6940 C   0  0  0  0  0  0  0  0  0  0  0  0
   -1.5430    0.4990   -0.8700 C   0  0  0  0  0  0  0  0  0  0  0  0
   -4.5330   -1.1660    0.1560 C   0  0  0  0  0  0  0  0  0  0  0  0
  1  2  1  0
  2  3  2  0
  2 26  1  0
  3  4  1  0
  4  5  2  0
  5  6  1  0
  5  7  1  0
  7  8  1  0
  7 26  2  0
  8  9  2  0
  8 25  1  0
  9 10  1  0
 10 11  2  0
 11 12  1  0
 11 23  1  0
 12 13  1  0
 13 14  1  0
 14 15  2  0
 14 21  1  0
 15 16  1  0
 16 17  2  0
 17 18  1  0
 17 20  1  0
 18 19  2  0
 20 21  2  0
 21 22  1  0
 23 24  1  0
 23 25  2  0
M  END
