
     RDKit          3D

 24 25  0  0  0  0  0  0  0  0999 V2000
    3.1740    0.7510    2.4640 C   0  0  0  0  0  0  0  0  0  0  0  0
    3.7150    0.8930    1.2540 C   0  0  0  0  0  0  0  0  0  0  0  0
    5.1620    1.3270    1.2480 C   0  0  0  0  0  0  0  0  0  0  0  0
    5.7440    1.3430   -0.0570 C   0  0  0  0  0  0  0  0  0  0  0  0
    5.0430    1.1060   -1.1750 C   0  0  0  0  0  0  0  0  0  0  0  0
    3.6640    0.8130   -1.1350 N   0  0  0  0  0  0  0  0  0  0  0  0
    3.0270    0.7280    0.0300 C   0  0  0  0  0  0  0  0  0  0  0  0
    1.5910    0.6010   -0.0550 N   0  0  0  0  0  0  0  0  0  0  0  0
    0.7190    1.0490    0.9550 C   0  0  0  0  0  0  0  0  0  0  0  0
   -0.6200    1.4840    0.4260 C   0  0  0  0  0  0  0  0  0  0  0  0
   -1.1970    0.6280   -0.5610 N   0  0  0  0  0  0  0  0  0  0  0  0
   -1.3050   -0.6990    0.0280 C   0  0  0  0  0  0  0  0  0  0  0  0
   -2.3890   -1.5340   -0.5840 C   0  0  0  0  0  0  0  0  0  0  0  0
   -3.7200   -1.3000   -0.2150 C   0  0  0  0  0  0  0  0  0  0  0  0
   -4.8070   -0.6470    0.3010 C   0  0  0  0  0  0  0  0  0  0  0  0
   -4.6900    0.6580    0.8760 C   0  0  0  0  0  0  0  0  0  0  0  0
   -5.9980   -1.3880    0.2750 N   0  0  0  0  0  0  0  0  0  0  0  0
   -2.1650   -2.6430   -1.2700 C   0  0  0  0  0  0  0  0  0  0  0  0
   -0.8400   -3.1730   -1.4970 C   0  0  2  0  0  0  0  0  0  0  0  0
    0.0250   -3.2750   -0.4910 F   0  0  0  0  0  0  0  0  0  0  0  0
   -0.2220   -2.6700   -2.6410 F   0  0  0  0  0  0  0  0  0  0  0  0
   -1.0300   -4.5610   -1.9490 F   0  0  0  0  0  0  0  0  0  0  0  0
   -0.2590    0.5440   -1.7010 C   0  0  0  0  0  0  0  0  0  0  0  0
    1.0600    0.0270   -1.2950 C   0  0  0  0  0  0  0  0  0  0  0  0
  1  2  2  0
  2  3  1  0
  2  7  1  0
  3  4  1  0
  4  5  2  0
  5  6  1  0
  6  7  2  0
  7  8  1  0
  8  9  1  0
  8 24  1  0
  9 10  1  0
 10 11  1  0
 11 12  1  0
 11 23  1  0
 12 13  1  0
 13 14  1  0
 13 18  2  3
 14 15  2  3
 15 16  1  0
 15 17  1  0
 18 19  1  0
 19 20  1  1
 19 21  1  0
 19 22  1  0
 23 24  1  0
M  END
