
     RDKit          3D

 26 28  0  0  0  0  0  0  0  0999 V2000
   -4.3660    3.2400   -0.1330 C   0  0  0  0  0  0  0  0  0  0  0  0
   -3.4520    2.1660   -0.4810 C   0  0  0  0  0  0  0  0  0  0  0  0
   -2.7100    2.3860   -1.5170 O   0  0  0  0  0  0  0  0  0  0  0  0
   -3.2700    0.9090    0.1770 C   0  0  0  0  0  0  0  0  0  0  0  0
   -2.0960    0.1830   -0.1520 C   0  0  0  0  0  0  0  0  0  0  0  0
   -1.7740   -1.0190    0.4190 C   0  0  0  0  0  0  0  0  0  0  0  0
   -0.5560   -1.7190   -0.0030 C   0  0  2  0  0  0  0  0  0  0  0  0
    0.6660   -0.9080   -0.0580 C   0  0  0  0  0  0  0  0  0  0  0  0
    1.0940   -0.4300   -1.2770 C   0  0  0  0  0  0  0  0  0  0  0  0
    2.2430    0.3240   -1.3290 C   0  0  0  0  0  0  0  0  0  0  0  0
    2.9750    0.6090   -0.1720 C   0  0  0  0  0  0  0  0  0  0  0  0
    4.1950    1.4010   -0.3600 C   0  0  1  0  0  0  0  0  0  0  0  0
    3.7590    2.7510   -0.9390 C   0  0  0  0  0  0  0  0  0  0  0  0
    5.0470    1.6430    0.8220 C   0  0  0  0  0  0  0  0  0  0  0  0
    4.9780    0.7130   -1.4880 C   0  0  0  0  0  0  0  0  0  0  0  0
    2.5250    0.1250    1.0060 C   0  0  0  0  0  0  0  0  0  0  0  0
    1.3620   -0.6450    1.0970 C   0  0  0  0  0  0  0  0  0  0  0  0
    0.9460   -1.1360    2.4300 C   0  0  0  0  0  0  0  0  0  0  0  0
   -0.8430   -2.5190   -1.2490 C   0  0  2  0  0  0  0  0  0  0  0  0
   -1.3090   -1.8750   -2.3990 O   0  0  0  0  0  0  0  0  0  0  0  0
   -1.3150   -3.9720   -1.0890 C   0  0  0  0  0  0  0  0  0  0  0  0
    0.0630   -3.6970   -1.5130 C   0  0  0  0  0  0  0  0  0  0  0  0
   -2.6400   -1.5360    1.3580 C   0  0  0  0  0  0  0  0  0  0  0  0
   -3.7850   -0.8460    1.6900 C   0  0  0  0  0  0  0  0  0  0  0  0
   -4.1260    0.3880    1.1100 C   0  0  0  0  0  0  0  0  0  0  0  0
   -5.3840    1.0500    1.4850 C   0  0  0  0  0  0  0  0  0  0  0  0
  1  2  1  0
  2  3  2  0
  2  4  1  0
  4  5  2  0
  4 25  1  0
  5  6  1  0
  7  6  1  6
  6 23  2  0
  7  8  1  0
  7 19  1  0
  8  9  2  0
  8 17  1  0
  9 10  1  0
 10 11  2  0
 11 12  1  0
 11 16  1  0
 12 13  1  6
 12 14  1  0
 12 15  1  0
 16 17  2  0
 17 18  1  0
 19 20  1  6
 19 21  1  0
 19 22  1  0
 21 22  1  0
 23 24  1  0
 24 25  2  0
 25 26  1  0
M  END
