
     RDKit          3D

 24 26  0  0  0  0  0  0  0  0999 V2000
   -6.6380    0.3720    0.3870 C   0  0  0  0  0  0  0  0  0  0  0  0
   -5.2040    0.4290    0.6540 C   0  0  0  0  0  0  0  0  0  0  0  0
   -4.3050   -0.3140    0.0600 C   0  0  0  0  0  0  0  0  0  0  0  0
   -2.8750   -0.1780    0.4040 C   0  0  0  0  0  0  0  0  0  0  0  0
   -1.8250   -0.8930   -0.1400 C   0  0  0  0  0  0  0  0  0  0  0  0
   -0.7000   -0.4310    0.4770 C   0  0  0  0  0  0  0  0  0  0  0  0
    0.6670   -0.9160    0.2050 C   0  0  0  0  0  0  0  0  0  0  0  0
    1.3050   -0.1380   -0.8690 N   0  0  0  0  0  0  0  0  0  0  0  0
    1.3560    1.2070   -0.4450 C   0  0  0  0  0  0  0  0  0  0  0  0
    2.2110    2.1430   -1.2360 C   0  0  0  0  0  0  0  0  0  0  0  0
    3.5610    2.0510   -0.6510 N   0  0  0  0  0  0  0  0  0  0  0  0
    4.1790    0.8170   -0.2510 C   0  0  0  0  0  0  0  0  0  0  0  0
    5.3330    1.0170    0.4430 N   0  0  0  0  0  0  0  0  0  0  0  0
    6.0060   -0.0590    0.8750 C   0  0  0  0  0  0  0  0  0  0  0  0
    5.5890   -1.3520    0.6530 C   0  0  0  0  0  0  0  0  0  0  0  0
    4.4240   -1.5490   -0.0480 C   0  0  0  0  0  0  0  0  0  0  0  0
    3.7170   -0.4600   -0.5010 C   0  0  0  0  0  0  0  0  0  0  0  0
    2.4870   -0.8000   -1.2440 C   0  0  0  0  0  0  0  0  0  0  0  0
   -1.0390    0.5520    1.3870 C   0  0  0  0  0  0  0  0  0  0  0  0
   -2.3960    0.6730    1.3050 N   0  0  0  0  0  0  0  0  0  0  0  0
   -4.6710   -1.3010   -0.9590 C   0  0  2  0  0  0  0  0  0  0  0  0
   -6.0150   -1.3650   -1.2240 F   0  0  0  0  0  0  0  0  0  0  0  0
   -4.2200   -2.5630   -0.6160 F   0  0  0  0  0  0  0  0  0  0  0  0
   -4.0060   -0.9520   -2.1320 F   0  0  0  0  0  0  0  0  0  0  0  0
  1  2  1  0
  2  3  2  3
  3  4  1  0
  3 21  1  0
  4  5  2  0
  4 20  1  0
  5  6  1  0
  6  7  1  0
  6 19  2  0
  7  8  1  0
  8  9  1  0
  8 18  1  0
  9 10  1  0
 10 11  1  0
 11 12  1  0
 12 13  2  0
 12 17  1  0
 13 14  1  0
 14 15  2  0
 15 16  1  0
 16 17  2  0
 17 18  1  0
 19 20  1  0
 21 22  1  6
 21 23  1  0
 21 24  1  0
M  END
