
     RDKit          3D

 24 26  0  0  0  0  0  0  0  0999 V2000
   -3.9750   -2.7690   -0.7700 C   0  0  0  0  0  0  0  0  0  0  0  0
   -4.4290   -1.3340   -0.6990 C   0  0  0  0  0  0  0  0  0  0  0  0
   -3.2530   -0.4750   -0.4400 C   0  0  0  0  0  0  0  0  0  0  0  0
   -1.9710   -0.9330   -0.2870 C   0  0  0  0  0  0  0  0  0  0  0  0
   -1.1420    0.1290   -0.0710 C   0  0  0  0  0  0  0  0  0  0  0  0
    0.2420    0.2270    0.1450 C   0  0  0  0  0  0  0  0  0  0  0  0
    0.8440    1.4390    0.3390 C   0  0  0  0  0  0  0  0  0  0  0  0
    2.2260    1.6010    0.5510 N   0  0  0  0  0  0  0  0  0  0  0  0
    3.1870    0.5770    0.4400 C   0  0  0  0  0  0  0  0  0  0  0  0
    2.9810   -0.2380   -0.5400 N   0  0  0  0  0  0  0  0  0  0  0  0
    3.6490   -1.3890   -1.0420 C   0  0  0  0  0  0  0  0  0  0  0  0
    4.6120   -2.0150   -0.0710 C   0  0  0  0  0  0  0  0  0  0  0  0
    5.6790   -1.0950    0.4120 C   0  0  0  0  0  0  0  0  0  0  0  0
    5.1930   -0.4790    1.7270 C   0  0  0  0  0  0  0  0  0  0  0  0
    4.2370    0.5400    1.3640 N   0  0  0  0  0  0  0  0  0  0  0  0
    0.0200    2.5440    0.3100 C   0  0  0  0  0  0  0  0  0  0  0  0
   -1.3400    2.4790    0.1000 C   0  0  0  0  0  0  0  0  0  0  0  0
   -1.9320    1.2530   -0.0940 C   0  0  0  0  0  0  0  0  0  0  0  0
   -3.2230    0.8660   -0.3210 N   0  0  0  0  0  0  0  0  0  0  0  0
   -4.3300    1.7910   -0.4160 C   0  0  0  0  0  0  0  0  0  0  0  0
   -4.9850    2.0930    0.9040 C   0  0  2  0  0  0  0  0  0  0  0  0
   -4.0850    2.6580    1.8030 F   0  0  0  0  0  0  0  0  0  0  0  0
   -5.5670    0.9980    1.5000 F   0  0  0  0  0  0  0  0  0  0  0  0
   -6.0180    2.9930    0.6280 F   0  0  0  0  0  0  0  0  0  0  0  0
  1  2  1  0
  2  3  1  0
  3  4  2  0
  3 19  1  0
  4  5  1  0
  5  6  2  0
  5 18  1  0
  6  7  1  0
  7  8  1  0
  7 16  2  0
  8  9  1  0
  9 10  2  0
  9 15  1  0
 10 11  1  0
 11 12  1  0
 12 13  1  0
 13 14  1  0
 14 15  1  0
 16 17  1  0
 17 18  2  0
 18 19  1  0
 19 20  1  0
 20 21  1  0
 21 22  1  1
 21 23  1  0
 21 24  1  0
M  END
