
     RDKit          3D

 24 27  0  0  0  0  0  0  0  0999 V2000
   -0.1570   -1.5120    2.3100 F   0  0  0  0  0  0  0  0  0  0  0  0
   -0.7910   -2.1240    1.2300 C   0  0  0  0  0  0  0  0  0  0  0  0
   -1.2770   -1.4010    0.2640 C   0  0  0  0  0  0  0  0  0  0  0  0
   -1.1350    0.0660    0.3220 C   0  0  0  0  0  0  0  0  0  0  0  0
   -2.1890    0.8450    0.6250 N   0  0  0  0  0  0  0  0  0  0  0  0
   -2.1050    2.2080    0.6100 C   0  0  0  0  0  0  0  0  0  0  0  0
   -0.9290    2.8110    0.2810 C   0  0  0  0  0  0  0  0  0  0  0  0
    0.1360    2.0510   -0.0250 N   0  0  0  0  0  0  0  0  0  0  0  0
    0.0480    0.6730   -0.0090 C   0  0  0  0  0  0  0  0  0  0  0  0
    1.2140   -0.0520   -0.3420 N   0  0  0  0  0  0  0  0  0  0  0  0
    2.1640   -0.5010    0.6310 C   0  0  0  0  0  0  0  0  0  0  0  0
    3.5870   -0.1660    0.2280 C   0  0  0  0  0  0  0  0  0  0  0  0
    3.8650   -0.7360   -1.1400 C   0  0  0  0  0  0  0  0  0  0  0  0
    2.6270   -1.3480   -1.7670 C   0  0  0  0  0  0  0  0  0  0  0  0
    1.4610   -0.3740   -1.7310 C   0  0  0  0  0  0  0  0  0  0  0  0
   -1.0360    4.3050    0.3170 C   0  0  0  0  0  0  0  0  0  0  0  0
   -2.4050    4.5440    0.8460 C   0  0  0  0  0  0  0  0  0  0  0  0
   -3.1210    3.2320    0.9010 C   0  0  0  0  0  0  0  0  0  0  0  0
   -2.0410   -1.9750   -0.8690 C   0  0  0  0  0  0  0  0  0  0  0  0
   -2.2130   -3.2830   -0.8370 C   0  0  0  0  0  0  0  0  0  0  0  0
   -1.7150   -4.0900    0.1980 N   0  0  0  0  0  0  0  0  0  0  0  0
   -0.8240   -3.5940    1.1800 C   0  0  2  0  0  0  0  0  0  0  0  0
   -1.0610   -4.1420    2.4410 F   0  0  0  0  0  0  0  0  0  0  0  0
    0.4830   -4.0160    0.7950 F   0  0  0  0  0  0  0  0  0  0  0  0
  1  2  1  0
  2  3  2  0
  2 22  1  0
  3  4  1  0
  3 19  1  0
  4  5  2  0
  4  9  1  0
  5  6  1  0
  6  7  2  0
  6 18  1  0
  7  8  1  0
  7 16  1  0
  8  9  2  0
  9 10  1  0
 10 11  1  0
 10 15  1  0
 11 12  1  0
 12 13  1  0
 13 14  1  0
 14 15  1  0
 16 17  1  0
 17 18  1  0
 19 20  2  0
 20 21  1  0
 21 22  1  0
 22 23  1  1
 22 24  1  0
M  END
