
     RDKit          3D

 30 31  0  0  0  0  0  0  0  0999 V2000
   -3.9380    2.0910    1.8530 O   0  0  0  0  0  0  0  0  0  0  0  0
   -3.2090    1.4830    1.0440 C   0  0  0  0  0  0  0  0  0  0  0  0
   -1.7020    1.6250    1.1250 C   0  0  0  0  0  0  0  0  0  0  0  0
   -1.1040    0.8490    0.1100 O   0  0  0  0  0  0  0  0  0  0  0  0
    0.2510    0.7520   -0.0970 C   0  0  0  0  0  0  0  0  0  0  0  0
    1.0230    1.3890    0.6580 O   0  0  0  0  0  0  0  0  0  0  0  0
    0.8370   -0.0320   -1.1230 N   0  0  0  0  0  0  0  0  0  0  0  0
    2.2150   -0.1080   -1.3050 N   0  0  0  0  0  0  0  0  0  0  0  0
    3.0340   -0.6820   -0.2670 C   0  0  0  0  0  0  0  0  0  0  0  0
    2.9200   -1.1650    0.8100 N   0  0  0  0  0  0  0  0  0  0  0  0
    3.9010   -1.6100    1.5250 N   0  0  0  0  0  0  0  0  0  0  0  0
    5.0500   -1.6130    1.2370 C   0  0  0  0  0  0  0  0  0  0  0  0
    6.6710   -2.0750    1.8260 S   0  0  0  0  0  0  0  0  0  0  0  0
    7.9630   -1.6860    0.6510 C   0  0  0  0  0  0  0  0  0  0  0  0
    8.0740   -0.1700    0.4990 C   0  0  0  0  0  0  0  0  0  0  0  0
    9.3540    0.2320   -0.6660 S   0  0  2  0  0  0  0  0  0  0  0  0
    9.9650    1.5310   -0.2440 O   0  0  0  0  0  0  0  0  0  0  0  0
    8.8050    0.3000   -2.0610 O   0  0  0  0  0  0  0  0  0  0  0  0
    4.8940   -0.7930   -0.5000 S   0  0  0  0  0  0  0  0  0  0  0  0
   -3.7780    0.6580    0.0470 N   0  0  0  0  0  0  0  0  0  0  0  0
   -5.1580    0.4280   -0.1490 C   0  0  0  0  0  0  0  0  0  0  0  0
   -5.5110   -0.4190   -1.1920 C   0  0  0  0  0  0  0  0  0  0  0  0
   -6.8360   -0.7280   -1.4890 C   0  0  0  0  0  0  0  0  0  0  0  0
   -7.0950   -1.5810   -2.5450 O   0  0  0  0  0  0  0  0  0  0  0  0
   -7.8650   -0.1960   -0.7480 C   0  0  0  0  0  0  0  0  0  0  0  0
   -9.2180   -0.4600   -0.9870 O   0  0  0  0  0  0  0  0  0  0  0  0
   -7.5180    0.6520    0.2950 C   0  0  0  0  0  0  0  0  0  0  0  0
   -8.5500    1.1900    1.0430 O   0  0  0  0  0  0  0  0  0  0  0  0
   -8.3520    2.0160    2.0710 O   0  0  0  0  0  0  0  0  0  0  0  0
   -6.1960    0.9430    0.5710 C   0  0  0  0  0  0  0  0  0  0  0  0
  1  2  2  0
  2  3  1  0
  2 20  1  0
  3  4  1  0
  4  5  1  0
  5  6  2  0
  5  7  1  0
  7  8  1  0
  8  9  1  0
  9 10  2  0
  9 19  1  0
 10 11  1  0
 11 12  2  0
 12 13  1  0
 12 19  1  0
 13 14  1  0
 14 15  1  0
 16 15  1  1
 16 17  2  0
 16 18  2  0
 20 21  1  0
 21 22  2  0
 21 30  1  0
 22 23  1  0
 23 24  1  0
 23 25  2  0
 25 26  1  0
 25 27  1  0
 27 28  1  0
 27 30  2  0
 28 29  1  0
M  CHG  1  29  -1
M  END
