
     RDKit          3D

 29 32  0  0  0  0  0  0  0  0999 V2000
   -4.8920   -1.0300   -1.8120 C   0  0  0  0  0  0  0  0  0  0  0  0
   -4.1230    0.2340   -1.5120 C   0  0  0  0  0  0  0  0  0  0  0  0
   -3.8240    0.2860   -0.0740 C   0  0  2  0  0  0  0  0  0  0  0  0
   -3.0690    1.5080    0.4180 C   0  0  0  0  0  0  0  0  0  0  0  0
   -3.3650    1.5980    1.9080 C   0  0  0  0  0  0  0  0  0  0  0  0
   -3.1450    0.3440    2.6670 C   0  0  0  0  0  0  0  0  0  0  0  0
   -3.6610   -0.8970    2.0020 C   0  0  0  0  0  0  0  0  0  0  0  0
   -3.1940   -0.9500    0.5100 C   0  0  2  0  0  0  0  0  0  0  0  0
   -1.7760   -0.9630    0.5640 N   0  0  0  0  0  0  0  0  0  0  0  0
   -0.8420   -1.1330   -0.4800 C   0  0  0  0  0  0  0  0  0  0  0  0
   -1.0370   -1.4860   -1.7850 C   0  0  0  0  0  0  0  0  0  0  0  0
    0.1470   -1.5540   -2.3910 N   0  0  0  0  0  0  0  0  0  0  0  0
    1.1330   -1.2490   -1.5070 N   0  0  0  0  0  0  0  0  0  0  0  0
    2.4910   -1.3620   -1.8990 C   0  0  0  0  0  0  0  0  0  0  0  0
    2.9000   -2.3230   -2.7780 C   0  0  0  0  0  0  0  0  0  0  0  0
    4.2780   -2.2210   -3.0090 N   0  0  0  0  0  0  0  0  0  0  0  0
    4.7800   -1.2520   -2.3460 C   0  0  0  0  0  0  0  0  0  0  0  0
    3.6710   -0.6050   -1.5740 C   0  0  0  0  0  0  0  0  0  0  0  0
    3.8320    0.5260   -0.8970 C   0  0  0  0  0  0  0  0  0  0  0  0
    5.1210    1.1320   -0.6680 N   0  0  0  0  0  0  0  0  0  0  0  0
    5.0320    2.0570    0.4440 C   0  0  2  0  0  0  0  0  0  0  0  0
    5.6530    1.4190    1.6690 C   0  0  2  0  0  0  0  0  0  0  0  0
    5.5960    2.2590    2.7620 F   0  0  0  0  0  0  0  0  0  0  0  0
    6.9730    1.0860    1.4510 F   0  0  0  0  0  0  0  0  0  0  0  0
    4.9120    0.2870    1.9530 F   0  0  0  0  0  0  0  0  0  0  0  0
    3.5520    2.2130    0.6380 C   0  0  0  0  0  0  0  0  0  0  0  0
    2.9370    1.3500   -0.3030 O   0  0  0  0  0  0  0  0  0  0  0  0
    0.5630   -0.9930   -0.3410 C   0  0  0  0  0  0  0  0  0  0  0  0
    1.1950   -0.7110    0.9940 C   0  0  0  0  0  0  0  0  0  0  0  0
  1  2  1  0
  3  2  1  6
  3  4  1  0
  3  8  1  0
  4  5  1  0
  5  6  1  0
  6  7  1  0
  7  8  1  0
  8  9  1  1
  9 10  1  0
 10 11  1  0
 10 28  2  0
 11 12  2  0
 12 13  1  0
 13 14  1  0
 13 28  1  0
 14 15  2  0
 14 18  1  0
 15 16  1  0
 16 17  2  0
 17 18  1  0
 18 19  2  3
 19 20  1  0
 19 27  1  0
 20 21  1  0
 21 22  1  0
 21 26  1  1
 22 23  1  1
 22 24  1  0
 22 25  1  0
 26 27  1  0
 28 29  1  0
M  END
