
     RDKit          3D

 29 29  0  0  0  0  0  0  0  0999 V2000
   -6.5620   -2.3370    1.0790 C   0  0  0  0  0  0  0  0  0  0  0  0
   -7.7660   -1.8190    0.6330 O   0  0  0  0  0  0  0  0  0  0  0  0
   -7.6700   -0.4850    0.4740 N   0  0  0  0  0  0  0  0  0  0  0  0
   -6.6160    0.0540   -0.3220 C   0  0  0  0  0  0  0  0  0  0  0  0
   -5.7820   -0.7070   -0.8640 O   0  0  0  0  0  0  0  0  0  0  0  0
   -6.4810    1.5160   -0.5310 C   0  0  0  0  0  0  0  0  0  0  0  0
   -5.0000    1.8210   -1.5070 S   0  0  0  0  0  0  0  0  0  0  0  0
   -3.5130    1.4480   -0.5440 C   0  0  0  0  0  0  0  0  0  0  0  0
   -3.6180    1.1000    0.7610 C   0  0  0  0  0  0  0  0  0  0  0  0
   -2.4610    0.8200    1.4570 C   0  0  0  0  0  0  0  0  0  0  0  0
   -1.2650    0.9070    0.7970 N   0  0  0  0  0  0  0  0  0  0  0  0
   -1.1550    1.2450   -0.4770 C   0  0  0  0  0  0  0  0  0  0  0  0
    0.0270    1.3180   -1.2370 N   0  0  0  0  0  0  0  0  0  0  0  0
    1.3230    1.0880   -0.7570 C   0  0  0  0  0  0  0  0  0  0  0  0
    1.5110    0.8270    0.4470 O   0  0  0  0  0  0  0  0  0  0  0  0
    2.3690    1.1620   -1.6780 O   0  0  0  0  0  0  0  0  0  0  0  0
    3.6840    0.9490   -1.2760 C   0  0  0  0  0  0  0  0  0  0  0  0
    3.8340   -0.4030   -0.7030 C   0  0  0  0  0  0  0  0  0  0  0  0
    2.8380   -1.1320   -0.5470 O   0  0  0  0  0  0  0  0  0  0  0  0
    5.1290   -0.8610   -0.3350 N   0  0  0  0  0  0  0  0  0  0  0  0
    5.3610   -2.1370    0.2390 C   0  0  0  0  0  0  0  0  0  0  0  0
    4.3720   -2.8960    0.4750 O   0  0  0  0  0  0  0  0  0  0  0  0
    6.9930   -2.7270    0.6440 S   0  0  0  0  0  0  0  0  0  0  0  0
    8.2020   -1.5110    0.1030 C   0  0  0  0  0  0  0  0  0  0  0  0
    8.1570   -0.2460    0.8650 C   0  0  0  0  0  0  0  0  0  0  0  0
    8.9640    0.6650    0.5630 O   0  0  0  0  0  0  0  0  0  0  0  0
    7.2520   -0.0600    1.8830 O   0  0  0  0  0  0  0  0  0  0  0  0
    7.1980    1.0850    2.5840 O   0  0  0  0  0  0  0  0  0  0  0  0
   -2.3270    1.5150   -1.1300 N   0  0  0  0  0  0  0  0  0  0  0  0
  1  2  1  0
  2  3  1  0
  3  4  1  0
  4  5  2  0
  4  6  1  0
  6  7  1  0
  7  8  1  0
  8  9  2  0
  8 29  1  0
  9 10  1  0
 10 11  2  0
 11 12  1  0
 12 13  1  0
 12 29  2  0
 13 14  1  0
 14 15  2  0
 14 16  1  0
 16 17  1  0
 17 18  1  0
 18 19  2  0
 18 20  1  0
 20 21  1  0
 21 22  2  0
 21 23  1  0
 23 24  1  0
 24 25  1  0
 25 26  2  0
 25 27  1  0
 27 28  1  0
M  CHG  2  11   1  28  -1
M  END
