
     RDKit          3D

 30 31  0  0  0  0  0  0  0  0999 V2000
   -6.9930    2.9980   -0.4450 C   0  0  0  0  0  0  0  0  0  0  0  0
   -6.9350    1.5950   -0.6310 O   0  0  0  0  0  0  0  0  0  0  0  0
   -5.7530    0.9170   -0.8550 C   0  0  0  0  0  0  0  0  0  0  0  0
   -4.6840    1.5700   -0.8960 O   0  0  0  0  0  0  0  0  0  0  0  0
   -5.7520   -0.5300   -1.0400 C   0  0  0  0  0  0  0  0  0  0  0  0
   -5.3100   -1.2170    0.2150 C   0  0  0  0  0  0  0  0  0  0  0  0
   -4.0020   -0.8740    0.6750 N   0  0  0  0  0  0  0  0  0  0  0  0
   -3.7210    0.1290    1.5560 C   0  0  0  0  0  0  0  0  0  0  0  0
   -4.5650    0.9090    2.1140 O   0  0  0  0  0  0  0  0  0  0  0  0
   -2.3850    0.1520    1.7370 N   0  0  0  0  0  0  0  0  0  0  0  0
   -1.6920    1.0320    2.5660 O   0  0  0  0  0  0  0  0  0  0  0  0
   -1.8140   -0.7920    1.0080 N   0  0  0  0  0  0  0  0  0  0  0  0
   -0.4060   -1.1210    0.8960 C   0  0  0  0  0  0  0  0  0  0  0  0
    0.2020   -0.3060   -0.2230 C   0  0  0  0  0  0  0  0  0  0  0  0
    1.9380   -0.6720   -0.4180 S   0  0  2  0  0  0  0  0  0  0  0  0
    2.4440    0.2160   -1.5180 O   0  0  0  0  0  0  0  0  0  0  0  0
    2.1600   -2.0780   -0.8550 O   0  0  0  0  0  0  0  0  0  0  0  0
    2.8100   -0.3050    1.0730 C   0  0  0  0  0  0  0  0  0  0  0  0
    4.2580   -0.6330    0.8570 C   0  0  0  0  0  0  0  0  0  0  0  0
    4.7340   -1.5910    1.5560 N   0  0  0  0  0  0  0  0  0  0  0  0
    6.3850   -2.0270    1.3650 S   0  0  2  0  0  0  0  0  0  0  0  0
    6.4200   -3.4560    0.8710 O   0  0  0  0  0  0  0  0  0  0  0  0
    7.1310   -1.9850    2.6630 O   0  0  0  0  0  0  0  0  0  0  0  0
    7.0590   -0.9600    0.1620 C   0  0  0  0  0  0  0  0  0  0  0  0
    6.3280   -0.0310   -0.4210 C   0  0  0  0  0  0  0  0  0  0  0  0
    7.1200    1.0280   -1.6580 S   0  0  0  0  0  0  0  0  0  0  0  0
    5.9140    2.2210   -2.2570 C   0  0  0  0  0  0  0  0  0  0  0  0
    4.9620    0.1400   -0.0920 N   0  0  0  0  0  0  0  0  0  0  0  0
   -2.8200   -1.4110    0.3640 C   0  0  0  0  0  0  0  0  0  0  0  0
   -2.6720   -2.3680   -0.4260 O   0  0  0  0  0  0  0  0  0  0  0  0
  1  2  1  0
  2  3  1  0
  3  4  2  0
  3  5  1  0
  5  6  1  0
  6  7  1  0
  7  8  1  0
  7 29  1  0
  8  9  2  0
  8 10  1  0
 10 11  1  0
 10 12  1  0
 12 13  1  0
 12 29  1  0
 13 14  1  0
 15 14  1  1
 15 16  2  0
 15 17  2  0
 15 18  1  0
 18 19  1  0
 19 20  2  0
 19 28  1  0
 20 21  1  0
 21 22  2  0
 21 23  2  0
 21 24  1  6
 24 25  2  0
 25 26  1  0
 25 28  1  0
 26 27  1  0
 29 30  2  0
M  CHG  1  11  -1
M  END
