
     RDKit          3D

 29 33  0  0  0  0  0  0  0  0999 V2000
   -0.2020    3.2980    1.8880 O   0  0  0  0  0  0  0  0  0  0  0  0
   -0.8390    2.3190    1.3960 C   0  0  0  0  0  0  0  0  0  0  0  0
   -0.2070    1.2000    0.9990 N   0  0  0  0  0  0  0  0  0  0  0  0
   -0.8500    0.1400    0.4710 C   0  0  0  0  0  0  0  0  0  0  0  0
   -0.2590   -0.9260    0.0910 N   0  0  0  0  0  0  0  0  0  0  0  0
    1.1740   -1.1250    0.1810 C   0  0  1  0  0  0  0  0  0  0  0  0
    1.6240   -2.4460   -0.3710 C   0  0  0  0  0  0  0  0  0  0  0  0
    2.1910   -1.7100   -1.5860 C   0  0  0  0  0  0  0  0  0  0  0  0
    1.9590   -0.3870   -0.9010 C   0  0  2  0  0  0  0  0  0  0  0  0
    3.1530    0.3190   -0.4370 C   0  0  0  0  0  0  0  0  0  0  0  0
    3.3440    1.6360   -0.7960 C   0  0  0  0  0  0  0  0  0  0  0  0
    4.4470    2.3720   -0.3970 C   0  0  0  0  0  0  0  0  0  0  0  0
    4.6300    3.6700   -0.7540 F   0  0  0  0  0  0  0  0  0  0  0  0
    5.4010    1.7580    0.3980 C   0  0  0  0  0  0  0  0  0  0  0  0
    6.5120    2.4280    0.8250 F   0  0  0  0  0  0  0  0  0  0  0  0
    5.2490    0.4470    0.7770 C   0  0  0  0  0  0  0  0  0  0  0  0
    6.1720   -0.2620    1.5870 N   0  0  0  0  0  0  0  0  0  0  0  0
    6.2170   -1.5650    1.1750 F   0  0  0  0  0  0  0  0  0  0  0  0
    4.1190   -0.2570    0.3510 C   0  0  0  0  0  0  0  0  0  0  0  0
   -2.2320    0.1830    0.3220 C   0  0  0  0  0  0  0  0  0  0  0  0
   -2.9540   -0.8660   -0.2100 C   0  0  0  0  0  0  0  0  0  0  0  0
   -4.3320   -0.7990   -0.3480 C   0  0  0  0  0  0  0  0  0  0  0  0
   -4.9460    0.3640    0.0700 C   0  0  0  0  0  0  0  0  0  0  0  0
   -4.2270    1.3770    0.5860 N   0  0  0  0  0  0  0  0  0  0  0  0
   -2.8850    1.3290    0.7280 C   0  0  0  0  0  0  0  0  0  0  0  0
   -2.1780    2.3540    1.2490 N   0  0  0  0  0  0  0  0  0  0  0  0
   -6.4090    0.2290   -0.1640 C   0  0  0  0  0  0  0  0  0  0  0  0
   -6.4490   -0.7590   -1.3120 C   0  0  0  0  0  0  0  0  0  0  0  0
   -5.3610   -1.7480   -0.8750 C   0  0  0  0  0  0  0  0  0  0  0  0
  1  2  2  0
  2  3  1  0
  2 26  1  0
  3  4  1  0
  4  5  2  3
  4 20  1  0
  6  5  1  6
  6  7  1  0
  6  9  1  0
  7  8  1  0
  8  9  1  0
  9 10  1  1
 10 11  2  0
 10 19  1  0
 11 12  1  0
 12 13  1  0
 12 14  2  0
 14 15  1  0
 14 16  1  0
 16 17  1  0
 16 19  2  0
 17 18  1  0
 20 21  2  0
 20 25  1  0
 21 22  1  0
 22 23  2  0
 22 29  1  0
 23 24  1  0
 23 27  1  0
 24 25  2  0
 25 26  1  0
 27 28  1  0
 28 29  1  0
M  CHG  1  17   1
M  END
