
     RDKit          3D

 30 31  0  0  0  0  0  0  0  0999 V2000
    8.1730    0.0900    0.7450 O   0  0  0  0  0  0  0  0  0  0  0  0
    8.7280    0.2090   -0.3570 C   0  0  0  0  0  0  0  0  0  0  0  0
   10.0910    0.5160   -0.4060 O   0  0  0  0  0  0  0  0  0  0  0  0
    7.9910    0.0370   -1.5800 N   0  0  0  0  0  0  0  0  0  0  0  0
    6.6040   -0.2560   -1.6080 C   0  0  0  0  0  0  0  0  0  0  0  0
    5.7370   -0.4710   -2.3030 N   0  0  0  0  0  0  0  0  0  0  0  0
    4.4590   -0.7030   -2.0840 C   0  0  0  0  0  0  0  0  0  0  0  0
    4.0620   -0.6870   -0.7910 C   0  0  0  0  0  0  0  0  0  0  0  0
    2.8530   -0.8290   -0.0610 C   0  0  0  0  0  0  0  0  0  0  0  0
    2.9540   -0.7900    1.2250 O   0  0  0  0  0  0  0  0  0  0  0  0
    1.6020   -0.9980   -0.5520 O   0  0  0  0  0  0  0  0  0  0  0  0
    0.4030   -1.1280    0.1830 C   0  0  0  0  0  0  0  0  0  0  0  0
    0.2390    0.1220    1.0110 C   0  0  2  0  0  0  0  0  0  0  0  0
   -1.0480    0.1360    1.8270 C   0  0  0  0  0  0  0  0  0  0  0  0
   -2.1210    0.0790    0.9350 N   0  0  0  0  0  0  0  0  0  0  0  0
   -3.5480    0.0970    1.3770 C   0  0  0  0  0  0  0  0  0  0  0  0
   -3.7660    0.1490    2.5210 O   0  0  0  0  0  0  0  0  0  0  0  0
   -4.3550    0.0480    0.1870 N   0  0  0  0  0  0  0  0  0  0  0  0
   -5.8760    0.2050    0.9740 C   0  0  0  0  0  0  0  0  0  0  0  0
   -5.8330    0.3000    2.1320 O   0  0  0  0  0  0  0  0  0  0  0  0
   -6.9610    0.1930    0.0230 C   0  0  0  0  0  0  0  0  0  0  0  0
   -7.0650    0.0700   -1.2540 C   0  0  0  0  0  0  0  0  0  0  0  0
   -8.7070    0.1170   -1.9170 S   0  0  0  0  0  0  0  0  0  0  0  0
   -9.7290    0.3450   -0.3860 C   0  0  0  0  0  0  0  0  0  0  0  0
  -11.0160    0.4250   -0.4810 O   0  0  0  0  0  0  0  0  0  0  0  0
   -8.6990    0.3770    0.6490 S   0  0  0  0  0  0  0  0  0  0  0  0
    0.1920    1.3060    0.1330 N   0  0  0  0  0  0  0  0  0  0  0  0
    0.2910    1.1120   -1.0890 O   0  0  0  0  0  0  0  0  0  0  0  0
    0.0430    2.5510    0.6800 O   0  0  0  0  0  0  0  0  0  0  0  0
    5.6920   -0.3150    0.0660 S   0  0  0  0  0  0  0  0  0  0  0  0
  1  2  2  0
  2  3  1  0
  2  4  1  0
  4  5  1  0
  5  6  2  0
  5 30  1  0
  6  7  1  0
  7  8  2  0
  8  9  1  0
  8 30  1  0
  9 10  2  0
  9 11  1  0
 11 12  1  0
 13 12  1  6
 13 14  1  0
 13 27  1  0
 14 15  1  0
 15 16  1  0
 16 17  2  0
 16 18  1  0
 18 19  1  0
 19 20  2  0
 19 21  1  0
 21 22  2  0
 21 26  1  0
 22 23  1  0
 23 24  1  0
 24 25  2  0
 24 26  1  0
 27 28  2  0
 27 29  1  0
M  CHG  2  27   1  29  -1
M  END
