
     RDKit          3D

 15 16  0  0  0  0  0  0  0  0999 V2000
    3.8690   -0.9730    1.3760 O   0  0  0  0  0  0  0  0  0  0  0  0
    2.9870   -0.2220    0.6080 C   0  0  2  0  0  0  0  0  0  0  0  0
    1.6000   -0.7280    0.8150 C   0  0  0  0  0  0  0  0  0  0  0  0
    0.6370   -0.4390   -0.2900 C   0  0  1  0  0  0  0  0  0  0  0  0
    0.1320   -1.6940   -0.7210 O   0  0  0  0  0  0  0  0  0  0  0  0
   -0.6160    0.2650    0.2610 C   0  0  1  0  0  0  0  0  0  0  0  0
   -0.3120    1.5310    0.7330 O   0  0  0  0  0  0  0  0  0  0  0  0
   -1.6390    0.4170   -0.8440 C   0  0  0  0  0  0  0  0  0  0  0  0
   -3.0360    0.5970   -0.3730 C   0  0  0  0  0  0  0  0  0  0  0  0
   -3.4070   -0.0690    0.8950 C   0  0  0  0  0  0  0  0  0  0  0  0
   -2.3540    0.1390    1.8110 O   0  0  0  0  0  0  0  0  0  0  0  0
   -1.2840   -0.5940    1.3020 C   0  0  0  0  0  0  0  0  0  0  0  0
    1.1990    0.2370   -1.4790 C   0  0  0  0  0  0  0  0  0  0  0  0
    2.5540    0.8760   -1.2590 C   0  0  0  0  0  0  0  0  0  0  0  0
    3.3730   -0.1450   -0.7210 O   0  0  0  0  0  0  0  0  0  0  0  0
  2  1  1  1
  2  3  1  0
  2 15  1  0
  3  4  1  0
  4  5  1  6
  4  6  1  0
  4 13  1  0
  6  7  1  1
  6  8  1  0
  6 12  1  0
  8  9  1  0
  9 10  1  0
 10 11  1  0
 11 12  1  0
 13 14  1  0
 14 15  1  0
M  END
