
     RDKit          3D

 27 28  0  0  0  0  0  0  0  0999 V2000
    6.1750   -2.2700    0.5900 N   0  0  0  0  0  0  0  0  0  0  0  0
    5.1390   -1.5320   -0.0440 C   0  0  0  0  0  0  0  0  0  0  0  0
    5.1460   -1.4490   -1.2890 O   0  0  0  0  0  0  0  0  0  0  0  0
    4.1020   -0.9000    0.8130 C   0  0  0  0  0  0  0  0  0  0  0  0
    3.0920   -0.1680    0.0150 C   0  0  0  0  0  0  0  0  0  0  0  0
    1.7800   -0.4530    0.0210 C   0  0  0  0  0  0  0  0  0  0  0  0
    1.0920    0.4700   -0.8810 C   0  0  1  0  0  0  0  0  0  0  0  0
   -0.2920    0.7780   -0.5130 C   0  0  0  0  0  0  0  0  0  0  0  0
   -0.6490    1.9580   -0.2730 O   0  0  0  0  0  0  0  0  0  0  0  0
   -1.3180   -0.2110   -0.4020 N   0  0  0  0  0  0  0  0  0  0  0  0
   -2.6250    0.1290   -0.0480 C   0  0  0  0  0  0  0  0  0  0  0  0
   -2.9110    1.4320    0.1920 N   0  0  0  0  0  0  0  0  0  0  0  0
   -4.1510    1.8170    0.5360 C   0  0  0  0  0  0  0  0  0  0  0  0
   -4.4040    3.2320    0.7830 C   0  0  0  0  0  0  0  0  0  0  0  0
   -5.7010    3.6780    1.1490 N   0  0  0  0  0  0  0  0  0  0  0  0
   -3.4940    4.0830    0.6810 O   0  0  0  0  0  0  0  0  0  0  0  0
   -5.1480    0.9370    0.6560 N   0  0  0  0  0  0  0  0  0  0  0  0
   -4.9230   -0.3650    0.4300 C   0  0  0  0  0  0  0  0  0  0  0  0
   -3.6510   -0.7920    0.0730 C   0  0  0  0  0  0  0  0  0  0  0  0
   -3.3580   -2.1360   -0.1740 N   0  0  0  0  0  0  0  0  0  0  0  0
   -4.2660   -3.2140   -0.1020 C   0  0  0  0  0  0  0  0  0  0  0  0
   -3.8200   -4.5650   -0.3860 N   0  0  0  0  0  0  0  0  0  0  0  0
   -5.4510   -3.0480    0.2000 O   0  0  0  0  0  0  0  0  0  0  0  0
    1.9970    1.6820   -0.8540 C   0  0  0  0  0  0  0  0  0  0  0  0
    3.3480    0.9750   -0.9030 C   0  0  1  0  0  0  0  0  0  0  0  0
    4.4570    1.8660   -0.4060 C   0  0  0  0  0  0  0  0  0  0  0  0
    4.1670    2.4110    0.8420 O   0  0  0  0  0  0  0  0  0  0  0  0
  1  2  1  0
  2  3  2  0
  2  4  1  0
  4  5  1  0
  5  6  2  0
  5 25  1  0
  6  7  1  0
  7  8  1  1
  7 24  1  0
  8  9  2  0
  8 10  1  0
 10 11  1  0
 11 12  2  0
 11 19  1  0
 12 13  1  0
 13 14  1  0
 13 17  2  0
 14 15  1  0
 14 16  2  0
 17 18  1  0
 18 19  2  0
 19 20  1  0
 20 21  1  0
 21 22  1  0
 21 23  2  0
 24 25  1  0
 25 26  1  1
 26 27  1  0
M  END
