
     RDKit          3D

 21 22  0  0  0  0  0  0  0  0999 V2000
   -6.1000   -0.4110    0.1610 C   0  0  0  0  0  0  0  0  0  0  0  0
   -5.5620    0.9860    0.1910 C   0  0  1  0  0  0  0  0  0  0  0  0
   -6.5020    1.8670    0.9640 C   0  0  0  0  0  0  0  0  0  0  0  0
   -4.1550    1.0310    0.7850 C   0  0  0  0  0  0  0  0  0  0  0  0
   -3.2470    0.1810   -0.0680 C   0  0  0  0  0  0  0  0  0  0  0  0
   -3.7270   -0.3740   -1.0650 O   0  0  0  0  0  0  0  0  0  0  0  0
   -1.8970    0.0090    0.2400 N   0  0  0  0  0  0  0  0  0  0  0  0
   -0.9290   -0.7540   -0.4500 C   0  0  0  0  0  0  0  0  0  0  0  0
   -1.2850   -1.6660   -1.4000 C   0  0  0  0  0  0  0  0  0  0  0  0
   -0.2580   -2.3680   -2.0520 C   0  0  0  0  0  0  0  0  0  0  0  0
    1.0580   -2.1480   -1.7500 C   0  0  0  0  0  0  0  0  0  0  0  0
    1.4470   -1.2270   -0.7890 C   0  0  0  0  0  0  0  0  0  0  0  0
    2.8530   -1.0010   -0.4770 C   0  0  0  0  0  0  0  0  0  0  0  0
    3.7680   -2.0320   -0.5740 C   0  0  0  0  0  0  0  0  0  0  0  0
    5.1100   -1.8690   -0.2920 C   0  0  0  0  0  0  0  0  0  0  0  0
    5.5630   -0.6120    0.1080 C   0  0  0  0  0  0  0  0  0  0  0  0
    4.6670    0.4280    0.2110 C   0  0  0  0  0  0  0  0  0  0  0  0
    5.1010    1.7780    0.6300 C   0  0  0  0  0  0  0  0  0  0  0  0
    6.5130    1.8560    0.8930 N   0  0  0  0  0  0  0  0  0  0  0  0
    3.3270    0.2410   -0.0770 C   0  0  0  0  0  0  0  0  0  0  0  0
    0.4340   -0.5510   -0.1620 C   0  0  0  0  0  0  0  0  0  0  0  0
  2  1  1  1
  2  3  1  0
  2  4  1  0
  4  5  1  0
  5  6  2  0
  5  7  1  0
  7  8  1  0
  8  9  2  0
  8 21  1  0
  9 10  1  0
 10 11  2  0
 11 12  1  0
 12 13  1  0
 12 21  2  0
 13 14  2  0
 13 20  1  0
 14 15  1  0
 15 16  2  0
 16 17  1  0
 17 18  1  0
 17 20  2  0
 18 19  1  0
M  CHG  1  19   1
M  END
