
     RDKit          3D

 26 27  0  0  0  0  0  0  0  0999 V2000
    8.6830    0.6280    0.3110 N   0  0  0  0  0  0  0  0  0  0  0  0
    7.8190    1.4110   -0.5220 C   0  0  0  0  0  0  0  0  0  0  0  0
    8.1530    2.4190   -1.1420 O   0  0  0  0  0  0  0  0  0  0  0  0
    6.4290    0.9520   -0.6230 C   0  0  0  0  0  0  0  0  0  0  0  0
    5.9870   -0.1270    0.0230 C   0  0  0  0  0  0  0  0  0  0  0  0
    4.6020   -0.5080   -0.1380 C   0  0  0  0  0  0  0  0  0  0  0  0
    4.1610   -1.5860    0.4610 C   0  0  0  0  0  0  0  0  0  0  0  0
    2.7830   -1.9590    0.3180 C   0  0  0  0  0  0  0  0  0  0  0  0
    1.9550   -1.2580   -0.3930 C   0  0  0  0  0  0  0  0  0  0  0  0
    0.5990   -1.5850   -0.5480 N   0  0  0  0  0  0  0  0  0  0  0  0
   -0.3500   -0.6570    0.1770 C   0  0  0  0  0  0  0  0  0  0  0  0
    0.0870    0.2440    0.7960 O   0  0  0  0  0  0  0  0  0  0  0  0
   -1.6900   -1.1270   -0.0650 N   0  0  0  0  0  0  0  0  0  0  0  0
   -2.5050   -0.0460    1.0140 C   0  0  0  0  0  0  0  0  0  0  0  0
   -1.8090    0.4260    1.8000 O   0  0  0  0  0  0  0  0  0  0  0  0
   -3.8990    0.0410    0.6770 C   0  0  1  0  0  0  0  0  0  0  0  0
   -4.2630   -0.2880   -0.7450 C   0  0  0  0  0  0  0  0  0  0  0  0
   -5.6480    0.3270   -0.9860 C   0  0  2  0  0  0  0  0  0  0  0  0
   -5.7630    1.7410   -0.4830 C   0  0  0  0  0  0  0  0  0  0  0  0
   -4.8460    2.6010   -1.0590 O   0  0  0  0  0  0  0  0  0  0  0  0
   -6.5260   -0.5740   -0.1690 C   0  0  0  0  0  0  0  0  0  0  0  0
   -7.5780   -1.0160   -0.5970 O   0  0  0  0  0  0  0  0  0  0  0  0
   -6.0320   -0.8570    1.1260 N   0  0  0  0  0  0  0  0  0  0  0  0
   -4.9010   -0.1880    1.6310 N   0  0  0  0  0  0  0  0  0  0  0  0
    2.4160   -0.0920   -1.0640 N   0  0  0  0  0  0  0  0  0  0  0  0
    3.7690    0.3710   -1.0000 C   0  0  0  0  0  0  0  0  0  0  0  0
  1  2  1  0
  2  3  2  0
  2  4  1  0
  4  5  2  3
  5  6  1  0
  6  7  2  0
  6 26  1  0
  7  8  1  0
  8  9  2  0
  9 10  1  0
  9 25  1  0
 10 11  1  0
 11 12  2  0
 11 13  1  0
 13 14  1  0
 14 15  2  0
 16 14  1  1
 16 17  1  0
 16 24  1  0
 17 18  1  0
 18 19  1  1
 18 21  1  0
 19 20  1  0
 21 22  2  0
 21 23  1  0
 23 24  1  0
 25 26  1  0
M  END
