
     RDKit          3D

 27 28  0  0  0  0  0  0  0  0999 V2000
   -3.1610   -2.7040    1.6850 C   0  0  0  0  0  0  0  0  0  0  0  0
   -2.0630   -2.1800    0.8040 C   0  0  1  0  0  0  0  0  0  0  0  0
   -2.4540   -2.3660   -0.6060 C   0  0  0  0  0  0  0  0  0  0  0  0
   -2.8790   -3.6670   -1.0310 N   0  0  0  0  0  0  0  0  0  0  0  0
   -2.4480   -1.4620   -1.4880 O   0  0  0  0  0  0  0  0  0  0  0  0
   -1.7220   -0.8000    1.0320 N   0  0  0  0  0  0  0  0  0  0  0  0
   -0.4110   -0.3660    1.4480 C   0  0  0  0  0  0  0  0  0  0  0  0
    0.5250   -0.0190    0.3940 C   0  0  0  0  0  0  0  0  0  0  0  0
    0.1950   -0.0950   -0.8080 O   0  0  0  0  0  0  0  0  0  0  0  0
    1.8250    0.4120    0.7190 N   0  0  0  0  0  0  0  0  0  0  0  0
    2.8130    0.7740   -0.2290 C   0  0  0  0  0  0  0  0  0  0  0  0
    2.8080    0.8110   -1.5520 C   0  0  0  0  0  0  0  0  0  0  0  0
    4.0740    1.2530   -2.0760 N   0  0  0  0  0  0  0  0  0  0  0  0
    5.0060    0.8670   -1.0760 C   0  0  1  0  0  0  0  0  0  0  0  0
    5.2080   -0.6540   -1.0660 C   0  0  0  0  0  0  0  0  0  0  0  0
    6.2210    1.5220   -0.9240 N   0  0  0  0  0  0  0  0  0  0  0  0
    6.3360    1.9280    0.4500 C   0  0  0  0  0  0  0  0  0  0  0  0
    7.3770    2.3610    1.0000 O   0  0  0  0  0  0  0  0  0  0  0  0
    5.0140    1.7220    1.0150 C   0  0  0  0  0  0  0  0  0  0  0  0
    4.1750    1.2440    0.1420 C   0  0  0  0  0  0  0  0  0  0  0  0
   -2.7100    0.1990    0.8730 C   0  0  0  0  0  0  0  0  0  0  0  0
   -2.3950    1.4290    1.0700 O   0  0  0  0  0  0  0  0  0  0  0  0
   -4.0650   -0.0210    0.5060 N   0  0  0  0  0  0  0  0  0  0  0  0
   -5.0040    1.1000    0.3700 C   0  0  0  0  0  0  0  0  0  0  0  0
   -4.5590    2.0530   -0.6520 C   0  0  0  0  0  0  0  0  0  0  0  0
   -5.3160    3.2140   -0.9500 N   0  0  0  0  0  0  0  0  0  0  0  0
   -3.4950    1.8610   -1.2870 O   0  0  0  0  0  0  0  0  0  0  0  0
  2  1  1  1
  2  3  1  0
  2  6  1  0
  3  4  1  0
  3  5  2  0
  6  7  1  0
  6 21  1  0
  7  8  1  0
  8  9  2  0
  8 10  1  0
 10 11  1  0
 11 12  2  0
 11 20  1  0
 12 13  1  0
 13 14  1  0
 14 15  1  1
 14 16  1  0
 14 20  1  0
 16 17  1  0
 17 18  2  0
 17 19  1  0
 19 20  2  0
 21 22  2  0
 21 23  1  0
 23 24  1  0
 24 25  1  0
 25 26  1  0
 25 27  2  0
M  END
