
     RDKit          3D

 16 17  0  0  0  0  0  0  0  0999 V2000
   -0.7950   -0.2100   -2.4820 O   0  0  0  0  0  0  0  0  0  0  0  0
   -0.5800   -0.5400   -1.3080 C   0  0  0  0  0  0  0  0  0  0  0  0
    0.3620   -1.5380   -0.9990 O   0  0  0  0  0  0  0  0  0  0  0  0
    0.9130   -1.4730    0.3180 C   0  0  1  0  0  0  0  0  0  0  0  0
    2.1160   -2.1280    0.3230 O   0  0  0  0  0  0  0  0  0  0  0  0
    1.0770   -0.0490    0.6860 C   0  0  1  0  0  0  0  0  0  0  0  0
    1.9640    0.6760   -0.2790 C   0  0  0  0  0  0  0  0  0  0  0  0
    3.3640    0.1530   -0.4050 C   0  0  0  0  0  0  0  0  0  0  0  0
    4.0040    1.0350   -1.3310 O   0  0  0  0  0  0  0  0  0  0  0  0
   -0.2810    0.6580    0.7870 C   0  0  2  0  0  0  0  0  0  0  0  0
   -0.7310    0.7170    2.1040 O   0  0  0  0  0  0  0  0  0  0  0  0
   -1.2880    0.0810   -0.1670 C   0  0  1  0  0  0  0  0  0  0  0  0
   -2.1890    1.2200   -0.6450 C   0  0  0  0  0  0  0  0  0  0  0  0
   -3.5660    0.5480   -0.5410 C   0  0  0  0  0  0  0  0  0  0  0  0
   -3.4460   -0.1930    0.6190 O   0  0  0  0  0  0  0  0  0  0  0  0
   -2.2540   -0.8590    0.4570 C   0  0  0  0  0  0  0  0  0  0  0  0
  1  2  2  0
  2  3  1  0
  2 12  1  0
  3  4  1  0
  4  5  1  6
  4  6  1  0
  6  7  1  6
  6 10  1  0
  7  8  1  0
  8  9  1  0
 10 11  1  1
 10 12  1  0
 12 13  1  6
 12 16  1  0
 13 14  1  0
 14 15  1  0
 15 16  1  0
M  END
