
     RDKit          3D

 27 28  0  0  0  0  0  0  0  0999 V2000
    6.2540    1.0960    0.6430 C   0  0  0  0  0  0  0  0  0  0  0  0
    4.8910    0.5380    0.8160 C   0  0  0  0  0  0  0  0  0  0  0  0
    4.1110    0.9850    1.8600 N   0  0  0  0  0  0  0  0  0  0  0  0
    2.9040    0.4880    2.0050 N   0  0  0  0  0  0  0  0  0  0  0  0
    2.3910   -0.4390    1.1840 C   0  0  0  0  0  0  0  0  0  0  0  0
    1.1740   -0.8690    1.4190 N   0  0  0  0  0  0  0  0  0  0  0  0
    0.4270   -0.3610    2.5160 C   0  0  0  0  0  0  0  0  0  0  0  0
   -0.7180    0.2780    2.3680 C   0  0  0  0  0  0  0  0  0  0  0  0
   -1.2430    0.4730    0.9990 C   0  0  0  0  0  0  0  0  0  0  0  0
   -2.3770    1.0960    0.7240 C   0  0  0  0  0  0  0  0  0  0  0  0
   -3.2410    1.6570    1.6380 O   0  0  0  0  0  0  0  0  0  0  0  0
   -2.5840    1.1020   -0.7460 C   0  0  2  0  0  0  0  0  0  0  0  0
   -3.9490    0.5140   -1.0160 C   0  0  1  0  0  0  0  0  0  0  0  0
   -4.2660    0.4700   -2.4930 C   0  0  0  0  0  0  0  0  0  0  0  0
   -4.2320    1.7630   -2.9800 O   0  0  0  0  0  0  0  0  0  0  0  0
   -4.0860   -0.8410   -0.4580 C   0  0  0  0  0  0  0  0  0  0  0  0
   -3.2900   -1.8590   -0.9590 O   0  0  0  0  0  0  0  0  0  0  0  0
   -4.9370   -1.1270    0.5010 C   0  0  0  0  0  0  0  0  0  0  0  0
   -5.7630   -0.1230    1.0360 N   0  0  0  0  0  0  0  0  0  0  0  0
   -1.5010    0.3320   -1.2400 N   0  0  0  0  0  0  0  0  0  0  0  0
   -0.7010    0.0750   -0.1890 O   0  0  0  0  0  0  0  0  0  0  0  0
    3.1200   -0.9220    0.1300 C   0  0  0  0  0  0  0  0  0  0  0  0
    2.6130   -1.8960   -0.7530 N   0  0  0  0  0  0  0  0  0  0  0  0
    4.4190   -0.4020   -0.0460 C   0  0  0  0  0  0  0  0  0  0  0  0
    5.1550   -0.9220   -1.1530 C   0  0  0  0  0  0  0  0  0  0  0  0
    6.4650   -0.5090   -1.4640 N   0  0  0  0  0  0  0  0  0  0  0  0
    4.6540   -1.8110   -1.9380 O   0  0  0  0  0  0  0  0  0  0  0  0
  1  2  1  0
  2  3  2  0
  2 24  1  0
  3  4  1  0
  4  5  1  0
  5  6  2  3
  5 22  1  0
  6  7  1  0
  7  8  2  3
  8  9  1  0
  9 10  2  0
  9 21  1  0
 10 11  1  0
 10 12  1  0
 12 13  1  0
 12 20  1  6
 13 14  1  6
 13 16  1  0
 14 15  1  0
 16 17  1  0
 16 18  2  3
 18 19  1  0
 20 21  1  0
 22 23  1  0
 22 24  2  0
 24 25  1  0
 25 26  1  0
 25 27  2  0
M  END
