
     RDKit          3D

 10  9  0  0  0  0  0  0  0  0999 V2000
    3.6290    0.6690   -1.0320 O   0  0  0  0  0  0  0  0  0  0  0  0
    3.1400    0.3990    0.1030 C   0  0  0  0  0  0  0  0  0  0  0  0
    4.0510    0.3010    1.1540 O   0  0  0  0  0  0  0  0  0  0  0  0
    1.7770    0.2120    0.2880 O   0  0  0  0  0  0  0  0  0  0  0  0
    0.9480    0.3330   -0.8350 C   0  0  0  0  0  0  0  0  0  0  0  0
   -0.5140    0.1030   -0.4860 C   0  0  0  0  0  0  0  0  0  0  0  0
   -0.7410   -1.1350    0.0320 O   0  0  0  0  0  0  0  0  0  0  0  0
   -1.9530   -1.4030    0.3490 O   0  0  0  0  0  0  0  0  0  0  0  0
   -2.7740   -0.4060    0.7720 C   0  0  0  0  0  0  0  0  0  0  0  0
   -3.0120    0.6230   -0.1180 O   0  0  0  0  0  0  0  0  0  0  0  0
  1  2  2  0
  2  3  1  0
  2  4  1  0
  4  5  1  0
  5  6  1  0
  6  7  1  0
  7  8  1  0
  8  9  1  0
  9 10  1  0
M  END
