
     RDKit          3D

 10  9  0  0  0  0  0  0  0  0999 V2000
    1.3710    0.8870    0.0170 O   0  0  0  0  0  0  0  0  0  0  0  0
    1.5100   -0.3590    0.1210 C   0  0  0  0  0  0  0  0  0  0  0  0
    0.4640   -1.3420   -0.2250 C   0  0  0  0  0  0  0  0  0  0  0  0
   -0.7880   -0.6450   -0.7190 C   0  0  0  0  0  0  0  0  0  0  0  0
   -1.4830    0.4900    0.5680 P   0  0  0  0  0  0  0  0  0  0  0  0
   -2.7450   -0.2810    1.4730 O   0  0  0  0  0  0  0  0  0  0  0  0
   -2.1970    1.8860   -0.2160 O   0  0  0  0  0  0  0  0  0  0  0  0
   -1.3290    2.8590   -0.3210 O   0  0  0  0  0  0  0  0  0  0  0  0
    2.7180   -0.8310    0.5900 O   0  0  0  0  0  0  0  0  0  0  0  0
    3.7510   -0.0970    0.9420 O   0  0  0  0  0  0  0  0  0  0  0  0
  1  2  2  0
  2  3  1  0
  2  9  1  0
  3  4  1  0
  4  5  1  0
  5  6  1  0
  5  7  1  0
  7  8  1  0
  9 10  1  0
M  END
