
     RDKit          3D

 10  9  0  0  0  0  0  0  0  0999 V2000
    0.1690    1.3490   -0.1500 O   0  0  0  0  0  0  0  0  0  0  0  0
    0.5540    0.1840   -0.4320 C   0  0  0  0  0  0  0  0  0  0  0  0
   -0.4310   -0.9380   -0.6160 C   0  0  0  0  0  0  0  0  0  0  0  0
   -2.1420   -0.3290   -0.3710 P   0  0  0  0  0  0  0  0  0  0  0  0
   -2.1870    1.4020   -0.3150 O   0  0  0  0  0  0  0  0  0  0  0  0
   -2.8810   -0.9420    1.0710 O   0  0  0  0  0  0  0  0  0  0  0  0
   -3.7890   -1.8350    0.7600 O   0  0  0  0  0  0  0  0  0  0  0  0
    1.9110   -0.0210   -0.5650 O   0  0  0  0  0  0  0  0  0  0  0  0
    2.8900    0.9600   -0.4120 C   0  0  0  0  0  0  0  0  0  0  0  0
    4.1360    0.3700   -0.6220 O   0  0  0  0  0  0  0  0  0  0  0  0
  1  2  2  0
  2  3  1  0
  2  8  1  0
  3  4  1  0
  4  5  1  0
  4  6  1  0
  6  7  1  0
  8  9  1  0
  9 10  1  0
M  END
