
     RDKit          3D

  9  8  0  0  0  0  0  0  0  0999 V2000
    2.5450    1.0700    0.4180 O   0  0  0  0  0  0  0  0  0  0  0  0
    1.9930    0.5120   -0.6330 O   0  0  0  0  0  0  0  0  0  0  0  0
    1.4360   -0.7260   -0.3720 C   0  0  2  0  0  0  0  0  0  0  0  0
    2.0520   -1.7590   -1.0690 O   0  0  0  0  0  0  0  0  0  0  0  0
   -0.0610   -0.6800   -0.6260 C   0  0  0  0  0  0  0  0  0  0  0  0
   -0.6410    0.3670    0.3010 C   0  0  0  0  0  0  0  0  0  0  0  0
   -2.4740    0.5310    0.0960 P   0  0  0  0  0  0  0  0  0  0  0  0
   -3.3190   -0.6590    1.0310 O   0  0  0  0  0  0  0  0  0  0  0  0
   -3.0330    2.0900    0.6190 O   0  0  0  0  0  0  0  0  0  0  0  0
  1  2  1  0
  2  3  1  0
  3  4  1  6
  3  5  1  0
  5  6  1  0
  6  7  1  0
  7  8  1  0
  7  9  1  0
M  END
