
     RDKit          3D

 19 19  0  0  0  0  0  0  0  0999 V2000
   -5.7410    0.1480   -0.0810 C   0  0  0  0  0  0  0  0  0  0  0  0
   -4.3190    0.1420    0.3640 C   0  0  0  0  0  0  0  0  0  0  0  0
   -4.0980    0.4380    1.5800 O   0  0  0  0  0  0  0  0  0  0  0  0
   -3.2570   -0.1800   -0.5270 N   0  0  0  0  0  0  0  0  0  0  0  0
   -1.9080   -0.1600   -0.0060 C   0  0  1  0  0  0  0  0  0  0  0  0
   -1.2800   -1.5180   -0.2000 C   0  0  1  0  0  0  0  0  0  0  0  0
   -1.4790   -1.9950   -1.4950 O   0  0  0  0  0  0  0  0  0  0  0  0
    0.0290   -1.5700    0.1970 O   0  0  0  0  0  0  0  0  0  0  0  0
    0.8490   -0.6400   -0.3830 C   0  0  2  0  0  0  0  0  0  0  0  0
    2.2090   -0.7410    0.3230 C   0  0  0  0  0  0  0  0  0  0  0  0
    3.0120    0.1920   -0.2680 O   0  0  0  0  0  0  0  0  0  0  0  0
    4.5190    0.1140    0.4750 P   0  0  0  0  0  0  0  0  0  0  0  0
    4.2490    1.4980    1.0670 O   0  0  0  0  0  0  0  0  0  0  0  0
    5.8450    0.6890   -0.3380 O   0  0  0  0  0  0  0  0  0  0  0  0
    4.6930   -0.7100    1.8550 O   0  0  0  0  0  0  0  0  0  0  0  0
    0.3260    0.7610   -0.0580 C   0  0  1  0  0  0  0  0  0  0  0  0
    1.1810    1.7510   -0.4560 O   0  0  0  0  0  0  0  0  0  0  0  0
   -1.0350    0.8420   -0.7620 C   0  0  2  0  0  0  0  0  0  0  0  0
   -1.5540    2.1160   -0.7110 O   0  0  0  0  0  0  0  0  0  0  0  0
  1  2  1  0
  2  3  2  0
  2  4  1  0
  5  4  1  6
  5  6  1  0
  5 18  1  0
  6  7  1  6
  6  8  1  0
  8  9  1  0
  9 10  1  1
  9 16  1  0
 10 11  1  0
 11 12  1  0
 12 13  1  0
 12 14  1  0
 12 15  1  0
 16 17  1  6
 16 18  1  0
 18 19  1  1
M  END
