
     RDKit          3D

 25 27  0  0  0  0  0  0  0  0999 V2000
   -2.9580    0.0130    2.7230 C   0  0  0  0  0  0  0  0  0  0  0  0
   -2.8790   -0.4080    1.3580 N   0  0  0  0  0  0  0  0  0  0  0  0
   -3.8590   -1.3470    0.8480 C   0  0  0  0  0  0  0  0  0  0  0  0
   -3.1670   -2.6060    0.3440 C   0  0  0  0  0  0  0  0  0  0  0  0
   -1.6310   -2.4500    0.3850 C   0  0  0  0  0  0  0  0  0  0  0  0
   -1.3220   -1.1850   -0.2470 N   0  0  0  0  0  0  0  0  0  0  0  0
   -1.7960   -0.0180    0.5300 C   0  0  0  0  0  0  0  0  0  0  0  0
   -1.4040    1.1540    0.2190 C   0  0  0  0  0  0  0  0  0  0  0  0
   -2.0960    2.3650    0.6700 C   0  0  0  0  0  0  0  0  0  0  0  0
   -3.1770    2.2790    1.3630 O   0  0  0  0  0  0  0  0  0  0  0  0
   -1.6930    3.7320    0.4200 C   0  0  0  0  0  0  0  0  0  0  0  0
   -2.4500    4.7120    0.9110 C   0  0  0  0  0  0  0  0  0  0  0  0
   -2.1020    5.9940    0.6950 F   0  0  0  0  0  0  0  0  0  0  0  0
   -0.0620    1.3560   -0.3720 C   0  0  0  0  0  0  0  0  0  0  0  0
    0.2340    2.4840   -0.8320 O   0  0  0  0  0  0  0  0  0  0  0  0
    0.9080    0.3600   -0.4340 N   0  0  0  0  0  0  0  0  0  0  0  0
    2.1980    0.4410   -1.0050 C   0  0  0  0  0  0  0  0  0  0  0  0
    2.6980    1.5580   -1.5970 C   0  0  0  0  0  0  0  0  0  0  0  0
    3.9950    1.6080   -2.1600 C   0  0  0  0  0  0  0  0  0  0  0  0
    4.8070    0.5060   -2.1250 C   0  0  0  0  0  0  0  0  0  0  0  0
    4.3010   -0.6480   -1.5180 C   0  0  0  0  0  0  0  0  0  0  0  0
    3.0350   -0.6940   -0.9690 C   0  0  0  0  0  0  0  0  0  0  0  0
    2.8080   -1.8990   -0.4640 C   0  0  0  0  0  0  0  0  0  0  0  0
    4.0130   -2.7320   -0.6860 C   0  0  0  0  0  0  0  0  0  0  0  0
    4.9210   -1.8090   -1.3840 C   0  0  0  0  0  0  0  0  0  0  0  0
  1  2  1  0
  2  3  1  0
  2  7  1  0
  3  4  1  0
  4  5  1  0
  5  6  1  0
  6  7  1  0
  7  8  2  3
  8  9  1  0
  8 14  1  0
  9 10  2  0
  9 11  1  0
 11 12  2  3
 12 13  1  0
 14 15  2  0
 14 16  1  0
 16 17  1  0
 17 18  2  0
 17 22  1  0
 18 19  1  0
 19 20  2  0
 20 21  1  0
 21 22  1  0
 21 25  2  0
 22 23  2  0
 23 24  1  0
 24 25  1  0
M  END
