
     RDKit          3D

 25 27  0  0  0  0  0  0  0  0999 V2000
   -4.1050   -0.9060    3.4620 C   0  0  0  0  0  0  0  0  0  0  0  0
   -4.4450   -0.7730    2.0260 C   0  0  0  0  0  0  0  0  0  0  0  0
   -5.7600   -0.7890    1.6370 C   0  0  0  0  0  0  0  0  0  0  0  0
   -6.1390   -0.6690    0.3150 C   0  0  0  0  0  0  0  0  0  0  0  0
   -7.4390   -0.6830   -0.0840 F   0  0  0  0  0  0  0  0  0  0  0  0
   -5.1880   -0.5300   -0.6600 C   0  0  0  0  0  0  0  0  0  0  0  0
   -3.8730   -0.5100   -0.3070 C   0  0  0  0  0  0  0  0  0  0  0  0
   -3.4860   -0.6310    1.0330 C   0  0  0  0  0  0  0  0  0  0  0  0
   -2.2090   -0.6400    1.6370 N   0  0  0  0  0  0  0  0  0  0  0  0
   -1.0460   -0.3750    1.1160 C   0  0  0  0  0  0  0  0  0  0  0  0
   -0.7510    0.0140   -0.2810 C   0  0  0  0  0  0  0  0  0  0  0  0
    0.3380    0.6950   -0.4970 C   0  0  0  0  0  0  0  0  0  0  0  0
    0.8560    1.2070   -1.7800 C   0  0  0  0  0  0  0  0  0  0  0  0
    2.1470    0.5590   -2.1660 C   0  0  0  0  0  0  0  0  0  0  0  0
    3.2630    0.7440   -1.2450 C   0  0  0  0  0  0  0  0  0  0  0  0
    3.0990    1.4570   -0.2220 O   0  0  0  0  0  0  0  0  0  0  0  0
    4.5470    0.1820   -1.4020 N   0  0  0  0  0  0  0  0  0  0  0  0
    5.6130    0.3840   -0.4850 C   0  0  0  0  0  0  0  0  0  0  0  0
    6.2960   -0.5010    0.2290 C   0  0  0  0  0  0  0  0  0  0  0  0
    7.2990    0.1920    1.0290 C   0  0  0  0  0  0  0  0  0  0  0  0
    7.1290    1.4670    0.7210 C   0  0  0  0  0  0  0  0  0  0  0  0
    6.1770    1.6880   -0.1500 C   0  0  0  0  0  0  0  0  0  0  0  0
   -1.5920   -0.3450   -1.3980 C   0  0  0  0  0  0  0  0  0  0  0  0
   -1.0180   -0.7000   -2.4600 O   0  0  0  0  0  0  0  0  0  0  0  0
   -3.0380   -0.3560   -1.4660 N   0  0  0  0  0  0  0  0  0  0  0  0
  1  2  1  0
  2  3  2  0
  2  8  1  0
  3  4  1  0
  4  5  1  0
  4  6  2  0
  6  7  1  0
  7  8  2  0
  7 25  1  0
  8  9  1  0
  9 10  2  0
 10 11  1  0
 11 12  2  3
 11 23  1  0
 12 13  1  0
 13 14  1  0
 14 15  1  0
 15 16  2  0
 15 17  1  0
 17 18  1  0
 18 19  2  0
 18 22  1  0
 19 20  1  0
 20 21  2  0
 21 22  2  0
 23 24  2  0
 23 25  1  0
M  END
