
     RDKit          3D

 25 27  0  0  0  0  0  0  0  0999 V2000
    2.1410   -0.3140    2.6910 C   0  0  0  0  0  0  0  0  0  0  0  0
    2.1730   -0.3720    1.3700 C   0  0  0  0  0  0  0  0  0  0  0  0
    3.4040    0.0240    0.7020 C   0  0  0  0  0  0  0  0  0  0  0  0
    3.4350   -0.0270   -0.6270 C   0  0  0  0  0  0  0  0  0  0  0  0
    4.6600    0.3680   -1.3060 C   0  0  0  0  0  0  0  0  0  0  0  0
    5.7080    0.7650   -0.6140 C   0  0  0  0  0  0  0  0  0  0  0  0
    5.7270    0.8370    0.8630 C   0  0  0  0  0  0  0  0  0  0  0  0
    4.5000    0.4360    1.3880 O   0  0  0  0  0  0  0  0  0  0  0  0
    1.0170   -0.7840    0.6450 N   0  0  0  0  0  0  0  0  0  0  0  0
    1.0430   -1.9640    0.0020 C   0  0  0  0  0  0  0  0  0  0  0  0
    2.1780   -2.8270    0.0750 N   0  0  0  0  0  0  0  0  0  0  0  0
   -0.0570   -2.3300   -0.7180 N   0  0  0  0  0  0  0  0  0  0  0  0
   -1.1300   -1.5230   -0.7750 C   0  0  0  0  0  0  0  0  0  0  0  0
   -2.3360   -1.9210   -1.5610 C   0  0  0  0  0  0  0  0  0  0  0  0
   -1.1620   -0.3130   -0.1180 C   0  0  0  0  0  0  0  0  0  0  0  0
   -2.3470    0.5220   -0.2240 C   0  0  0  0  0  0  0  0  0  0  0  0
   -3.5040    0.3110    0.4980 C   0  0  0  0  0  0  0  0  0  0  0  0
   -4.6250    1.1030    0.4080 C   0  0  0  0  0  0  0  0  0  0  0  0
   -5.8520    0.8120    1.2260 C   0  0  0  0  0  0  0  0  0  0  0  0
   -4.5920    2.1840   -0.4650 C   0  0  0  0  0  0  0  0  0  0  0  0
   -3.4620    2.4180   -1.1930 C   0  0  0  0  0  0  0  0  0  0  0  0
   -3.4590    3.4850   -2.0400 F   0  0  0  0  0  0  0  0  0  0  0  0
   -2.3480    1.6220   -1.0950 C   0  0  0  0  0  0  0  0  0  0  0  0
   -0.0510    0.0480    0.6060 C   0  0  0  0  0  0  0  0  0  0  0  0
   -0.0410    1.1440    1.2200 O   0  0  0  0  0  0  0  0  0  0  0  0
  1  2  2  0
  2  3  1  0
  2  9  1  0
  3  4  2  0
  3  8  1  0
  4  5  1  0
  5  6  2  0
  6  7  1  0
  7  8  1  0
  9 10  1  0
  9 24  1  0
 10 11  1  0
 10 12  2  0
 12 13  1  0
 13 14  1  0
 13 15  2  0
 15 16  1  0
 15 24  1  0
 16 17  2  0
 16 23  1  0
 17 18  1  0
 18 19  1  0
 18 20  2  0
 20 21  1  0
 21 22  1  0
 21 23  2  0
 24 25  2  0
M  END
