
     RDKit          3D

 13 14  0  0  0  0  0  0  0  0999 V2000
    4.7360    2.0560    0.3430 O   0  0  0  0  0  0  0  0  0  0  0  0
    4.9920    0.5440    0.2050 S   0  0  0  0  0  0  0  0  0  0  0  0
    3.9850   -0.0500   -1.5780 S   0  0  0  0  0  0  0  0  0  0  0  0
    2.3370   -0.2190   -0.9380 C   0  0  0  0  0  0  0  0  0  0  0  0
    2.1410   -0.3750    0.3240 C   0  0  0  0  0  0  0  0  0  0  0  0
    0.7290   -0.5230    0.8910 C   0  0  0  0  0  0  0  0  0  0  0  0
   -0.2940   -0.4710   -0.0870 N   0  0  1  0  0  0  0  0  0  0  0  0
   -1.4880   -1.1460    0.4690 C   0  0  0  0  0  0  0  0  0  0  0  0
   -2.5320   -0.7320   -0.5570 C   0  0  0  0  0  0  0  0  0  0  0  0
   -2.2330    0.7680   -0.6510 C   0  0  1  0  0  0  0  0  0  0  0  0
   -3.0130    1.3710    0.3470 O   0  0  0  0  0  0  0  0  0  0  0  0
   -0.7700    0.8760   -0.3440 C   0  0  0  0  0  0  0  0  0  0  0  0
    3.5260   -0.4220    1.4360 S   0  0  0  0  0  0  0  0  0  0  0  0
  1  2  2  0
  2  3  1  6
  2 13  1  0
  3  4  1  0
  4  5  2  0
  5  6  1  0
  5 13  1  0
  7  6  1  1
  7  8  1  0
  7 12  1  0
  8  9  1  0
  9 10  1  0
 10 11  1  1
 10 12  1  0
M  CHG  1   7   1
M  END
