
     RDKit          3D

 25 27  0  0  0  0  0  0  0  0999 V2000
    6.2770    0.7660   -1.2680 C   0  0  0  0  0  0  0  0  0  0  0  0
    5.3760    1.5920   -0.6370 N   0  0  0  0  0  0  0  0  0  0  0  0
    4.2670    1.7130   -0.1590 C   0  0  0  0  0  0  0  0  0  0  0  0
    3.2460    0.6530   -0.1110 C   0  0  0  0  0  0  0  0  0  0  0  0
    3.4330   -0.6100   -0.6070 C   0  0  0  0  0  0  0  0  0  0  0  0
    2.4900   -1.5820   -0.5610 N   0  0  0  0  0  0  0  0  0  0  0  0
    1.3020   -1.3520   -0.0160 C   0  0  0  0  0  0  0  0  0  0  0  0
    1.0760   -0.0930    0.4940 C   0  0  0  0  0  0  0  0  0  0  0  0
    2.0080    0.9100    0.4620 C   0  0  0  0  0  0  0  0  0  0  0  0
    1.7860    2.0490    0.9310 O   0  0  0  0  0  0  0  0  0  0  0  0
   -0.2120    0.3250    1.1420 C   0  0  1  0  0  0  0  0  0  0  0  0
   -1.1660    0.6160    0.0440 C   0  0  0  0  0  0  0  0  0  0  0  0
   -0.7370    0.9170   -1.2260 C   0  0  0  0  0  0  0  0  0  0  0  0
   -1.6520    1.1930   -2.2030 C   0  0  0  0  0  0  0  0  0  0  0  0
   -1.2630    1.5000   -3.4900 F   0  0  0  0  0  0  0  0  0  0  0  0
   -3.0190    1.1870   -1.9840 C   0  0  0  0  0  0  0  0  0  0  0  0
   -3.4130    0.8810   -0.7000 C   0  0  0  0  0  0  0  0  0  0  0  0
   -4.7940    0.8630   -0.4310 O   0  0  0  0  0  0  0  0  0  0  0  0
   -5.7370    1.1480   -1.4390 C   0  0  0  0  0  0  0  0  0  0  0  0
   -2.5120    0.5990    0.3070 C   0  0  0  0  0  0  0  0  0  0  0  0
   -0.5960   -0.7110    2.1090 C   0  0  1  0  0  0  0  0  0  0  0  0
   -1.3640   -0.0670    3.2450 C   0  0  0  0  0  0  0  0  0  0  0  0
   -1.2360   -1.9590    1.6620 C   0  0  0  0  0  0  0  0  0  0  0  0
   -0.9780   -2.4500    0.2910 C   0  0  0  0  0  0  0  0  0  0  0  0
    0.4280   -2.5030   -0.0560 N   0  0  0  0  0  0  0  0  0  0  0  0
  1  2  1  0
  2  3  2  3
  3  4  1  0
  4  5  2  0
  4  9  1  0
  5  6  1  0
  6  7  1  0
  7  8  2  0
  7 25  1  0
  8  9  1  0
  8 11  1  0
  9 10  2  0
 11 12  1  6
 11 21  1  0
 12 13  2  0
 12 20  1  0
 13 14  1  0
 14 15  1  0
 14 16  2  0
 16 17  1  0
 17 18  1  0
 17 20  2  0
 18 19  1  0
 21 22  1  1
 21 23  1  0
 23 24  1  0
 24 25  1  0
M  END
