
     RDKit          3D

 24 26  0  0  0  0  0  0  0  0999 V2000
   -4.0020   -1.3540   -1.2090 C   0  0  0  0  0  0  0  0  0  0  0  0
   -3.2740   -0.2150   -1.8730 C   0  0  0  0  0  0  0  0  0  0  0  0
   -2.2210    0.3950   -1.1180 C   0  0  0  0  0  0  0  0  0  0  0  0
   -2.6820    1.3040   -0.2840 O   0  0  0  0  0  0  0  0  0  0  0  0
   -0.7940    0.2550   -1.0510 C   0  0  0  0  0  0  0  0  0  0  0  0
   -0.1340   -0.5730   -1.8290 C   0  0  0  0  0  0  0  0  0  0  0  0
   -0.7760   -1.4490   -2.8390 C   0  0  0  0  0  0  0  0  0  0  0  0
    1.3180   -0.6170   -1.8060 N   0  0  0  0  0  0  0  0  0  0  0  0
    2.0740    0.2170   -0.9500 C   0  0  0  0  0  0  0  0  0  0  0  0
    3.5430    0.1250   -0.9870 C   0  0  0  0  0  0  0  0  0  0  0  0
    3.9110   -1.3000   -0.6280 C   0  0  0  0  0  0  0  0  0  0  0  0
    5.3880   -1.3890   -0.6570 C   0  0  0  0  0  0  0  0  0  0  0  0
    6.5270   -1.4390   -0.6720 N   0  0  0  0  0  0  0  0  0  0  0  0
    1.3910    1.0290   -0.1710 C   0  0  0  0  0  0  0  0  0  0  0  0
    2.1660    1.8960    0.7120 C   0  0  0  0  0  0  0  0  0  0  0  0
    1.6570    2.1650    1.8960 N   0  0  0  0  0  0  0  0  0  0  0  0
    0.3800    1.6140    2.2340 C   0  0  0  0  0  0  0  0  0  0  0  0
    0.0750    1.6710    3.5880 C   0  0  0  0  0  0  0  0  0  0  0  0
   -0.9920    0.9270    4.0850 C   0  0  0  0  0  0  0  0  0  0  0  0
   -1.2990    0.9860    5.4500 O   0  0  0  0  0  0  0  0  0  0  0  0
   -1.7250    0.1530    3.2450 C   0  0  0  0  0  0  0  0  0  0  0  0
   -1.3950    0.1230    1.8950 C   0  0  0  0  0  0  0  0  0  0  0  0
   -0.3750    0.8300    1.3680 C   0  0  0  0  0  0  0  0  0  0  0  0
   -0.0560    1.0540   -0.0620 C   0  0  2  0  0  0  0  0  0  0  0  0
  1  2  1  0
  2  3  1  0
  3  4  2  0
  3  5  1  0
  5  6  2  0
 24  5  1  6
  6  7  1  0
  6  8  1  0
  8  9  1  0
  9 10  1  0
  9 14  2  0
 10 11  1  0
 11 12  1  0
 12 13  3  0
 14 15  1  0
 14 24  1  0
 15 16  2  0
 16 17  1  0
 17 18  2  0
 17 23  1  0
 18 19  1  0
 19 20  1  0
 19 21  2  0
 21 22  1  0
 22 23  2  0
 23 24  1  0
M  END
