
     RDKit          3D

 13 14  0  0  0  0  0  0  0  0999 V2000
   -2.0840    0.4310    1.1790 C   0  0  0  0  0  0  0  0  0  0  0  0
   -1.1410    0.2080   -0.0270 C   0  0  2  0  0  0  0  0  0  0  0  0
   -1.9720   -0.6250   -0.9900 C   0  0  0  0  0  0  0  0  0  0  0  0
   -2.0950   -1.9180   -0.1760 C   0  0  0  0  0  0  0  0  0  0  0  0
   -1.0000   -2.0050    0.5990 C   0  0  0  0  0  0  0  0  0  0  0  0
   -0.1310   -0.8150    0.3360 C   0  0  0  0  0  0  0  0  0  0  0  0
    1.1300   -0.7350    0.3160 N   0  0  0  0  0  0  0  0  0  0  0  0
    1.9040    0.3420   -0.0700 N   0  0  0  0  0  0  0  0  0  0  0  0
    3.3360    0.3950   -0.0700 C   0  0  0  0  0  0  0  0  0  0  0  0
    3.9140    0.1910    1.2400 N   0  0  0  0  0  0  0  0  0  0  0  0
    0.9450    1.7690   -0.6080 P   0  0  0  0  0  0  0  0  0  0  0  0
   -0.7160    1.4680   -0.5070 C   0  0  0  0  0  0  0  0  0  0  0  0
   -1.6530    2.4210   -0.8820 O   0  0  0  0  0  0  0  0  0  0  0  0
  2  1  1  1
  2  3  1  0
  2  6  1  0
  2 12  1  0
  3  4  1  0
  4  5  2  0
  5  6  1  0
  6  7  2  0
  7  8  1  0
  8  9  1  0
  8 11  1  0
  9 10  1  0
 11 12  2  0
 12 13  1  0
M  END
