
     RDKit          3D

 13 14  0  0  0  0  0  0  0  0999 V2000
    3.3030   -0.1320    0.8470 C   0  0  0  0  0  0  0  0  0  0  0  0
    2.8120    0.2240   -0.5800 C   0  0  0  0  0  0  0  0  0  0  0  0
    1.5220    0.7010   -0.4390 O   0  0  0  0  0  0  0  0  0  0  0  0
    0.5580   -0.1940   -0.7780 N   0  0  0  0  0  0  0  0  0  0  0  0
    0.7790   -1.3210   -1.4760 N   0  0  0  0  0  0  0  0  0  0  0  0
   -0.2090   -2.2470   -1.4050 O   0  0  0  0  0  0  0  0  0  0  0  0
   -0.9120   -2.3040   -0.2240 C   0  0  0  0  0  0  0  0  0  0  0  0
   -1.5600   -1.0270   -0.0600 N   0  0  0  0  0  0  0  0  0  0  0  0
   -2.8750   -0.4810    0.1520 C   0  0  0  0  0  0  0  0  0  0  0  0
   -2.5810    0.7930    0.8480 C   0  0  0  0  0  0  0  0  0  0  0  0
   -1.2720    1.2180    0.2190 C   0  0  0  0  0  0  0  0  0  0  0  0
   -0.7460    2.5650    0.0050 C   0  0  0  0  0  0  0  0  0  0  0  0
   -0.7060    0.1090   -0.1540 C   0  0  0  0  0  0  0  0  0  0  0  0
  1  2  1  0
  2  3  1  0
  3  4  1  0
  4  5  1  0
  4 13  1  0
  5  6  1  0
  6  7  1  0
  7  8  1  0
  8  9  1  0
  8 13  1  0
  9 10  1  0
 10 11  1  0
 11 12  1  0
 11 13  2  0
M  END
