
     RDKit          3D

 28 30  0  0  0  0  0  0  0  0999 V2000
   -6.4590    2.1660   -0.5590 N   0  0  0  0  0  0  0  0  0  0  0  0
   -5.7850    0.9610   -0.1800 C   0  0  0  0  0  0  0  0  0  0  0  0
   -4.5010    0.8500   -0.4590 N   0  0  0  0  0  0  0  0  0  0  0  0
   -3.8190   -0.2610   -0.0970 C   0  0  0  0  0  0  0  0  0  0  0  0
   -4.5180   -1.2660    0.5720 C   0  0  0  0  0  0  0  0  0  0  0  0
   -3.6450   -2.2260    0.8130 N   0  0  0  0  0  0  0  0  0  0  0  0
   -2.4390   -1.8690    0.3280 C   0  0  0  0  0  0  0  0  0  0  0  0
   -2.5640   -0.6690   -0.2200 N   0  0  0  0  0  0  0  0  0  0  0  0
   -1.4760    0.0560   -0.8200 C   0  0  2  0  0  0  0  0  0  0  0  0
   -0.3900   -0.7460   -0.9460 O   0  0  0  0  0  0  0  0  0  0  0  0
    0.6580   -0.2940   -0.1480 C   0  0  2  0  0  0  0  0  0  0  0  0
    1.4270   -1.4080    0.4320 C   0  0  0  0  0  0  0  0  0  0  0  0
    2.6260   -0.9170    1.0350 O   0  0  0  0  0  0  0  0  0  0  0  0
    3.8010   -1.5880   -0.0930 P   0  0  0  0  0  0  0  0  0  0  0  0
    5.0360   -2.2730    0.5740 O   0  0  0  0  0  0  0  0  0  0  0  0
    2.9900   -2.4790   -1.2350 O   0  0  0  0  0  0  0  0  0  0  0  0
    4.6030   -0.2320   -0.7280 O   0  0  0  0  0  0  0  0  0  0  0  0
    5.5700    0.7870    0.0070 P   0  0  0  0  0  0  0  0  0  0  0  0
    6.5960    0.4800   -1.1380 O   0  0  0  0  0  0  0  0  0  0  0  0
    6.2520    0.3030    1.4300 O   0  0  0  0  0  0  0  0  0  0  0  0
    5.2500    2.4130   -0.1030 O   0  0  0  0  0  0  0  0  0  0  0  0
    0.1060    0.7080    0.8000 C   0  0  1  0  0  0  0  0  0  0  0  0
    1.0390    1.7620    1.0250 O   0  0  0  0  0  0  0  0  0  0  0  0
   -1.0050    1.2830   -0.1240 C   0  0  1  0  0  0  0  0  0  0  0  0
   -0.3400    2.0810   -1.0840 O   0  0  0  0  0  0  0  0  0  0  0  0
   -5.8990   -1.1030    0.8510 C   0  0  0  0  0  0  0  0  0  0  0  0
   -6.4930   -2.0150    1.4310 O   0  0  0  0  0  0  0  0  0  0  0  0
   -6.4670    0.0140    0.4600 N   0  0  0  0  0  0  0  0  0  0  0  0
  1  2  1  0
  2  3  1  0
  2 28  2  0
  3  4  1  0
  4  5  2  0
  4  8  1  0
  5  6  1  0
  5 26  1  0
  6  7  2  0
  7  8  1  0
  9  8  1  1
  9 10  1  0
  9 24  1  0
 10 11  1  0
 11 12  1  1
 11 22  1  0
 12 13  1  0
 13 14  1  0
 14 15  1  0
 14 16  1  0
 14 17  1  0
 17 18  1  0
 18 19  1  0
 18 20  1  0
 18 21  1  0
 22 23  1  6
 22 24  1  0
 24 25  1  6
 26 27  2  0
 26 28  1  0
M  CHG  1  28   1
M  END
