
     RDKit          3D

 13 13  0  0  0  0  0  0  0  0999 V2000
    4.5410    1.1940   -0.4030 C   0  0  0  0  0  0  0  0  0  0  0  0
    3.9360    0.2110    0.1730 N   0  0  0  0  0  0  0  0  0  0  0  0
    2.5670    0.0340    0.0980 C   0  0  0  0  0  0  0  0  0  0  0  0
    1.9190   -0.4570    1.0610 N   0  0  0  0  0  0  0  0  0  0  0  0
    0.6200   -0.6760    1.1130 O   0  0  0  0  0  0  0  0  0  0  0  0
   -0.3070   -0.4120    0.1260 C   0  0  0  0  0  0  0  0  0  0  0  0
   -1.7370   -0.7280    0.3690 C   0  0  0  0  0  0  0  0  0  0  0  0
   -2.0650   -1.2490    1.5210 C   0  0  0  0  0  0  0  0  0  0  0  0
   -2.7360   -0.4870   -0.5900 N   0  0  0  0  0  0  0  0  0  0  0  0
   -3.4900    0.7720   -0.6280 C   0  0  0  0  0  0  0  0  0  0  0  0
   -0.0540    0.1100   -1.0570 C   0  0  0  0  0  0  0  0  0  0  0  0
    1.6880    0.5230   -1.4220 P   0  0  0  0  0  0  0  0  0  0  0  0
    2.2800   -0.2510   -2.8220 O   0  0  0  0  0  0  0  0  0  0  0  0
  1  2  2  0
  2  3  1  0
  3  4  2  0
  3 12  1  0
  4  5  1  0
  5  6  1  0
  6  7  1  0
  6 11  2  0
  7  8  2  0
  7  9  1  0
  9 10  1  0
 11 12  1  0
 12 13  1  0
M  END
