
     RDKit          3D

 13 13  0  0  0  0  0  0  0  0999 V2000
    0.5680    0.4220   -2.0330 C   0  0  0  0  0  0  0  0  0  0  0  0
    0.6830    0.0270   -0.7990 C   0  0  0  0  0  0  0  0  0  0  0  0
    1.9430   -0.3960   -0.3100 N   0  0  0  0  0  0  0  0  0  0  0  0
    2.8420    0.5080   -0.0550 C   0  0  0  0  0  0  0  0  0  0  0  0
    4.1760    0.1280    0.4580 C   0  0  0  0  0  0  0  0  0  0  0  0
   -0.4870   -0.0140    0.1020 C   0  0  0  0  0  0  0  0  0  0  0  0
   -0.2400    0.4410    1.3630 N   0  0  0  0  0  0  0  0  0  0  0  0
   -1.0700    0.5020    2.3390 O   0  0  0  0  0  0  0  0  0  0  0  0
   -2.6250   -0.0290    2.0480 P   0  0  0  0  0  0  0  0  0  0  0  0
   -4.0070    0.3160    3.0420 O   0  0  0  0  0  0  0  0  0  0  0  0
   -2.8160   -0.5710    0.4510 N   0  0  0  0  0  0  0  0  0  0  0  0
   -1.7040   -0.4900   -0.3200 C   0  0  0  0  0  0  0  0  0  0  0  0
   -1.8960   -1.0200   -1.7190 C   0  0  0  0  0  0  0  0  0  0  0  0
  1  2  2  0
  2  3  1  0
  2  6  1  0
  3  4  2  3
  4  5  1  0
  6  7  1  0
  6 12  2  0
  7  8  1  0
  8  9  1  0
  9 10  1  0
  9 11  1  0
 11 12  1  0
 12 13  1  0
M  END
