
     RDKit          3D

 35 36  0  0  0  0  0  0  0  0999 V2000
    9.2290   -0.3870   -1.9120 C   0  0  0  0  0  0  0  0  0  0  0  0
    7.9040    0.1110   -1.4250 C   0  0  0  0  0  0  0  0  0  0  0  0
    7.3200   -0.7450   -0.4930 O   0  0  0  0  0  0  0  0  0  0  0  0
    5.8010   -0.1460    0.0470 P   0  0  0  0  0  0  0  0  0  0  0  0
    5.9590    0.2960    1.8440 C   0  0  0  0  0  0  0  0  0  0  0  0
    4.7210    0.3290    2.4280 O   0  0  0  0  0  0  0  0  0  0  0  0
    3.7960   -0.5610    1.9560 C   0  0  1  0  0  0  0  0  0  0  0  0
    2.8060    0.0350    1.0410 C   0  0  0  0  0  0  0  0  0  0  0  0
    2.8520    1.2560    0.7550 O   0  0  0  0  0  0  0  0  0  0  0  0
    1.7960   -0.7180    0.4680 O   0  0  0  0  0  0  0  0  0  0  0  0
    0.8240   -0.1840   -0.4150 C   0  0  2  0  0  0  0  0  0  0  0  0
    1.4540    0.4000   -1.6260 C   0  0  0  0  0  0  0  0  0  0  0  0
    0.8190    0.9310   -2.5470 O   0  0  0  0  0  0  0  0  0  0  0  0
    2.8370    0.3530   -1.7410 O   0  0  0  0  0  0  0  0  0  0  0  0
   -0.0370    0.7650    0.3420 C   0  0  0  0  0  0  0  0  0  0  0  0
   -1.2690    1.2130   -0.3970 C   0  0  0  0  0  0  0  0  0  0  0  0
   -2.0610    0.0630   -0.9600 C   0  0  2  0  0  0  0  0  0  0  0  0
   -2.3780    0.3950   -2.4040 C   0  0  0  0  0  0  0  0  0  0  0  0
   -3.3190   -0.1190   -0.1690 C   0  0  0  0  0  0  0  0  0  0  0  0
   -3.5970   -1.2240    0.3760 O   0  0  0  0  0  0  0  0  0  0  0  0
   -4.2420    0.9050    0.0080 O   0  0  0  0  0  0  0  0  0  0  0  0
   -5.4170    0.6980    0.7590 C   0  0  0  0  0  0  0  0  0  0  0  0
   -5.5970   -0.4380    1.2590 O   0  0  0  0  0  0  0  0  0  0  0  0
   -6.3520    1.6580    0.9650 O   0  0  0  0  0  0  0  0  0  0  0  0
   -7.5530    1.5810    1.6790 C   0  0  0  0  0  0  0  0  0  0  0  0
   -8.5590    0.6010    1.1430 C   0  0  0  0  0  0  0  0  0  0  0  0
   -8.1320   -0.7260    1.1060 O   0  0  0  0  0  0  0  0  0  0  0  0
   -8.9330   -1.7470    0.6420 C   0  0  0  0  0  0  0  0  0  0  0  0
  -10.0910   -1.4350    0.2440 O   0  0  0  0  0  0  0  0  0  0  0  0
   -8.4910   -3.0650    0.6120 O   0  0  0  0  0  0  0  0  0  0  0  0
   -1.3600   -1.1500   -0.9460 O   0  0  0  0  0  0  0  0  0  0  0  0
   -0.0130   -1.3330   -0.8490 C   0  0  0  0  0  0  0  0  0  0  0  0
    0.4870   -2.4580   -1.1260 O   0  0  0  0  0  0  0  0  0  0  0  0
    4.3670   -1.7900    1.2990 C   0  0  0  0  0  0  0  0  0  0  0  0
    4.6660   -1.4850   -0.0320 O   0  0  0  0  0  0  0  0  0  0  0  0
  1  2  1  0
  2  3  1  0
  3  4  1  0
  4  5  1  0
  4 35  1  0
  5  6  1  0
  6  7  1  0
  7  8  1  6
  7 34  1  0
  8  9  2  0
  8 10  1  0
 11 10  1  1
 11 12  1  0
 11 15  1  0
 11 32  1  0
 12 13  2  0
 12 14  1  0
 15 16  1  0
 16 17  1  0
 17 18  1  6
 17 19  1  0
 17 31  1  0
 19 20  2  0
 19 21  1  0
 21 22  1  0
 22 23  2  0
 22 24  1  0
 24 25  1  0
 25 26  1  0
 26 27  1  0
 27 28  1  0
 28 29  2  0
 28 30  1  0
 31 32  1  0
 32 33  2  0
 34 35  1  0
M  END
