
     RDKit          3D

 35 35  0  0  0  0  0  0  0  0999 V2000
    5.8280    3.7180   -0.0770 C   0  0  0  0  0  0  0  0  0  0  0  0
    5.1380    2.5730    0.6140 C   0  0  0  0  0  0  0  0  0  0  0  0
    5.0920    1.4730   -0.2040 O   0  0  0  0  0  0  0  0  0  0  0  0
    4.3480    0.1050    0.4280 P   0  0  0  0  0  0  0  0  0  0  0  0
    2.5330    0.0620    0.4040 C   0  0  0  0  0  0  0  0  0  0  0  0
    2.0740   -0.7880   -0.7440 C   0  0  0  0  0  0  0  0  0  0  0  0
    0.6950   -0.8980   -0.8680 O   0  0  0  0  0  0  0  0  0  0  0  0
   -0.1560    0.1500   -1.0630 C   0  0  0  0  0  0  0  0  0  0  0  0
    0.3590    1.3080   -1.1360 O   0  0  0  0  0  0  0  0  0  0  0  0
   -1.6180    0.0730   -1.1990 C   0  0  0  0  0  0  0  0  0  0  0  0
   -2.1810   -1.2990   -1.1080 C   0  0  2  0  0  0  0  0  0  0  0  0
   -1.7230   -2.1970   -2.0660 O   0  0  0  0  0  0  0  0  0  0  0  0
   -1.0220   -3.3650   -1.8070 C   0  0  0  0  0  0  0  0  0  0  0  0
   -0.8020   -3.5970   -0.5940 O   0  0  0  0  0  0  0  0  0  0  0  0
   -0.5930   -4.2180   -2.8150 O   0  0  0  0  0  0  0  0  0  0  0  0
   -3.6850   -1.1930   -1.0340 C   0  0  2  0  0  0  0  0  0  0  0  0
   -3.9910   -0.2500   -0.0210 O   0  0  0  0  0  0  0  0  0  0  0  0
   -4.7370    0.8880   -0.2440 C   0  0  0  0  0  0  0  0  0  0  0  0
   -5.1740    1.1080   -1.4040 O   0  0  0  0  0  0  0  0  0  0  0  0
   -5.0560    1.8740    0.8180 C   0  0  1  0  0  0  0  0  0  0  0  0
   -3.8060    2.5480    1.3480 C   0  0  0  0  0  0  0  0  0  0  0  0
   -4.3500    3.8690    1.7940 C   0  0  0  0  0  0  0  0  0  0  0  0
   -3.8730    4.6510    2.6500 O   0  0  0  0  0  0  0  0  0  0  0  0
   -5.5630    4.1020    1.0460 C   0  0  0  0  0  0  0  0  0  0  0  0
   -6.2340    5.1560    1.0680 O   0  0  0  0  0  0  0  0  0  0  0  0
   -5.8330    2.9370    0.3040 O   0  0  0  0  0  0  0  0  0  0  0  0
   -4.2350   -2.5120   -0.6460 C   0  0  0  0  0  0  0  0  0  0  0  0
   -4.0560   -3.4710   -1.4330 O   0  0  0  0  0  0  0  0  0  0  0  0
   -4.9230   -2.6750    0.5460 O   0  0  0  0  0  0  0  0  0  0  0  0
   -5.4190   -3.9530    0.8540 C   0  0  0  0  0  0  0  0  0  0  0  0
    5.1710   -1.3380    0.4390 O   0  0  0  0  0  0  0  0  0  0  0  0
    6.1510   -1.5010    1.3920 C   0  0  0  0  0  0  0  0  0  0  0  0
    7.1210   -0.4950    1.1990 O   0  0  0  0  0  0  0  0  0  0  0  0
    7.7840   -0.4450   -0.0120 C   0  0  0  0  0  0  0  0  0  0  0  0
    7.4980   -1.2930   -0.8910 O   0  0  0  0  0  0  0  0  0  0  0  0
  1  2  1  0
  2  3  1  0
  3  4  1  0
  4  5  1  0
  4 31  1  0
  5  6  1  0
  6  7  1  0
  7  8  1  0
  8  9  2  0
  8 10  1  0
 11 10  1  6
 11 12  1  0
 11 16  1  0
 12 13  1  0
 13 14  2  0
 13 15  1  0
 16 17  1  1
 16 27  1  0
 17 18  1  0
 18 19  2  0
 20 18  1  6
 20 21  1  0
 20 26  1  0
 21 22  1  0
 22 23  2  0
 22 24  1  0
 24 25  2  0
 24 26  1  0
 27 28  2  0
 27 29  1  0
 29 30  1  0
 31 32  1  0
 32 33  1  0
 33 34  1  0
 34 35  2  0
M  END
