
     RDKit          3D

 34 35  0  0  0  0  0  0  0  0999 V2000
   -5.6470   -1.8040    1.2970 C   0  0  0  0  0  0  0  0  0  0  0  0
   -4.2790   -1.5950    1.1570 O   0  0  0  0  0  0  0  0  0  0  0  0
   -3.8640   -1.9190   -0.1370 C   0  0  0  0  0  0  0  0  0  0  0  0
   -2.3660   -1.6660   -0.2170 C   0  0  0  0  0  0  0  0  0  0  0  0
   -1.9810   -0.3180    0.0420 N   0  0  0  0  0  0  0  0  0  0  0  0
   -1.2910   -0.1580    1.3340 C   0  0  0  0  0  0  0  0  0  0  0  0
   -0.0690   -0.1880    1.5250 N   0  0  0  0  0  0  0  0  0  0  0  0
    0.9780   -0.3900    0.5190 C   0  0  0  0  0  0  0  0  0  0  0  0
    1.4190    0.6780   -0.0100 C   0  0  0  0  0  0  0  0  0  0  0  0
    2.4350    1.0010   -1.0210 C   0  0  0  0  0  0  0  0  0  0  0  0
    2.6010    2.2720   -1.3860 C   0  0  0  0  0  0  0  0  0  0  0  0
    3.4910    2.9070   -2.3360 C   0  0  1  0  0  0  0  0  0  0  0  0
    4.2110    3.9540   -1.6910 O   0  0  0  0  0  0  0  0  0  0  0  0
    4.3570    2.1500   -3.0620 O   0  0  0  0  0  0  0  0  0  0  0  0
    4.9470    0.9180   -1.9740 P   0  0  0  0  0  0  0  0  0  0  0  0
    5.2980    1.7700   -0.4770 O   0  0  0  0  0  0  0  0  0  0  0  0
    5.8520    0.9570    0.4790 C   0  0  0  0  0  0  0  0  0  0  0  0
    3.3320   -0.0300   -1.5760 C   0  0  0  0  0  0  0  0  0  0  0  0
    1.2970   -1.8090    0.2880 C   0  0  1  0  0  0  0  0  0  0  0  0
    1.5240   -2.1470   -1.1200 N   0  0  0  0  0  0  0  0  0  0  0  0
    2.2930   -2.3640    1.1040 N   0  0  0  0  0  0  0  0  0  0  0  0
    2.1180   -2.4400    2.4980 C   0  0  0  0  0  0  0  0  0  0  0  0
    1.0780   -3.4080    2.9960 C   0  0  0  0  0  0  0  0  0  0  0  0
   -0.1920   -3.1530    2.5550 O   0  0  0  0  0  0  0  0  0  0  0  0
   -2.1220    0.8740   -0.6830 C   0  0  1  0  0  0  0  0  0  0  0  0
   -3.2850    1.1710   -1.5290 C   0  0  0  0  0  0  0  0  0  0  0  0
   -3.5280    0.3170   -2.7000 C   0  0  0  0  0  0  0  0  0  0  0  0
   -2.7130   -0.5650   -3.0180 O   0  0  0  0  0  0  0  0  0  0  0  0
   -4.6560    0.4400   -3.5040 O   0  0  0  0  0  0  0  0  0  0  0  0
   -1.9590    2.0780    0.2450 C   0  0  0  0  0  0  0  0  0  0  0  0
   -1.3390    3.2660   -0.0650 C   0  0  0  0  0  0  0  0  0  0  0  0
   -1.4170    4.0660    1.0470 C   0  0  0  0  0  0  0  0  0  0  0  0
   -2.0880    3.3270    2.0010 C   0  0  0  0  0  0  0  0  0  0  0  0
   -2.3780    2.1720    1.4670 O   0  0  0  0  0  0  0  0  0  0  0  0
  1  2  1  0
  2  3  1  0
  3  4  1  0
  4  5  1  0
  5  6  1  0
  5 25  1  0
  6  7  2  3
  7  8  1  0
  8  9  2  3
  8 19  1  0
  9 10  1  0
 10 11  2  0
 10 18  1  0
 11 12  1  0
 12 13  1  1
 12 14  1  0
 14 15  1  0
 15 16  1  0
 15 18  1  0
 16 17  1  0
 19 20  1  6
 19 21  1  0
 21 22  1  0
 22 23  1  0
 23 24  1  0
 25 26  1  1
 25 30  1  0
 26 27  1  0
 27 28  2  0
 27 29  1  0
 30 31  2  0
 30 34  1  0
 31 32  1  0
 32 33  2  0
 33 34  1  0
M  END
