
     RDKit          3D

 35 37  0  0  0  0  0  0  0  0999 V2000
   -5.9030    2.3810    2.1300 C   0  0  0  0  0  0  0  0  0  0  0  0
   -5.0200    2.2910    0.9530 C   0  0  0  0  0  0  0  0  0  0  0  0
   -5.5310    2.3250   -0.1500 O   0  0  0  0  0  0  0  0  0  0  0  0
   -3.5590    2.1600    1.0770 C   0  0  0  0  0  0  0  0  0  0  0  0
   -2.9790    0.9380    0.4150 C   0  0  1  0  0  0  0  0  0  0  0  0
   -3.2110    0.8450   -1.0490 C   0  0  0  0  0  0  0  0  0  0  0  0
   -2.5800   -0.4270   -1.6030 C   0  0  0  0  0  0  0  0  0  0  0  0
   -2.8620   -0.5680   -3.4380 P   0  0  0  0  0  0  0  0  0  0  0  0
   -2.7910   -2.2530   -3.9270 O   0  0  0  0  0  0  0  0  0  0  0  0
   -4.4320    0.0100   -3.8920 O   0  0  0  0  0  0  0  0  0  0  0  0
   -5.3030   -0.7140   -3.1910 O   0  0  0  0  0  0  0  0  0  0  0  0
   -1.6210    0.8610    0.7970 O   0  0  0  0  0  0  0  0  0  0  0  0
   -1.0870   -0.1020    1.5980 C   0  0  0  0  0  0  0  0  0  0  0  0
   -1.8950   -0.9990    2.0260 O   0  0  0  0  0  0  0  0  0  0  0  0
    0.3020   -0.2510    2.0410 C   0  0  2  0  0  0  0  0  0  0  0  0
    1.1510    0.7710    1.5510 O   0  0  0  0  0  0  0  0  0  0  0  0
    2.4480    0.2660    1.7690 C   0  0  0  0  0  0  0  0  0  0  0  0
    3.5170    0.9270    1.8700 O   0  0  0  0  0  0  0  0  0  0  0  0
    2.2680   -1.1920    1.8500 C   0  0  2  0  0  0  0  0  0  0  0  0
    0.9370   -1.3920    1.5130 O   0  0  0  0  0  0  0  0  0  0  0  0
    2.5230   -1.7670    3.1710 C   0  0  0  0  0  0  0  0  0  0  0  0
    2.3740   -1.2320    4.3270 O   0  0  0  0  0  0  0  0  0  0  0  0
    2.9770   -3.0590    2.9620 O   0  0  0  0  0  0  0  0  0  0  0  0
    3.8420   -3.0090    1.8450 C   0  0  0  0  0  0  0  0  0  0  0  0
    3.2100   -1.9680    0.9590 C   0  0  2  0  0  0  0  0  0  0  0  0
    4.1650   -1.0470    0.4600 O   0  0  0  0  0  0  0  0  0  0  0  0
    4.2650   -0.8070   -0.9100 C   0  0  0  0  0  0  0  0  0  0  0  0
    3.4600   -1.4540   -1.6410 O   0  0  0  0  0  0  0  0  0  0  0  0
    5.2330    0.1300   -1.4640 C   0  0  0  0  0  0  0  0  0  0  0  0
    6.1060    0.8400   -0.7720 C   0  0  0  0  0  0  0  0  0  0  0  0
    6.8990    1.6620   -1.7020 C   0  0  0  0  0  0  0  0  0  0  0  0
    7.8310    2.4700   -1.3990 O   0  0  0  0  0  0  0  0  0  0  0  0
    6.4510    1.4020   -2.9940 O   0  0  0  0  0  0  0  0  0  0  0  0
    5.4190    0.4540   -2.8520 C   0  0  0  0  0  0  0  0  0  0  0  0
    4.7840   -0.0100   -3.8290 O   0  0  0  0  0  0  0  0  0  0  0  0
  1  2  1  0
  2  3  2  0
  2  4  1  0
  5  4  1  6
  5  6  1  0
  5 12  1  0
  6  7  1  0
  7  8  1  0
  8  9  1  0
  8 10  1  0
 10 11  1  0
 12 13  1  0
 13 14  2  0
 15 13  1  6
 15 16  1  0
 15 20  1  0
 16 17  1  0
 17 18  2  0
 17 19  1  0
 19 20  1  6
 19 21  1  0
 19 25  1  0
 21 22  2  0
 21 23  1  0
 23 24  1  0
 24 25  1  0
 25 26  1  1
 26 27  1  0
 27 28  2  0
 27 29  1  0
 29 30  2  0
 29 34  1  0
 30 31  1  0
 31 32  2  0
 31 33  1  0
 33 34  1  0
 34 35  2  0
M  END
