
     RDKit          3D

 35 35  0  0  0  0  0  0  0  0999 V2000
   -0.9260   -4.0050    2.3580 C   0  0  0  0  0  0  0  0  0  0  0  0
   -0.3670   -2.8980    1.4640 C   0  0  0  0  0  0  0  0  0  0  0  0
   -0.4440   -1.6720    2.0710 O   0  0  0  0  0  0  0  0  0  0  0  0
    0.1300   -0.3470    1.1610 P   0  0  0  0  0  0  0  0  0  0  0  0
   -0.8540    1.1620    1.6080 C   0  0  0  0  0  0  0  0  0  0  0  0
   -2.3300    0.9610    1.6130 C   0  0  0  0  0  0  0  0  0  0  0  0
   -3.0620    0.6960    0.5870 O   0  0  0  0  0  0  0  0  0  0  0  0
   -3.1400   -0.1740   -0.3640 C   0  0  1  0  0  0  0  0  0  0  0  0
   -2.1100   -0.1940   -1.4280 C   0  0  0  0  0  0  0  0  0  0  0  0
   -1.9630   -1.1310   -2.2460 O   0  0  0  0  0  0  0  0  0  0  0  0
   -1.2600    0.8860   -1.5400 O   0  0  0  0  0  0  0  0  0  0  0  0
   -0.2480    0.9820   -2.5210 C   0  0  0  0  0  0  0  0  0  0  0  0
   -3.5650   -1.5580    0.0140 C   0  0  0  0  0  0  0  0  0  0  0  0
   -3.4900   -2.1970    1.0760 O   0  0  0  0  0  0  0  0  0  0  0  0
   -4.1200   -2.0620   -1.1540 O   0  0  0  0  0  0  0  0  0  0  0  0
   -4.8790   -1.0680   -1.8120 C   0  0  0  0  0  0  0  0  0  0  0  0
   -4.4410    0.1990   -1.1760 C   0  0  1  0  0  0  0  0  0  0  0  0
   -5.4750    0.7050   -0.2740 C   0  0  0  0  0  0  0  0  0  0  0  0
   -6.5910    0.1400   -0.1640 O   0  0  0  0  0  0  0  0  0  0  0  0
   -5.2900    1.8490    0.5250 O   0  0  0  0  0  0  0  0  0  0  0  0
   -6.2940    2.3030    1.3730 C   0  0  0  0  0  0  0  0  0  0  0  0
   -7.4090    1.6960    1.4490 O   0  0  0  0  0  0  0  0  0  0  0  0
   -6.1430    3.4260    2.1740 O   0  0  0  0  0  0  0  0  0  0  0  0
    1.8170   -0.0480    1.3020 O   0  0  0  0  0  0  0  0  0  0  0  0
    2.6400   -1.1200    1.1050 C   0  0  0  0  0  0  0  0  0  0  0  0
    2.5310   -1.7040   -0.1340 O   0  0  0  0  0  0  0  0  0  0  0  0
    2.8140   -0.8830   -1.1760 C   0  0  0  0  0  0  0  0  0  0  0  0
    4.1810   -0.3620   -1.2870 C   0  0  0  0  0  0  0  0  0  0  0  0
    4.4360    0.4520   -2.2090 O   0  0  0  0  0  0  0  0  0  0  0  0
    5.1930   -0.7230   -0.4350 O   0  0  0  0  0  0  0  0  0  0  0  0
    6.5090   -0.2340   -0.5310 C   0  0  0  0  0  0  0  0  0  0  0  0
    6.5540    1.2510   -0.3900 C   0  0  0  0  0  0  0  0  0  0  0  0
    5.4680    1.8520   -0.2140 O   0  0  0  0  0  0  0  0  0  0  0  0
    7.7390    1.9600   -0.4480 O   0  0  0  0  0  0  0  0  0  0  0  0
    7.7660    3.3690   -0.3120 C   0  0  0  0  0  0  0  0  0  0  0  0
  1  2  1  0
  2  3  1  0
  3  4  1  0
  4  5  1  0
  4 24  1  0
  5  6  1  0
  6  7  1  0
  8  7  1  1
  8  9  1  0
  8 13  1  0
  8 17  1  0
  9 10  2  0
  9 11  1  0
 11 12  1  0
 13 14  2  0
 13 15  1  0
 15 16  1  0
 16 17  1  0
 17 18  1  1
 18 19  2  0
 18 20  1  0
 20 21  1  0
 21 22  2  0
 21 23  1  0
 24 25  1  0
 25 26  1  0
 26 27  1  0
 27 28  1  0
 28 29  2  0
 28 30  1  0
 30 31  1  0
 31 32  1  0
 32 33  2  0
 32 34  1  0
 34 35  1  0
M  END
