
     RDKit          3D

 36 38  0  0  0  0  0  0  0  0999 V2000
    1.5350    6.4810   -2.9550 N   0  0  0  0  0  0  0  0  0  0  0  0
    0.8800    6.0110   -1.7900 C   0  0  0  0  0  0  0  0  0  0  0  0
    0.8960    4.7190   -1.4170 N   0  0  0  0  0  0  0  0  0  0  0  0
    0.2700    4.3080   -0.3150 C   0  0  0  0  0  0  0  0  0  0  0  0
   -0.3980    5.2640    0.4290 C   0  0  0  0  0  0  0  0  0  0  0  0
   -0.9350    4.6260    1.4620 N   0  0  0  0  0  0  0  0  0  0  0  0
   -0.6050    3.3060    1.3570 C   0  0  0  0  0  0  0  0  0  0  0  0
    0.1390    3.1020    0.2610 N   0  0  0  0  0  0  0  0  0  0  0  0
    0.6690    1.8230   -0.1640 C   0  0  2  0  0  0  0  0  0  0  0  0
   -0.2660    0.9560   -0.6550 O   0  0  0  0  0  0  0  0  0  0  0  0
   -0.0680   -0.2900   -0.1280 C   0  0  2  0  0  0  0  0  0  0  0  0
   -1.1810   -0.6550    0.8340 C   0  0  0  0  0  0  0  0  0  0  0  0
   -2.3970   -0.6670    0.2230 O   0  0  0  0  0  0  0  0  0  0  0  0
   -3.6140   -1.0580    1.2690 P   0  0  0  0  0  0  0  0  0  0  0  0
   -3.2900   -1.5790    2.8010 O   0  0  0  0  0  0  0  0  0  0  0  0
   -5.1750   -0.7930    0.8410 O   0  0  0  0  0  0  0  0  0  0  0  0
   -3.6580   -2.4850    0.7390 O   0  0  0  0  0  0  0  0  0  0  0  0
   -4.2930   -3.0160   -0.5400 P   0  0  0  0  0  0  0  0  0  0  0  0
   -3.6550   -1.7180   -1.3730 O   0  0  0  0  0  0  0  0  0  0  0  0
   -3.5930   -4.4640   -0.5610 O   0  0  0  0  0  0  0  0  0  0  0  0
   -5.8040   -2.8040    0.1450 O   0  0  0  0  0  0  0  0  0  0  0  0
    1.2160   -0.3130    0.6330 C   0  0  1  0  0  0  0  0  0  0  0  0
    2.1450   -0.8770   -0.1980 O   0  0  0  0  0  0  0  0  0  0  0  0
    2.8610   -2.1500    0.3310 P   0  0  0  0  0  0  0  0  0  0  0  0
    1.3480   -2.8710    0.1490 O   0  0  0  0  0  0  0  0  0  0  0  0
    3.2550   -1.6470    1.8190 O   0  0  0  0  0  0  0  0  0  0  0  0
    3.4170   -3.5760    0.4580 O   0  0  0  0  0  0  0  0  0  0  0  0
    3.2190   -4.7630   -0.6390 P   0  0  0  0  0  0  0  0  0  0  0  0
    4.6960   -5.1400   -0.6520 O   0  0  0  0  0  0  0  0  0  0  0  0
    2.7800   -6.2920   -0.1500 O   0  0  0  0  0  0  0  0  0  0  0  0
    3.2280   -4.4790   -2.2780 O   0  0  0  0  0  0  0  0  0  0  0  0
    1.4380    1.1370    0.9380 C   0  0  1  0  0  0  0  0  0  0  0  0
    2.7490    1.5190    1.0280 O   0  0  0  0  0  0  0  0  0  0  0  0
   -0.4340    6.5920    0.0740 C   0  0  0  0  0  0  0  0  0  0  0  0
   -1.0630    7.4380    0.7920 O   0  0  0  0  0  0  0  0  0  0  0  0
    0.2170    6.9470   -1.0480 N   0  0  0  0  0  0  0  0  0  0  0  0
  1  2  1  0
  2  3  1  0
  2 36  2  0
  3  4  1  0
  4  5  2  0
  4  8  1  0
  5  6  1  0
  5 34  1  0
  6  7  2  0
  7  8  1  0
  9  8  1  1
  9 10  1  0
  9 32  1  0
 10 11  1  0
 11 12  1  1
 11 22  1  0
 12 13  1  0
 13 14  1  0
 14 15  1  0
 14 16  1  0
 14 17  1  0
 17 18  1  0
 18 19  1  0
 18 20  1  0
 18 21  1  0
 22 23  1  6
 22 32  1  0
 23 24  1  0
 24 25  1  0
 24 26  1  0
 24 27  1  0
 27 28  1  0
 28 29  1  0
 28 30  1  0
 28 31  1  0
 32 33  1  6
 34 35  2  0
 34 36  1  0
M  CHG  1  36   1
M  END
