
     RDKit          3D

 35 37  0  0  0  0  0  0  0  0999 V2000
    7.5510    3.1500   -2.5350 O   0  0  0  0  0  0  0  0  0  0  0  0
    8.1720    2.2790   -1.8760 C   0  0  0  0  0  0  0  0  0  0  0  0
    9.5040    2.4940   -1.5880 O   0  0  0  0  0  0  0  0  0  0  0  0
    7.4700    1.1530   -1.4800 O   0  0  0  0  0  0  0  0  0  0  0  0
    6.1770    0.9620   -1.7690 O   0  0  0  0  0  0  0  0  0  0  0  0
    5.8480   -0.7460   -1.8790 P   0  0  0  0  0  0  0  0  0  0  0  0
    4.2680   -1.1830   -0.9960 C   0  0  0  0  0  0  0  0  0  0  0  0
    4.0810   -0.2180    0.1400 C   0  0  0  0  0  0  0  0  0  0  0  0
    2.9250   -0.4350    0.8900 O   0  0  0  0  0  0  0  0  0  0  0  0
    1.6400   -0.4070    0.4420 C   0  0  0  0  0  0  0  0  0  0  0  0
    1.4460   -0.1610   -0.7730 O   0  0  0  0  0  0  0  0  0  0  0  0
    0.4300   -0.6510    1.3080 C   0  0  2  0  0  0  0  0  0  0  0  0
   -0.7380   -0.5550    0.5800 O   0  0  0  0  0  0  0  0  0  0  0  0
   -1.4750   -1.7150    0.7360 C   0  0  1  0  0  0  0  0  0  0  0  0
   -2.0720   -1.7740    2.0910 C   0  0  0  0  0  0  0  0  0  0  0  0
   -1.7190   -2.1610    3.1780 O   0  0  0  0  0  0  0  0  0  0  0  0
   -3.2910   -1.1480    1.5290 C   0  0  2  0  0  0  0  0  0  0  0  0
   -4.4800   -1.8140    1.8200 O   0  0  0  0  0  0  0  0  0  0  0  0
   -4.4000   -3.0580    1.2450 C   0  0  0  0  0  0  0  0  0  0  0  0
   -3.4920   -2.9690    0.0540 C   0  0  0  0  0  0  0  0  0  0  0  0
   -2.8640   -1.6270    0.1850 C   0  0  2  0  0  0  0  0  0  0  0  0
   -3.0020   -0.7510   -0.8690 O   0  0  0  0  0  0  0  0  0  0  0  0
   -4.2900   -0.8310   -1.3680 C   0  0  0  0  0  0  0  0  0  0  0  0
   -4.7470    0.4580   -2.0140 C   0  0  0  0  0  0  0  0  0  0  0  0
   -4.9070    1.4880   -1.0890 O   0  0  0  0  0  0  0  0  0  0  0  0
   -3.9790    2.4990   -1.3600 C   0  0  0  0  0  0  0  0  0  0  0  0
   -3.2790    2.9420   -0.1010 C   0  0  0  0  0  0  0  0  0  0  0  0
   -2.1460    2.1650    0.1170 O   0  0  0  0  0  0  0  0  0  0  0  0
   -1.5660    2.4520    1.3420 C   0  0  0  0  0  0  0  0  0  0  0  0
   -0.0660    2.4120    1.1450 C   0  0  0  0  0  0  0  0  0  0  0  0
    0.6010    1.6750    2.1120 O   0  0  0  0  0  0  0  0  0  0  0  0
    0.5190    0.3470    2.3930 C   0  0  0  0  0  0  0  0  0  0  0  0
    0.5180   -0.0520    3.5720 O   0  0  0  0  0  0  0  0  0  0  0  0
    7.1670   -1.6040   -1.1020 O   0  0  0  0  0  0  0  0  0  0  0  0
    7.0900   -2.8930   -1.4220 O   0  0  0  0  0  0  0  0  0  0  0  0
  1  2  2  0
  2  3  1  0
  2  4  1  0
  4  5  1  0
  5  6  1  0
  6  7  1  0
  6 34  1  0
  7  8  1  0
  8  9  1  0
  9 10  1  0
 10 11  2  0
 12 10  1  6
 12 13  1  0
 12 32  1  0
 14 13  1  1
 14 15  1  0
 14 21  1  0
 15 16  2  0
 15 17  1  0
 17 18  1  1
 17 21  1  0
 18 19  1  0
 19 20  1  0
 21 20  1  6
 21 22  1  0
 22 23  1  0
 23 24  1  0
 24 25  1  0
 25 26  1  0
 26 27  1  0
 27 28  1  0
 28 29  1  0
 29 30  1  0
 30 31  1  0
 31 32  1  0
 32 33  2  0
 34 35  1  0
M  END
