
     RDKit          3D

 34 37  0  0  0  0  0  0  0  0999 V2000
   -1.0840   -3.1430   -2.3830 C   0  0  0  0  0  0  0  0  0  0  0  0
   -2.0530   -2.6560   -1.3420 C   0  0  1  0  0  0  0  0  0  0  0  0
   -2.2900   -3.6090   -0.2040 C   0  0  0  0  0  0  0  0  0  0  0  0
   -1.1120   -3.9930    0.6110 C   0  0  0  0  0  0  0  0  0  0  0  0
   -1.7020   -5.2160    1.9020 P   0  0  0  0  0  0  0  0  0  0  0  0
   -3.1440   -6.0210    1.4060 O   0  0  0  0  0  0  0  0  0  0  0  0
   -0.4550   -6.3720    2.2460 O   0  0  0  0  0  0  0  0  0  0  0  0
   -1.7610   -1.3360   -0.9140 N   0  0  0  0  0  0  0  0  0  0  0  0
   -0.5250   -0.8280   -0.4550 C   0  0  0  0  0  0  0  0  0  0  0  0
    0.7190   -1.3930   -0.3770 C   0  0  0  0  0  0  0  0  0  0  0  0
    1.6480   -0.5040    0.0910 N   0  0  0  0  0  0  0  0  0  0  0  0
    3.0320   -0.8450    0.2800 C   0  0  0  0  0  0  0  0  0  0  0  0
    3.4780   -1.6570    1.2900 N   0  0  0  0  0  0  0  0  0  0  0  0
    4.8070   -1.7920    1.2070 C   0  0  0  0  0  0  0  0  0  0  0  0
    5.1820   -1.0380    0.1100 C   0  0  0  0  0  0  0  0  0  0  0  0
    6.5570   -0.9040   -0.3470 C   0  0  0  0  0  0  0  0  0  0  0  0
    6.9970   -0.1490   -1.4030 C   0  0  0  0  0  0  0  0  0  0  0  0
    8.3810   -0.2900   -1.5110 C   0  0  0  0  0  0  0  0  0  0  0  0
    8.6990   -1.1590   -0.4670 C   0  0  0  0  0  0  0  0  0  0  0  0
    7.6200   -1.4900    0.1800 O   0  0  0  0  0  0  0  0  0  0  0  0
    4.0910   -0.5090   -0.3870 O   0  0  0  0  0  0  0  0  0  0  0  0
    0.9960    0.6050    0.3040 N   0  0  0  0  0  0  0  0  0  0  0  0
   -0.2970    0.4700   -0.0020 C   0  0  0  0  0  0  0  0  0  0  0  0
   -1.3480    1.4210    0.1100 C   0  0  0  0  0  0  0  0  0  0  0  0
   -2.5660    1.1840   -0.0550 O   0  0  0  0  0  0  0  0  0  0  0  0
   -1.1310    2.7580    0.4010 N   0  0  0  0  0  0  0  0  0  0  0  0
   -2.2300    3.5990    0.5120 C   0  0  0  0  0  0  0  0  0  0  0  0
   -1.7830    4.8200    0.2040 N   0  0  0  0  0  0  0  0  0  0  0  0
   -2.9150    5.7250    0.2830 C   0  0  0  0  0  0  0  0  0  0  0  0
   -3.4310    6.3480   -0.7410 C   0  0  0  0  0  0  0  0  0  0  0  0
   -4.5140    7.1940   -0.6070 N   0  0  0  0  0  0  0  0  0  0  0  0
   -3.4920    5.8670    1.6330 C   0  0  0  0  0  0  0  0  0  0  0  0
   -4.0130    4.4510    1.9460 C   0  0  0  0  0  0  0  0  0  0  0  0
   -3.5520    3.6410    0.8310 O   0  0  0  0  0  0  0  0  0  0  0  0
  2  1  1  1
  2  3  1  0
  2  8  1  0
  3  4  1  0
  4  5  1  0
  5  6  1  0
  5  7  1  0
  8  9  1  0
  9 10  2  0
  9 23  1  0
 10 11  1  0
 11 12  1  0
 11 22  1  0
 12 13  2  0
 12 21  1  0
 13 14  1  0
 14 15  2  0
 15 16  1  0
 15 21  1  0
 16 17  2  0
 16 20  1  0
 17 18  1  0
 18 19  2  0
 19 20  1  0
 22 23  2  0
 23 24  1  0
 24 25  2  0
 24 26  1  0
 26 27  1  0
 27 28  2  0
 27 34  1  0
 28 29  1  0
 29 30  2  3
 29 32  1  0
 30 31  1  0
 32 33  1  0
 33 34  1  0
M  END
