
     RDKit          3D

 33 36  0  0  0  0  0  0  0  0999 V2000
   -0.9040   -5.0380   -1.3890 C   0  0  0  0  0  0  0  0  0  0  0  0
   -0.6050   -3.7830   -1.7280 O   0  0  0  0  0  0  0  0  0  0  0  0
   -0.4100   -2.8370   -0.8010 C   0  0  0  0  0  0  0  0  0  0  0  0
   -1.4770   -2.5280    0.2090 C   0  0  1  0  0  0  0  0  0  0  0  0
   -1.5850   -3.4790    1.3080 C   0  0  0  0  0  0  0  0  0  0  0  0
   -2.4570   -3.1000    2.3150 O   0  0  0  0  0  0  0  0  0  0  0  0
   -3.2630   -2.0450    1.9810 C   0  0  0  0  0  0  0  0  0  0  0  0
   -2.4790   -0.8080    1.6230 C   0  0  0  0  0  0  0  0  0  0  0  0
   -1.3040   -1.0650    0.7010 C   0  0  1  0  0  0  0  0  0  0  0  0
   -0.0670   -0.8020    1.2150 N   0  0  0  0  0  0  0  0  0  0  0  0
    0.4640   -1.3550    2.3880 C   0  0  0  0  0  0  0  0  0  0  0  0
    1.2980   -0.3110    3.1810 C   0  0  0  0  0  0  0  0  0  0  0  0
    1.4510    0.8570    2.4800 O   0  0  0  0  0  0  0  0  0  0  0  0
    1.9170    0.6420    1.1840 C   0  0  2  0  0  0  0  0  0  0  0  0
    3.3650    0.1990    1.1870 C   0  0  0  0  0  0  0  0  0  0  0  0
    4.1710    1.4660    1.4320 C   0  0  0  0  0  0  0  0  0  0  0  0
    3.2120    2.6330    1.3010 C   0  0  0  0  0  0  0  0  0  0  0  0
    2.0730    1.9860    0.5030 C   0  0  1  0  0  0  0  0  0  0  0  0
    2.5960    1.8670   -0.9080 C   0  0  0  0  0  0  0  0  0  0  0  0
    2.7180    3.1370   -1.4790 O   0  0  0  0  0  0  0  0  0  0  0  0
    3.3210    3.0300   -3.1040 P   0  0  0  0  0  0  0  0  0  0  0  0
    4.9410    3.6860   -3.1320 O   0  0  0  0  0  0  0  0  0  0  0  0
    3.4520    1.3710   -3.6110 O   0  0  0  0  0  0  0  0  0  0  0  0
    1.0010   -0.2810    0.4160 C   0  0  0  0  0  0  0  0  0  0  0  0
   -1.6780   -0.3730   -0.5750 C   0  0  0  0  0  0  0  0  0  0  0  0
   -1.3300    0.8500   -1.0470 O   0  0  0  0  0  0  0  0  0  0  0  0
   -2.1520    1.6800   -1.8430 C   0  0  0  0  0  0  0  0  0  0  0  0
   -3.4020    1.9610   -1.0050 C   0  0  0  0  0  0  0  0  0  0  0  0
   -4.5940    3.0520   -1.9170 P   0  0  0  0  0  0  0  0  0  0  0  0
   -3.7730    4.1630   -2.9640 O   0  0  0  0  0  0  0  0  0  0  0  0
   -5.4600    3.9830   -0.7200 O   0  0  0  0  0  0  0  0  0  0  0  0
   -2.4670   -1.1690   -1.2550 N   0  0  0  0  0  0  0  0  0  0  0  0
   -2.6670   -2.3230   -0.5700 O   0  0  0  0  0  0  0  0  0  0  0  0
  1  2  1  0
  2  3  1  0
  4  3  1  6
  4  5  1  0
  4  9  1  0
  4 33  1  0
  5  6  1  0
  6  7  1  0
  7  8  1  0
  8  9  1  0
  9 10  1  1
  9 25  1  0
 10 11  1  0
 10 24  1  0
 11 12  1  0
 12 13  1  0
 13 14  1  0
 14 15  1  1
 14 18  1  0
 14 24  1  0
 15 16  1  0
 16 17  1  0
 17 18  1  0
 18 19  1  6
 19 20  1  0
 20 21  1  0
 21 22  1  0
 21 23  1  0
 25 26  1  0
 25 32  2  0
 26 27  1  0
 27 28  1  0
 28 29  1  0
 29 30  1  0
 29 31  1  0
 32 33  1  0
M  END
