
     RDKit          3D

 34 36  0  0  0  0  0  0  0  0999 V2000
   -4.6830   -0.0100    5.7590 C   0  0  0  0  0  0  0  0  0  0  0  0
   -5.8850    0.1130    5.0440 O   0  0  0  0  0  0  0  0  0  0  0  0
   -5.6330    0.6670    3.7700 C   0  0  2  0  0  0  0  0  0  0  0  0
   -6.3140    1.8330    3.6850 O   0  0  0  0  0  0  0  0  0  0  0  0
   -7.6220    1.8580    3.3540 C   0  0  0  0  0  0  0  0  0  0  0  0
   -8.2350    0.5540    3.0370 C   0  0  0  0  0  0  0  0  0  0  0  0
   -9.4530    0.3750    3.2080 O   0  0  0  0  0  0  0  0  0  0  0  0
   -7.4150   -0.4990    2.5300 N   0  0  0  0  0  0  0  0  0  0  0  0
   -6.0230   -0.3030    2.7330 C   0  0  0  0  0  0  0  0  0  0  0  0
   -5.1090   -0.9690    2.0170 C   0  0  0  0  0  0  0  0  0  0  0  0
   -5.4680   -1.9020    1.0190 C   0  0  0  0  0  0  0  0  0  0  0  0
   -4.5200   -2.5510    0.3180 C   0  0  0  0  0  0  0  0  0  0  0  0
   -4.8320   -3.5010   -0.7060 N   0  0  0  0  0  0  0  0  0  0  0  0
   -3.1940   -2.2650    0.6950 N   0  0  0  0  0  0  0  0  0  0  0  0
   -2.3050   -1.9480   -0.1690 C   0  0  0  0  0  0  0  0  0  0  0  0
   -0.9350   -1.6390    0.0880 N   0  0  0  0  0  0  0  0  0  0  0  0
   -0.2840   -1.3520   -0.9820 C   0  0  0  0  0  0  0  0  0  0  0  0
    1.1160   -1.0020   -1.0340 N   0  0  0  0  0  0  0  0  0  0  0  0
    2.0690   -2.0570   -1.2380 C   0  0  0  0  0  0  0  0  0  0  0  0
    3.4920   -1.5840   -1.0380 C   0  0  0  0  0  0  0  0  0  0  0  0
    3.7240   -0.3310   -1.6110 O   0  0  0  0  0  0  0  0  0  0  0  0
    2.6750    0.5470   -1.8470 C   0  0  0  0  0  0  0  0  0  0  0  0
    2.5850    1.4590   -2.7550 C   0  0  0  0  0  0  0  0  0  0  0  0
    3.5870    1.7930   -3.7610 C   0  0  0  0  0  0  0  0  0  0  0  0
    4.8270    1.1140   -3.5970 N   0  0  0  0  0  0  0  0  0  0  0  0
    5.5950    1.6300   -2.5110 C   0  0  0  0  0  0  0  0  0  0  0  0
    6.8220    0.7720   -2.2280 C   0  0  0  0  0  0  0  0  0  0  0  0
    7.6140    1.3410   -1.0730 C   0  0  0  0  0  0  0  0  0  0  0  0
    8.2240    3.0730   -1.4210 P   0  0  0  0  0  0  0  0  0  0  0  0
    9.8850    2.9850   -1.9530 O   0  0  0  0  0  0  0  0  0  0  0  0
    8.2520    3.9440    0.0970 O   0  0  0  0  0  0  0  0  0  0  0  0
    1.5130    0.3550   -0.8800 C   0  0  0  0  0  0  0  0  0  0  0  0
   -1.2040   -1.4240   -2.1280 C   0  0  0  0  0  0  0  0  0  0  0  0
   -2.4640   -1.8250   -1.5650 N   0  0  0  0  0  0  0  0  0  0  0  0
  1  2  1  0
  3  2  1  1
  3  4  1  0
  3  9  1  0
  4  5  1  0
  5  6  1  0
  6  7  2  0
  6  8  1  0
  8  9  1  0
  9 10  2  3
 10 11  1  0
 11 12  2  3
 12 13  1  0
 12 14  1  0
 14 15  2  3
 15 16  1  0
 15 34  1  0
 16 17  2  0
 17 18  1  0
 17 33  1  0
 18 19  1  0
 18 32  1  0
 19 20  1  0
 20 21  1  0
 21 22  1  0
 22 23  2  3
 22 32  1  0
 23 24  1  0
 24 25  1  0
 25 26  1  0
 26 27  1  0
 27 28  1  0
 28 29  1  0
 29 30  1  0
 29 31  1  0
 33 34  1  0
M  END
