
     RDKit          3D

 34 37  0  0  0  0  0  0  0  0999 V2000
    2.6010   -1.2920   -2.2280 C   0  0  0  0  0  0  0  0  0  0  0  0
    2.7070   -0.1890   -1.2830 N   0  0  0  0  0  0  0  0  0  0  0  0
    1.5520    0.5580   -0.9240 C   0  0  0  0  0  0  0  0  0  0  0  0
    0.5470    0.0980   -0.2740 N   0  0  0  0  0  0  0  0  0  0  0  0
   -0.5370    0.9530    0.0170 C   0  0  0  0  0  0  0  0  0  0  0  0
   -1.7760    0.5370    0.2730 C   0  0  0  0  0  0  0  0  0  0  0  0
   -2.1010   -0.9190    0.3000 C   0  0  0  0  0  0  0  0  0  0  0  0
   -1.1420   -1.7920    0.3660 C   0  0  0  0  0  0  0  0  0  0  0  0
   -1.0210   -3.1900    0.3920 C   0  0  0  0  0  0  0  0  0  0  0  0
    0.2890   -3.6930    0.5220 C   0  0  0  0  0  0  0  0  0  0  0  0
    1.3400   -2.8240    0.6120 O   0  0  0  0  0  0  0  0  0  0  0  0
   -1.9770   -4.2340    0.2150 C   0  0  0  0  0  0  0  0  0  0  0  0
   -1.4890   -5.6460    0.3460 N   0  0  0  0  0  0  0  0  0  0  0  0
   -3.1800   -4.2470   -0.0350 O   0  0  0  0  0  0  0  0  0  0  0  0
   -3.4810   -1.2300    0.4270 N   0  0  0  0  0  0  0  0  0  0  0  0
   -4.5330   -0.2560    0.5300 C   0  0  0  0  0  0  0  0  0  0  0  0
   -5.7970   -0.4270    0.6600 N   0  0  0  0  0  0  0  0  0  0  0  0
   -6.4460    0.8610    0.7270 C   0  0  0  0  0  0  0  0  0  0  0  0
   -5.3060    1.8080    0.6200 C   0  0  0  0  0  0  0  0  0  0  0  0
   -4.1750    1.1430    0.5000 C   0  0  0  0  0  0  0  0  0  0  0  0
   -2.8210    1.6060    0.3090 C   0  0  1  0  0  0  0  0  0  0  0  0
   -2.4030    2.7570    0.9540 O   0  0  0  0  0  0  0  0  0  0  0  0
   -1.0800    3.1960    0.6570 C   0  0  0  0  0  0  0  0  0  0  0  0
   -0.6850    4.5880    0.8360 C   0  0  0  0  0  0  0  0  0  0  0  0
    0.5650    5.0810    0.5750 C   0  0  0  0  0  0  0  0  0  0  0  0
    0.5740    6.3860    0.8490 N   0  0  0  0  0  0  0  0  0  0  0  0
   -0.6820    6.6730    1.2770 C   0  0  0  0  0  0  0  0  0  0  0  0
   -1.4200    5.5920    1.2640 O   0  0  0  0  0  0  0  0  0  0  0  0
   -0.2180    2.3610    0.2260 N   0  0  0  0  0  0  0  0  0  0  0  0
    4.0280    0.0940   -0.7450 C   0  0  0  0  0  0  0  0  0  0  0  0
    4.4160   -1.0630    0.1450 C   0  0  0  0  0  0  0  0  0  0  0  0
    6.1030   -0.7560    0.8600 P   0  0  0  0  0  0  0  0  0  0  0  0
    6.7350    0.7530    0.2780 O   0  0  0  0  0  0  0  0  0  0  0  0
    7.1510   -2.0130    0.2880 O   0  0  0  0  0  0  0  0  0  0  0  0
  1  2  1  0
  2  3  1  0
  2 30  1  0
  3  4  2  3
  4  5  1  0
  5  6  2  0
  5 29  1  0
  6  7  1  0
  6 21  1  0
  7  8  2  3
  7 15  1  0
  8  9  1  0
  9 10  2  3
  9 12  1  0
 10 11  1  0
 12 13  1  0
 12 14  2  0
 15 16  1  0
 16 17  2  0
 16 20  1  0
 17 18  1  0
 18 19  1  0
 19 20  2  0
 20 21  1  0
 21 22  1  1
 22 23  1  0
 23 24  1  0
 23 29  2  0
 24 25  2  0
 24 28  1  0
 25 26  1  0
 26 27  2  0
 27 28  1  0
 30 31  1  0
 31 32  1  0
 32 33  1  0
 32 34  1  0
M  END
