
     RDKit          3D

 34 36  0  0  0  0  0  0  0  0999 V2000
    7.7600    3.7770    2.0910 C   0  0  0  0  0  0  0  0  0  0  0  0
    7.7570    2.4010    1.4610 C   0  0  0  0  0  0  0  0  0  0  0  0
    6.4170    2.1370    0.8200 C   0  0  0  0  0  0  0  0  0  0  0  0
    5.4030    3.0060    0.8080 N   0  0  0  0  0  0  0  0  0  0  0  0
    4.3500    2.4390    0.1450 C   0  0  0  0  0  0  0  0  0  0  0  0
    4.7850    1.1980   -0.2320 C   0  0  0  0  0  0  0  0  0  0  0  0
    6.0410    1.0570    0.1970 O   0  0  0  0  0  0  0  0  0  0  0  0
    3.6750    0.5490   -0.9530 C   0  0  1  0  0  0  0  0  0  0  0  0
    3.2510   -0.5930   -0.2290 O   0  0  0  0  0  0  0  0  0  0  0  0
    3.6920   -1.8750   -0.4100 C   0  0  0  0  0  0  0  0  0  0  0  0
    4.2470   -2.4910    0.5660 O   0  0  0  0  0  0  0  0  0  0  0  0
    3.5850   -2.6090   -1.6280 N   0  0  0  0  0  0  0  0  0  0  0  0
    2.4200   -2.6300   -2.4180 N   0  0  0  0  0  0  0  0  0  0  0  0
    1.1110   -2.6040   -1.8970 C   0  0  0  0  0  0  0  0  0  0  0  0
    0.1900   -2.1290   -2.6160 O   0  0  0  0  0  0  0  0  0  0  0  0
    0.7500   -3.1050   -0.5400 C   0  0  2  0  0  0  0  0  0  0  0  0
   -0.2910   -4.1800   -0.5940 C   0  0  0  0  0  0  0  0  0  0  0  0
    0.4420   -2.0410    0.3640 N   0  0  0  0  0  0  0  0  0  0  0  0
   -0.9800   -1.8680    0.6130 C   0  0  0  0  0  0  0  0  0  0  0  0
   -1.3070   -0.4500    0.2100 C   0  0  1  0  0  0  0  0  0  0  0  0
   -2.3650    0.0780    1.1490 C   0  0  0  0  0  0  0  0  0  0  0  0
   -3.5900   -0.8490    0.9760 C   0  0  0  0  0  0  0  0  0  0  0  0
   -3.9630   -0.7600   -0.3700 N   0  0  0  0  0  0  0  0  0  0  0  0
   -4.4810    0.3710   -0.9660 C   0  0  0  0  0  0  0  0  0  0  0  0
   -5.8430    0.8660   -0.7190 C   0  0  0  0  0  0  0  0  0  0  0  0
   -6.1690    1.2260    0.6760 C   0  0  0  0  0  0  0  0  0  0  0  0
   -7.9430    1.9060    0.6330 P   0  0  0  0  0  0  0  0  0  0  0  0
   -7.8050    3.5980    0.2660 O   0  0  0  0  0  0  0  0  0  0  0  0
   -8.7780    1.0700   -0.6420 O   0  0  0  0  0  0  0  0  0  0  0  0
   -0.0730    0.4260    0.2070 C   0  0  0  0  0  0  0  0  0  0  0  0
    0.2820    0.7830   -1.1810 C   0  0  0  0  0  0  0  0  0  0  0  0
    1.3560    1.2210   -1.5480 N   0  0  0  0  0  0  0  0  0  0  0  0
    2.5770    1.5450   -0.9320 C   0  0  0  0  0  0  0  0  0  0  0  0
    3.0220    2.6070   -0.2950 N   0  0  0  0  0  0  0  0  0  0  0  0
  1  2  1  0
  2  3  1  0
  3  4  2  0
  3  7  1  0
  4  5  1  0
  5  6  2  0
  5 34  1  0
  6  7  1  0
  6  8  1  0
  8  9  1  1
  8 33  1  0
  9 10  1  0
 10 11  2  0
 10 12  1  0
 12 13  1  0
 13 14  1  0
 14 15  2  0
 14 16  1  0
 16 17  1  6
 16 18  1  0
 18 19  1  0
 19 20  1  0
 20 21  1  1
 20 30  1  0
 21 22  1  0
 22 23  1  0
 23 24  1  0
 24 25  1  0
 25 26  1  0
 26 27  1  0
 27 28  1  0
 27 29  1  0
 30 31  1  0
 31 32  2  0
 32 33  1  0
 33 34  2  0
M  END
