
     RDKit          3D

 34 36  0  0  0  0  0  0  0  0999 V2000
   -4.4260   -4.6650    2.9020 C   0  0  0  0  0  0  0  0  0  0  0  0
   -3.6700   -3.6290    2.2980 O   0  0  0  0  0  0  0  0  0  0  0  0
   -2.3170   -3.5770    2.2570 C   0  0  0  0  0  0  0  0  0  0  0  0
   -1.6730   -4.5320    2.8040 O   0  0  0  0  0  0  0  0  0  0  0  0
   -1.5650   -2.5160    1.6400 C   0  0  0  0  0  0  0  0  0  0  0  0
   -2.1860   -1.5050    1.0580 C   0  0  0  0  0  0  0  0  0  0  0  0
   -3.6630   -1.4380    1.0260 C   0  0  0  0  0  0  0  0  0  0  0  0
   -4.1510   -0.1870    0.3690 C   0  0  0  0  0  0  0  0  0  0  0  0
   -3.4700    0.0680   -0.9680 C   0  0  1  0  0  0  0  0  0  0  0  0
   -3.8460   -1.0160   -1.9050 C   0  0  0  0  0  0  0  0  0  0  0  0
   -3.5070   -0.6980   -3.1930 O   0  0  0  0  0  0  0  0  0  0  0  0
   -4.1230    0.9450   -3.3240 P   0  0  0  0  0  0  0  0  0  0  0  0
   -2.9340    1.8760   -4.1970 O   0  0  0  0  0  0  0  0  0  0  0  0
   -4.0060    1.3780   -1.4930 C   0  0  0  0  0  0  0  0  0  0  0  0
   -1.9910    0.1260   -0.7350 C   0  0  0  0  0  0  0  0  0  0  0  0
   -1.2670    0.6760   -1.5670 O   0  0  0  0  0  0  0  0  0  0  0  0
   -1.4410   -0.4560    0.4480 N   0  0  0  0  0  0  0  0  0  0  0  0
   -0.2470    0.0140    1.0040 C   0  0  0  0  0  0  0  0  0  0  0  0
    0.1450   -0.4900    2.1180 O   0  0  0  0  0  0  0  0  0  0  0  0
    0.6300    1.0470    0.4300 C   0  0  2  0  0  0  0  0  0  0  0  0
    1.6210    0.3900   -0.4980 C   0  0  0  0  0  0  0  0  0  0  0  0
    2.5450    1.4560   -1.0570 C   0  0  2  0  0  0  0  0  0  0  0  0
    4.0120    1.0670   -0.8570 C   0  0  0  0  0  0  0  0  0  0  0  0
    4.1810   -0.1730   -1.4680 O   0  0  0  0  0  0  0  0  0  0  0  0
    5.4880   -0.6360   -1.3520 C   0  0  0  0  0  0  0  0  0  0  0  0
    6.7080    0.5330   -2.1400 P   0  0  0  0  0  0  0  0  0  0  0  0
    7.4170    1.5580   -0.9220 O   0  0  0  0  0  0  0  0  0  0  0  0
    7.9150   -0.3390   -3.0090 O   0  0  0  0  0  0  0  0  0  0  0  0
    2.2570    2.7250   -0.4650 N   0  0  0  0  0  0  0  0  0  0  0  0
    2.4050    2.7100    0.9630 C   0  0  0  0  0  0  0  0  0  0  0  0
    1.4570    1.6750    1.5400 C   0  0  1  0  0  0  0  0  0  0  0  0
    0.6310    2.2750    2.5980 C   0  0  0  0  0  0  0  0  0  0  0  0
   -0.6100    2.2310    2.5220 O   0  0  0  0  0  0  0  0  0  0  0  0
    1.2250    2.8850    3.6750 O   0  0  0  0  0  0  0  0  0  0  0  0
  1  2  1  0
  2  3  1  0
  3  4  2  0
  3  5  1  0
  5  6  2  3
  6  7  1  0
  6 17  1  0
  7  8  1  0
  9  8  1  1
  9 10  1  0
  9 14  1  0
  9 15  1  0
 10 11  1  0
 11 12  1  0
 12 13  1  0
 12 14  1  0
 15 16  2  0
 15 17  1  0
 17 18  1  0
 18 19  2  0
 20 18  1  1
 20 21  1  0
 20 31  1  0
 21 22  1  0
 22 23  1  1
 22 29  1  0
 23 24  1  0
 24 25  1  0
 25 26  1  0
 26 27  1  0
 26 28  1  0
 29 30  1  0
 30 31  1  0
 31 32  1  1
 32 33  2  0
 32 34  1  0
M  END
