
     RDKit          3D

 33 36  0  0  0  0  0  0  0  0999 V2000
    5.8500    3.0550   -2.0050 O   0  0  0  0  0  0  0  0  0  0  0  0
    6.2490    2.7330   -0.8680 C   0  0  0  0  0  0  0  0  0  0  0  0
    5.6350    1.6340   -0.2090 N   0  0  0  0  0  0  0  0  0  0  0  0
    4.5660    0.9310   -0.8880 C   0  0  0  0  0  0  0  0  0  0  0  0
    4.0930   -0.1710    0.0060 C   0  0  0  0  0  0  0  0  0  0  0  0
    3.5700    0.3130    1.3260 C   0  0  0  0  0  0  0  0  0  0  0  0
    2.4080    1.2400    1.2030 C   0  0  0  0  0  0  0  0  0  0  0  0
    1.2610    0.6680    0.5380 N   0  0  0  0  0  0  0  0  0  0  0  0
    0.5740   -0.4770    1.0310 C   0  0  0  0  0  0  0  0  0  0  0  0
    1.0000   -0.9940    2.0930 O   0  0  0  0  0  0  0  0  0  0  0  0
   -0.6220   -1.0310    0.2860 C   0  0  1  0  0  0  0  0  0  0  0  0
   -1.1720   -2.1000    1.1690 C   0  0  0  0  0  0  0  0  0  0  0  0
   -2.3670   -1.7350    1.5370 C   0  0  0  0  0  0  0  0  0  0  0  0
   -3.2160   -2.4770    2.3810 N   0  0  0  0  0  0  0  0  0  0  0  0
   -3.8200   -3.5560    2.1600 C   0  0  0  0  0  0  0  0  0  0  0  0
   -3.7610   -4.2570    0.9830 O   0  0  0  0  0  0  0  0  0  0  0  0
   -2.7040   -0.4640    0.9400 N   0  0  0  0  0  0  0  0  0  0  0  0
   -3.6510    0.4530    0.8430 N   0  0  0  0  0  0  0  0  0  0  0  0
   -3.2500    1.4410    0.0460 C   0  0  0  0  0  0  0  0  0  0  0  0
   -3.9960    2.6600   -0.3330 C   0  0  0  0  0  0  0  0  0  0  0  0
   -3.5380    3.6510   -1.1590 C   0  0  0  0  0  0  0  0  0  0  0  0
   -4.5070    4.6220   -1.2790 C   0  0  0  0  0  0  0  0  0  0  0  0
   -5.5570    4.1530   -0.4820 C   0  0  0  0  0  0  0  0  0  0  0  0
   -5.1980    3.0040    0.0430 O   0  0  0  0  0  0  0  0  0  0  0  0
   -2.0170    1.1330   -0.3670 N   0  0  0  0  0  0  0  0  0  0  0  0
   -1.6850   -0.0330    0.1820 C   0  0  0  0  0  0  0  0  0  0  0  0
   -0.2930   -3.2460    1.3930 C   0  0  0  0  0  0  0  0  0  0  0  0
    0.6110   -3.4790    0.5060 N   0  0  0  0  0  0  0  0  0  0  0  0
    0.8220   -2.7160   -0.6680 C   0  0  0  0  0  0  0  0  0  0  0  0
    1.8150   -2.9110   -1.4230 O   0  0  0  0  0  0  0  0  0  0  0  0
   -0.1810   -1.6540   -0.9950 C   0  0  1  0  0  0  0  0  0  0  0  0
   -1.3290   -2.3280   -1.7000 C   0  0  0  0  0  0  0  0  0  0  0  0
   -2.3570   -1.4530   -2.0130 O   0  0  0  0  0  0  0  0  0  0  0  0
  1  2  2  0
  2  3  1  0
  3  4  1  0
  4  5  1  0
  5  6  1  0
  6  7  1  0
  7  8  1  0
  8  9  1  0
  9 10  2  0
 11  9  1  1
 11 12  1  0
 11 26  1  0
 11 31  1  0
 12 13  2  0
 12 27  1  0
 13 14  1  0
 13 17  1  0
 14 15  2  3
 15 16  1  0
 17 18  1  0
 17 26  1  0
 18 19  2  0
 19 20  1  0
 19 25  1  0
 20 21  2  0
 20 24  1  0
 21 22  1  0
 22 23  2  0
 23 24  1  0
 25 26  2  0
 27 28  2  0
 28 29  1  0
 29 30  2  0
 29 31  1  0
 31 32  1  1
 32 33  1  0
M  END
