
     RDKit          3D

 34 37  0  0  0  0  0  0  0  0999 V2000
    3.5540    0.8540    3.1880 O   0  0  0  0  0  0  0  0  0  0  0  0
    2.7170    0.1690    2.5370 C   0  0  0  0  0  0  0  0  0  0  0  0
    1.5550   -0.2250    3.0820 N   0  0  0  0  0  0  0  0  0  0  0  0
    0.6650   -0.9520    2.3900 C   0  0  0  0  0  0  0  0  0  0  0  0
   -0.4110   -1.3070    2.9210 O   0  0  0  0  0  0  0  0  0  0  0  0
    0.8960   -1.3190    1.1200 N   0  0  0  0  0  0  0  0  0  0  0  0
    0.0010   -2.0870    0.3200 C   0  0  1  0  0  0  0  0  0  0  0  0
   -1.4540   -1.8370    0.5830 C   0  0  0  0  0  0  0  0  0  0  0  0
   -2.0030   -1.9440   -0.8300 C   0  0  1  0  0  0  0  0  0  0  0  0
   -3.2100   -1.4480   -1.0210 O   0  0  0  0  0  0  0  0  0  0  0  0
   -3.4360   -0.0860   -1.1020 C   0  0  2  0  0  0  0  0  0  0  0  0
   -4.2320    0.1150    0.1540 C   0  0  0  0  0  0  0  0  0  0  0  0
   -4.7970   -0.9380    0.8000 C   0  0  0  0  0  0  0  0  0  0  0  0
   -5.5460   -0.8160    1.9710 C   0  0  0  0  0  0  0  0  0  0  0  0
   -5.7310    0.4240    2.5140 C   0  0  0  0  0  0  0  0  0  0  0  0
   -5.1530    1.4980    1.8520 C   0  0  0  0  0  0  0  0  0  0  0  0
   -4.4160    1.3700    0.6970 C   0  0  0  0  0  0  0  0  0  0  0  0
   -4.1900    0.4430   -2.4790 P   0  0  0  0  0  0  0  0  0  0  0  0
   -5.5880   -0.4200   -2.2810 O   0  0  0  0  0  0  0  0  0  0  0  0
   -3.0680   -0.1080   -3.5480 O   0  0  0  0  0  0  0  0  0  0  0  0
   -4.2200    2.0740   -2.0810 O   0  0  0  0  0  0  0  0  0  0  0  0
   -2.2590    0.5650   -0.7330 O   0  0  0  0  0  0  0  0  0  0  0  0
   -1.0880    0.2040   -1.2730 C   0  0  0  0  0  0  0  0  0  0  0  0
   -0.8790   -1.2490   -1.5790 C   0  0  1  0  0  0  0  0  0  0  0  0
    0.2370   -1.8060   -1.0110 O   0  0  0  0  0  0  0  0  0  0  0  0
    2.0630   -0.9260    0.5660 C   0  0  0  0  0  0  0  0  0  0  0  0
    3.0190   -0.1790    1.2200 C   0  0  0  0  0  0  0  0  0  0  0  0
    4.2850    0.2470    0.6150 C   0  0  0  0  0  0  0  0  0  0  0  0
    4.6890   -0.0100   -0.5850 C   0  0  0  0  0  0  0  0  0  0  0  0
    5.9620    0.4070   -1.2260 C   0  0  0  0  0  0  0  0  0  0  0  0
    7.0490    1.3700   -0.3120 P   0  0  0  0  0  0  0  0  0  0  0  0
    6.0450    2.4530    0.1190 O   0  0  0  0  0  0  0  0  0  0  0  0
    7.9170    2.6190   -1.0860 O   0  0  0  0  0  0  0  0  0  0  0  0
    7.4160    1.0490    1.2590 O   0  0  0  0  0  0  0  0  0  0  0  0
  1  2  2  0
  2  3  1  0
  2 27  1  0
  3  4  1  0
  4  5  2  0
  4  6  1  0
  7  6  1  1
  6 26  1  0
  7  8  1  0
  7 25  1  0
  9  8  1  1
  9 10  1  0
  9 24  1  0
 10 11  1  0
 11 12  1  0
 11 18  1  6
 11 22  1  0
 12 13  2  0
 12 17  1  0
 13 14  1  0
 14 15  2  0
 15 16  1  0
 16 17  2  0
 18 19  1  0
 18 20  1  0
 18 21  1  0
 22 23  1  0
 24 23  1  1
 24 25  1  0
 26 27  2  0
 27 28  1  0
 28 29  2  3
 29 30  1  0
 30 31  1  0
 31 32  1  0
 31 33  1  0
 31 34  1  0
M  END
