
     RDKit          3D

 41 45  0  0  0  0  0  0  0  0999 V2000
    1.0800   -2.4090   -1.6640 C   0  0  0  0  0  0  0  0  0  0  0  0
    1.2800   -2.7480   -0.1530 C   0  0  1  0  0  0  0  0  0  0  0  0
    0.9760   -1.8260    0.6460 O   0  0  0  0  0  0  0  0  0  0  0  0
    1.6150   -0.8160    1.1020 C   0  0  0  0  0  0  0  0  0  0  0  0
    1.4720    0.5710    0.6630 C   0  0  1  0  0  0  0  0  0  0  0  0
    2.0780    1.4980    1.6590 C   0  0  0  0  0  0  0  0  0  0  0  0
    2.1940    0.6700   -0.6590 C   0  0  0  0  0  0  0  0  0  0  0  0
    3.3650    0.2040   -0.8500 O   0  0  0  0  0  0  0  0  0  0  0  0
    4.5320    0.4530   -0.5400 C   0  0  0  0  0  0  0  0  0  0  0  0
    4.8490    2.0140   -0.9840 C   0  0  0  0  0  0  0  0  0  0  0  0
    6.1050    1.9270   -0.6320 O   0  0  0  0  0  0  0  0  0  0  0  0
    6.7740    2.7190    0.0990 O   0  0  0  0  0  0  0  0  0  0  0  0
    0.1450    1.0130    0.2200 N   0  0  0  0  0  0  0  0  0  0  0  0
   -0.8850    0.1640   -0.0060 C   0  0  0  0  0  0  0  0  0  0  0  0
   -1.7830   -0.1570    1.1190 C   0  0  2  0  0  0  0  0  0  0  0  0
   -1.3780   -0.7540    2.4540 C   0  0  0  0  0  0  0  0  0  0  0  0
   -1.1020   -2.1120    2.2120 O   0  0  0  0  0  0  0  0  0  0  0  0
   -1.6080   -2.8110    1.0540 C   0  0  0  0  0  0  0  0  0  0  0  0
   -2.8200   -2.2440    0.6520 N   0  0  0  0  0  0  0  0  0  0  0  0
   -2.8390   -0.8490    0.4570 C   0  0  0  0  0  0  0  0  0  0  0  0
   -3.5870    0.0380   -0.0260 N   0  0  0  0  0  0  0  0  0  0  0  0
   -4.8240    0.1590   -0.7960 C   0  0  0  0  0  0  0  0  0  0  0  0
   -5.4860    1.2960   -0.4520 C   0  0  0  0  0  0  0  0  0  0  0  0
   -6.7000    1.2390   -1.2280 O   0  0  0  0  0  0  0  0  0  0  0  0
   -6.8600   -0.0000   -1.7100 N   0  0  0  0  0  0  0  0  0  0  0  0
   -5.5030   -0.4780   -1.7360 O   0  0  0  0  0  0  0  0  0  0  0  0
   -5.1410    2.3360    0.4710 C   0  0  0  0  0  0  0  0  0  0  0  0
   -5.3360    2.3990    1.7230 O   0  0  0  0  0  0  0  0  0  0  0  0
   -4.4570    3.5330    0.0130 O   0  0  0  0  0  0  0  0  0  0  0  0
   -3.3730    4.0200   -0.5320 C   0  0  0  0  0  0  0  0  0  0  0  0
   -2.3760    2.8460   -0.7690 C   0  0  0  0  0  0  0  0  0  0  0  0
   -1.0600    3.0320   -0.6820 O   0  0  0  0  0  0  0  0  0  0  0  0
   -0.0590    2.4110    0.0370 C   0  0  0  0  0  0  0  0  0  0  0  0
    0.7750    3.2850    0.5250 O   0  0  0  0  0  0  0  0  0  0  0  0
   -0.8930   -3.9250    0.6410 N   0  0  0  0  0  0  0  0  0  0  0  0
    0.3930   -3.9420   -0.0270 N   0  0  0  0  0  0  0  0  0  0  0  0
    1.1220   -4.9460   -0.7330 C   0  0  0  0  0  0  0  0  0  0  0  0
    0.5800   -6.0210   -1.2080 O   0  0  0  0  0  0  0  0  0  0  0  0
    2.4920   -4.6010   -0.8690 N   0  0  0  0  0  0  0  0  0  0  0  0
    2.5960   -3.3560   -0.2010 C   0  0  0  0  0  0  0  0  0  0  0  0
    3.7970   -2.9850    0.2620 O   0  0  0  0  0  0  0  0  0  0  0  0
  2  1  1  6
  2  3  1  0
  2 36  1  0
  2 40  1  0
  3  4  1  0
  4  5  1  0
  5  6  1  1
  5  7  1  0
  5 13  1  0
  7  8  1  0
  8  9  1  0
  9 10  1  0
 10 11  1  0
 11 12  1  0
 13 14  1  0
 13 33  1  0
 15 14  1  6
 15 16  1  0
 15 20  1  0
 16 17  1  0
 17 18  1  0
 18 19  2  0
 18 35  1  0
 19 20  1  0
 20 21  2  0
 21 22  1  0
 22 23  2  0
 22 26  1  0
 23 24  1  0
 23 27  1  0
 24 25  1  0
 25 26  1  0
 27 28  2  0
 27 29  1  0
 29 30  1  0
 30 31  1  0
 31 32  1  0
 32 33  1  0
 33 34  2  0
 35 36  1  0
 36 37  1  0
 37 38  2  0
 37 39  1  0
 39 40  1  0
 40 41  2  0
M  END
