
     RDKit          3D

 41 43  0  0  0  0  0  0  0  0999 V2000
    4.2740    0.9000   -2.7610 N   0  0  0  0  0  0  0  0  0  0  0  0
    3.0460    0.8880   -2.3670 C   0  0  0  0  0  0  0  0  0  0  0  0
    2.1570   -0.1170   -2.8910 N   0  0  0  0  0  0  0  0  0  0  0  0
    0.7880   -0.0770   -2.4240 C   0  0  0  0  0  0  0  0  0  0  0  0
   -0.1350   -0.6770   -3.1230 C   0  0  0  0  0  0  0  0  0  0  0  0
   -1.5600   -0.7130   -2.8100 C   0  0  0  0  0  0  0  0  0  0  0  0
   -1.9750   -0.0700   -1.7410 C   0  0  0  0  0  0  0  0  0  0  0  0
   -3.3270   -0.0630   -1.3570 O   0  0  0  0  0  0  0  0  0  0  0  0
   -3.7290   -0.0760   -0.0510 C   0  0  0  0  0  0  0  0  0  0  0  0
   -4.5280    0.9280    0.6150 C   0  0  0  0  0  0  0  0  0  0  0  0
   -5.0430    2.0210    0.1690 C   0  0  0  0  0  0  0  0  0  0  0  0
   -4.9570    2.5470   -1.1520 C   0  0  0  0  0  0  0  0  0  0  0  0
   -5.5500    3.6740   -1.3720 O   0  0  0  0  0  0  0  0  0  0  0  0
   -4.3280    2.0330   -2.2560 O   0  0  0  0  0  0  0  0  0  0  0  0
   -4.7710    0.6290    2.0040 O   0  0  0  0  0  0  0  0  0  0  0  0
   -4.8010    1.6370    2.8570 O   0  0  0  0  0  0  0  0  0  0  0  0
   -3.9050    2.5610    2.5730 O   0  0  0  0  0  0  0  0  0  0  0  0
   -3.3230   -1.1430    0.6630 C   0  0  0  0  0  0  0  0  0  0  0  0
   -2.5400   -2.1810    0.1150 N   0  0  0  0  0  0  0  0  0  0  0  0
   -2.9750   -3.0020   -0.9370 N   0  0  0  0  0  0  0  0  0  0  0  0
   -3.6790   -1.2580    2.0180 O   0  0  0  0  0  0  0  0  0  0  0  0
   -4.2320   -2.4850    2.4340 C   0  0  0  0  0  0  0  0  0  0  0  0
   -3.2940   -3.5090    2.1960 O   0  0  0  0  0  0  0  0  0  0  0  0
   -0.9720    0.6660   -0.9580 C   0  0  0  0  0  0  0  0  0  0  0  0
   -1.4540    1.4740   -0.0750 O   0  0  0  0  0  0  0  0  0  0  0  0
    0.4730    0.5370   -1.1190 C   0  0  1  0  0  0  0  0  0  0  0  0
    0.9350   -0.3050    0.0740 C   0  0  0  0  0  0  0  0  0  0  0  0
    1.7060   -1.4620   -0.3080 N   0  0  0  0  0  0  0  0  0  0  0  0
    2.3450   -2.3320    0.6120 C   0  0  0  0  0  0  0  0  0  0  0  0
    2.7840   -3.4300    0.0590 O   0  0  0  0  0  0  0  0  0  0  0  0
    2.5390   -2.1400    1.9890 N   0  0  0  0  0  0  0  0  0  0  0  0
    3.2330   -1.1610    2.7060 C   0  0  0  0  0  0  0  0  0  0  0  0
    3.2550   -1.2200    4.0020 O   0  0  0  0  0  0  0  0  0  0  0  0
    3.9800   -0.0080    2.1520 C   0  0  1  0  0  0  0  0  0  0  0  0
    5.0200    0.3780    3.0430 O   0  0  0  0  0  0  0  0  0  0  0  0
    4.6220   -0.2410    0.8300 C   0  0  0  0  0  0  0  0  0  0  0  0
    4.0580    0.5830   -0.1200 O   0  0  0  0  0  0  0  0  0  0  0  0
    4.3350    1.9220    0.0840 C   0  0  0  0  0  0  0  0  0  0  0  0
    3.4600    2.7530   -0.8580 C   0  0  0  0  0  0  0  0  0  0  0  0
    2.5140    1.8160   -1.4490 N   0  0  0  0  0  0  0  0  0  0  0  0
    1.1290    1.9040   -1.0250 C   0  0  0  0  0  0  0  0  0  0  0  0
  1  2  2  0
  2  3  1  0
  2 40  1  0
  3  4  1  0
  4  5  2  0
  4 26  1  0
  5  6  1  0
  6  7  2  0
  7  8  1  0
  7 24  1  0
  8  9  1  0
  9 10  1  0
  9 18  2  3
 10 11  2  3
 10 15  1  0
 11 12  1  0
 12 13  2  0
 12 14  1  0
 15 16  1  0
 16 17  1  0
 18 19  1  0
 18 21  1  0
 19 20  1  0
 21 22  1  0
 22 23  1  0
 24 25  2  0
 24 26  1  0
 26 27  1  1
 26 41  1  0
 27 28  1  0
 28 29  1  0
 29 30  2  0
 29 31  1  0
 31 32  1  0
 32 33  2  0
 32 34  1  0
 34 35  1  1
 34 36  1  0
 36 37  1  0
 37 38  1  0
 38 39  1  0
 39 40  1  0
 40 41  1  0
M  END
