
     RDKit          3D

 41 44  0  0  0  0  0  0  0  0999 V2000
   -4.2840    1.5170   -2.4150 O   0  0  0  0  0  0  0  0  0  0  0  0
   -3.4140    1.6670   -1.4520 C   0  0  0  0  0  0  0  0  0  0  0  0
   -2.6470    0.4110   -1.2930 C   0  0  0  0  0  0  0  0  0  0  0  0
   -3.2510   -0.4380   -0.2480 N   0  0  0  0  0  0  0  0  0  0  0  0
   -3.7570    0.2480    0.9440 C   0  0  0  0  0  0  0  0  0  0  0  0
   -5.2160    0.5380    0.7970 C   0  0  0  0  0  0  0  0  0  0  0  0
   -5.6940    1.2030    1.9490 O   0  0  0  0  0  0  0  0  0  0  0  0
   -3.3460   -1.8430   -0.3330 C   0  0  0  0  0  0  0  0  0  0  0  0
   -4.5220   -2.3220   -0.0770 O   0  0  0  0  0  0  0  0  0  0  0  0
   -2.3510   -2.7870   -0.6540 N   0  0  0  0  0  0  0  0  0  0  0  0
   -1.1340   -3.0530    0.1080 C   0  0  1  0  0  0  0  0  0  0  0  0
    0.0210   -3.3540   -0.7960 C   0  0  0  0  0  0  0  0  0  0  0  0
   -0.3680   -4.4960   -1.5420 O   0  0  0  0  0  0  0  0  0  0  0  0
    0.5860   -4.8510   -2.3770 O   0  0  0  0  0  0  0  0  0  0  0  0
   -0.8780   -2.0330    1.1550 C   0  0  0  0  0  0  0  0  0  0  0  0
    0.4020   -2.4360    1.9050 C   0  0  0  0  0  0  0  0  0  0  0  0
    1.5230   -1.6790    1.4800 N   0  0  0  0  0  0  0  0  0  0  0  0
    1.4980   -0.8950    0.2180 N   0  0  0  0  0  0  0  0  0  0  0  0
    2.7260   -0.3660    0.1580 C   0  0  0  0  0  0  0  0  0  0  0  0
    3.1190   -0.3460   -1.1920 N   0  0  0  0  0  0  0  0  0  0  0  0
    4.4840   -0.3360   -1.5340 C   0  0  0  0  0  0  0  0  0  0  0  0
    5.2300   -0.4330   -0.5340 O   0  0  0  0  0  0  0  0  0  0  0  0
    4.9550   -0.2380   -2.8040 O   0  0  0  0  0  0  0  0  0  0  0  0
    6.2540   -0.2430   -3.0760 O   0  0  0  0  0  0  0  0  0  0  0  0
    6.9680   -0.8170   -2.1240 O   0  0  0  0  0  0  0  0  0  0  0  0
    2.9140   -0.0330    1.5670 C   0  0  1  0  0  0  0  0  0  0  0  0
    4.0280    0.7710    1.9540 C   0  0  0  0  0  0  0  0  0  0  0  0
    3.8920    2.0850    1.4000 O   0  0  0  0  0  0  0  0  0  0  0  0
    2.6390    2.4440    0.8790 C   0  0  0  0  0  0  0  0  0  0  0  0
    2.6090    3.5660    0.0210 C   0  0  0  0  0  0  0  0  0  0  0  0
    1.3860    3.8900   -0.4700 C   0  0  0  0  0  0  0  0  0  0  0  0
    0.1550    3.2120   -0.2010 C   0  0  0  0  0  0  0  0  0  0  0  0
    0.2330    2.1330    0.6360 C   0  0  0  0  0  0  0  0  0  0  0  0
    1.4740    1.7880    1.1440 C   0  0  0  0  0  0  0  0  0  0  0  0
    1.6830    0.6680    2.0280 O   0  0  0  0  0  0  0  0  0  0  0  0
   -0.9420    3.8050   -0.8980 N   0  0  0  0  0  0  0  0  0  0  0  0
   -2.3410    3.8920   -0.6790 C   0  0  0  0  0  0  0  0  0  0  0  0
   -2.7940    5.0990   -0.3610 O   0  0  0  0  0  0  0  0  0  0  0  0
   -3.3180    2.8710   -0.7530 N   0  0  0  0  0  0  0  0  0  0  0  0
    2.7950   -1.4840    2.0290 C   0  0  0  0  0  0  0  0  0  0  0  0
    3.7320   -1.9780    2.6600 O   0  0  0  0  0  0  0  0  0  0  0  0
  1  2  2  0
  2  3  1  0
  2 39  1  0
  3  4  1  0
  4  5  1  0
  4  8  1  0
  5  6  1  0
  6  7  1  0
  8  9  2  0
  8 10  1  0
 10 11  1  0
 11 12  1  6
 11 15  1  0
 12 13  1  0
 13 14  1  0
 15 16  1  0
 16 17  1  0
 17 18  1  0
 17 40  1  0
 18 19  2  0
 19 20  1  0
 19 26  1  0
 20 21  1  0
 21 22  2  0
 21 23  1  0
 23 24  1  0
 24 25  1  0
 26 27  1  6
 26 35  1  0
 26 40  1  0
 27 28  1  0
 28 29  1  0
 29 30  2  0
 29 34  1  0
 30 31  1  0
 31 32  2  0
 32 33  1  0
 32 36  1  0
 33 34  2  0
 34 35  1  0
 36 37  1  0
 37 38  2  0
 37 39  1  0
 40 41  2  0
M  END
