
     RDKit          3D

 41 44  0  0  0  0  0  0  0  0999 V2000
   -2.4920   -2.8900   -4.6540 O   0  0  0  0  0  0  0  0  0  0  0  0
   -3.4720   -3.2540   -4.1380 C   0  0  0  0  0  0  0  0  0  0  0  0
   -4.6870   -3.6300   -4.6120 O   0  0  0  0  0  0  0  0  0  0  0  0
   -3.3530   -3.3290   -2.4180 N   0  0  0  0  0  0  0  0  0  0  0  0
   -2.0620   -2.8710   -2.3460 C   0  0  0  0  0  0  0  0  0  0  0  0
   -1.1520   -2.4580   -3.0140 O   0  0  0  0  0  0  0  0  0  0  0  0
   -1.6540   -2.9110   -0.8600 N   0  0  0  0  0  0  0  0  0  0  0  0
   -0.3680   -2.4870   -0.4630 C   0  0  2  0  0  0  0  0  0  0  0  0
    0.3500   -3.6760    0.1670 C   0  0  0  0  0  0  0  0  0  0  0  0
    0.4560   -3.5900    1.5720 O   0  0  0  0  0  0  0  0  0  0  0  0
    1.6580   -3.4880    2.2600 C   0  0  0  0  0  0  0  0  0  0  0  0
    1.7230   -4.0670    3.3820 O   0  0  0  0  0  0  0  0  0  0  0  0
    2.8180   -2.7910    1.8220 N   0  0  0  0  0  0  0  0  0  0  0  0
    2.9390   -1.7580    0.8850 C   0  0  0  0  0  0  0  0  0  0  0  0
    3.5190   -2.1020   -0.2390 O   0  0  0  0  0  0  0  0  0  0  0  0
    2.5330   -0.3560    0.9430 C   0  0  1  0  0  0  0  0  0  0  0  0
    3.5940    0.5110    1.5970 C   0  0  0  0  0  0  0  0  0  0  0  0
    4.8870    0.6390    0.9100 C   0  0  1  0  0  0  0  0  0  0  0  0
    5.9400    0.1130    1.7180 O   0  0  0  0  0  0  0  0  0  0  0  0
    4.9760    0.1720   -0.4870 C   0  0  0  0  0  0  0  0  0  0  0  0
    3.6530    0.0370   -1.1550 C   0  0  0  0  0  0  0  0  0  0  0  0
    3.5790   -0.2270   -2.3690 O   0  0  0  0  0  0  0  0  0  0  0  0
    2.4220    0.2090   -0.4090 N   0  0  0  0  0  0  0  0  0  0  0  0
    1.3540    0.8630   -0.9670 N   0  0  0  0  0  0  0  0  0  0  0  0
    0.0540    0.7450   -0.5840 C   0  0  0  0  0  0  0  0  0  0  0  0
   -0.8780    1.5440   -1.2860 C   0  0  0  0  0  0  0  0  0  0  0  0
   -0.5780    2.3970   -2.2910 C   0  0  0  0  0  0  0  0  0  0  0  0
    0.7210    2.4700   -2.6240 N   0  0  0  0  0  0  0  0  0  0  0  0
    1.6550    1.7340   -1.9880 C   0  0  0  0  0  0  0  0  0  0  0  0
    2.8160    1.9090   -2.4000 O   0  0  0  0  0  0  0  0  0  0  0  0
   -2.2780    1.4300   -0.8080 C   0  0  0  0  0  0  0  0  0  0  0  0
   -2.3990    1.5270    0.6670 C   0  0  2  0  0  0  0  0  0  0  0  0
   -2.2490    2.8480    1.0700 O   0  0  0  0  0  0  0  0  0  0  0  0
   -3.3020    3.2860    1.8300 C   0  0  0  0  0  0  0  0  0  0  0  0
   -3.1150    4.7140    2.3130 C   0  0  0  0  0  0  0  0  0  0  0  0
   -4.2360    5.0810    3.0910 O   0  0  0  0  0  0  0  0  0  0  0  0
   -4.0680    6.3170    3.5180 O   0  0  0  0  0  0  0  0  0  0  0  0
   -1.3450    0.6830    1.4050 C   0  0  0  0  0  0  0  0  0  0  0  0
   -0.5530   -0.0440    0.3960 N   0  0  0  0  0  0  0  0  0  0  0  0
   -0.5690   -1.4520    0.5840 C   0  0  0  0  0  0  0  0  0  0  0  0
   -0.7730   -1.9270    1.7620 O   0  0  0  0  0  0  0  0  0  0  0  0
  1  2  2  0
  2  3  1  0
  2  4  1  0
  4  5  1  0
  5  6  2  0
  5  7  1  0
  8  7  1  1
  8  9  1  0
  8 40  1  0
  9 10  1  0
 10 11  1  0
 11 12  2  0
 11 13  1  0
 13 14  1  0
 14 15  2  0
 14 16  1  0
 16 17  1  1
 16 23  1  0
 17 18  1  0
 18 19  1  1
 18 20  1  0
 20 21  1  0
 21 22  2  0
 21 23  1  0
 23 24  1  0
 24 25  1  0
 24 29  1  0
 25 26  2  0
 25 39  1  0
 26 27  1  0
 26 31  1  0
 27 28  2  0
 28 29  1  0
 29 30  2  0
 31 32  1  0
 32 33  1  6
 32 38  1  0
 33 34  1  0
 34 35  1  0
 35 36  1  0
 36 37  1  0
 38 39  1  0
 39 40  1  0
 40 41  2  0
M  END
