
     RDKit          3D

  7  6  0  0  0  0  0  0  0  0999 V2000
    1.2930    1.4130    0.3960 C   0  0  0  0  0  0  0  0  0  0  0  0
    0.9090    0.1000   -0.2210 C   0  0  1  0  0  0  0  0  0  0  0  0
    1.7210   -1.0470    0.3150 C   0  0  0  0  0  0  0  0  0  0  0  0
   -0.5660   -0.1250   -0.1180 C   0  0  1  0  0  0  0  0  0  0  0  0
   -1.0700   -0.1510    1.2880 C   0  0  0  0  0  0  0  0  0  0  0  0
   -1.2450    1.0630   -0.8130 C   0  0  0  0  0  0  0  0  0  0  0  0
   -0.9870   -1.3540   -0.8900 C   0  0  0  0  0  0  0  0  0  0  0  0
  2  1  1  1
  2  3  1  0
  2  4  1  0
  4  5  1  1
  4  6  1  0
  4  7  1  0
M  END
