
     RDKit          3D

  7  7  0  0  0  0  0  0  0  0999 V2000
    1.5530   -1.1070    0.2540 C   0  0  0  0  0  0  0  0  0  0  0  0
    0.7740    0.1530   -0.0040 C   0  0  1  0  0  0  0  0  0  0  0  0
    1.1960    1.3470    0.8420 C   0  0  0  0  0  0  0  0  0  0  0  0
    0.2180    0.4830   -1.3240 C   0  0  0  0  0  0  0  0  0  0  0  0
   -0.6830   -0.0510   -0.2700 C   0  0  1  0  0  0  0  0  0  0  0  0
   -1.2010   -1.4640   -0.5090 C   0  0  0  0  0  0  0  0  0  0  0  0
   -1.6560    0.8310    0.4550 C   0  0  0  0  0  0  0  0  0  0  0  0
  2  1  1  6
  2  3  1  0
  2  4  1  0
  2  5  1  0
  4  5  1  0
  5  6  1  6
  5  7  1  0
M  END
