
     RDKit          3D

  7  7  0  0  0  0  0  0  0  0999 V2000
   -1.6640    0.5420   -0.9840 C   0  0  0  0  0  0  0  0  0  0  0  0
   -1.1630    0.2100    0.3890 C   0  0  1  0  0  0  0  0  0  0  0  0
   -2.2030   -0.6500    1.0700 C   0  0  0  0  0  0  0  0  0  0  0  0
    0.1610   -0.5130    0.3800 C   0  0  0  0  0  0  0  0  0  0  0  0
    1.2510    0.2790   -0.2680 C   0  0  2  0  0  0  0  0  0  0  0  0
    2.5940   -0.4190   -0.2940 C   0  0  0  0  0  0  0  0  0  0  0  0
    2.3990    0.8020    0.5220 C   0  0  0  0  0  0  0  0  0  0  0  0
  2  1  1  6
  2  3  1  0
  2  4  1  0
  5  4  1  1
  5  6  1  0
  5  7  1  0
  6  7  1  0
M  END
