
     RDKit          3D

  7  6  0  0  0  0  0  0  0  0999 V2000
    2.1570   -1.4180   -0.6840 C   0  0  0  0  0  0  0  0  0  0  0  0
    1.3930   -0.5680   -0.0390 C   0  0  0  0  0  0  0  0  0  0  0  0
    1.5430   -0.4030    1.4260 C   0  0  0  0  0  0  0  0  0  0  0  0
    0.3870    0.2280   -0.7550 C   0  0  0  0  0  0  0  0  0  0  0  0
   -1.0300    0.0340   -0.3460 C   0  0  1  0  0  0  0  0  0  0  0  0
   -1.3630    0.3430    1.0720 C   0  0  0  0  0  0  0  0  0  0  0  0
   -1.8580    1.0040   -1.2070 C   0  0  0  0  0  0  0  0  0  0  0  0
  1  2  2  0
  2  3  1  0
  2  4  1  0
  4  5  1  0
  5  6  1  1
  5  7  1  0
M  END
