
     RDKit          3D

  7  6  0  0  0  0  0  0  0  0999 V2000
    1.9050    0.3350   -0.9490 C   0  0  0  0  0  0  0  0  0  0  0  0
    0.9890   -0.7090   -0.3700 C   0  0  0  0  0  0  0  0  0  0  0  0
   -0.0810   -0.1450    0.5170 C   0  0  1  0  0  0  0  0  0  0  0  0
   -0.9180   -1.2910    1.0220 C   0  0  0  0  0  0  0  0  0  0  0  0
    0.5610    0.6220    1.6820 C   0  0  0  0  0  0  0  0  0  0  0  0
   -0.9060    0.8650   -0.2420 C   0  0  0  0  0  0  0  0  0  0  0  0
   -1.5880    0.3060   -1.4420 C   0  0  0  0  0  0  0  0  0  0  0  0
  1  2  1  0
  2  3  1  0
  3  4  1  1
  3  5  1  0
  3  6  1  0
  6  7  1  0
M  END
