
     RDKit          3D

  7  6  0  0  0  0  0  0  0  0999 V2000
    2.6980   -0.3210    0.3410 C   0  0  0  0  0  0  0  0  0  0  0  0
    1.4060    0.0480    0.3160 C   0  0  0  0  0  0  0  0  0  0  0  0
    1.1440    1.4670   -0.0430 C   0  0  0  0  0  0  0  0  0  0  0  0
    0.3850   -0.9450    0.6360 C   0  0  0  0  0  0  0  0  0  0  0  0
   -0.6100   -1.2420   -0.4280 C   0  0  0  0  0  0  0  0  0  0  0  0
   -1.4510   -0.1060   -0.8870 C   0  0  0  0  0  0  0  0  0  0  0  0
   -2.2890    0.4960    0.2230 C   0  0  0  0  0  0  0  0  0  0  0  0
  1  2  2  0
  2  3  1  0
  2  4  1  0
  4  5  1  0
  5  6  1  0
  6  7  1  0
M  END
