
     RDKit          3D

  7  6  0  0  0  0  0  0  0  0999 V2000
    2.7230    0.3600    0.6180 C   0  0  0  0  0  0  0  0  0  0  0  0
    2.0040   -0.6950    0.3160 C   0  0  0  0  0  0  0  0  0  0  0  0
    1.1940   -0.7160   -0.9210 C   0  0  0  0  0  0  0  0  0  0  0  0
   -0.2600   -0.9020   -0.6410 C   0  0  0  0  0  0  0  0  0  0  0  0
   -0.9030    0.1320    0.1980 C   0  0  1  0  0  0  0  0  0  0  0  0
   -0.8660    1.5180   -0.3280 C   0  0  0  0  0  0  0  0  0  0  0  0
   -2.3880   -0.2650    0.2940 C   0  0  0  0  0  0  0  0  0  0  0  0
  1  2  2  0
  2  3  1  0
  3  4  1  0
  4  5  1  0
  5  6  1  6
  5  7  1  0
M  END
