
     RDKit          3D

  6  6  0  0  0  0  0  0  0  0999 V2000
   -1.6640   -0.7880   -0.0670 C   0  0  0  0  0  0  0  0  0  0  0  0
   -0.5520   -0.0960   -0.8080 C   0  0  2  0  0  0  0  0  0  0  0  0
    0.7570   -0.7960   -0.7130 C   0  0  0  0  0  0  0  0  0  0  0  0
    1.3890   -0.3690    0.5810 C   0  0  0  0  0  0  0  0  0  0  0  0
    0.7810    0.9780    0.8880 C   0  0  0  0  0  0  0  0  0  0  0  0
   -0.2950    1.2230   -0.1290 C   0  0  0  0  0  0  0  0  0  0  0  0
  2  1  1  1
  2  3  1  0
  2  6  1  0
  3  4  1  0
  4  5  1  0
  5  6  1  0
M  END
