
     RDKit          3D

  7  7  0  0  0  0  0  0  0  0999 V2000
   -2.3780   -0.0590   -0.1240 C   0  0  0  0  0  0  0  0  0  0  0  0
   -0.9370    0.1080    0.2070 C   0  0  2  0  0  0  0  0  0  0  0  0
   -0.1940    0.9660   -0.8260 C   0  0  0  0  0  0  0  0  0  0  0  0
    1.1220    1.3260   -0.1770 C   0  0  0  0  0  0  0  0  0  0  0  0
    1.7830    0.2080    0.5270 C   0  0  0  0  0  0  0  0  0  0  0  0
    1.2190   -1.1410    0.3720 C   0  0  0  0  0  0  0  0  0  0  0  0
   -0.2380   -1.2480    0.1130 C   0  0  0  0  0  0  0  0  0  0  0  0
  2  1  1  6
  2  3  1  0
  2  7  1  0
  3  4  1  0
  4  5  1  0
  5  6  1  0
  6  7  1  0
M  END
