
     RDKit          3D

  7  7  0  0  0  0  0  0  0  0999 V2000
    2.7100   -0.5990    0.0990 C   0  0  0  0  0  0  0  0  0  0  0  0
    1.9470   -0.0570   -1.0720 C   0  0  0  0  0  0  0  0  0  0  0  0
    0.7000    0.6940   -0.6470 C   0  0  0  0  0  0  0  0  0  0  0  0
   -0.1810   -0.2850    0.1160 C   0  0  0  0  0  0  0  0  0  0  0  0
   -1.4330    0.4020    0.5620 C   0  0  2  0  0  0  0  0  0  0  0  0
   -2.4840   -0.2820    1.3240 C   0  0  0  0  0  0  0  0  0  0  0  0
   -2.6930   -0.0760   -0.1260 C   0  0  0  0  0  0  0  0  0  0  0  0
  1  2  1  0
  2  3  1  0
  3  4  1  0
  5  4  1  6
  5  6  1  0
  5  7  1  0
  6  7  1  0
M  END
