
     RDKit          3D

 20 22  0  0  0  0  0  0  0  0999 V2000
    4.5940   -1.0530    0.1980 N   0  0  0  0  0  0  0  0  0  0  0  0
    3.6150   -0.1870   -0.3640 C   0  0  0  0  0  0  0  0  0  0  0  0
    3.8400    0.4720   -1.5070 N   0  0  0  0  0  0  0  0  0  0  0  0
    2.8930    1.2750   -1.9980 C   0  0  0  0  0  0  0  0  0  0  0  0
    1.7350    1.4050   -1.3340 N   0  0  0  0  0  0  0  0  0  0  0  0
    1.4630    0.7670   -0.1860 C   0  0  0  0  0  0  0  0  0  0  0  0
    2.4250   -0.0640    0.3340 C   0  0  0  0  0  0  0  0  0  0  0  0
    1.9230   -0.5900    1.4860 C   0  0  0  0  0  0  0  0  0  0  0  0
    2.9440   -1.9410    2.7350 I   0  0  0  0  0  0  0  0  0  0  0  0
    0.6640   -0.0610    1.6330 C   0  0  0  0  0  0  0  0  0  0  0  0
    0.3670    0.7680    0.6220 N   0  0  0  0  0  0  0  0  0  0  0  0
   -0.8750    1.5240    0.4200 C   0  0  2  0  0  0  0  0  0  0  0  0
   -1.8330    0.9160    1.2110 O   0  0  0  0  0  0  0  0  0  0  0  0
   -2.5100   -0.0060    0.4580 C   0  0  2  0  0  0  0  0  0  0  0  0
   -2.7210   -1.3220    1.1590 C   0  0  0  0  0  0  0  0  0  0  0  0
   -3.4040   -2.2230    0.3710 O   0  0  0  0  0  0  0  0  0  0  0  0
   -1.7640   -0.1720   -0.8530 C   0  0  1  0  0  0  0  0  0  0  0  0
   -2.5990   -0.5610   -1.8900 O   0  0  0  0  0  0  0  0  0  0  0  0
   -1.3710    1.3060   -1.0160 C   0  0  1  0  0  0  0  0  0  0  0  0
   -2.5420    2.0040   -1.1810 O   0  0  0  0  0  0  0  0  0  0  0  0
  1  2  1  0
  2  3  2  0
  2  7  1  0
  3  4  1  0
  4  5  2  0
  5  6  1  0
  6  7  2  0
  6 11  1  0
  7  8  1  0
  8  9  1  0
  8 10  2  0
 10 11  1  0
 12 11  1  6
 12 13  1  0
 12 19  1  0
 13 14  1  0
 14 15  1  1
 14 17  1  0
 15 16  1  0
 17 18  1  6
 17 19  1  0
 19 20  1  1
M  END
