
     RDKit          3D

  8  7  0  0  0  0  0  0  0  0999 V2000
    2.3980    1.0090    0.7900 C   0  0  0  0  0  0  0  0  0  0  0  0
    1.5590    0.6200   -0.2490 O   0  0  0  0  0  0  0  0  0  0  0  0
    0.5280   -0.2000    0.2610 C   0  0  0  0  0  0  0  0  0  0  0  0
   -0.3660   -0.6160   -0.8360 C   0  0  0  0  0  0  0  0  0  0  0  0
    0.1640   -1.3560   -1.9140 N   0  0  0  0  0  0  0  0  0  0  0  0
   -1.6330   -0.2920   -0.7890 C   0  0  0  0  0  0  0  0  0  0  0  0
   -2.2350    0.4440    0.2520 N   0  0  0  0  0  0  0  0  0  0  0  0
   -2.2570   -0.0460    1.4940 O   0  0  0  0  0  0  0  0  0  0  0  0
  1  2  1  0
  2  3  1  0
  3  4  1  0
  4  5  1  0
  4  6  2  3
  6  7  1  0
  7  8  1  0
M  END
