
     RDKit          3D

  9  8  0  0  0  0  0  0  0  0999 V2000
   -2.7540    1.0070    0.5820 C   0  0  0  0  0  0  0  0  0  0  0  0
   -1.6350    0.2200   -0.0040 C   0  0  0  0  0  0  0  0  0  0  0  0
   -1.1660    0.4550   -1.2940 O   0  0  0  0  0  0  0  0  0  0  0  0
   -1.0480   -0.7220    0.6650 N   0  0  0  0  0  0  0  0  0  0  0  0
    0.0130   -1.4860    0.1430 C   0  0  0  0  0  0  0  0  0  0  0  0
   -0.2380   -2.6380   -0.3330 O   0  0  0  0  0  0  0  0  0  0  0  0
    1.4280   -1.0470    0.1040 C   0  0  0  0  0  0  0  0  0  0  0  0
    1.5800    0.2180    0.6480 O   0  0  0  0  0  0  0  0  0  0  0  0
    2.8860    0.5610    0.5850 N   0  0  0  0  0  0  0  0  0  0  0  0
  1  2  1  0
  2  3  1  0
  2  4  2  3
  4  5  1  0
  5  6  2  0
  5  7  1  0
  7  8  1  0
  8  9  1  0
M  END
