
     RDKit          3D

  8  7  0  0  0  0  0  0  0  0999 V2000
    3.6060    0.1350   -0.1790 C   0  0  0  0  0  0  0  0  0  0  0  0
    2.3390   -0.2880    0.3390 O   0  0  0  0  0  0  0  0  0  0  0  0
    1.1770    0.0510   -0.3190 C   0  0  0  0  0  0  0  0  0  0  0  0
    1.2920    0.7340   -1.3700 O   0  0  0  0  0  0  0  0  0  0  0  0
   -0.1460   -0.3570    0.1700 C   0  0  0  0  0  0  0  0  0  0  0  0
   -1.1980   -0.0120   -0.4850 N   0  0  0  0  0  0  0  0  0  0  0  0
   -2.5130   -0.3830   -0.0530 C   0  0  0  0  0  0  0  0  0  0  0  0
   -3.3500    0.7920    0.2040 N   0  0  0  0  0  0  0  0  0  0  0  0
  1  2  1  0
  2  3  1  0
  3  4  2  0
  3  5  1  0
  5  6  2  3
  6  7  1  0
  7  8  1  0
M  END
