
     RDKit          3D

  9  8  0  0  0  0  0  0  0  0999 V2000
    3.5250    0.7140   -0.3060 C   0  0  0  0  0  0  0  0  0  0  0  0
    2.2010    0.7150   -0.7910 O   0  0  0  0  0  0  0  0  0  0  0  0
    1.1200    0.2830   -0.0510 C   0  0  0  0  0  0  0  0  0  0  0  0
    1.3200   -0.1330    1.1180 O   0  0  0  0  0  0  0  0  0  0  0  0
   -0.2250    0.3380   -0.6830 C   0  0  0  0  0  0  0  0  0  0  0  0
   -1.1790   -0.1640    0.2870 N   0  0  0  0  0  0  0  0  0  0  0  0
   -2.5830   -0.2430   -0.0150 C   0  0  0  0  0  0  0  0  0  0  0  0
   -3.5080   -0.7330    0.9360 N   0  0  0  0  0  0  0  0  0  0  0  0
   -2.9460    0.1380   -1.1510 O   0  0  0  0  0  0  0  0  0  0  0  0
  1  2  1  0
  2  3  1  0
  3  4  2  0
  3  5  1  0
  5  6  1  0
  6  7  1  0
  7  8  1  0
  7  9  2  0
M  END
