
     RDKit          3D

 27 29  0  0  0  0  0  0  0  0999 V2000
   -7.5280    0.5300   -1.4930 C   0  0  0  0  0  0  0  0  0  0  0  0
   -7.1240    0.5380   -0.0230 C   0  0  0  0  0  0  0  0  0  0  0  0
   -5.6370    0.3910   -0.0040 C   0  0  0  0  0  0  0  0  0  0  0  0
   -4.7990    1.4800   -0.0380 C   0  0  0  0  0  0  0  0  0  0  0  0
   -3.4090    1.3050   -0.0200 C   0  0  0  0  0  0  0  0  0  0  0  0
   -2.8860    0.0540    0.0320 C   0  0  0  0  0  0  0  0  0  0  0  0
   -1.4400   -0.1360   -0.0220 C   0  0  0  0  0  0  0  0  0  0  0  0
   -0.8410    0.0300   -1.2670 O   0  0  0  0  0  0  0  0  0  0  0  0
   -0.7920   -0.4450    1.0670 C   0  0  0  0  0  0  0  0  0  0  0  0
   -1.5680   -0.5790    2.3240 C   0  0  0  0  0  0  0  0  0  0  0  0
   -2.8010   -0.3620    2.3210 O   0  0  0  0  0  0  0  0  0  0  0  0
   -0.9490   -0.9540    3.5870 C   0  0  0  0  0  0  0  0  0  0  0  0
    0.3410   -1.1690    3.5620 C   0  0  0  0  0  0  0  0  0  0  0  0
    1.1330   -1.0420    2.3290 C   0  0  0  0  0  0  0  0  0  0  0  0
    0.6420   -0.7080    1.1550 C   0  0  0  0  0  0  0  0  0  0  0  0
    1.5340   -0.6250    0.0350 C   0  0  0  0  0  0  0  0  0  0  0  0
    1.1880   -0.3190   -1.1410 O   0  0  0  0  0  0  0  0  0  0  0  0
    2.9790   -0.8990    0.1650 C   0  0  0  0  0  0  0  0  0  0  0  0
    3.7700   -0.8120   -0.9100 C   0  0  0  0  0  0  0  0  0  0  0  0
    5.2160   -1.0850   -0.7850 C   0  0  0  0  0  0  0  0  0  0  0  0
    5.9660    0.1500   -1.1950 C   0  0  0  0  0  0  0  0  0  0  0  0
    6.8300    0.2450   -2.1760 C   0  0  0  0  0  0  0  0  0  0  0  0
    7.3250    1.6320   -2.2280 C   0  0  0  0  0  0  0  0  0  0  0  0
    6.6210    2.3180   -1.1340 C   0  0  0  0  0  0  0  0  0  0  0  0
    5.8500    1.4440   -0.5620 C   0  0  0  0  0  0  0  0  0  0  0  0
   -3.7060   -1.0370    0.0670 C   0  0  0  0  0  0  0  0  0  0  0  0
   -5.0820   -0.8650    0.0490 C   0  0  0  0  0  0  0  0  0  0  0  0
  1  2  1  0
  2  3  1  0
  3  4  2  0
  3 27  1  0
  4  5  1  0
  5  6  2  0
  6  7  1  0
  6 26  1  0
  7  8  1  0
  7  9  2  3
  9 10  1  0
  9 15  1  0
 10 11  2  0
 10 12  1  0
 12 13  2  0
 13 14  1  0
 14 15  2  0
 15 16  1  0
 16 17  2  0
 16 18  1  0
 18 19  2  3
 19 20  1  0
 20 21  1  0
 21 22  2  0
 21 25  1  0
 22 23  1  0
 23 24  1  0
 24 25  2  0
 26 27  2  0
M  CHG  1   8  -1
M  END
