
     RDKit          3D

 27 29  0  0  0  0  0  0  0  0999 V2000
    8.2210   -1.7960    0.7840 C   0  0  0  0  0  0  0  0  0  0  0  0
    6.9320   -1.1320    0.4370 C   0  0  0  0  0  0  0  0  0  0  0  0
    6.4400   -1.1040   -0.8500 C   0  0  0  0  0  0  0  0  0  0  0  0
    5.2440   -0.4830   -1.1460 C   0  0  0  0  0  0  0  0  0  0  0  0
    4.4760    0.1400   -0.1810 C   0  0  0  0  0  0  0  0  0  0  0  0
    3.2190    0.7960   -0.4700 C   0  0  0  0  0  0  0  0  0  0  0  0
    2.5790    1.3370    0.4470 O   0  0  0  0  0  0  0  0  0  0  0  0
    2.7070    0.8190   -1.8470 C   0  0  0  0  0  0  0  0  0  0  0  0
    1.4060    1.5260   -2.0170 C   0  0  0  0  0  0  0  0  0  0  0  0
    0.2880    0.9800   -1.2480 C   0  0  0  0  0  0  0  0  0  0  0  0
   -0.3150    1.7910   -0.3620 C   0  0  0  0  0  0  0  0  0  0  0  0
    0.1120    3.0840   -0.1940 O   0  0  0  0  0  0  0  0  0  0  0  0
   -1.4460    1.2020    0.4010 C   0  0  0  0  0  0  0  0  0  0  0  0
   -2.3230    0.4720   -0.6190 C   0  0  2  0  0  0  0  0  0  0  0  0
   -3.6590    0.1970   -0.0940 C   0  0  0  0  0  0  0  0  0  0  0  0
   -4.7670    0.7740   -0.6780 C   0  0  0  0  0  0  0  0  0  0  0  0
   -6.0450    0.5430   -0.2160 C   0  0  0  0  0  0  0  0  0  0  0  0
   -7.1980    1.1920   -0.8850 C   0  0  0  0  0  0  0  0  0  0  0  0
   -6.2270   -0.2900    0.8650 C   0  0  0  0  0  0  0  0  0  0  0  0
   -5.1410   -0.9030    1.4990 C   0  0  0  0  0  0  0  0  0  0  0  0
   -5.3260   -1.8030    2.6660 C   0  0  0  0  0  0  0  0  0  0  0  0
   -3.8970   -0.6310    0.9890 C   0  0  0  0  0  0  0  0  0  0  0  0
   -1.6170   -0.7670   -1.1220 C   0  0  0  0  0  0  0  0  0  0  0  0
   -0.1920   -0.3660   -1.3970 C   0  0  0  0  0  0  0  0  0  0  0  0
    0.5960   -1.2570   -1.7700 O   0  0  0  0  0  0  0  0  0  0  0  0
    4.9790    0.1060    1.1130 C   0  0  0  0  0  0  0  0  0  0  0  0
    6.1750   -0.5140    1.4100 C   0  0  0  0  0  0  0  0  0  0  0  0
  1  2  1  0
  2  3  2  0
  2 27  1  0
  3  4  1  0
  4  5  2  0
  5  6  1  0
  5 26  1  0
  6  7  2  0
  6  8  1  0
  8  9  1  0
  9 10  1  0
 10 11  2  0
 10 24  1  0
 11 12  1  0
 11 13  1  0
 13 14  1  0
 14 15  1  1
 14 23  1  0
 15 16  2  0
 15 22  1  0
 16 17  1  0
 17 18  1  0
 17 19  2  0
 19 20  1  0
 20 21  1  0
 20 22  2  0
 23 24  1  0
 24 25  2  0
 26 27  2  0
M  CHG  1  12  -1
M  END
