
     RDKit          3D

 25 26  0  0  0  0  0  0  0  0999 V2000
    6.3690   -2.1270    0.1890 C   0  0  0  0  0  0  0  0  0  0  0  0
    5.8070   -0.9440    0.7670 O   0  0  0  0  0  0  0  0  0  0  0  0
    5.0490   -0.1190   -0.2170 C   0  0  0  0  0  0  0  0  0  0  0  0
    5.8120    0.4570   -1.0370 C   0  0  0  0  0  0  0  0  0  0  0  0
    5.5980    1.3290   -2.1380 C   0  0  0  0  0  0  0  0  0  0  0  0
    6.8110    1.7910   -2.8560 N   0  0  0  0  0  0  0  0  0  0  0  0
    4.5500    1.7780   -2.6090 O   0  0  0  0  0  0  0  0  0  0  0  0
    3.6440   -0.2260    0.0660 C   0  0  0  0  0  0  0  0  0  0  0  0
    3.2910   -0.9850    1.0760 O   0  0  0  0  0  0  0  0  0  0  0  0
    2.5540    0.3660   -0.5790 N   0  0  0  0  0  0  0  0  0  0  0  0
    1.1890    0.1400   -0.1730 C   0  0  0  0  0  0  0  0  0  0  0  0
    0.7320   -0.9640    0.4730 C   0  0  0  0  0  0  0  0  0  0  0  0
   -0.5830   -1.1030    0.8570 C   0  0  0  0  0  0  0  0  0  0  0  0
   -1.4940   -0.1090    0.5930 C   0  0  0  0  0  0  0  0  0  0  0  0
   -2.8210   -0.3120    1.0510 N   0  0  0  0  0  0  0  0  0  0  0  0
   -3.9970    0.0410    0.3870 C   0  0  0  0  0  0  0  0  0  0  0  0
   -4.0110    0.4530   -0.9320 C   0  0  0  0  0  0  0  0  0  0  0  0
   -5.1960    0.7630   -1.5710 C   0  0  0  0  0  0  0  0  0  0  0  0
   -6.3650    0.6560   -0.8730 C   0  0  0  0  0  0  0  0  0  0  0  0
   -6.3690    0.2430    0.4550 C   0  0  0  0  0  0  0  0  0  0  0  0
   -5.1980   -0.0670    1.0960 C   0  0  0  0  0  0  0  0  0  0  0  0
   -5.1800   -0.4780    2.4120 O   0  0  0  0  0  0  0  0  0  0  0  0
   -6.3660   -0.6040    3.1740 C   0  0  0  0  0  0  0  0  0  0  0  0
   -1.0710    1.0230   -0.0580 C   0  0  0  0  0  0  0  0  0  0  0  0
    0.2400    1.1380   -0.4300 C   0  0  0  0  0  0  0  0  0  0  0  0
  1  2  1  0
  2  3  1  0
  3  4  2  3
  3  8  1  0
  4  5  1  0
  5  6  1  0
  5  7  2  0
  8  9  2  0
  8 10  1  0
 10 11  1  0
 11 12  2  0
 11 25  1  0
 12 13  1  0
 13 14  2  0
 14 15  1  0
 14 24  1  0
 15 16  1  0
 16 17  2  0
 16 21  1  0
 17 18  1  0
 18 19  2  0
 19 20  1  0
 20 21  2  0
 21 22  1  0
 22 23  1  0
 24 25  2  0
M  END
