
     RDKit          3D

 25 26  0  0  0  0  0  0  0  0999 V2000
   -6.2310    2.0020   -1.5230 C   0  0  0  0  0  0  0  0  0  0  0  0
   -5.3910    0.9990   -0.8260 C   0  0  0  0  0  0  0  0  0  0  0  0
   -6.0020   -0.0570   -0.1820 C   0  0  0  0  0  0  0  0  0  0  0  0
   -5.2160   -0.9890    0.4660 C   0  0  0  0  0  0  0  0  0  0  0  0
   -5.8730   -2.1390    1.1690 C   0  0  0  0  0  0  0  0  0  0  0  0
   -3.8570   -0.8390    0.4500 C   0  0  0  0  0  0  0  0  0  0  0  0
   -3.0360   -1.8530    1.1530 C   0  0  0  0  0  0  0  0  0  0  0  0
   -3.2090    0.2110   -0.1890 C   0  0  0  0  0  0  0  0  0  0  0  0
   -1.8220    0.2880   -0.1560 O   0  0  0  0  0  0  0  0  0  0  0  0
   -1.2300    1.3840   -0.8280 C   0  0  0  0  0  0  0  0  0  0  0  0
    0.2790    1.3580   -0.7210 C   0  0  0  0  0  0  0  0  0  0  0  0
    0.7430    1.4150    0.7080 C   0  0  0  0  0  0  0  0  0  0  0  0
    2.1600    1.3950    0.8720 N   0  0  0  0  0  0  0  0  0  0  0  0
    2.9490    0.2840    0.4050 C   0  0  0  0  0  0  0  0  0  0  0  0
    2.3760   -0.6630   -0.1450 O   0  0  0  0  0  0  0  0  0  0  0  0
    4.3590    0.2620    0.5660 N   0  0  0  0  0  0  0  0  0  0  0  0
    5.2080   -0.7930    0.1350 C   0  0  0  0  0  0  0  0  0  0  0  0
    4.8850   -1.9630   -0.4980 C   0  0  0  0  0  0  0  0  0  0  0  0
    5.9910   -2.6470   -0.7090 O   0  0  0  0  0  0  0  0  0  0  0  0
    7.0350   -2.0070   -0.2580 C   0  0  0  0  0  0  0  0  0  0  0  0
    6.5790   -0.8030    0.2970 C   0  0  0  0  0  0  0  0  0  0  0  0
    7.4280    0.1970    0.9080 C   0  0  0  0  0  0  0  0  0  0  0  0
    8.8210   -0.0220    0.9670 N   0  0  0  0  0  0  0  0  0  0  0  0
    6.9910    1.2510    1.3890 O   0  0  0  0  0  0  0  0  0  0  0  0
   -4.0040    1.1370   -0.8330 C   0  0  0  0  0  0  0  0  0  0  0  0
  1  2  1  0
  2  3  2  0
  2 25  1  0
  3  4  1  0
  4  5  1  0
  4  6  2  0
  6  7  1  0
  6  8  1  0
  8  9  1  0
  8 25  2  0
  9 10  1  0
 10 11  1  0
 11 12  1  0
 12 13  1  0
 13 14  1  0
 14 15  2  0
 14 16  1  0
 16 17  1  0
 17 18  2  0
 17 21  1  0
 18 19  1  0
 19 20  1  0
 20 21  2  0
 21 22  1  0
 22 23  1  0
 22 24  2  0
M  END
