
     RDKit          3D

 28 31  0  0  0  0  0  0  0  0999 V2000
   -3.2390    2.7190    0.9250 C   0  0  0  0  0  0  0  0  0  0  0  0
   -1.9710    1.9100    0.5300 C   0  0  0  0  0  0  0  0  0  0  0  0
   -2.4820    0.6540   -0.1000 C   0  0  0  0  0  0  0  0  0  0  0  0
   -2.1020   -0.5460    0.2310 C   0  0  0  0  0  0  0  0  0  0  0  0
   -1.1550   -1.0830    1.1990 C   0  0  0  0  0  0  0  0  0  0  0  0
   -1.5600   -2.0090    2.1230 N   0  0  0  0  0  0  0  0  0  0  0  0
   -0.5500   -2.4530    2.8170 N   0  0  0  0  0  0  0  0  0  0  0  0
    0.5390   -1.8210    2.3560 C   0  0  0  0  0  0  0  0  0  0  0  0
    0.1710   -0.9390    1.3200 C   0  0  0  0  0  0  0  0  0  0  0  0
    1.1120   -0.0530    0.7520 C   0  0  0  0  0  0  0  0  0  0  0  0
    1.2770    1.2440    1.2620 C   0  0  0  0  0  0  0  0  0  0  0  0
    2.2140    2.1350    0.8700 C   0  0  0  0  0  0  0  0  0  0  0  0
    3.0880    1.7480   -0.1090 C   0  0  0  0  0  0  0  0  0  0  0  0
    4.0750    2.6560   -0.5340 O   0  0  0  0  0  0  0  0  0  0  0  0
    4.1540    3.9400    0.0420 C   0  0  0  0  0  0  0  0  0  0  0  0
    2.9930    0.4760   -0.6670 C   0  0  0  0  0  0  0  0  0  0  0  0
    1.9960   -0.4190   -0.2280 C   0  0  0  0  0  0  0  0  0  0  0  0
    1.9910   -1.7050   -0.9180 C   0  0  0  0  0  0  0  0  0  0  0  0
    0.9580   -2.7060   -0.5590 C   0  0  0  0  0  0  0  0  0  0  0  0
    2.8830   -1.9520   -1.8740 C   0  0  0  0  0  0  0  0  0  0  0  0
    3.9210   -1.0220   -2.3300 C   0  0  0  0  0  0  0  0  0  0  0  0
    3.9060    0.1720   -1.6370 O   0  0  0  0  0  0  0  0  0  0  0  0
   -2.8970   -1.4610   -0.6640 C   0  0  0  0  0  0  0  0  0  0  0  0
   -2.7990   -2.7460   -0.6290 N   0  0  0  0  0  0  0  0  0  0  0  0
   -3.7450   -0.6520   -1.5160 C   0  0  0  0  0  0  0  0  0  0  0  0
   -4.5870   -1.0650   -2.4340 C   0  0  0  0  0  0  0  0  0  0  0  0
   -5.2930   -0.1480   -3.1270 F   0  0  0  0  0  0  0  0  0  0  0  0
   -3.4680    0.6710   -1.1450 N   0  0  0  0  0  0  0  0  0  0  0  0
  1  2  1  0
  2  3  1  0
  3  4  2  0
  3 28  1  0
  4  5  1  0
  4 23  1  0
  5  6  1  0
  5  9  2  0
  6  7  1  0
  7  8  2  0
  8  9  1  0
  9 10  1  0
 10 11  2  0
 10 17  1  0
 11 12  1  0
 12 13  2  0
 13 14  1  0
 13 16  1  0
 14 15  1  0
 16 17  2  0
 16 22  1  0
 17 18  1  0
 18 19  1  0
 18 20  2  0
 20 21  1  0
 21 22  1  0
 23 24  2  0
 23 25  1  0
 25 26  2  3
 25 28  1  0
 26 27  1  0
M  CHG  1  24   1
M  END
