
     RDKit          3D

 25 25  0  0  0  0  0  0  0  0999 V2000
   -2.1050    1.1090    1.6750 C   0  0  0  0  0  0  0  0  0  0  0  0
   -3.2360    1.5330    1.2860 C   0  0  0  0  0  0  0  0  0  0  0  0
   -4.3290    0.9800    0.5260 C   0  0  0  0  0  0  0  0  0  0  0  0
   -5.4710    1.7530    0.3700 C   0  0  0  0  0  0  0  0  0  0  0  0
   -6.4450    1.0380   -0.3990 C   0  0  0  0  0  0  0  0  0  0  0  0
   -5.9930   -0.1250   -0.7370 C   0  0  0  0  0  0  0  0  0  0  0  0
   -4.5840   -0.2470   -0.1690 C   0  0  0  0  0  0  0  0  0  0  0  0
   -3.8270   -1.2430   -0.5430 C   0  0  0  0  0  0  0  0  0  0  0  0
   -2.4440   -1.5220   -0.4460 C   0  0  0  0  0  0  0  0  0  0  0  0
   -1.8410   -2.6060   -0.8440 C   0  0  0  0  0  0  0  0  0  0  0  0
   -2.4520   -3.7390   -1.4630 C   0  0  0  0  0  0  0  0  0  0  0  0
   -3.7940   -3.9410   -1.7730 N   0  0  0  0  0  0  0  0  0  0  0  0
   -1.7090   -4.7610   -1.8100 O   0  0  0  0  0  0  0  0  0  0  0  0
   -0.3600   -2.7220   -0.6620 C   0  0  0  0  0  0  0  0  0  0  0  0
    0.2040   -3.7860   -1.0540 O   0  0  0  0  0  0  0  0  0  0  0  0
    0.4580   -1.7490   -0.0930 N   0  0  0  0  0  0  0  0  0  0  0  0
    1.8980   -1.9050    0.0660 C   0  0  0  0  0  0  0  0  0  0  0  0
    2.5200   -0.6930    0.7110 C   0  0  0  0  0  0  0  0  0  0  0  0
    2.3130    0.5570   -0.0750 C   0  0  0  0  0  0  0  0  0  0  0  0
    2.9210    1.6790    0.5860 N   0  0  0  0  0  0  0  0  0  0  0  0
    4.3150    1.7320    0.8490 C   0  0  0  0  0  0  0  0  0  0  0  0
    5.1030    0.8210    0.5260 O   0  0  0  0  0  0  0  0  0  0  0  0
    4.8360    2.8350    1.4890 O   0  0  0  0  0  0  0  0  0  0  0  0
    6.1890    3.0080    1.8040 C   0  0  0  0  0  0  0  0  0  0  0  0
    7.1070    3.0020    0.6310 C   0  0  0  0  0  0  0  0  0  0  0  0
  1  2  2  0
  2  3  1  0
  3  4  2  0
  3  7  1  0
  4  5  1  0
  5  6  2  0
  6  7  1  0
  7  8  2  3
  8  9  1  0
  9 10  2  3
 10 11  1  0
 10 14  1  0
 11 12  1  0
 11 13  2  0
 14 15  2  0
 14 16  1  0
 16 17  1  0
 17 18  1  0
 18 19  1  0
 19 20  1  0
 20 21  1  0
 21 22  2  0
 21 23  1  0
 23 24  1  0
 24 25  1  0
M  END
