
     RDKit          3D

 25 26  0  0  0  0  0  0  0  0999 V2000
    5.0400   -0.1230    1.8050 C   0  0  0  0  0  0  0  0  0  0  0  0
    3.6010    0.1750    1.3350 C   0  0  0  0  0  0  0  0  0  0  0  0
    3.5810    0.2680   -0.1530 C   0  0  0  0  0  0  0  0  0  0  0  0
    4.7120    0.2800   -0.9350 N   0  0  0  0  0  0  0  0  0  0  0  0
    4.3800    0.3690   -2.2070 C   0  0  0  0  0  0  0  0  0  0  0  0
    5.2860    0.4110   -3.3730 C   0  0  0  0  0  0  0  0  0  0  0  0
    3.0100    0.4140   -2.2490 C   0  0  0  0  0  0  0  0  0  0  0  0
    2.4740    0.3510   -0.9480 C   0  0  0  0  0  0  0  0  0  0  0  0
    1.0640    0.3850   -0.6360 C   0  0  0  0  0  0  0  0  0  0  0  0
    0.2670    0.3000   -1.6300 O   0  0  0  0  0  0  0  0  0  0  0  0
    0.4600    0.5010    0.6130 N   0  0  0  0  0  0  0  0  0  0  0  0
   -0.9520    0.5340    0.9100 C   0  0  0  0  0  0  0  0  0  0  0  0
   -1.6980   -0.7070    0.4510 C   0  0  0  0  0  0  0  0  0  0  0  0
   -3.1070   -0.6790    0.8500 C   0  0  0  0  0  0  0  0  0  0  0  0
   -4.0410    0.0330    0.1960 C   0  0  0  0  0  0  0  0  0  0  0  0
   -3.8090    0.7990   -0.9960 C   0  0  0  0  0  0  0  0  0  0  0  0
   -4.7680    1.5090   -1.4540 O   0  0  0  0  0  0  0  0  0  0  0  0
   -2.6570    0.8810   -1.7460 O   0  0  0  0  0  0  0  0  0  0  0  0
   -2.5390    1.6760   -2.9180 C   0  0  0  0  0  0  0  0  0  0  0  0
   -5.3440   -0.0010    0.7020 C   0  0  0  0  0  0  0  0  0  0  0  0
   -5.6110   -0.7500    1.8270 C   0  0  0  0  0  0  0  0  0  0  0  0
   -6.8030   -0.7550    2.2530 O   0  0  0  0  0  0  0  0  0  0  0  0
   -4.6540   -1.4560    2.4620 N   0  0  0  0  0  0  0  0  0  0  0  0
   -3.4060   -1.4400    2.0010 C   0  0  0  0  0  0  0  0  0  0  0  0
   -2.3590   -2.2090    2.6910 C   0  0  0  0  0  0  0  0  0  0  0  0
  1  2  1  0
  2  3  1  0
  3  4  1  0
  3  8  2  0
  4  5  1  0
  5  6  1  0
  5  7  2  0
  7  8  1  0
  8  9  1  0
  9 10  2  0
  9 11  1  0
 11 12  1  0
 12 13  1  0
 13 14  1  0
 14 15  1  0
 14 24  2  0
 15 16  1  0
 15 20  2  0
 16 17  2  0
 16 18  1  0
 18 19  1  0
 20 21  1  0
 21 22  2  0
 21 23  1  0
 23 24  1  0
 24 25  1  0
M  END
