
     RDKit          3D

 25 26  0  0  0  0  0  0  0  0999 V2000
    8.0110    0.7190    0.7810 C   0  0  0  0  0  0  0  0  0  0  0  0
    6.8720    0.2770    0.1460 O   0  0  0  0  0  0  0  0  0  0  0  0
    6.5580   -1.0490    0.5120 C   0  0  0  0  0  0  0  0  0  0  0  0
    5.2970   -1.4950   -0.2100 C   0  0  0  0  0  0  0  0  0  0  0  0
    4.2240   -0.6070    0.1750 N   0  0  0  0  0  0  0  0  0  0  0  0
    2.8870   -0.7780   -0.3530 C   0  0  0  0  0  0  0  0  0  0  0  0
    2.7500   -1.7210   -1.1380 O   0  0  0  0  0  0  0  0  0  0  0  0
    1.8550    0.0730    0.0150 N   0  0  0  0  0  0  0  0  0  0  0  0
    0.5250    0.0170   -0.4210 C   0  0  0  0  0  0  0  0  0  0  0  0
    0.0950   -0.9330   -1.2980 C   0  0  0  0  0  0  0  0  0  0  0  0
   -1.2250   -0.9870   -1.7280 C   0  0  0  0  0  0  0  0  0  0  0  0
   -1.6360   -1.9790   -2.6320 O   0  0  0  0  0  0  0  0  0  0  0  0
   -2.1040   -0.0630   -1.2580 C   0  0  0  0  0  0  0  0  0  0  0  0
   -1.6890    0.9090   -0.3670 C   0  0  0  0  0  0  0  0  0  0  0  0
   -2.6500    1.9440    0.1400 C   0  0  0  0  0  0  0  0  0  0  0  0
   -3.9780    1.7150   -0.3730 N   0  0  0  0  0  0  0  0  0  0  0  0
   -4.7550    0.5870    0.0530 C   0  0  0  0  0  0  0  0  0  0  0  0
   -4.2790   -0.2850    0.9950 C   0  0  0  0  0  0  0  0  0  0  0  0
   -4.9920   -1.3770    1.4470 C   0  0  0  0  0  0  0  0  0  0  0  0
   -6.2290   -1.5660    0.9050 C   0  0  0  0  0  0  0  0  0  0  0  0
   -6.7330   -0.7080   -0.0420 C   0  0  0  0  0  0  0  0  0  0  0  0
   -5.9940    0.4000   -0.4920 C   0  0  0  0  0  0  0  0  0  0  0  0
   -6.5700    1.2220   -1.4510 O   0  0  0  0  0  0  0  0  0  0  0  0
   -0.3860    0.9680    0.0630 C   0  0  0  0  0  0  0  0  0  0  0  0
    0.0700    2.0210    1.0270 C   0  0  0  0  0  0  0  0  0  0  0  0
  1  2  1  0
  2  3  1  0
  3  4  1  0
  4  5  1  0
  5  6  1  0
  6  7  2  0
  6  8  1  0
  8  9  1  0
  9 10  2  0
  9 24  1  0
 10 11  1  0
 11 12  1  0
 11 13  2  0
 13 14  1  0
 14 15  1  0
 14 24  2  0
 15 16  1  0
 16 17  1  0
 17 18  2  0
 17 22  1  0
 18 19  1  0
 19 20  2  0
 20 21  1  0
 21 22  2  0
 22 23  1  0
 24 25  1  0
M  END
