
     RDKit          3D

 25 26  0  0  0  0  0  0  0  0999 V2000
   -5.0460    2.1980    0.2400 C   0  0  0  0  0  0  0  0  0  0  0  0
   -4.9150    1.4450   -0.8380 C   0  0  0  0  0  0  0  0  0  0  0  0
   -5.6870    1.4700   -2.0990 C   0  0  0  0  0  0  0  0  0  0  0  0
   -5.6090    0.0300   -2.5530 C   0  0  0  0  0  0  0  0  0  0  0  0
   -4.3210   -0.4250   -1.9890 C   0  0  0  0  0  0  0  0  0  0  0  0
   -3.9350    0.3820   -1.0180 C   0  0  0  0  0  0  0  0  0  0  0  0
   -2.7380    0.2250   -0.2660 N   0  0  0  0  0  0  0  0  0  0  0  0
   -2.7730   -0.4140    1.0010 C   0  0  0  0  0  0  0  0  0  0  0  0
   -3.9810   -0.8730    1.4780 C   0  0  0  0  0  0  0  0  0  0  0  0
   -4.0800   -1.5030    2.7040 C   0  0  0  0  0  0  0  0  0  0  0  0
   -2.9450   -1.6800    3.4730 C   0  0  0  0  0  0  0  0  0  0  0  0
   -1.7420   -1.2160    2.9830 C   0  0  0  0  0  0  0  0  0  0  0  0
   -1.6160   -0.5830    1.7620 C   0  0  0  0  0  0  0  0  0  0  0  0
   -0.3970   -0.1210    1.2820 O   0  0  0  0  0  0  0  0  0  0  0  0
    0.7450   -0.3170    2.0930 C   0  0  0  0  0  0  0  0  0  0  0  0
    1.9710    0.2100    1.4900 C   0  0  0  0  0  0  0  0  0  0  0  0
    3.0540    0.0930    2.1150 O   0  0  0  0  0  0  0  0  0  0  0  0
    2.0140    0.8540    0.2240 N   0  0  0  0  0  0  0  0  0  0  0  0
    3.1980    1.3490   -0.3280 N   0  0  0  0  0  0  0  0  0  0  0  0
    4.3130    0.4890   -0.5110 C   0  0  0  0  0  0  0  0  0  0  0  0
    4.1800   -0.7130   -0.1590 O   0  0  0  0  0  0  0  0  0  0  0  0
    5.6060    0.9840   -1.1020 C   0  0  0  0  0  0  0  0  0  0  0  0
    6.5690   -0.1810   -1.1520 C   0  0  0  0  0  0  0  0  0  0  0  0
    7.8810    0.2960   -1.7440 C   0  0  0  0  0  0  0  0  0  0  0  0
    8.7810   -0.7390   -1.8040 O   0  0  0  0  0  0  0  0  0  0  0  0
  1  2  2  0
  2  3  1  0
  2  6  1  0
  3  4  1  0
  4  5  1  0
  5  6  2  0
  6  7  1  0
  7  8  1  0
  8  9  2  0
  8 13  1  0
  9 10  1  0
 10 11  2  0
 11 12  1  0
 12 13  2  0
 13 14  1  0
 14 15  1  0
 15 16  1  0
 16 17  2  0
 16 18  1  0
 18 19  1  0
 19 20  1  0
 20 21  2  0
 20 22  1  0
 22 23  1  0
 23 24  1  0
 24 25  1  0
M  END
