
     RDKit          3D

 25 26  0  0  0  0  0  0  0  0999 V2000
    3.1970    1.8650   -2.4790 C   0  0  0  0  0  0  0  0  0  0  0  0
    4.4110    1.2210   -1.9150 C   0  0  0  0  0  0  0  0  0  0  0  0
    4.4820    1.0050   -0.4550 C   0  0  0  0  0  0  0  0  0  0  0  0
    3.5480    0.0680    0.1880 C   0  0  1  0  0  0  0  0  0  0  0  0
    3.8150    0.0410    1.6230 O   0  0  0  0  0  0  0  0  0  0  0  0
    4.3220   -1.0510    2.2640 C   0  0  0  0  0  0  0  0  0  0  0  0
    4.5710   -1.0490    3.6560 N   0  0  0  0  0  0  0  0  0  0  0  0
    4.5770   -2.0870    1.6150 O   0  0  0  0  0  0  0  0  0  0  0  0
    2.1190    0.1510   -0.0390 C   0  0  0  0  0  0  0  0  0  0  0  0
    1.4920    0.0080   -1.1160 O   0  0  0  0  0  0  0  0  0  0  0  0
    1.2570    0.4320    1.0820 N   0  0  0  0  0  0  0  0  0  0  0  0
   -0.1680    0.5280    0.9380 C   0  0  0  0  0  0  0  0  0  0  0  0
   -0.7960   -0.7040    0.4420 C   0  0  0  0  0  0  0  0  0  0  0  0
    0.0320   -1.6710    0.2590 O   0  0  0  0  0  0  0  0  0  0  0  0
   -2.1580   -0.9040    0.1640 N   0  0  0  0  0  0  0  0  0  0  0  0
   -2.7190   -2.1820   -0.3030 C   0  0  0  0  0  0  0  0  0  0  0  0
   -3.8310   -1.7970   -1.2120 C   0  0  1  0  0  0  0  0  0  0  0  0
   -4.8140   -2.7760   -1.3270 O   0  0  0  0  0  0  0  0  0  0  0  0
   -4.3480   -0.5460   -0.6310 C   0  0  0  0  0  0  0  0  0  0  0  0
   -5.4820    0.1300   -0.7220 C   0  0  0  0  0  0  0  0  0  0  0  0
   -6.4800   -0.4180   -1.5580 O   0  0  0  0  0  0  0  0  0  0  0  0
   -5.6420    1.2830   -0.0370 O   0  0  0  0  0  0  0  0  0  0  0  0
   -4.7090    1.8820    0.7950 C   0  0  0  0  0  0  0  0  0  0  0  0
   -3.4600    1.1160    0.8780 C   0  0  0  0  0  0  0  0  0  0  0  0
   -3.2740   -0.0120    0.2260 C   0  0  0  0  0  0  0  0  0  0  0  0
  1  2  1  0
  2  3  1  0
  4  3  1  1
  4  5  1  0
  4  9  1  0
  5  6  1  0
  6  7  1  0
  6  8  2  0
  9 10  2  0
  9 11  1  0
 11 12  1  0
 12 13  1  0
 13 14  2  0
 13 15  1  0
 15 16  1  0
 15 25  1  0
 16 17  1  0
 17 18  1  1
 17 19  1  0
 19 20  2  0
 19 25  1  0
 20 21  1  0
 20 22  1  0
 22 23  1  0
 23 24  1  0
 24 25  2  0
M  END
