
     RDKit          3D

 24 25  0  0  0  0  0  0  0  0999 V2000
   -3.9550   -2.8310    0.5910 C   0  0  0  0  0  0  0  0  0  0  0  0
   -3.1140   -1.6710    0.1730 C   0  0  1  0  0  0  0  0  0  0  0  0
   -3.5900   -0.9910   -1.0660 C   0  0  0  0  0  0  0  0  0  0  0  0
   -3.8520    0.4240   -0.6120 C   0  0  2  0  0  0  0  0  0  0  0  0
   -5.0860    0.8240   -1.1460 O   0  0  0  0  0  0  0  0  0  0  0  0
   -2.7600    1.3880   -1.0350 C   0  0  0  0  0  0  0  0  0  0  0  0
   -1.4650    1.0420   -0.5300 N   0  0  0  0  0  0  0  0  0  0  0  0
   -0.3540    1.8660   -0.8530 C   0  0  0  0  0  0  0  0  0  0  0  0
   -0.4980    2.9050   -1.5850 O   0  0  0  0  0  0  0  0  0  0  0  0
    0.9120    1.5600   -0.3800 O   0  0  0  0  0  0  0  0  0  0  0  0
    1.9760    2.4090   -0.7300 C   0  0  0  0  0  0  0  0  0  0  0  0
    3.2930    1.9190   -0.1220 C   0  0  0  0  0  0  0  0  0  0  0  0
    3.5220    0.6200   -0.6310 O   0  0  0  0  0  0  0  0  0  0  0  0
    4.6160   -0.1460   -0.3080 C   0  0  0  0  0  0  0  0  0  0  0  0
    5.6630    0.4230    0.2520 C   0  0  0  0  0  0  0  0  0  0  0  0
    6.8850   -0.3650    0.6260 C   0  0  0  0  0  0  0  0  0  0  0  0
    6.5690   -1.8170    0.8520 C   0  0  0  0  0  0  0  0  0  0  0  0
    5.7640   -2.3380   -0.2350 N   0  0  0  0  0  0  0  0  0  0  0  0
    4.5960   -1.5690   -0.5900 C   0  0  0  0  0  0  0  0  0  0  0  0
    3.6250   -2.1690   -1.1230 O   0  0  0  0  0  0  0  0  0  0  0  0
   -3.9400    0.2750    0.8850 C   0  0  1  0  0  0  0  0  0  0  0  0
   -5.3880   -0.0050    1.2260 C   0  0  0  0  0  0  0  0  0  0  0  0
   -6.1020    1.1550    0.8460 O   0  0  0  0  0  0  0  0  0  0  0  0
   -3.0850   -0.7440    1.1860 O   0  0  0  0  0  0  0  0  0  0  0  0
  2  1  1  1
  2  3  1  0
  2 24  1  0
  3  4  1  0
  4  5  1  6
  4  6  1  0
  4 21  1  0
  6  7  1  0
  7  8  1  0
  8  9  2  0
  8 10  1  0
 10 11  1  0
 11 12  1  0
 12 13  1  0
 13 14  1  0
 14 15  2  0
 14 19  1  0
 15 16  1  0
 16 17  1  0
 17 18  1  0
 18 19  1  0
 19 20  2  0
 21 22  1  6
 21 24  1  0
 22 23  1  0
M  END
