
     RDKit          3D

 25 25  0  0  0  0  0  0  0  0999 V2000
    6.9310    0.0390    0.5690 C   0  0  0  0  0  0  0  0  0  0  0  0
    5.6290    0.0640    0.3240 C   0  0  0  0  0  0  0  0  0  0  0  0
    4.7440    0.8980    1.0890 C   0  0  0  0  0  0  0  0  0  0  0  0
    3.4490    0.9860    0.9170 C   0  0  0  0  0  0  0  0  0  0  0  0
    2.7520    0.2280   -0.0930 C   0  0  0  0  0  0  0  0  0  0  0  0
    1.4180    0.2940   -0.2920 C   0  0  0  0  0  0  0  0  0  0  0  0
    0.5510    1.1440    0.5030 C   0  0  0  0  0  0  0  0  0  0  0  0
    0.7250    1.0940    1.7740 O   0  0  0  0  0  0  0  0  0  0  0  0
   -0.4660    2.0240    0.0550 N   0  0  0  0  0  0  0  0  0  0  0  0
   -1.5210    1.7490   -0.8370 C   0  0  0  0  0  0  0  0  0  0  0  0
   -1.5680    2.4560   -1.9140 O   0  0  0  0  0  0  0  0  0  0  0  0
   -2.5210    0.7990   -0.6870 O   0  0  0  0  0  0  0  0  0  0  0  0
   -3.3110    0.5720    0.4360 C   0  0  1  0  0  0  0  0  0  0  0  0
   -4.6770    1.0970    0.1820 C   0  0  0  0  0  0  0  0  0  0  0  0
   -5.7210    1.0230    1.1250 N   0  0  0  0  0  0  0  0  0  0  0  0
   -4.9260    1.6370   -0.9230 O   0  0  0  0  0  0  0  0  0  0  0  0
   -3.4640   -0.8810    0.8150 C   0  0  0  0  0  0  0  0  0  0  0  0
   -3.3600   -1.7820   -0.2940 N   0  0  0  0  0  0  0  0  0  0  0  0
   -2.1310   -2.4320   -0.5390 C   0  0  0  0  0  0  0  0  0  0  0  0
   -2.0740   -3.5560   -1.0790 O   0  0  0  0  0  0  0  0  0  0  0  0
   -0.8720   -1.7650   -0.1460 C   0  0  0  0  0  0  0  0  0  0  0  0
   -0.3190   -1.2220   -1.3390 O   0  0  0  0  0  0  0  0  0  0  0  0
    0.8920   -0.5460   -1.3770 C   0  0  0  0  0  0  0  0  0  0  0  0
    1.6220   -0.6780   -2.4840 C   0  0  0  0  0  0  0  0  0  0  0  0
    1.2100   -1.4490   -3.5620 O   0  0  0  0  0  0  0  0  0  0  0  0
  1  2  2  0
  2  3  1  0
  3  4  2  3
  4  5  1  0
  5  6  2  3
  6  7  1  0
  6 23  1  0
  7  8  2  0
  7  9  1  0
  9 10  1  0
 10 11  2  0
 10 12  1  0
 12 13  1  0
 13 14  1  6
 13 17  1  0
 14 15  1  0
 14 16  2  0
 17 18  1  0
 18 19  1  0
 19 20  2  0
 19 21  1  0
 21 22  1  0
 22 23  1  0
 23 24  2  3
 24 25  1  0
M  END
