
     RDKit          3D

 25 27  0  0  0  0  0  0  0  0999 V2000
   -5.8880   -0.8330   -0.8080 N   0  0  0  0  0  0  0  0  0  0  0  0
   -4.7050   -0.1900   -1.1650 C   0  0  0  0  0  0  0  0  0  0  0  0
   -3.6530   -0.0580   -0.4200 C   0  0  0  0  0  0  0  0  0  0  0  0
   -2.5020    0.6770   -1.0350 C   0  0  0  0  0  0  0  0  0  0  0  0
   -2.7660    1.1320   -2.1660 O   0  0  0  0  0  0  0  0  0  0  0  0
   -1.2280    0.8860   -0.4830 O   0  0  0  0  0  0  0  0  0  0  0  0
   -0.7990    0.1680    0.6910 C   0  0  2  0  0  0  0  0  0  0  0  0
    0.7070    0.2130    0.6580 C   0  0  0  0  0  0  0  0  0  0  0  0
    1.2850   -0.3540    1.5910 O   0  0  0  0  0  0  0  0  0  0  0  0
    1.4390    0.8540   -0.3620 N   0  0  0  0  0  0  0  0  0  0  0  0
    2.8440    0.9350   -0.4560 C   0  0  0  0  0  0  0  0  0  0  0  0
    3.7380    0.4050    0.4250 C   0  0  0  0  0  0  0  0  0  0  0  0
    5.1240    0.5270    0.2640 C   0  0  0  0  0  0  0  0  0  0  0  0
    5.6330    1.2020   -0.8140 C   0  0  0  0  0  0  0  0  0  0  0  0
    4.7360    1.7450   -1.7170 C   0  0  0  0  0  0  0  0  0  0  0  0
    3.3760    1.6210   -1.5530 C   0  0  0  0  0  0  0  0  0  0  0  0
    2.5360    2.1880   -2.4930 O   0  0  0  0  0  0  0  0  0  0  0  0
    7.0170    1.1800   -0.7420 O   0  0  0  0  0  0  0  0  0  0  0  0
    7.4020    0.1860    0.2180 C   0  0  0  0  0  0  0  0  0  0  0  0
    6.2170    0.0880    1.0040 O   0  0  0  0  0  0  0  0  0  0  0  0
   -1.2090   -1.2520    0.6650 C   0  0  0  0  0  0  0  0  0  0  0  0
   -2.5330   -1.6180    0.9160 N   0  0  0  0  0  0  0  0  0  0  0  0
   -3.5410   -0.5820    0.9520 C   0  0  2  0  0  0  0  0  0  0  0  0
   -4.8050   -1.0170    1.6040 C   0  0  0  0  0  0  0  0  0  0  0  0
   -4.4980   -1.3930    2.9470 O   0  0  0  0  0  0  0  0  0  0  0  0
  1  2  1  0
  2  3  2  3
  3  4  1  0
  3 23  1  0
  4  5  2  0
  4  6  1  0
  6  7  1  0
  7  8  1  6
  7 21  1  0
  8  9  2  0
  8 10  1  0
 10 11  1  0
 11 12  2  0
 11 16  1  0
 12 13  1  0
 13 14  2  0
 13 20  1  0
 14 15  1  0
 14 18  1  0
 15 16  2  0
 16 17  1  0
 18 19  1  0
 19 20  1  0
 21 22  1  0
 22 23  1  0
 23 24  1  6
 24 25  1  0
M  END
