
     RDKit          3D

 25 26  0  0  0  0  0  0  0  0999 V2000
   -5.6850   -2.0200    0.3730 C   0  0  0  0  0  0  0  0  0  0  0  0
   -5.3410   -0.5990    0.6560 C   0  0  0  0  0  0  0  0  0  0  0  0
   -6.3470    0.1750    1.0060 C   0  0  0  0  0  0  0  0  0  0  0  0
   -6.1010    1.5430    1.2920 N   0  0  0  0  0  0  0  0  0  0  0  0
   -4.7910    2.1080    1.2100 C   0  0  1  0  0  0  0  0  0  0  0  0
   -4.3830    2.6270    2.4620 O   0  0  0  0  0  0  0  0  0  0  0  0
   -3.7350    1.1540    0.8090 C   0  0  0  0  0  0  0  0  0  0  0  0
   -3.9710   -0.1020    0.5490 C   0  0  0  0  0  0  0  0  0  0  0  0
   -2.9980   -1.0490    0.1630 N   0  0  0  0  0  0  0  0  0  0  0  0
   -1.6140   -0.7430    0.0050 C   0  0  0  0  0  0  0  0  0  0  0  0
   -1.1320    0.3660    0.1870 O   0  0  0  0  0  0  0  0  0  0  0  0
   -0.7860   -1.7760   -0.3760 O   0  0  0  0  0  0  0  0  0  0  0  0
    0.6130   -1.6860   -0.5950 C   0  0  0  0  0  0  0  0  0  0  0  0
    0.8420   -0.7380   -1.7350 C   0  0  0  0  0  0  0  0  0  0  0  0
    2.2020   -0.5200   -2.1250 N   0  0  0  0  0  0  0  0  0  0  0  0
    2.7200   -1.4510   -3.1040 C   0  0  0  0  0  0  0  0  0  0  0  0
    2.0080   -2.3710   -3.5590 O   0  0  0  0  0  0  0  0  0  0  0  0
    3.0590    0.5570   -1.7040 C   0  0  0  0  0  0  0  0  0  0  0  0
    3.9310    0.1770   -0.5850 C   0  0  2  0  0  0  0  0  0  0  0  0
    3.3700   -0.2040    0.5900 O   0  0  0  0  0  0  0  0  0  0  0  0
    4.3820   -0.2950    1.5100 C   0  0  0  0  0  0  0  0  0  0  0  0
    5.4910    0.6370    1.0710 C   0  0  2  0  0  0  0  0  0  0  0  0
    5.8930    1.5110    2.0490 O   0  0  0  0  0  0  0  0  0  0  0  0
    4.8050    1.3520   -0.1020 C   0  0  1  0  0  0  0  0  0  0  0  0
    5.6960    1.7520   -1.0630 O   0  0  0  0  0  0  0  0  0  0  0  0
  1  2  1  0
  2  3  2  0
  2  8  1  0
  3  4  1  0
  4  5  1  0
  5  6  1  1
  5  7  1  0
  7  8  2  0
  8  9  1  0
  9 10  1  0
 10 11  2  0
 10 12  1  0
 12 13  1  0
 13 14  1  0
 14 15  1  0
 15 16  1  0
 15 18  1  0
 16 17  2  0
 19 18  1  6
 19 20  1  0
 19 24  1  0
 20 21  1  0
 21 22  1  0
 22 23  1  1
 22 24  1  0
 24 25  1  6
M  END
