
     RDKit          3D

 25 26  0  0  0  0  0  0  0  0999 V2000
   -8.1230   -1.4800    0.4010 C   0  0  0  0  0  0  0  0  0  0  0  0
   -6.8370   -1.5550    1.0120 O   0  0  0  0  0  0  0  0  0  0  0  0
   -5.8740   -0.5870    0.8380 C   0  0  0  0  0  0  0  0  0  0  0  0
   -6.1420    0.4000    0.1110 O   0  0  0  0  0  0  0  0  0  0  0  0
   -4.5330   -0.6510    1.4660 C   0  0  2  0  0  0  0  0  0  0  0  0
   -4.6740   -0.7950    2.9660 C   0  0  0  0  0  0  0  0  0  0  0  0
   -3.7560    0.5010    1.0970 N   0  0  0  0  0  0  0  0  0  0  0  0
   -2.5390    0.4160    0.3590 C   0  0  0  0  0  0  0  0  0  0  0  0
   -2.1650   -0.7500    0.0380 O   0  0  0  0  0  0  0  0  0  0  0  0
   -1.7810    1.5540    0.0000 N   0  0  0  0  0  0  0  0  0  0  0  0
   -0.5500    1.4640   -0.7420 C   0  0  0  0  0  0  0  0  0  0  0  0
    0.5160    0.6620   -0.0420 C   0  0  0  0  0  0  0  0  0  0  0  0
    1.7330    0.5770   -0.7790 N   0  0  0  0  0  0  0  0  0  0  0  0
    2.5110    1.7060   -1.1590 C   0  0  0  0  0  0  0  0  0  0  0  0
    2.1070    2.8330   -0.8320 O   0  0  0  0  0  0  0  0  0  0  0  0
    3.7720    1.5190   -1.9300 C   0  0  1  0  0  0  0  0  0  0  0  0
    4.9270    2.2260   -1.3320 C   0  0  0  0  0  0  0  0  0  0  0  0
    6.0240    1.3950   -1.1260 O   0  0  0  0  0  0  0  0  0  0  0  0
    5.9180    0.0690   -0.7140 C   0  0  0  0  0  0  0  0  0  0  0  0
    6.7130   -0.5590    0.0940 C   0  0  0  0  0  0  0  0  0  0  0  0
    6.4630   -1.8820    0.4020 O   0  0  0  0  0  0  0  0  0  0  0  0
    5.4120   -2.6620   -0.0730 C   0  0  0  0  0  0  0  0  0  0  0  0
    4.5440   -1.8810   -0.9910 C   0  0  0  0  0  0  0  0  0  0  0  0
    4.7510   -0.6340   -1.3010 C   0  0  0  0  0  0  0  0  0  0  0  0
    3.9880    0.1510   -2.1440 O   0  0  0  0  0  0  0  0  0  0  0  0
  1  2  1  0
  2  3  1  0
  3  4  2  0
  3  5  1  0
  5  6  1  1
  5  7  1  0
  7  8  1  0
  8  9  2  0
  8 10  1  0
 10 11  1  0
 11 12  1  0
 12 13  1  0
 13 14  1  0
 14 15  2  0
 16 14  1  1
 16 17  1  0
 16 25  1  0
 17 18  1  0
 18 19  1  0
 19 20  2  0
 19 24  1  0
 20 21  1  0
 21 22  1  0
 22 23  1  0
 23 24  2  0
 24 25  1  0
M  END
