
     RDKit          3D

 20 22  0  0  0  0  0  0  0  0999 V2000
    5.1210    0.8930   -0.5080 N   0  0  0  0  0  0  0  0  0  0  0  0
    4.1690   -0.0580   -0.0630 C   0  0  0  0  0  0  0  0  0  0  0  0
    4.4910   -1.2080    0.5530 N   0  0  0  0  0  0  0  0  0  0  0  0
    3.5510   -2.0800    0.9580 C   0  0  0  0  0  0  0  0  0  0  0  0
    2.2520   -1.8020    0.7440 N   0  0  0  0  0  0  0  0  0  0  0  0
    1.8450   -0.6650    0.1300 C   0  0  0  0  0  0  0  0  0  0  0  0
    2.8230    0.2280   -0.2830 C   0  0  0  0  0  0  0  0  0  0  0  0
    2.1780    1.2860   -0.8690 C   0  0  0  0  0  0  0  0  0  0  0  0
    2.7740    2.3690   -1.4010 F   0  0  0  0  0  0  0  0  0  0  0  0
    0.8350    1.0150   -0.7990 C   0  0  0  0  0  0  0  0  0  0  0  0
    0.6340   -0.1760   -0.1890 N   0  0  0  0  0  0  0  0  0  0  0  0
   -0.6570   -0.7910    0.0620 C   0  0  2  0  0  0  0  0  0  0  0  0
   -1.4950   -0.7390   -1.0400 O   0  0  0  0  0  0  0  0  0  0  0  0
   -2.7990   -0.6820   -0.5410 C   0  0  2  0  0  0  0  0  0  0  0  0
   -3.7680   -0.1400   -1.5530 C   0  0  0  0  0  0  0  0  0  0  0  0
   -3.3860    1.1490   -1.9180 O   0  0  0  0  0  0  0  0  0  0  0  0
   -2.6950    0.3570    0.5810 C   0  0  1  0  0  0  0  0  0  0  0  0
   -3.7290    0.2300    1.4840 O   0  0  0  0  0  0  0  0  0  0  0  0
   -1.3450    0.0080    1.1650 C   0  0  1  0  0  0  0  0  0  0  0  0
   -1.4570   -0.7350    2.3300 O   0  0  0  0  0  0  0  0  0  0  0  0
  1  2  1  0
  2  3  2  0
  2  7  1  0
  3  4  1  0
  4  5  2  0
  5  6  1  0
  6  7  2  0
  6 11  1  0
  7  8  1  0
  8  9  1  0
  8 10  2  0
 10 11  1  0
 12 11  1  6
 12 13  1  0
 12 19  1  0
 13 14  1  0
 14 15  1  6
 14 17  1  0
 15 16  1  0
 17 18  1  1
 17 19  1  0
 19 20  1  1
M  END
