
     RDKit          3D

 19 20  0  0  0  0  0  0  0  0999 V2000
    6.7740    1.1040    0.1240 O   0  0  0  0  0  0  0  0  0  0  0  0
    5.5560    0.8810   -0.0830 C   0  0  0  0  0  0  0  0  0  0  0  0
    4.5040    1.9050    0.1480 C   0  0  0  0  0  0  0  0  0  0  0  0
    3.4330    1.2560    0.7650 O   0  0  0  0  0  0  0  0  0  0  0  0
    2.8350    0.4160   -0.1610 C   0  0  2  0  0  0  0  0  0  0  0  0
    1.5840   -0.1620    0.3610 C   0  0  0  0  0  0  0  0  0  0  0  0
    1.1860    0.1250    1.5050 O   0  0  0  0  0  0  0  0  0  0  0  0
    0.8350   -1.0450   -0.4420 N   0  0  0  0  0  0  0  0  0  0  0  0
   -0.3580   -1.6180    0.0090 N   0  0  0  0  0  0  0  0  0  0  0  0
   -1.5690   -0.8550    0.0120 C   0  0  0  0  0  0  0  0  0  0  0  0
   -1.4810    0.3290   -0.4090 O   0  0  0  0  0  0  0  0  0  0  0  0
   -2.8000   -1.3770    0.4540 N   0  0  0  0  0  0  0  0  0  0  0  0
   -3.9600   -0.5170    0.4120 C   0  0  0  0  0  0  0  0  0  0  0  0
   -5.0710   -0.7310   -0.2650 C   0  0  0  0  0  0  0  0  0  0  0  0
   -5.9860    0.3780   -0.0330 C   0  0  0  0  0  0  0  0  0  0  0  0
   -5.2630    1.2870    0.8800 C   0  0  0  0  0  0  0  0  0  0  0  0
   -4.0840    0.7440    1.1260 C   0  0  0  0  0  0  0  0  0  0  0  0
    3.7150   -0.7190   -0.6100 C   0  0  0  0  0  0  0  0  0  0  0  0
    5.1330   -0.3860   -0.5560 N   0  0  0  0  0  0  0  0  0  0  0  0
  1  2  2  0
  2  3  1  0
  2 19  1  0
  3  4  1  0
  4  5  1  0
  5  6  1  1
  5 18  1  0
  6  7  2  0
  6  8  1  0
  8  9  1  0
  9 10  1  0
 10 11  2  0
 10 12  1  0
 12 13  1  0
 13 14  2  0
 13 17  1  0
 14 15  1  0
 15 16  1  0
 16 17  2  0
 18 19  1  0
M  END
