
     RDKit          3D

 18 19  0  0  0  0  0  0  0  0999 V2000
    5.3220   -1.0870    1.0450 C   0  0  0  0  0  0  0  0  0  0  0  0
    5.5200   -0.7140   -0.3950 C   0  0  0  0  0  0  0  0  0  0  0  0
    4.2850   -0.2910   -0.9740 O   0  0  0  0  0  0  0  0  0  0  0  0
    3.6180    0.7970   -0.4490 C   0  0  0  0  0  0  0  0  0  0  0  0
    4.1110    1.4050    0.5390 O   0  0  0  0  0  0  0  0  0  0  0  0
    2.3870    1.2840   -0.9620 N   0  0  0  0  0  0  0  0  0  0  0  0
    1.2420    0.7590   -0.5930 C   0  0  0  0  0  0  0  0  0  0  0  0
    1.0620   -0.3190    0.3260 N   0  0  0  0  0  0  0  0  0  0  0  0
   -0.3600   -0.5490    0.4190 C   0  0  0  0  0  0  0  0  0  0  0  0
   -0.8690   -1.1660    1.3830 O   0  0  0  0  0  0  0  0  0  0  0  0
   -0.9260    0.0680   -0.7750 C   0  0  1  0  0  0  0  0  0  0  0  0
   -2.3660    0.4330   -0.7000 C   0  0  1  0  0  0  0  0  0  0  0  0
   -3.2870   -0.7410   -0.4570 C   0  0  0  0  0  0  0  0  0  0  0  0
   -4.5990    0.0140   -0.2060 C   0  0  1  0  0  0  0  0  0  0  0  0
   -5.5240   -0.7470    0.4540 O   0  0  0  0  0  0  0  0  0  0  0  0
   -4.1250    1.2190    0.5450 C   0  0  0  0  0  0  0  0  0  0  0  0
   -2.6840    1.2790    0.4360 N   0  0  0  0  0  0  0  0  0  0  0  0
   -0.0480    1.1610   -1.0380 N   0  0  0  0  0  0  0  0  0  0  0  0
  1  2  1  0
  2  3  1  0
  3  4  1  0
  4  5  2  0
  4  6  1  0
  6  7  2  3
  7  8  1  0
  7 18  1  0
  8  9  1  0
  9 10  2  0
  9 11  1  0
 11 12  1  0
 11 18  1  1
 12 13  1  1
 12 17  1  0
 13 14  1  0
 14 15  1  1
 14 16  1  0
 16 17  1  0
M  END
