
     RDKit          3D

 19 21  0  0  0  0  0  0  0  0999 V2000
   -5.2860   -0.5830    0.0180 N   0  0  0  0  0  0  0  0  0  0  0  0
   -3.9720   -0.9950   -0.3810 C   0  0  0  0  0  0  0  0  0  0  0  0
   -3.7130   -2.1840   -0.9260 N   0  0  0  0  0  0  0  0  0  0  0  0
   -2.4710   -2.5470   -1.2930 C   0  0  0  0  0  0  0  0  0  0  0  0
   -1.4380   -1.7080   -1.1170 N   0  0  0  0  0  0  0  0  0  0  0  0
   -1.6040   -0.4920   -0.5770 C   0  0  0  0  0  0  0  0  0  0  0  0
   -2.8910   -0.1330   -0.2040 C   0  0  0  0  0  0  0  0  0  0  0  0
   -2.7900    1.1270    0.3090 C   0  0  0  0  0  0  0  0  0  0  0  0
   -1.4880    1.5290    0.2540 C   0  0  0  0  0  0  0  0  0  0  0  0
   -0.7670    0.5220   -0.2940 N   0  0  0  0  0  0  0  0  0  0  0  0
    0.6420    0.5930   -0.5070 C   0  0  2  0  0  0  0  0  0  0  0  0
    1.2560   -0.6470   -0.6420 O   0  0  0  0  0  0  0  0  0  0  0  0
    2.6070   -0.3760   -0.6200 C   0  0  2  0  0  0  0  0  0  0  0  0
    3.4270   -1.5220   -0.0390 C   0  0  0  0  0  0  0  0  0  0  0  0
    4.7620   -1.1170   -0.0770 O   0  0  0  0  0  0  0  0  0  0  0  0
    2.8210    0.8120    0.2830 C   0  0  1  0  0  0  0  0  0  0  0  0
    3.2780    1.9290   -0.4490 O   0  0  0  0  0  0  0  0  0  0  0  0
    1.3900    1.1360    0.7190 C   0  0  1  0  0  0  0  0  0  0  0  0
    1.1910    2.4870    0.8860 O   0  0  0  0  0  0  0  0  0  0  0  0
  1  2  1  0
  2  3  2  0
  2  7  1  0
  3  4  1  0
  4  5  2  0
  5  6  1  0
  6  7  2  0
  6 10  1  0
  7  8  1  0
  8  9  2  0
  9 10  1  0
 11 10  1  1
 11 12  1  0
 11 18  1  0
 12 13  1  0
 13 14  1  1
 13 16  1  0
 14 15  1  0
 16 17  1  6
 16 18  1  0
 18 19  1  6
M  END
