
     RDKit          3D

 19 20  0  0  0  0  0  0  0  0999 V2000
   -5.5640    2.2510    0.8200 O   0  0  0  0  0  0  0  0  0  0  0  0
   -4.5780    1.5030    0.6000 C   0  0  0  0  0  0  0  0  0  0  0  0
   -3.3250    2.1390    0.8370 N   0  0  0  0  0  0  0  0  0  0  0  0
   -2.0230    1.5930    0.6930 N   0  0  0  0  0  0  0  0  0  0  0  0
   -1.6050    0.4060    0.0210 C   0  0  0  0  0  0  0  0  0  0  0  0
   -2.3430   -0.6240   -0.3580 C   0  0  0  0  0  0  0  0  0  0  0  0
   -1.8220   -1.8150   -1.0510 C   0  0  0  0  0  0  0  0  0  0  0  0
   -0.3670   -2.0630   -0.8480 C   0  0  0  0  0  0  0  0  0  0  0  0
    0.3630   -1.0260   -0.0780 C   0  0  1  0  0  0  0  0  0  0  0  0
    1.8070   -0.9830   -0.4300 C   0  0  0  0  0  0  0  0  0  0  0  0
    2.2120   -1.7940   -1.2990 O   0  0  0  0  0  0  0  0  0  0  0  0
    2.7440   -0.1000    0.1420 N   0  0  0  0  0  0  0  0  0  0  0  0
    4.1360   -0.0410   -0.1820 C   0  0  0  0  0  0  0  0  0  0  0  0
    4.7910    1.0270    0.6400 C   0  0  0  0  0  0  0  0  0  0  0  0
    6.1400    1.1700    0.4070 O   0  0  0  0  0  0  0  0  0  0  0  0
   -0.1550    0.3710   -0.2670 C   0  0  0  0  0  0  0  0  0  0  0  0
   -3.8030   -0.7960   -0.1730 C   0  0  0  0  0  0  0  0  0  0  0  0
   -4.2700   -1.9540   -0.3270 O   0  0  0  0  0  0  0  0  0  0  0  0
   -4.7950    0.1680    0.1600 N   0  0  0  0  0  0  0  0  0  0  0  0
  1  2  2  0
  2  3  1  0
  2 19  1  0
  3  4  1  0
  4  5  1  0
  5  6  2  0
  5 16  1  0
  6  7  1  0
  6 17  1  0
  7  8  1  0
  8  9  1  0
  9 10  1  6
  9 16  1  0
 10 11  2  0
 10 12  1  0
 12 13  1  0
 13 14  1  0
 14 15  1  0
 17 18  2  0
 17 19  1  0
M  END
