
     RDKit          3D

 19 20  0  0  0  0  0  0  0  0999 V2000
    4.7010   -1.7120   -1.5640 N   0  0  0  0  0  0  0  0  0  0  0  0
    3.3710   -1.3050   -1.2740 C   0  0  0  0  0  0  0  0  0  0  0  0
    2.4680   -1.8900   -1.9050 O   0  0  0  0  0  0  0  0  0  0  0  0
    3.1160   -0.2530   -0.2850 C   0  0  0  0  0  0  0  0  0  0  0  0
    4.0510    0.3780    0.3920 C   0  0  0  0  0  0  0  0  0  0  0  0
    3.3980    1.3500    1.2740 C   0  0  0  0  0  0  0  0  0  0  0  0
    1.9570    1.1840    1.0050 C   0  0  0  0  0  0  0  0  0  0  0  0
    1.8030    0.2460    0.0940 C   0  0  0  0  0  0  0  0  0  0  0  0
    0.5620   -0.2190   -0.4470 N   0  0  0  0  0  0  0  0  0  0  0  0
   -0.7110    0.2590   -0.0850 C   0  0  0  0  0  0  0  0  0  0  0  0
   -0.8300    1.1550    0.7650 O   0  0  0  0  0  0  0  0  0  0  0  0
   -1.9120   -0.3130   -0.7260 C   0  0  0  0  0  0  0  0  0  0  0  0
   -3.1290    0.3640   -0.1660 C   0  0  1  0  0  0  0  0  0  0  0  0
   -4.3590   -0.1430   -0.7470 N   0  0  0  0  0  0  0  0  0  0  0  0
   -5.3780    0.1410    0.2060 C   0  0  0  0  0  0  0  0  0  0  0  0
   -6.6120    0.2600   -0.0430 O   0  0  0  0  0  0  0  0  0  0  0  0
   -4.7410    0.2660    1.4870 N   0  0  0  0  0  0  0  0  0  0  0  0
   -3.3380    0.0510    1.2710 C   0  0  0  0  0  0  0  0  0  0  0  0
   -2.5170   -0.3210    2.1490 O   0  0  0  0  0  0  0  0  0  0  0  0
  1  2  1  0
  2  3  2  0
  2  4  1  0
  4  5  2  0
  4  8  1  0
  5  6  1  0
  6  7  1  0
  7  8  2  0
  8  9  1  0
  9 10  1  0
 10 11  2  0
 10 12  1  0
 13 12  1  6
 13 14  1  0
 13 18  1  0
 14 15  1  0
 15 16  2  0
 15 17  1  0
 17 18  1  0
 18 19  2  0
M  END
