
     RDKit          3D

 19 20  0  0  0  0  0  0  0  0999 V2000
   -1.1520   -3.3580   -0.2010 C   0  0  0  0  0  0  0  0  0  0  0  0
   -0.8980   -2.2600   -1.1030 N   0  0  0  0  0  0  0  0  0  0  0  0
   -1.3260   -0.9590   -0.7520 C   0  0  0  0  0  0  0  0  0  0  0  0
   -0.4150   -0.0360   -0.3970 C   0  0  0  0  0  0  0  0  0  0  0  0
    0.9820   -0.4060   -0.3860 C   0  0  0  0  0  0  0  0  0  0  0  0
    1.9080    0.4720   -0.0430 C   0  0  0  0  0  0  0  0  0  0  0  0
    1.5320    1.8800    0.3440 C   0  0  0  0  0  0  0  0  0  0  0  0
    3.2970    0.1130   -0.0300 N   0  0  0  0  0  0  0  0  0  0  0  0
    3.6430   -1.2080   -0.3950 C   0  0  0  0  0  0  0  0  0  0  0  0
    4.7140   -1.7090   -0.0340 O   0  0  0  0  0  0  0  0  0  0  0  0
    2.6900   -1.9810   -1.2230 C   0  0  0  0  0  0  0  0  0  0  0  0
    1.4050   -1.6800   -0.7290 O   0  0  0  0  0  0  0  0  0  0  0  0
   -0.8430    1.2260   -0.0580 O   0  0  0  0  0  0  0  0  0  0  0  0
   -2.1460    1.6310   -0.0510 C   0  0  0  0  0  0  0  0  0  0  0  0
   -2.5360    2.9830    0.3180 C   0  0  0  0  0  0  0  0  0  0  0  0
   -1.5130    3.8980    0.6810 N   0  0  0  0  0  0  0  0  0  0  0  0
   -3.7430    3.3340    0.3180 O   0  0  0  0  0  0  0  0  0  0  0  0
   -3.1000    0.7580   -0.3950 C   0  0  0  0  0  0  0  0  0  0  0  0
   -2.6890   -0.5590   -0.7520 N   0  0  0  0  0  0  0  0  0  0  0  0
  1  2  1  0
  2  3  1  0
  3  4  2  0
  3 19  1  0
  4  5  1  0
  4 13  1  0
  5  6  2  0
  5 12  1  0
  6  7  1  0
  6  8  1  0
  8  9  1  0
  9 10  2  0
  9 11  1  0
 11 12  1  0
 13 14  1  0
 14 15  1  0
 14 18  2  0
 15 16  1  0
 15 17  2  0
 18 19  1  0
M  END
