
     RDKit          3D

  7  6  0  0  0  0  0  0  0  0999 V2000
   -1.4380    0.3550    1.3770 C   0  0  0  0  0  0  0  0  0  0  0  0
   -1.3470    0.3170    0.0680 C   0  0  0  0  0  0  0  0  0  0  0  0
   -2.4880    0.8560   -0.7250 C   0  0  0  0  0  0  0  0  0  0  0  0
   -0.2010   -0.2170   -0.6970 C   0  0  0  0  0  0  0  0  0  0  0  0
    0.9310   -0.7160    0.1530 C   0  0  1  0  0  0  0  0  0  0  0  0
    1.9940   -1.2250   -0.8360 C   0  0  0  0  0  0  0  0  0  0  0  0
    1.6000    0.4360    0.8880 C   0  0  0  0  0  0  0  0  0  0  0  0
  1  2  2  0
  2  3  1  0
  2  4  1  0
  4  5  1  0
  5  6  1  6
  5  7  1  0
M  END
