
     RDKit          3D

  6  6  0  0  0  0  0  0  0  0999 V2000
    2.0750   -0.3050   -0.1020 C   0  0  0  0  0  0  0  0  0  0  0  0
    0.7300    0.1760    0.3760 C   0  0  2  0  0  0  0  0  0  0  0  0
   -0.2220   -0.9750    0.6670 C   0  0  0  0  0  0  0  0  0  0  0  0
   -1.5680   -0.2670    0.5920 C   0  0  0  0  0  0  0  0  0  0  0  0
   -1.4300    0.8040   -0.4560 C   0  0  0  0  0  0  0  0  0  0  0  0
    0.0300    0.7860   -0.8430 C   0  0  0  0  0  0  0  0  0  0  0  0
  2  1  1  6
  2  3  1  0
  2  6  1  0
  3  4  1  0
  4  5  1  0
  5  6  1  0
M  END
