
     RDKit          3D

  7  6  0  0  0  0  0  0  0  0999 V2000
    2.3170   -0.4830    0.8650 C   0  0  0  0  0  0  0  0  0  0  0  0
    1.0920    0.3620    1.0120 C   0  0  0  0  0  0  0  0  0  0  0  0
   -0.0080   -0.0020    0.0420 C   0  0  1  0  0  0  0  0  0  0  0  0
    0.4450    0.1520   -1.3930 C   0  0  0  0  0  0  0  0  0  0  0  0
   -0.4010   -1.4370    0.3260 C   0  0  0  0  0  0  0  0  0  0  0  0
   -1.1450    0.9460    0.2760 C   0  0  0  0  0  0  0  0  0  0  0  0
   -2.3220    0.7050   -0.6240 C   0  0  0  0  0  0  0  0  0  0  0  0
  1  2  1  0
  2  3  1  0
  3  4  1  6
  3  5  1  0
  3  6  1  0
  6  7  1  0
M  END
