
     RDKit          3D

  7  7  0  0  0  0  0  0  0  0999 V2000
    3.2440   -0.1460    0.3240 C   0  0  0  0  0  0  0  0  0  0  0  0
    1.9740    0.6210    0.7010 C   0  0  0  0  0  0  0  0  0  0  0  0
    0.8290   -0.1110    0.0330 C   0  0  0  0  0  0  0  0  0  0  0  0
   -0.4990    0.5530    0.3300 C   0  0  0  0  0  0  0  0  0  0  0  0
   -1.6140   -0.1980   -0.3480 C   0  0  2  0  0  0  0  0  0  0  0  0
   -3.0120    0.2750   -0.1970 C   0  0  0  0  0  0  0  0  0  0  0  0
   -2.5590   -0.9200    0.5780 C   0  0  0  0  0  0  0  0  0  0  0  0
  1  2  1  0
  2  3  1  0
  3  4  1  0
  5  4  1  1
  5  6  1  0
  5  7  1  0
  6  7  1  0
M  END
