
     RDKit          3D

  7  6  0  0  0  0  0  0  0  0999 V2000
   -1.1880   -1.5730    0.4360 C   0  0  0  0  0  0  0  0  0  0  0  0
   -0.7470   -0.1510    0.5840 C   0  0  2  0  0  0  0  0  0  0  0  0
   -1.7660    0.7460   -0.0880 C   0  0  0  0  0  0  0  0  0  0  0  0
    0.5880    0.1380   -0.0380 C   0  0  2  0  0  0  0  0  0  0  0  0
    1.7020   -0.6930    0.5610 C   0  0  0  0  0  0  0  0  0  0  0  0
    0.9260    1.5950    0.3160 C   0  0  0  0  0  0  0  0  0  0  0  0
    0.5420   -0.0830   -1.5150 C   0  0  0  0  0  0  0  0  0  0  0  0
  2  1  1  6
  2  3  1  0
  2  4  1  0
  4  5  1  1
  4  6  1  0
  4  7  1  0
M  END
