
     RDKit          3D

  7  7  0  0  0  0  0  0  0  0999 V2000
    1.5850   -1.0100   -0.1070 C   0  0  0  0  0  0  0  0  0  0  0  0
    0.7320    0.2270   -0.1820 C   0  0  1  0  0  0  0  0  0  0  0  0
    1.2300    1.3740    0.6640 C   0  0  0  0  0  0  0  0  0  0  0  0
   -0.0950    0.5570   -1.3420 C   0  0  0  0  0  0  0  0  0  0  0  0
   -0.7590   -0.0700   -0.2110 C   0  0  2  0  0  0  0  0  0  0  0  0
   -1.5210    0.6860    0.8380 C   0  0  0  0  0  0  0  0  0  0  0  0
   -1.2100   -1.5010   -0.3910 C   0  0  0  0  0  0  0  0  0  0  0  0
  2  1  1  6
  2  3  1  0
  2  4  1  0
  2  5  1  0
  4  5  1  0
  5  6  1  1
  5  7  1  0
M  END
