
     RDKit          3D

 20 22  0  0  0  0  0  0  0  0999 V2000
    5.1630    0.7050    0.0950 N   0  0  0  0  0  0  0  0  0  0  0  0
    4.1450    0.0910   -0.6460 C   0  0  0  0  0  0  0  0  0  0  0  0
    4.3200   -0.5550   -1.8120 N   0  0  0  0  0  0  0  0  0  0  0  0
    3.3030   -1.1270   -2.4820 C   0  0  0  0  0  0  0  0  0  0  0  0
    2.0510   -1.0690   -1.9940 N   0  0  0  0  0  0  0  0  0  0  0  0
    1.8100   -0.4350   -0.8260 C   0  0  0  0  0  0  0  0  0  0  0  0
    2.8500    0.1530   -0.1370 C   0  0  0  0  0  0  0  0  0  0  0  0
    2.3210    0.7160    0.9970 C   0  0  0  0  0  0  0  0  0  0  0  0
    3.4330    1.7540    2.4410 I   0  0  0  0  0  0  0  0  0  0  0  0
    0.9520    0.4680    0.9950 C   0  0  0  0  0  0  0  0  0  0  0  0
    0.6760   -0.2280   -0.1170 N   0  0  0  0  0  0  0  0  0  0  0  0
   -0.6470   -0.6780   -0.4820 C   0  0  2  0  0  0  0  0  0  0  0  0
   -1.3420    0.3690   -1.0360 O   0  0  0  0  0  0  0  0  0  0  0  0
   -2.6490    0.3010   -0.5760 C   0  0  2  0  0  0  0  0  0  0  0  0
   -3.3440    1.6430   -0.6270 C   0  0  0  0  0  0  0  0  0  0  0  0
   -4.6410    1.4650   -0.1470 O   0  0  0  0  0  0  0  0  0  0  0  0
   -2.4400   -0.0390    0.8860 C   0  0  1  0  0  0  0  0  0  0  0  0
   -3.6080   -0.5180    1.4680 O   0  0  0  0  0  0  0  0  0  0  0  0
   -1.3850   -1.1190    0.7600 C   0  0  1  0  0  0  0  0  0  0  0  0
   -2.0040   -2.3240    0.4770 O   0  0  0  0  0  0  0  0  0  0  0  0
  1  2  1  0
  2  3  2  0
  2  7  1  0
  3  4  1  0
  4  5  2  0
  5  6  1  0
  6  7  2  0
  6 11  1  0
  7  8  1  0
  8  9  1  0
  8 10  2  0
 10 11  1  0
 12 11  1  1
 12 13  1  0
 12 19  1  0
 13 14  1  0
 14 15  1  1
 14 17  1  0
 15 16  1  0
 17 18  1  6
 17 19  1  0
 19 20  1  6
M  END
