
     RDKit          3D

  7  7  0  0  0  0  0  0  0  0999 V2000
   -2.2430   -1.1640    0.0290 C   0  0  0  0  0  0  0  0  0  0  0  0
   -1.1770   -0.2110    0.5590 C   0  0  2  0  0  0  0  0  0  0  0  0
   -1.4530    1.1410   -0.0240 C   0  0  0  0  0  0  0  0  0  0  0  0
    0.1550   -0.6820    0.0080 C   0  0  0  0  0  0  0  0  0  0  0  0
    1.2950    0.1760    0.4580 C   0  0  1  0  0  0  0  0  0  0  0  0
    2.6440   -0.2500   -0.0630 C   0  0  0  0  0  0  0  0  0  0  0  0
    1.9950    1.0510   -0.5240 C   0  0  0  0  0  0  0  0  0  0  0  0
  2  1  1  6
  2  3  1  0
  2  4  1  0
  5  4  1  6
  5  6  1  0
  5  7  1  0
  6  7  1  0
M  END
