
     RDKit          3D

 20 22  0  0  0  0  0  0  0  0999 V2000
    5.0440   -0.4960    0.6000 N   0  0  0  0  0  0  0  0  0  0  0  0
    3.7630    0.0110    0.9580 C   0  0  0  0  0  0  0  0  0  0  0  0
    3.5250    0.5100    2.1760 N   0  0  0  0  0  0  0  0  0  0  0  0
    2.3020    0.9790    2.4770 C   0  0  0  0  0  0  0  0  0  0  0  0
    1.3070    0.9510    1.5560 N   0  0  0  0  0  0  0  0  0  0  0  0
    1.5170    0.4510    0.3130 C   0  0  0  0  0  0  0  0  0  0  0  0
    2.7760   -0.0340   -0.0040 C   0  0  0  0  0  0  0  0  0  0  0  0
    2.7130   -0.4780   -1.3190 C   0  0  0  0  0  0  0  0  0  0  0  0
    4.3220   -1.3260   -2.3710 I   0  0  0  0  0  0  0  0  0  0  0  0
    1.4210   -0.2540   -1.7750 C   0  0  0  0  0  0  0  0  0  0  0  0
    0.7270    0.3050   -0.7690 N   0  0  0  0  0  0  0  0  0  0  0  0
   -0.6670    0.6940   -0.8410 C   0  0  2  0  0  0  0  0  0  0  0  0
   -1.2760    0.7410    0.3840 O   0  0  0  0  0  0  0  0  0  0  0  0
   -2.5760    0.2600    0.2240 C   0  0  2  0  0  0  0  0  0  0  0  0
   -3.1850   -0.1610    1.5370 C   0  0  0  0  0  0  0  0  0  0  0  0
   -3.2080    0.9630    2.3700 O   0  0  0  0  0  0  0  0  0  0  0  0
   -2.3390   -0.9260   -0.6920 C   0  0  1  0  0  0  0  0  0  0  0  0
   -3.4930   -1.4110   -1.2550 O   0  0  0  0  0  0  0  0  0  0  0  0
   -1.4210   -0.2650   -1.7150 C   0  0  1  0  0  0  0  0  0  0  0  0
   -2.2470    0.4780   -2.5580 O   0  0  0  0  0  0  0  0  0  0  0  0
  1  2  1  0
  2  3  2  0
  2  7  1  0
  3  4  1  0
  4  5  2  0
  5  6  1  0
  6  7  2  0
  6 11  1  0
  7  8  1  0
  8  9  1  0
  8 10  2  0
 10 11  1  0
 12 11  1  1
 12 13  1  0
 12 19  1  0
 13 14  1  0
 14 15  1  1
 14 17  1  0
 15 16  1  0
 17 18  1  6
 17 19  1  0
 19 20  1  6
M  END
