
     RDKit          3D

  7  7  0  0  0  0  0  0  0  0999 V2000
    2.2200   -0.3570   -0.0660 C   0  0  0  0  0  0  0  0  0  0  0  0
    0.9480    0.3150    0.4700 C   0  0  2  0  0  0  0  0  0  0  0  0
    0.0970   -0.7260    1.0940 C   0  0  0  0  0  0  0  0  0  0  0  0
   -0.9910   -1.2420    0.1940 C   0  0  0  0  0  0  0  0  0  0  0  0
   -1.8590   -0.0630   -0.1580 C   0  0  0  0  0  0  0  0  0  0  0  0
   -1.1390    1.0950   -0.7170 C   0  0  0  0  0  0  0  0  0  0  0  0
    0.3340    1.0860   -0.6340 C   0  0  0  0  0  0  0  0  0  0  0  0
  2  1  1  6
  2  3  1  0
  2  7  1  0
  3  4  1  0
  4  5  1  0
  5  6  1  0
  6  7  1  0
M  END
