
     RDKit          3D

  7  7  0  0  0  0  0  0  0  0999 V2000
   -2.2690    1.0770   -0.0340 C   0  0  0  0  0  0  0  0  0  0  0  0
   -1.1510    0.1200    0.2650 C   0  0  1  0  0  0  0  0  0  0  0  0
   -1.5290   -1.2700   -0.1750 C   0  0  0  0  0  0  0  0  0  0  0  0
    0.1610    0.5790   -0.3710 C   0  0  0  0  0  0  0  0  0  0  0  0
    1.2400   -0.4100   -0.0420 C   0  0  1  0  0  0  0  0  0  0  0  0
    2.6210   -0.2400   -0.5160 C   0  0  0  0  0  0  0  0  0  0  0  0
    2.3070    0.1030    0.9150 C   0  0  0  0  0  0  0  0  0  0  0  0
  2  1  1  6
  2  3  1  0
  2  4  1  0
  5  4  1  6
  5  6  1  0
  5  7  1  0
  6  7  1  0
M  END
