
     RDKit          3D

  6  6  0  0  0  0  0  0  0  0999 V2000
    1.8490    0.4250    0.5130 C   0  0  0  0  0  0  0  0  0  0  0  0
    0.7740    0.0380   -0.4840 C   0  0  2  0  0  0  0  0  0  0  0  0
   -0.2900    1.1150   -0.4790 C   0  0  0  0  0  0  0  0  0  0  0  0
   -1.5750    0.3130   -0.4950 C   0  0  0  0  0  0  0  0  0  0  0  0
   -1.2460   -0.7490    0.5640 C   0  0  0  0  0  0  0  0  0  0  0  0
    0.1040   -1.2280    0.0170 C   0  0  0  0  0  0  0  0  0  0  0  0
  2  1  1  1
  2  3  1  0
  2  6  1  0
  3  4  1  0
  4  5  1  0
  5  6  1  0
M  END
