
     RDKit          3D

  7  6  0  0  0  0  0  0  0  0999 V2000
   -2.0710    1.1600   -0.2780 C   0  0  0  0  0  0  0  0  0  0  0  0
   -1.3960    0.2300    0.6970 C   0  0  0  0  0  0  0  0  0  0  0  0
   -0.0650   -0.2620    0.2390 C   0  0  1  0  0  0  0  0  0  0  0  0
    0.4650   -1.1710    1.3210 C   0  0  0  0  0  0  0  0  0  0  0  0
   -0.1870   -1.1090   -1.0210 C   0  0  0  0  0  0  0  0  0  0  0  0
    0.8830    0.8660   -0.0760 C   0  0  0  0  0  0  0  0  0  0  0  0
    2.2300    0.3620   -0.5400 C   0  0  0  0  0  0  0  0  0  0  0  0
  1  2  1  0
  2  3  1  0
  3  4  1  1
  3  5  1  0
  3  6  1  0
  6  7  1  0
M  END
