
     RDKit          3D

  7  6  0  0  0  0  0  0  0  0999 V2000
    1.2110   -1.5460    0.0290 C   0  0  0  0  0  0  0  0  0  0  0  0
    0.8530   -0.1370    0.4020 C   0  0  1  0  0  0  0  0  0  0  0  0
    1.8490    0.7970   -0.2290 C   0  0  0  0  0  0  0  0  0  0  0  0
   -0.5700    0.2040    0.0630 C   0  0  2  0  0  0  0  0  0  0  0  0
   -0.9640    1.5910    0.4170 C   0  0  0  0  0  0  0  0  0  0  0  0
   -1.4540   -0.7490    0.8810 C   0  0  0  0  0  0  0  0  0  0  0  0
   -0.8980   -0.0470   -1.3840 C   0  0  0  0  0  0  0  0  0  0  0  0
  2  1  1  6
  2  3  1  0
  2  4  1  0
  4  5  1  1
  4  6  1  0
  4  7  1  0
M  END
