
     RDKit          3D

  7  6  0  0  0  0  0  0  0  0999 V2000
   -2.1110   -1.2730   -0.2590 C   0  0  0  0  0  0  0  0  0  0  0  0
   -1.5490   -0.0980   -0.0350 C   0  0  0  0  0  0  0  0  0  0  0  0
   -1.8250    1.0150   -0.9740 C   0  0  0  0  0  0  0  0  0  0  0  0
   -0.6600    0.1100    1.1320 C   0  0  0  0  0  0  0  0  0  0  0  0
    0.7420    0.5310    0.6910 C   0  0  0  0  0  0  0  0  0  0  0  0
    1.3550   -0.5470   -0.1940 C   0  0  0  0  0  0  0  0  0  0  0  0
    2.7380   -0.0950   -0.6090 C   0  0  0  0  0  0  0  0  0  0  0  0
  1  2  2  0
  2  3  1  0
  2  4  1  0
  4  5  1  0
  5  6  1  0
  6  7  1  0
M  END
