
     RDKit          3D

  7  6  0  0  0  0  0  0  0  0999 V2000
   -2.3510    0.8480   -0.8000 C   0  0  0  0  0  0  0  0  0  0  0  0
   -1.4610    0.0730   -0.1420 C   0  0  0  0  0  0  0  0  0  0  0  0
   -1.7320   -1.3700    0.0440 C   0  0  0  0  0  0  0  0  0  0  0  0
   -0.2490    0.6950    0.4070 C   0  0  0  0  0  0  0  0  0  0  0  0
    1.0460    0.2710   -0.1800 C   0  0  2  0  0  0  0  0  0  0  0  0
    1.3890   -1.1680   -0.0530 C   0  0  0  0  0  0  0  0  0  0  0  0
    2.1320    1.1830    0.3670 C   0  0  0  0  0  0  0  0  0  0  0  0
  1  2  2  0
  2  3  1  0
  2  4  1  0
  4  5  1  0
  5  6  1  1
  5  7  1  0
M  END
