
     RDKit          3D

  7  6  0  0  0  0  0  0  0  0999 V2000
    3.4490   -0.4760   -0.3220 C   0  0  0  0  0  0  0  0  0  0  0  0
    2.4220    0.3460   -0.1500 C   0  0  0  0  0  0  0  0  0  0  0  0
    1.1030    0.0510   -0.7830 C   0  0  0  0  0  0  0  0  0  0  0  0
    0.0900   -0.0770    0.3210 C   0  0  0  0  0  0  0  0  0  0  0  0
   -1.2970   -0.3790   -0.2110 C   0  0  1  0  0  0  0  0  0  0  0  0
   -2.2450   -0.4910    0.9660 C   0  0  0  0  0  0  0  0  0  0  0  0
   -1.7680    0.8260   -1.0070 C   0  0  0  0  0  0  0  0  0  0  0  0
  1  2  2  0
  2  3  1  0
  3  4  1  0
  4  5  1  0
  5  6  1  1
  5  7  1  0
M  END
