
     RDKit          3D

 15 15  0  0  0  0  0  0  0  0999 V2000
   -2.8040    4.3990    0.6230 N   0  0  0  0  0  0  0  0  0  0  0  0
   -2.8940    3.1690    0.3730 C   0  0  0  0  0  0  0  0  0  0  0  0
   -3.0380    1.4960    0.0110 C   0  0  0  0  0  0  0  0  0  0  0  0
   -2.0660    0.8700    1.4610 S   0  0  0  0  0  0  0  0  0  0  0  0
   -0.7020   -0.1070    0.8290 C   0  0  0  0  0  0  0  0  0  0  0  0
    0.5310    0.3850    0.5550 N   0  0  0  0  0  0  0  0  0  0  0  0
    1.4460   -0.3880   -0.1020 C   0  0  0  0  0  0  0  0  0  0  0  0
    2.8790   -0.0530   -0.1550 C   0  0  0  0  0  0  0  0  0  0  0  0
    3.4320    1.3980   -0.9620 S   0  0  0  0  0  0  0  0  0  0  0  0
    4.5490    2.2800    0.0350 O   0  0  0  0  0  0  0  0  0  0  0  0
    1.0400   -1.6430   -0.4590 N   0  0  0  0  0  0  0  0  0  0  0  0
   -0.1520   -2.1800   -0.1990 C   0  0  0  0  0  0  0  0  0  0  0  0
   -0.4110   -3.3570   -0.5370 O   0  0  0  0  0  0  0  0  0  0  0  0
   -0.9910   -1.3770    0.4630 C   0  0  0  0  0  0  0  0  0  0  0  0
   -2.3130   -1.9250    0.8900 N   0  0  0  0  0  0  0  0  0  0  0  0
  1  2  3  0
  2  3  1  0
  3  4  1  0
  4  5  1  0
  5  6  1  0
  5 14  2  0
  6  7  2  0
  7  8  1  0
  7 11  1  0
  8  9  1  0
  9 10  1  0
 11 12  1  0
 12 13  2  0
 12 14  1  0
 14 15  1  0
M  END
