
     RDKit          3D

 16 15  0  0  0  0  0  0  0  0999 V2000
   -3.1710   -0.0560    1.2680 C   0  0  0  0  0  0  0  0  0  0  0  0
   -3.8420    0.0840   -0.0770 C   0  0  1  0  0  0  0  0  0  0  0  0
   -4.8970   -0.9980   -0.1650 C   0  0  0  0  0  0  0  0  0  0  0  0
   -4.5410    1.4190   -0.2210 C   0  0  0  0  0  0  0  0  0  0  0  0
   -2.8550   -0.1180   -1.1160 N   0  0  0  0  0  0  0  0  0  0  0  0
   -1.7310    0.6610   -1.2760 N   0  0  0  0  0  0  0  0  0  0  0  0
   -0.5850    0.4870   -0.7640 C   0  0  0  0  0  0  0  0  0  0  0  0
   -0.2780   -0.5900    0.0920 N   0  0  0  0  0  0  0  0  0  0  0  0
    0.7220    1.6650   -1.1400 S   0  0  0  0  0  0  0  0  0  0  0  0
    2.2490    1.2240   -0.3100 C   0  0  0  0  0  0  0  0  0  0  0  0
    2.8410   -0.3440   -1.0210 S   0  0  0  0  0  0  0  0  0  0  0  0
    4.3860   -0.8730   -0.2370 C   0  0  0  0  0  0  0  0  0  0  0  0
    5.4010    0.0990   -0.5900 N   0  0  0  0  0  0  0  0  0  0  0  0
    6.9210   -0.2950    0.0980 S   0  0  1  0  0  0  0  0  0  0  0  0
    7.7060    0.9560    0.3830 O   0  0  0  0  0  0  0  0  0  0  0  0
    6.7550   -1.0590    1.3740 O   0  0  0  0  0  0  0  0  0  0  0  0
  2  1  1  1
  2  3  1  0
  2  4  1  0
  2  5  1  0
  5  6  1  0
  6  7  2  3
  7  8  1  0
  7  9  1  0
  9 10  1  0
 10 11  1  0
 11 12  1  0
 12 13  1  0
 14 13  1  1
 14 15  2  0
 14 16  2  0
M  END
