
     RDKit          3D

 16 15  0  0  0  0  0  0  0  0999 V2000
    2.0730   -1.1100    0.0580 N   0  0  0  0  0  0  0  0  0  0  0  0
    1.3570   -0.0330   -0.0110 C   0  0  0  0  0  0  0  0  0  0  0  0
   -0.0530   -0.0310    0.2310 N   0  0  0  0  0  0  0  0  0  0  0  0
   -0.7800   -1.0530    0.0120 C   0  0  0  0  0  0  0  0  0  0  0  0
   -2.2020   -1.0840    0.2450 C   0  0  0  0  0  0  0  0  0  0  0  0
   -2.8900   -2.1670    0.0020 C   0  0  0  0  0  0  0  0  0  0  0  0
   -2.2150   -3.3150   -0.4960 N   0  0  0  0  0  0  0  0  0  0  0  0
   -3.0020    0.3370    0.8510 S   0  0  1  0  0  0  0  0  0  0  0  0
   -4.2330   -0.0050    1.6630 O   0  0  0  0  0  0  0  0  0  0  0  0
   -2.1080    1.1330    1.7280 O   0  0  0  0  0  0  0  0  0  0  0  0
   -3.5640    1.3800   -0.4830 C   0  0  0  0  0  0  0  0  0  0  0  0
   -2.1740    1.9260   -1.5160 S   0  0  0  0  0  0  0  0  0  0  0  0
    2.0640    1.1530   -0.3470 N   0  0  0  0  0  0  0  0  0  0  0  0
    3.4500    1.3610   -0.1970 C   0  0  0  0  0  0  0  0  0  0  0  0
    4.0030    1.4470    1.1790 C   0  0  0  0  0  0  0  0  0  0  0  0
    3.7270   -0.0560    2.1520 S   0  0  0  0  0  0  0  0  0  0  0  0
  1  2  2  0
  2  3  1  0
  2 13  1  0
  3  4  2  3
  4  5  1  0
  5  6  2  3
  5  8  1  0
  6  7  1  0
  8  9  2  0
  8 10  2  0
  8 11  1  6
 11 12  1  0
 13 14  1  0
 14 15  1  0
 15 16  1  0
M  END
