
     RDKit          3D

 16 16  0  0  0  0  0  0  0  0999 V2000
   -1.1790   -2.6590   -0.1370 C   0  0  0  0  0  0  0  0  0  0  0  0
   -1.7780   -1.3170    0.2240 C   0  0  2  0  0  0  0  0  0  0  0  0
   -3.2090   -1.3340   -0.2870 C   0  0  0  0  0  0  0  0  0  0  0  0
   -1.0660   -0.1660   -0.4000 C   0  0  2  0  0  0  0  0  0  0  0  0
    0.3910   -0.0880    0.0010 C   0  0  0  0  0  0  0  0  0  0  0  0
    1.2110    1.3270   -0.7830 S   0  0  0  0  0  0  0  0  0  0  0  0
    2.9230    1.3350   -0.2510 C   0  0  0  0  0  0  0  0  0  0  0  0
    3.8860    2.2220   -0.6010 N   0  0  0  0  0  0  0  0  0  0  0  0
    5.0240    1.8960   -0.0030 N   0  0  0  0  0  0  0  0  0  0  0  0
    4.8200    0.7950    0.7430 C   0  0  0  0  0  0  0  0  0  0  0  0
    5.9600    0.0360    1.6600 S   0  0  0  0  0  0  0  0  0  0  0  0
    3.5310    0.4680    0.5790 N   0  0  0  0  0  0  0  0  0  0  0  0
   -1.6840    1.0580    0.0510 N   0  0  0  0  0  0  0  0  0  0  0  0
   -2.3200    2.0450   -1.1690 S   0  0  1  0  0  0  0  0  0  0  0  0
   -2.8920    1.2910   -2.3330 O   0  0  0  0  0  0  0  0  0  0  0  0
   -3.4310    2.8790   -0.5860 O   0  0  0  0  0  0  0  0  0  0  0  0
  2  1  1  6
  2  3  1  0
  2  4  1  0
  4  5  1  1
  4 13  1  0
  5  6  1  0
  6  7  1  0
  7  8  2  0
  7 12  1  0
  8  9  1  0
  9 10  1  0
 10 11  2  0
 10 12  1  0
 14 13  1  1
 14 15  2  0
 14 16  2  0
M  END
