
     RDKit          3D

 16 16  0  0  0  0  0  0  0  0999 V2000
   -1.7050   -4.0040   -0.0170 C   0  0  0  0  0  0  0  0  0  0  0  0
   -0.5370   -2.6700   -0.4230 S   0  0  0  0  0  0  0  0  0  0  0  0
   -1.3030   -1.0730    0.0130 C   0  0  0  0  0  0  0  0  0  0  0  0
   -0.3530    0.0580   -0.3040 C   0  0  1  0  0  0  0  0  0  0  0  0
   -0.9550    1.2950    0.0390 N   0  0  0  0  0  0  0  0  0  0  0  0
   -0.3680    2.4510   -0.5580 C   0  0  0  0  0  0  0  0  0  0  0  0
   -1.1460    3.6720   -0.0760 C   0  0  0  0  0  0  0  0  0  0  0  0
   -2.5040    3.5070   -0.4970 N   0  0  0  0  0  0  0  0  0  0  0  0
    0.9930   -0.1740    0.3160 C   0  0  0  0  0  0  0  0  0  0  0  0
    1.3600    0.5880    1.3190 C   0  0  0  0  0  0  0  0  0  0  0  0
    2.9570    0.3910    2.1290 S   0  0  0  0  0  0  0  0  0  0  0  0
    3.8810   -1.2110    1.0970 S   0  0  1  0  0  0  0  0  0  0  0  0
    4.6490   -0.6660   -0.0750 O   0  0  0  0  0  0  0  0  0  0  0  0
    4.7730   -2.0000    1.9730 O   0  0  0  0  0  0  0  0  0  0  0  0
    2.5150   -2.1350    0.5140 N   0  0  0  0  0  0  0  0  0  0  0  0
    1.7570   -1.2350   -0.2390 N   0  0  0  0  0  0  0  0  0  0  0  0
  1  2  1  0
  2  3  1  0
  4  3  1  1
  4  5  1  0
  4  9  1  0
  5  6  1  0
  6  7  1  0
  7  8  1  0
  9 10  2  0
  9 16  1  0
 10 11  1  0
 11 12  1  0
 12 13  2  0
 12 14  2  0
 12 15  1  6
 15 16  1  0
M  END
