
     RDKit          3D

 16 16  0  0  0  0  0  0  0  0999 V2000
    0.5740    0.7110   -1.4900 C   0  0  0  0  0  0  0  0  0  0  0  0
    0.1840    0.4320   -0.1890 N   0  0  0  0  0  0  0  0  0  0  0  0
    0.4420   -0.3410    0.7430 C   0  0  0  0  0  0  0  0  0  0  0  0
   -0.3730   -0.1170    1.9460 N   0  0  0  0  0  0  0  0  0  0  0  0
   -1.4600    0.8160    1.8940 C   0  0  0  0  0  0  0  0  0  0  0  0
   -2.5620    0.3090    1.0240 C   0  0  0  0  0  0  0  0  0  0  0  0
   -3.0640    0.8450   -0.0640 C   0  0  0  0  0  0  0  0  0  0  0  0
   -4.0920    0.1810   -0.7010 N   0  0  0  0  0  0  0  0  0  0  0  0
   -4.1820   -1.2420   -0.4440 C   0  0  0  0  0  0  0  0  0  0  0  0
   -3.4930   -1.2110    1.2660 S   0  0  0  0  0  0  0  0  0  0  0  0
    1.5760   -1.6790    0.8660 S   0  0  0  0  0  0  0  0  0  0  0  0
    2.8620   -1.7770   -0.3470 C   0  0  0  0  0  0  0  0  0  0  0  0
    4.1250   -0.5520   -0.1480 S   0  0  2  0  0  0  0  0  0  0  0  0
    3.4980    1.0240   -0.2440 N   0  0  0  0  0  0  0  0  0  0  0  0
    5.1790   -0.7880   -1.2030 O   0  0  0  0  0  0  0  0  0  0  0  0
    4.7790   -0.8110    1.1920 O   0  0  0  0  0  0  0  0  0  0  0  0
  1  2  1  0
  2  3  2  3
  3  4  1  0
  3 11  1  0
  4  5  1  0
  5  6  1  0
  6  7  2  0
  6 10  1  0
  7  8  1  0
  8  9  1  0
  9 10  1  0
 11 12  1  0
 12 13  1  0
 13 14  1  1
 13 15  2  0
 13 16  2  0
M  END
