
     RDKit          3D

 16 16  0  0  0  0  0  0  0  0999 V2000
    1.3530    0.1910   -0.9310 C   0  0  0  0  0  0  0  0  0  0  0  0
    1.2470   -1.2290   -0.4750 C   0  0  1  0  0  0  0  0  0  0  0  0
    2.5450   -1.8630   -0.0790 C   0  0  0  0  0  0  0  0  0  0  0  0
    3.3290   -1.0670    1.2110 S   0  0  0  0  0  0  0  0  0  0  0  0
    4.0190    0.8130    0.8630 S   0  0  1  0  0  0  0  0  0  0  0  0
    3.2630    1.6510    1.8390 O   0  0  0  0  0  0  0  0  0  0  0  0
    5.4740    0.6770    1.1560 O   0  0  0  0  0  0  0  0  0  0  0  0
    0.0260   -1.3000    0.8740 S   0  0  0  0  0  0  0  0  0  0  0  0
   -1.5700   -0.9210    0.1840 C   0  0  0  0  0  0  0  0  0  0  0  0
   -2.3660   -1.8830   -0.3110 N   0  0  0  0  0  0  0  0  0  0  0  0
   -3.5840   -1.6010   -0.8330 C   0  0  0  0  0  0  0  0  0  0  0  0
   -3.9960   -0.3410   -0.8530 N   0  0  0  0  0  0  0  0  0  0  0  0
   -3.2780    0.6840   -0.3850 C   0  0  0  0  0  0  0  0  0  0  0  0
   -3.7540    2.0040   -0.4230 N   0  0  0  0  0  0  0  0  0  0  0  0
   -2.0220    0.3770    0.1510 C   0  0  0  0  0  0  0  0  0  0  0  0
   -1.1830    1.3930    0.6750 N   0  0  0  0  0  0  0  0  0  0  0  0
  2  1  1  1
  2  3  1  0
  2  8  1  0
  3  4  1  0
  5  4  1  1
  5  6  2  0
  5  7  2  0
  8  9  1  0
  9 10  2  0
  9 15  1  0
 10 11  1  0
 11 12  2  0
 12 13  1  0
 13 14  1  0
 13 15  2  0
 15 16  1  0
M  END
