
     RDKit          3D

 26 27  0  0  0  0  0  0  0  0999 V2000
   -0.5600    1.5930   -0.6040 C   0  0  0  0  0  0  0  0  0  0  0  0
   -1.8390    0.7710   -0.5550 C   0  0  0  0  0  0  0  0  0  0  0  0
   -3.0780    1.2680   -0.7200 C   0  0  0  0  0  0  0  0  0  0  0  0
   -4.1540    0.4880   -0.6740 C   0  0  0  0  0  0  0  0  0  0  0  0
   -5.5780    0.7570   -0.8160 C   0  0  0  0  0  0  0  0  0  0  0  0
   -6.4820   -0.3220   -0.7100 N   0  0  0  0  0  0  0  0  0  0  0  0
   -6.0100    1.9350   -1.0310 N   0  0  0  0  0  0  0  0  0  0  0  0
   -7.7270    2.1980   -1.1940 S   0  0  0  0  0  0  0  0  0  0  0  0
   -8.5220    0.9120   -1.0720 O   0  0  0  0  0  0  0  0  0  0  0  0
   -3.4450   -1.1290   -0.3700 S   0  0  0  0  0  0  0  0  0  0  0  0
   -1.7650   -0.5950   -0.3350 C   0  0  0  0  0  0  0  0  0  0  0  0
   -0.5890   -1.4680   -0.1070 C   0  0  0  0  0  0  0  0  0  0  0  0
   -0.7720   -2.7710    0.0530 C   0  0  0  0  0  0  0  0  0  0  0  0
    0.3220   -3.7100    0.2820 C   0  0  1  0  0  0  0  0  0  0  0  0
    1.5390   -3.2930   -0.1770 F   0  0  0  0  0  0  0  0  0  0  0  0
    0.4110   -3.9560    1.6590 F   0  0  0  0  0  0  0  0  0  0  0  0
    0.0410   -4.9350   -0.3440 F   0  0  0  0  0  0  0  0  0  0  0  0
    0.6900   -0.9630   -0.0560 O   0  0  0  0  0  0  0  0  0  0  0  0
    1.3630   -0.6090    1.1100 C   0  0  0  0  0  0  0  0  0  0  0  0
    2.7350   -0.0740    0.9800 C   0  0  2  0  0  0  0  0  0  0  0  0
    3.1880    0.1710    2.3000 O   0  0  0  0  0  0  0  0  0  0  0  0
    2.7250    1.2870    0.2870 C   0  0  0  0  0  0  0  0  0  0  0  0
    4.0670    1.9750    0.4910 C   0  0  0  0  0  0  0  0  0  0  0  0
    5.1840    0.9990    0.6660 C   0  0  0  0  0  0  0  0  0  0  0  0
    4.9660   -0.2390   -0.1470 C   0  0  0  0  0  0  0  0  0  0  0  0
    3.7350   -0.9620    0.3220 C   0  0  0  0  0  0  0  0  0  0  0  0
  1  2  1  0
  2  3  1  0
  2 11  2  0
  3  4  2  0
  4  5  1  0
  4 10  1  0
  5  6  1  0
  5  7  2  3
  7  8  1  0
  8  9  2  0
 10 11  1  0
 11 12  1  0
 12 13  2  3
 12 18  1  0
 13 14  1  0
 14 15  1  6
 14 16  1  0
 14 17  1  0
 18 19  1  0
 19 20  1  0
 20 21  1  1
 20 22  1  0
 20 26  1  0
 22 23  1  0
 23 24  1  0
 24 25  1  0
 25 26  1  0
M  END
