
     RDKit          3D

 26 27  0  0  0  0  0  0  0  0999 V2000
   -3.2250   -2.3220    0.5430 C   0  0  0  0  0  0  0  0  0  0  0  0
   -4.1830   -1.2160    0.3640 C   0  0  0  0  0  0  0  0  0  0  0  0
   -5.5560   -1.4800    0.4490 C   0  0  0  0  0  0  0  0  0  0  0  0
   -6.5050   -0.5090    0.3110 C   0  0  0  0  0  0  0  0  0  0  0  0
   -6.1470    0.7550    0.0840 N   0  0  0  0  0  0  0  0  0  0  0  0
   -4.8230    1.0370   -0.0030 C   0  0  0  0  0  0  0  0  0  0  0  0
   -4.5460    2.2330   -0.2160 O   0  0  0  0  0  0  0  0  0  0  0  0
   -3.8360    0.0920    0.1300 C   0  0  0  0  0  0  0  0  0  0  0  0
   -2.3830    0.4430   -0.0090 C   0  0  0  0  0  0  0  0  0  0  0  0
   -1.7800    1.6120   -0.1550 C   0  0  0  0  0  0  0  0  0  0  0  0
   -0.4320    1.6860   -0.2590 C   0  0  0  0  0  0  0  0  0  0  0  0
    0.2820    2.9900   -0.4300 C   0  0  0  0  0  0  0  0  0  0  0  0
   -0.4690    4.1590   -0.6550 N   0  0  0  0  0  0  0  0  0  0  0  0
    1.5000    3.0680   -0.3820 O   0  0  0  0  0  0  0  0  0  0  0  0
    0.2890    0.5360   -0.2120 C   0  0  0  0  0  0  0  0  0  0  0  0
    1.9350   -0.0310   -0.3140 S   0  0  0  0  0  0  0  0  0  0  0  0
    3.2890    1.0160   -0.5580 C   0  0  0  0  0  0  0  0  0  0  0  0
    4.5460    0.1500   -0.7010 C   0  0  0  0  0  0  0  0  0  0  0  0
    5.6230    0.7180   -0.8510 O   0  0  0  0  0  0  0  0  0  0  0  0
    4.3960   -1.3030   -0.6550 C   0  0  0  0  0  0  0  0  0  0  0  0
    4.9820   -1.9510    0.5440 C   0  0  0  0  0  0  0  0  0  0  0  0
    6.4420   -1.8030    0.7600 C   0  0  2  0  0  0  0  0  0  0  0  0
    6.7820   -2.5110    1.9340 F   0  0  0  0  0  0  0  0  0  0  0  0
    6.8390   -0.4950    0.9720 F   0  0  0  0  0  0  0  0  0  0  0  0
    7.1710   -2.2490   -0.3250 F   0  0  0  0  0  0  0  0  0  0  0  0
   -1.0890   -0.7210   -0.0010 S   0  0  0  0  0  0  0  0  0  0  0  0
  1  2  1  0
  2  3  1  0
  2  8  2  0
  3  4  2  0
  4  5  1  0
  5  6  1  0
  6  7  2  0
  6  8  1  0
  8  9  1  0
  9 10  2  0
  9 26  1  0
 10 11  1  0
 11 12  1  0
 11 15  2  0
 12 13  1  0
 12 14  2  0
 15 16  1  0
 15 26  1  0
 16 17  1  0
 17 18  1  0
 18 19  2  0
 18 20  1  0
 20 21  1  0
 21 22  1  0
 22 23  1  1
 22 24  1  0
 22 25  1  0
M  END
