
     RDKit          3D

 25 26  0  0  0  0  0  0  0  0999 V2000
    3.7800   -2.9670   -0.1950 C   0  0  0  0  0  0  0  0  0  0  0  0
    4.3150   -1.5400   -0.3460 C   0  0  0  0  0  0  0  0  0  0  0  0
    5.9110   -1.0910   -0.9780 S   0  0  0  0  0  0  0  0  0  0  0  0
    5.8040    0.5920   -0.3570 C   0  0  0  0  0  0  0  0  0  0  0  0
    6.9190    1.4910   -0.2570 N   0  0  0  0  0  0  0  0  0  0  0  0
    4.6220    0.6460    0.1930 C   0  0  0  0  0  0  0  0  0  0  0  0
    4.2890    1.9610    0.9270 C   0  0  2  0  0  0  0  0  0  0  0  0
    4.5430    3.0120    0.0920 F   0  0  0  0  0  0  0  0  0  0  0  0
    5.1050    1.9750    2.0480 F   0  0  0  0  0  0  0  0  0  0  0  0
    3.8500   -0.3780    0.1810 C   0  0  0  0  0  0  0  0  0  0  0  0
    2.4980   -0.3930    0.6070 C   0  0  0  0  0  0  0  0  0  0  0  0
    1.3140    0.4960    0.1510 C   0  0  0  0  0  0  0  0  0  0  0  0
    0.4470   -0.5660   -0.1950 N   0  0  0  0  0  0  0  0  0  0  0  0
   -0.6580   -0.8490    1.0630 S   0  0  2  0  0  0  0  0  0  0  0  0
    0.3590   -0.6840    2.3600 O   0  0  0  0  0  0  0  0  0  0  0  0
   -0.7800   -2.3810    1.0900 O   0  0  0  0  0  0  0  0  0  0  0  0
   -2.0380   -0.0020    1.4210 C   0  0  0  0  0  0  0  0  0  0  0  0
   -2.7330    0.1830    0.0660 C   0  0  2  0  0  0  0  0  0  0  0  0
   -1.9760   -0.4570   -0.9370 O   0  0  0  0  0  0  0  0  0  0  0  0
   -2.7290    1.6660   -0.2050 C   0  0  0  0  0  0  0  0  0  0  0  0
   -4.1630    2.0680   -0.3930 C   0  0  0  0  0  0  0  0  0  0  0  0
   -4.9790    0.9200    0.1370 C   0  0  0  0  0  0  0  0  0  0  0  0
   -4.1150   -0.3200   -0.0330 C   0  0  2  0  0  0  0  0  0  0  0  0
   -4.4860   -1.3140    1.0280 C   0  0  0  0  0  0  0  0  0  0  0  0
   -4.3610   -0.9570   -1.3900 C   0  0  0  0  0  0  0  0  0  0  0  0
  1  2  1  0
  2  3  1  0
  2 10  2  0
  3  4  1  0
  4  5  1  0
  4  6  2  0
  6  7  1  0
  6 10  1  0
  7  8  1  6
  7  9  1  0
 10 11  1  0
 11 12  1  0
 12 13  1  0
 13 14  1  0
 14 15  2  0
 14 16  2  0
 14 17  1  1
 17 18  1  0
 18 19  1  6
 18 20  1  0
 18 23  1  0
 20 21  1  0
 21 22  1  0
 22 23  1  0
 23 24  1  1
 23 25  1  0
M  END
