
     RDKit          3D

 26 27  0  0  0  0  0  0  0  0999 V2000
    5.4130    0.5590    2.3610 C   0  0  0  0  0  0  0  0  0  0  0  0
    4.5230    0.1460    1.2480 C   0  0  0  0  0  0  0  0  0  0  0  0
    4.5690    0.8900    0.0880 C   0  0  0  0  0  0  0  0  0  0  0  0
    3.7470    0.5330   -0.9820 C   0  0  0  0  0  0  0  0  0  0  0  0
    3.7990    1.3390   -2.2330 C   0  0  0  0  0  0  0  0  0  0  0  0
    2.9120   -0.5570   -0.8440 C   0  0  0  0  0  0  0  0  0  0  0  0
    2.8460   -1.3200    0.3060 C   0  0  0  0  0  0  0  0  0  0  0  0
    1.7700   -2.6700    0.3920 S   0  0  2  0  0  0  0  0  0  0  0  0
    2.5250   -3.7740    1.1320 O   0  0  0  0  0  0  0  0  0  0  0  0
    1.5520   -3.1330   -1.0530 O   0  0  0  0  0  0  0  0  0  0  0  0
    0.3060   -2.4090    1.1860 N   0  0  0  0  0  0  0  0  0  0  0  0
   -0.6730   -1.4810    0.7900 C   0  0  0  0  0  0  0  0  0  0  0  0
   -2.0090   -1.8790    0.6310 C   0  0  0  0  0  0  0  0  0  0  0  0
   -2.9770   -0.9730    0.2250 C   0  0  0  0  0  0  0  0  0  0  0  0
   -4.2890   -1.5080    0.1020 N   0  0  0  0  0  0  0  0  0  0  0  0
   -2.6680    0.3340   -0.0340 C   0  0  0  0  0  0  0  0  0  0  0  0
   -3.8660    1.4100   -0.5270 S   0  0  0  0  0  0  0  0  0  0  0  0
   -4.1540    1.9140    1.0180 C   0  0  0  0  0  0  0  0  0  0  0  0
   -3.4420    1.3380   -1.9280 O   0  0  0  0  0  0  0  0  0  0  0  0
   -5.3850    0.9920   -0.8620 C   0  0  1  0  0  0  0  0  0  0  0  0
   -5.9880    2.0570   -1.5750 F   0  0  0  0  0  0  0  0  0  0  0  0
   -5.6030   -0.0850   -1.7480 F   0  0  0  0  0  0  0  0  0  0  0  0
   -1.3670    0.6950    0.1270 C   0  0  0  0  0  0  0  0  0  0  0  0
   -1.0110    1.9790   -0.1180 F   0  0  0  0  0  0  0  0  0  0  0  0
   -0.3820   -0.1820    0.5300 C   0  0  0  0  0  0  0  0  0  0  0  0
    3.6740   -0.9360    1.3440 C   0  0  0  0  0  0  0  0  0  0  0  0
  1  2  1  0
  2  3  2  0
  2 26  1  0
  3  4  1  0
  4  5  1  0
  4  6  2  0
  6  7  1  0
  7  8  1  0
  7 26  2  0
  8  9  2  0
  8 10  2  0
  8 11  1  1
 11 12  1  0
 12 13  2  0
 12 25  1  0
 13 14  1  0
 14 15  1  0
 14 16  2  0
 16 17  1  0
 16 23  1  0
 17 18  1  0
 17 19  2  0
 17 20  1  0
 20 21  1  6
 20 22  1  0
 23 24  1  0
 23 25  2  0
M  END
