
     RDKit          3D

 26 27  0  0  0  0  0  0  0  0999 V2000
    1.0860    2.6320    1.7780 C   0  0  0  0  0  0  0  0  0  0  0  0
    2.0710    1.5390    1.5490 C   0  0  0  0  0  0  0  0  0  0  0  0
    3.5840    1.3230    2.4870 S   0  0  0  0  0  0  0  0  0  0  0  0
    4.1660   -0.0550    1.6380 C   0  0  0  0  0  0  0  0  0  0  0  0
    5.3760   -0.8530    1.8880 C   0  0  0  0  0  0  0  0  0  0  0  0
    6.3670   -1.4840    2.0970 C   0  0  0  0  0  0  0  0  0  0  0  0
    7.6180   -2.2910    2.3380 C   0  0  1  0  0  0  0  0  0  0  0  0
    7.4190   -3.0580    3.4870 F   0  0  0  0  0  0  0  0  0  0  0  0
    7.7980   -3.0470    1.2170 F   0  0  0  0  0  0  0  0  0  0  0  0
    8.6720   -1.4330    2.5410 F   0  0  0  0  0  0  0  0  0  0  0  0
    3.2220   -0.2980    0.6960 C   0  0  0  0  0  0  0  0  0  0  0  0
    2.1490    0.5250    0.6620 C   0  0  0  0  0  0  0  0  0  0  0  0
    0.9810    0.2760   -0.2720 C   0  0  0  0  0  0  0  0  0  0  0  0
    1.2150    0.1450   -1.4660 O   0  0  0  0  0  0  0  0  0  0  0  0
   -0.3070    0.1990    0.2770 N   0  0  0  0  0  0  0  0  0  0  0  0
   -1.5540    0.0180   -0.3390 C   0  0  0  0  0  0  0  0  0  0  0  0
   -2.8410   -0.9480    0.5240 S   0  0  0  0  0  0  0  0  0  0  0  0
   -4.0860   -0.7770   -0.7000 C   0  0  0  0  0  0  0  0  0  0  0  0
   -5.4090   -1.3650   -0.5970 C   0  0  0  0  0  0  0  0  0  0  0  0
   -6.3400   -1.2350   -1.6220 N   0  0  0  0  0  0  0  0  0  0  0  0
   -5.7380   -2.0210    0.4520 O   0  0  0  0  0  0  0  0  0  0  0  0
   -3.4830   -0.0140   -1.6700 C   0  0  0  0  0  0  0  0  0  0  0  0
   -4.3350    0.2840   -2.9030 C   0  0  0  0  0  0  0  0  0  0  0  0
   -2.2030    0.3830   -1.4670 C   0  0  0  0  0  0  0  0  0  0  0  0
   -1.5750    1.3990   -2.3700 C   0  0  0  0  0  0  0  0  0  0  0  0
   -0.5360    2.0180   -2.1580 O   0  0  0  0  0  0  0  0  0  0  0  0
  1  2  1  0
  2  3  1  0
  2 12  2  0
  3  4  1  0
  4  5  1  0
  4 11  2  0
  5  6  3  0
  6  7  1  0
  7  8  1  1
  7  9  1  0
  7 10  1  0
 11 12  1  0
 12 13  1  0
 13 14  2  0
 13 15  1  0
 15 16  1  0
 16 17  1  0
 16 24  2  0
 17 18  1  0
 18 19  1  0
 18 22  2  0
 19 20  1  0
 19 21  2  0
 22 23  1  0
 22 24  1  0
 24 25  1  0
 25 26  2  0
M  END
