
     RDKit          3D

 13 12  0  0  0  0  0  0  0  0999 V2000
   -3.2170    0.0450   -1.0550 C   0  0  0  0  0  0  0  0  0  0  0  0
   -2.6840   -0.2240    0.3480 C   0  0  1  0  0  0  0  0  0  0  0  0
   -2.1580    1.0600    0.9030 C   0  0  0  0  0  0  0  0  0  0  0  0
   -3.9200   -0.6060    1.2400 C   0  0  0  0  0  0  0  0  0  0  0  0
   -1.9080   -1.3160    0.3820 O   0  0  0  0  0  0  0  0  0  0  0  0
   -0.8280   -1.4920   -0.3820 C   0  0  0  0  0  0  0  0  0  0  0  0
    0.2310   -0.4480   -0.1600 C   0  0  0  0  0  0  0  0  0  0  0  0
    1.2960   -0.7780   -1.0190 O   0  0  0  0  0  0  0  0  0  0  0  0
    2.3400    0.1090   -0.9550 C   0  0  0  0  0  0  0  0  0  0  0  0
    2.9400    0.1810    0.4050 C   0  0  1  0  0  0  0  0  0  0  0  0
    3.3840   -1.0930    0.7510 O   0  0  0  0  0  0  0  0  0  0  0  0
    4.1800    1.0700    0.3610 C   0  0  0  0  0  0  0  0  0  0  0  0
    5.0390    0.5450   -0.5960 O   0  0  0  0  0  0  0  0  0  0  0  0
  2  1  1  6
  2  3  1  0
  2  4  1  0
  2  5  1  0
  5  6  1  0
  6  7  1  0
  7  8  1  0
  8  9  1  0
  9 10  1  0
 10 11  1  6
 10 12  1  0
 12 13  1  0
M  END
