
     RDKit          3D

 13 12  0  0  0  0  0  0  0  0999 V2000
    5.3460    0.6760   -0.1210 C   0  0  0  0  0  0  0  0  0  0  0  0
    4.7240   -0.5520   -0.2140 O   0  0  0  0  0  0  0  0  0  0  0  0
    3.4220   -0.5740    0.2300 C   0  0  0  0  0  0  0  0  0  0  0  0
    2.5060    0.3280   -0.5060 C   0  0  0  0  0  0  0  0  0  0  0  0
    1.1900    0.3170   -0.0780 O   0  0  0  0  0  0  0  0  0  0  0  0
    0.6200   -0.9120   -0.1880 C   0  0  0  0  0  0  0  0  0  0  0  0
   -0.8230   -0.9710    0.2480 C   0  0  1  0  0  0  0  0  0  0  0  0
   -0.8930   -0.5940    1.5840 O   0  0  0  0  0  0  0  0  0  0  0  0
   -1.7210   -0.0710   -0.5470 C   0  0  0  0  0  0  0  0  0  0  0  0
   -3.1430   -0.1770   -0.0630 C   0  0  2  0  0  0  0  0  0  0  0  0
   -4.0740    0.7230   -0.8500 C   0  0  0  0  0  0  0  0  0  0  0  0
   -3.3090    0.1570    1.3810 C   0  0  0  0  0  0  0  0  0  0  0  0
   -3.5710   -1.4930   -0.3080 O   0  0  0  0  0  0  0  0  0  0  0  0
  1  2  1  0
  2  3  1  0
  3  4  1  0
  4  5  1  0
  5  6  1  0
  6  7  1  0
  7  8  1  1
  7  9  1  0
  9 10  1  0
 10 11  1  6
 10 12  1  0
 10 13  1  0
M  END
