
     RDKit          3D

 13 12  0  0  0  0  0  0  0  0999 V2000
   -0.9700    1.5940    1.2120 C   0  0  0  0  0  0  0  0  0  0  0  0
   -1.8240    0.6450    0.8790 C   0  0  0  0  0  0  0  0  0  0  0  0
   -2.8740    0.4470    1.7790 O   0  0  0  0  0  0  0  0  0  0  0  0
   -1.6970   -0.1410   -0.3200 C   0  0  0  0  0  0  0  0  0  0  0  0
   -2.6010   -1.0630   -0.5950 C   0  0  0  0  0  0  0  0  0  0  0  0
   -3.7800   -1.3670    0.2580 C   0  0  0  0  0  0  0  0  0  0  0  0
   -0.5820    0.0770   -1.2340 C   0  0  0  0  0  0  0  0  0  0  0  0
    0.7560   -0.1920   -0.6470 C   0  0  0  0  0  0  0  0  0  0  0  0
    0.8280   -0.6480    0.5220 O   0  0  0  0  0  0  0  0  0  0  0  0
    1.9330    0.0320   -1.3160 O   0  0  0  0  0  0  0  0  0  0  0  0
    3.2150   -0.2010   -0.8150 C   0  0  0  0  0  0  0  0  0  0  0  0
    3.5470    0.5900    0.4290 C   0  0  0  0  0  0  0  0  0  0  0  0
    4.8380    0.2740    0.8250 O   0  0  0  0  0  0  0  0  0  0  0  0
  1  2  2  0
  2  3  1  0
  2  4  1  0
  4  5  2  3
  4  7  1  0
  5  6  1  0
  7  8  1  0
  8  9  2  0
  8 10  1  0
 10 11  1  0
 11 12  1  0
 12 13  1  0
M  END
