
     RDKit          3D

 13 13  0  0  0  0  0  0  0  0999 V2000
   -3.9570    0.6990   -0.0250 C   0  0  0  0  0  0  0  0  0  0  0  0
   -2.6120    1.0510    0.0210 O   0  0  0  0  0  0  0  0  0  0  0  0
   -1.8480   -0.0860   -0.2840 C   0  0  0  0  0  0  0  0  0  0  0  0
   -0.3700    0.2240   -0.2530 C   0  0  1  0  0  0  0  0  0  0  0  0
    0.0370    0.6760    1.0010 O   0  0  0  0  0  0  0  0  0  0  0  0
    1.3200    1.2190    0.8030 C   0  0  1  0  0  0  0  0  0  0  0  0
    1.7150    1.9660    1.9060 O   0  0  0  0  0  0  0  0  0  0  0  0
    2.2630    0.0800    0.6170 C   0  0  2  0  0  0  0  0  0  0  0  0
    3.5260    0.6340    0.3050 O   0  0  0  0  0  0  0  0  0  0  0  0
    1.8580   -0.9230   -0.3950 C   0  0  1  0  0  0  0  0  0  0  0  0
    2.2060   -2.1990    0.1080 O   0  0  0  0  0  0  0  0  0  0  0  0
    0.4200   -0.9300   -0.7640 C   0  0  1  0  0  0  0  0  0  0  0  0
   -0.1800   -2.1650   -0.4240 O   0  0  0  0  0  0  0  0  0  0  0  0
  1  2  1  0
  2  3  1  0
  4  3  1  1
  4  5  1  0
  4 12  1  0
  5  6  1  0
  6  7  1  1
  6  8  1  0
  8  9  1  6
  8 10  1  0
 10 11  1  1
 10 12  1  0
 12 13  1  1
M  END
