
     RDKit          3D

 15 16  0  0  0  0  0  0  0  0999 V2000
    5.2160   -0.5320   -0.1750 C   0  0  0  0  0  0  0  0  0  0  0  0
    3.7850   -0.1170   -0.1990 C   0  0  0  0  0  0  0  0  0  0  0  0
    3.3500    1.1890   -0.3530 C   0  0  0  0  0  0  0  0  0  0  0  0
    1.9730    1.1330   -0.3190 C   0  0  0  0  0  0  0  0  0  0  0  0
    1.6190   -0.1750   -0.1490 C   0  0  0  0  0  0  0  0  0  0  0  0
    0.2120   -0.6690   -0.0590 C   0  0  0  0  0  0  0  0  0  0  0  0
   -0.6860    0.3960   -0.1740 O   0  0  0  0  0  0  0  0  0  0  0  0
   -2.0490    0.2980   -0.1350 C   0  0  0  0  0  0  0  0  0  0  0  0
   -2.7690    1.3920   -0.2330 C   0  0  0  0  0  0  0  0  0  0  0  0
   -4.2470    1.3420   -0.1970 C   0  0  0  0  0  0  0  0  0  0  0  0
   -4.7550    0.0420   -0.0510 O   0  0  0  0  0  0  0  0  0  0  0  0
   -3.9680   -1.0670    0.0470 C   0  0  0  0  0  0  0  0  0  0  0  0
   -2.6500   -1.0320    0.0150 C   0  0  0  0  0  0  0  0  0  0  0  0
   -1.9030   -2.1920    0.1200 O   0  0  0  0  0  0  0  0  0  0  0  0
    2.7240   -0.8790   -0.0820 O   0  0  0  0  0  0  0  0  0  0  0  0
  1  2  1  0
  2  3  2  0
  2 15  1  0
  3  4  1  0
  4  5  2  0
  5  6  1  0
  5 15  1  0
  6  7  1  0
  7  8  1  0
  8  9  2  0
  8 13  1  0
  9 10  1  0
 10 11  1  0
 11 12  1  0
 12 13  2  0
 13 14  1  0
M  END
