
     RDKit          3D

 13 12  0  0  0  0  0  0  0  0999 V2000
   -3.1790    0.5320   -1.5350 C   0  0  0  0  0  0  0  0  0  0  0  0
   -2.6270    0.0730   -0.2130 C   0  0  2  0  0  0  0  0  0  0  0  0
   -2.8320   -1.4270   -0.1340 C   0  0  0  0  0  0  0  0  0  0  0  0
   -3.4040    0.7910    0.8760 C   0  0  0  0  0  0  0  0  0  0  0  0
   -1.2920    0.4260   -0.1210 O   0  0  0  0  0  0  0  0  0  0  0  0
   -0.7300    0.0240    1.0870 C   0  0  0  0  0  0  0  0  0  0  0  0
    0.7230    0.4110    1.1800 C   0  0  0  0  0  0  0  0  0  0  0  0
    1.4890   -0.1580    0.1730 O   0  0  0  0  0  0  0  0  0  0  0  0
    2.8090    0.2520    0.3360 C   0  0  2  0  0  0  0  0  0  0  0  0
    3.3180    1.0110   -0.8630 C   0  0  0  0  0  0  0  0  0  0  0  0
    3.2850    0.2690   -2.0260 O   0  0  0  0  0  0  0  0  0  0  0  0
    3.6390   -0.9770    0.6260 C   0  0  0  0  0  0  0  0  0  0  0  0
    3.6010   -1.9190   -0.3720 O   0  0  0  0  0  0  0  0  0  0  0  0
  2  1  1  6
  2  3  1  0
  2  4  1  0
  2  5  1  0
  5  6  1  0
  6  7  1  0
  7  8  1  0
  8  9  1  0
  9 10  1  6
  9 12  1  0
 10 11  1  0
 12 13  1  0
M  END
