
     RDKit          3D

 13 12  0  0  0  0  0  0  0  0999 V2000
    4.0870   -0.0800    0.3140 C   0  0  0  0  0  0  0  0  0  0  0  0
    3.3150   -1.3210    0.0380 C   0  0  0  0  0  0  0  0  0  0  0  0
    2.1490   -1.2270   -0.8830 C   0  0  0  0  0  0  0  0  0  0  0  0
    1.1030   -0.4120   -0.5340 O   0  0  0  0  0  0  0  0  0  0  0  0
    0.9470    0.9120   -0.4060 C   0  0  0  0  0  0  0  0  0  0  0  0
    1.9450    1.6530   -0.6570 O   0  0  0  0  0  0  0  0  0  0  0  0
   -0.3430    1.5420    0.0190 C   0  0  0  0  0  0  0  0  0  0  0  0
   -1.4650    0.5540    0.1910 C   0  0  1  0  0  0  0  0  0  0  0  0
   -2.7200    1.3200    0.6480 C   0  0  0  0  0  0  0  0  0  0  0  0
   -2.3610    1.9260    1.8580 O   0  0  0  0  0  0  0  0  0  0  0  0
   -1.7790   -0.1210   -1.1340 C   0  0  0  0  0  0  0  0  0  0  0  0
   -2.9050   -1.0990   -0.9040 C   0  0  0  0  0  0  0  0  0  0  0  0
   -2.5690   -2.0590    0.0440 O   0  0  0  0  0  0  0  0  0  0  0  0
  1  2  1  0
  2  3  1  0
  3  4  1  0
  4  5  1  0
  5  6  2  0
  5  7  1  0
  8  7  1  6
  8  9  1  0
  8 11  1  0
  9 10  1  0
 11 12  1  0
 12 13  1  0
M  END
