
     RDKit          3D

 12 12  0  0  0  0  0  0  0  0999 V2000
    4.3530   -0.0480    1.6410 O   0  0  0  0  0  0  0  0  0  0  0  0
    3.6870   -0.9010    0.7880 C   0  0  0  0  0  0  0  0  0  0  0  0
    2.8870   -0.1430   -0.2640 C   0  0  0  0  0  0  0  0  0  0  0  0
    1.9400    0.6760    0.2980 O   0  0  0  0  0  0  0  0  0  0  0  0
    1.2200    1.3620   -0.6440 C   0  0  0  0  0  0  0  0  0  0  0  0
    0.4610    0.5000   -1.6160 C   0  0  0  0  0  0  0  0  0  0  0  0
   -0.4660   -0.3310   -1.0370 O   0  0  0  0  0  0  0  0  0  0  0  0
   -1.4670    0.2780   -0.3300 C   0  0  2  0  0  0  0  0  0  0  0  0
   -1.4530   -0.2190    1.1030 C   0  0  0  0  0  0  0  0  0  0  0  0
   -2.8750   -0.6450    1.3900 C   0  0  0  0  0  0  0  0  0  0  0  0
   -3.7340    0.0110    0.3180 C   0  0  0  0  0  0  0  0  0  0  0  0
   -2.8220   -0.1200   -0.8960 C   0  0  0  0  0  0  0  0  0  0  0  0
  1  2  1  0
  2  3  1  0
  3  4  1  0
  4  5  1  0
  5  6  1  0
  6  7  1  0
  8  7  1  6
  8  9  1  0
  8 12  1  0
  9 10  1  0
 10 11  1  0
 11 12  1  0
M  END
