
     RDKit          3D

 15 15  0  0  0  0  0  0  0  0999 V2000
   -4.0420    1.4560    0.7280 C   0  0  0  0  0  0  0  0  0  0  0  0
   -3.1500    0.3790    0.1360 C   0  0  1  0  0  0  0  0  0  0  0  0
   -3.5640   -0.9300    0.7690 C   0  0  0  0  0  0  0  0  0  0  0  0
   -3.4370    0.2870   -1.3330 C   0  0  0  0  0  0  0  0  0  0  0  0
   -1.8120    0.7140    0.4270 O   0  0  0  0  0  0  0  0  0  0  0  0
   -0.7400   -0.0680    0.0250 C   0  0  0  0  0  0  0  0  0  0  0  0
   -1.0340   -1.1150   -0.6270 O   0  0  0  0  0  0  0  0  0  0  0  0
    0.6710    0.2930    0.3370 C   0  0  0  0  0  0  0  0  0  0  0  0
    1.5840   -0.6380   -0.1650 O   0  0  0  0  0  0  0  0  0  0  0  0
    2.9390   -0.4870    0.0160 C   0  0  0  0  0  0  0  0  0  0  0  0
    3.7770   -0.9710   -0.8840 C   0  0  0  0  0  0  0  0  0  0  0  0
    5.2430   -0.8810   -0.8170 C   0  0  0  0  0  0  0  0  0  0  0  0
    5.6730   -0.2070    0.3400 O   0  0  0  0  0  0  0  0  0  0  0  0
    4.8250    0.3110    1.2990 C   0  0  0  0  0  0  0  0  0  0  0  0
    3.5120    0.1980    1.1820 C   0  0  0  0  0  0  0  0  0  0  0  0
  2  1  1  1
  2  3  1  0
  2  4  1  0
  2  5  1  0
  5  6  1  0
  6  7  2  0
  6  8  1  0
  8  9  1  0
  9 10  1  0
 10 11  2  0
 10 15  1  0
 11 12  1  0
 12 13  1  0
 13 14  1  0
 14 15  2  0
M  END
