
     RDKit          3D

 38 41  0  0  0  0  0  0  0  0999 V2000
    8.0980    3.1280    0.4860 C   0  0  0  0  0  0  0  0  0  0  0  0
    7.2950    2.6750   -0.5740 O   0  0  0  0  0  0  0  0  0  0  0  0
    6.0710    3.1510   -0.9410 C   0  0  0  0  0  0  0  0  0  0  0  0
    5.5990    4.1070   -0.2550 O   0  0  0  0  0  0  0  0  0  0  0  0
    5.2550    2.6520   -2.0660 C   0  0  0  0  0  0  0  0  0  0  0  0
    3.9400    1.6090   -1.4760 S   0  0  0  0  0  0  0  0  0  0  0  0
    4.4000    0.0580   -0.8170 C   0  0  0  0  0  0  0  0  0  0  0  0
    5.7110   -0.3530   -0.8420 C   0  0  0  0  0  0  0  0  0  0  0  0
    6.0890   -1.5670   -0.3110 C   0  0  0  0  0  0  0  0  0  0  0  0
    5.1150   -2.3870    0.2580 C   0  0  0  0  0  0  0  0  0  0  0  0
    3.7910   -1.9430    0.2680 C   0  0  0  0  0  0  0  0  0  0  0  0
    3.3920   -0.7390   -0.2540 C   0  0  0  0  0  0  0  0  0  0  0  0
    2.0680   -0.2740   -0.2870 N   0  0  0  0  0  0  0  0  0  0  0  0
    0.9380   -0.8900    0.2930 C   0  0  0  0  0  0  0  0  0  0  0  0
    1.0600   -1.9450    0.9300 O   0  0  0  0  0  0  0  0  0  0  0  0
   -0.3790   -0.3500    0.1820 N   0  0  0  0  0  0  0  0  0  0  0  0
   -1.4930   -1.0330    0.8060 C   0  0  2  0  0  0  0  0  0  0  0  0
   -2.3410   -1.7170   -0.2870 C   0  0  0  0  0  0  0  0  0  0  0  0
   -3.7440   -1.3580    0.2360 C   0  0  2  0  0  0  0  0  0  0  0  0
   -4.7320   -1.5870   -0.8480 C   0  0  0  0  0  0  0  0  0  0  0  0
   -5.2010   -0.5920   -1.4600 O   0  0  0  0  0  0  0  0  0  0  0  0
   -5.1640   -2.8710   -1.2180 N   0  0  0  0  0  0  0  0  0  0  0  0
   -4.6870   -4.0880   -0.5710 C   0  0  0  0  0  0  0  0  0  0  0  0
   -6.1260   -3.0200   -2.2890 C   0  0  0  0  0  0  0  0  0  0  0  0
   -3.5090    0.0650    0.4970 N   0  0  0  0  0  0  0  0  0  0  0  0
   -4.6700    0.6550    1.1400 C   0  0  0  0  0  0  0  0  0  0  0  0
   -4.4810    2.1250    1.1850 C   0  0  0  0  0  0  0  0  0  0  0  0
   -3.4180    2.7880    0.6420 C   0  0  0  0  0  0  0  0  0  0  0  0
   -3.2860    4.1770    0.6850 C   0  0  0  0  0  0  0  0  0  0  0  0
   -2.2160    4.7960    0.1370 F   0  0  0  0  0  0  0  0  0  0  0  0
   -4.2730    4.9000    1.3000 C   0  0  0  0  0  0  0  0  0  0  0  0
   -5.3530    4.2590    1.8520 C   0  0  0  0  0  0  0  0  0  0  0  0
   -5.4630    2.9070    1.8010 C   0  0  0  0  0  0  0  0  0  0  0  0
   -6.5320    2.2560    2.3450 F   0  0  0  0  0  0  0  0  0  0  0  0
   -2.4330   -0.0910    1.5010 C   0  0  0  0  0  0  0  0  0  0  0  0
    5.7670   -3.5270    0.7030 O   0  0  0  0  0  0  0  0  0  0  0  0
    6.9720   -3.6550   -0.0720 C   0  0  0  0  0  0  0  0  0  0  0  0
    7.2970   -2.2560   -0.1810 O   0  0  0  0  0  0  0  0  0  0  0  0
  1  2  1  0
  2  3  1  0
  3  4  2  0
  3  5  1  0
  5  6  1  0
  6  7  1  0
  7  8  2  0
  7 12  1  0
  8  9  1  0
  9 10  2  0
  9 38  1  0
 10 11  1  0
 10 36  1  0
 11 12  2  0
 12 13  1  0
 13 14  1  0
 14 15  2  0
 14 16  1  0
 17 16  1  6
 17 18  1  0
 17 35  1  0
 18 19  1  0
 19 20  1  6
 19 25  1  0
 20 21  2  0
 20 22  1  0
 22 23  1  0
 22 24  1  0
 25 26  1  0
 25 35  1  0
 26 27  1  0
 27 28  2  0
 27 33  1  0
 28 29  1  0
 29 30  1  0
 29 31  2  0
 31 32  1  0
 32 33  2  0
 33 34  1  0
 36 37  1  0
 37 38  1  0
M  END
