
     RDKit          3D

 38 41  0  0  0  0  0  0  0  0999 V2000
    5.9380    0.1670   -0.8750 O   0  0  0  0  0  0  0  0  0  0  0  0
    5.4540   -0.4890    0.0720 C   0  0  0  0  0  0  0  0  0  0  0  0
    4.1190   -0.5050    0.3370 O   0  0  0  0  0  0  0  0  0  0  0  0
    3.1710    0.2070   -0.4130 C   0  0  0  0  0  0  0  0  0  0  0  0
    3.4260    1.6690   -0.3180 C   0  0  2  0  0  0  0  0  0  0  0  0
    3.3530    2.1190    1.0230 O   0  0  0  0  0  0  0  0  0  0  0  0
    2.5640    2.5140   -1.2150 C   0  0  0  0  0  0  0  0  0  0  0  0
    1.1500    2.4010   -0.9860 N   0  0  0  0  0  0  0  0  0  0  0  0
    0.5360    3.2100   -0.0970 C   0  0  0  0  0  0  0  0  0  0  0  0
    1.2330    4.0530    0.5210 O   0  0  0  0  0  0  0  0  0  0  0  0
   -0.7890    3.1240    0.1320 N   0  0  0  0  0  0  0  0  0  0  0  0
   -1.5630    2.2320   -0.5130 C   0  0  0  0  0  0  0  0  0  0  0  0
   -3.3250    2.0990   -0.2250 S   0  0  0  0  0  0  0  0  0  0  0  0
   -3.7110    0.9390    1.0930 C   0  0  2  0  0  0  0  0  0  0  0  0
   -3.3550   -0.4850    0.7420 C   0  0  0  0  0  0  0  0  0  0  0  0
   -3.8300   -1.3620    1.8800 C   0  0  0  0  0  0  0  0  0  0  0  0
   -5.3090   -1.3670    2.0730 C   0  0  0  0  0  0  0  0  0  0  0  0
   -6.1160   -1.0380    0.8600 C   0  0  0  0  0  0  0  0  0  0  0  0
   -6.3060    0.4650    0.7770 C   0  0  0  0  0  0  0  0  0  0  0  0
   -5.1440    1.0910    1.4300 C   0  0  0  0  0  0  0  0  0  0  0  0
   -5.3620    1.8320    2.3680 O   0  0  0  0  0  0  0  0  0  0  0  0
   -0.9590    1.4230   -1.4010 N   0  0  0  0  0  0  0  0  0  0  0  0
   -1.7920    0.4790   -2.0790 C   0  0  0  0  0  0  0  0  0  0  0  0
   -1.4150   -0.8460   -2.0460 C   0  0  0  0  0  0  0  0  0  0  0  0
   -2.1840   -1.7870   -2.6800 C   0  0  0  0  0  0  0  0  0  0  0  0
   -3.3270   -1.3910   -3.3450 C   0  0  0  0  0  0  0  0  0  0  0  0
   -4.1020   -2.3140   -3.9810 F   0  0  0  0  0  0  0  0  0  0  0  0
   -3.7330   -0.0680   -3.3980 C   0  0  0  0  0  0  0  0  0  0  0  0
   -2.9340    0.8550   -2.7460 C   0  0  0  0  0  0  0  0  0  0  0  0
    0.3690    1.5120   -1.6270 C   0  0  0  0  0  0  0  0  0  0  0  0
    0.9030    0.7400   -2.4640 O   0  0  0  0  0  0  0  0  0  0  0  0
    6.4350   -1.2430    0.8800 C   0  0  0  0  0  0  0  0  0  0  0  0
    7.7850   -1.2300    0.6160 C   0  0  0  0  0  0  0  0  0  0  0  0
    8.6960   -1.9370    1.3770 C   0  0  0  0  0  0  0  0  0  0  0  0
    8.2010   -2.6720    2.4320 C   0  0  0  0  0  0  0  0  0  0  0  0
    9.0490   -3.4000    3.2330 F   0  0  0  0  0  0  0  0  0  0  0  0
    6.8440   -2.6720    2.6810 C   0  0  0  0  0  0  0  0  0  0  0  0
    5.9700   -1.9670    1.9150 N   0  0  0  0  0  0  0  0  0  0  0  0
  1  2  2  0
  2  3  1  0
  2 32  1  0
  3  4  1  0
  4  5  1  0
  5  6  1  1
  5  7  1  0
  7  8  1  0
  8  9  1  0
  8 30  1  0
  9 10  2  0
  9 11  1  0
 11 12  2  0
 12 13  1  0
 12 22  1  0
 14 13  1  6
 14 15  1  0
 14 20  1  0
 15 16  1  0
 16 17  1  0
 17 18  1  0
 18 19  1  0
 19 20  1  0
 20 21  2  0
 22 23  1  0
 22 30  1  0
 23 24  2  0
 23 29  1  0
 24 25  1  0
 25 26  2  0
 26 27  1  0
 26 28  1  0
 28 29  2  0
 30 31  2  0
 32 33  2  0
 32 38  1  0
 33 34  1  0
 34 35  2  0
 35 36  1  0
 35 37  1  0
 37 38  2  0
M  END
