
     RDKit          3D

 38 42  0  0  0  0  0  0  0  0999 V2000
   -3.8960    4.4370   -1.6020 O   0  0  0  0  0  0  0  0  0  0  0  0
   -3.9880    3.6150   -0.6730 C   0  0  0  0  0  0  0  0  0  0  0  0
   -2.8830    2.6750   -0.3940 C   0  0  0  0  0  0  0  0  0  0  0  0
   -1.7760    2.9300   -1.3650 C   0  0  0  0  0  0  0  0  0  0  0  0
   -0.6150    2.0490   -1.1560 N   0  0  0  0  0  0  0  0  0  0  0  0
   -0.5200    0.8000   -1.8380 C   0  0  0  0  0  0  0  0  0  0  0  0
   -1.1060   -0.2780   -1.0190 C   0  0  0  0  0  0  0  0  0  0  0  0
   -1.2860   -0.1890    0.3440 C   0  0  0  0  0  0  0  0  0  0  0  0
   -1.8160   -1.1460    1.1490 C   0  0  0  0  0  0  0  0  0  0  0  0
   -1.8950   -0.8590    2.3950 O   0  0  0  0  0  0  0  0  0  0  0  0
   -2.2710   -2.3740    0.7670 C   0  0  0  0  0  0  0  0  0  0  0  0
   -2.2640   -2.8490   -0.5270 C   0  0  0  0  0  0  0  0  0  0  0  0
   -1.6300   -1.7790   -1.6850 S   0  0  0  0  0  0  0  0  0  0  0  0
   -2.7740   -4.1980   -0.8850 C   0  0  0  0  0  0  0  0  0  0  0  0
   -3.9600   -4.4570    0.0530 C   0  0  0  0  0  0  0  0  0  0  0  0
   -3.3600   -4.5590    1.4430 C   0  0  0  0  0  0  0  0  0  0  0  0
   -2.8030   -3.2640    1.7650 N   0  0  0  0  0  0  0  0  0  0  0  0
    0.3620    2.5580   -0.2650 C   0  0  0  0  0  0  0  0  0  0  0  0
    0.2460    3.6860    0.3140 O   0  0  0  0  0  0  0  0  0  0  0  0
    1.5330    1.7500   -0.0120 N   0  0  0  0  0  0  0  0  0  0  0  0
    2.5110    2.2870    0.9050 C   0  0  0  0  0  0  0  0  0  0  0  0
    3.7160    1.4710    1.1180 C   0  0  0  0  0  0  0  0  0  0  0  0
    4.6570    1.2780   -0.0150 C   0  0  0  0  0  0  0  0  0  0  0  0
    4.0580    0.6830   -1.1780 N   0  0  0  0  0  0  0  0  0  0  0  0
    3.5980    1.3830   -2.2680 C   0  0  0  0  0  0  0  0  0  0  0  0
    3.1670    0.4390   -3.1710 C   0  0  0  0  0  0  0  0  0  0  0  0
    3.3640   -0.7760   -2.6330 N   0  0  0  0  0  0  0  0  0  0  0  0
    3.9080   -0.6350   -1.4140 C   0  0  0  0  0  0  0  0  0  0  0  0
    4.2710   -1.7010   -0.5060 N   0  0  0  0  0  0  0  0  0  0  0  0
    3.2340   -2.1520    0.3840 C   0  0  0  0  0  0  0  0  0  0  0  0
    3.8820   -2.5710    1.6850 C   0  0  0  0  0  0  0  0  0  0  0  0
    4.8770   -3.6630    1.3400 C   0  0  0  0  0  0  0  0  0  0  0  0
    6.0200   -3.0300    0.5920 C   0  0  0  0  0  0  0  0  0  0  0  0
    5.6030   -2.2020   -0.5710 C   0  0  0  0  0  0  0  0  0  0  0  0
   -5.1530    3.5760    0.1220 N   0  0  0  0  0  0  0  0  0  0  0  0
   -6.2870    4.4500   -0.0660 C   0  0  1  0  0  0  0  0  0  0  0  0
   -7.6350    4.0130    0.3660 C   0  0  0  0  0  0  0  0  0  0  0  0
   -6.8850    5.0180    1.1670 C   0  0  0  0  0  0  0  0  0  0  0  0
  1  2  2  0
  2  3  1  0
  2 35  1  0
  3  4  1  0
  4  5  1  0
  5  6  1  0
  5 18  1  0
  6  7  1  0
  7  8  2  0
  7 13  1  0
  8  9  1  0
  9 10  2  0
  9 11  1  0
 11 12  2  0
 11 17  1  0
 12 13  1  0
 12 14  1  0
 14 15  1  0
 15 16  1  0
 16 17  1  0
 18 19  2  0
 18 20  1  0
 20 21  1  0
 21 22  1  0
 22 23  1  0
 23 24  1  0
 24 25  1  0
 24 28  1  0
 25 26  2  0
 26 27  1  0
 27 28  2  0
 28 29  1  0
 29 30  1  0
 29 34  1  0
 30 31  1  0
 31 32  1  0
 32 33  1  0
 33 34  1  0
 36 35  1  1
 36 37  1  0
 36 38  1  0
 37 38  1  0
M  CHG  1  27   1
M  END
