
     RDKit          3D

 38 40  0  0  0  0  0  0  0  0999 V2000
   -1.8550    4.0090    0.7470 N   0  0  0  0  0  0  0  0  0  0  0  0
   -0.4650    3.3110    1.4740 S   0  0  1  0  0  0  0  0  0  0  0  0
    0.4500    4.4680    1.8630 O   0  0  0  0  0  0  0  0  0  0  0  0
   -0.7970    2.6200    2.7670 O   0  0  0  0  0  0  0  0  0  0  0  0
    0.4210    2.3000    0.3870 C   0  0  0  0  0  0  0  0  0  0  0  0
    1.4140    2.8580   -0.4130 C   0  0  0  0  0  0  0  0  0  0  0  0
    1.6270    4.1940   -0.2960 F   0  0  0  0  0  0  0  0  0  0  0  0
    2.1700    2.1180   -1.2990 C   0  0  0  0  0  0  0  0  0  0  0  0
    3.1230    2.7330   -2.0500 F   0  0  0  0  0  0  0  0  0  0  0  0
    1.9350    0.7690   -1.3980 C   0  0  0  0  0  0  0  0  0  0  0  0
    2.9140   -0.1950   -2.5450 S   0  0  0  0  0  0  0  0  0  0  0  0
    4.4000   -0.8020   -1.7080 C   0  0  0  0  0  0  0  0  0  0  0  0
    5.2640    0.4010   -1.3640 C   0  0  0  0  0  0  0  0  0  0  0  0
    6.5130    0.0290   -0.6740 C   0  0  0  0  0  0  0  0  0  0  0  0
    6.6370   -0.0730    0.6840 C   0  0  0  0  0  0  0  0  0  0  0  0
    7.8220   -0.4240    1.3080 C   0  0  0  0  0  0  0  0  0  0  0  0
    8.9120   -0.6770    0.5130 C   0  0  0  0  0  0  0  0  0  0  0  0
   10.1880   -1.0500    1.1140 C   0  0  0  0  0  0  0  0  0  0  0  0
   11.1900   -1.2820    0.3850 O   0  0  0  0  0  0  0  0  0  0  0  0
   10.3420   -1.1600    2.4780 O   0  0  0  0  0  0  0  0  0  0  0  0
    8.8100   -0.5790   -0.8630 C   0  0  0  0  0  0  0  0  0  0  0  0
    7.6280   -0.2310   -1.4690 C   0  0  0  0  0  0  0  0  0  0  0  0
    0.9660    0.1660   -0.6300 C   0  0  0  0  0  0  0  0  0  0  0  0
    0.7620   -1.1730   -0.7410 F   0  0  0  0  0  0  0  0  0  0  0  0
    0.2130    0.9310    0.2570 C   0  0  0  0  0  0  0  0  0  0  0  0
   -0.7820    0.3420    1.0690 N   0  0  0  0  0  0  0  0  0  0  0  0
   -2.1910    0.2440    0.7300 C   0  0  1  0  0  0  0  0  0  0  0  0
   -2.3850   -0.4890   -0.5470 C   0  0  0  0  0  0  0  0  0  0  0  0
   -2.3410   -1.9560   -0.5490 C   0  0  0  0  0  0  0  0  0  0  0  0
   -3.6770   -2.6550   -0.7280 C   0  0  0  0  0  0  0  0  0  0  0  0
   -4.5740   -2.0920   -1.7470 C   0  0  0  0  0  0  0  0  0  0  0  0
   -5.8100   -1.3770   -1.3200 C   0  0  0  0  0  0  0  0  0  0  0  0
   -6.5410   -1.8580   -0.1500 C   0  0  0  0  0  0  0  0  0  0  0  0
   -6.3610   -1.1480    1.1540 C   0  0  0  0  0  0  0  0  0  0  0  0
   -6.4380    0.3270    1.1300 C   0  0  0  0  0  0  0  0  0  0  0  0
   -5.1230    1.0550    1.3150 C   0  0  0  0  0  0  0  0  0  0  0  0
   -4.1840    0.5110    2.2920 C   0  0  0  0  0  0  0  0  0  0  0  0
   -2.9800   -0.2340    1.8850 C   0  0  0  0  0  0  0  0  0  0  0  0
  2  1  1  6
  2  3  2  0
  2  4  2  0
  2  5  1  0
  5  6  2  0
  5 25  1  0
  6  7  1  0
  6  8  1  0
  8  9  1  0
  8 10  2  0
 10 11  1  0
 10 23  1  0
 11 12  1  0
 12 13  1  0
 13 14  1  0
 14 15  2  0
 14 22  1  0
 15 16  1  0
 16 17  2  0
 17 18  1  0
 17 21  1  0
 18 19  2  0
 18 20  1  0
 21 22  2  0
 23 24  1  0
 23 25  2  0
 25 26  1  0
 27 26  1  1
 27 28  1  0
 27 38  1  0
 28 29  1  0
 29 30  1  0
 30 31  1  0
 31 32  1  0
 32 33  1  0
 33 34  1  0
 34 35  1  0
 35 36  1  0
 36 37  1  0
 37 38  1  0
M  END
