
     RDKit          3D

 37 40  0  0  0  0  0  0  0  0999 V2000
   -3.0300    5.6790   -0.8960 C   0  0  0  0  0  0  0  0  0  0  0  0
   -2.1920    5.0140    0.1820 C   0  0  1  0  0  0  0  0  0  0  0  0
   -2.7410    5.4620    1.5200 C   0  0  0  0  0  0  0  0  0  0  0  0
   -2.3070    3.5550    0.1020 N   0  0  0  0  0  0  0  0  0  0  0  0
   -1.1590    2.7350   -0.0380 C   0  0  0  0  0  0  0  0  0  0  0  0
   -0.0490    3.3800   -0.0860 O   0  0  0  0  0  0  0  0  0  0  0  0
   -1.1380    1.3050   -0.1280 C   0  0  0  0  0  0  0  0  0  0  0  0
   -2.2510    0.5990   -0.0830 C   0  0  0  0  0  0  0  0  0  0  0  0
   -2.2550   -0.8520   -0.1710 C   0  0  0  0  0  0  0  0  0  0  0  0
   -3.3460   -1.5530   -0.1290 C   0  0  0  0  0  0  0  0  0  0  0  0
   -4.7110   -1.0150    0.0110 C   0  0  0  0  0  0  0  0  0  0  0  0
   -5.4980   -1.5950   -1.0420 O   0  0  0  0  0  0  0  0  0  0  0  0
   -5.4850   -2.9870   -1.1560 C   0  0  0  0  0  0  0  0  0  0  0  0
   -6.5790   -3.6470   -1.6750 C   0  0  0  0  0  0  0  0  0  0  0  0
   -6.5320   -5.0170   -1.7720 C   0  0  0  0  0  0  0  0  0  0  0  0
   -7.5770   -5.7250   -2.2740 F   0  0  0  0  0  0  0  0  0  0  0  0
   -5.4020   -5.7230   -1.3540 C   0  0  0  0  0  0  0  0  0  0  0  0
   -4.3370   -5.0140   -0.8440 C   0  0  0  0  0  0  0  0  0  0  0  0
   -4.3550   -3.6440   -0.7340 C   0  0  0  0  0  0  0  0  0  0  0  0
   -3.2760   -2.9640   -0.2200 O   0  0  0  0  0  0  0  0  0  0  0  0
    0.0860    0.5870   -0.2670 N   0  0  0  0  0  0  0  0  0  0  0  0
    0.9700    0.7810   -1.3740 C   0  0  0  0  0  0  0  0  0  0  0  0
    0.5260    1.6520   -2.2150 O   0  0  0  0  0  0  0  0  0  0  0  0
    2.2230    0.1330   -1.6220 C   0  0  1  0  0  0  0  0  0  0  0  0
    3.0440    0.8280   -2.6830 C   0  0  0  0  0  0  0  0  0  0  0  0
    4.5380   -0.2710   -2.5620 S   0  0  0  0  0  0  0  0  0  0  0  0
    4.0190   -1.0960   -0.9740 C   0  0  0  0  0  0  0  0  0  0  0  0
    3.1430   -0.0520   -0.4980 N   0  0  0  0  0  0  0  0  0  0  0  0
    3.2100    0.6010    0.7230 C   0  0  0  0  0  0  0  0  0  0  0  0
    2.3060    1.5440    0.8620 O   0  0  0  0  0  0  0  0  0  0  0  0
    4.0600    0.4730    1.8910 C   0  0  0  0  0  0  0  0  0  0  0  0
    5.1110   -0.4700    1.9270 N   0  0  0  0  0  0  0  0  0  0  0  0
    5.1050   -1.8400    2.3590 C   0  0  0  0  0  0  0  0  0  0  0  0
    6.3210   -2.5260    1.7930 C   0  0  0  0  0  0  0  0  0  0  0  0
    7.2650   -1.3980    1.5380 C   0  0  0  0  0  0  0  0  0  0  0  0
    6.4680   -0.1700    1.5220 C   0  0  0  0  0  0  0  0  0  0  0  0
    6.8950    0.9700    1.2050 O   0  0  0  0  0  0  0  0  0  0  0  0
  2  1  1  6
  2  3  1  0
  2  4  1  0
  4  5  1  0
  5  6  2  0
  5  7  1  0
  7  8  2  3
  7 21  1  0
  8  9  1  0
  9 10  2  3
 10 11  1  0
 10 20  1  0
 11 12  1  0
 12 13  1  0
 13 14  2  0
 13 19  1  0
 14 15  1  0
 15 16  1  0
 15 17  2  0
 17 18  1  0
 18 19  2  0
 19 20  1  0
 21 22  1  0
 22 23  2  0
 24 22  1  1
 24 25  1  0
 24 28  1  0
 25 26  1  0
 26 27  1  0
 27 28  1  0
 28 29  1  0
 29 30  2  0
 29 31  1  0
 31 32  1  0
 32 33  1  0
 32 36  1  0
 33 34  1  0
 34 35  1  0
 35 36  1  0
 36 37  2  0
M  END
