
     RDKit          3D

 38 41  0  0  0  0  0  0  0  0999 V2000
   -0.1560    0.0870   -5.2940 C   0  0  0  0  0  0  0  0  0  0  0  0
   -1.4490   -0.1560   -5.3600 C   0  0  0  0  0  0  0  0  0  0  0  0
   -2.3390    0.1370   -4.2530 C   0  0  0  0  0  0  0  0  0  0  0  0
   -3.5630    0.6680   -4.5970 C   0  0  0  0  0  0  0  0  0  0  0  0
   -4.4720    0.9470   -3.6210 C   0  0  0  0  0  0  0  0  0  0  0  0
   -4.1730    0.7030   -2.2850 C   0  0  0  0  0  0  0  0  0  0  0  0
   -2.9460    0.1660   -1.8750 C   0  0  0  0  0  0  0  0  0  0  0  0
   -2.0600   -0.1010   -2.9300 C   0  0  0  0  0  0  0  0  0  0  0  0
   -0.8750   -0.6660   -2.8310 N   0  0  0  0  0  0  0  0  0  0  0  0
   -0.2710   -1.0620   -1.6080 N   0  0  0  0  0  0  0  0  0  0  0  0
    1.1100   -0.9130   -1.4470 C   0  0  0  0  0  0  0  0  0  0  0  0
    1.7530   -0.4610   -2.4750 O   0  0  0  0  0  0  0  0  0  0  0  0
    1.8890   -1.2040   -0.2740 C   0  0  0  0  0  0  0  0  0  0  0  0
    1.4930   -1.6130    0.8350 O   0  0  0  0  0  0  0  0  0  0  0  0
    3.2880   -1.0160   -0.3550 O   0  0  0  0  0  0  0  0  0  0  0  0
    4.1200   -1.2730    0.7290 C   0  0  0  0  0  0  0  0  0  0  0  0
    4.6370   -2.5100    0.9730 C   0  0  0  0  0  0  0  0  0  0  0  0
    5.4650   -2.8070    2.0350 C   0  0  0  0  0  0  0  0  0  0  0  0
    5.7720   -1.7800    2.8830 C   0  0  0  0  0  0  0  0  0  0  0  0
    5.2570   -0.5110    2.6540 C   0  0  0  0  0  0  0  0  0  0  0  0
    4.4370   -0.2180    1.6000 C   0  0  0  0  0  0  0  0  0  0  0  0
    3.9130    1.0040    1.3330 O   0  0  0  0  0  0  0  0  0  0  0  0
    4.0470    2.2220    1.9470 C   0  0  0  0  0  0  0  0  0  0  0  0
    5.4150    2.8390    1.9570 C   0  0  1  0  0  0  0  0  0  0  0  0
    5.8210    3.0240    0.6330 F   0  0  0  0  0  0  0  0  0  0  0  0
    5.2710    4.1070    2.5280 F   0  0  0  0  0  0  0  0  0  0  0  0
   -1.0500   -1.6560   -0.4960 C   0  0  0  0  0  0  0  0  0  0  0  0
   -1.6600   -0.5260    0.2240 C   0  0  2  0  0  0  0  0  0  0  0  0
   -2.0780   -0.8420    1.5700 N   0  0  0  0  0  0  0  0  0  0  0  0
   -1.5060   -0.1150    2.6440 C   0  0  0  0  0  0  0  0  0  0  0  0
   -0.6540    0.7870    2.4380 O   0  0  0  0  0  0  0  0  0  0  0  0
   -1.8730   -0.3720    4.0090 N   0  0  0  0  0  0  0  0  0  0  0  0
   -1.1840    0.5110    5.3690 S   0  0  0  0  0  0  0  0  0  0  0  0
   -2.8300    0.0120   -0.5630 C   0  0  0  0  0  0  0  0  0  0  0  0
   -3.8970    0.3660    0.3780 C   0  0  0  0  0  0  0  0  0  0  0  0
   -5.0190    0.8550   -0.0350 C   0  0  0  0  0  0  0  0  0  0  0  0
   -6.1030    1.2150    0.9080 C   0  0  0  0  0  0  0  0  0  0  0  0
   -5.1840    1.0360   -1.3790 O   0  0  0  0  0  0  0  0  0  0  0  0
  1  2  2  0
  2  3  1  0
  3  4  2  0
  3  8  1  0
  4  5  1  0
  5  6  2  0
  6  7  1  0
  6 38  1  0
  7  8  1  0
  7 34  2  0
  8  9  2  0
  9 10  1  0
 10 11  1  0
 10 27  1  0
 11 12  2  0
 11 13  1  0
 13 14  2  0
 13 15  1  0
 15 16  1  0
 16 17  2  0
 16 21  1  0
 17 18  1  0
 18 19  2  0
 19 20  1  0
 20 21  2  0
 21 22  1  0
 22 23  1  0
 23 24  1  0
 24 25  1  6
 24 26  1  0
 27 28  1  0
 28 29  1  1
 28 34  1  0
 29 30  1  0
 30 31  2  0
 30 32  1  0
 32 33  1  0
 34 35  1  0
 35 36  2  0
 36 37  1  0
 36 38  1  0
M  END
