
     RDKit          3D

 38 41  0  0  0  0  0  0  0  0999 V2000
   -5.4240   -5.7360   -1.6620 C   0  0  0  0  0  0  0  0  0  0  0  0
   -4.5510   -5.5190   -0.4730 C   0  0  0  0  0  0  0  0  0  0  0  0
   -4.8090   -6.2260    0.5430 O   0  0  0  0  0  0  0  0  0  0  0  0
   -3.4870   -4.5730   -0.4720 N   0  0  0  0  0  0  0  0  0  0  0  0
   -2.7050   -4.4390    0.7210 C   0  0  2  0  0  0  0  0  0  0  0  0
   -2.0650   -5.7760    1.0260 C   0  0  0  0  0  0  0  0  0  0  0  0
   -3.5730   -4.0980    1.7590 O   0  0  0  0  0  0  0  0  0  0  0  0
   -1.6380   -3.4110    0.6460 C   0  0  2  0  0  0  0  0  0  0  0  0
   -2.1160   -2.1140    0.3940 O   0  0  0  0  0  0  0  0  0  0  0  0
   -1.1740   -1.2390   -0.1430 C   0  0  0  0  0  0  0  0  0  0  0  0
   -1.3900    0.1970    0.2040 C   0  0  0  0  0  0  0  0  0  0  0  0
   -1.3960    0.7760    1.4550 C   0  0  0  0  0  0  0  0  0  0  0  0
   -1.6420    2.1160    1.3390 C   0  0  0  0  0  0  0  0  0  0  0  0
   -1.7570    3.1620    2.2490 C   0  0  0  0  0  0  0  0  0  0  0  0
   -2.0180    4.4350    1.7920 C   0  0  0  0  0  0  0  0  0  0  0  0
   -2.1500    5.5830    2.7130 C   0  0  0  0  0  0  0  0  0  0  0  0
   -2.1610    4.6520    0.4430 C   0  0  0  0  0  0  0  0  0  0  0  0
   -2.4380    6.0040   -0.0410 C   0  0  0  0  0  0  0  0  0  0  0  0
   -2.0490    3.6140   -0.4760 C   0  0  0  0  0  0  0  0  0  0  0  0
   -1.7850    2.3250   -0.0230 C   0  0  0  0  0  0  0  0  0  0  0  0
   -1.6290    1.1770   -0.6270 O   0  0  0  0  0  0  0  0  0  0  0  0
   -0.2510   -1.7250   -0.8660 C   0  0  0  0  0  0  0  0  0  0  0  0
    0.8840   -1.2950   -1.5940 C   0  0  0  0  0  0  0  0  0  0  0  0
    1.4870   -2.3000   -2.2600 O   0  0  0  0  0  0  0  0  0  0  0  0
    1.5570   -0.0850   -1.8020 N   0  0  0  0  0  0  0  0  0  0  0  0
    1.3620    1.2240   -1.2910 C   0  0  0  0  0  0  0  0  0  0  0  0
    2.6330    2.0810   -1.4150 C   0  0  0  0  0  0  0  0  0  0  0  0
    3.8310    1.2970   -1.2010 N   0  0  0  0  0  0  0  0  0  0  0  0
    4.8560    1.7770   -0.3330 C   0  0  0  0  0  0  0  0  0  0  0  0
    4.6940    2.8810    0.2330 O   0  0  0  0  0  0  0  0  0  0  0  0
    6.0740    1.0350   -0.0830 C   0  0  0  0  0  0  0  0  0  0  0  0
    6.3160   -0.1700   -0.6630 F   0  0  0  0  0  0  0  0  0  0  0  0
    6.9810    1.4960    0.7080 N   0  0  0  0  0  0  0  0  0  0  0  0
    8.2070    0.8010    0.9900 C   0  0  0  0  0  0  0  0  0  0  0  0
    8.1370   -0.5160    0.5610 F   0  0  0  0  0  0  0  0  0  0  0  0
    3.9460    0.0310   -1.8930 C   0  0  0  0  0  0  0  0  0  0  0  0
    2.7250   -0.1560   -2.7580 C   0  0  0  0  0  0  0  0  0  0  0  0
   -0.6420   -3.5460   -0.8750 S   0  0  0  0  0  0  0  0  0  0  0  0
  1  2  1  0
  2  3  2  0
  2  4  1  0
  4  5  1  0
  5  6  1  1
  5  7  1  0
  5  8  1  0
  8  9  1  6
  8 38  1  0
  9 10  1  0
 10 11  1  0
 10 22  2  0
 11 12  2  0
 11 21  1  0
 12 13  1  0
 13 14  2  0
 13 20  1  0
 14 15  1  0
 15 16  1  0
 15 17  2  0
 17 18  1  0
 17 19  1  0
 19 20  2  0
 20 21  1  0
 22 23  1  0
 22 38  1  0
 23 24  2  0
 23 25  1  0
 25 26  1  0
 25 37  1  0
 26 27  1  0
 27 28  1  0
 28 29  1  0
 28 36  1  0
 29 30  2  0
 29 31  1  0
 31 32  1  0
 31 33  2  3
 33 34  1  0
 34 35  1  0
 36 37  1  0
M  END
