
     RDKit          3D

 22 24  0  0  0  0  0  0  0  0999 V2000
   -5.1700    0.2930    0.1040 C   0  0  0  0  0  0  0  0  0  0  0  0
   -3.9170   -0.3560   -0.3110 N   0  0  1  0  0  0  0  0  0  0  0  0
   -3.6770   -0.0010   -1.6820 C   0  0  0  0  0  0  0  0  0  0  0  0
   -2.8940    0.1020    0.5760 C   0  0  0  0  0  0  0  0  0  0  0  0
   -1.4960   -0.1830    0.0480 C   0  0  0  0  0  0  0  0  0  0  0  0
   -0.4760    0.3510    1.0800 C   0  0  0  0  0  0  0  0  0  0  0  0
    0.8650    0.1270    0.6490 N   0  0  0  0  0  0  0  0  0  0  0  0
    1.1970   -1.2300    0.2960 C   0  0  0  0  0  0  0  0  0  0  0  0
    0.4980   -2.1220    1.0900 C   0  0  0  0  0  0  0  0  0  0  0  0
    0.7310   -3.4560    0.8600 C   0  0  0  0  0  0  0  0  0  0  0  0
    1.6160   -3.8820   -0.1140 C   0  0  0  0  0  0  0  0  0  0  0  0
    2.2880   -2.9700   -0.8790 C   0  0  0  0  0  0  0  0  0  0  0  0
    2.0840   -1.5920   -0.6820 C   0  0  0  0  0  0  0  0  0  0  0  0
    2.8650   -0.7880   -1.5950 C   0  0  0  0  0  0  0  0  0  0  0  0
    3.4170    0.5010   -1.2380 C   0  0  0  0  0  0  0  0  0  0  0  0
    2.8210    1.3570   -0.2300 C   0  0  0  0  0  0  0  0  0  0  0  0
    3.5600    2.5310   -0.1240 C   0  0  0  0  0  0  0  0  0  0  0  0
    3.2000    3.5140    0.7920 C   0  0  0  0  0  0  0  0  0  0  0  0
    2.1180    3.3770    1.6210 C   0  0  0  0  0  0  0  0  0  0  0  0
    1.6570    4.6060    2.7750 Cl  0  0  0  0  0  0  0  0  0  0  0  0
    1.3640    2.2250    1.5420 C   0  0  0  0  0  0  0  0  0  0  0  0
    1.7390    1.2690    0.6280 C   0  0  0  0  0  0  0  0  0  0  0  0
  2  1  1  1
  2  3  1  0
  2  4  1  0
  4  5  1  0
  5  6  1  0
  6  7  1  0
  7  8  1  0
  7 22  1  0
  8  9  2  0
  8 13  1  0
  9 10  1  0
 10 11  2  0
 11 12  1  0
 12 13  2  0
 13 14  1  0
 14 15  1  0
 15 16  1  0
 16 17  2  0
 16 22  1  0
 17 18  1  0
 18 19  2  0
 19 20  1  0
 19 21  1  0
 21 22  2  0
M  CHG  1   2   1
M  END
