
     RDKit          3D

 13 14  0  0  0  0  0  0  0  0999 V2000
   -1.7450    3.0090    0.3730 C   0  0  0  0  0  0  0  0  0  0  0  0
   -1.0750    2.0180   -0.3760 O   0  0  0  0  0  0  0  0  0  0  0  0
   -1.3880    0.6760   -0.3220 C   0  0  0  0  0  0  0  0  0  0  0  0
   -2.5710    0.2410   -0.6910 C   0  0  0  0  0  0  0  0  0  0  0  0
   -2.8250   -1.0910   -0.6160 O   0  0  0  0  0  0  0  0  0  0  0  0
   -1.9970   -2.1200   -0.1930 C   0  0  0  0  0  0  0  0  0  0  0  0
   -0.6770   -1.5750    0.2120 C   0  0  0  0  0  0  0  0  0  0  0  0
    0.3370   -2.4410    0.6810 O   0  0  0  0  0  0  0  0  0  0  0  0
   -0.3980   -0.2820    0.1510 C   0  0  0  0  0  0  0  0  0  0  0  0
    0.8690    0.1240    0.5540 O   0  0  0  0  0  0  0  0  0  0  0  0
    2.0070    0.0990   -0.2490 C   0  0  1  0  0  0  0  0  0  0  0  0
    3.2660    0.5840    0.3940 C   0  0  0  0  0  0  0  0  0  0  0  0
    3.0740   -0.9040    0.0010 C   0  0  0  0  0  0  0  0  0  0  0  0
  1  2  1  0
  2  3  1  0
  3  4  2  0
  3  9  1  0
  4  5  1  0
  5  6  1  0
  6  7  1  0
  7  8  1  0
  7  9  2  0
  9 10  1  0
 11 10  1  1
 11 12  1  0
 11 13  1  0
 12 13  1  0
M  END
