
     RDKit          3D

 15 15  0  0  0  0  0  0  0  0999 V2000
    3.9850    0.0110    0.8030 C   0  0  0  0  0  0  0  0  0  0  0  0
    3.4570    0.4870   -0.2930 C   0  0  0  0  0  0  0  0  0  0  0  0
    2.0070    0.5320   -0.4420 C   0  0  0  0  0  0  0  0  0  0  0  0
    1.1680   -0.5450   -0.3070 C   0  0  0  0  0  0  0  0  0  0  0  0
    1.7280   -1.9100   -0.0950 C   0  0  0  0  0  0  0  0  0  0  0  0
   -0.2250   -0.3820   -0.4080 C   0  0  0  0  0  0  0  0  0  0  0  0
   -0.9970   -1.6440   -0.3700 C   0  0  0  0  0  0  0  0  0  0  0  0
   -0.8130    0.8290   -0.6370 C   0  0  0  0  0  0  0  0  0  0  0  0
   -2.1890    1.1860   -0.5960 C   0  0  0  0  0  0  0  0  0  0  0  0
   -2.4980    2.3090   -1.4830 O   0  0  0  0  0  0  0  0  0  0  0  0
   -3.2490    0.7810    0.0140 C   0  0  0  0  0  0  0  0  0  0  0  0
   -3.4180   -0.2900    0.9820 C   0  0  0  0  0  0  0  0  0  0  0  0
    0.0710    1.8820   -0.7700 N   0  0  0  0  0  0  0  0  0  0  0  0
    1.3890    1.7670   -0.6830 C   0  0  0  0  0  0  0  0  0  0  0  0
    2.1410    2.7660   -0.8140 O   0  0  0  0  0  0  0  0  0  0  0  0
  1  2  2  0
  2  3  1  0
  3  4  2  0
  3 14  1  0
  4  5  1  0
  4  6  1  0
  6  7  1  0
  6  8  2  0
  8  9  1  0
  8 13  1  0
  9 10  1  0
  9 11  2  3
 11 12  1  0
 13 14  1  0
 14 15  2  0
M  END
