
     RDKit          3D

 13 13  0  0  0  0  0  0  0  0999 V2000
    4.1470    1.4570    0.7860 C   0  0  0  0  0  0  0  0  0  0  0  0
    2.8420    0.9850    0.5130 O   0  0  0  0  0  0  0  0  0  0  0  0
    2.4060    0.9320   -0.8030 C   0  0  0  0  0  0  0  0  0  0  0  0
    3.1640    1.2990   -1.7290 O   0  0  0  0  0  0  0  0  0  0  0  0
    1.0390    0.4350   -1.0730 C   0  0  0  0  0  0  0  0  0  0  0  0
    0.2630    0.0580   -0.1070 C   0  0  0  0  0  0  0  0  0  0  0  0
   -1.1020   -0.4560   -0.1650 C   0  0  0  0  0  0  0  0  0  0  0  0
   -1.7170   -0.7880    0.9840 C   0  0  0  0  0  0  0  0  0  0  0  0
   -3.0850   -1.3060    0.9710 C   0  0  0  0  0  0  0  0  0  0  0  0
   -3.6410   -1.4090   -0.2960 O   0  0  0  0  0  0  0  0  0  0  0  0
   -3.0210   -1.0730   -1.4680 C   0  0  0  0  0  0  0  0  0  0  0  0
   -1.7790   -0.6040   -1.4320 C   0  0  0  0  0  0  0  0  0  0  0  0
   -1.1800   -0.2710   -2.6680 O   0  0  0  0  0  0  0  0  0  0  0  0
  1  2  1  0
  2  3  1  0
  3  4  2  0
  3  5  1  0
  5  6  2  3
  6  7  1  0
  7  8  2  0
  7 12  1  0
  8  9  1  0
  9 10  1  0
 10 11  1  0
 11 12  2  0
 12 13  1  0
M  END
