
     RDKit          3D

 13 13  0  0  0  0  0  0  0  0999 V2000
    3.9410    0.2670   -0.2510 C   0  0  0  0  0  0  0  0  0  0  0  0
    2.6450   -0.2520    0.3290 C   0  0  0  0  0  0  0  0  0  0  0  0
    1.6550   -0.1460   -0.6710 O   0  0  0  0  0  0  0  0  0  0  0  0
    0.3360   -0.5300   -0.4970 C   0  0  0  0  0  0  0  0  0  0  0  0
   -0.5690    0.3880   -0.2520 C   0  0  0  0  0  0  0  0  0  0  0  0
   -0.2690    1.8290   -0.1470 C   0  0  0  0  0  0  0  0  0  0  0  0
   -1.9520   -0.0340   -0.0670 C   0  0  0  0  0  0  0  0  0  0  0  0
   -2.9290    0.8370   -0.1380 C   0  0  0  0  0  0  0  0  0  0  0  0
   -4.2310    0.4300    0.0380 O   0  0  0  0  0  0  0  0  0  0  0  0
   -2.2910   -1.4630    0.2080 C   0  0  0  0  0  0  0  0  0  0  0  0
   -1.3670   -2.3220   -0.4120 O   0  0  0  0  0  0  0  0  0  0  0  0
   -0.0610   -1.9190   -0.5810 C   0  0  0  0  0  0  0  0  0  0  0  0
    0.8400   -2.7970   -0.8210 O   0  0  0  0  0  0  0  0  0  0  0  0
  1  2  1  0
  2  3  1  0
  3  4  1  0
  4  5  2  0
  4 12  1  0
  5  6  1  0
  5  7  1  0
  7  8  2  3
  7 10  1  0
  8  9  1  0
 10 11  1  0
 11 12  1  0
 12 13  2  0
M  END
