
     RDKit          3D

 13 13  0  0  0  0  0  0  0  0999 V2000
    4.2990    1.3980   -0.0570 C   0  0  0  0  0  0  0  0  0  0  0  0
    3.3630    1.0590    0.7970 C   0  0  0  0  0  0  0  0  0  0  0  0
    2.5160   -0.1310    0.5510 C   0  0  0  0  0  0  0  0  0  0  0  0
    1.1360    0.2480    0.4670 O   0  0  0  0  0  0  0  0  0  0  0  0
    0.1820   -0.7300    0.2390 C   0  0  0  0  0  0  0  0  0  0  0  0
    0.5730   -1.9050    0.1180 O   0  0  0  0  0  0  0  0  0  0  0  0
   -1.2560   -0.4000    0.1430 C   0  0  0  0  0  0  0  0  0  0  0  0
   -1.6420    0.8370    0.2730 C   0  0  0  0  0  0  0  0  0  0  0  0
   -3.0530    1.2260    0.1870 C   0  0  0  0  0  0  0  0  0  0  0  0
   -3.8970    0.1530   -0.0420 O   0  0  0  0  0  0  0  0  0  0  0  0
   -3.4860   -1.1600   -0.1810 C   0  0  0  0  0  0  0  0  0  0  0  0
   -2.2050   -1.4640   -0.0960 C   0  0  0  0  0  0  0  0  0  0  0  0
   -1.7900   -2.8060   -0.2380 O   0  0  0  0  0  0  0  0  0  0  0  0
  1  2  2  0
  2  3  1  0
  3  4  1  0
  4  5  1  0
  5  6  2  0
  5  7  1  0
  7  8  2  0
  7 12  1  0
  8  9  1  0
  9 10  1  0
 10 11  1  0
 11 12  2  0
 12 13  1  0
M  END
