
     RDKit          3D

 15 15  0  0  0  0  0  0  0  0999 V2000
   -1.0190   -2.4090   -0.2530 C   0  0  0  0  0  0  0  0  0  0  0  0
   -0.8720   -1.0160   -0.1770 C   0  0  0  0  0  0  0  0  0  0  0  0
    0.4710   -0.6630   -0.0420 N   0  0  0  0  0  0  0  0  0  0  0  0
    1.1780    0.5150    0.0730 C   0  0  0  0  0  0  0  0  0  0  0  0
    0.5600    1.5890    0.0670 O   0  0  0  0  0  0  0  0  0  0  0  0
    2.6270    0.6250    0.2070 C   0  0  0  0  0  0  0  0  0  0  0  0
    3.3540    1.7200    0.3200 C   0  0  0  0  0  0  0  0  0  0  0  0
    4.7640    1.3910    0.4310 C   0  0  0  0  0  0  0  0  0  0  0  0
    4.9420    0.0820    0.3870 C   0  0  0  0  0  0  0  0  0  0  0  0
    3.5650   -0.4680    0.2410 C   0  0  0  0  0  0  0  0  0  0  0  0
    3.3900   -1.7050    0.1700 O   0  0  0  0  0  0  0  0  0  0  0  0
   -2.1100   -0.3170   -0.2550 C   0  0  0  0  0  0  0  0  0  0  0  0
   -3.3490   -1.2150   -0.4030 C   0  0  0  0  0  0  0  0  0  0  0  0
   -2.3390    0.9610   -0.2180 C   0  0  0  0  0  0  0  0  0  0  0  0
   -3.7700    1.4800   -0.3210 C   0  0  0  0  0  0  0  0  0  0  0  0
  1  2  2  0
  2  3  1  0
  2 12  1  0
  3  4  1  0
  4  5  2  0
  4  6  1  0
  6  7  2  0
  6 10  1  0
  7  8  1  0
  8  9  2  0
  9 10  1  0
 10 11  2  0
 12 13  1  0
 12 14  2  3
 14 15  1  0
M  END
