
     RDKit          3D

 34 38  0  0  0  0  0  0  0  0999 V2000
   -7.8260    0.3280   -1.7890 C   0  0  0  0  0  0  0  0  0  0  0  0
   -6.9510   -0.7830   -1.2400 C   0  0  1  0  0  0  0  0  0  0  0  0
   -7.0000   -1.9220   -2.2350 C   0  0  0  0  0  0  0  0  0  0  0  0
   -5.5400   -0.3000   -0.9830 C   0  0  0  0  0  0  0  0  0  0  0  0
   -5.2450   -0.4460    0.4070 N   0  0  1  0  0  0  0  0  0  0  0  0
   -3.8690   -0.2300    0.7210 C   0  0  0  0  0  0  0  0  0  0  0  0
   -3.5100   -0.3610    2.0580 C   0  0  0  0  0  0  0  0  0  0  0  0
   -2.2100   -0.1720    2.4670 C   0  0  0  0  0  0  0  0  0  0  0  0
   -1.2610    0.1500    1.5270 C   0  0  0  0  0  0  0  0  0  0  0  0
   -1.6100    0.2830    0.1860 C   0  0  0  0  0  0  0  0  0  0  0  0
   -2.9120    0.0950   -0.2270 C   0  0  0  0  0  0  0  0  0  0  0  0
   -0.7620    0.6180   -0.9770 C   0  0  0  0  0  0  0  0  0  0  0  0
    0.6930    0.2790   -0.7400 C   0  0  0  0  0  0  0  0  0  0  0  0
    1.4240    1.2740    0.0980 C   0  0  2  0  0  0  0  0  0  0  0  0
    2.8670    1.4380   -0.2950 C   0  0  2  0  0  0  0  0  0  0  0  0
    3.4980    0.0860   -0.3980 C   0  0  0  0  0  0  0  0  0  0  0  0
    4.8970    0.1430   -0.7730 N   0  0  1  0  0  0  0  0  0  0  0  0
    5.7900   -0.0240    0.3370 C   0  0  0  0  0  0  0  0  0  0  0  0
    6.6430   -1.2770    0.2240 C   0  0  0  0  0  0  0  0  0  0  0  0
    7.4280   -1.3110   -0.9720 N   0  0  0  0  0  0  0  0  0  0  0  0
    8.7300   -0.6920   -0.8050 C   0  0  0  0  0  0  0  0  0  0  0  0
    9.3930   -1.3870    0.1850 F   0  0  0  0  0  0  0  0  0  0  0  0
    6.6890   -0.7490   -2.0610 C   0  0  0  0  0  0  0  0  0  0  0  0
    5.2130   -0.8830   -1.7490 C   0  0  0  0  0  0  0  0  0  0  0  0
    3.5390    2.3900    0.6230 C   0  0  0  0  0  0  0  0  0  0  0  0
    3.0550    2.3950    2.0330 C   0  0  0  0  0  0  0  0  0  0  0  0
    2.3150    1.1530    2.4420 C   0  0  0  0  0  0  0  0  0  0  0  0
    1.2570    0.9190    1.4900 N   0  0  0  0  0  0  0  0  0  0  0  0
    0.0890    0.3320    2.0510 C   0  0  0  0  0  0  0  0  0  0  0  0
    0.2370   -0.1270    3.2370 O   0  0  0  0  0  0  0  0  0  0  0  0
   -6.0870    0.5100    1.1440 C   0  0  0  0  0  0  0  0  0  0  0  0
   -7.2610   -0.3210    1.6750 C   0  0  0  0  0  0  0  0  0  0  0  0
   -7.7440   -1.3770    0.2780 S   0  0  0  0  0  0  0  0  0  0  0  0
   -7.3830   -2.8300    0.5540 O   0  0  0  0  0  0  0  0  0  0  0  0
  2  1  1  6
  2  3  1  0
  2  4  1  0
  2 33  1  0
  4  5  1  0
  5  6  1  6
  5 31  1  0
  6  7  2  0
  6 11  1  0
  7  8  1  0
  8  9  2  0
  9 10  1  0
  9 29  1  0
 10 11  2  0
 10 12  1  0
 12 13  1  0
 14 13  1  6
 14 15  1  0
 14 28  1  0
 15 16  1  1
 15 25  1  0
 17 16  1  1
 17 18  1  0
 17 24  1  0
 18 19  1  0
 19 20  1  0
 20 21  1  0
 20 23  1  0
 21 22  1  0
 23 24  1  0
 25 26  1  0
 26 27  1  0
 27 28  1  0
 28 29  1  0
 29 30  2  0
 31 32  1  0
 33 32  1  1
 33 34  2  0
M  CHG  2   5   1  17   1
M  END
