
     RDKit          3D

 34 37  0  0  0  0  0  0  0  0999 V2000
    9.3900    1.8850   -0.3800 C   0  0  0  0  0  0  0  0  0  0  0  0
    8.0550    1.5300   -0.3580 C   0  0  0  0  0  0  0  0  0  0  0  0
    7.6290    0.2880   -0.5990 C   0  0  0  0  0  0  0  0  0  0  0  0
    6.3130   -0.0450   -0.5780 C   0  0  0  0  0  0  0  0  0  0  0  0
    5.6120   -1.2880   -0.7960 C   0  0  0  0  0  0  0  0  0  0  0  0
    4.1430   -1.0580   -0.8730 N   0  0  0  0  0  0  0  0  0  0  0  0
    3.6420   -0.7940   -2.1860 C   0  0  0  0  0  0  0  0  0  0  0  0
    3.4230   -1.1190    0.2870 C   0  0  0  0  0  0  0  0  0  0  0  0
    4.1900   -1.3970    1.3540 O   0  0  0  0  0  0  0  0  0  0  0  0
    2.0100   -0.9550    0.6450 C   0  0  0  0  0  0  0  0  0  0  0  0
    1.0370   -0.6540   -0.3030 N   0  0  2  0  0  0  0  0  0  0  0  0
    0.0970    0.3980    0.1560 C   0  0  0  0  0  0  0  0  0  0  0  0
   -0.8120   -0.0520    1.2470 C   0  0  1  0  0  0  0  0  0  0  0  0
   -2.2580   -0.1080    0.8400 C   0  0  0  0  0  0  0  0  0  0  0  0
   -2.7010    1.0660    0.1610 N   0  0  0  0  0  0  0  0  0  0  0  0
   -2.7930    2.2620    0.9090 C   0  0  0  0  0  0  0  0  0  0  0  0
   -4.1750    2.5690    1.4280 C   0  0  0  0  0  0  0  0  0  0  0  0
   -5.2360    2.1980    0.5310 N   0  0  2  0  0  0  0  0  0  0  0  0
   -5.9160    1.0600    1.0620 C   0  0  0  0  0  0  0  0  0  0  0  0
   -6.8360    0.3570    0.1280 C   0  0  0  0  0  0  0  0  0  0  0  0
   -6.4860    0.4340   -1.3150 C   0  0  0  0  0  0  0  0  0  0  0  0
   -5.8640    1.7440   -1.7220 C   0  0  0  0  0  0  0  0  0  0  0  0
   -4.6890    1.9800   -0.7910 C   0  0  2  0  0  0  0  0  0  0  0  0
   -3.8030    0.7570   -0.6880 C   0  0  0  0  0  0  0  0  0  0  0  0
   -0.3280   -1.1260    1.8820 O   0  0  0  0  0  0  0  0  0  0  0  0
   -0.6350   -2.3680    1.4850 C   0  0  0  0  0  0  0  0  0  0  0  0
   -0.1860   -2.7890    0.1270 C   0  0  2  0  0  0  0  0  0  0  0  0
   -1.3970   -3.4890   -0.5270 C   0  0  0  0  0  0  0  0  0  0  0  0
    0.9040   -3.8550    0.1530 C   0  0  0  0  0  0  0  0  0  0  0  0
    0.2190   -1.7140   -0.7940 C   0  0  0  0  0  0  0  0  0  0  0  0
    5.5540    1.5520   -0.1730 S   0  0  0  0  0  0  0  0  0  0  0  0
    7.0810    2.5130   -0.0720 C   0  0  0  0  0  0  0  0  0  0  0  0
    7.1160    3.7650    0.2000 C   0  0  0  0  0  0  0  0  0  0  0  0
    8.2350    4.4730    0.2760 F   0  0  0  0  0  0  0  0  0  0  0  0
  1  2  2  0
  2  3  1  0
  2 32  1  0
  3  4  2  0
  4  5  1  0
  4 31  1  0
  5  6  1  0
  6  7  1  0
  6  8  1  0
  8  9  2  0
  8 10  1  0
 11 10  1  1
 11 12  1  0
 11 30  1  0
 12 13  1  0
 13 14  1  6
 13 25  1  0
 14 15  1  0
 15 16  1  0
 15 24  1  0
 16 17  1  0
 18 17  1  1
 18 19  1  0
 18 23  1  0
 19 20  1  0
 20 21  1  0
 21 22  1  0
 23 22  1  6
 23 24  1  0
 25 26  1  0
 26 27  1  0
 27 28  1  6
 27 29  1  0
 27 30  1  0
 31 32  1  0
 32 33  2  3
 33 34  1  0
M  CHG  2  11   1  18   1
M  END
