
     RDKit          3D

 35 38  0  0  0  0  0  0  0  0999 V2000
   -5.2240   -1.3760    3.9930 C   0  0  0  0  0  0  0  0  0  0  0  0
   -3.8200   -0.8530    3.6600 C   0  0  0  0  0  0  0  0  0  0  0  0
   -3.7530   -0.6840    2.3250 O   0  0  0  0  0  0  0  0  0  0  0  0
   -2.6200   -0.2230    1.7640 C   0  0  1  0  0  0  0  0  0  0  0  0
   -1.8860   -1.1460    0.8360 C   0  0  0  0  0  0  0  0  0  0  0  0
   -0.6860   -0.4850    0.3240 N   0  0  2  0  0  0  0  0  0  0  0  0
    0.4570   -1.3530    0.3530 C   0  0  1  0  0  0  0  0  0  0  0  0
    0.9600   -1.6440   -1.0410 C   0  0  0  0  0  0  0  0  0  0  0  0
    2.2560   -2.4100   -1.0300 C   0  0  0  0  0  0  0  0  0  0  0  0
    3.2590   -1.5390   -0.2490 C   0  0  2  0  0  0  0  0  0  0  0  0
    4.5490   -1.9830   -0.4470 O   0  0  0  0  0  0  0  0  0  0  0  0
    5.5780   -1.2640   -0.9730 C   0  0  0  0  0  0  0  0  0  0  0  0
    6.8100   -1.9280   -1.1010 C   0  0  0  0  0  0  0  0  0  0  0  0
    7.8930   -1.2580   -1.6260 C   0  0  0  0  0  0  0  0  0  0  0  0
    7.7570    0.0460   -2.0160 C   0  0  0  0  0  0  0  0  0  0  0  0
    6.5570    0.6950   -1.8910 C   0  0  0  0  0  0  0  0  0  0  0  0
    5.4400    0.0410   -1.3620 C   0  0  0  0  0  0  0  0  0  0  0  0
    6.3730    2.0420   -2.2750 N   0  0  0  0  0  0  0  0  0  0  0  0
    7.3780    2.8590   -2.8190 C   0  0  0  0  0  0  0  0  0  0  0  0
    7.0490    3.7570   -3.6620 O   0  0  0  0  0  0  0  0  0  0  0  0
    8.8190    2.6950   -2.4270 C   0  0  0  0  0  0  0  0  0  0  0  0
    9.1640    0.9100   -2.6970 S   0  0  0  0  0  0  0  0  0  0  0  0
    2.7930   -1.6790    1.1970 C   0  0  0  0  0  0  0  0  0  0  0  0
    1.5000   -0.8820    1.2870 C   0  0  0  0  0  0  0  0  0  0  0  0
   -0.3870    0.7490    0.9690 C   0  0  0  0  0  0  0  0  0  0  0  0
   -1.5430    1.7270    1.0360 C   0  0  0  0  0  0  0  0  0  0  0  0
   -2.8270    1.0820    1.2320 N   0  0  0  0  0  0  0  0  0  0  0  0
   -3.5970    1.1930    0.0290 C   0  0  0  0  0  0  0  0  0  0  0  0
   -4.9350    0.5930    0.0270 C   0  0  0  0  0  0  0  0  0  0  0  0
   -5.7090    0.7140   -1.1440 N   0  0  1  0  0  0  0  0  0  0  0  0
   -6.3410    2.0790   -0.9150 C   0  0  0  0  0  0  0  0  0  0  0  0
   -7.4320    1.9010    0.1050 C   0  0  0  0  0  0  0  0  0  0  0  0
   -4.9680    0.6170   -2.2830 C   0  0  0  0  0  0  0  0  0  0  0  0
   -4.4970    1.7020   -2.2740 O   0  0  0  0  0  0  0  0  0  0  0  0
   -4.4410   -0.3160   -3.6450 Cl  0  0  0  0  0  0  0  0  0  0  0  0
  1  2  1  0
  2  3  1  0
  4  3  1  6
  4  5  1  0
  4 27  1  0
  6  5  1  1
  6  7  1  0
  6 25  1  0
  7  8  1  6
  7 24  1  0
  8  9  1  0
  9 10  1  0
 10 11  1  1
 10 23  1  0
 11 12  1  0
 12 13  2  0
 12 17  1  0
 13 14  1  0
 14 15  2  0
 15 16  1  0
 15 22  1  0
 16 17  2  0
 16 18  1  0
 18 19  1  0
 19 20  2  0
 19 21  1  0
 21 22  1  0
 23 24  1  0
 25 26  1  0
 26 27  1  0
 27 28  1  0
 28 29  1  0
 30 29  1  1
 30 31  1  0
 30 33  1  0
 31 32  1  0
 33 34  2  0
 33 35  1  0
M  CHG  2   6   1  30   1
M  END
