
     RDKit          3D

 34 36  0  0  0  0  0  0  0  0999 V2000
   -3.0060    1.8800    3.3950 N   0  0  0  0  0  0  0  0  0  0  0  0
   -1.6090    0.8680    3.3440 S   0  0  2  0  0  0  0  0  0  0  0  0
   -1.9740   -0.5730    3.5890 O   0  0  0  0  0  0  0  0  0  0  0  0
   -0.7530    1.2710    4.5380 O   0  0  0  0  0  0  0  0  0  0  0  0
   -0.6590    1.0710    1.9180 C   0  0  0  0  0  0  0  0  0  0  0  0
    0.3250    2.0620    1.9270 C   0  0  0  0  0  0  0  0  0  0  0  0
    0.5310    2.8530    3.0010 F   0  0  0  0  0  0  0  0  0  0  0  0
    1.0950    2.2190    0.7960 C   0  0  0  0  0  0  0  0  0  0  0  0
    2.0780    3.1640    0.7160 F   0  0  0  0  0  0  0  0  0  0  0  0
    0.8830    1.4100   -0.2990 C   0  0  0  0  0  0  0  0  0  0  0  0
    1.9140    1.6470   -1.7550 S   0  0  0  0  0  0  0  0  0  0  0  0
    3.4140    0.6050   -1.6540 C   0  0  0  0  0  0  0  0  0  0  0  0
    4.2290    1.1170   -0.5110 C   0  0  0  0  0  0  0  0  0  0  0  0
    5.4920    0.3610   -0.3060 C   0  0  0  0  0  0  0  0  0  0  0  0
    5.5570   -0.7490    0.5200 C   0  0  0  0  0  0  0  0  0  0  0  0
    6.7340   -1.4450    0.7040 C   0  0  0  0  0  0  0  0  0  0  0  0
    7.9000   -1.0650    0.0730 C   0  0  0  0  0  0  0  0  0  0  0  0
    9.1400   -1.8010    0.2710 C   0  0  0  0  0  0  0  0  0  0  0  0
   10.1630   -1.4010   -0.3340 O   0  0  0  0  0  0  0  0  0  0  0  0
    9.2560   -2.9120    1.0850 O   0  0  0  0  0  0  0  0  0  0  0  0
    7.8300    0.0400   -0.7470 C   0  0  0  0  0  0  0  0  0  0  0  0
    6.6580    0.7410   -0.9370 C   0  0  0  0  0  0  0  0  0  0  0  0
   -0.0990    0.4240   -0.3010 C   0  0  0  0  0  0  0  0  0  0  0  0
   -0.2400   -0.3460   -1.4090 F   0  0  0  0  0  0  0  0  0  0  0  0
   -0.8870    0.2490    0.8300 C   0  0  0  0  0  0  0  0  0  0  0  0
   -1.8670   -0.7490    0.8530 N   0  0  0  0  0  0  0  0  0  0  0  0
   -3.2100   -0.4780    0.5090 C   0  0  1  0  0  0  0  0  0  0  0  0
   -3.3890    0.0830   -0.8380 C   0  0  0  0  0  0  0  0  0  0  0  0
   -4.5230    0.8050   -1.3830 C   0  0  0  0  0  0  0  0  0  0  0  0
   -5.9390    0.5460   -1.3140 C   0  0  0  0  0  0  0  0  0  0  0  0
   -6.6380   -0.7210   -1.6690 C   0  0  0  0  0  0  0  0  0  0  0  0
   -6.4440   -1.8550   -0.5970 C   0  0  0  0  0  0  0  0  0  0  0  0
   -5.1790   -1.5020   -0.0700 C   0  0  0  0  0  0  0  0  0  0  0  0
   -4.0950   -1.7500    0.7930 C   0  0  0  0  0  0  0  0  0  0  0  0
  2  1  1  6
  2  3  2  0
  2  4  2  0
  2  5  1  0
  5  6  2  0
  5 25  1  0
  6  7  1  0
  6  8  1  0
  8  9  1  0
  8 10  2  0
 10 11  1  0
 10 23  1  0
 11 12  1  0
 12 13  1  0
 13 14  1  0
 14 15  2  0
 14 22  1  0
 15 16  1  0
 16 17  2  0
 17 18  1  0
 17 21  1  0
 18 19  2  0
 18 20  1  0
 21 22  2  0
 23 24  1  0
 23 25  2  0
 25 26  1  0
 27 26  1  6
 27 28  1  0
 27 34  1  0
 28 29  1  0
 29 30  1  0
 30 31  1  0
 31 32  1  0
 32 33  1  0
 33 34  1  0
M  END
