
     RDKit          3D

 10 10  0  0  0  0  0  0  0  0999 V2000
    0.4760    2.1520    0.8960 O   0  0  0  0  0  0  0  0  0  0  0  0
    0.2710    0.9960    0.3910 C   0  0  0  0  0  0  0  0  0  0  0  0
    1.4210    0.1670    0.0900 C   0  0  0  0  0  0  0  0  0  0  0  0
    3.0580    0.7640    0.4210 Cl  0  0  0  0  0  0  0  0  0  0  0  0
    1.2630   -1.0350   -0.4320 C   0  0  0  0  0  0  0  0  0  0  0  0
   -0.0650   -1.4670   -0.6780 N   0  0  0  0  0  0  0  0  0  0  0  0
   -1.1290   -0.8030   -0.4430 C   0  0  0  0  0  0  0  0  0  0  0  0
   -2.7000   -1.5630   -0.8400 Cl  0  0  0  0  0  0  0  0  0  0  0  0
   -1.0960    0.5380    0.1330 C   0  0  1  0  0  0  0  0  0  0  0  0
   -2.0440    0.6060    1.6590 Cl  0  0  0  0  0  0  0  0  0  0  0  0
  1  2  2  0
  2  3  1  0
  2  9  1  0
  3  4  1  0
  3  5  2  0
  5  6  1  0
  6  7  2  0
  7  8  1  0
  7  9  1  0
  9 10  1  1
M  END
