
     RDKit          3D

 10 10  0  0  0  0  0  0  0  0999 V2000
    0.0390    1.8170    0.5860 C   0  0  0  0  0  0  0  0  0  0  0  0
   -0.1300    0.4550    0.1710 N   0  0  0  0  0  0  0  0  0  0  0  0
   -1.3080   -0.3500    0.3410 C   0  0  0  0  0  0  0  0  0  0  0  0
   -0.9560   -1.7270   -0.1140 C   0  0  1  0  0  0  0  0  0  0  0  0
   -2.2790   -2.3860   -1.1100 Cl  0  0  0  0  0  0  0  0  0  0  0  0
    0.2150   -1.5450   -0.8740 O   0  0  0  0  0  0  0  0  0  0  0  0
    0.8280   -0.3510   -0.4820 C   0  0  0  0  0  0  0  0  0  0  0  0
    2.0830   -0.0830   -0.7110 C   0  0  0  0  0  0  0  0  0  0  0  0
    2.7160    1.4640   -0.1570 Cl  0  0  0  0  0  0  0  0  0  0  0  0
    3.1400   -1.1990   -1.5390 Cl  0  0  0  0  0  0  0  0  0  0  0  0
  1  2  1  0
  2  3  1  0
  2  7  1  0
  3  4  1  0
  4  5  1  6
  4  6  1  0
  6  7  1  0
  7  8  2  3
  8  9  1  0
  8 10  1  0
M  END
