
     RDKit          3D

 21 21  0  0  0  0  0  0  0  0999 V2000
    5.9040    0.1330    2.6680 C   0  0  0  0  0  0  0  0  0  0  0  0
    5.9460    0.9650    1.6520 C   0  0  0  0  0  0  0  0  0  0  0  0
    4.7900    1.1690    0.8030 C   0  0  0  0  0  0  0  0  0  0  0  0
    4.8750    2.0120   -0.2030 C   0  0  0  0  0  0  0  0  0  0  0  0
    6.1460    2.7270   -0.4380 C   0  0  0  0  0  0  0  0  0  0  0  0
    3.5550    0.4090    1.1140 C   0  0  0  0  0  0  0  0  0  0  0  0
    2.4890    0.7660    0.1220 C   0  0  0  0  0  0  0  0  0  0  0  0
    1.2470   -0.0410    0.4830 C   0  0  2  0  0  0  0  0  0  0  0  0
    1.5980   -1.3670    0.3990 O   0  0  0  0  0  0  0  0  0  0  0  0
    0.1140    0.3260   -0.4460 C   0  0  0  0  0  0  0  0  0  0  0  0
   -1.0440   -0.3930   -0.1940 O   0  0  0  0  0  0  0  0  0  0  0  0
   -2.2410   -0.2890   -0.8630 C   0  0  0  0  0  0  0  0  0  0  0  0
   -2.3640    0.6060   -1.8990 C   0  0  0  0  0  0  0  0  0  0  0  0
   -3.5370    0.7480   -2.5980 C   0  0  0  0  0  0  0  0  0  0  0  0
   -4.6260   -0.0240   -2.2580 C   0  0  0  0  0  0  0  0  0  0  0  0
   -5.8940    0.1340   -3.0200 C   0  0  0  0  0  0  0  0  0  0  0  0
   -4.4940   -0.9200   -1.2150 C   0  0  0  0  0  0  0  0  0  0  0  0
   -3.3190   -1.0590   -0.5190 C   0  0  0  0  0  0  0  0  0  0  0  0
   -3.2440   -2.0450    0.5950 C   0  0  2  0  0  0  0  0  0  0  0  0
   -4.5650   -2.7800    0.7200 C   0  0  0  0  0  0  0  0  0  0  0  0
   -3.0220   -1.3380    1.9290 C   0  0  0  0  0  0  0  0  0  0  0  0
  1  2  2  0
  2  3  1  0
  3  4  2  3
  3  6  1  0
  4  5  1  0
  6  7  1  0
  7  8  1  0
  8  9  1  6
  8 10  1  0
 10 11  1  0
 11 12  1  0
 12 13  2  0
 12 18  1  0
 13 14  1  0
 14 15  2  0
 15 16  1  0
 15 17  1  0
 17 18  2  0
 18 19  1  0
 19 20  1  1
 19 21  1  0
M  END
