
     RDKit          3D

 21 20  0  0  0  0  0  0  0  0999 V2000
   -5.7630    2.2710    2.4280 C   0  0  0  0  0  0  0  0  0  0  0  0
   -5.8540    2.2740    0.9350 C   0  0  0  0  0  0  0  0  0  0  0  0
   -6.6860    1.1310    0.3980 C   0  0  0  0  0  0  0  0  0  0  0  0
   -6.1250   -0.2190    0.7860 C   0  0  0  0  0  0  0  0  0  0  0  0
   -4.7020   -0.3830    0.2350 C   0  0  0  0  0  0  0  0  0  0  0  0
   -4.2460   -1.7400    0.6720 C   0  0  0  0  0  0  0  0  0  0  0  0
   -2.8120   -1.9990    0.2050 C   0  0  0  0  0  0  0  0  0  0  0  0
   -2.7140   -1.9460   -1.2570 C   0  0  0  0  0  0  0  0  0  0  0  0
   -1.4730   -2.2480   -1.9670 C   0  0  0  0  0  0  0  0  0  0  0  0
   -0.2330   -1.4990   -1.8270 C   0  0  0  0  0  0  0  0  0  0  0  0
    0.4150   -1.4860   -0.4810 C   0  0  0  0  0  0  0  0  0  0  0  0
    1.7520   -0.6830   -0.6030 C   0  0  0  0  0  0  0  0  0  0  0  0
    2.4100   -0.6660    0.7440 C   0  0  0  0  0  0  0  0  0  0  0  0
    3.7210    0.0910    0.7570 C   0  0  0  0  0  0  0  0  0  0  0  0
    4.6870   -0.5320   -0.1930 C   0  0  0  0  0  0  0  0  0  0  0  0
    6.0380    0.1300   -0.2560 C   0  0  0  0  0  0  0  0  0  0  0  0
    5.8870    1.5360   -0.6890 C   0  0  0  0  0  0  0  0  0  0  0  0
    7.1520    2.3150   -0.8100 C   0  0  0  0  0  0  0  0  0  0  0  0
    7.9350    2.4460    0.4040 C   0  0  0  0  0  0  0  0  0  0  0  0
    9.0210    3.1000    0.3300 O   0  0  0  0  0  0  0  0  0  0  0  0
    7.6260    1.9300    1.6490 O   0  0  0  0  0  0  0  0  0  0  0  0
  1  2  1  0
  2  3  1  0
  3  4  1  0
  4  5  1  0
  5  6  1  0
  6  7  1  0
  7  8  1  0
  8  9  1  0
  9 10  1  0
 10 11  1  0
 11 12  1  0
 12 13  1  0
 13 14  1  0
 14 15  1  0
 15 16  1  0
 16 17  1  0
 17 18  1  0
 18 19  1  0
 19 20  2  0
 19 21  1  0
M  END
