
     RDKit          3D

 10 10  0  0  0  0  0  0  0  0999 V2000
    2.1320    2.5610   -0.5700 Cl  0  0  0  0  0  0  0  0  0  0  0  0
    1.0290    1.1960   -0.3360 C   0  0  0  0  0  0  0  0  0  0  0  0
    1.6270    0.0870    0.0720 C   0  0  0  0  0  0  0  0  0  0  0  0
    0.9490   -1.1790    0.3400 C   0  0  0  0  0  0  0  0  0  0  0  0
    1.9960   -2.5840    0.3390 Cl  0  0  0  0  0  0  0  0  0  0  0  0
   -0.3010   -1.4310    0.5780 N   0  0  0  0  0  0  0  0  0  0  0  0
   -1.3320   -0.3940    0.6220 C   0  0  2  0  0  0  0  0  0  0  0  0
   -2.9100   -1.0670    0.9840 Cl  0  0  0  0  0  0  0  0  0  0  0  0
   -1.3030    0.3930   -0.6680 C   0  0  0  0  0  0  0  0  0  0  0  0
   -0.3200    1.4380   -0.6020 O   0  0  0  0  0  0  0  0  0  0  0  0
  1  2  1  0
  2  3  2  0
  2 10  1  0
  3  4  1  0
  4  5  1  0
  4  6  2  0
  6  7  1  0
  7  8  1  6
  7  9  1  0
  9 10  1  0
M  END
