
     RDKit          3D

 10 10  0  0  0  0  0  0  0  0999 V2000
    2.9650   -0.3320    1.6280 N   0  0  0  0  0  0  0  0  0  0  0  0
    1.9410   -0.2320    1.0860 C   0  0  0  0  0  0  0  0  0  0  0  0
    0.6820   -0.0840    0.4120 C   0  0  0  0  0  0  0  0  0  0  0  0
   -0.2920    0.7650    0.7420 C   0  0  0  0  0  0  0  0  0  0  0  0
   -1.3660    0.5290   -0.2540 C   0  0  1  0  0  0  0  0  0  0  0  0
   -2.9770    0.8300    0.3780 Cl  0  0  0  0  0  0  0  0  0  0  0  0
   -0.9880    1.5080   -1.6840 Cl  0  0  0  0  0  0  0  0  0  0  0  0
   -1.1750   -0.8280   -0.5710 O   0  0  0  0  0  0  0  0  0  0  0  0
    0.2260   -0.8330   -0.7640 C   0  0  2  0  0  0  0  0  0  0  0  0
    0.8360   -2.4880   -0.8240 Cl  0  0  0  0  0  0  0  0  0  0  0  0
  1  2  3  0
  2  3  1  0
  3  4  2  0
  3  9  1  0
  4  5  1  0
  5  6  1  1
  5  7  1  0
  5  8  1  0
  8  9  1  0
  9 10  1  1
M  END
