
     RDKit          3D

 10 10  0  0  0  0  0  0  0  0999 V2000
   -1.5630   -2.0680    0.3790 Cl  0  0  0  0  0  0  0  0  0  0  0  0
   -2.1530   -0.4870   -0.1230 C   0  0  0  0  0  0  0  0  0  0  0  0
   -1.0370    0.4760   -0.2790 C   0  0  0  0  0  0  0  0  0  0  0  0
   -1.4270    2.1080   -0.7750 Cl  0  0  0  0  0  0  0  0  0  0  0  0
    0.1790    0.0810   -0.0460 C   0  0  0  0  0  0  0  0  0  0  0  0
    0.6430   -1.1770    0.3530 N   0  0  0  0  0  0  0  0  0  0  0  0
    1.8800   -1.1070    0.7040 C   0  0  0  0  0  0  0  0  0  0  0  0
    2.3370    0.1960    0.5690 O   0  0  0  0  0  0  0  0  0  0  0  0
    1.3840    0.9530   -0.1680 C   0  0  2  0  0  0  0  0  0  0  0  0
    1.0800    2.5030    0.6060 Cl  0  0  0  0  0  0  0  0  0  0  0  0
  1  2  1  0
  2  3  1  0
  3  4  1  0
  3  5  2  3
  5  6  1  0
  5  9  1  0
  6  7  2  0
  7  8  1  0
  8  9  1  0
  9 10  1  1
M  END
