
     RDKit          3D

 10 10  0  0  0  0  0  0  0  0999 V2000
   -2.0340   -1.2700   -0.5620 O   0  0  0  0  0  0  0  0  0  0  0  0
   -0.8720   -0.5980   -0.2570 N   0  0  0  0  0  0  0  0  0  0  0  0
    0.2760   -1.3880   -0.0430 C   0  0  0  0  0  0  0  0  0  0  0  0
    1.4160   -0.8110    0.2520 C   0  0  0  0  0  0  0  0  0  0  0  0
    2.8500   -1.7770    0.5200 Cl  0  0  0  0  0  0  0  0  0  0  0  0
    1.4420    0.6360    0.3450 C   0  0  0  0  0  0  0  0  0  0  0  0
    0.3930    1.4010    0.1520 C   0  0  0  0  0  0  0  0  0  0  0  0
    0.5460    3.1780    0.2950 Cl  0  0  0  0  0  0  0  0  0  0  0  0
   -0.9180    0.8290   -0.1810 C   0  0  1  0  0  0  0  0  0  0  0  0
   -1.4150    1.4310   -1.8080 Cl  0  0  0  0  0  0  0  0  0  0  0  0
  1  2  1  0
  2  3  1  0
  2  9  1  0
  3  4  2  0
  4  5  1  0
  4  6  1  0
  6  7  2  0
  7  8  1  0
  7  9  1  0
  9 10  1  6
M  END
