
     RDKit          3D

 19 20  0  0  0  0  0  0  0  0999 V2000
   -2.2730    1.7800   -1.5970 O   0  0  0  0  0  0  0  0  0  0  0  0
   -3.3940    1.3270   -0.3570 P   0  0  0  0  0  0  0  0  0  0  0  0
   -4.5330    2.5890   -0.0170 O   0  0  0  0  0  0  0  0  0  0  0  0
   -2.4550    0.9020    1.1840 C   0  0  0  0  0  0  0  0  0  0  0  0
   -1.5300   -0.2180    0.8390 C   0  0  0  0  0  0  0  0  0  0  0  0
   -1.9710   -1.5060    0.9840 C   0  0  0  0  0  0  0  0  0  0  0  0
   -1.1570   -2.5620    0.6800 C   0  0  0  0  0  0  0  0  0  0  0  0
   -1.5980   -3.8580    0.8250 F   0  0  0  0  0  0  0  0  0  0  0  0
    0.1590   -2.3700    0.2070 C   0  0  0  0  0  0  0  0  0  0  0  0
    0.8840   -3.4210   -0.0660 C   0  0  0  0  0  0  0  0  0  0  0  0
    0.3290   -4.6730    0.1220 F   0  0  0  0  0  0  0  0  0  0  0  0
    0.5820   -1.0510    0.0680 C   0  0  0  0  0  0  0  0  0  0  0  0
    1.8110   -0.8400   -0.3730 C   0  0  0  0  0  0  0  0  0  0  0  0
    2.4620    0.4290   -0.5940 C   0  0  0  0  0  0  0  0  0  0  0  0
    3.7230    0.5610   -1.0480 C   0  0  0  0  0  0  0  0  0  0  0  0
    4.0030    1.9140   -1.1350 O   0  0  0  0  0  0  0  0  0  0  0  0
    3.0730    2.5570   -0.3030 C   0  0  0  0  0  0  0  0  0  0  0  0
    1.9500    1.6800   -0.3970 O   0  0  0  0  0  0  0  0  0  0  0  0
   -0.2550   -0.0020    0.3810 C   0  0  0  0  0  0  0  0  0  0  0  0
  1  2  1  0
  2  3  1  0
  2  4  1  0
  4  5  1  0
  5  6  1  0
  5 19  2  0
  6  7  2  0
  7  8  1  0
  7  9  1  0
  9 10  2  3
  9 12  1  0
 10 11  1  0
 12 13  2  3
 12 19  1  0
 13 14  1  0
 14 15  2  0
 14 18  1  0
 15 16  1  0
 16 17  1  0
 17 18  1  0
M  END
