
     RDKit          3D

 20 20  0  0  0  0  0  0  0  0999 V2000
   -3.2670   -2.1340   -2.6200 O   0  0  0  0  0  0  0  0  0  0  0  0
   -3.5800   -1.2000   -1.8300 C   0  0  0  0  0  0  0  0  0  0  0  0
   -4.6620   -1.3620   -0.9820 O   0  0  0  0  0  0  0  0  0  0  0  0
   -5.6660   -0.4580   -0.5980 C   0  0  0  0  0  0  0  0  0  0  0  0
   -5.1920    0.9120   -0.3180 C   0  0  0  0  0  0  0  0  0  0  0  0
   -3.8790    1.0860    0.0770 O   0  0  0  0  0  0  0  0  0  0  0  0
   -2.6970    0.5950   -0.5460 C   0  0  0  0  0  0  0  0  0  0  0  0
   -1.5980    0.6760    0.1480 C   0  0  0  0  0  0  0  0  0  0  0  0
   -0.2610    0.2720   -0.1950 C   0  0  0  0  0  0  0  0  0  0  0  0
    0.7280    0.4610    0.6980 C   0  0  0  0  0  0  0  0  0  0  0  0
    2.0950    0.0540    0.3640 C   0  0  0  0  0  0  0  0  0  0  0  0
    3.0800    0.2250    1.2120 C   0  0  0  0  0  0  0  0  0  0  0  0
    4.4450   -0.1630    0.9170 C   0  0  0  0  0  0  0  0  0  0  0  0
    5.4110    0.0250    1.8080 C   0  0  0  0  0  0  0  0  0  0  0  0
    6.7200   -0.3430    1.5370 O   0  0  0  0  0  0  0  0  0  0  0  0
    4.7360   -0.7770   -0.4000 C   0  0  0  0  0  0  0  0  0  0  0  0
    4.3860    0.1420   -1.3850 O   0  0  0  0  0  0  0  0  0  0  0  0
   -2.7250    0.0360   -1.8870 C   0  0  2  0  0  0  0  0  0  0  0  0
   -3.4940    0.9220   -2.6710 F   0  0  0  0  0  0  0  0  0  0  0  0
   -1.5730   -0.1560   -2.5450 F   0  0  0  0  0  0  0  0  0  0  0  0
  1  2  2  0
  2  3  1  0
  2 18  1  0
  3  4  1  0
  4  5  1  0
  5  6  1  0
  6  7  1  0
  7  8  2  3
  7 18  1  0
  8  9  1  0
  9 10  2  3
 10 11  1  0
 11 12  2  3
 12 13  1  0
 13 14  2  3
 13 16  1  0
 14 15  1  0
 16 17  1  0
 18 19  1  6
 18 20  1  0
M  END
