
     RDKit          3D

 16 16  0  0  0  0  0  0  0  0999 V2000
    3.7960   -0.6840   -1.7110 O   0  0  0  0  0  0  0  0  0  0  0  0
    3.3360    0.1280   -0.5150 P   0  0  2  0  0  0  0  0  0  0  0  0
    4.3820    1.4610   -0.2980 O   0  0  0  0  0  0  0  0  0  0  0  0
    3.4130   -0.8020    0.9090 O   0  0  0  0  0  0  0  0  0  0  0  0
    1.7870    0.7490   -0.7570 O   0  0  0  0  0  0  0  0  0  0  0  0
    0.8430   -0.0910   -0.1840 C   0  0  1  0  0  0  0  0  0  0  0  0
    0.1060    0.5700    0.7780 O   0  0  0  0  0  0  0  0  0  0  0  0
   -1.2180    0.7540    0.4550 C   0  0  2  0  0  0  0  0  0  0  0  0
   -1.8560    1.6050    1.5350 C   0  0  0  0  0  0  0  0  0  0  0  0
   -1.1870    2.8220    1.5770 O   0  0  0  0  0  0  0  0  0  0  0  0
   -1.8660   -0.6130    0.3730 C   0  0  1  0  0  0  0  0  0  0  0  0
   -3.2390   -0.5530    0.2650 O   0  0  0  0  0  0  0  0  0  0  0  0
   -1.2150   -1.3430   -0.7860 C   0  0  2  0  0  0  0  0  0  0  0  0
   -0.8510   -2.6320   -0.3690 O   0  0  0  0  0  0  0  0  0  0  0  0
    0.0010   -0.6510   -1.3050 C   0  0  1  0  0  0  0  0  0  0  0  0
   -0.2640    0.2840   -2.2980 O   0  0  0  0  0  0  0  0  0  0  0  0
  1  2  2  0
  2  3  1  1
  2  4  1  0
  2  5  1  0
  6  5  1  6
  6  7  1  0
  6 15  1  0
  7  8  1  0
  8  9  1  1
  8 11  1  0
  9 10  1  0
 11 12  1  6
 11 13  1  0
 13 14  1  1
 13 15  1  0
 15 16  1  6
M  END
