
     RDKit          3D

 20 21  0  0  0  0  0  0  0  0999 V2000
   -5.3250   -0.1400   -1.7950 C   0  0  0  0  0  0  0  0  0  0  0  0
   -4.0120    0.0460   -1.2750 O   0  0  0  0  0  0  0  0  0  0  0  0
   -3.5350   -0.6940   -0.2140 C   0  0  0  0  0  0  0  0  0  0  0  0
   -4.2670   -1.5590    0.3160 O   0  0  0  0  0  0  0  0  0  0  0  0
   -2.2010   -0.4920    0.3000 C   0  0  0  0  0  0  0  0  0  0  0  0
   -1.6830   -1.2050    1.3550 C   0  0  0  0  0  0  0  0  0  0  0  0
   -0.4100   -0.9960    1.8270 C   0  0  0  0  0  0  0  0  0  0  0  0
    0.4040   -0.0400    1.2440 C   0  0  0  0  0  0  0  0  0  0  0  0
   -0.1040    0.6810    0.1870 C   0  0  0  0  0  0  0  0  0  0  0  0
   -1.3740    0.4590   -0.2720 C   0  0  0  0  0  0  0  0  0  0  0  0
    0.7780    1.6750   -0.4020 C   0  0  0  0  0  0  0  0  0  0  0  0
    1.9950    1.8770    0.0490 C   0  0  0  0  0  0  0  0  0  0  0  0
    2.5620    1.1160    1.1810 C   0  0  2  0  0  0  0  0  0  0  0  0
    3.8620    0.4390    0.7140 C   0  0  2  0  0  0  0  0  0  0  0  0
    4.3810   -0.2600    1.7590 F   0  0  0  0  0  0  0  0  0  0  0  0
    4.6830    1.4530    0.2640 F   0  0  0  0  0  0  0  0  0  0  0  0
    3.4240   -0.6240   -0.7390 P   0  0  0  0  0  0  0  0  0  0  0  0
    2.0930   -1.6750   -0.3840 O   0  0  0  0  0  0  0  0  0  0  0  0
    4.7730   -1.4510   -1.3870 O   0  0  0  0  0  0  0  0  0  0  0  0
    1.6710    0.1770    1.7040 O   0  0  0  0  0  0  0  0  0  0  0  0
  1  2  1  0
  2  3  1  0
  3  4  2  0
  3  5  1  0
  5  6  2  0
  5 10  1  0
  6  7  1  0
  7  8  2  0
  8  9  1  0
  8 20  1  0
  9 10  2  0
  9 11  1  0
 11 12  2  0
 12 13  1  0
 13 14  1  0
 13 20  1  6
 14 15  1  1
 14 16  1  0
 14 17  1  0
 17 18  1  0
 17 19  1  0
M  END
