
     RDKit          3D

 19 20  0  0  0  0  0  0  0  0999 V2000
    1.2890   -0.6140    1.0000 O   0  0  0  0  0  0  0  0  0  0  0  0
    1.6050   -0.1070   -0.1050 C   0  0  0  0  0  0  0  0  0  0  0  0
    3.0190    0.0920   -0.4250 C   0  0  0  0  0  0  0  0  0  0  0  0
    3.8740   -0.3890    0.7240 C   0  0  0  0  0  0  0  0  0  0  0  0
    5.6560   -0.0930    0.2200 P   0  0  0  0  0  0  0  0  0  0  0  0
    5.8170    1.5700   -0.1980 O   0  0  0  0  0  0  0  0  0  0  0  0
    5.9490   -1.0900   -1.1870 O   0  0  0  0  0  0  0  0  0  0  0  0
    0.6020    0.2650   -1.0240 O   0  0  0  0  0  0  0  0  0  0  0  0
   -0.7380    0.0670   -0.7010 C   0  0  0  0  0  0  0  0  0  0  0  0
   -1.3230   -1.1380   -1.0470 C   0  0  0  0  0  0  0  0  0  0  0  0
   -0.5890   -2.0960   -1.6890 F   0  0  0  0  0  0  0  0  0  0  0  0
   -2.6480   -1.3240   -0.7240 C   0  0  0  0  0  0  0  0  0  0  0  0
   -3.3990   -0.3570   -0.0720 C   0  0  0  0  0  0  0  0  0  0  0  0
   -2.8120    0.8380    0.2690 C   0  0  0  0  0  0  0  0  0  0  0  0
   -1.4850    1.0400   -0.0490 C   0  0  0  0  0  0  0  0  0  0  0  0
   -0.8950    2.2180    0.2840 F   0  0  0  0  0  0  0  0  0  0  0  0
   -3.7480    1.6580    0.9120 O   0  0  0  0  0  0  0  0  0  0  0  0
   -5.0460    1.1300    0.6530 C   0  0  0  0  0  0  0  0  0  0  0  0
   -4.8310   -0.3420    0.3720 C   0  0  0  0  0  0  0  0  0  0  0  0
  1  2  2  0
  2  3  1  0
  2  8  1  0
  3  4  1  0
  4  5  1  0
  5  6  1  0
  5  7  1  0
  8  9  1  0
  9 10  2  0
  9 15  1  0
 10 11  1  0
 10 12  1  0
 12 13  2  0
 13 14  1  0
 13 19  1  0
 14 15  2  0
 14 17  1  0
 15 16  1  0
 17 18  1  0
 18 19  1  0
M  END
