
     RDKit          3D

 19 19  0  0  0  0  0  0  0  0999 V2000
    4.6490    1.1950   -0.0940 O   0  0  0  0  0  0  0  0  0  0  0  0
    4.6310    0.1140   -0.7190 C   0  0  0  0  0  0  0  0  0  0  0  0
    5.7700   -0.6850   -0.6260 O   0  0  0  0  0  0  0  0  0  0  0  0
    3.5220   -0.2290   -1.4480 O   0  0  0  0  0  0  0  0  0  0  0  0
    2.3750    0.5860   -1.5340 C   0  0  0  0  0  0  0  0  0  0  0  0
    1.7300    0.8260   -0.2020 C   0  0  0  0  0  0  0  0  0  0  0  0
    1.2880   -0.4390    0.4690 C   0  0  2  0  0  0  0  0  0  0  0  0
    0.3410   -1.1590   -0.2970 O   0  0  0  0  0  0  0  0  0  0  0  0
   -1.0300   -1.0370   -0.1140 C   0  0  0  0  0  0  0  0  0  0  0  0
   -1.8580   -1.8740   -0.6020 O   0  0  0  0  0  0  0  0  0  0  0  0
   -1.4960    0.1250    0.6860 C   0  0  1  0  0  0  0  0  0  0  0  0
   -2.9710    0.0070    1.0290 C   0  0  0  0  0  0  0  0  0  0  0  0
   -3.6580   -0.1020   -0.2060 O   0  0  0  0  0  0  0  0  0  0  0  0
   -5.0200   -0.2230   -0.2140 C   0  0  0  0  0  0  0  0  0  0  0  0
   -5.6230   -0.2340    0.8900 O   0  0  0  0  0  0  0  0  0  0  0  0
   -5.7930   -0.3370   -1.3620 O   0  0  0  0  0  0  0  0  0  0  0  0
   -0.6850    0.2410    1.8120 O   0  0  0  0  0  0  0  0  0  0  0  0
    0.6610   -0.0950    1.7710 C   0  0  0  0  0  0  0  0  0  0  0  0
    1.3540   -0.1110    2.8280 O   0  0  0  0  0  0  0  0  0  0  0  0
  1  2  2  0
  2  3  1  0
  2  4  1  0
  4  5  1  0
  5  6  1  0
  7  6  1  6
  7  8  1  0
  7 18  1  0
  8  9  1  0
  9 10  2  0
  9 11  1  0
 11 12  1  1
 11 17  1  0
 12 13  1  0
 13 14  1  0
 14 15  2  0
 14 16  1  0
 17 18  1  0
 18 19  2  0
M  END
