
     RDKit          3D

 20 22  0  0  0  0  0  0  0  0999 V2000
   -3.1650    2.0180   -0.6930 C   0  0  0  0  0  0  0  0  0  0  0  0
   -2.0700    2.0590    0.4050 C   0  0  0  0  0  0  0  0  0  0  0  0
   -1.7930    0.7040    0.8770 C   0  0  0  0  0  0  0  0  0  0  0  0
   -0.6520    0.0840    0.8600 C   0  0  0  0  0  0  0  0  0  0  0  0
    0.6620    0.4480    0.4180 C   0  0  0  0  0  0  0  0  0  0  0  0
    1.2320    1.6800    0.6480 C   0  0  0  0  0  0  0  0  0  0  0  0
    2.4780    2.0100    0.2060 C   0  0  0  0  0  0  0  0  0  0  0  0
    2.9700    3.2700    0.4830 O   0  0  0  0  0  0  0  0  0  0  0  0
    3.2600    1.1210   -0.5080 C   0  0  0  0  0  0  0  0  0  0  0  0
    4.5210    1.4690   -0.9490 O   0  0  0  0  0  0  0  0  0  0  0  0
    2.7280   -0.1280   -0.7620 C   0  0  0  0  0  0  0  0  0  0  0  0
    1.4640   -0.4460   -0.3070 C   0  0  0  0  0  0  0  0  0  0  0  0
    1.0190   -1.7290   -0.6150 O   0  0  0  0  0  0  0  0  0  0  0  0
    1.8890   -2.8380   -0.6980 C   0  0  0  0  0  0  0  0  0  0  0  0
    3.2740   -2.4910   -1.1460 C   0  0  0  0  0  0  0  0  0  0  0  0
    3.4140   -1.0960   -1.4620 O   0  0  0  0  0  0  0  0  0  0  0  0
   -0.9110   -1.1890    1.4170 O   0  0  0  0  0  0  0  0  0  0  0  0
   -2.2800   -1.5070    1.2840 C   0  0  2  0  0  0  0  0  0  0  0  0
   -2.5990   -2.0550   -0.0910 C   0  0  0  0  0  0  0  0  0  0  0  0
   -2.8900   -0.1490    1.4680 C   0  0  0  0  0  0  0  0  0  0  0  0
  1  2  1  0
  2  3  1  0
  3  4  2  0
  3 20  1  0
  4  5  1  0
  4 17  1  0
  5  6  2  0
  5 12  1  0
  6  7  1  0
  7  8  1  0
  7  9  2  0
  9 10  1  0
  9 11  1  0
 11 12  2  0
 11 16  1  0
 12 13  1  0
 13 14  1  0
 14 15  1  0
 15 16  1  0
 17 18  1  0
 18 19  1  6
 18 20  1  0
M  END
