
     RDKit          3D

 15 15  0  0  0  0  0  0  0  0999 V2000
   -4.3590   -0.1170    0.1500 C   0  0  0  0  0  0  0  0  0  0  0  0
   -2.8840   -0.5040    0.0280 C   0  0  0  0  0  0  0  0  0  0  0  0
   -2.0510    0.4770    0.8190 C   0  0  2  0  0  0  0  0  0  0  0  0
   -2.2050    1.8250    0.3430 N   0  0  0  0  0  0  0  0  0  0  0  0
   -0.6250    0.0420    0.9990 C   0  0  0  0  0  0  0  0  0  0  0  0
    0.1210   -0.1470   -0.2970 C   0  0  2  0  0  0  0  0  0  0  0  0
   -0.4290   -1.0960   -1.1260 O   0  0  0  0  0  0  0  0  0  0  0  0
    1.5790   -0.4290    0.0090 C   0  0  2  0  0  0  0  0  0  0  0  0
    1.7670   -1.7570    0.6920 C   0  0  0  0  0  0  0  0  0  0  0  0
    2.0430    0.5700    0.8430 O   0  0  0  0  0  0  0  0  0  0  0  0
    3.1420    1.2330    0.3160 C   0  0  0  0  0  0  0  0  0  0  0  0
    4.2210    0.1800    0.0240 C   0  0  0  0  0  0  0  0  0  0  0  0
    3.7400   -0.5070   -1.1440 O   0  0  0  0  0  0  0  0  0  0  0  0
    2.3370   -0.4950   -1.2790 C   0  0  0  0  0  0  0  0  0  0  0  0
    1.7660   -0.5380   -2.3870 O   0  0  0  0  0  0  0  0  0  0  0  0
  1  2  1  0
  2  3  1  0
  3  4  1  6
  3  5  1  0
  5  6  1  0
  6  7  1  1
  6  8  1  0
  8  9  1  1
  8 10  1  0
  8 14  1  0
 10 11  1  0
 11 12  1  0
 12 13  1  0
 13 14  1  0
 14 15  2  0
M  CHG  1   4   1
M  END
