
     RDKit          3D

 15 15  0  0  0  0  0  0  0  0999 V2000
    4.7840    0.1720    0.6780 C   0  0  0  0  0  0  0  0  0  0  0  0
    4.1810   -0.3530   -0.4540 O   0  0  0  0  0  0  0  0  0  0  0  0
    3.0060    0.2640   -0.7910 C   0  0  0  0  0  0  0  0  0  0  0  0
    1.9270    0.1960    0.2680 C   0  0  0  0  0  0  0  0  0  0  0  0
    0.7830    0.8680   -0.2220 N   0  0  0  0  0  0  0  0  0  0  0  0
   -0.4420    0.0890   -0.2740 C   0  0  2  0  0  0  0  0  0  0  0  0
   -0.3540   -1.0020   -1.3050 C   0  0  0  0  0  0  0  0  0  0  0  0
    0.6420   -1.9040   -1.1050 O   0  0  0  0  0  0  0  0  0  0  0  0
   -1.4730    1.1210   -0.6650 C   0  0  0  0  0  0  0  0  0  0  0  0
   -2.8450    0.6330   -0.8600 C   0  0  0  0  0  0  0  0  0  0  0  0
   -3.6830    0.6110    0.4000 C   0  0  0  0  0  0  0  0  0  0  0  0
   -2.9640    0.2580    1.5230 O   0  0  0  0  0  0  0  0  0  0  0  0
   -2.1480   -0.8430    1.3390 C   0  0  1  0  0  0  0  0  0  0  0  0
   -2.6590   -1.7080    0.4150 O   0  0  0  0  0  0  0  0  0  0  0  0
   -0.7500   -0.3890    1.1030 C   0  0  0  0  0  0  0  0  0  0  0  0
  1  2  1  0
  2  3  1  0
  3  4  1  0
  4  5  1  0
  5  6  1  0
  6  7  1  6
  6  9  1  0
  6 15  1  0
  7  8  1  0
  9 10  1  0
 10 11  1  0
 11 12  1  0
 12 13  1  0
 13 14  1  6
 13 15  1  0
M  CHG  1   5   1
M  END
