
     RDKit          3D

 20 23  0  0  0  0  0  0  0  0999 V2000
    5.1340   -0.5360    1.6580 O   0  0  0  0  0  0  0  0  0  0  0  0
    4.0880    0.2510    1.2010 C   0  0  0  0  0  0  0  0  0  0  0  0
    4.2210    1.6040    0.9830 C   0  0  0  0  0  0  0  0  0  0  0  0
    3.1630    2.3480    0.5300 C   0  0  0  0  0  0  0  0  0  0  0  0
    1.9440    1.7680    0.2820 C   0  0  0  0  0  0  0  0  0  0  0  0
    1.7690    0.3940    0.4920 C   0  0  0  0  0  0  0  0  0  0  0  0
    2.8380   -0.3200    0.9410 C   0  0  0  0  0  0  0  0  0  0  0  0
    0.4710   -0.1900    0.2210 C   0  0  0  0  0  0  0  0  0  0  0  0
    0.3210   -1.5450    0.4340 C   0  0  0  0  0  0  0  0  0  0  0  0
   -0.9190   -2.0930    0.1740 C   0  0  0  0  0  0  0  0  0  0  0  0
   -1.1420   -3.4700    0.3700 O   0  0  0  0  0  0  0  0  0  0  0  0
   -1.9740   -1.3330   -0.2810 C   0  0  0  0  0  0  0  0  0  0  0  0
   -1.8100    0.0170   -0.4890 C   0  0  0  0  0  0  0  0  0  0  0  0
   -0.5530    0.5970   -0.2300 C   0  0  0  0  0  0  0  0  0  0  0  0
   -0.3940    2.0370   -0.4570 C   0  0  0  0  0  0  0  0  0  0  0  0
    0.8830    2.5320   -0.1750 O   0  0  0  0  0  0  0  0  0  0  0  0
   -2.8690    0.8090   -0.9510 O   0  0  0  0  0  0  0  0  0  0  0  0
   -3.9020    0.0720   -1.6260 C   0  0  0  0  0  0  0  0  0  0  0  0
   -4.3220   -1.0140   -0.6240 C   0  0  0  0  0  0  0  0  0  0  0  0
   -3.2310   -1.9120   -0.5400 O   0  0  0  0  0  0  0  0  0  0  0  0
  1  2  1  0
  2  3  2  0
  2  7  1  0
  3  4  1  0
  4  5  2  0
  5  6  1  0
  5 16  1  0
  6  7  2  0
  6  8  1  0
  8  9  2  0
  8 14  1  0
  9 10  1  0
 10 11  1  0
 10 12  2  0
 12 13  1  0
 12 20  1  0
 13 14  2  0
 13 17  1  0
 14 15  1  0
 15 16  1  0
 17 18  1  0
 18 19  1  0
 19 20  1  0
M  END
