
     RDKit          3D

 15 15  0  0  0  0  0  0  0  0999 V2000
    4.3910    0.2590    1.4320 C   0  0  0  0  0  0  0  0  0  0  0  0
    3.6700    0.0690    0.1350 C   0  0  1  0  0  0  0  0  0  0  0  0
    3.9760   -1.2180   -0.5570 C   0  0  0  0  0  0  0  0  0  0  0  0
    3.3160   -1.2460   -1.7700 O   0  0  0  0  0  0  0  0  0  0  0  0
    2.6320   -0.0990   -2.0770 C   0  0  0  0  0  0  0  0  0  0  0  0
    1.7480    0.4000   -0.9590 C   0  0  1  0  0  0  0  0  0  0  0  0
    0.3560   -0.1410   -1.1310 C   0  0  0  0  0  0  0  0  0  0  0  0
   -0.5080    0.4150   -0.1940 O   0  0  0  0  0  0  0  0  0  0  0  0
   -1.7680   -0.1330   -0.4180 C   0  0  0  0  0  0  0  0  0  0  0  0
   -2.7360    0.4540    0.5910 C   0  0  2  0  0  0  0  0  0  0  0  0
   -2.7390    1.9700    0.4600 C   0  0  0  0  0  0  0  0  0  0  0  0
   -2.3250    0.1580    1.8790 O   0  0  0  0  0  0  0  0  0  0  0  0
   -4.1350   -0.0170    0.3020 C   0  0  0  0  0  0  0  0  0  0  0  0
   -4.2860   -1.4410    0.4450 N   0  0  0  0  0  0  0  0  0  0  0  0
    2.2730    0.1280    0.2950 O   0  0  0  0  0  0  0  0  0  0  0  0
  2  1  1  1
  2  3  1  0
  2 15  1  0
  3  4  1  0
  4  5  1  0
  5  6  1  0
  6  7  1  1
  6 15  1  0
  7  8  1  0
  8  9  1  0
  9 10  1  0
 10 11  1  1
 10 12  1  0
 10 13  1  0
 13 14  1  0
M  CHG  1  14   1
M  END
