
     RDKit          3D

 15 15  0  0  0  0  0  0  0  0999 V2000
    4.9010   -0.6960    0.7660 C   0  0  0  0  0  0  0  0  0  0  0  0
    4.6080   -0.3180   -0.6460 C   0  0  0  0  0  0  0  0  0  0  0  0
    3.2430   -0.2630   -0.9610 O   0  0  0  0  0  0  0  0  0  0  0  0
    2.3200    0.5600   -0.3580 C   0  0  0  0  0  0  0  0  0  0  0  0
    2.7200    1.3320    0.5510 O   0  0  0  0  0  0  0  0  0  0  0  0
    0.8750    0.6070   -0.7030 C   0  0  1  0  0  0  0  0  0  0  0  0
    0.4800    1.9410   -1.2020 C   0  0  0  0  0  0  0  0  0  0  0  0
    0.6600   -0.3330   -1.7370 O   0  0  0  0  0  0  0  0  0  0  0  0
    0.0990    0.1150    0.4860 C   0  0  0  0  0  0  0  0  0  0  0  0
   -1.3670    0.1410    0.1930 C   0  0  2  0  0  0  0  0  0  0  0  0
   -2.2090   -0.3460    1.3560 C   0  0  0  0  0  0  0  0  0  0  0  0
   -3.5560   -0.4060    0.6260 C   0  0  2  0  0  0  0  0  0  0  0  0
   -4.4020   -1.4370    1.1280 N   0  0  0  0  0  0  0  0  0  0  0  0
   -3.1150   -0.6410   -0.8090 C   0  0  0  0  0  0  0  0  0  0  0  0
   -1.7370   -0.8010   -0.7750 O   0  0  0  0  0  0  0  0  0  0  0  0
  1  2  1  0
  2  3  1  0
  3  4  1  0
  4  5  2  0
  4  6  1  0
  6  7  1  6
  6  8  1  0
  6  9  1  0
 10  9  1  1
 10 11  1  0
 10 15  1  0
 11 12  1  0
 12 13  1  1
 12 14  1  0
 14 15  1  0
M  CHG  1  13   1
M  END
