
     RDKit          3D

 17 16  0  0  0  0  0  0  0  0999 V2000
    6.1360   -1.7660   -0.4300 C   0  0  0  0  0  0  0  0  0  0  0  0
    6.2100   -0.4920   -1.2160 C   0  0  0  0  0  0  0  0  0  0  0  0
    5.7660    0.6810   -0.4480 C   0  0  0  0  0  0  0  0  0  0  0  0
    4.3770    0.7840    0.0300 C   0  0  0  0  0  0  0  0  0  0  0  0
    3.8430   -0.2290    0.9600 C   0  0  0  0  0  0  0  0  0  0  0  0
    2.3970    0.0630    1.3880 C   0  0  0  0  0  0  0  0  0  0  0  0
    1.4280    0.0920    0.2610 C   0  0  0  0  0  0  0  0  0  0  0  0
    0.0080    0.3700    0.7440 C   0  0  0  0  0  0  0  0  0  0  0  0
   -0.8760    0.3760   -0.4690 C   0  0  0  0  0  0  0  0  0  0  0  0
   -2.2850    0.6540   -0.0730 C   0  0  0  0  0  0  0  0  0  0  0  0
   -2.8320   -0.3630    0.8670 C   0  0  0  0  0  0  0  0  0  0  0  0
   -4.2590   -0.0870    1.2650 C   0  0  0  0  0  0  0  0  0  0  0  0
   -5.2020   -0.0680    0.0920 C   0  0  0  0  0  0  0  0  0  0  0  0
   -6.6260    0.2100    0.5700 C   0  0  0  0  0  0  0  0  0  0  0  0
   -7.5560    0.2310   -0.5720 C   0  0  0  0  0  0  0  0  0  0  0  0
   -8.7720    0.4430   -0.3920 O   0  0  0  0  0  0  0  0  0  0  0  0
   -7.0720    0.0140   -1.8410 O   0  0  0  0  0  0  0  0  0  0  0  0
  1  2  1  0
  2  3  1  0
  3  4  1  0
  4  5  1  0
  5  6  1  0
  6  7  1  0
  7  8  1  0
  8  9  1  0
  9 10  1  0
 10 11  1  0
 11 12  1  0
 12 13  1  0
 13 14  1  0
 14 15  1  0
 15 16  2  0
 15 17  1  0
M  END
