
     RDKit          3D

 16 17  0  0  0  0  0  0  0  0999 V2000
   -5.4130    0.6040    0.8100 C   0  0  0  0  0  0  0  0  0  0  0  0
   -3.9020    0.5540    0.8480 C   0  0  0  0  0  0  0  0  0  0  0  0
   -3.3670    0.0770   -0.3710 O   0  0  0  0  0  0  0  0  0  0  0  0
   -2.0000   -0.0420   -0.5330 C   0  0  0  0  0  0  0  0  0  0  0  0
   -1.4770   -0.5000   -1.7020 C   0  0  0  0  0  0  0  0  0  0  0  0
   -0.0890   -0.6080   -1.8330 C   0  0  0  0  0  0  0  0  0  0  0  0
    0.7600   -0.2610   -0.8060 C   0  0  0  0  0  0  0  0  0  0  0  0
    2.1310   -0.3630   -0.9230 C   0  0  0  0  0  0  0  0  0  0  0  0
    2.9760   -0.0050    0.1330 C   0  0  0  0  0  0  0  0  0  0  0  0
    4.3470   -0.1040    0.0250 O   0  0  0  0  0  0  0  0  0  0  0  0
    5.0020   -0.5670   -1.1420 C   0  0  0  0  0  0  0  0  0  0  0  0
    2.4400    0.4560    1.3090 C   0  0  0  0  0  0  0  0  0  0  0  0
    3.2760    0.8120    2.3570 O   0  0  0  0  0  0  0  0  0  0  0  0
    1.0690    0.5560    1.4190 C   0  0  0  0  0  0  0  0  0  0  0  0
    0.2170    0.2030    0.3770 C   0  0  0  0  0  0  0  0  0  0  0  0
   -1.1550    0.3050    0.4920 C   0  0  0  0  0  0  0  0  0  0  0  0
  1  2  1  0
  2  3  1  0
  3  4  1  0
  4  5  2  0
  4 16  1  0
  5  6  1  0
  6  7  2  0
  7  8  1  0
  7 15  1  0
  8  9  2  0
  9 10  1  0
  9 12  1  0
 10 11  1  0
 12 13  1  0
 12 14  2  0
 14 15  1  0
 15 16  2  0
M  END
