
     RDKit          3D

 16 17  0  0  0  0  0  0  0  0999 V2000
   -2.0580    2.1240   -2.1200 C   0  0  0  0  0  0  0  0  0  0  0  0
   -2.1460    1.0360   -1.2280 O   0  0  0  0  0  0  0  0  0  0  0  0
   -1.0300    0.5800   -0.5410 C   0  0  0  0  0  0  0  0  0  0  0  0
    0.2080    1.1640   -0.6980 C   0  0  0  0  0  0  0  0  0  0  0  0
    1.3000    0.7050   -0.0150 C   0  0  0  0  0  0  0  0  0  0  0  0
    2.5290    1.3140   -0.1910 C   0  0  0  0  0  0  0  0  0  0  0  0
    3.5840    0.8200    0.5160 C   0  0  0  0  0  0  0  0  0  0  0  0
    4.8580    1.4020    0.3740 O   0  0  0  0  0  0  0  0  0  0  0  0
    3.4880   -0.2400    1.3850 C   0  0  0  0  0  0  0  0  0  0  0  0
    2.2350   -0.8410    1.5490 C   0  0  0  0  0  0  0  0  0  0  0  0
    1.1380   -0.3610    0.8430 C   0  0  0  0  0  0  0  0  0  0  0  0
   -0.0940   -0.9540    1.0100 C   0  0  0  0  0  0  0  0  0  0  0  0
   -1.1960   -0.5030    0.3290 C   0  0  0  0  0  0  0  0  0  0  0  0
   -2.5460   -1.0820    0.4560 C   0  0  2  0  0  0  0  0  0  0  0  0
   -2.5580   -2.1560    1.5160 C   0  0  0  0  0  0  0  0  0  0  0  0
   -2.9760   -1.6740   -0.7360 O   0  0  0  0  0  0  0  0  0  0  0  0
  1  2  1  0
  2  3  1  0
  3  4  2  0
  3 13  1  0
  4  5  1  0
  5  6  2  0
  5 11  1  0
  6  7  1  0
  7  8  1  0
  7  9  2  0
  9 10  1  0
 10 11  2  0
 11 12  1  0
 12 13  2  0
 13 14  1  0
 14 15  1  1
 14 16  1  0
M  END
