
     RDKit          3D

 16 17  0  0  0  0  0  0  0  0999 V2000
    5.7710    0.0740    0.1590 O   0  0  0  0  0  0  0  0  0  0  0  0
    4.7900    1.0630    0.3250 C   0  0  0  0  0  0  0  0  0  0  0  0
    3.4820    0.4070    0.5790 C   0  0  0  0  0  0  0  0  0  0  0  0
    3.0420    0.1000    1.8540 C   0  0  0  0  0  0  0  0  0  0  0  0
    1.8040   -0.4900    1.6660 C   0  0  0  0  0  0  0  0  0  0  0  0
    1.5460   -0.5160    0.3060 C   0  0  0  0  0  0  0  0  0  0  0  0
    0.3220   -1.0660   -0.3340 C   0  0  2  0  0  0  0  0  0  0  0  0
    0.7020   -1.8430   -1.4290 O   0  0  0  0  0  0  0  0  0  0  0  0
   -0.4990    0.0930   -0.8570 C   0  0  2  0  0  0  0  0  0  0  0  0
   -0.9220    1.0490    0.2030 C   0  0  0  0  0  0  0  0  0  0  0  0
   -2.2410    0.7210    0.8410 C   0  0  0  0  0  0  0  0  0  0  0  0
   -3.4150    0.8980   -0.0510 C   0  0  0  0  0  0  0  0  0  0  0  0
   -3.8300   -0.4300   -0.6700 C   0  0  0  0  0  0  0  0  0  0  0  0
   -2.6000   -1.2640   -0.9950 C   0  0  0  0  0  0  0  0  0  0  0  0
   -1.6410   -0.3840   -1.7310 C   0  0  0  0  0  0  0  0  0  0  0  0
    2.5810    0.0310   -0.2930 O   0  0  0  0  0  0  0  0  0  0  0  0
  1  2  1  0
  2  3  1  0
  3  4  2  0
  3 16  1  0
  4  5  1  0
  5  6  2  0
  6  7  1  0
  6 16  1  0
  7  8  1  6
  7  9  1  0
  9 10  1  1
  9 15  1  0
 10 11  1  0
 11 12  1  0
 12 13  1  0
 13 14  1  0
 14 15  1  0
M  END
