
     RDKit          3D

 16 17  0  0  0  0  0  0  0  0999 V2000
   -1.9310   -2.1040   -2.0350 C   0  0  0  0  0  0  0  0  0  0  0  0
   -2.1000   -0.9370   -1.1440 C   0  0  0  0  0  0  0  0  0  0  0  0
   -3.2470   -0.4400   -1.0930 O   0  0  0  0  0  0  0  0  0  0  0  0
   -1.0200   -0.3820   -0.3640 C   0  0  0  0  0  0  0  0  0  0  0  0
   -1.1720    0.7120    0.4740 C   0  0  0  0  0  0  0  0  0  0  0  0
   -2.4920    1.3840    0.6180 C   0  0  0  0  0  0  0  0  0  0  0  0
   -2.8060    2.2270   -0.5580 C   0  0  0  0  0  0  0  0  0  0  0  0
   -2.0040    2.3180   -1.4690 O   0  0  0  0  0  0  0  0  0  0  0  0
   -0.0770    1.2040    1.2050 C   0  0  0  0  0  0  0  0  0  0  0  0
    1.1660    0.6300    1.1200 C   0  0  0  0  0  0  0  0  0  0  0  0
    1.3340   -0.4570    0.2930 C   0  0  0  0  0  0  0  0  0  0  0  0
    0.2630   -0.9420   -0.4260 C   0  0  0  0  0  0  0  0  0  0  0  0
    0.4230   -2.0540   -1.2750 O   0  0  0  0  0  0  0  0  0  0  0  0
    2.7550   -0.9160    0.3550 C   0  0  0  0  0  0  0  0  0  0  0  0
    3.4520    0.3700    0.7630 C   0  0  0  0  0  0  0  0  0  0  0  0
    2.4720    0.9380    1.7670 C   0  0  0  0  0  0  0  0  0  0  0  0
  1  2  1  0
  2  3  2  0
  2  4  1  0
  4  5  2  0
  4 12  1  0
  5  6  1  0
  5  9  1  0
  6  7  1  0
  7  8  2  0
  9 10  2  0
 10 11  1  0
 10 16  1  0
 11 12  2  0
 11 14  1  0
 12 13  1  0
 14 15  1  0
 15 16  1  0
M  END
