
     RDKit          3D

 16 17  0  0  0  0  0  0  0  0999 V2000
   -2.3560    2.4840    1.8590 C   0  0  0  0  0  0  0  0  0  0  0  0
   -1.3760    1.6260    1.9190 C   0  0  0  0  0  0  0  0  0  0  0  0
   -0.9220    0.7140    0.8830 C   0  0  0  0  0  0  0  0  0  0  0  0
    0.4750    0.5540    0.7500 C   0  0  0  0  0  0  0  0  0  0  0  0
    1.0330   -0.2970   -0.1710 C   0  0  0  0  0  0  0  0  0  0  0  0
    2.3990   -0.4580   -0.3070 O   0  0  0  0  0  0  0  0  0  0  0  0
    3.3620    0.2020    0.4490 C   0  0  0  0  0  0  0  0  0  0  0  0
    4.7360   -0.2070    0.0400 C   0  0  0  0  0  0  0  0  0  0  0  0
    5.7010    0.4450    0.7880 O   0  0  0  0  0  0  0  0  0  0  0  0
    0.1480   -0.9940   -0.9660 C   0  0  0  0  0  0  0  0  0  0  0  0
    0.7100   -1.8560   -1.8990 O   0  0  0  0  0  0  0  0  0  0  0  0
   -1.2050   -0.8880   -0.8880 C   0  0  0  0  0  0  0  0  0  0  0  0
   -1.7520   -0.0130    0.0590 C   0  0  0  0  0  0  0  0  0  0  0  0
   -3.2320   -0.1190   -0.0440 C   0  0  0  0  0  0  0  0  0  0  0  0
   -3.4190   -0.5050   -1.5080 C   0  0  0  0  0  0  0  0  0  0  0  0
   -2.3360   -1.5420   -1.6410 C   0  0  0  0  0  0  0  0  0  0  0  0
  1  2  2  0
  2  3  1  0
  3  4  2  0
  3 13  1  0
  4  5  1  0
  5  6  1  0
  5 10  2  0
  6  7  1  0
  7  8  1  0
  8  9  1  0
 10 11  1  0
 10 12  1  0
 12 13  2  0
 12 16  1  0
 13 14  1  0
 14 15  1  0
 15 16  1  0
M  END
