
     RDKit          3D

 16 17  0  0  0  0  0  0  0  0999 V2000
    1.7700   -2.8590   -0.2460 C   0  0  0  0  0  0  0  0  0  0  0  0
    0.7550   -1.9250   -0.1280 O   0  0  0  0  0  0  0  0  0  0  0  0
    0.9190   -0.5650   -0.1020 C   0  0  0  0  0  0  0  0  0  0  0  0
    2.2480   -0.1340   -0.2060 C   0  0  0  0  0  0  0  0  0  0  0  0
    2.5620    1.1910   -0.1940 C   0  0  0  0  0  0  0  0  0  0  0  0
    3.9810    1.6730   -0.3040 C   0  0  0  0  0  0  0  0  0  0  0  0
    1.5600    2.0950   -0.0790 C   0  0  0  0  0  0  0  0  0  0  0  0
    0.2430    1.6610    0.0240 C   0  0  0  0  0  0  0  0  0  0  0  0
   -0.1270    0.3210    0.0170 C   0  0  0  0  0  0  0  0  0  0  0  0
   -1.5110   -0.0740    0.1270 C   0  0  0  0  0  0  0  0  0  0  0  0
   -1.8940   -1.3280    0.1220 C   0  0  0  0  0  0  0  0  0  0  0  0
   -3.3460   -1.6790    0.2390 C   0  0  0  0  0  0  0  0  0  0  0  0
   -4.1980   -0.5960    0.3480 O   0  0  0  0  0  0  0  0  0  0  0  0
   -3.8090    0.7260    0.3540 C   0  0  0  0  0  0  0  0  0  0  0  0
   -4.7500    1.7370    0.4690 O   0  0  0  0  0  0  0  0  0  0  0  0
   -2.5240    1.0010    0.2490 C   0  0  0  0  0  0  0  0  0  0  0  0
  1  2  1  0
  2  3  1  0
  3  4  2  0
  3  9  1  0
  4  5  1  0
  5  6  1  0
  5  7  2  0
  7  8  1  0
  8  9  2  0
  9 10  1  0
 10 11  2  0
 10 16  1  0
 11 12  1  0
 12 13  1  0
 13 14  1  0
 14 15  1  0
 14 16  2  0
M  END
