
     RDKit          3D

 34 36  0  0  0  0  0  0  0  0999 V2000
   -4.4130   -0.3720    4.2590 C   0  0  0  0  0  0  0  0  0  0  0  0
   -4.4850   -0.8600    2.8330 C   0  0  0  0  0  0  0  0  0  0  0  0
   -5.1380   -1.9000    2.5630 O   0  0  0  0  0  0  0  0  0  0  0  0
   -3.8350   -0.1740    1.7930 N   0  0  0  0  0  0  0  0  0  0  0  0
   -3.8990   -0.6470    0.3640 C   0  0  2  0  0  0  0  0  0  0  0  0
   -2.6140   -1.2210    0.0260 C   0  0  0  0  0  0  0  0  0  0  0  0
   -1.9960   -1.6370    1.1020 O   0  0  0  0  0  0  0  0  0  0  0  0
   -1.8670   -1.4420   -1.1370 N   0  0  0  0  0  0  0  0  0  0  0  0
   -2.3220   -1.1060   -2.4620 C   0  0  0  0  0  0  0  0  0  0  0  0
   -1.2190   -1.5280   -3.4040 C   0  0  2  0  0  0  0  0  0  0  0  0
   -1.4050   -2.8690   -3.7420 O   0  0  0  0  0  0  0  0  0  0  0  0
   -0.0120   -1.4070   -2.5340 C   0  0  1  0  0  0  0  0  0  0  0  0
    0.3740   -0.0880   -2.3650 F   0  0  0  0  0  0  0  0  0  0  0  0
   -0.5280   -2.0200   -1.2270 C   0  0  1  0  0  0  0  0  0  0  0  0
    0.3980   -1.6780   -0.1600 C   0  0  0  0  0  0  0  0  0  0  0  0
    0.3190   -0.8400    0.7390 O   0  0  0  0  0  0  0  0  0  0  0  0
    1.6300   -2.4540   -0.1370 N   0  0  0  0  0  0  0  0  0  0  0  0
    2.6500   -2.2420    0.8650 C   0  0  0  0  0  0  0  0  0  0  0  0
    3.4800   -1.0630    0.6860 C   0  0  0  0  0  0  0  0  0  0  0  0
    4.3680   -0.6890    1.6630 C   0  0  0  0  0  0  0  0  0  0  0  0
    5.1630    0.4670    1.4710 C   0  0  0  0  0  0  0  0  0  0  0  0
    5.0810    1.2260    0.3480 C   0  0  0  0  0  0  0  0  0  0  0  0
    5.8850    2.3940    0.1050 C   0  0  0  0  0  0  0  0  0  0  0  0
    5.6350    3.5020   -1.2950 S   0  0  0  0  0  0  0  0  0  0  0  0
    7.0740    4.6190   -0.8120 C   0  0  0  0  0  0  0  0  0  0  0  0
    7.4310    4.0670    0.1460 N   0  0  0  0  0  0  0  0  0  0  0  0
    6.9900    2.9830    0.7460 C   0  0  0  0  0  0  0  0  0  0  0  0
    7.6210    2.3780    2.0030 C   0  0  0  0  0  0  0  0  0  0  0  0
    4.1610    0.8250   -0.6500 C   0  0  0  0  0  0  0  0  0  0  0  0
    3.4020   -0.2910   -0.4490 C   0  0  0  0  0  0  0  0  0  0  0  0
   -4.5250    0.4190   -0.4450 C   0  0  1  0  0  0  0  0  0  0  0  0
   -3.7000    1.6830   -0.4660 C   0  0  0  0  0  0  0  0  0  0  0  0
   -5.1140    0.1230   -1.7480 C   0  0  0  0  0  0  0  0  0  0  0  0
   -5.7890    0.8850    0.4240 C   0  0  0  0  0  0  0  0  0  0  0  0
  1  2  1  0
  2  3  2  0
  2  4  1  0
  5  4  1  1
  5  6  1  0
  5 31  1  0
  6  7  2  0
  6  8  1  0
  8  9  1  0
  8 14  1  0
  9 10  1  0
 10 11  1  1
 10 12  1  0
 12 13  1  1
 12 14  1  0
 14 15  1  1
 15 16  2  0
 15 17  1  0
 17 18  1  0
 18 19  1  0
 19 20  2  0
 19 30  1  0
 20 21  1  0
 21 22  2  0
 22 23  1  0
 22 29  1  0
 23 24  1  0
 23 27  2  0
 24 25  1  0
 25 26  2  0
 26 27  1  0
 27 28  1  0
 29 30  2  0
 31 32  1  6
 31 33  1  0
 31 34  1  0
M  END
