
     RDKit          3D

 35 39  0  0  0  0  0  0  0  0999 V2000
    4.6180    0.9860   -0.8970 N   0  0  0  0  0  0  0  0  0  0  0  0
    5.3090   -0.1910   -0.4510 C   0  0  0  0  0  0  0  0  0  0  0  0
    4.6170   -1.3050   -0.3970 C   0  0  0  0  0  0  0  0  0  0  0  0
    3.2140   -1.4450   -0.7490 C   0  0  0  0  0  0  0  0  0  0  0  0
    2.8480   -2.6120   -1.4130 C   0  0  0  0  0  0  0  0  0  0  0  0
    1.5290   -2.7910   -1.7530 C   0  0  0  0  0  0  0  0  0  0  0  0
    0.5730   -1.8450   -1.4490 C   0  0  0  0  0  0  0  0  0  0  0  0
    0.8980   -0.6710   -0.7890 C   0  0  0  0  0  0  0  0  0  0  0  0
   -0.0610    0.3260   -0.4240 C   0  0  0  0  0  0  0  0  0  0  0  0
    0.0560    1.6440   -0.6080 C   0  0  0  0  0  0  0  0  0  0  0  0
    1.1830    2.2370   -1.2090 N   0  0  0  0  0  0  0  0  0  0  0  0
   -1.0940    2.3520   -0.1120 C   0  0  0  0  0  0  0  0  0  0  0  0
   -1.2860    3.6030   -0.1380 O   0  0  0  0  0  0  0  0  0  0  0  0
   -1.9870    1.3830    0.4230 N   0  0  0  0  0  0  0  0  0  0  0  0
   -1.3490    0.1230    0.2310 C   0  0  0  0  0  0  0  0  0  0  0  0
   -1.8710   -1.0260    0.6220 C   0  0  0  0  0  0  0  0  0  0  0  0
   -3.1780   -1.1690    1.2800 C   0  0  1  0  0  0  0  0  0  0  0  0
   -3.1170   -0.5460    2.6050 N   0  0  0  0  0  0  0  0  0  0  0  0
   -4.3150   -0.5970    0.5260 C   0  0  0  0  0  0  0  0  0  0  0  0
   -4.2970   -0.2870   -0.7940 C   0  0  0  0  0  0  0  0  0  0  0  0
   -5.4200    0.2460   -1.3810 C   0  0  0  0  0  0  0  0  0  0  0  0
   -6.5920    0.4860   -0.6690 C   0  0  0  0  0  0  0  0  0  0  0  0
   -6.6050    0.1730    0.6580 C   0  0  0  0  0  0  0  0  0  0  0  0
   -5.4630   -0.3700    1.2550 C   0  0  0  0  0  0  0  0  0  0  0  0
   -7.9260    0.4900    1.2820 C   0  0  0  0  0  0  0  0  0  0  0  0
   -8.8060    0.6840    0.0790 C   0  0  0  0  0  0  0  0  0  0  0  0
   -7.9110    1.0420   -1.0560 C   0  0  0  0  0  0  0  0  0  0  0  0
    2.2460   -0.5160   -0.4570 C   0  0  0  0  0  0  0  0  0  0  0  0
    6.7110   -0.0750   -0.0850 C   0  0  0  0  0  0  0  0  0  0  0  0
    7.3570    1.1570   -0.2020 C   0  0  0  0  0  0  0  0  0  0  0  0
    8.6710    1.3080    0.1400 C   0  0  0  0  0  0  0  0  0  0  0  0
    9.4290    0.2560    0.6170 C   0  0  0  0  0  0  0  0  0  0  0  0
   10.7670    0.4250    0.9610 O   0  0  0  0  0  0  0  0  0  0  0  0
    8.8010   -0.9640    0.7350 C   0  0  0  0  0  0  0  0  0  0  0  0
    7.4570   -1.1160    0.3850 C   0  0  0  0  0  0  0  0  0  0  0  0
  1  2  1  0
  2  3  2  3
  2 29  1  0
  3  4  1  0
  4  5  2  0
  4 28  1  0
  5  6  1  0
  6  7  2  0
  7  8  1  0
  8  9  1  0
  8 28  2  0
  9 10  2  0
  9 15  1  0
 10 11  1  0
 10 12  1  0
 12 13  2  0
 12 14  1  0
 14 15  1  0
 15 16  2  3
 16 17  1  0
 17 18  1  1
 17 19  1  0
 19 20  2  0
 19 24  1  0
 20 21  1  0
 21 22  2  0
 22 23  1  0
 22 27  1  0
 23 24  2  0
 23 25  1  0
 25 26  1  0
 26 27  1  0
 29 30  2  0
 29 35  1  0
 30 31  1  0
 31 32  2  0
 32 33  1  0
 32 34  1  0
 34 35  2  0
M  CHG  1  18   1
M  END
