
     RDKit          3D

 34 37  0  0  0  0  0  0  0  0999 V2000
    4.5420    3.3680   -1.4850 C   0  0  0  0  0  0  0  0  0  0  0  0
    3.6400    2.1930   -1.8810 C   0  0  2  0  0  0  0  0  0  0  0  0
    2.5510    2.7730   -2.7510 C   0  0  0  0  0  0  0  0  0  0  0  0
    1.5410    1.7260   -3.0560 C   0  0  0  0  0  0  0  0  0  0  0  0
    0.7840    1.8280   -4.0070 O   0  0  0  0  0  0  0  0  0  0  0  0
    1.5090    0.5360   -2.1250 C   0  0  0  0  0  0  0  0  0  0  0  0
    1.7080    1.0790   -0.7510 C   0  0  1  0  0  0  0  0  0  0  0  0
    1.3550    0.1160    0.3090 N   0  0  0  0  0  0  0  0  0  0  0  0
    0.2570    0.4020    1.1660 C   0  0  0  0  0  0  0  0  0  0  0  0
   -1.1030    0.1130    0.6270 C   0  0  2  0  0  0  0  0  0  0  0  0
   -2.1300    0.4920    1.6840 C   0  0  0  0  0  0  0  0  0  0  0  0
   -2.0380    1.9580    2.0280 C   0  0  1  0  0  0  0  0  0  0  0  0
   -2.2910    2.7330    0.7680 C   0  0  0  0  0  0  0  0  0  0  0  0
   -2.6700    4.1310    1.1270 C   0  0  0  0  0  0  0  0  0  0  0  0
   -3.7640    3.8570    2.5010 S   0  0  2  0  0  0  0  0  0  0  0  0
   -5.1930    3.7820    2.0710 O   0  0  0  0  0  0  0  0  0  0  0  0
   -3.5400    4.8430    3.6050 O   0  0  0  0  0  0  0  0  0  0  0  0
   -3.2170    2.2230    2.9530 C   0  0  0  0  0  0  0  0  0  0  0  0
   -1.2920   -1.2760    0.1840 C   0  0  1  0  0  0  0  0  0  0  0  0
   -1.1580   -2.2550    1.1520 O   0  0  0  0  0  0  0  0  0  0  0  0
   -2.5970   -1.5340   -0.5250 C   0  0  1  0  0  0  0  0  0  0  0  0
   -2.7920   -0.7270   -1.7610 C   0  0  0  0  0  0  0  0  0  0  0  0
   -3.8690   -1.5250   -2.5010 C   0  0  0  0  0  0  0  0  0  0  0  0
   -3.6730   -2.9600   -2.0950 C   0  0  0  0  0  0  0  0  0  0  0  0
   -2.5910   -2.9610   -1.0260 C   0  0  2  0  0  0  0  0  0  0  0  0
   -3.0380   -3.7870    0.0290 O   0  0  0  0  0  0  0  0  0  0  0  0
    2.1010   -1.0610    0.3450 C   0  0  0  0  0  0  0  0  0  0  0  0
    2.9760   -1.3490   -0.5470 O   0  0  0  0  0  0  0  0  0  0  0  0
    1.9900   -2.1100    1.4040 C   0  0  1  0  0  0  0  0  0  0  0  0
    1.8450   -3.4380    0.7470 C   0  0  0  0  0  0  0  0  0  0  0  0
    3.1640   -4.1420    0.6980 C   0  0  0  0  0  0  0  0  0  0  0  0
    4.1380   -3.2010    1.3240 C   0  0  0  0  0  0  0  0  0  0  0  0
    3.3380   -2.2120    2.1310 C   0  0  0  0  0  0  0  0  0  0  0  0
    3.1170    1.5880   -0.6110 C   0  0  0  0  0  0  0  0  0  0  0  0
  2  1  1  1
  2  3  1  0
  2 34  1  0
  3  4  1  0
  4  5  2  0
  4  6  1  0
  6  7  1  0
  7  8  1  1
  7 34  1  0
  8  9  1  0
  8 27  1  0
 10  9  1  1
 10 11  1  0
 10 19  1  0
 12 11  1  6
 12 13  1  0
 12 18  1  0
 13 14  1  0
 15 14  1  6
 15 16  2  0
 15 17  2  0
 15 18  1  0
 19 20  1  1
 19 21  1  0
 21 22  1  6
 21 25  1  0
 22 23  1  0
 23 24  1  0
 24 25  1  0
 25 26  1  1
 27 28  2  0
 29 27  1  6
 29 30  1  0
 29 33  1  0
 30 31  1  0
 31 32  1  0
 32 33  1  0
M  END
