
     RDKit          3D

 22 22  0  0  0  0  0  0  0  0999 V2000
   -2.2050    2.9470   -0.0660 C   0  0  0  0  0  0  0  0  0  0  0  0
   -1.4990    1.8650    0.3340 C   0  0  0  0  0  0  0  0  0  0  0  0
   -2.1620    0.6020    0.5410 C   0  0  0  0  0  0  0  0  0  0  0  0
   -2.1420   -0.5260   -0.1520 C   0  0  0  0  0  0  0  0  0  0  0  0
   -2.9580   -1.6300    0.3850 C   0  0  0  0  0  0  0  0  0  0  0  0
   -3.0390   -2.7970   -0.1930 C   0  0  0  0  0  0  0  0  0  0  0  0
   -3.6740   -1.4460    1.5440 O   0  0  0  0  0  0  0  0  0  0  0  0
   -1.5050   -0.8030   -1.3870 N   0  0  0  0  0  0  0  0  0  0  0  0
   -0.1840   -0.6200   -1.8350 C   0  0  0  0  0  0  0  0  0  0  0  0
   -0.0650    0.1930   -2.8390 O   0  0  0  0  0  0  0  0  0  0  0  0
    1.0710   -1.1920   -1.3620 C   0  0  0  0  0  0  0  0  0  0  0  0
    1.2670   -1.2490    0.0940 C   0  0  0  0  0  0  0  0  0  0  0  0
    0.3720   -2.1380    0.7480 O   0  0  0  0  0  0  0  0  0  0  0  0
    2.1270   -0.6100    0.8280 C   0  0  0  0  0  0  0  0  0  0  0  0
    2.0550   -0.8980    2.2260 O   0  0  0  0  0  0  0  0  0  0  0  0
    3.1420    0.3490    0.4570 C   0  0  0  0  0  0  0  0  0  0  0  0
    4.4270    0.0520    1.0390 O   0  0  0  0  0  0  0  0  0  0  0  0
    3.0320    1.4130   -0.3140 C   0  0  0  0  0  0  0  0  0  0  0  0
    1.9030    1.9580   -1.0200 C   0  0  0  0  0  0  0  0  0  0  0  0
    2.1290    2.3000   -2.2490 O   0  0  0  0  0  0  0  0  0  0  0  0
    0.6220    2.1810   -0.6220 O   0  0  0  0  0  0  0  0  0  0  0  0
   -0.0410    2.1790    0.5660 C   0  0  0  0  0  0  0  0  0  0  0  0
  1  2  2  0
  2  3  1  0
  2 22  1  0
  3  4  2  0
  4  5  1  0
  4  8  1  0
  5  6  2  0
  5  7  1  0
  8  9  1  0
  9 10  2  0
  9 11  1  0
 11 12  1  0
 12 13  1  0
 12 14  2  0
 14 15  1  0
 14 16  1  0
 16 17  1  0
 16 18  2  0
 18 19  1  0
 19 20  2  0
 19 21  1  0
 21 22  1  0
M  END
