
     RDKit          3D

 19 21  0  0  0  0  0  0  0  0999 V2000
   -3.1930   -1.8540    1.4850 C   0  0  0  0  0  0  0  0  0  0  0  0
   -3.1980   -1.2500    0.0920 C   0  0  0  0  0  0  0  0  0  0  0  0
   -2.3330   -0.0520   -0.0140 C   0  0  0  0  0  0  0  0  0  0  0  0
   -2.9730    1.1510   -0.0300 N   0  0  0  0  0  0  0  0  0  0  0  0
   -2.3010    2.3100   -0.1230 C   0  0  0  0  0  0  0  0  0  0  0  0
   -2.9550    3.5850   -0.1430 N   0  0  0  0  0  0  0  0  0  0  0  0
   -0.9210    2.2170   -0.2020 C   0  0  0  0  0  0  0  0  0  0  0  0
   -0.2430    1.0050   -0.1870 C   0  0  0  0  0  0  0  0  0  0  0  0
   -0.9660   -0.1650   -0.0900 C   0  0  0  0  0  0  0  0  0  0  0  0
   -0.0180   -1.3280   -0.0940 C   0  0  0  0  0  0  0  0  0  0  0  0
    1.3160   -0.6820   -0.2160 C   0  0  0  0  0  0  0  0  0  0  0  0
    1.1850    0.6860   -0.2660 C   0  0  0  0  0  0  0  0  0  0  0  0
    2.2660    1.5330   -0.3780 C   0  0  0  0  0  0  0  0  0  0  0  0
    3.5380    1.0440   -0.4450 C   0  0  0  0  0  0  0  0  0  0  0  0
    3.6940   -0.3250   -0.3970 C   0  0  0  0  0  0  0  0  0  0  0  0
    4.9970   -0.8760   -0.4640 N   0  0  0  0  0  0  0  0  0  0  0  0
    2.6010   -1.1850   -0.2830 C   0  0  0  0  0  0  0  0  0  0  0  0
    2.8300   -2.5920   -0.2410 C   0  0  0  0  0  0  0  0  0  0  0  0
    3.0360   -3.7350   -0.2040 N   0  0  0  0  0  0  0  0  0  0  0  0
  1  2  1  0
  2  3  1  0
  3  4  2  0
  3  9  1  0
  4  5  1  0
  5  6  1  0
  5  7  2  0
  7  8  1  0
  8  9  2  0
  8 12  1  0
  9 10  1  0
 10 11  1  0
 11 12  2  0
 11 17  1  0
 12 13  1  0
 13 14  2  0
 14 15  1  0
 15 16  1  0
 15 17  2  0
 17 18  1  0
 18 19  3  0
M  END
