
     RDKit          3D

 22 22  0  0  0  0  0  0  0  0999 V2000
   -6.2170   -0.7490    0.5710 N   0  0  0  0  0  0  0  0  0  0  0  0
   -5.0070   -1.4800    0.6910 C   0  0  0  0  0  0  0  0  0  0  0  0
   -5.0770   -2.7080    0.9940 O   0  0  0  0  0  0  0  0  0  0  0  0
   -3.7410   -0.8250    0.4720 C   0  0  0  0  0  0  0  0  0  0  0  0
   -3.6880    0.4430    0.1600 C   0  0  0  0  0  0  0  0  0  0  0  0
   -4.8990    1.1400    0.0480 O   0  0  0  0  0  0  0  0  0  0  0  0
   -2.4350    1.1570   -0.0730 C   0  0  0  0  0  0  0  0  0  0  0  0
   -2.4870    2.4400   -0.3840 C   0  0  0  0  0  0  0  0  0  0  0  0
   -1.3490    3.1910   -0.6210 O   0  0  0  0  0  0  0  0  0  0  0  0
   -1.1700    0.5390    0.0170 N   0  0  0  0  0  0  0  0  0  0  0  0
   -0.8140   -0.2850   -0.9070 C   0  0  0  0  0  0  0  0  0  0  0  0
   -1.6490   -0.5700   -1.9810 O   0  0  0  0  0  0  0  0  0  0  0  0
    0.4480   -0.8780   -0.7810 O   0  0  0  0  0  0  0  0  0  0  0  0
    1.2970   -0.6150    0.2720 C   0  0  0  0  0  0  0  0  0  0  0  0
    0.9450    0.1780    1.1560 O   0  0  0  0  0  0  0  0  0  0  0  0
    2.6260   -1.3210    0.2860 C   0  0  1  0  0  0  0  0  0  0  0  0
    3.3360   -0.9020   -0.9800 C   0  0  0  0  0  0  0  0  0  0  0  0
    4.1230    0.3470   -0.8230 C   0  0  0  0  0  0  0  0  0  0  0  0
    4.8950    0.4140    0.2470 C   0  0  0  0  0  0  0  0  0  0  0  0
    5.6720    1.5260    0.4960 O   0  0  0  0  0  0  0  0  0  0  0  0
    4.8750   -0.7660    1.1470 C   0  0  0  0  0  0  0  0  0  0  0  0
    3.4200   -0.9920    1.5000 C   0  0  0  0  0  0  0  0  0  0  0  0
  1  2  1  0
  2  3  2  0
  2  4  1  0
  4  5  2  3
  5  6  1  0
  5  7  1  0
  7  8  2  3
  7 10  1  0
  8  9  1  0
 10 11  2  3
 11 12  1  0
 11 13  1  0
 13 14  1  0
 14 15  2  0
 16 14  1  1
 16 17  1  0
 16 22  1  0
 17 18  1  0
 18 19  2  0
 19 20  1  0
 19 21  1  0
 21 22  1  0
M  END
