
     RDKit          3D

 19 21  0  0  0  0  0  0  0  0999 V2000
    6.3170    3.1640   -0.1340 N   0  0  0  0  0  0  0  0  0  0  0  0
    5.3530    2.4940   -0.2070 C   0  0  0  0  0  0  0  0  0  0  0  0
    4.2020    1.6660   -0.3000 C   0  0  0  0  0  0  0  0  0  0  0  0
    2.9530    2.1100    0.0530 C   0  0  0  0  0  0  0  0  0  0  0  0
    1.8420    1.2920   -0.0430 C   0  0  0  0  0  0  0  0  0  0  0  0
    1.9570    0.0000   -0.5010 C   0  0  0  0  0  0  0  0  0  0  0  0
    0.8440   -0.8760   -0.5770 N   0  0  0  0  0  0  0  0  0  0  0  0
   -0.4950   -0.4990   -0.4360 C   0  0  0  0  0  0  0  0  0  0  0  0
   -0.9950    0.6800   -0.9590 C   0  0  0  0  0  0  0  0  0  0  0  0
   -2.3340    1.0230   -0.7590 C   0  0  0  0  0  0  0  0  0  0  0  0
   -3.1520    0.1760   -0.0390 C   0  0  0  0  0  0  0  0  0  0  0  0
   -2.6410   -1.0030    0.4790 C   0  0  0  0  0  0  0  0  0  0  0  0
   -1.3370   -1.3370    0.2860 C   0  0  0  0  0  0  0  0  0  0  0  0
   -3.7690   -1.6820    1.1940 C   0  0  0  0  0  0  0  0  0  0  0  0
   -4.7120   -0.5350    1.4850 C   0  0  0  0  0  0  0  0  0  0  0  0
   -4.5320    0.2890    0.3040 N   0  0  0  0  0  0  0  0  0  0  0  0
    3.2200   -0.4550   -0.8590 C   0  0  0  0  0  0  0  0  0  0  0  0
    3.3250   -1.7910   -1.3290 N   0  0  0  0  0  0  0  0  0  0  0  0
    4.3080    0.3700   -0.7560 C   0  0  0  0  0  0  0  0  0  0  0  0
  1  2  3  0
  2  3  1  0
  3  4  2  0
  3 19  1  0
  4  5  1  0
  5  6  2  0
  6  7  1  0
  6 17  1  0
  7  8  1  0
  8  9  2  0
  8 13  1  0
  9 10  1  0
 10 11  2  0
 11 12  1  0
 11 16  1  0
 12 13  2  0
 12 14  1  0
 14 15  1  0
 15 16  1  0
 17 18  1  0
 17 19  2  0
M  END
