
     RDKit          3D

 22 23  0  0  0  0  0  0  0  0999 V2000
    4.6200    0.3510    1.1490 C   0  0  0  0  0  0  0  0  0  0  0  0
    3.8130    1.4280    0.5740 C   0  0  0  0  0  0  0  0  0  0  0  0
    4.3600    2.7270    0.5360 O   0  0  0  0  0  0  0  0  0  0  0  0
    2.6050    1.2630    0.0870 C   0  0  0  0  0  0  0  0  0  0  0  0
    1.9130   -0.0170    0.0580 C   0  0  0  0  0  0  0  0  0  0  0  0
    2.5880   -1.1160    0.5880 O   0  0  0  0  0  0  0  0  0  0  0  0
    0.7240   -0.1480   -0.4320 C   0  0  0  0  0  0  0  0  0  0  0  0
   -0.1900    0.8580   -1.0430 C   0  0  0  0  0  0  0  0  0  0  0  0
    0.1870    1.8670   -1.6390 O   0  0  0  0  0  0  0  0  0  0  0  0
   -1.5870    0.4330   -0.8080 C   0  0  0  0  0  0  0  0  0  0  0  0
   -2.7070    0.9890   -1.1630 C   0  0  0  0  0  0  0  0  0  0  0  0
   -2.8130    2.2540   -1.9300 C   0  0  0  0  0  0  0  0  0  0  0  0
   -3.5190    3.2140   -1.1940 O   0  0  0  0  0  0  0  0  0  0  0  0
   -1.4370   -0.8290   -0.0470 C   0  0  0  0  0  0  0  0  0  0  0  0
   -2.1660   -1.4830    0.8200 C   0  0  0  0  0  0  0  0  0  0  0  0
   -3.4980   -0.8750    1.1760 C   0  0  0  0  0  0  0  0  0  0  0  0
   -1.7800   -2.6830    1.4300 O   0  0  0  0  0  0  0  0  0  0  0  0
   -0.5490   -3.1940    1.0990 C   0  0  0  0  0  0  0  0  0  0  0  0
   -0.0940   -4.2680    1.5800 O   0  0  0  0  0  0  0  0  0  0  0  0
    0.3190   -2.5260    0.1660 N   0  0  0  0  0  0  0  0  0  0  0  0
   -0.1000   -1.3850   -0.5270 C   0  0  2  0  0  0  0  0  0  0  0  0
   -0.2890   -1.6970   -1.8890 O   0  0  0  0  0  0  0  0  0  0  0  0
  1  2  1  0
  2  3  1  0
  2  4  2  3
  4  5  1  0
  5  6  1  0
  5  7  2  3
  7  8  1  0
  7 21  1  0
  8  9  2  0
  8 10  1  0
 10 11  2  3
 10 14  1  0
 11 12  1  0
 12 13  1  0
 14 15  2  0
 14 21  1  0
 15 16  1  0
 15 17  1  0
 17 18  1  0
 18 19  2  0
 18 20  1  0
 20 21  1  0
 21 22  1  6
M  END
