
     RDKit          3D

 22 23  0  0  0  0  0  0  0  0999 V2000
   -2.0750   -2.4350   -0.2910 N   0  0  0  0  0  0  0  0  0  0  0  0
   -2.8150   -1.6500    0.4260 C   0  0  0  0  0  0  0  0  0  0  0  0
   -3.8610   -2.1880    1.1570 O   0  0  0  0  0  0  0  0  0  0  0  0
   -2.5880   -0.2170    0.4910 C   0  0  0  0  0  0  0  0  0  0  0  0
   -3.3690    0.5420    1.2360 C   0  0  0  0  0  0  0  0  0  0  0  0
   -3.1980    2.0010    1.3500 C   0  0  1  0  0  0  0  0  0  0  0  0
   -3.7550    2.6970    0.2710 O   0  0  0  0  0  0  0  0  0  0  0  0
   -3.7680    2.4680    2.5260 O   0  0  0  0  0  0  0  0  0  0  0  0
   -1.5570    0.3900   -0.2170 O   0  0  0  0  0  0  0  0  0  0  0  0
   -1.2770    0.0870   -1.5340 C   0  0  0  0  0  0  0  0  0  0  0  0
   -2.3320   -0.0380   -2.4230 O   0  0  0  0  0  0  0  0  0  0  0  0
   -0.0610   -0.0830   -1.9590 C   0  0  0  0  0  0  0  0  0  0  0  0
    0.4160   -0.4140   -3.3500 C   0  0  0  0  0  0  0  0  0  0  0  0
    1.6610    0.2050   -3.3980 O   0  0  0  0  0  0  0  0  0  0  0  0
    2.2530    0.1120   -2.1620 C   0  0  0  0  0  0  0  0  0  0  0  0
    1.1530    0.0110   -1.1640 C   0  0  0  0  0  0  0  0  0  0  0  0
    1.3340    0.0120    0.1430 C   0  0  0  0  0  0  0  0  0  0  0  0
    2.6630    0.1180    0.7440 C   0  0  0  0  0  0  0  0  0  0  0  0
    2.9010    0.1240    2.0430 C   0  0  0  0  0  0  0  0  0  0  0  0
    4.3640    0.2460    2.2650 C   0  0  0  0  0  0  0  0  0  0  0  0
    4.9330   -0.1660    0.9470 C   0  0  0  0  0  0  0  0  0  0  0  0
    3.8860    0.2290    0.0470 O   0  0  0  0  0  0  0  0  0  0  0  0
  1  2  2  0
  2  3  1  0
  2  4  1  0
  4  5  2  3
  4  9  1  0
  5  6  1  0
  6  7  1  6
  6  8  1  0
  9 10  1  0
 10 11  1  0
 10 12  2  3
 12 13  1  0
 12 16  1  0
 13 14  1  0
 14 15  1  0
 15 16  1  0
 16 17  2  3
 17 18  1  0
 18 19  2  0
 18 22  1  0
 19 20  1  0
 20 21  1  0
 21 22  1  0
M  END
