
     RDKit          3D

 22 22  0  0  0  0  0  0  0  0999 V2000
   -2.6030   -2.4440   -1.9770 C   0  0  0  0  0  0  0  0  0  0  0  0
   -2.6970   -1.9120   -0.5550 C   0  0  1  0  0  0  0  0  0  0  0  0
   -3.5490   -2.7750    0.1720 O   0  0  0  0  0  0  0  0  0  0  0  0
   -1.3800   -1.9440    0.0640 C   0  0  0  0  0  0  0  0  0  0  0  0
   -0.7460   -0.9160    0.5410 C   0  0  0  0  0  0  0  0  0  0  0  0
    0.5110   -1.0980    1.1060 O   0  0  0  0  0  0  0  0  0  0  0  0
    1.6810   -1.0150    0.3600 C   0  0  0  0  0  0  0  0  0  0  0  0
    1.5630   -0.7660   -0.8660 O   0  0  0  0  0  0  0  0  0  0  0  0
    2.9660   -1.2240    1.0570 C   0  0  0  0  0  0  0  0  0  0  0  0
    4.1440   -1.1040    0.1410 C   0  0  0  0  0  0  0  0  0  0  0  0
    4.1520    0.2560   -0.4460 C   0  0  0  0  0  0  0  0  0  0  0  0
    5.1640    0.6180   -1.3570 N   0  0  0  0  0  0  0  0  0  0  0  0
    3.2760    1.1000   -0.1520 O   0  0  0  0  0  0  0  0  0  0  0  0
   -1.3770    0.4270    0.4720 C   0  0  0  0  0  0  0  0  0  0  0  0
   -0.6900    1.4280    0.9690 C   0  0  0  0  0  0  0  0  0  0  0  0
   -1.1180    2.7940    1.0000 C   0  0  0  0  0  0  0  0  0  0  0  0
   -2.3270    3.2100    0.4980 O   0  0  0  0  0  0  0  0  0  0  0  0
   -0.3040    3.7290    1.5460 C   0  0  0  0  0  0  0  0  0  0  0  0
   -0.7030    5.0420    1.5820 O   0  0  0  0  0  0  0  0  0  0  0  0
   -2.6830    0.4810   -0.1380 C   0  0  0  0  0  0  0  0  0  0  0  0
   -3.3060   -0.5790   -0.6150 C   0  0  0  0  0  0  0  0  0  0  0  0
   -4.5900   -0.4490   -1.2010 O   0  0  0  0  0  0  0  0  0  0  0  0
  2  1  1  6
  2  3  1  0
  2  4  1  0
  2 21  1  0
  4  5  2  0
  5  6  1  0
  5 14  1  0
  6  7  1  0
  7  8  2  0
  7  9  1  0
  9 10  1  0
 10 11  1  0
 11 12  1  0
 11 13  2  0
 14 15  2  3
 14 20  1  0
 15 16  1  0
 16 17  1  0
 16 18  2  3
 18 19  1  0
 20 21  2  0
 21 22  1  0
M  END
