
     RDKit          3D

 25 26  0  0  0  0  0  0  0  0999 V2000
    6.4050   -2.5890    0.6230 C   0  0  0  0  0  0  0  0  0  0  0  0
    4.8930   -2.3920    0.7550 C   0  0  0  0  0  0  0  0  0  0  0  0
    4.6100   -1.0440    0.4380 O   0  0  0  0  0  0  0  0  0  0  0  0
    3.3240   -0.5320    0.4600 C   0  0  0  0  0  0  0  0  0  0  0  0
    2.4050   -1.3420    0.7820 O   0  0  0  0  0  0  0  0  0  0  0  0
    3.0420    0.8950    0.1230 C   0  0  0  0  0  0  0  0  0  0  0  0
    1.5960    1.1310    0.2350 N   0  0  0  0  0  0  0  0  0  0  0  0
    0.6790    0.3990   -0.5680 C   0  0  0  0  0  0  0  0  0  0  0  0
    1.1690   -0.4420   -1.3610 O   0  0  0  0  0  0  0  0  0  0  0  0
   -0.7210    0.6320   -0.4540 N   0  0  0  0  0  0  0  0  0  0  0  0
   -1.6430   -0.1250   -1.2800 C   0  0  0  0  0  0  0  0  0  0  0  0
   -2.1060   -1.3800   -0.6430 C   0  0  0  0  0  0  0  0  0  0  0  0
   -1.4220   -2.5600   -0.8380 C   0  0  0  0  0  0  0  0  0  0  0  0
   -1.8710   -3.7160   -0.2360 C   0  0  0  0  0  0  0  0  0  0  0  0
   -2.9830   -3.7540    0.5620 C   0  0  0  0  0  0  0  0  0  0  0  0
   -3.4450   -4.9610    1.1850 N   0  0  0  0  0  0  0  0  0  0  0  0
   -3.6700   -2.5760    0.7600 C   0  0  0  0  0  0  0  0  0  0  0  0
   -3.2250   -1.3950    0.1550 C   0  0  0  0  0  0  0  0  0  0  0  0
   -1.2790    1.5980    0.4520 C   0  0  0  0  0  0  0  0  0  0  0  0
   -1.4020    2.9370   -0.1920 C   0  0  0  0  0  0  0  0  0  0  0  0
   -1.8920    4.0960    0.3680 C   0  0  0  0  0  0  0  0  0  0  0  0
   -1.8340    5.0840   -0.5380 N   0  0  0  0  0  0  0  0  0  0  0  0
   -2.2490    6.4810   -0.3750 C   0  0  0  0  0  0  0  0  0  0  0  0
   -1.3230    4.5480   -1.6290 N   0  0  0  0  0  0  0  0  0  0  0  0
   -1.0580    3.2660   -1.4430 N   0  0  0  0  0  0  0  0  0  0  0  0
  1  2  1  0
  2  3  1  0
  3  4  1  0
  4  5  2  0
  4  6  1  0
  6  7  1  0
  7  8  1  0
  8  9  2  0
  8 10  1  0
 10 11  1  0
 10 19  1  0
 11 12  1  0
 12 13  2  0
 12 18  1  0
 13 14  1  0
 14 15  2  0
 15 16  1  0
 15 17  1  0
 17 18  2  0
 19 20  1  0
 20 21  2  0
 20 25  1  0
 21 22  1  0
 22 23  1  0
 22 24  1  0
 24 25  2  0
M  END
