
     RDKit          3D

 20 21  0  0  0  0  0  0  0  0999 V2000
   -0.0350    0.8630   -1.7540 C   0  0  0  0  0  0  0  0  0  0  0  0
    0.5250    0.4560   -0.3440 C   0  0  2  0  0  0  0  0  0  0  0  0
    1.5970   -0.5620   -0.5220 C   0  0  0  0  0  0  0  0  0  0  0  0
    2.6830   -0.1920   -1.3600 N   0  0  0  0  0  0  0  0  0  0  0  0
    3.4520    0.9280   -0.9170 C   0  0  0  0  0  0  0  0  0  0  0  0
    4.6510    0.4740   -0.1320 C   0  0  0  0  0  0  0  0  0  0  0  0
    4.7120    0.4030    1.2420 C   0  0  0  0  0  0  0  0  0  0  0  0
    5.9710   -0.0470    1.5600 C   0  0  0  0  0  0  0  0  0  0  0  0
    6.6900   -0.2560    0.4170 N   0  0  0  0  0  0  0  0  0  0  0  0
    5.8700    0.0660   -0.5980 C   0  0  0  0  0  0  0  0  0  0  0  0
   -0.6050   -0.2480    0.2780 N   0  0  0  0  0  0  0  0  0  0  0  0
   -1.7150    0.5890    0.5380 C   0  0  0  0  0  0  0  0  0  0  0  0
   -2.8990    0.0200   -0.1700 C   0  0  0  0  0  0  0  0  0  0  0  0
   -2.7860   -0.7700   -1.2930 N   0  0  0  0  0  0  0  0  0  0  0  0
   -4.0160   -1.0050   -1.7390 C   0  0  0  0  0  0  0  0  0  0  0  0
   -4.8990   -0.3690   -0.9040 C   0  0  0  0  0  0  0  0  0  0  0  0
   -4.1740    0.2490    0.0520 N   0  0  0  0  0  0  0  0  0  0  0  0
   -4.8450    0.9320    1.1710 C   0  0  0  0  0  0  0  0  0  0  0  0
   -5.3870   -0.1970    2.0820 C   0  0  0  0  0  0  0  0  0  0  0  0
   -4.4360   -1.0500    2.5240 O   0  0  0  0  0  0  0  0  0  0  0  0
  2  1  1  6
  2  3  1  0
  2 11  1  0
  3  4  1  0
  4  5  1  0
  5  6  1  0
  6  7  1  0
  6 10  2  0
  7  8  2  0
  8  9  1  0
  9 10  1  0
 11 12  1  0
 12 13  1  0
 13 14  2  0
 13 17  1  0
 14 15  1  0
 15 16  2  0
 16 17  1  0
 17 18  1  0
 18 19  1  0
 19 20  1  0
M  CHG  1   4   1
M  END
