
     RDKit          3D

 20 21  0  0  0  0  0  0  0  0999 V2000
    5.0940    1.4020   -1.1380 C   0  0  0  0  0  0  0  0  0  0  0  0
    4.7190   -0.0120   -1.5040 C   0  0  0  0  0  0  0  0  0  0  0  0
    4.2850   -0.6790   -0.2850 N   0  0  0  0  0  0  0  0  0  0  0  0
    5.0940   -1.3510    0.5420 C   0  0  0  0  0  0  0  0  0  0  0  0
    4.3030   -1.8250    1.5630 C   0  0  0  0  0  0  0  0  0  0  0  0
    3.0530   -1.4220    1.3120 N   0  0  0  0  0  0  0  0  0  0  0  0
    3.0230   -0.7060    0.1650 C   0  0  0  0  0  0  0  0  0  0  0  0
    1.8730   -0.1020   -0.4440 N   0  0  0  0  0  0  0  0  0  0  0  0
    0.5870   -0.2540    0.2160 C   0  0  0  0  0  0  0  0  0  0  0  0
   -0.4320    0.4670   -0.6250 C   0  0  0  0  0  0  0  0  0  0  0  0
   -1.8270    0.3870   -0.0460 C   0  0  2  0  0  0  0  0  0  0  0  0
   -2.3420   -0.9970    0.0940 C   0  0  0  0  0  0  0  0  0  0  0  0
   -2.9780   -1.2070    1.4710 C   0  0  0  0  0  0  0  0  0  0  0  0
   -3.9370   -0.1010    1.8080 C   0  0  0  0  0  0  0  0  0  0  0  0
   -4.5390    0.5610    0.6130 C   0  0  0  0  0  0  0  0  0  0  0  0
   -3.8130    1.6840    0.1160 N   0  0  0  0  0  0  0  0  0  0  0  0
   -2.7250    1.3340   -0.7620 C   0  0  2  0  0  0  0  0  0  0  0  0
   -3.1610    0.9030   -2.0940 C   0  0  0  0  0  0  0  0  0  0  0  0
   -2.3520    0.5030   -3.1540 N   0  0  0  0  0  0  0  0  0  0  0  0
   -4.4200    0.8970   -2.2940 O   0  0  0  0  0  0  0  0  0  0  0  0
  1  2  1  0
  2  3  1  0
  3  4  1  0
  3  7  1  0
  4  5  2  0
  5  6  1  0
  6  7  2  0
  7  8  1  0
  8  9  1  0
  9 10  1  0
 11 10  1  6
 11 12  1  0
 11 17  1  0
 12 13  1  0
 13 14  1  0
 14 15  1  0
 15 16  1  0
 16 17  1  0
 17 18  1  6
 18 19  1  0
 18 20  2  0
M  CHG  1   6   1
M  END
