
     RDKit          3D

 20 22  0  0  0  0  0  0  0  0999 V2000
    0.9700    0.1080   -0.3260 C   0  0  0  0  0  0  0  0  0  0  0  0
   -0.4780    0.0000    0.1580 C   0  0  0  0  0  0  0  0  0  0  0  0
   -1.0760   -1.1390   -0.3550 N   0  0  0  0  0  0  0  0  0  0  0  0
   -2.3630   -1.5480   -0.0780 C   0  0  0  0  0  0  0  0  0  0  0  0
   -3.5420   -0.7870   -0.6020 C   0  0  2  0  0  0  0  0  0  0  0  0
   -3.5870    0.5980   -0.1280 C   0  0  0  0  0  0  0  0  0  0  0  0
   -4.9820    1.1760    0.0190 C   0  0  0  0  0  0  0  0  0  0  0  0
   -5.8400    0.1630    0.7330 C   0  0  0  0  0  0  0  0  0  0  0  0
   -5.9940   -0.9280   -0.2440 N   0  0  0  0  0  0  0  0  0  0  0  0
   -4.7570   -1.6230   -0.2910 C   0  0  0  0  0  0  0  0  0  0  0  0
    1.5000    1.3840    0.3160 C   0  0  0  0  0  0  0  0  0  0  0  0
    2.8710    1.6160   -0.0610 N   0  0  0  0  0  0  0  0  0  0  0  0
    3.8880    0.6870    0.2640 C   0  0  0  0  0  0  0  0  0  0  0  0
    3.7050   -0.4620    0.9270 N   0  0  0  0  0  0  0  0  0  0  0  0
    4.8670   -1.0790    1.0530 N   0  0  0  0  0  0  0  0  0  0  0  0
    5.8500   -0.3570    0.4780 C   0  0  0  0  0  0  0  0  0  0  0  0
    5.2270    0.7680   -0.0240 C   0  0  0  0  0  0  0  0  0  0  0  0
    6.1510    1.6050   -0.6490 O   0  0  0  0  0  0  0  0  0  0  0  0
    7.4410    1.2450   -0.1770 C   0  0  0  0  0  0  0  0  0  0  0  0
    7.2930   -0.2290    0.1450 C   0  0  0  0  0  0  0  0  0  0  0  0
  1  2  1  0
  1 11  1  0
  2  3  1  0
  3  4  1  0
  5  4  1  1
  5  6  1  0
  5 10  1  0
  6  7  1  0
  7  8  1  0
  8  9  1  0
  9 10  1  0
 11 12  1  0
 12 13  1  0
 13 14  2  0
 13 17  1  0
 14 15  1  0
 15 16  1  0
 16 17  2  0
 16 20  1  0
 17 18  1  0
 18 19  1  0
 19 20  1  0
M  CHG  1   9   1
M  END
