
     RDKit          3D

 20 21  0  0  0  0  0  0  0  0999 V2000
   -3.9340    2.4210    0.6950 C   0  0  0  0  0  0  0  0  0  0  0  0
   -3.0280    1.2360    0.5230 C   0  0  2  0  0  0  0  0  0  0  0  0
   -2.1030    1.4140   -0.6870 C   0  0  0  0  0  0  0  0  0  0  0  0
   -0.8220    0.7330   -0.3610 C   0  0  0  0  0  0  0  0  0  0  0  0
   -0.7710   -0.7180   -0.6130 C   0  0  1  0  0  0  0  0  0  0  0  0
    0.0320   -1.3800    0.4860 C   0  0  0  0  0  0  0  0  0  0  0  0
    1.3880   -0.8710    0.5390 N   0  0  0  0  0  0  0  0  0  0  0  0
    2.0510   -0.9650   -0.7440 C   0  0  0  0  0  0  0  0  0  0  0  0
    3.5170   -1.2620   -0.5060 C   0  0  0  0  0  0  0  0  0  0  0  0
    4.0810   -0.1450    0.2990 C   0  0  0  0  0  0  0  0  0  0  0  0
    3.6110    0.1850    1.5500 O   0  0  0  0  0  0  0  0  0  0  0  0
    5.0750    0.5570   -0.2130 C   0  0  0  0  0  0  0  0  0  0  0  0
    5.6510    1.6510    0.5400 C   0  0  0  0  0  0  0  0  0  0  0  0
    6.6170    2.3400    0.0540 N   0  0  0  0  0  0  0  0  0  0  0  0
   -2.0220   -1.3930   -0.7150 N   0  0  0  0  0  0  0  0  0  0  0  0
   -3.3580   -1.1030   -0.3020 C   0  0  0  0  0  0  0  0  0  0  0  0
   -4.4130   -2.0050   -0.4120 C   0  0  0  0  0  0  0  0  0  0  0  0
   -5.5010   -1.3290    0.0930 C   0  0  0  0  0  0  0  0  0  0  0  0
   -5.1000   -0.1040    0.4740 N   0  0  0  0  0  0  0  0  0  0  0  0
   -3.8010    0.0240    0.2310 N   0  0  0  0  0  0  0  0  0  0  0  0
  2  1  1  6
  2  3  1  0
  2 20  1  0
  3  4  1  0
  4  5  1  0
  5  6  1  1
  5 15  1  0
  6  7  1  0
  7  8  1  0
  8  9  1  0
  9 10  1  0
 10 11  1  0
 10 12  2  3
 12 13  1  0
 13 14  2  0
 15 16  1  0
 16 17  2  0
 16 20  1  0
 17 18  1  0
 18 19  2  0
 19 20  1  0
M  CHG  1   7   1
M  END
