
     RDKit          3D

 20 21  0  0  0  0  0  0  0  0999 V2000
   -4.6520    0.2280    1.5010 C   0  0  0  0  0  0  0  0  0  0  0  0
   -4.1210   -1.1070    1.0940 C   0  0  0  0  0  0  0  0  0  0  0  0
   -2.8020   -1.0110    0.3410 C   0  0  1  0  0  0  0  0  0  0  0  0
   -2.9420   -0.1990   -0.9200 C   0  0  0  0  0  0  0  0  0  0  0  0
   -3.9860   -0.9130   -1.7830 C   0  0  0  0  0  0  0  0  0  0  0  0
   -1.8260   -0.4870    1.2500 N   0  0  0  0  0  0  0  0  0  0  0  0
   -0.7270    0.1270    0.6360 C   0  0  0  0  0  0  0  0  0  0  0  0
    0.3430   -0.6270    0.2000 C   0  0  0  0  0  0  0  0  0  0  0  0
    1.4400   -0.0080   -0.4140 C   0  0  0  0  0  0  0  0  0  0  0  0
    1.4970    1.3550   -0.6040 C   0  0  0  0  0  0  0  0  0  0  0  0
    2.6080    1.9970   -1.2240 N   0  0  0  0  0  0  0  0  0  0  0  0
    3.7580    1.2600   -1.6400 C   0  0  0  0  0  0  0  0  0  0  0  0
    4.4680    0.5820   -0.5290 C   0  0  0  0  0  0  0  0  0  0  0  0
    4.2530    0.6050    0.7960 N   0  0  0  0  0  0  0  0  0  0  0  0
    5.1390   -0.1570    1.4130 N   0  0  0  0  0  0  0  0  0  0  0  0
    5.9230   -0.6610    0.4160 C   0  0  0  0  0  0  0  0  0  0  0  0
    7.0260   -1.5390    0.5430 N   0  0  0  0  0  0  0  0  0  0  0  0
    5.4990   -0.2040   -0.7310 O   0  0  0  0  0  0  0  0  0  0  0  0
    0.4200    2.1000   -0.1630 C   0  0  0  0  0  0  0  0  0  0  0  0
   -0.6730    1.4930    0.4470 C   0  0  0  0  0  0  0  0  0  0  0  0
  1  2  1  0
  3  2  1  1
  3  4  1  0
  3  6  1  0
  4  5  1  0
  6  7  1  0
  7  8  2  0
  7 20  1  0
  8  9  1  0
  9 10  2  0
 10 11  1  0
 10 19  1  0
 11 12  1  0
 12 13  1  0
 13 14  2  0
 13 18  1  0
 14 15  1  0
 15 16  2  0
 16 17  1  0
 16 18  1  0
 19 20  2  0
M  CHG  1   6   1
M  END
