
     RDKit          3D

 12 12  0  0  0  0  0  0  0  0999 V2000
    3.4950    1.1320    0.9360 N   0  0  0  0  0  0  0  0  0  0  0  0
    3.3100    0.1360   -0.0360 C   0  0  0  0  0  0  0  0  0  0  0  0
    2.0930   -0.3400   -0.2400 C   0  0  0  0  0  0  0  0  0  0  0  0
    0.9500    0.1420    0.5140 C   0  0  0  0  0  0  0  0  0  0  0  0
   -0.2640   -0.3400    0.3020 C   0  0  0  0  0  0  0  0  0  0  0  0
   -1.3960    0.1110    1.0220 N   0  0  0  0  0  0  0  0  0  0  0  0
   -2.6410    1.0000    0.2450 S   0  0  2  0  0  0  0  0  0  0  0  0
   -3.9420    0.1480    0.1400 N   0  0  0  0  0  0  0  0  0  0  0  0
   -2.3170    1.2030   -1.2340 O   0  0  0  0  0  0  0  0  0  0  0  0
   -0.4030   -1.3470   -0.6920 N   0  0  0  0  0  0  0  0  0  0  0  0
    0.6900   -1.8270   -1.4330 C   0  0  0  0  0  0  0  0  0  0  0  0
    1.8700   -1.3520   -1.2210 N   0  0  0  0  0  0  0  0  0  0  0  0
  1  2  1  0
  2  3  2  3
  3  4  1  0
  3 12  1  0
  4  5  2  0
  5  6  1  0
  5 10  1  0
  7  6  1  1
  7  8  2  0
  7  9  2  0
 10 11  1  0
 11 12  2  0
M  CHG  1   8   1
M  END
