
     RDKit          3D

 12 12  0  0  0  0  0  0  0  0999 V2000
   -3.8410   -0.3700    0.8630 N   0  0  0  0  0  0  0  0  0  0  0  0
   -2.6390   -0.1710    1.3040 C   0  0  0  0  0  0  0  0  0  0  0  0
   -2.4870    0.0510    2.6620 O   0  0  0  0  0  0  0  0  0  0  0  0
   -1.4790   -0.1760    0.4270 C   0  0  0  0  0  0  0  0  0  0  0  0
   -1.6990   -0.4100   -0.9600 N   0  0  0  0  0  0  0  0  0  0  0  0
   -0.3620    0.0270    0.9580 N   0  0  0  0  0  0  0  0  0  0  0  0
    0.9080    0.0750    0.3550 C   0  0  0  0  0  0  0  0  0  0  0  0
    1.2720   -0.8870   -0.4890 C   0  0  0  0  0  0  0  0  0  0  0  0
    2.5370   -0.9050   -1.1350 N   0  0  0  0  0  0  0  0  0  0  0  0
    3.8930   -0.0490   -0.4020 S   0  0  0  0  0  0  0  0  0  0  0  0
    3.1720    1.1650    0.7380 C   0  0  0  0  0  0  0  0  0  0  0  0
    1.7430    1.1740    0.6930 N   0  0  0  0  0  0  0  0  0  0  0  0
  1  2  2  0
  2  3  1  0
  2  4  1  0
  4  5  1  0
  4  6  2  3
  6  7  1  0
  7  8  2  0
  7 12  1  0
  8  9  1  0
  9 10  1  0
 10 11  1  0
 11 12  1  0
M  CHG  1   5   1
M  END
