
     RDKit          3D

 11 12  0  0  0  0  0  0  0  0999 V2000
    3.8820   -0.4000   -0.7820 N   0  0  0  0  0  0  0  0  0  0  0  0
    2.5140   -0.1250   -0.4310 C   0  0  0  0  0  0  0  0  0  0  0  0
    1.9570    1.0900   -0.4090 N   0  0  0  0  0  0  0  0  0  0  0  0
    0.6480    0.9770   -0.0320 C   0  0  0  0  0  0  0  0  0  0  0  0
    0.4250   -0.3460    0.1750 C   0  0  0  0  0  0  0  0  0  0  0  0
    1.5960   -0.9670   -0.0830 O   0  0  0  0  0  0  0  0  0  0  0  0
   -0.6670   -0.8720    0.5380 N   0  0  0  0  0  0  0  0  0  0  0  0
   -1.9100   -0.3130    0.8230 C   0  0  2  0  0  0  0  0  0  0  0  0
   -2.9880   -0.8840    0.0070 N   0  0  0  0  0  0  0  0  0  0  0  0
   -1.8850    1.4790    0.6200 S   0  0  0  0  0  0  0  0  0  0  0  0
   -0.2580    1.9220    0.1180 C   0  0  0  0  0  0  0  0  0  0  0  0
  1  2  1  0
  2  3  2  0
  2  6  1  0
  3  4  1  0
  4  5  1  0
  4 11  2  0
  5  6  1  0
  5  7  2  0
  7  8  1  0
  8  9  1  6
  8 10  1  0
 10 11  1  0
M  CHG  1   9   1
M  END
