
     RDKit          3D

 12 12  0  0  0  0  0  0  0  0999 V2000
    3.4400   -0.5260   -0.0270 N   0  0  0  0  0  0  0  0  0  0  0  0
    2.1190   -0.0050    0.0020 C   0  0  0  0  0  0  0  0  0  0  0  0
    1.9790    1.2380   -0.2750 N   0  0  0  0  0  0  0  0  0  0  0  0
    0.8210    2.0680   -0.3370 C   0  0  0  0  0  0  0  0  0  0  0  0
    0.9630    3.2680   -0.6650 O   0  0  0  0  0  0  0  0  0  0  0  0
   -0.5350    1.6250   -0.0450 C   0  0  0  0  0  0  0  0  0  0  0  0
   -1.6090    2.8190    0.2290 S   0  0  0  0  0  0  0  0  0  0  0  0
   -1.0010    0.2680    0.0210 N   0  0  0  0  0  0  0  0  0  0  0  0
   -2.4010    0.1120    0.2060 C   0  0  0  0  0  0  0  0  0  0  0  0
   -3.0250   -0.9420   -0.1800 N   0  0  0  0  0  0  0  0  0  0  0  0
   -0.2670   -0.9600   -0.0710 C   0  0  0  0  0  0  0  0  0  0  0  0
    1.0800   -0.9200    0.3400 N   0  0  0  0  0  0  0  0  0  0  0  0
  1  2  1  0
  2  3  2  0
  2 12  1  0
  3  4  1  0
  4  5  2  0
  4  6  1  0
  6  7  2  0
  6  8  1  0
  8  9  1  0
  8 11  1  0
  9 10  2  0
 11 12  1  0
M  CHG  1  10   1
M  END
