
     RDKit          3D

 20 20  0  0  0  0  0  0  0  0999 V2000
   -5.0910    1.8590    0.9230 C   0  0  0  0  0  0  0  0  0  0  0  0
   -5.7350    0.5950    0.4010 C   0  0  0  0  0  0  0  0  0  0  0  0
   -4.8340   -0.0480   -0.4990 O   0  0  0  0  0  0  0  0  0  0  0  0
   -3.5840   -0.4760   -0.1070 C   0  0  0  0  0  0  0  0  0  0  0  0
   -3.2350   -0.2920    1.0780 O   0  0  0  0  0  0  0  0  0  0  0  0
   -2.6860   -1.1290   -1.0500 C   0  0  0  0  0  0  0  0  0  0  0  0
   -1.4160   -1.5120   -0.4670 N   0  0  0  0  0  0  0  0  0  0  0  0
   -0.5240   -0.5680    0.1060 C   0  0  0  0  0  0  0  0  0  0  0  0
   -0.9470    0.6360    0.0590 O   0  0  0  0  0  0  0  0  0  0  0  0
    0.7310   -0.8840    0.6890 N   0  0  0  0  0  0  0  0  0  0  0  0
    1.1810   -2.2550    0.7280 C   0  0  0  0  0  0  0  0  0  0  0  0
    0.6720   -2.8760    2.0260 C   0  0  0  0  0  0  0  0  0  0  0  0
    1.5970    0.1240    1.2590 C   0  0  0  0  0  0  0  0  0  0  0  0
    2.5430    0.6340    0.2450 C   0  0  0  0  0  0  0  0  0  0  0  0
    3.7870    0.0500    0.0860 C   0  0  0  0  0  0  0  0  0  0  0  0
    4.6330    0.5700   -0.8790 C   0  0  0  0  0  0  0  0  0  0  0  0
    4.2820    1.6330   -1.6710 C   0  0  0  0  0  0  0  0  0  0  0  0
    5.1450    2.1680   -2.6590 N   0  0  0  0  0  0  0  0  0  0  0  0
    3.0450    2.2050   -1.5040 C   0  0  0  0  0  0  0  0  0  0  0  0
    2.1730    1.6990   -0.5370 C   0  0  0  0  0  0  0  0  0  0  0  0
  1  2  1  0
  2  3  1  0
  3  4  1  0
  4  5  2  0
  4  6  1  0
  6  7  1  0
  7  8  1  0
  8  9  2  0
  8 10  1  0
 10 11  1  0
 10 13  1  0
 11 12  1  0
 13 14  1  0
 14 15  2  0
 14 20  1  0
 15 16  1  0
 16 17  2  0
 17 18  1  0
 17 19  1  0
 19 20  2  0
M  END
