
     RDKit          3D

 12 12  0  0  0  0  0  0  0  0999 V2000
    0.7010    1.8410    0.4630 N   0  0  0  0  0  0  0  0  0  0  0  0
   -0.1690    0.8920    0.2720 C   0  0  0  0  0  0  0  0  0  0  0  0
   -1.4340    1.0250    0.9320 N   0  0  0  0  0  0  0  0  0  0  0  0
   -2.5190    0.1810    0.8860 N   0  0  0  0  0  0  0  0  0  0  0  0
   -2.8990   -0.5130   -0.1360 C   0  0  0  0  0  0  0  0  0  0  0  0
   -4.0510   -1.2720    0.1630 O   0  0  0  0  0  0  0  0  0  0  0  0
   -2.4280   -0.6940   -1.5060 C   0  0  0  0  0  0  0  0  0  0  0  0
   -0.7120   -1.1270   -1.7100 S   0  0  0  0  0  0  0  0  0  0  0  0
    0.2900   -0.1700   -0.5970 C   0  0  0  0  0  0  0  0  0  0  0  0
    1.5220   -0.4910   -0.5920 N   0  0  0  0  0  0  0  0  0  0  0  0
    2.4980    0.1440    0.2340 C   0  0  0  0  0  0  0  0  0  0  0  0
    3.7050   -0.6960    0.3000 N   0  0  0  0  0  0  0  0  0  0  0  0
  1  2  2  0
  2  3  1  0
  2  9  1  0
  3  4  1  0
  4  5  2  0
  5  6  1  0
  5  7  1  0
  7  8  1  0
  8  9  1  0
  9 10  2  3
 10 11  1  0
 11 12  1  0
M  CHG  1  12   1
M  END
