
     RDKit          3D

 12 13  0  0  0  0  0  0  0  0999 V2000
   -2.5500   -0.3410    0.7550 N   0  0  0  0  0  0  0  0  0  0  0  0
   -1.5990   -0.9020   -0.1750 C   0  0  1  0  0  0  0  0  0  0  0  0
   -2.1770   -1.0370   -1.4340 O   0  0  0  0  0  0  0  0  0  0  0  0
   -0.4720    0.0210   -0.2790 N   0  0  0  0  0  0  0  0  0  0  0  0
   -0.5680    1.3850   -0.7210 C   0  0  0  0  0  0  0  0  0  0  0  0
    0.6400    1.9780   -0.1760 N   0  0  0  0  0  0  0  0  0  0  0  0
    1.5450    0.9180    0.0980 C   0  0  0  0  0  0  0  0  0  0  0  0
    2.8070    0.6300    0.3940 N   0  0  0  0  0  0  0  0  0  0  0  0
    2.9670   -0.6990    0.5250 C   0  0  0  0  0  0  0  0  0  0  0  0
    4.3030   -1.5370    0.8770 S   0  0  0  0  0  0  0  0  0  0  0  0
    1.7580   -1.2770    0.3020 N   0  0  0  0  0  0  0  0  0  0  0  0
    0.8780   -0.2880    0.0380 C   0  0  0  0  0  0  0  0  0  0  0  0
  2  1  1  1
  2  3  1  0
  2  4  1  0
  4  5  1  0
  4 12  1  0
  5  6  1  0
  6  7  1  0
  7  8  1  0
  7 12  2  0
  8  9  1  0
  9 10  2  0
  9 11  1  0
 11 12  1  0
M  CHG  1   1   1
M  END
