
     RDKit          3D

 11 12  0  0  0  0  0  0  0  0999 V2000
    1.9470    0.9090   -0.1320 N   0  0  0  0  0  0  0  0  0  0  0  0
    1.8740   -0.5340   -0.0390 C   0  0  0  0  0  0  0  0  0  0  0  0
    0.4690   -1.0270    0.1830 C   0  0  1  0  0  0  0  0  0  0  0  0
   -0.1230   -0.5310    1.3830 N   0  0  0  0  0  0  0  0  0  0  0  0
   -1.1270    0.4140    1.0510 C   0  0  0  0  0  0  0  0  0  0  0  0
   -1.9640    1.3580    1.5520 N   0  0  0  0  0  0  0  0  0  0  0  0
   -2.6820    1.8860    0.5770 N   0  0  0  0  0  0  0  0  0  0  0  0
   -2.3250    1.2980   -0.5540 N   0  0  0  0  0  0  0  0  0  0  0  0
   -1.3770    0.3930   -0.3040 C   0  0  0  0  0  0  0  0  0  0  0  0
   -0.4830   -0.6260   -0.8940 C   0  0  2  0  0  0  0  0  0  0  0  0
   -1.2950   -1.7340   -1.2320 O   0  0  0  0  0  0  0  0  0  0  0  0
  1  2  1  0
  3  2  1  6
  3  4  1  0
  3 10  1  0
  4  5  1  0
  5  6  1  0
  5  9  2  0
  6  7  2  0
  7  8  1  0
  8  9  1  0
  9 10  1  0
 10 11  1  1
M  CHG  1   1   1
M  END
