
     RDKit          3D

 24 25  0  0  0  0  0  0  0  0999 V2000
   -5.2390    2.6450    0.1720 C   0  0  0  0  0  0  0  0  0  0  0  0
   -5.6260    1.2080    0.3520 C   0  0  0  0  0  0  0  0  0  0  0  0
   -4.7150    0.3090   -0.2210 O   0  0  0  0  0  0  0  0  0  0  0  0
   -3.3810    0.2420    0.1570 C   0  0  0  0  0  0  0  0  0  0  0  0
   -2.9930    1.0210    1.0460 O   0  0  0  0  0  0  0  0  0  0  0  0
   -2.4960   -0.7490   -0.5160 C   0  0  0  0  0  0  0  0  0  0  0  0
   -1.1450   -0.6690    0.0120 N   0  0  0  0  0  0  0  0  0  0  0  0
   -0.1710   -1.5500   -0.5240 C   0  0  0  0  0  0  0  0  0  0  0  0
   -0.5380   -2.3600   -1.4370 O   0  0  0  0  0  0  0  0  0  0  0  0
    1.1760   -1.5570   -0.0820 N   0  0  0  0  0  0  0  0  0  0  0  0
    1.6210   -0.6560    0.9540 C   0  0  0  0  0  0  0  0  0  0  0  0
    2.0880    0.6220    0.3980 C   0  0  0  0  0  0  0  0  0  0  0  0
    2.5560    1.6250    1.2180 C   0  0  0  0  0  0  0  0  0  0  0  0
    3.0020    2.8390    0.7110 C   0  0  0  0  0  0  0  0  0  0  0  0
    2.9800    3.0650   -0.6680 C   0  0  0  0  0  0  0  0  0  0  0  0
    3.4330    4.3030   -1.1930 N   0  0  0  0  0  0  0  0  0  0  0  0
    2.5150    2.0720   -1.4890 C   0  0  0  0  0  0  0  0  0  0  0  0
    2.0830    0.8860   -0.9560 C   0  0  0  0  0  0  0  0  0  0  0  0
    2.1240   -2.4760   -0.6720 C   0  0  0  0  0  0  0  0  0  0  0  0
    2.0830   -3.7250    0.1350 C   0  0  0  0  0  0  0  0  0  0  0  0
    2.8580   -3.9920    1.2240 N   0  0  0  0  0  0  0  0  0  0  0  0
    2.5340   -5.1930    1.6690 N   0  0  0  0  0  0  0  0  0  0  0  0
    1.5870   -5.7130    0.9160 N   0  0  0  0  0  0  0  0  0  0  0  0
    1.3120   -4.8160   -0.0190 N   0  0  0  0  0  0  0  0  0  0  0  0
  1  2  1  0
  2  3  1  0
  3  4  1  0
  4  5  2  0
  4  6  1  0
  6  7  1  0
  7  8  1  0
  8  9  2  0
  8 10  1  0
 10 11  1  0
 10 19  1  0
 11 12  1  0
 12 13  2  0
 12 18  1  0
 13 14  1  0
 14 15  2  0
 15 16  1  0
 15 17  1  0
 17 18  2  0
 19 20  1  0
 20 21  1  0
 20 24  2  0
 21 22  2  0
 22 23  1  0
 23 24  1  0
M  END
