
     RDKit          3D

 20 20  0  0  0  0  0  0  0  0999 V2000
    5.8690   -1.1230   -0.7760 C   0  0  0  0  0  0  0  0  0  0  0  0
    5.7200   -0.0740    0.1340 O   0  0  0  0  0  0  0  0  0  0  0  0
    4.4900    0.4460    0.5360 C   0  0  0  0  0  0  0  0  0  0  0  0
    3.3280   -0.0440    0.0580 C   0  0  0  0  0  0  0  0  0  0  0  0
    2.0700    0.4600    0.4440 C   0  0  0  0  0  0  0  0  0  0  0  0
    0.9200   -0.1390   -0.1190 N   0  0  0  0  0  0  0  0  0  0  0  0
   -0.3930    0.3170    0.0950 C   0  0  0  0  0  0  0  0  0  0  0  0
   -0.6590    1.3010    0.8050 O   0  0  0  0  0  0  0  0  0  0  0  0
   -1.5470   -0.3880   -0.5430 C   0  0  1  0  0  0  0  0  0  0  0  0
   -1.5410   -1.7960    0.0690 C   0  0  0  0  0  0  0  0  0  0  0  0
   -2.6550   -2.6340   -0.4780 C   0  0  0  0  0  0  0  0  0  0  0  0
   -2.4990   -2.7520   -1.9130 N   0  0  0  0  0  0  0  0  0  0  0  0
   -2.7690    0.2120   -0.2530 N   0  0  0  0  0  0  0  0  0  0  0  0
   -3.0770    1.5060   -0.6690 C   0  0  0  0  0  0  0  0  0  0  0  0
   -4.5020    1.8280   -0.1820 C   0  0  0  0  0  0  0  0  0  0  0  0
   -4.5760    1.7490    1.2540 N   0  0  0  0  0  0  0  0  0  0  0  0
    2.0970    1.4790    1.3360 C   0  0  0  0  0  0  0  0  0  0  0  0
    3.2750    2.0230    1.8610 C   0  0  0  0  0  0  0  0  0  0  0  0
    4.4610    1.4800    1.4380 C   0  0  0  0  0  0  0  0  0  0  0  0
    5.6640    1.9920    1.9370 O   0  0  0  0  0  0  0  0  0  0  0  0
  1  2  1  0
  2  3  1  0
  3  4  2  0
  3 19  1  0
  4  5  1  0
  5  6  1  0
  5 17  2  0
  6  7  1  0
  7  8  2  0
  7  9  1  0
  9 10  1  1
  9 13  1  0
 10 11  1  0
 11 12  1  0
 13 14  1  0
 14 15  1  0
 15 16  1  0
 17 18  1  0
 18 19  2  0
 19 20  1  0
M  CHG  1  12   1
M  END
