
     RDKit          3D

 20 19  0  0  0  0  0  0  0  0999 V2000
   -1.8880    5.5140   -0.1870 C   0  0  0  0  0  0  0  0  0  0  0  0
   -0.6230    4.8260   -0.5610 C   0  0  0  0  0  0  0  0  0  0  0  0
   -0.7370    3.3570   -0.3870 N   0  0  0  0  0  0  0  0  0  0  0  0
    0.3310    2.5140   -0.6790 C   0  0  0  0  0  0  0  0  0  0  0  0
    1.3870    3.0480   -1.0920 O   0  0  0  0  0  0  0  0  0  0  0  0
    0.2860    0.9900   -0.5250 C   0  0  0  0  0  0  0  0  0  0  0  0
   -0.8110    0.4810   -0.1090 C   0  0  0  0  0  0  0  0  0  0  0  0
   -1.2880   -0.8640    0.1390 C   0  0  0  0  0  0  0  0  0  0  0  0
   -0.7450   -2.0800   -0.4590 C   0  0  0  0  0  0  0  0  0  0  0  0
   -1.0890   -3.4650   -0.1490 C   0  0  0  0  0  0  0  0  0  0  0  0
    0.1600   -1.9520   -1.3820 O   0  0  0  0  0  0  0  0  0  0  0  0
   -2.5030   -0.9180    0.7260 C   0  0  0  0  0  0  0  0  0  0  0  0
   -3.2360   -2.1250    1.0950 C   0  0  0  0  0  0  0  0  0  0  0  0
   -3.1330    0.3500    1.0170 N   0  0  0  0  0  0  0  0  0  0  0  0
    1.6460    0.4830   -0.5580 C   0  0  0  0  0  0  0  0  0  0  0  0
    2.5000    1.2030   -1.2140 O   0  0  0  0  0  0  0  0  0  0  0  0
    2.2010   -0.6530    0.0200 N   0  0  0  0  0  0  0  0  0  0  0  0
    3.6140   -0.9960   -0.1390 C   0  0  0  0  0  0  0  0  0  0  0  0
    3.9280   -2.2690    0.5920 C   0  0  0  0  0  0  0  0  0  0  0  0
    3.1660   -3.4000    0.1250 N   0  0  0  0  0  0  0  0  0  0  0  0
  1  2  1  0
  2  3  1  0
  3  4  1  0
  4  5  2  0
  4  6  1  0
  6  7  2  3
  6 15  1  0
  7  8  1  0
  8  9  1  0
  8 12  2  3
  9 10  1  0
  9 11  2  0
 12 13  1  0
 12 14  1  0
 15 16  2  0
 15 17  1  0
 17 18  1  0
 18 19  1  0
 19 20  1  0
M  CHG  1  20   1
M  END
