
     RDKit          3D

 20 20  0  0  0  0  0  0  0  0999 V2000
   -1.4640   -0.8810   -1.7500 C   0  0  0  0  0  0  0  0  0  0  0  0
   -0.5020   -0.7440   -0.5560 C   0  0  1  0  0  0  0  0  0  0  0  0
   -1.2270   -0.0100    0.4520 C   0  0  0  0  0  0  0  0  0  0  0  0
   -0.9630    1.0680    1.0100 O   0  0  0  0  0  0  0  0  0  0  0  0
   -2.4640   -0.6250    0.8880 N   0  0  0  0  0  0  0  0  0  0  0  0
   -3.3020   -0.0230    1.8790 C   0  0  0  0  0  0  0  0  0  0  0  0
   -3.8120    1.3110    1.4560 C   0  0  0  0  0  0  0  0  0  0  0  0
   -4.6690    1.8570    2.5250 N   0  0  0  0  0  0  0  0  0  0  0  0
   -0.2000   -2.1410    0.0030 C   0  0  0  0  0  0  0  0  0  0  0  0
    0.2440   -3.0380   -1.1050 C   0  0  0  0  0  0  0  0  0  0  0  0
    1.1000   -2.4700   -2.1520 C   0  0  0  0  0  0  0  0  0  0  0  0
    1.1040   -0.9880   -2.3150 C   0  0  0  0  0  0  0  0  0  0  0  0
    0.7370   -0.2970   -1.0530 N   0  0  0  0  0  0  0  0  0  0  0  0
    1.6490    0.6370   -0.5760 C   0  0  0  0  0  0  0  0  0  0  0  0
    1.4600    1.2800    0.4770 O   0  0  0  0  0  0  0  0  0  0  0  0
    2.9160    0.9280   -1.3000 C   0  0  0  0  0  0  0  0  0  0  0  0
    3.7390    1.9790   -0.6440 C   0  0  0  0  0  0  0  0  0  0  0  0
    4.1620    1.6410    0.7290 C   0  0  0  0  0  0  0  0  0  0  0  0
    4.9200    2.5190    1.5470 N   0  0  0  0  0  0  0  0  0  0  0  0
    3.8550    0.5320    1.2320 O   0  0  0  0  0  0  0  0  0  0  0  0
  2  1  1  6
  2  3  1  0
  2  9  1  0
  2 13  1  0
  3  4  2  0
  3  5  1  0
  5  6  1  0
  6  7  1  0
  7  8  1  0
  9 10  1  0
 10 11  1  0
 11 12  1  0
 12 13  1  0
 13 14  1  0
 14 15  2  0
 14 16  1  0
 16 17  1  0
 17 18  1  0
 18 19  1  0
 18 20  2  0
M  CHG  1   8   1
M  END
