
     RDKit          3D

 20 20  0  0  0  0  0  0  0  0999 V2000
   -3.8950   -2.5770    1.8210 C   0  0  0  0  0  0  0  0  0  0  0  0
   -3.1150   -2.3480    0.7910 C   0  0  0  0  0  0  0  0  0  0  0  0
   -2.0660   -1.3190    0.8930 C   0  0  0  0  0  0  0  0  0  0  0  0
   -2.2520   -0.2110   -0.1420 C   0  0  0  0  0  0  0  0  0  0  0  0
   -1.1900    0.8320   -0.0410 C   0  0  2  0  0  0  0  0  0  0  0  0
   -1.4580    1.8740   -1.1070 C   0  0  0  0  0  0  0  0  0  0  0  0
   -0.4850    2.9630   -1.1280 C   0  0  0  0  0  0  0  0  0  0  0  0
   -0.7300    4.2330   -0.5450 N   0  0  0  0  0  0  0  0  0  0  0  0
    0.6260    2.7810   -1.6850 O   0  0  0  0  0  0  0  0  0  0  0  0
    0.1590    0.3870    0.0450 N   0  0  0  0  0  0  0  0  0  0  0  0
    0.9410    0.6540    1.1070 C   0  0  0  0  0  0  0  0  0  0  0  0
    0.6770    1.3000    2.1650 O   0  0  0  0  0  0  0  0  0  0  0  0
    2.1530    0.1080    0.9030 N   0  0  0  0  0  0  0  0  0  0  0  0
    2.1960   -0.5240   -0.2850 C   0  0  0  0  0  0  0  0  0  0  0  0
    3.1720   -1.1800   -0.8630 C   0  0  0  0  0  0  0  0  0  0  0  0
    4.4950   -1.3720   -0.3060 C   0  0  0  0  0  0  0  0  0  0  0  0
    4.9230   -0.8700    0.9620 N   0  0  0  0  0  0  0  0  0  0  0  0
    5.3290   -2.0420   -1.0120 O   0  0  0  0  0  0  0  0  0  0  0  0
    0.9120   -0.3330   -0.8140 C   0  0  0  0  0  0  0  0  0  0  0  0
    0.5390   -0.7960   -1.9670 C   0  0  0  0  0  0  0  0  0  0  0  0
  1  2  2  0
  2  3  1  0
  3  4  1  0
  5  4  1  6
  5  6  1  0
  5 10  1  0
  6  7  1  0
  7  8  1  0
  7  9  2  0
 10 11  1  0
 10 19  1  0
 11 12  2  0
 11 13  1  0
 13 14  1  0
 14 15  2  3
 14 19  1  0
 15 16  1  0
 16 17  1  0
 16 18  2  0
 19 20  2  0
M  END
