
     RDKit          3D

 20 19  0  0  0  0  0  0  0  0999 V2000
   -5.0270   -1.8550   -0.8510 C   0  0  0  0  0  0  0  0  0  0  0  0
   -3.9290   -1.0930   -0.1850 C   0  0  2  0  0  0  0  0  0  0  0  0
   -3.6100    0.1170   -1.0370 C   0  0  0  0  0  0  0  0  0  0  0  0
   -2.6760   -1.9030    0.0170 C   0  0  1  0  0  0  0  0  0  0  0  0
   -1.7040   -1.0140    0.6770 N   0  0  0  0  0  0  0  0  0  0  0  0
   -0.5160   -0.6140    0.0610 C   0  0  0  0  0  0  0  0  0  0  0  0
   -0.2820   -1.0460   -1.1190 O   0  0  0  0  0  0  0  0  0  0  0  0
    0.5130    0.2720    0.6470 C   0  0  0  0  0  0  0  0  0  0  0  0
    1.5540    0.5210   -0.1030 C   0  0  0  0  0  0  0  0  0  0  0  0
    2.7020    1.3150    0.1470 C   0  0  0  0  0  0  0  0  0  0  0  0
    3.6360    1.3990   -0.8160 C   0  0  0  0  0  0  0  0  0  0  0  0
    4.8070    2.2030   -0.5740 C   0  0  0  0  0  0  0  0  0  0  0  0
    5.7410    2.3020   -1.5060 C   0  0  0  0  0  0  0  0  0  0  0  0
    6.9140    3.0990   -1.2790 N   0  0  0  0  0  0  0  0  0  0  0  0
    0.3500    0.8040    1.9480 C   0  0  0  0  0  0  0  0  0  0  0  0
    1.2880    1.6560    2.5740 N   0  0  0  0  0  0  0  0  0  0  0  0
   -0.6730    0.5450    2.6570 O   0  0  0  0  0  0  0  0  0  0  0  0
   -2.8950   -3.1280    0.7950 C   0  0  0  0  0  0  0  0  0  0  0  0
   -3.8060   -4.1060    0.3090 N   0  0  0  0  0  0  0  0  0  0  0  0
   -2.3230   -3.3850    1.8870 O   0  0  0  0  0  0  0  0  0  0  0  0
  2  1  1  6
  2  3  1  0
  2  4  1  0
  4  5  1  1
  4 18  1  0
  5  6  1  0
  6  7  2  0
  6  8  1  0
  8  9  2  3
  8 15  1  0
  9 10  1  0
 10 11  2  3
 11 12  1  0
 12 13  2  3
 13 14  1  0
 15 16  1  0
 15 17  2  0
 18 19  1  0
 18 20  2  0
M  CHG  1  14   1
M  END
