
     RDKit          3D

 20 19  0  0  0  0  0  0  0  0999 V2000
    4.7180   -2.6850   -1.3920 C   0  0  0  0  0  0  0  0  0  0  0  0
    5.1470   -1.3220   -1.0370 C   0  0  0  0  0  0  0  0  0  0  0  0
    4.3920   -0.5790   -0.2610 C   0  0  0  0  0  0  0  0  0  0  0  0
    3.1390   -1.1080    0.2400 C   0  0  0  0  0  0  0  0  0  0  0  0
    2.3160   -0.4540    1.0300 C   0  0  0  0  0  0  0  0  0  0  0  0
    1.0950   -1.0150    1.4960 N   0  0  0  0  0  0  0  0  0  0  0  0
   -0.1470   -0.3970    1.1950 C   0  0  0  0  0  0  0  0  0  0  0  0
   -0.1350    0.6550    0.5080 O   0  0  0  0  0  0  0  0  0  0  0  0
   -1.3760   -1.0120    1.6970 C   0  0  0  0  0  0  0  0  0  0  0  0
   -2.5670   -0.2880    1.3230 N   0  0  0  0  0  0  0  0  0  0  0  0
   -2.8760   -0.1020   -0.0440 C   0  0  0  0  0  0  0  0  0  0  0  0
   -2.1420   -0.5510   -0.9730 O   0  0  0  0  0  0  0  0  0  0  0  0
   -4.0910    0.6360   -0.4310 C   0  0  2  0  0  0  0  0  0  0  0  0
   -4.7840    1.0610    0.7590 N   0  0  0  0  0  0  0  0  0  0  0  0
   -4.9350   -0.2910   -1.2790 C   0  0  0  0  0  0  0  0  0  0  0  0
   -6.2110    0.3510   -1.7390 C   0  0  0  0  0  0  0  0  0  0  0  0
    4.8190    0.7330    0.0800 N   0  0  0  0  0  0  0  0  0  0  0  0
    4.0540    1.8410   -0.3540 C   0  0  0  0  0  0  0  0  0  0  0  0
    4.4920    3.2230    0.0060 C   0  0  0  0  0  0  0  0  0  0  0  0
    3.0190    1.7350   -1.0310 O   0  0  0  0  0  0  0  0  0  0  0  0
  1  2  1  0
  2  3  2  3
  3  4  1  0
  3 17  1  0
  4  5  2  3
  5  6  1  0
  6  7  1  0
  7  8  2  0
  7  9  1  0
  9 10  1  0
 10 11  1  0
 11 12  2  0
 11 13  1  0
 13 14  1  1
 13 15  1  0
 15 16  1  0
 17 18  1  0
 18 19  1  0
 18 20  2  0
M  CHG  1  14   1
M  END
