
     RDKit          3D

 20 20  0  0  0  0  0  0  0  0999 V2000
   -0.3190   -2.8790    0.1270 C   0  0  0  0  0  0  0  0  0  0  0  0
   -0.9140   -2.4390    1.3020 O   0  0  0  0  0  0  0  0  0  0  0  0
   -0.1230   -1.3910    1.8100 C   0  0  0  0  0  0  0  0  0  0  0  0
   -0.1000   -0.3270    0.7770 C   0  0  0  0  0  0  0  0  0  0  0  0
    0.9520    0.1460    0.1740 C   0  0  0  0  0  0  0  0  0  0  0  0
    2.3370   -0.2230    0.3400 C   0  0  0  0  0  0  0  0  0  0  0  0
    2.6940   -1.1120    1.1500 O   0  0  0  0  0  0  0  0  0  0  0  0
    3.3860    0.4090   -0.4160 N   0  0  0  0  0  0  0  0  0  0  0  0
    4.7680    0.0330   -0.2440 C   0  0  0  0  0  0  0  0  0  0  0  0
    5.6400    0.8440   -1.1480 C   0  0  0  0  0  0  0  0  0  0  0  0
    7.0230    0.4850   -0.9920 N   0  0  0  0  0  0  0  0  0  0  0  0
   -1.4070    0.2770    0.3730 C   0  0  0  0  0  0  0  0  0  0  0  0
   -1.4750    1.3010   -0.6090 N   0  0  0  0  0  0  0  0  0  0  0  0
   -2.4500   -0.1640    0.9440 N   0  0  0  0  0  0  0  0  0  0  0  0
   -3.7690    0.3100    0.6670 C   0  0  0  0  0  0  0  0  0  0  0  0
   -4.2860    1.5230    1.0800 C   0  0  0  0  0  0  0  0  0  0  0  0
   -5.5930    1.6350    0.6240 C   0  0  0  0  0  0  0  0  0  0  0  0
   -5.8070    0.4540   -0.0600 C   0  0  0  0  0  0  0  0  0  0  0  0
   -7.1060    0.1240   -0.7380 C   0  0  0  0  0  0  0  0  0  0  0  0
   -4.7230   -0.2800   -0.0080 O   0  0  0  0  0  0  0  0  0  0  0  0
  1  2  1  0
  2  3  1  0
  3  4  1  0
  4  5  2  3
  4 12  1  0
  5  6  1  0
  6  7  2  0
  6  8  1  0
  8  9  1  0
  9 10  1  0
 10 11  1  0
 12 13  1  0
 12 14  2  3
 14 15  1  0
 15 16  2  0
 15 20  1  0
 16 17  1  0
 17 18  2  0
 18 19  1  0
 18 20  1  0
M  CHG  1  11   1
M  END
