
     RDKit          3D

 23 25  0  0  0  0  0  0  0  0999 V2000
    7.9080    0.2830   -0.7360 C   0  0  0  0  0  0  0  0  0  0  0  0
    6.5630   -0.1130   -1.0030 O   0  0  0  0  0  0  0  0  0  0  0  0
    5.5070    0.3160   -0.2600 C   0  0  0  0  0  0  0  0  0  0  0  0
    5.5960    1.0900    0.8640 C   0  0  0  0  0  0  0  0  0  0  0  0
    4.4760    1.4780    1.6080 C   0  0  0  0  0  0  0  0  0  0  0  0
    3.2420    1.0790    1.2150 C   0  0  0  0  0  0  0  0  0  0  0  0
    3.0640    0.2800    0.0280 C   0  0  0  0  0  0  0  0  0  0  0  0
    1.8000   -0.3770   -0.0450 C   0  0  0  0  0  0  0  0  0  0  0  0
    1.1160   -0.7350    1.0260 N   0  0  0  0  0  0  0  0  0  0  0  0
   -0.0960   -1.3590    1.0260 C   0  0  0  0  0  0  0  0  0  0  0  0
   -1.0910   -0.6270    0.1530 N   0  0  0  0  0  0  0  0  0  0  0  0
   -2.3290   -0.8390    0.6990 C   0  0  0  0  0  0  0  0  0  0  0  0
   -3.6360   -0.6300    0.1990 C   0  0  0  0  0  0  0  0  0  0  0  0
   -4.3760    0.5020    0.0020 C   0  0  0  0  0  0  0  0  0  0  0  0
   -5.7330    0.5150   -0.3060 C   0  0  0  0  0  0  0  0  0  0  0  0
   -6.5620    1.7110   -0.2910 C   0  0  0  0  0  0  0  0  0  0  0  0
   -6.3410   -0.7750   -0.4190 C   0  0  0  0  0  0  0  0  0  0  0  0
   -5.6620   -1.9390   -0.2360 C   0  0  0  0  0  0  0  0  0  0  0  0
   -4.3260   -1.9070    0.0810 C   0  0  0  0  0  0  0  0  0  0  0  0
   -3.4050   -3.3330    0.4640 Cl  0  0  0  0  0  0  0  0  0  0  0  0
   -0.4740    0.3480   -0.5190 C   0  0  0  0  0  0  0  0  0  0  0  0
    0.8570   -0.2850   -1.2350 C   0  0  0  0  0  0  0  0  0  0  0  0
    4.1870   -0.0700   -0.6660 C   0  0  0  0  0  0  0  0  0  0  0  0
  1  2  1  0
  2  3  1  0
  3  4  2  0
  3 23  1  0
  4  5  1  0
  5  6  2  0
  6  7  1  0
  7  8  1  0
  7 23  2  0
  8  9  2  0
  8 22  1  0
  9 10  1  0
 10 11  1  0
 11 12  1  0
 11 21  1  0
 12 13  1  0
 13 14  2  0
 13 19  1  0
 14 15  1  0
 15 16  1  0
 15 17  2  0
 17 18  1  0
 18 19  2  0
 19 20  1  0
 21 22  1  0
M  END
