
     RDKit          3D

 23 25  0  0  0  0  0  0  0  0999 V2000
   -4.0220    2.1220    0.7220 C   0  0  0  0  0  0  0  0  0  0  0  0
   -3.3730    1.6920   -0.6460 C   0  0  0  0  0  0  0  0  0  0  0  0
   -3.4270    0.2110   -0.5350 N   0  0  0  0  0  0  0  0  0  0  0  0
   -4.7660   -0.2970   -0.4620 C   0  0  0  0  0  0  0  0  0  0  0  0
   -4.7850   -1.4100    0.5260 C   0  0  0  0  0  0  0  0  0  0  0  0
   -3.6820   -1.9740    0.9220 C   0  0  0  0  0  0  0  0  0  0  0  0
   -2.3440   -1.5630    0.4980 C   0  0  0  0  0  0  0  0  0  0  0  0
   -2.2180   -0.4660   -0.2960 C   0  0  0  0  0  0  0  0  0  0  0  0
   -0.9450   -0.0610   -0.8450 C   0  0  0  0  0  0  0  0  0  0  0  0
   -0.7690    0.9070   -1.7190 C   0  0  0  0  0  0  0  0  0  0  0  0
    0.5100    1.3740   -2.3050 C   0  0  0  0  0  0  0  0  0  0  0  0
    1.5500    0.2670   -2.3240 C   0  0  0  0  0  0  0  0  0  0  0  0
    1.5370   -0.2550   -0.9460 N   0  0  0  0  0  0  0  0  0  0  0  0
    2.6770   -0.3160   -0.1230 C   0  0  0  0  0  0  0  0  0  0  0  0
    3.6330   -1.2730   -0.3070 C   0  0  0  0  0  0  0  0  0  0  0  0
    4.7660   -1.3440    0.5100 C   0  0  0  0  0  0  0  0  0  0  0  0
    4.9400   -0.4320    1.5360 C   0  0  0  0  0  0  0  0  0  0  0  0
    6.1450   -0.4900    2.4280 C   0  0  0  0  0  0  0  0  0  0  0  0
    3.9810    0.5290    1.7230 C   0  0  0  0  0  0  0  0  0  0  0  0
    2.8480    0.5950    0.9020 C   0  0  0  0  0  0  0  0  0  0  0  0
    1.6510    1.8200    1.1620 Cl  0  0  0  0  0  0  0  0  0  0  0  0
    0.2920   -0.7180   -0.4020 C   0  0  0  0  0  0  0  0  0  0  0  0
    0.3640   -1.6380    0.4030 O   0  0  0  0  0  0  0  0  0  0  0  0
  1  2  1  0
  2  3  1  0
  3  4  1  0
  3  8  1  0
  4  5  1  0
  5  6  2  0
  6  7  1  0
  7  8  2  0
  8  9  1  0
  9 10  2  0
  9 22  1  0
 10 11  1  0
 11 12  1  0
 12 13  1  0
 13 14  1  0
 13 22  1  0
 14 15  2  0
 14 20  1  0
 15 16  1  0
 16 17  2  0
 17 18  1  0
 17 19  1  0
 19 20  2  0
 20 21  1  0
 22 23  2  0
M  END
