
     RDKit          3D

 23 25  0  0  0  0  0  0  0  0999 V2000
    5.1910    0.4740   -1.7130 C   0  0  0  0  0  0  0  0  0  0  0  0
    4.1320    0.0450   -0.7480 C   0  0  0  0  0  0  0  0  0  0  0  0
    3.7420   -1.2650   -0.6320 C   0  0  0  0  0  0  0  0  0  0  0  0
    2.7480   -1.6560    0.2760 C   0  0  0  0  0  0  0  0  0  0  0  0
    2.1110   -0.7610    1.0960 C   0  0  0  0  0  0  0  0  0  0  0  0
    1.0750   -1.1040    2.0880 C   0  0  0  0  0  0  0  0  0  0  0  0
   -0.1630   -1.4460    1.4460 N   0  0  0  0  0  0  0  0  0  0  0  0
   -0.4780   -2.7340    1.2080 C   0  0  0  0  0  0  0  0  0  0  0  0
    0.5190   -4.0830    1.7790 Cl  0  0  0  0  0  0  0  0  0  0  0  0
   -1.6400   -3.0460    0.5490 C   0  0  0  0  0  0  0  0  0  0  0  0
   -2.5310   -2.1020    0.1050 C   0  0  0  0  0  0  0  0  0  0  0  0
   -2.2590   -0.7670    0.3250 C   0  0  0  0  0  0  0  0  0  0  0  0
   -2.9010    0.3770    0.0400 N   0  0  0  0  0  0  0  0  0  0  0  0
   -4.1850    0.4860   -0.6620 C   0  0  1  0  0  0  0  0  0  0  0  0
   -5.3110    0.8060    0.2790 C   0  0  0  0  0  0  0  0  0  0  0  0
   -4.0210    1.5370   -1.7400 C   0  0  0  0  0  0  0  0  0  0  0  0
   -2.1770    1.4060    0.5010 C   0  0  0  0  0  0  0  0  0  0  0  0
   -2.4550    2.6310    0.4220 O   0  0  0  0  0  0  0  0  0  0  0  0
   -1.0120    0.9230    1.1140 C   0  0  0  0  0  0  0  0  0  0  0  0
   -1.0100   -0.4530    1.0310 C   0  0  0  0  0  0  0  0  0  0  0  0
    2.5240    0.5780    0.9650 C   0  0  0  0  0  0  0  0  0  0  0  0
    3.4960    0.9460    0.0720 C   0  0  0  0  0  0  0  0  0  0  0  0
    3.8810    2.3790   -0.0120 C   0  0  0  0  0  0  0  0  0  0  0  0
  1  2  1  0
  2  3  2  0
  2 22  1  0
  3  4  1  0
  4  5  2  0
  5  6  1  0
  5 21  1  0
  6  7  1  0
  7  8  1  0
  7 20  1  0
  8  9  1  0
  8 10  2  0
 10 11  1  0
 11 12  2  0
 12 13  1  0
 12 20  1  0
 13 14  1  0
 13 17  1  0
 14 15  1  1
 14 16  1  0
 17 18  2  0
 17 19  1  0
 19 20  2  0
 21 22  2  0
 22 23  1  0
M  END
