
     RDKit          3D

 22 23  0  0  0  0  0  0  0  0999 V2000
   -1.0630    1.4040   -1.1740 C   0  0  0  0  0  0  0  0  0  0  0  0
   -1.7750    0.3610   -0.2980 C   0  0  2  0  0  0  0  0  0  0  0  0
   -1.3530   -1.0420   -0.3370 C   0  0  1  0  0  0  0  0  0  0  0  0
   -2.2590   -1.8520    0.6360 C   0  0  0  0  0  0  0  0  0  0  0  0
   -1.6730   -1.6030   -1.5860 O   0  0  0  0  0  0  0  0  0  0  0  0
    0.0380   -1.4130    0.0140 C   0  0  2  0  0  0  0  0  0  0  0  0
    0.0700   -2.8420    0.1470 O   0  0  0  0  0  0  0  0  0  0  0  0
    0.6480   -0.7970    1.2020 C   0  0  0  0  0  0  0  0  0  0  0  0
    1.8960   -0.0990    0.6740 C   0  0  2  0  0  0  0  0  0  0  0  0
    2.9990   -0.9170    0.8270 O   0  0  0  0  0  0  0  0  0  0  0  0
    2.1130    1.2180    1.3300 C   0  0  0  0  0  0  0  0  0  0  0  0
    3.1800    1.9400    0.8250 O   0  0  0  0  0  0  0  0  0  0  0  0
    4.5150    1.6610    0.8620 C   0  0  0  0  0  0  0  0  0  0  0  0
    4.9140    0.6160    1.4300 O   0  0  0  0  0  0  0  0  0  0  0  0
    5.4520    2.5370    0.2660 O   0  0  0  0  0  0  0  0  0  0  0  0
    1.6960    0.0300   -0.7150 O   0  0  0  0  0  0  0  0  0  0  0  0
    1.0850   -1.1470   -1.0470 C   0  0  2  0  0  0  0  0  0  0  0  0
    0.6130   -1.2420   -2.3410 O   0  0  0  0  0  0  0  0  0  0  0  0
   -3.3100    0.5460   -0.3630 C   0  0  2  0  0  0  0  0  0  0  0  0
   -3.8220    1.5120   -1.2230 O   0  0  0  0  0  0  0  0  0  0  0  0
   -2.5250    0.9660    0.8350 C   0  0  2  0  0  0  0  0  0  0  0  0
   -2.4570    2.3750    0.9740 O   0  0  0  0  0  0  0  0  0  0  0  0
  2  1  1  6
  2  3  1  0
  2 19  1  0
  2 21  1  0
  3  4  1  1
  3  5  1  0
  3  6  1  0
  6  7  1  1
  6  8  1  0
  6 17  1  0
  8  9  1  0
  9 10  1  6
  9 11  1  0
  9 16  1  0
 11 12  1  0
 12 13  1  0
 13 14  2  0
 13 15  1  0
 16 17  1  0
 17 18  1  6
 19 20  1  6
 19 21  1  0
 21 22  1  6
M  END
