
     RDKit          3D

 23 25  0  0  0  0  0  0  0  0999 V2000
   -0.6860    2.8240    1.1480 C   0  0  0  0  0  0  0  0  0  0  0  0
   -0.4940    2.0170   -0.1470 C   0  0  0  0  0  0  0  0  0  0  0  0
   -1.5660    1.0720   -0.2470 N   0  0  0  0  0  0  0  0  0  0  0  0
   -2.9350    1.4010   -0.4780 C   0  0  0  0  0  0  0  0  0  0  0  0
   -3.6730    0.1310   -0.5400 C   0  0  0  0  0  0  0  0  0  0  0  0
   -5.0380   -0.0410   -0.7690 C   0  0  0  0  0  0  0  0  0  0  0  0
   -5.5180   -1.3250   -0.7740 C   0  0  0  0  0  0  0  0  0  0  0  0
   -4.7010   -2.4040   -0.5640 C   0  0  0  0  0  0  0  0  0  0  0  0
   -3.3480   -2.1960   -0.3390 C   0  0  0  0  0  0  0  0  0  0  0  0
   -2.8130   -0.9170   -0.3240 C   0  0  0  0  0  0  0  0  0  0  0  0
   -1.4790   -0.3720   -0.1350 C   0  0  0  0  0  0  0  0  0  0  0  0
   -0.3510   -0.9660    0.0990 C   0  0  0  0  0  0  0  0  0  0  0  0
   -0.1000   -2.3700    0.2380 C   0  0  0  0  0  0  0  0  0  0  0  0
    1.1440   -2.7720    0.4780 N   0  0  0  0  0  0  0  0  0  0  0  0
    2.1320   -1.7700    0.5780 C   0  0  0  0  0  0  0  0  0  0  0  0
    2.9410   -1.5200   -0.5210 C   0  0  0  0  0  0  0  0  0  0  0  0
    3.9100   -0.5500   -0.4420 C   0  0  0  0  0  0  0  0  0  0  0  0
    4.1160    0.1980    0.7010 C   0  0  0  0  0  0  0  0  0  0  0  0
    5.1110    1.1870    0.7670 O   0  0  0  0  0  0  0  0  0  0  0  0
    5.9020    1.3810   -0.4060 C   0  0  0  0  0  0  0  0  0  0  0  0
    3.3010   -0.0660    1.7840 C   0  0  0  0  0  0  0  0  0  0  0  0
    3.4950    0.8520    3.2880 Cl  0  0  0  0  0  0  0  0  0  0  0  0
    2.3190   -1.0290    1.7460 C   0  0  0  0  0  0  0  0  0  0  0  0
  1  2  1  0
  2  3  1  0
  3  4  1  0
  3 11  1  0
  4  5  1  0
  5  6  2  0
  5 10  1  0
  6  7  1  0
  7  8  2  0
  8  9  1  0
  9 10  2  0
 10 11  1  0
 11 12  2  3
 12 13  1  0
 13 14  2  3
 14 15  1  0
 15 16  2  0
 15 23  1  0
 16 17  1  0
 17 18  2  0
 18 19  1  0
 18 21  1  0
 19 20  1  0
 21 22  1  0
 21 23  2  0
M  END
