
     RDKit          3D

 22 22  0  0  0  0  0  0  0  0999 V2000
    0.0390    3.1480   -0.8100 O   0  0  0  0  0  0  0  0  0  0  0  0
   -0.2930    1.9730   -1.1260 C   0  0  0  0  0  0  0  0  0  0  0  0
    0.6820    1.2710   -1.9990 C   0  0  0  0  0  0  0  0  0  0  0  0
    1.8660    0.9370   -1.4110 O   0  0  0  0  0  0  0  0  0  0  0  0
    1.9930    1.1690   -0.0730 C   0  0  2  0  0  0  0  0  0  0  0  0
    2.5880    2.4330    0.0730 O   0  0  0  0  0  0  0  0  0  0  0  0
    2.7870    0.1070    0.6560 C   0  0  2  0  0  0  0  0  0  0  0  0
    3.5360    0.8110    1.6330 O   0  0  0  0  0  0  0  0  0  0  0  0
    3.8070   -0.5490   -0.2350 C   0  0  0  0  0  0  0  0  0  0  0  0
    3.2890   -1.2930   -1.2630 O   0  0  0  0  0  0  0  0  0  0  0  0
    1.8990   -0.8240    1.4010 C   0  0  0  0  0  0  0  0  0  0  0  0
    1.6100   -2.0200    0.8240 O   0  0  0  0  0  0  0  0  0  0  0  0
    0.4850   -2.0890    0.0380 C   0  0  0  0  0  0  0  0  0  0  0  0
   -0.8160   -1.8640    0.7000 C   0  0  2  0  0  0  0  0  0  0  0  0
   -1.4340   -3.1010    1.0020 O   0  0  0  0  0  0  0  0  0  0  0  0
   -1.6930   -1.0530   -0.2600 C   0  0  0  0  0  0  0  0  0  0  0  0
   -1.7620    0.3980    0.1910 C   0  0  2  0  0  0  0  0  0  0  0  0
   -3.2550    0.6410    0.5110 C   0  0  1  0  0  0  0  0  0  0  0  0
   -3.4270    1.9270    1.0160 O   0  0  0  0  0  0  0  0  0  0  0  0
   -4.1010    0.5250   -0.7210 C   0  0  0  0  0  0  0  0  0  0  0  0
   -5.4240    0.7550   -0.3190 O   0  0  0  0  0  0  0  0  0  0  0  0
   -1.4230    1.3330   -0.7470 O   0  0  0  0  0  0  0  0  0  0  0  0
  1  2  2  0
  2  3  1  0
  2 22  1  0
  3  4  1  0
  4  5  1  0
  5  6  1  6
  5  7  1  0
  7  8  1  1
  7  9  1  0
  7 11  1  0
  9 10  1  0
 11 12  1  0
 12 13  1  0
 13 14  1  0
 14 15  1  6
 14 16  1  0
 17 16  1  6
 17 18  1  0
 17 22  1  0
 18 19  1  6
 18 20  1  0
 20 21  1  0
M  END
