
     RDKit          3D

 35 38  0  0  0  0  0  0  0  0999 V2000
    8.8890    0.7550    1.7840 C   0  0  0  0  0  0  0  0  0  0  0  0
    7.5570   -0.0150    1.8740 C   0  0  0  0  0  0  0  0  0  0  0  0
    6.4480    0.9400    1.7140 C   0  0  0  0  0  0  0  0  0  0  0  0
    5.5950    1.0650    0.7470 C   0  0  0  0  0  0  0  0  0  0  0  0
    5.5360    0.2600   -0.4480 C   0  0  0  0  0  0  0  0  0  0  0  0
    6.3210   -0.8440   -0.6100 N   0  0  0  0  0  0  0  0  0  0  0  0
    6.3260   -1.5820   -1.7350 C   0  0  0  0  0  0  0  0  0  0  0  0
    7.2000   -2.7910   -1.8570 C   0  0  0  0  0  0  0  0  0  0  0  0
    5.4970   -1.2080   -2.7780 C   0  0  0  0  0  0  0  0  0  0  0  0
    4.7070   -0.1100   -2.6280 C   0  0  0  0  0  0  0  0  0  0  0  0
    4.6920    0.6530   -1.4840 C   0  0  0  0  0  0  0  0  0  0  0  0
    3.7950    1.8250   -1.3780 C   0  0  0  0  0  0  0  0  0  0  0  0
    2.5050    1.5370   -0.7290 C   0  0  0  0  0  0  0  0  0  0  0  0
    1.5290    2.1920   -1.1670 O   0  0  0  0  0  0  0  0  0  0  0  0
    2.2890    0.5550    0.3610 C   0  0  0  0  0  0  0  0  0  0  0  0
    1.0010   -0.0890    0.2410 N   0  0  0  0  0  0  0  0  0  0  0  0
   -0.2480    0.5620    0.2810 C   0  0  0  0  0  0  0  0  0  0  0  0
   -0.3430    1.7970    0.4680 O   0  0  0  0  0  0  0  0  0  0  0  0
   -1.4830   -0.1850    0.1010 N   0  0  0  0  0  0  0  0  0  0  0  0
   -2.7580    0.5290    0.1100 C   0  0  0  0  0  0  0  0  0  0  0  0
   -3.8340   -0.4110   -0.1370 C   0  0  0  0  0  0  0  0  0  0  0  0
   -3.6820   -1.7280   -0.5620 C   0  0  0  0  0  0  0  0  0  0  0  0
   -4.7710   -2.5750   -0.8120 C   0  0  0  0  0  0  0  0  0  0  0  0
   -4.4760   -3.9760   -1.2630 C   0  0  0  0  0  0  0  0  0  0  0  0
   -6.0440   -2.1190   -0.6400 C   0  0  0  0  0  0  0  0  0  0  0  0
   -6.2540   -0.8680   -0.2350 C   0  0  0  0  0  0  0  0  0  0  0  0
   -5.1440   -0.0250    0.0100 C   0  0  0  0  0  0  0  0  0  0  0  0
   -5.2700    1.3640    0.4500 C   0  0  0  0  0  0  0  0  0  0  0  0
   -4.4560    2.3510    0.0010 C   0  0  0  0  0  0  0  0  0  0  0  0
   -4.9080    3.5010    0.6680 C   0  0  0  0  0  0  0  0  0  0  0  0
   -5.9380    3.1690    1.4570 N   0  0  0  0  0  0  0  0  0  0  0  0
   -6.2100    1.8510    1.3600 C   0  0  0  0  0  0  0  0  0  0  0  0
   -7.2850    1.1280    2.0460 C   0  0  0  0  0  0  0  0  0  0  0  0
   -7.6920   -0.2000    1.5560 C   0  0  0  0  0  0  0  0  0  0  0  0
   -7.6790   -0.4500    0.0550 C   0  0  0  0  0  0  0  0  0  0  0  0
  1  2  1  0
  2  3  1  0
  3  4  2  3
  4  5  1  0
  5  6  2  0
  5 11  1  0
  6  7  1  0
  7  8  1  0
  7  9  2  0
  9 10  1  0
 10 11  2  0
 11 12  1  0
 12 13  1  0
 13 14  2  0
 13 15  1  0
 15 16  1  0
 16 17  1  0
 17 18  2  0
 17 19  1  0
 19 20  1  0
 20 21  1  0
 21 22  2  0
 21 27  1  0
 22 23  1  0
 23 24  1  0
 23 25  2  0
 25 26  1  0
 26 27  2  0
 26 35  1  0
 27 28  1  0
 28 29  1  0
 28 32  2  0
 29 30  2  0
 30 31  1  0
 31 32  1  0
 32 33  1  0
 33 34  1  0
 34 35  1  0
M  END
