
     RDKit          3D

 35 38  0  0  0  0  0  0  0  0999 V2000
    6.5490    1.1740    2.3980 C   0  0  0  0  0  0  0  0  0  0  0  0
    6.5860    1.4710    1.1200 C   0  0  0  0  0  0  0  0  0  0  0  0
    5.6820    0.8060    0.1610 C   0  0  0  0  0  0  0  0  0  0  0  0
    5.7710    1.1500   -1.1050 C   0  0  0  0  0  0  0  0  0  0  0  0
    6.7380    2.1660   -1.5750 C   0  0  0  0  0  0  0  0  0  0  0  0
    4.7530   -0.1680    0.5930 N   0  0  0  0  0  0  0  0  0  0  0  0
    3.4300    0.1180    1.1170 C   0  0  1  0  0  0  0  0  0  0  0  0
    2.5500    0.8380    0.1610 C   0  0  0  0  0  0  0  0  0  0  0  0
    1.5420   -0.0390   -0.5560 C   0  0  0  0  0  0  0  0  0  0  0  0
    0.7650   -0.8180    0.3900 N   0  0  0  0  0  0  0  0  0  0  0  0
   -0.4220   -1.4670   -0.0520 C   0  0  0  0  0  0  0  0  0  0  0  0
   -1.6350   -0.6210   -0.1410 C   0  0  0  0  0  0  0  0  0  0  0  0
   -2.7000   -1.0860   -0.6070 O   0  0  0  0  0  0  0  0  0  0  0  0
   -1.6250    0.7230    0.2940 N   0  0  0  0  0  0  0  0  0  0  0  0
   -2.7280    1.6100    0.2500 C   0  0  0  0  0  0  0  0  0  0  0  0
   -3.9760    1.3650   -0.1980 C   0  0  0  0  0  0  0  0  0  0  0  0
   -4.9500    2.3610   -0.1680 C   0  0  0  0  0  0  0  0  0  0  0  0
   -6.2190    2.0490   -0.6430 C   0  0  0  0  0  0  0  0  0  0  0  0
   -7.1880    3.0050   -0.6230 C   0  0  0  0  0  0  0  0  0  0  0  0
   -6.8800    4.2660   -0.1280 C   0  0  0  0  0  0  0  0  0  0  0  0
   -5.6320    4.5810    0.3410 C   0  0  0  0  0  0  0  0  0  0  0  0
   -4.6530    3.5940    0.3150 C   0  0  0  0  0  0  0  0  0  0  0  0
   -3.4360    3.8640    0.7610 N   0  0  0  0  0  0  0  0  0  0  0  0
   -2.5030    2.9130    0.7340 C   0  0  0  0  0  0  0  0  0  0  0  0
   -1.3660    3.2170    1.1690 O   0  0  0  0  0  0  0  0  0  0  0  0
   -0.4200   -2.7280   -0.4310 C   0  0  0  0  0  0  0  0  0  0  0  0
    0.8700   -3.5120   -0.4080 C   0  0  0  0  0  0  0  0  0  0  0  0
   -1.6010   -3.4880   -0.8100 C   0  0  0  0  0  0  0  0  0  0  0  0
   -1.6790   -4.1220   -2.0450 C   0  0  0  0  0  0  0  0  0  0  0  0
   -2.7810   -4.8730   -2.3530 C   0  0  0  0  0  0  0  0  0  0  0  0
   -3.8480   -5.0460   -1.4920 C   0  0  0  0  0  0  0  0  0  0  0  0
   -3.7710   -4.4190   -0.2680 C   0  0  0  0  0  0  0  0  0  0  0  0
   -2.6720   -3.6590    0.0620 C   0  0  0  0  0  0  0  0  0  0  0  0
    1.2820   -0.8660    1.7390 C   0  0  0  0  0  0  0  0  0  0  0  0
    2.7630   -1.1280    1.6380 C   0  0  0  0  0  0  0  0  0  0  0  0
  1  2  2  0
  2  3  1  0
  3  4  2  3
  3  6  1  0
  4  5  1  0
  7  6  1  6
  7  8  1  0
  7 35  1  0
  8  9  1  0
  9 10  1  0
 10 11  1  0
 10 34  1  0
 11 12  1  0
 11 26  2  3
 12 13  2  0
 12 14  1  0
 14 15  1  0
 15 16  2  0
 15 24  1  0
 16 17  1  0
 17 18  2  0
 17 22  1  0
 18 19  1  0
 19 20  2  0
 20 21  1  0
 21 22  2  0
 22 23  1  0
 23 24  1  0
 24 25  2  0
 26 27  1  0
 26 28  1  0
 28 29  2  0
 28 33  1  0
 29 30  1  0
 30 31  2  0
 31 32  1  0
 32 33  2  0
 34 35  1  0
M  END
