
     RDKit          3D

 34 37  0  0  0  0  0  0  0  0999 V2000
    4.3050   -2.8540    1.6610 C   0  0  0  0  0  0  0  0  0  0  0  0
    2.9280   -2.4830    2.1270 C   0  0  0  0  0  0  0  0  0  0  0  0
    2.2970   -1.3920    1.8510 C   0  0  0  0  0  0  0  0  0  0  0  0
    2.8760   -0.3440    0.9990 C   0  0  0  0  0  0  0  0  0  0  0  0
    3.3640   -0.7730   -0.3210 C   0  0  0  0  0  0  0  0  0  0  0  0
    3.2150   -1.9510   -0.7100 O   0  0  0  0  0  0  0  0  0  0  0  0
    4.0080    0.1570   -1.1540 N   0  0  0  0  0  0  0  0  0  0  0  0
    4.1110    1.5320   -0.7490 C   0  0  0  0  0  0  0  0  0  0  0  0
    5.4450    2.0830   -1.1190 C   0  0  0  0  0  0  0  0  0  0  0  0
    5.9600    1.7630   -2.2990 C   0  0  0  0  0  0  0  0  0  0  0  0
    5.1920    0.8750   -3.1970 C   0  0  0  0  0  0  0  0  0  0  0  0
    4.5940   -0.2750   -2.4000 C   0  0  0  0  0  0  0  0  0  0  0  0
    0.9490   -1.1210    2.4100 C   0  0  1  0  0  0  0  0  0  0  0  0
    1.1870    0.3300    3.4820 Cl  0  0  0  0  0  0  0  0  0  0  0  0
    0.0870   -0.7430    1.3000 N   0  0  0  0  0  0  0  0  0  0  0  0
   -1.2500   -0.2990    1.6080 C   0  0  0  0  0  0  0  0  0  0  0  0
   -1.5490   -0.2760    2.8120 O   0  0  0  0  0  0  0  0  0  0  0  0
   -2.1020    0.0710    0.5420 N   0  0  0  0  0  0  0  0  0  0  0  0
   -3.3960    0.5530    0.7520 C   0  0  0  0  0  0  0  0  0  0  0  0
   -3.8300    0.9360    1.9920 C   0  0  0  0  0  0  0  0  0  0  0  0
   -5.1070    1.4750    2.1990 C   0  0  0  0  0  0  0  0  0  0  0  0
   -5.5240    1.8340    3.3240 O   0  0  0  0  0  0  0  0  0  0  0  0
   -5.8940    1.6040    1.1380 N   0  0  0  0  0  0  0  0  0  0  0  0
   -5.5170    1.2430   -0.1110 C   0  0  0  0  0  0  0  0  0  0  0  0
   -6.3760    1.3980   -1.1730 C   0  0  0  0  0  0  0  0  0  0  0  0
   -6.0070    1.0300   -2.4720 C   0  0  0  0  0  0  0  0  0  0  0  0
   -6.9660    1.2180   -3.5870 C   0  0  0  0  0  0  0  0  0  0  0  0
   -4.7550    0.5010   -2.6720 C   0  0  0  0  0  0  0  0  0  0  0  0
   -4.2570    0.0330   -4.2910 Cl  0  0  0  0  0  0  0  0  0  0  0  0
   -3.8810    0.3380   -1.6190 C   0  0  0  0  0  0  0  0  0  0  0  0
   -4.2530    0.7060   -0.3380 C   0  0  0  0  0  0  0  0  0  0  0  0
    0.4020   -2.2100    3.2360 C   0  0  0  0  0  0  0  0  0  0  0  0
    1.0790   -3.3090    3.4770 C   0  0  0  0  0  0  0  0  0  0  0  0
    2.3420   -3.4870    2.9520 O   0  0  0  0  0  0  0  0  0  0  0  0
  1  2  1  0
  2  3  2  0
  2 34  1  0
  3  4  1  0
  3 13  1  0
  4  5  1  0
  5  6  2  0
  5  7  1  0
  7  8  1  0
  7 12  1  0
  8  9  1  0
  9 10  2  0
 10 11  1  0
 11 12  1  0
 13 14  1  1
 13 15  1  0
 13 32  1  0
 15 16  1  0
 16 17  2  0
 16 18  1  0
 18 19  1  0
 19 20  2  0
 19 31  1  0
 20 21  1  0
 21 22  2  0
 21 23  1  0
 23 24  1  0
 24 25  2  0
 24 31  1  0
 25 26  1  0
 26 27  1  0
 26 28  2  0
 28 29  1  0
 28 30  1  0
 30 31  2  0
 32 33  2  0
 33 34  1  0
M  END
