
     RDKit          3D

 34 37  0  0  0  0  0  0  0  0999 V2000
    3.9900    1.8850    2.3840 C   0  0  0  0  0  0  0  0  0  0  0  0
    2.7460    1.6340    1.6140 C   0  0  0  0  0  0  0  0  0  0  0  0
    1.7350    2.5390    1.7320 C   0  0  0  0  0  0  0  0  0  0  0  0
    0.5390    2.3540    1.0300 C   0  0  0  0  0  0  0  0  0  0  0  0
   -0.5060    3.2830    1.1480 N   0  0  0  0  0  0  0  0  0  0  0  0
    0.3540    1.2650    0.2100 C   0  0  0  0  0  0  0  0  0  0  0  0
   -0.9030    1.1130   -0.5000 C   0  0  0  0  0  0  0  0  0  0  0  0
   -1.8140    1.9670   -0.3670 O   0  0  0  0  0  0  0  0  0  0  0  0
   -1.1710    0.0470   -1.3450 O   0  0  0  0  0  0  0  0  0  0  0  0
   -2.3710   -0.1280   -2.0420 C   0  0  0  0  0  0  0  0  0  0  0  0
   -3.4780   -0.2240   -1.0630 C   0  0  0  0  0  0  0  0  0  0  0  0
   -3.3190   -0.1510    0.2650 N   0  0  0  0  0  0  0  0  0  0  0  0
   -4.3290   -0.2400    1.1150 N   0  0  0  0  0  0  0  0  0  0  0  0
   -4.1130   -0.1560    2.5650 C   0  0  0  0  0  0  0  0  0  0  0  0
   -5.5710   -0.4120    0.6280 C   0  0  0  0  0  0  0  0  0  0  0  0
   -6.5570   -0.5010    1.4010 O   0  0  0  0  0  0  0  0  0  0  0  0
   -5.8360   -0.4980   -0.7300 C   0  0  0  0  0  0  0  0  0  0  0  0
   -7.0860   -0.6720   -1.2470 C   0  0  0  0  0  0  0  0  0  0  0  0
   -7.2930   -0.7520   -2.6150 C   0  0  0  0  0  0  0  0  0  0  0  0
   -8.8910   -0.9740   -3.2910 Cl  0  0  0  0  0  0  0  0  0  0  0  0
   -6.2210   -0.6550   -3.4800 C   0  0  0  0  0  0  0  0  0  0  0  0
   -4.9690   -0.4810   -2.9440 C   0  0  0  0  0  0  0  0  0  0  0  0
   -4.7520   -0.4000   -1.5760 C   0  0  0  0  0  0  0  0  0  0  0  0
    1.4000    0.3710    0.1150 C   0  0  0  0  0  0  0  0  0  0  0  0
    1.2300   -0.7510   -0.7190 N   0  0  0  0  0  0  0  0  0  0  0  0
    2.5820    0.5370    0.7990 C   0  0  0  0  0  0  0  0  0  0  0  0
    3.6230   -0.3670    0.6960 O   0  0  0  0  0  0  0  0  0  0  0  0
    4.5800   -0.1420   -0.3200 C   0  0  0  0  0  0  0  0  0  0  0  0
    5.6400   -1.1810   -0.3200 C   0  0  0  0  0  0  0  0  0  0  0  0
    5.7250   -2.2040    0.5000 C   0  0  0  0  0  0  0  0  0  0  0  0
    6.9350   -2.9630    0.1260 C   0  0  0  0  0  0  0  0  0  0  0  0
    7.5050   -2.2070   -1.0210 C   0  0  0  0  0  0  0  0  0  0  0  0
    6.7460   -1.1750   -1.2720 C   0  0  0  0  0  0  0  0  0  0  0  0
    7.0360    0.0080   -2.5530 Cl  0  0  0  0  0  0  0  0  0  0  0  0
  1  2  1  0
  2  3  2  0
  2 26  1  0
  3  4  1  0
  4  5  1  0
  4  6  2  0
  6  7  1  0
  6 24  1  0
  7  8  2  0
  7  9  1  0
  9 10  1  0
 10 11  1  0
 11 12  2  0
 11 23  1  0
 12 13  1  0
 13 14  1  0
 13 15  1  0
 15 16  2  0
 15 17  1  0
 17 18  2  0
 17 23  1  0
 18 19  1  0
 19 20  1  0
 19 21  2  0
 21 22  1  0
 22 23  2  0
 24 25  1  0
 24 26  2  0
 26 27  1  0
 27 28  1  0
 28 29  1  0
 29 30  2  0
 29 33  1  0
 30 31  1  0
 31 32  1  0
 32 33  2  0
 33 34  1  0
M  END
