
     RDKit          3D

 35 38  0  0  0  0  0  0  0  0999 V2000
   -8.4610   -1.3860    1.9390 C   0  0  0  0  0  0  0  0  0  0  0  0
   -8.8250   -0.0950    1.7310 C   0  0  0  0  0  0  0  0  0  0  0  0
   -8.2600    0.8200    0.7870 C   0  0  0  0  0  0  0  0  0  0  0  0
   -7.2520    0.2680   -0.1070 N   0  0  0  0  0  0  0  0  0  0  0  0
   -7.5560   -0.2320   -1.3500 N   0  0  0  0  0  0  0  0  0  0  0  0
   -6.4810   -0.6040   -2.0050 C   0  0  0  0  0  0  0  0  0  0  0  0
   -6.6490   -1.1670   -3.3650 C   0  0  0  0  0  0  0  0  0  0  0  0
   -5.3010   -0.3790   -1.2300 C   0  0  0  0  0  0  0  0  0  0  0  0
   -4.0240   -0.4810   -1.4110 C   0  0  0  0  0  0  0  0  0  0  0  0
   -3.1810   -0.8740   -2.5040 C   0  0  0  0  0  0  0  0  0  0  0  0
   -1.8340   -0.8520   -2.3960 C   0  0  0  0  0  0  0  0  0  0  0  0
   -1.0060   -0.4980   -1.3010 N   0  0  0  0  0  0  0  0  0  0  0  0
    0.0510    0.4940   -1.6500 C   0  0  0  0  0  0  0  0  0  0  0  0
    1.3380   -0.3170   -1.5400 C   0  0  0  0  0  0  0  0  0  0  0  0
    1.5580   -0.6660   -0.1250 C   0  0  1  0  0  0  0  0  0  0  0  0
    2.7540   -0.1820    0.5490 C   0  0  0  0  0  0  0  0  0  0  0  0
    3.5950    0.7670    0.3310 C   0  0  0  0  0  0  0  0  0  0  0  0
    3.4540    1.6730   -0.8330 C   0  0  0  0  0  0  0  0  0  0  0  0
    4.7320    1.0070    1.2100 C   0  0  0  0  0  0  0  0  0  0  0  0
    5.7450    1.9070    0.8220 C   0  0  0  0  0  0  0  0  0  0  0  0
    6.7940    2.1500    1.6630 C   0  0  0  0  0  0  0  0  0  0  0  0
    6.8680    1.5130    2.9090 C   0  0  0  0  0  0  0  0  0  0  0  0
    8.0220    1.7950    3.7900 C   0  0  0  0  0  0  0  0  0  0  0  0
    8.9980    0.6340    3.6640 C   0  0  0  0  0  0  0  0  0  0  0  0
    9.3670    0.6320    2.2980 O   0  0  0  0  0  0  0  0  0  0  0  0
    5.8810    0.6380    3.2880 C   0  0  0  0  0  0  0  0  0  0  0  0
    5.8890   -0.0050    4.5490 N   0  0  0  0  0  0  0  0  0  0  0  0
    4.8110    0.3910    2.4240 C   0  0  0  0  0  0  0  0  0  0  0  0
    0.3430   -0.5570    0.7150 C   0  0  0  0  0  0  0  0  0  0  0  0
   -0.9600   -0.9380    0.0320 C   0  0  0  0  0  0  0  0  0  0  0  0
   -1.2930   -1.0810   -3.7870 C   0  0  0  0  0  0  0  0  0  0  0  0
   -2.3050   -1.8750   -4.5110 C   0  0  0  0  0  0  0  0  0  0  0  0
   -3.5810   -1.4510   -3.8170 C   0  0  0  0  0  0  0  0  0  0  0  0
   -5.8710    0.2150    0.0650 C   0  0  0  0  0  0  0  0  0  0  0  0
   -5.1960    0.5590    1.0300 O   0  0  0  0  0  0  0  0  0  0  0  0
  1  2  2  0
  2  3  1  0
  3  4  1  0
  4  5  1  0
  4 34  1  0
  5  6  2  0
  6  7  1  0
  6  8  1  0
  8  9  2  3
  8 34  1  0
  9 10  1  0
 10 11  2  0
 10 33  1  0
 11 12  1  0
 11 31  1  0
 12 13  1  0
 12 30  1  0
 13 14  1  0
 14 15  1  0
 15 16  1  1
 15 29  1  0
 16 17  2  3
 17 18  1  0
 17 19  1  0
 19 20  2  0
 19 28  1  0
 20 21  1  0
 21 22  2  0
 22 23  1  0
 22 26  1  0
 23 24  1  0
 24 25  1  0
 26 27  1  0
 26 28  2  0
 29 30  1  0
 31 32  1  0
 32 33  1  0
 34 35  2  0
M  END
