
     RDKit          3D

 35 38  0  0  0  0  0  0  0  0999 V2000
    2.5270    5.5600    3.4470 C   0  0  0  0  0  0  0  0  0  0  0  0
    2.0390    5.3200    2.0590 C   0  0  0  0  0  0  0  0  0  0  0  0
    2.5090    6.1360    1.0560 C   0  0  0  0  0  0  0  0  0  0  0  0
    2.0620    5.9220   -0.2210 C   0  0  0  0  0  0  0  0  0  0  0  0
    1.1600    4.9110   -0.4960 C   0  0  0  0  0  0  0  0  0  0  0  0
    0.6730    4.0810    0.4790 C   0  0  0  0  0  0  0  0  0  0  0  0
   -0.2480    2.9910    0.2690 C   0  0  0  0  0  0  0  0  0  0  0  0
   -0.1550    2.0500   -0.6290 C   0  0  0  0  0  0  0  0  0  0  0  0
   -1.2260    1.0270   -0.6680 C   0  0  0  0  0  0  0  0  0  0  0  0
   -1.2330    0.0490   -1.5400 C   0  0  0  0  0  0  0  0  0  0  0  0
   -2.2980   -0.9280   -1.5400 C   0  0  0  0  0  0  0  0  0  0  0  0
   -2.2270   -1.8540   -2.4290 O   0  0  0  0  0  0  0  0  0  0  0  0
   -3.3880   -0.9160   -0.6330 N   0  0  0  0  0  0  0  0  0  0  0  0
   -4.3710   -1.9770   -0.7770 C   0  0  0  0  0  0  0  0  0  0  0  0
   -5.4840   -1.8790    0.2250 C   0  0  1  0  0  0  0  0  0  0  0  0
   -4.8590   -1.9690    1.6220 C   0  0  0  0  0  0  0  0  0  0  0  0
   -6.2620   -0.6140    0.1420 C   0  0  0  0  0  0  0  0  0  0  0  0
   -6.4250   -3.0520    0.0670 C   0  0  0  0  0  0  0  0  0  0  0  0
    0.9620    1.9080   -1.5610 C   0  0  2  0  0  0  0  0  0  0  0  0
    0.5010    2.0060   -2.8590 O   0  0  0  0  0  0  0  0  0  0  0  0
    1.6800    0.6170   -1.2880 C   0  0  0  0  0  0  0  0  0  0  0  0
    1.4090   -0.0750   -0.2560 N   0  0  0  0  0  0  0  0  0  0  0  0
    2.0820   -1.3160    0.0320 C   0  0  0  0  0  0  0  0  0  0  0  0
    1.7900   -2.0720    1.1490 C   0  0  0  0  0  0  0  0  0  0  0  0
    2.4540   -3.2600    1.3980 C   0  0  0  0  0  0  0  0  0  0  0  0
    2.0740   -4.0130    2.6260 C   0  0  0  0  0  0  0  0  0  0  0  0
    3.4290   -3.7470    0.5580 C   0  0  0  0  0  0  0  0  0  0  0  0
    3.7370   -2.9990   -0.5730 C   0  0  0  0  0  0  0  0  0  0  0  0
    3.0640   -1.8200   -0.8010 C   0  0  0  0  0  0  0  0  0  0  0  0
    3.3960   -1.0410   -1.9940 C   0  0  0  0  0  0  0  0  0  0  0  0
    4.2890   -1.4730   -2.7750 N   0  0  0  0  0  0  0  0  0  0  0  0
    5.0670   -2.6750   -2.6640 C   0  0  0  0  0  0  0  0  0  0  0  0
    4.7770   -3.5250   -1.4700 C   0  0  0  0  0  0  0  0  0  0  0  0
    2.6740    0.1780   -2.1970 N   0  0  0  0  0  0  0  0  0  0  0  0
    1.1350    4.3100    1.7700 C   0  0  0  0  0  0  0  0  0  0  0  0
  1  2  1  0
  2  3  2  0
  2 35  1  0
  3  4  1  0
  4  5  2  0
  5  6  1  0
  6  7  1  0
  6 35  2  0
  7  8  2  3
  8  9  1  0
  8 19  1  0
  9 10  2  3
 10 11  1  0
 11 12  2  0
 11 13  1  0
 13 14  1  0
 14 15  1  0
 15 16  1  1
 15 17  1  0
 15 18  1  0
 19 20  1  6
 19 21  1  0
 21 22  2  0
 21 34  1  0
 22 23  1  0
 23 24  2  0
 23 29  1  0
 24 25  1  0
 25 26  1  0
 25 27  2  0
 27 28  1  0
 28 29  2  0
 28 33  1  0
 29 30  1  0
 30 31  2  0
 30 34  1  0
 31 32  1  0
 32 33  1  0
M  END
