
     RDKit          3D

 25 26  0  0  0  0  0  0  0  0999 V2000
    5.3220    1.2450    2.4180 C   0  0  0  0  0  0  0  0  0  0  0  0
    6.0590    0.3850    1.4340 C   0  0  0  0  0  0  0  0  0  0  0  0
    5.2210   -0.6540    0.9700 O   0  0  0  0  0  0  0  0  0  0  0  0
    4.0510   -0.3080    0.3190 C   0  0  0  0  0  0  0  0  0  0  0  0
    3.7860    0.9050    0.1710 O   0  0  0  0  0  0  0  0  0  0  0  0
    3.1190   -1.3270   -0.1970 C   0  0  0  0  0  0  0  0  0  0  0  0
    1.9960   -0.6550   -0.8220 N   0  0  0  0  0  0  0  0  0  0  0  0
    0.9190   -1.3440   -1.4190 C   0  0  0  0  0  0  0  0  0  0  0  0
    1.0020   -2.6170   -1.3750 O   0  0  0  0  0  0  0  0  0  0  0  0
   -0.1890   -0.7420   -2.0330 N   0  0  0  0  0  0  0  0  0  0  0  0
   -0.3370    0.6910   -2.0820 C   0  0  0  0  0  0  0  0  0  0  0  0
   -1.1380    1.2730   -1.0000 C   0  0  0  0  0  0  0  0  0  0  0  0
   -0.6230    1.7450    0.1840 C   0  0  0  0  0  0  0  0  0  0  0  0
   -1.4270    2.2860    1.1720 C   0  0  0  0  0  0  0  0  0  0  0  0
   -2.7890    2.3790    1.0180 C   0  0  0  0  0  0  0  0  0  0  0  0
   -3.6370    2.9330    2.0240 N   0  0  0  0  0  0  0  0  0  0  0  0
   -3.3290    1.9110   -0.1610 C   0  0  0  0  0  0  0  0  0  0  0  0
   -2.5260    1.3720   -1.1450 C   0  0  0  0  0  0  0  0  0  0  0  0
   -1.1960   -1.5610   -2.6330 C   0  0  0  0  0  0  0  0  0  0  0  0
   -2.2780   -1.9840   -1.7280 C   0  0  0  0  0  0  0  0  0  0  0  0
   -3.3420   -2.6770   -2.1780 N   0  0  0  0  0  0  0  0  0  0  0  0
   -4.1370   -2.9230   -1.1800 N   0  0  0  0  0  0  0  0  0  0  0  0
   -3.6270   -2.4100   -0.0750 N   0  0  0  0  0  0  0  0  0  0  0  0
   -4.2150   -2.4720    1.2510 C   0  0  0  0  0  0  0  0  0  0  0  0
   -2.4790   -1.8300   -0.4140 N   0  0  0  0  0  0  0  0  0  0  0  0
  1  2  1  0
  2  3  1  0
  3  4  1  0
  4  5  2  0
  4  6  1  0
  6  7  1  0
  7  8  1  0
  8  9  2  0
  8 10  1  0
 10 11  1  0
 10 19  1  0
 11 12  1  0
 12 13  2  0
 12 18  1  0
 13 14  1  0
 14 15  2  0
 15 16  1  0
 15 17  1  0
 17 18  2  0
 19 20  1  0
 20 21  1  0
 20 25  2  0
 21 22  2  0
 22 23  1  0
 23 24  1  0
 23 25  1  0
M  END
