
     RDKit          3D

 23 24  0  0  0  0  0  0  0  0999 V2000
   -6.9630   -1.3400   -0.2580 N   0  0  0  0  0  0  0  0  0  0  0  0
   -5.9200   -0.3370   -0.2290 C   0  0  0  0  0  0  0  0  0  0  0  0
   -4.6070   -0.9510   -0.6430 C   0  0  0  0  0  0  0  0  0  0  0  0
   -3.5420   -0.0490   -0.6420 O   0  0  0  0  0  0  0  0  0  0  0  0
   -3.0770    0.6560    0.4310 C   0  0  0  0  0  0  0  0  0  0  0  0
   -3.6340    0.5040    1.5420 O   0  0  0  0  0  0  0  0  0  0  0  0
   -1.9250    1.6090    0.3500 C   0  0  0  0  0  0  0  0  0  0  0  0
   -0.7310    0.8790    0.8550 C   0  0  2  0  0  0  0  0  0  0  0  0
   -0.9620    0.4900    2.1720 O   0  0  0  0  0  0  0  0  0  0  0  0
    0.5620    1.6470    0.8180 C   0  0  1  0  0  0  0  0  0  0  0  0
    1.8290    0.4890    1.4920 S   0  0  0  0  0  0  0  0  0  0  0  0
    2.4710   -0.0120   -0.1630 C   0  0  2  0  0  0  0  0  0  0  0  0
    3.7960   -0.5060   -0.1130 N   0  0  0  0  0  0  0  0  0  0  0  0
    4.0610   -1.8050   -0.5630 N   0  0  0  0  0  0  0  0  0  0  0  0
    5.3830   -2.3540   -0.5360 C   0  0  0  0  0  0  0  0  0  0  0  0
    5.6590   -3.5160   -0.9310 O   0  0  0  0  0  0  0  0  0  0  0  0
    6.4460   -1.5520   -0.0380 N   0  0  0  0  0  0  0  0  0  0  0  0
    6.1760   -0.2350    0.4170 N   0  0  0  0  0  0  0  0  0  0  0  0
    4.8540    0.2930    0.3820 C   0  0  0  0  0  0  0  0  0  0  0  0
    4.6810    1.4840    0.8070 O   0  0  0  0  0  0  0  0  0  0  0  0
    2.3660    1.3230   -0.7740 N   0  0  0  0  0  0  0  0  0  0  0  0
    1.0750    1.8400   -0.5560 C   0  0  0  0  0  0  0  0  0  0  0  0
    0.4150    2.4180   -1.4580 O   0  0  0  0  0  0  0  0  0  0  0  0
  1  2  1  0
  2  3  1  0
  3  4  1  0
  4  5  1  0
  5  6  2  0
  5  7  1  0
  7  8  1  0
  8  9  1  1
  8 10  1  0
 10 11  1  1
 10 22  1  0
 11 12  1  0
 12 13  1  1
 12 21  1  0
 13 14  1  0
 13 19  1  0
 14 15  1  0
 15 16  2  0
 15 17  1  0
 17 18  1  0
 18 19  1  0
 19 20  2  0
 21 22  1  0
 22 23  2  0
M  END
