
     RDKit          3D

 19 19  0  0  0  0  0  0  0  0999 V2000
   -4.5710   -0.8470    0.0280 C   0  0  0  0  0  0  0  0  0  0  0  0
   -3.6480    0.2310    0.5190 C   0  0  2  0  0  0  0  0  0  0  0  0
   -3.9610    0.5520    1.9570 C   0  0  0  0  0  0  0  0  0  0  0  0
   -3.8560    1.3760   -0.2420 O   0  0  0  0  0  0  0  0  0  0  0  0
   -2.6270    1.8160   -0.6820 C   0  0  0  0  0  0  0  0  0  0  0  0
   -1.6470    1.1380    0.0150 O   0  0  0  0  0  0  0  0  0  0  0  0
   -2.2010   -0.0980    0.3950 C   0  0  2  0  0  0  0  0  0  0  0  0
   -1.8800   -1.0780   -0.6920 C   0  0  2  0  0  0  0  0  0  0  0  0
   -2.3520   -2.3450   -0.4780 O   0  0  0  0  0  0  0  0  0  0  0  0
   -0.3800   -1.1560   -0.7900 C   0  0  0  0  0  0  0  0  0  0  0  0
    0.1660   -2.2600   -0.6740 O   0  0  0  0  0  0  0  0  0  0  0  0
    0.4000   -0.0590   -1.0030 O   0  0  0  0  0  0  0  0  0  0  0  0
    1.7810    0.0340   -1.1130 C   0  0  0  0  0  0  0  0  0  0  0  0
    2.5830   -0.3670    0.0730 C   0  0  1  0  0  0  0  0  0  0  0  0
    2.4000   -1.6870    0.4480 O   0  0  0  0  0  0  0  0  0  0  0  0
    4.0700   -0.1690   -0.1270 C   0  0  2  0  0  0  0  0  0  0  0  0
    4.6680   -0.4650    1.1210 O   0  0  0  0  0  0  0  0  0  0  0  0
    4.4350    1.2510   -0.4460 C   0  0  0  0  0  0  0  0  0  0  0  0
    5.8790    1.3320   -0.5090 N   0  0  0  0  0  0  0  0  0  0  0  0
  2  1  1  6
  2  3  1  0
  2  4  1  0
  2  7  1  0
  4  5  1  0
  5  6  1  0
  7  6  1  6
  7  8  1  0
  8  9  1  1
  8 10  1  0
 10 11  2  0
 10 12  1  0
 12 13  1  0
 13 14  1  0
 14 15  1  6
 14 16  1  0
 16 17  1  1
 16 18  1  0
 18 19  1  0
M  END
