
     RDKit          3D

 23 24  0  0  0  0  0  0  0  0999 V2000
   -3.9930   -3.0870   -1.0940 C   0  0  0  0  0  0  0  0  0  0  0  0
   -3.9560   -1.7160   -0.7450 O   0  0  0  0  0  0  0  0  0  0  0  0
   -2.8160   -1.0420   -0.3780 C   0  0  0  0  0  0  0  0  0  0  0  0
   -1.7500   -1.6960   -0.3570 O   0  0  0  0  0  0  0  0  0  0  0  0
   -2.7760    0.3720   -0.0190 C   0  0  0  0  0  0  0  0  0  0  0  0
   -1.6460    0.9690    0.3170 C   0  0  0  0  0  0  0  0  0  0  0  0
   -0.5330    0.0990    0.2740 N   0  0  0  0  0  0  0  0  0  0  0  0
    0.6000    0.3890    0.4030 C   0  0  0  0  0  0  0  0  0  0  0  0
    1.6210   -0.5280    0.3260 N   0  0  0  0  0  0  0  0  0  0  0  0
    2.6820   -0.0620   -0.5130 C   0  0  0  0  0  0  0  0  0  0  0  0
    2.3420    1.0440   -1.0890 O   0  0  0  0  0  0  0  0  0  0  0  0
    3.9530   -0.6570   -0.7540 C   0  0  1  0  0  0  0  0  0  0  0  0
    4.6680    0.1140   -1.6310 O   0  0  0  0  0  0  0  0  0  0  0  0
    4.7670   -0.9090    0.4960 C   0  0  0  0  0  0  0  0  0  0  0  0
    4.0370   -1.7130    1.4570 N   0  0  0  0  0  0  0  0  0  0  0  0
    0.8330    1.8720    1.6230 S   0  0  0  0  0  0  0  0  0  0  0  0
   -0.3590    2.9910    0.9040 C   0  0  0  0  0  0  0  0  0  0  0  0
   -0.0990    4.1800    0.7550 O   0  0  0  0  0  0  0  0  0  0  0  0
   -1.5950    2.3490    0.5420 N   0  0  0  0  0  0  0  0  0  0  0  0
   -2.7190    3.1610    0.4320 N   0  0  0  0  0  0  0  0  0  0  0  0
   -3.9790    2.5490    0.0710 C   0  0  0  0  0  0  0  0  0  0  0  0
   -5.0260    3.2270   -0.0420 O   0  0  0  0  0  0  0  0  0  0  0  0
   -3.9510    1.1580   -0.1420 N   0  0  0  0  0  0  0  0  0  0  0  0
  1  2  1  0
  2  3  1  0
  3  4  2  0
  3  5  1  0
  5  6  2  0
  5 23  1  0
  6  7  1  0
  6 19  1  0
  7  8  2  0
  8  9  1  0
  8 16  1  0
  9 10  1  0
 10 11  2  0
 10 12  1  0
 12 13  1  6
 12 14  1  0
 14 15  1  0
 16 17  1  0
 17 18  2  0
 17 19  1  0
 19 20  1  0
 20 21  1  0
 21 22  2  0
 21 23  1  0
M  END
