
     RDKit          3D

 24 25  0  0  0  0  0  0  0  0999 V2000
    4.7880    1.7670    0.5400 O   0  0  0  0  0  0  0  0  0  0  0  0
    5.0990    0.5870    0.1780 C   0  0  0  0  0  0  0  0  0  0  0  0
    6.4510    0.1090    0.2760 N   0  0  0  0  0  0  0  0  0  0  0  0
    7.4760    0.9830    0.7940 C   0  0  0  0  0  0  0  0  0  0  0  0
    8.7010    0.3220    0.8000 O   0  0  0  0  0  0  0  0  0  0  0  0
    4.0860   -0.2700   -0.3310 N   0  0  0  0  0  0  0  0  0  0  0  0
    2.7530    0.1970   -0.4290 N   0  0  0  0  0  0  0  0  0  0  0  0
    1.6780   -0.7280   -0.3440 C   0  0  0  0  0  0  0  0  0  0  0  0
    1.9520   -1.9430   -0.1820 O   0  0  0  0  0  0  0  0  0  0  0  0
    0.2920   -0.2690   -0.4420 C   0  0  0  0  0  0  0  0  0  0  0  0
   -0.0110    0.9240   -0.6020 O   0  0  0  0  0  0  0  0  0  0  0  0
   -0.7450   -1.2420   -0.3500 N   0  0  0  0  0  0  0  0  0  0  0  0
   -2.0970   -0.9330   -0.4290 N   0  0  0  0  0  0  0  0  0  0  0  0
   -2.7940   -0.8440   -1.6730 C   0  0  0  0  0  0  0  0  0  0  0  0
   -2.3460   -1.0130   -2.8410 O   0  0  0  0  0  0  0  0  0  0  0  0
   -4.1290   -0.5210   -1.3870 N   0  0  0  0  0  0  0  0  0  0  0  0
   -4.1830   -0.0260   -0.0260 C   0  0  1  0  0  0  0  0  0  0  0  0
   -4.1060    1.4740   -0.1010 C   0  0  0  0  0  0  0  0  0  0  0  0
   -4.9310    1.9460    1.4690 S   0  0  0  0  0  0  0  0  0  0  0  0
   -5.7210    0.3310    1.8340 C   0  0  1  0  0  0  0  0  0  0  0  0
   -7.4730    0.6550    1.9730 Cl  0  0  0  0  0  0  0  0  0  0  0  0
   -5.5000   -0.4050    0.5510 C   0  0  0  0  0  0  0  0  0  0  0  0
   -3.0290   -0.6600    0.6120 C   0  0  0  0  0  0  0  0  0  0  0  0
   -2.7960   -0.9520    1.8130 O   0  0  0  0  0  0  0  0  0  0  0  0
  1  2  2  0
  2  3  1  0
  2  6  1  0
  3  4  1  0
  4  5  1  0
  6  7  1  0
  7  8  1  0
  8  9  2  0
  8 10  1  0
 10 11  2  0
 10 12  1  0
 12 13  1  0
 13 14  1  0
 13 23  1  0
 14 15  2  0
 14 16  1  0
 16 17  1  0
 17 18  1  6
 17 22  1  0
 17 23  1  0
 18 19  1  0
 19 20  1  0
 20 21  1  6
 20 22  1  0
 23 24  2  0
M  END
