
     RDKit          3D

 28 32  0  0  0  0  0  0  0  0999 V2000
    5.0670    3.2800   -0.2510 C   0  0  0  0  0  0  0  0  0  0  0  0
    4.8940    2.0470   -1.0920 C   0  0  0  0  0  0  0  0  0  0  0  0
    4.8470    0.8200   -0.2220 C   0  0  0  0  0  0  0  0  0  0  0  0
    3.7830    0.0340   -0.2240 C   0  0  0  0  0  0  0  0  0  0  0  0
    2.6550    0.3410   -1.0580 N   0  0  0  0  0  0  0  0  0  0  0  0
    1.5830   -0.3730   -1.1180 C   0  0  0  0  0  0  0  0  0  0  0  0
    0.4600    0.0330   -2.0190 C   0  0  0  0  0  0  0  0  0  0  0  0
   -0.7650    0.5010   -1.3290 C   0  0  1  0  0  0  0  0  0  0  0  0
   -1.7680    0.8660   -2.4410 C   0  0  0  0  0  0  0  0  0  0  0  0
   -2.7610    1.7900   -1.7700 C   0  0  0  0  0  0  0  0  0  0  0  0
   -3.4680    0.9820   -0.7470 C   0  0  0  0  0  0  0  0  0  0  0  0
   -4.7360    1.2930   -0.3710 N   0  0  0  0  0  0  0  0  0  0  0  0
   -5.3900    0.5710    0.5540 C   0  0  0  0  0  0  0  0  0  0  0  0
   -6.6460    0.9260    0.8870 N   0  0  0  0  0  0  0  0  0  0  0  0
   -7.3750    0.2650    1.7990 C   0  0  0  0  0  0  0  0  0  0  0  0
   -6.8190   -0.8310    2.4310 C   0  0  0  0  0  0  0  0  0  0  0  0
   -5.5370   -1.2400    2.1290 C   0  0  0  0  0  0  0  0  0  0  0  0
   -4.8240   -0.5200    1.1760 C   0  0  0  0  0  0  0  0  0  0  0  0
   -3.5400   -0.8620    0.8180 C   0  0  0  0  0  0  0  0  0  0  0  0
   -2.8740   -0.0990   -0.1470 C   0  0  0  0  0  0  0  0  0  0  0  0
   -1.4750   -0.5260   -0.4910 C   0  0  0  0  0  0  0  0  0  0  0  0
    1.5470   -1.5270   -0.2960 N   0  0  0  0  0  0  0  0  0  0  0  0
    2.6150   -1.9190    0.5680 C   0  0  0  0  0  0  0  0  0  0  0  0
    2.5490   -3.0160    1.3330 N   0  0  0  0  0  0  0  0  0  0  0  0
    3.5580   -3.3880    2.1510 C   0  0  0  0  0  0  0  0  0  0  0  0
    4.7210   -2.6510    2.2420 C   0  0  0  0  0  0  0  0  0  0  0  0
    4.8180   -1.4980    1.4530 C   0  0  0  0  0  0  0  0  0  0  0  0
    3.7640   -1.1450    0.6260 C   0  0  0  0  0  0  0  0  0  0  0  0
  1  2  1  0
  2  3  1  0
  3  4  2  3
  4  5  1  0
  4 28  1  0
  5  6  2  0
  6  7  1  0
  6 22  1  0
  8  7  1  6
  8  9  1  0
  8 21  1  0
  9 10  1  0
 10 11  1  0
 11 12  2  0
 11 20  1  0
 12 13  1  0
 13 14  2  0
 13 18  1  0
 14 15  1  0
 15 16  2  0
 16 17  1  0
 17 18  2  0
 18 19  1  0
 19 20  2  0
 20 21  1  0
 22 23  1  0
 23 24  2  0
 23 28  1  0
 24 25  1  0
 25 26  2  0
 26 27  1  0
 27 28  2  0
M  END
