
     RDKit          3D

 28 32  0  0  0  0  0  0  0  0999 V2000
   -1.2600   -3.6210   -1.5290 C   0  0  0  0  0  0  0  0  0  0  0  0
   -1.1810   -2.3340   -1.2530 C   0  0  0  0  0  0  0  0  0  0  0  0
   -2.3860   -1.5710   -1.0250 C   0  0  0  0  0  0  0  0  0  0  0  0
   -2.5350   -0.3200   -0.7410 C   0  0  0  0  0  0  0  0  0  0  0  0
   -1.5250    0.7540   -0.5490 C   0  0  0  0  0  0  0  0  0  0  0  0
   -1.8040    2.0120   -0.2770 C   0  0  0  0  0  0  0  0  0  0  0  0
   -0.6210    2.8230   -0.1490 C   0  0  0  0  0  0  0  0  0  0  0  0
   -0.1390    4.0960    0.0810 C   0  0  0  0  0  0  0  0  0  0  0  0
   -0.9150    5.3290    0.3570 C   0  0  0  0  0  0  0  0  0  0  0  0
    1.2400    4.0080    0.0060 C   0  0  0  0  0  0  0  0  0  0  0  0
    1.5490    2.7180   -0.2610 N   0  0  0  0  0  0  0  0  0  0  0  0
    0.4060    2.0120   -0.3510 N   0  0  0  0  0  0  0  0  0  0  0  0
   -0.0460    0.6280   -0.5770 C   0  0  1  0  0  0  0  0  0  0  0  0
    0.3700   -0.1460    0.5890 N   0  0  0  0  0  0  0  0  0  0  0  0
    1.6720   -0.6190    0.8360 C   0  0  0  0  0  0  0  0  0  0  0  0
    1.9150   -1.1920    2.0940 C   0  0  0  0  0  0  0  0  0  0  0  0
    0.7970   -1.2320    3.0660 C   0  0  0  0  0  0  0  0  0  0  0  0
    3.1580   -1.6820    2.3690 C   0  0  0  0  0  0  0  0  0  0  0  0
    4.1700   -1.6250    1.4410 C   0  0  0  0  0  0  0  0  0  0  0  0
    3.9220   -1.0640    0.2170 C   0  0  0  0  0  0  0  0  0  0  0  0
    4.9060   -0.9970   -0.7420 C   0  0  0  0  0  0  0  0  0  0  0  0
    4.6600   -0.4420   -1.9810 C   0  0  0  0  0  0  0  0  0  0  0  0
    3.4220    0.0350   -2.2260 N   0  0  0  0  0  0  0  0  0  0  0  0
    2.4900   -0.0230   -1.3300 N   0  0  0  0  0  0  0  0  0  0  0  0
    2.6690   -0.5500   -0.1110 C   0  0  0  0  0  0  0  0  0  0  0  0
   -4.0170   -0.0280   -0.6170 C   0  0  0  0  0  0  0  0  0  0  0  0
   -4.6770   -1.3470   -0.4190 C   0  0  0  0  0  0  0  0  0  0  0  0
   -3.7360   -2.2830   -1.1040 C   0  0  0  0  0  0  0  0  0  0  0  0
  1  2  2  0
  2  3  1  0
  3  4  2  0
  3 28  1  0
  4  5  1  0
  4 26  1  0
  5  6  2  0
  5 13  1  0
  6  7  1  0
  7  8  2  0
  7 12  1  0
  8  9  1  0
  8 10  1  0
 10 11  2  0
 11 12  1  0
 12 13  1  0
 13 14  1  1
 14 15  1  0
 15 16  2  0
 15 25  1  0
 16 17  1  0
 16 18  1  0
 18 19  2  0
 19 20  1  0
 20 21  2  0
 20 25  1  0
 21 22  1  0
 22 23  2  0
 23 24  1  0
 24 25  2  0
 26 27  1  0
 27 28  1  0
M  END
