
     RDKit          3D

 28 32  0  0  0  0  0  0  0  0999 V2000
   -1.3730    2.5890    2.2010 C   0  0  0  0  0  0  0  0  0  0  0  0
   -1.8380    1.1320    1.9830 C   0  0  0  0  0  0  0  0  0  0  0  0
   -2.0060    0.8070    0.5450 C   0  0  2  0  0  0  0  0  0  0  0  0
   -0.7400    0.9600   -0.1250 N   0  0  0  0  0  0  0  0  0  0  0  0
    0.4200    0.1620    0.0070 C   0  0  0  0  0  0  0  0  0  0  0  0
    0.3760   -1.0340    0.6410 C   0  0  0  0  0  0  0  0  0  0  0  0
    1.5060   -1.7970    0.7820 C   0  0  0  0  0  0  0  0  0  0  0  0
    2.7410   -1.4150    0.3020 C   0  0  0  0  0  0  0  0  0  0  0  0
    3.8390   -2.1850    0.4550 N   0  0  0  0  0  0  0  0  0  0  0  0
    5.0500   -1.8310   -0.0050 C   0  0  0  0  0  0  0  0  0  0  0  0
    6.2650   -2.4110    0.0210 N   0  0  0  0  0  0  0  0  0  0  0  0
    7.1540   -1.6100   -0.5990 C   0  0  0  0  0  0  0  0  0  0  0  0
    6.4600   -0.4880   -1.0270 C   0  0  0  0  0  0  0  0  0  0  0  0
    5.1250   -0.6100   -0.6600 C   0  0  0  0  0  0  0  0  0  0  0  0
    4.0180    0.1960   -0.8290 C   0  0  0  0  0  0  0  0  0  0  0  0
    4.1720    1.4740   -1.5310 C   0  0  0  0  0  0  0  0  0  0  0  0
    2.7830   -0.1960   -0.3440 C   0  0  0  0  0  0  0  0  0  0  0  0
    1.6550    0.5820   -0.4930 C   0  0  0  0  0  0  0  0  0  0  0  0
   -2.8210    2.0440    0.0070 C   0  0  0  0  0  0  0  0  0  0  0  0
   -2.8730    2.1170   -1.4580 C   0  0  0  0  0  0  0  0  0  0  0  0
   -2.7630    0.7990   -2.1020 C   0  0  0  0  0  0  0  0  0  0  0  0
   -3.2270   -0.2440   -1.2200 N   0  0  0  0  0  0  0  0  0  0  0  0
   -4.0870   -1.2370   -1.7550 C   0  0  0  0  0  0  0  0  0  0  0  0
   -4.5590   -2.1940   -1.0150 C   0  0  0  0  0  0  0  0  0  0  0  0
   -4.1920   -2.2370    0.3880 C   0  0  0  0  0  0  0  0  0  0  0  0
   -3.3780   -1.3110    0.9240 C   0  0  0  0  0  0  0  0  0  0  0  0
   -3.0910   -1.4600    2.3400 C   0  0  0  0  0  0  0  0  0  0  0  0
   -2.8460   -0.2600    0.1570 N   0  0  0  0  0  0  0  0  0  0  0  0
  1  2  1  0
  3  2  1  1
  3  4  1  0
  3 19  1  0
  3 28  1  0
  4  5  1  0
  5  6  2  0
  5 18  1  0
  6  7  1  0
  7  8  2  0
  8  9  1  0
  8 17  1  0
  9 10  2  0
 10 11  1  0
 10 14  1  0
 11 12  1  0
 12 13  2  0
 13 14  1  0
 14 15  2  0
 15 16  1  0
 15 17  1  0
 17 18  2  0
 19 20  1  0
 20 21  1  0
 21 22  1  0
 22 23  1  0
 22 28  1  0
 23 24  2  0
 24 25  1  0
 25 26  2  0
 26 27  1  0
 26 28  1  0
M  END
