
     RDKit          3D

 28 32  0  0  0  0  0  0  0  0999 V2000
   -5.2270    2.5080    1.0430 C   0  0  0  0  0  0  0  0  0  0  0  0
   -4.4110    1.4990    0.3240 C   0  0  0  0  0  0  0  0  0  0  0  0
   -3.8160    1.9210   -0.8660 C   0  0  0  0  0  0  0  0  0  0  0  0
   -3.0390    1.0920   -1.6450 C   0  0  0  0  0  0  0  0  0  0  0  0
   -2.8570   -0.2030   -1.2050 C   0  0  0  0  0  0  0  0  0  0  0  0
   -3.4570   -0.6190   -0.0050 C   0  0  0  0  0  0  0  0  0  0  0  0
   -4.2280    0.2220    0.7540 C   0  0  0  0  0  0  0  0  0  0  0  0
   -4.8150   -0.3070    2.0050 C   0  0  0  0  0  0  0  0  0  0  0  0
   -3.1360   -2.0310    0.3400 C   0  0  0  0  0  0  0  0  0  0  0  0
   -1.6100   -2.1090    0.2550 C   0  0  0  0  0  0  0  0  0  0  0  0
   -1.0900   -1.7610   -1.0130 N   0  0  0  0  0  0  0  0  0  0  0  0
    0.0910   -0.9940   -0.8910 C   0  0  2  0  0  0  0  0  0  0  0  0
    1.1830   -1.1900   -1.8560 C   0  0  0  0  0  0  0  0  0  0  0  0
    2.2620   -1.9290   -1.0850 C   0  0  0  0  0  0  0  0  0  0  0  0
    2.1790   -1.2480    0.1780 N   0  0  0  0  0  0  0  0  0  0  0  0
    3.1300   -0.6620    1.0470 C   0  0  0  0  0  0  0  0  0  0  0  0
    3.2820   -0.8390    2.3620 N   0  0  0  0  0  0  0  0  0  0  0  0
    4.2340   -0.0520    2.8190 N   0  0  0  0  0  0  0  0  0  0  0  0
    4.7790    0.6950    1.8580 C   0  0  0  0  0  0  0  0  0  0  0  0
    5.7630    1.6380    1.7450 C   0  0  0  0  0  0  0  0  0  0  0  0
    6.0750    2.2120    0.5160 C   0  0  0  0  0  0  0  0  0  0  0  0
    7.0970    3.1540    0.4590 C   0  0  0  0  0  0  0  0  0  0  0  0
    7.9910    4.0070    0.4010 N   0  0  0  0  0  0  0  0  0  0  0  0
    5.4040    1.8560   -0.6520 C   0  0  0  0  0  0  0  0  0  0  0  0
    4.4280    0.9100   -0.4820 C   0  0  0  0  0  0  0  0  0  0  0  0
    4.0640    0.3030    0.6790 C   0  0  0  0  0  0  0  0  0  0  0  0
    0.7200   -1.2670    0.4580 C   0  0  0  0  0  0  0  0  0  0  0  0
   -2.0760   -1.2270   -1.9110 C   0  0  0  0  0  0  0  0  0  0  0  0
  1  2  1  0
  2  3  2  0
  2  7  1  0
  3  4  1  0
  4  5  2  0
  5  6  1  0
  5 28  1  0
  6  7  2  0
  6  9  1  0
  7  8  1  0
  9 10  1  0
 10 11  1  0
 12 11  1  6
 11 28  1  0
 12 13  1  0
 12 27  1  0
 13 14  1  0
 14 15  1  0
 15 16  1  0
 15 27  1  0
 16 17  2  0
 16 26  1  0
 17 18  1  0
 18 19  1  0
 19 20  2  0
 19 26  1  0
 20 21  1  0
 21 22  1  0
 21 24  2  0
 22 23  3  0
 24 25  1  0
 25 26  2  0
M  END
