
     RDKit          3D

 28 32  0  0  0  0  0  0  0  0999 V2000
   -2.6800   -4.9240   -0.9700 C   0  0  0  0  0  0  0  0  0  0  0  0
   -1.8390   -3.8190   -0.4620 C   0  0  0  0  0  0  0  0  0  0  0  0
   -0.5850   -4.0470    0.0300 C   0  0  0  0  0  0  0  0  0  0  0  0
    0.2560   -3.0280    0.5230 C   0  0  0  0  0  0  0  0  0  0  0  0
    1.5810   -3.3340    1.0340 C   0  0  0  0  0  0  0  0  0  0  0  0
   -0.2380   -1.7460    0.4960 C   0  0  0  0  0  0  0  0  0  0  0  0
   -1.5410   -1.5160   -0.0160 C   0  0  0  0  0  0  0  0  0  0  0  0
   -2.3070   -2.5480   -0.4800 C   0  0  0  0  0  0  0  0  0  0  0  0
   -2.0700   -0.1500   -0.0490 C   0  0  0  0  0  0  0  0  0  0  0  0
   -3.3290    0.0510   -0.5450 N   0  0  0  0  0  0  0  0  0  0  0  0
   -3.7940    1.3150   -0.5610 C   0  0  0  0  0  0  0  0  0  0  0  0
   -5.0670    1.6330   -1.0450 C   0  0  0  0  0  0  0  0  0  0  0  0
   -5.4360    2.9600   -1.0130 C   0  0  0  0  0  0  0  0  0  0  0  0
   -4.6060    3.9740   -0.5260 C   0  0  0  0  0  0  0  0  0  0  0  0
   -3.3520    3.6630   -0.0480 C   0  0  0  0  0  0  0  0  0  0  0  0
   -2.2890    4.2900    0.4820 N   0  0  0  0  0  0  0  0  0  0  0  0
   -1.3310    3.3840    0.7530 N   0  0  0  0  0  0  0  0  0  0  0  0
   -1.7490    2.1580    0.4070 C   0  0  0  0  0  0  0  0  0  0  0  0
   -1.2810    0.8630    0.4210 C   0  0  0  0  0  0  0  0  0  0  0  0
   -0.0740    0.6550    0.8970 C   0  0  0  0  0  0  0  0  0  0  0  0
    0.5410   -0.6670    0.9710 N   0  0  0  0  0  0  0  0  0  0  0  0
    1.8580   -0.8170    1.4780 C   0  0  0  0  0  0  0  0  0  0  0  0
    3.0020   -0.3050    0.6620 C   0  0  0  0  0  0  0  0  0  0  0  0
    3.0060    1.1510    0.3330 C   0  0  0  0  0  0  0  0  0  0  0  0
    4.2240    1.3880   -0.4370 N   0  0  0  0  0  0  0  0  0  0  0  0
    5.3400    1.1970    0.4670 C   0  0  0  0  0  0  0  0  0  0  0  0
    4.2310    2.7010   -1.0420 C   0  0  0  0  0  0  0  0  0  0  0  0
   -3.0030    2.3410   -0.0890 C   0  0  0  0  0  0  0  0  0  0  0  0
  1  2  1  0
  2  3  2  0
  2  8  1  0
  3  4  1  0
  4  5  1  0
  4  6  2  0
  6  7  1  0
  6 21  1  0
  7  8  2  0
  7  9  1  0
  9 10  2  0
  9 19  1  0
 10 11  1  0
 11 12  2  0
 11 28  1  0
 12 13  1  0
 13 14  2  0
 14 15  1  0
 15 16  2  0
 15 28  1  0
 16 17  1  0
 17 18  1  0
 18 19  1  0
 18 28  2  0
 19 20  2  0
 20 21  1  0
 21 22  1  0
 22 23  1  0
 23 24  1  0
 24 25  1  0
 25 26  1  0
 25 27  1  0
M  END
