
     RDKit          3D

 28 32  0  0  0  0  0  0  0  0999 V2000
    8.1030   -1.5090   -1.9200 N   0  0  0  0  0  0  0  0  0  0  0  0
    7.0530   -1.2170   -1.5250 C   0  0  0  0  0  0  0  0  0  0  0  0
    5.7240   -0.8700   -1.0430 C   0  0  0  0  0  0  0  0  0  0  0  0
    5.2840   -1.4080    0.0800 C   0  0  0  0  0  0  0  0  0  0  0  0
    3.9740   -1.1370    0.6600 C   0  0  0  0  0  0  0  0  0  0  0  0
    3.6250   -1.7630    1.8460 C   0  0  0  0  0  0  0  0  0  0  0  0
    2.4000   -1.5410    2.4380 C   0  0  0  0  0  0  0  0  0  0  0  0
    1.4590   -0.6830    1.8800 C   0  0  0  0  0  0  0  0  0  0  0  0
    1.7730   -0.0550    0.7120 C   0  0  0  0  0  0  0  0  0  0  0  0
    0.8680    0.7960   -0.0330 C   0  0  0  0  0  0  0  0  0  0  0  0
    1.3540    1.8080   -0.7940 N   0  0  0  0  0  0  0  0  0  0  0  0
    0.3560    2.4230   -1.3810 C   0  0  0  0  0  0  0  0  0  0  0  0
    0.3190    3.5020   -2.2290 C   0  0  0  0  0  0  0  0  0  0  0  0
   -0.8200    3.9990   -2.7150 N   0  0  0  0  0  0  0  0  0  0  0  0
   -1.9560    3.3870   -2.3300 C   0  0  0  0  0  0  0  0  0  0  0  0
   -3.2630    3.6620   -2.6160 N   0  0  0  0  0  0  0  0  0  0  0  0
   -4.0590    2.7990   -1.9820 C   0  0  0  0  0  0  0  0  0  0  0  0
   -3.2800    1.9120   -1.2450 C   0  0  0  0  0  0  0  0  0  0  0  0
   -1.9840    2.2920   -1.4770 C   0  0  0  0  0  0  0  0  0  0  0  0
   -0.8040    1.7700   -0.9730 C   0  0  0  0  0  0  0  0  0  0  0  0
   -0.5010    0.7580   -0.1460 N   0  0  0  0  0  0  0  0  0  0  0  0
   -1.3630   -0.2270    0.3850 C   0  0  2  0  0  0  0  0  0  0  0  0
   -2.1280   -1.0970   -0.5930 C   0  0  0  0  0  0  0  0  0  0  0  0
   -2.1510   -2.5080    0.0760 C   0  0  0  0  0  0  0  0  0  0  0  0
   -2.9010   -2.3870    1.3840 C   0  0  0  0  0  0  0  0  0  0  0  0
   -2.4140   -1.3160    2.2890 C   0  0  0  0  0  0  0  0  0  0  0  0
   -2.1790    0.0320    1.5800 C   0  0  0  0  0  0  0  0  0  0  0  0
    3.0330   -0.2990    0.1290 C   0  0  0  0  0  0  0  0  0  0  0  0
  1  2  3  0
  2  3  1  0
  3  4  2  3
  4  5  1  0
  5  6  2  0
  5 28  1  0
  6  7  1  0
  7  8  2  0
  8  9  1  0
  9 10  1  0
  9 28  2  0
 10 11  2  0
 10 21  1  0
 11 12  1  0
 12 13  2  0
 12 20  1  0
 13 14  1  0
 14 15  2  0
 15 16  1  0
 15 19  1  0
 16 17  1  0
 17 18  2  0
 18 19  1  0
 19 20  2  0
 20 21  1  0
 22 21  1  6
 22 23  1  0
 22 27  1  0
 23 24  1  0
 24 25  1  0
 25 26  1  0
 26 27  1  0
M  END
