
     RDKit          3D

 19 19  0  0  0  0  0  0  0  0999 V2000
    4.9600    2.1090   -1.4600 C   0  0  0  0  0  0  0  0  0  0  0  0
    4.5350    0.9050   -1.1010 C   0  0  0  0  0  0  0  0  0  0  0  0
    4.7440   -0.4020   -1.4360 O   0  0  0  0  0  0  0  0  0  0  0  0
    3.8500   -0.8880   -0.5080 C   0  0  0  0  0  0  0  0  0  0  0  0
    3.2500   -2.5050    0.0070 S   0  0  0  0  0  0  0  0  0  0  0  0
    3.5940    0.3530   -0.1270 C   0  0  0  0  0  0  0  0  0  0  0  0
    2.7890    0.9860    0.7980 O   0  0  0  0  0  0  0  0  0  0  0  0
    1.6600    0.4590    1.4130 C   0  0  0  0  0  0  0  0  0  0  0  0
    0.6160    0.0800    0.5280 N   0  0  0  0  0  0  0  0  0  0  0  0
   -0.0530   -0.9410    0.7590 N   0  0  0  0  0  0  0  0  0  0  0  0
   -1.1190   -1.4000   -0.0700 C   0  0  2  0  0  0  0  0  0  0  0  0
   -1.9810   -2.3780    0.7050 C   0  0  0  0  0  0  0  0  0  0  0  0
   -0.4580   -2.1700   -1.5300 Cl  0  0  0  0  0  0  0  0  0  0  0  0
   -2.0270   -0.2760   -0.5180 C   0  0  1  0  0  0  0  0  0  0  0  0
   -1.3210    0.6490   -1.2300 F   0  0  0  0  0  0  0  0  0  0  0  0
   -3.2540   -0.9730   -1.6000 Cl  0  0  0  0  0  0  0  0  0  0  0  0
   -2.9110    0.4530    0.8930 S   0  0  0  0  0  0  0  0  0  0  0  0
   -3.9690    1.7790    0.2540 C   0  0  0  0  0  0  0  0  0  0  0  0
   -4.9860    1.1260   -0.5830 N   0  0  0  0  0  0  0  0  0  0  0  0
  1  2  2  0
  2  3  1  0
  2  6  1  0
  3  4  1  0
  4  5  1  0
  4  6  2  0
  6  7  1  0
  7  8  1  0
  8  9  1  0
  9 10  2  3
 10 11  1  0
 11 12  1  1
 11 13  1  0
 11 14  1  0
 14 15  1  6
 14 16  1  0
 14 17  1  0
 17 18  1  0
 18 19  1  0
M  END
