
     RDKit          3D

 19 21  0  0  0  0  0  0  0  0999 V2000
   -3.8930   -1.0420   -0.0420 C   0  0  0  0  0  0  0  0  0  0  0  0
   -3.3020   -0.4300    1.1820 C   0  0  2  0  0  0  0  0  0  0  0  0
   -3.9540    0.7370    1.4920 O   0  0  0  0  0  0  0  0  0  0  0  0
   -3.4380    1.7270    0.6580 C   0  0  0  0  0  0  0  0  0  0  0  0
   -2.0090    1.3630    0.3830 C   0  0  0  0  0  0  0  0  0  0  0  0
   -1.8630    0.0070    1.0050 C   0  0  2  0  0  0  0  0  0  0  0  0
   -1.1390   -0.9160    0.1470 N   0  0  0  0  0  0  0  0  0  0  0  0
    0.2350   -0.8020   -0.1640 C   0  0  0  0  0  0  0  0  0  0  0  0
    0.8250   -1.6810   -1.0460 C   0  0  0  0  0  0  0  0  0  0  0  0
    2.1570   -1.6210   -1.3820 C   0  0  0  0  0  0  0  0  0  0  0  0
    2.9620   -0.6420   -0.8220 C   0  0  0  0  0  0  0  0  0  0  0  0
    4.2850   -0.5720   -1.1460 N   0  0  0  0  0  0  0  0  0  0  0  0
    5.0390    0.3790   -0.5930 C   0  0  0  0  0  0  0  0  0  0  0  0
    6.2740    0.4350   -0.9050 O   0  0  0  0  0  0  0  0  0  0  0  0
    4.4780    1.2640    0.2850 C   0  0  0  0  0  0  0  0  0  0  0  0
    5.2190    2.1560    0.7940 O   0  0  0  0  0  0  0  0  0  0  0  0
    3.1790    1.1960    0.6050 N   0  0  0  0  0  0  0  0  0  0  0  0
    2.3780    0.2360    0.0590 C   0  0  0  0  0  0  0  0  0  0  0  0
    1.0370    0.1700    0.3920 C   0  0  0  0  0  0  0  0  0  0  0  0
  2  1  1  6
  2  3  1  0
  2  6  1  0
  3  4  1  0
  4  5  1  0
  5  6  1  0
  6  7  1  6
  7  8  1  0
  8  9  2  0
  8 19  1  0
  9 10  1  0
 10 11  2  0
 11 12  1  0
 11 18  1  0
 12 13  1  0
 13 14  2  0
 13 15  1  0
 15 16  2  0
 15 17  1  0
 17 18  1  0
 18 19  2  0
M  END
