
     RDKit          3D

 19 21  0  0  0  0  0  0  0  0999 V2000
   -2.1230   -1.4170    1.5670 C   0  0  0  0  0  0  0  0  0  0  0  0
   -2.6400   -0.8180    0.3660 C   0  0  0  0  0  0  0  0  0  0  0  0
   -1.8400   -0.1480   -0.7090 C   0  0  1  0  0  0  0  0  0  0  0  0
   -2.8670    0.2810   -1.6100 O   0  0  0  0  0  0  0  0  0  0  0  0
   -1.0460    0.9820   -0.4050 C   0  0  0  0  0  0  0  0  0  0  0  0
   -1.6520    2.2540   -0.4560 C   0  0  0  0  0  0  0  0  0  0  0  0
   -2.8950    2.3090   -0.6980 O   0  0  0  0  0  0  0  0  0  0  0  0
   -1.0230    3.4040   -0.2650 N   0  0  0  0  0  0  0  0  0  0  0  0
    0.2730    3.3710   -0.0080 N   0  0  0  0  0  0  0  0  0  0  0  0
    0.9510    2.2400    0.0600 C   0  0  0  0  0  0  0  0  0  0  0  0
    2.3260    2.2350    0.2770 C   0  0  0  0  0  0  0  0  0  0  0  0
    2.8690    3.3550    0.4590 O   0  0  0  0  0  0  0  0  0  0  0  0
    2.9990    1.0840    0.2900 N   0  0  0  0  0  0  0  0  0  0  0  0
    2.3850   -0.1100    0.0910 C   0  0  0  0  0  0  0  0  0  0  0  0
    1.0300   -0.1810   -0.1280 C   0  0  0  0  0  0  0  0  0  0  0  0
    0.2970    1.0170   -0.1380 C   0  0  0  0  0  0  0  0  0  0  0  0
    0.6550   -1.5610   -0.4330 C   0  0  0  0  0  0  0  0  0  0  0  0
    1.8780   -2.3760   -0.0280 C   0  0  0  0  0  0  0  0  0  0  0  0
    3.0180   -1.4630    0.1010 C   0  0  0  0  0  0  0  0  0  0  0  0
  1  2  1  0
  2  3  1  0
  3  4  1  6
  3  5  1  0
  5  6  1  0
  5 16  2  0
  6  7  2  0
  6  8  1  0
  8  9  1  0
  9 10  2  0
 10 11  1  0
 10 16  1  0
 11 12  2  0
 11 13  1  0
 13 14  1  0
 14 15  2  0
 14 19  1  0
 15 16  1  0
 15 17  1  0
 17 18  1  0
 18 19  1  0
M  END
