
     RDKit          3D

 19 20  0  0  0  0  0  0  0  0999 V2000
   -2.9660    0.1400    1.7220 C   0  0  0  0  0  0  0  0  0  0  0  0
   -2.2740    0.6620    0.7350 C   0  0  0  0  0  0  0  0  0  0  0  0
   -2.3120    2.1340    0.5950 C   0  0  0  0  0  0  0  0  0  0  0  0
   -1.0610    2.7610    0.1710 C   0  0  0  0  0  0  0  0  0  0  0  0
   -1.1920    3.9490   -0.2350 O   0  0  0  0  0  0  0  0  0  0  0  0
    0.3010    2.2540    0.1380 C   0  0  0  0  0  0  0  0  0  0  0  0
    0.7180    1.0010   -0.1680 C   0  0  0  0  0  0  0  0  0  0  0  0
    2.1360    0.8190   -0.1010 C   0  0  0  0  0  0  0  0  0  0  0  0
    2.8840   -0.2350   -0.2620 C   0  0  0  0  0  0  0  0  0  0  0  0
    2.6500   -1.6220   -0.5520 C   0  0  0  0  0  0  0  0  0  0  0  0
    1.5830   -2.2430   -0.6920 O   0  0  0  0  0  0  0  0  0  0  0  0
    3.9240   -2.2930   -0.6690 N   0  0  0  0  0  0  0  0  0  0  0  0
    4.9250   -1.3720   -0.4600 N   0  0  0  0  0  0  0  0  0  0  0  0
    4.3680   -0.1010   -0.2070 C   0  0  0  0  0  0  0  0  0  0  0  0
    5.0420    0.9470    0.0220 O   0  0  0  0  0  0  0  0  0  0  0  0
   -0.1620   -0.0180   -0.6290 N   0  0  0  0  0  0  0  0  0  0  0  0
   -1.5140   -0.2290   -0.1320 C   0  0  0  0  0  0  0  0  0  0  0  0
   -2.1260   -1.2910   -0.5610 C   0  0  0  0  0  0  0  0  0  0  0  0
   -3.5050   -1.7310   -0.3010 C   0  0  0  0  0  0  0  0  0  0  0  0
  1  2  2  0
  2  3  1  0
  2 17  1  0
  3  4  1  0
  4  5  2  0
  4  6  1  0
  6  7  2  0
  7  8  1  0
  7 16  1  0
  8  9  2  3
  9 10  1  0
  9 14  1  0
 10 11  2  0
 10 12  1  0
 12 13  1  0
 13 14  1  0
 14 15  2  0
 16 17  1  0
 17 18  2  3
 18 19  1  0
M  END
