
     RDKit          3D

 19 20  0  0  0  0  0  0  0  0999 V2000
   -0.6970    3.8270   -1.2680 O   0  0  0  0  0  0  0  0  0  0  0  0
   -0.1290    2.7340   -0.8910 C   0  0  0  0  0  0  0  0  0  0  0  0
    1.2870    2.7280   -0.8770 N   0  0  0  0  0  0  0  0  0  0  0  0
    2.1010    2.2240    0.2360 C   0  0  0  0  0  0  0  0  0  0  0  0
    3.0610    1.2290   -0.2460 C   0  0  0  0  0  0  0  0  0  0  0  0
    3.1310   -0.0550   -0.0980 C   0  0  0  0  0  0  0  0  0  0  0  0
    2.2600   -1.0070    0.6180 C   0  0  0  0  0  0  0  0  0  0  0  0
    1.4850   -0.3840    1.7040 C   0  0  0  0  0  0  0  0  0  0  0  0
    0.2030   -0.3890    1.9260 C   0  0  0  0  0  0  0  0  0  0  0  0
   -0.8670   -1.0230    1.1490 C   0  0  0  0  0  0  0  0  0  0  0  0
   -1.2260   -0.7580   -0.0840 C   0  0  0  0  0  0  0  0  0  0  0  0
   -0.6200    0.2550   -0.9770 C   0  0  0  0  0  0  0  0  0  0  0  0
   -0.9350    1.6180   -0.5180 N   0  0  0  0  0  0  0  0  0  0  0  0
   -2.3680   -1.6100   -0.4830 C   0  0  0  0  0  0  0  0  0  0  0  0
   -3.0200   -1.6560   -1.6300 C   0  0  0  0  0  0  0  0  0  0  0  0
   -4.0770   -2.5270   -1.8270 O   0  0  0  0  0  0  0  0  0  0  0  0
   -2.6890   -2.4500    0.6630 C   0  0  0  0  0  0  0  0  0  0  0  0
   -3.5960   -3.3250    0.7630 O   0  0  0  0  0  0  0  0  0  0  0  0
   -1.7460   -2.0600    1.6450 N   0  0  0  0  0  0  0  0  0  0  0  0
  1  2  2  0
  2  3  1  0
  2 13  1  0
  3  4  1  0
  4  5  1  0
  5  6  2  0
  6  7  1  0
  7  8  1  0
  8  9  2  0
  9 10  1  0
 10 11  2  0
 10 19  1  0
 11 12  1  0
 11 14  1  0
 12 13  1  0
 14 15  2  3
 14 17  1  0
 15 16  1  0
 17 18  2  0
 17 19  1  0
M  END
