
     RDKit          3D

 27 31  0  0  0  0  0  0  0  0999 V2000
    8.8910   -2.6380   -0.0360 N   0  0  0  0  0  0  0  0  0  0  0  0
    7.8260   -2.2570   -0.2780 C   0  0  0  0  0  0  0  0  0  0  0  0
    6.5020   -1.7780   -0.6040 C   0  0  0  0  0  0  0  0  0  0  0  0
    5.6450   -1.4310    0.3260 C   0  0  0  0  0  0  0  0  0  0  0  0
    4.2990   -0.9440   -0.0150 C   0  0  0  0  0  0  0  0  0  0  0  0
    3.8250   -0.8080   -1.2810 C   0  0  0  0  0  0  0  0  0  0  0  0
    2.5140   -0.3180   -1.1440 C   0  0  0  0  0  0  0  0  0  0  0  0
    2.2570   -0.1840    0.1690 C   0  0  0  0  0  0  0  0  0  0  0  0
    1.0660    0.2680    0.8820 C   0  0  0  0  0  0  0  0  0  0  0  0
    1.1860    0.6670    2.1720 N   0  0  0  0  0  0  0  0  0  0  0  0
    0.0010    1.0160    2.6420 C   0  0  0  0  0  0  0  0  0  0  0  0
   -0.4150    1.4950    3.8630 C   0  0  0  0  0  0  0  0  0  0  0  0
   -1.7080    1.7940    4.0820 N   0  0  0  0  0  0  0  0  0  0  0  0
   -2.5810    1.6210    3.0990 C   0  0  0  0  0  0  0  0  0  0  0  0
   -3.9080    1.8620    3.0900 N   0  0  0  0  0  0  0  0  0  0  0  0
   -4.3940    1.5530    1.8770 C   0  0  0  0  0  0  0  0  0  0  0  0
   -3.3220    1.1050    1.1180 C   0  0  0  0  0  0  0  0  0  0  0  0
   -2.1860    1.1340    1.8450 C   0  0  0  0  0  0  0  0  0  0  0  0
   -0.8890    0.8220    1.5920 C   0  0  0  0  0  0  0  0  0  0  0  0
   -0.2150    0.3490    0.4930 N   0  0  0  0  0  0  0  0  0  0  0  0
   -0.8220   -0.0280   -0.7550 C   0  0  1  0  0  0  0  0  0  0  0  0
   -1.7020   -1.2440   -0.7050 C   0  0  0  0  0  0  0  0  0  0  0  0
   -2.5500   -1.4730   -1.8850 C   0  0  0  0  0  0  0  0  0  0  0  0
   -3.0710   -0.2960   -2.6230 C   0  0  0  0  0  0  0  0  0  0  0  0
   -1.9560    0.6480   -2.8780 C   0  0  0  0  0  0  0  0  0  0  0  0
   -1.2330    1.0840   -1.6440 C   0  0  0  0  0  0  0  0  0  0  0  0
    3.3840   -0.5800    0.8000 O   0  0  0  0  0  0  0  0  0  0  0  0
  1  2  3  0
  2  3  1  0
  3  4  2  3
  4  5  1  0
  5  6  2  0
  5 27  1  0
  6  7  1  0
  7  8  2  0
  8  9  1  0
  8 27  1  0
  9 10  2  0
  9 20  1  0
 10 11  1  0
 11 12  2  0
 11 19  1  0
 12 13  1  0
 13 14  2  0
 14 15  1  0
 14 18  1  0
 15 16  1  0
 16 17  2  0
 17 18  1  0
 18 19  2  0
 19 20  1  0
 21 20  1  1
 21 22  1  0
 21 26  1  0
 22 23  1  0
 23 24  1  0
 24 25  1  0
 25 26  1  0
M  END
