
     RDKit          3D

 19 21  0  0  0  0  0  0  0  0999 V2000
    3.7940   -0.1360   -2.4200 O   0  0  0  0  0  0  0  0  0  0  0  0
    4.0950   -0.1940   -1.1960 C   0  0  0  0  0  0  0  0  0  0  0  0
    5.5280   -0.3270   -0.7960 C   0  0  0  0  0  0  0  0  0  0  0  0
    5.6160   -0.3710    0.5730 O   0  0  0  0  0  0  0  0  0  0  0  0
    3.0430   -0.1300   -0.2530 N   0  0  0  0  0  0  0  0  0  0  0  0
    1.6650   -0.0020   -0.6370 C   0  0  0  0  0  0  0  0  0  0  0  0
    0.6700    0.0590    0.2160 C   0  0  0  0  0  0  0  0  0  0  0  0
    0.6180    0.0250    1.6650 N   0  0  0  0  0  0  0  0  0  0  0  0
   -0.6230    0.1120    2.3490 C   0  0  0  0  0  0  0  0  0  0  0  0
   -0.7330    0.0880    3.5980 O   0  0  0  0  0  0  0  0  0  0  0  0
   -1.7880    0.2330    1.5420 N   0  0  0  0  0  0  0  0  0  0  0  0
   -3.1030    0.3290    2.1410 C   0  0  0  0  0  0  0  0  0  0  0  0
   -4.1470   -0.4590    1.4070 C   0  0  0  0  0  0  0  0  0  0  0  0
   -3.9690   -0.5510   -0.0580 C   0  0  0  0  0  0  0  0  0  0  0  0
   -2.9550    0.3910   -0.6360 C   0  0  0  0  0  0  0  0  0  0  0  0
   -1.7020    0.2630    0.1400 C   0  0  0  0  0  0  0  0  0  0  0  0
   -0.5650    0.1850   -0.5360 C   0  0  0  0  0  0  0  0  0  0  0  0
   -0.2650    0.1980   -1.9720 C   0  0  0  0  0  0  0  0  0  0  0  0
    1.2260    0.0720   -2.0310 C   0  0  0  0  0  0  0  0  0  0  0  0
  1  2  2  0
  2  3  1  0
  2  5  1  0
  3  4  1  0
  5  6  1  0
  6  7  2  0
  6 19  1  0
  7  8  1  0
  7 17  1  0
  8  9  1  0
  9 10  2  0
  9 11  1  0
 11 12  1  0
 11 16  1  0
 12 13  1  0
 13 14  1  0
 14 15  1  0
 15 16  1  0
 16 17  2  0
 17 18  1  0
 18 19  1  0
M  END
