
     RDKit          3D

 19 20  0  0  0  0  0  0  0  0999 V2000
   -1.7830    1.1870    1.3090 N   0  0  0  0  0  0  0  0  0  0  0  0
   -1.9980   -0.0050    0.4600 C   0  0  2  0  0  0  0  0  0  0  0  0
   -2.9390    0.4210   -0.5850 C   0  0  1  0  0  0  0  0  0  0  0  0
   -2.2380    1.7530   -1.5270 Cl  0  0  0  0  0  0  0  0  0  0  0  0
   -3.5840   -0.6030   -1.4220 C   0  0  0  0  0  0  0  0  0  0  0  0
   -2.8150   -1.4200   -2.1670 F   0  0  0  0  0  0  0  0  0  0  0  0
   -2.5510   -0.9930    1.3830 N   0  0  0  0  0  0  0  0  0  0  0  0
   -1.1450   -1.0920    2.4880 S   0  0  0  0  0  0  0  0  0  0  0  0
    0.0620   -0.4140    1.3400 N   0  0  0  0  0  0  0  0  0  0  0  0
    1.3600    0.0780    1.4940 C   0  0  0  0  0  0  0  0  0  0  0  0
    1.6760    0.6830    2.5440 O   0  0  0  0  0  0  0  0  0  0  0  0
    2.3550   -0.1010    0.4540 C   0  0  0  0  0  0  0  0  0  0  0  0
    3.6240    0.0090    0.5950 C   0  0  0  0  0  0  0  0  0  0  0  0
    4.5630   -0.1940   -0.5360 C   0  0  0  0  0  0  0  0  0  0  0  0
    5.3050    0.9660   -0.7600 O   0  0  0  0  0  0  0  0  0  0  0  0
    1.6890   -0.5170   -1.1780 S   0  0  0  0  0  0  0  0  0  0  0  0
   -0.0090    0.1980   -1.0530 C   0  0  0  0  0  0  0  0  0  0  0  0
   -0.6640   -0.4960    0.0890 C   0  0  2  0  0  0  0  0  0  0  0  0
   -0.6350   -2.2590   -0.2770 Cl  0  0  0  0  0  0  0  0  0  0  0  0
  2  1  1  1
  2  3  1  0
  2  7  1  0
  2 18  1  0
  3  4  1  6
  3  5  1  0
  5  6  1  0
  7  8  1  0
  8  9  1  0
  9 10  1  0
  9 18  1  0
 10 11  2  0
 10 12  1  0
 12 13  2  3
 12 16  1  0
 13 14  1  0
 14 15  1  0
 16 17  1  0
 17 18  1  0
 18 19  1  6
M  END
