
     RDKit          3D

 19 20  0  0  0  0  0  0  0  0999 V2000
    3.7480    1.1810    0.5660 C   0  0  0  0  0  0  0  0  0  0  0  0
    4.3390    0.2240   -0.1140 C   0  0  0  0  0  0  0  0  0  0  0  0
    5.6770   -0.2500    0.4110 C   0  0  0  0  0  0  0  0  0  0  0  0
    3.8080   -0.4370   -1.3240 C   0  0  0  0  0  0  0  0  0  0  0  0
    2.5110    0.0630   -1.6450 N   0  0  0  0  0  0  0  0  0  0  0  0
    1.3960   -0.1070   -0.7540 C   0  0  0  0  0  0  0  0  0  0  0  0
    1.5220   -0.7130    0.3410 O   0  0  0  0  0  0  0  0  0  0  0  0
    0.0840    0.4200   -1.0950 C   0  0  0  0  0  0  0  0  0  0  0  0
   -0.9340    0.2670   -0.2870 C   0  0  0  0  0  0  0  0  0  0  0  0
   -0.9050   -0.4250    1.0230 C   0  0  0  0  0  0  0  0  0  0  0  0
   -2.3120   -0.3760    1.5590 C   0  0  0  0  0  0  0  0  0  0  0  0
   -3.1740   -0.0450    0.3650 C   0  0  2  0  0  0  0  0  0  0  0  0
   -2.3010    0.7630   -0.5410 C   0  0  0  0  0  0  0  0  0  0  0  0
   -4.3360    0.7260    0.7160 N   0  0  0  0  0  0  0  0  0  0  0  0
   -5.4020    0.3590   -0.1380 C   0  0  0  0  0  0  0  0  0  0  0  0
   -6.4990    0.9730   -0.3460 O   0  0  0  0  0  0  0  0  0  0  0  0
   -5.0300   -0.8670   -0.7570 N   0  0  0  0  0  0  0  0  0  0  0  0
   -3.7480   -1.2310   -0.2740 C   0  0  0  0  0  0  0  0  0  0  0  0
   -3.2160   -2.3590   -0.3810 O   0  0  0  0  0  0  0  0  0  0  0  0
  1  2  2  0
  2  3  1  0
  2  4  1  0
  4  5  1  0
  5  6  1  0
  6  7  2  0
  6  8  1  0
  8  9  2  3
  9 10  1  0
  9 13  1  0
 10 11  1  0
 12 11  1  1
 12 13  1  0
 12 14  1  0
 12 18  1  0
 14 15  1  0
 15 16  2  0
 15 17  1  0
 17 18  1  0
 18 19  2  0
M  END
