
     RDKit          3D

 26 28  0  0  0  0  0  0  0  0999 V2000
   -6.6420   -1.0120   -0.6640 N   0  0  0  0  0  0  0  0  0  0  0  0
   -6.7500   -0.4840    0.4920 C   0  0  0  0  0  0  0  0  0  0  0  0
   -6.1830    0.8460    0.8180 C   0  0  0  0  0  0  0  0  0  0  0  0
   -4.9230    1.0030    0.0830 N   0  0  0  0  0  0  0  0  0  0  0  0
   -3.8460    0.1040    0.2880 C   0  0  0  0  0  0  0  0  0  0  0  0
   -4.0790   -0.8160    1.1440 O   0  0  0  0  0  0  0  0  0  0  0  0
   -2.5680    0.1400   -0.3590 C   0  0  0  0  0  0  0  0  0  0  0  0
   -1.5620   -0.6940   -0.1670 C   0  0  0  0  0  0  0  0  0  0  0  0
   -0.3210   -0.5470   -0.8710 C   0  0  0  0  0  0  0  0  0  0  0  0
    0.9010   -0.5330   -0.3760 C   0  0  0  0  0  0  0  0  0  0  0  0
    1.9600   -0.4090   -1.2970 C   0  0  0  0  0  0  0  0  0  0  0  0
    3.2580   -0.3420   -0.8980 C   0  0  0  0  0  0  0  0  0  0  0  0
    3.6510   -0.3890    0.4290 C   0  0  0  0  0  0  0  0  0  0  0  0
    4.9020   -0.3280    0.7710 C   0  0  0  0  0  0  0  0  0  0  0  0
    6.0060   -0.2020   -0.2490 C   0  0  0  0  0  0  0  0  0  0  0  0
    5.9720    1.1400   -0.7840 N   0  0  0  0  0  0  0  0  0  0  0  0
    2.6290   -0.5060    1.3390 C   0  0  0  0  0  0  0  0  0  0  0  0
    2.9280   -0.5130    2.6810 C   0  0  0  0  0  0  0  0  0  0  0  0
    1.9540   -0.5810    3.6870 C   0  0  0  0  0  0  0  0  0  0  0  0
    0.6540   -0.6400    3.3060 C   0  0  0  0  0  0  0  0  0  0  0  0
   -0.6100   -0.7230    4.5040 Cl  0  0  0  0  0  0  0  0  0  0  0  0
    0.3440   -0.6350    1.9540 C   0  0  0  0  0  0  0  0  0  0  0  0
    1.2720   -0.5750    0.9400 C   0  0  0  0  0  0  0  0  0  0  0  0
   -0.4790   -0.2480   -2.3500 C   0  0  0  0  0  0  0  0  0  0  0  0
   -1.8100    0.3190   -2.6540 C   0  0  0  0  0  0  0  0  0  0  0  0
   -2.3230    1.1510   -1.4740 C   0  0  0  0  0  0  0  0  0  0  0  0
  1  2  2  0
  2  3  1  0
  3  4  1  0
  4  5  1  0
  5  6  2  0
  5  7  1  0
  7  8  2  0
  7 26  1  0
  8  9  1  0
  9 10  2  3
  9 24  1  0
 10 11  1  0
 10 23  1  0
 11 12  2  0
 12 13  1  0
 13 14  2  3
 13 17  1  0
 14 15  1  0
 15 16  1  0
 17 18  2  0
 17 23  1  0
 18 19  1  0
 19 20  2  0
 20 21  1  0
 20 22  1  0
 22 23  2  0
 24 25  1  0
 25 26  1  0
M  CHG  1  16   1
M  END
