
     RDKit          3D

 27 31  0  0  0  0  0  0  0  0999 V2000
    3.6540    2.6740   -0.6630 N   0  0  0  0  0  0  0  0  0  0  0  0
    4.2210    1.9050   -1.3200 C   0  0  0  0  0  0  0  0  0  0  0  0
    4.9100    0.9680   -2.1500 C   0  0  0  0  0  0  0  0  0  0  0  0
    3.9990    0.0310   -2.8600 C   0  0  0  0  0  0  0  0  0  0  0  0
    3.1780   -0.7980   -1.9630 C   0  0  0  0  0  0  0  0  0  0  0  0
    3.6000   -2.0110   -1.4100 C   0  0  0  0  0  0  0  0  0  0  0  0
    2.5410   -2.4320   -0.6610 C   0  0  0  0  0  0  0  0  0  0  0  0
    1.5070   -1.4910   -0.7640 C   0  0  0  0  0  0  0  0  0  0  0  0
    0.1930   -1.5560   -0.1350 C   0  0  0  0  0  0  0  0  0  0  0  0
   -0.1390   -2.7560    0.3890 N   0  0  0  0  0  0  0  0  0  0  0  0
   -1.3660   -2.7540    0.8210 C   0  0  0  0  0  0  0  0  0  0  0  0
   -2.1930   -3.6970    1.3890 C   0  0  0  0  0  0  0  0  0  0  0  0
   -3.4560   -3.4360    1.6930 N   0  0  0  0  0  0  0  0  0  0  0  0
   -3.9240   -2.1940    1.4220 C   0  0  0  0  0  0  0  0  0  0  0  0
   -5.1820   -1.6810    1.5570 N   0  0  0  0  0  0  0  0  0  0  0  0
   -5.1960   -0.4320    1.0950 C   0  0  0  0  0  0  0  0  0  0  0  0
   -3.9250   -0.1010    0.6420 C   0  0  0  0  0  0  0  0  0  0  0  0
   -3.1610   -1.1930    0.8580 C   0  0  0  0  0  0  0  0  0  0  0  0
   -1.8370   -1.4650    0.5510 C   0  0  0  0  0  0  0  0  0  0  0  0
   -0.8790   -0.7170   -0.0250 N   0  0  0  0  0  0  0  0  0  0  0  0
   -0.7650    0.6220   -0.3480 C   0  0  1  0  0  0  0  0  0  0  0  0
   -1.5050    1.7990   -0.1290 C   0  0  0  0  0  0  0  0  0  0  0  0
   -1.7100    2.3640    1.2590 C   0  0  0  0  0  0  0  0  0  0  0  0
   -0.3930    2.4730    1.9870 C   0  0  0  0  0  0  0  0  0  0  0  0
    0.6770    2.3140    0.9890 C   0  0  0  0  0  0  0  0  0  0  0  0
    0.6660    1.0770    0.1400 C   0  0  0  0  0  0  0  0  0  0  0  0
    1.9910   -0.5920   -1.5420 O   0  0  0  0  0  0  0  0  0  0  0  0
  1  2  3  0
  2  3  1  0
  3  4  1  0
  4  5  1  0
  5  6  2  0
  5 27  1  0
  6  7  1  0
  7  8  2  0
  8  9  1  0
  8 27  1  0
  9 10  2  0
  9 20  1  0
 10 11  1  0
 11 12  2  0
 11 19  1  0
 12 13  1  0
 13 14  2  0
 14 15  1  0
 14 18  1  0
 15 16  1  0
 16 17  2  0
 17 18  1  0
 18 19  2  0
 19 20  1  0
 21 20  1  1
 21 22  1  0
 21 26  1  0
 22 23  1  0
 23 24  1  0
 24 25  1  0
 25 26  1  0
M  END
