
     RDKit          3D

 26 29  0  0  0  0  0  0  0  0999 V2000
    6.8370   -2.4070    0.1460 C   0  0  0  0  0  0  0  0  0  0  0  0
    6.1970   -1.5290    1.1820 C   0  0  0  0  0  0  0  0  0  0  0  0
    5.5110   -0.3460    0.6260 C   0  0  0  0  0  0  0  0  0  0  0  0
    4.1360   -0.3400    0.5530 C   0  0  0  0  0  0  0  0  0  0  0  0
    3.4290    0.7480    0.0400 C   0  0  0  0  0  0  0  0  0  0  0  0
    2.0210    0.6800   -0.0140 N   0  0  0  0  0  0  0  0  0  0  0  0
    1.1180    1.7210   -0.3000 C   0  0  0  0  0  0  0  0  0  0  0  0
    1.5720    2.8660   -0.5340 O   0  0  0  0  0  0  0  0  0  0  0  0
   -0.3390    1.4970   -0.3280 C   0  0  0  0  0  0  0  0  0  0  0  0
   -1.3290    2.4200   -0.5670 C   0  0  0  0  0  0  0  0  0  0  0  0
   -2.5550    1.7970   -0.5090 C   0  0  0  0  0  0  0  0  0  0  0  0
   -3.8750    2.1330   -0.6490 C   0  0  0  0  0  0  0  0  0  0  0  0
   -4.8810    1.2020   -0.5170 C   0  0  0  0  0  0  0  0  0  0  0  0
   -6.2820    1.6690   -0.6890 C   0  0  0  0  0  0  0  0  0  0  0  0
   -4.5630   -0.1170   -0.2350 C   0  0  0  0  0  0  0  0  0  0  0  0
   -3.2680   -0.4740   -0.0930 C   0  0  0  0  0  0  0  0  0  0  0  0
   -2.2690    0.4690   -0.2270 C   0  0  0  0  0  0  0  0  0  0  0  0
   -0.9420    0.3190   -0.1240 N   0  0  0  0  0  0  0  0  0  0  0  0
   -2.9340   -1.8600    0.1940 C   0  0  0  0  0  0  0  0  0  0  0  0
   -3.8980   -2.7370    0.3080 C   0  0  0  0  0  0  0  0  0  0  0  0
   -5.3090   -2.3700    0.1550 C   0  0  0  0  0  0  0  0  0  0  0  0
   -5.6290   -1.0240   -0.1060 N   0  0  0  0  0  0  0  0  0  0  0  0
    4.1970    1.8040   -0.3840 C   0  0  0  0  0  0  0  0  0  0  0  0
    5.5950    1.7930   -0.3090 C   0  0  0  0  0  0  0  0  0  0  0  0
    6.2770    0.7140    0.1990 C   0  0  0  0  0  0  0  0  0  0  0  0
    8.0240    0.7230    0.2820 Cl  0  0  0  0  0  0  0  0  0  0  0  0
  1  2  1  0
  2  3  1  0
  3  4  2  0
  3 25  1  0
  4  5  1  0
  5  6  1  0
  5 23  2  0
  6  7  1  0
  7  8  2  0
  7  9  1  0
  9 10  2  0
  9 18  1  0
 10 11  1  0
 11 12  2  0
 11 17  1  0
 12 13  1  0
 13 14  1  0
 13 15  2  0
 15 16  1  0
 15 22  1  0
 16 17  2  0
 16 19  1  0
 17 18  1  0
 19 20  2  0
 20 21  1  0
 21 22  1  0
 23 24  1  0
 24 25  2  0
 25 26  1  0
M  CHG  1  22   1
M  END
