
     RDKit          3D

 26 29  0  0  0  0  0  0  0  0999 V2000
   -4.8590    0.8370   -1.7850 C   0  0  0  0  0  0  0  0  0  0  0  0
   -3.4540    0.7440   -1.2250 C   0  0  0  0  0  0  0  0  0  0  0  0
   -2.5090    1.6030   -1.6500 C   0  0  0  0  0  0  0  0  0  0  0  0
   -1.2570    1.6090   -1.0760 C   0  0  0  0  0  0  0  0  0  0  0  0
   -0.9880    0.7360   -0.0720 C   0  0  0  0  0  0  0  0  0  0  0  0
    0.2420    0.9060    0.5910 C   0  0  0  0  0  0  0  0  0  0  0  0
    1.3070    1.8100    0.2020 C   0  0  1  0  0  0  0  0  0  0  0  0
    2.4170    1.7410    1.2500 C   0  0  0  0  0  0  0  0  0  0  0  0
    3.2440    0.5290    1.1380 C   0  0  0  0  0  0  0  0  0  0  0  0
    3.7770   -0.1800    2.2130 C   0  0  0  0  0  0  0  0  0  0  0  0
    4.6060   -1.2610    2.0730 C   0  0  0  0  0  0  0  0  0  0  0  0
    4.9330   -1.6580    0.8040 C   0  0  0  0  0  0  0  0  0  0  0  0
    4.4530   -1.0180   -0.3080 C   0  0  0  0  0  0  0  0  0  0  0  0
    4.8910   -1.4400   -1.5840 N   0  0  0  0  0  0  0  0  0  0  0  0
    3.6150    0.0570   -0.1120 C   0  0  0  0  0  0  0  0  0  0  0  0
    2.9950    0.6540   -1.2380 N   0  0  0  0  0  0  0  0  0  0  0  0
    2.0140    1.7040   -1.0650 C   0  0  0  0  0  0  0  0  0  0  0  0
    1.8490    2.4680   -2.0270 O   0  0  0  0  0  0  0  0  0  0  0  0
    0.3980    0.1230    1.7170 C   0  0  0  0  0  0  0  0  0  0  0  0
   -0.5270   -0.7590    2.1740 C   0  0  0  0  0  0  0  0  0  0  0  0
   -1.7280   -0.8960    1.4720 C   0  0  0  0  0  0  0  0  0  0  0  0
   -2.8700   -2.0600    2.0410 Cl  0  0  0  0  0  0  0  0  0  0  0  0
   -1.9650   -0.1570    0.3620 C   0  0  0  0  0  0  0  0  0  0  0  0
   -3.2510   -0.2090   -0.1880 C   0  0  0  0  0  0  0  0  0  0  0  0
   -4.4180   -0.9640    0.2310 C   0  0  0  0  0  0  0  0  0  0  0  0
   -4.5290   -2.3470   -0.0840 N   0  0  0  0  0  0  0  0  0  0  0  0
  1  2  1  0
  2  3  2  0
  2 24  1  0
  3  4  1  0
  4  5  2  0
  5  6  1  0
  5 23  1  0
  7  6  1  1
  6 19  2  0
  7  8  1  0
  7 17  1  0
  8  9  1  0
  9 10  2  0
  9 15  1  0
 10 11  1  0
 11 12  2  0
 12 13  1  0
 13 14  1  0
 13 15  2  0
 15 16  1  0
 16 17  1  0
 17 18  2  0
 19 20  1  0
 20 21  2  0
 21 22  1  0
 21 23  1  0
 23 24  2  0
 24 25  1  0
 25 26  1  0
M  CHG  1  26   1
M  END
