
     RDKit          3D

 26 29  0  0  0  0  0  0  0  0999 V2000
    2.8720    2.7580   -1.5390 N   0  0  0  0  0  0  0  0  0  0  0  0
    2.2200    1.5150   -1.3420 C   0  0  0  0  0  0  0  0  0  0  0  0
    0.9780    1.2930   -1.8730 C   0  0  0  0  0  0  0  0  0  0  0  0
    0.3100    0.0980   -1.7030 C   0  0  0  0  0  0  0  0  0  0  0  0
   -0.9380   -0.1490   -2.2280 O   0  0  0  0  0  0  0  0  0  0  0  0
   -2.1280    0.1190   -1.5630 C   0  0  0  0  0  0  0  0  0  0  0  0
   -2.7510    1.3480   -1.6970 C   0  0  0  0  0  0  0  0  0  0  0  0
   -3.9140    1.6740   -1.0750 C   0  0  0  0  0  0  0  0  0  0  0  0
   -4.7190    3.2150   -1.2270 Cl  0  0  0  0  0  0  0  0  0  0  0  0
   -4.5130    0.7250   -0.2610 C   0  0  0  0  0  0  0  0  0  0  0  0
   -3.9360   -0.5030   -0.0970 C   0  0  0  0  0  0  0  0  0  0  0  0
   -2.7370   -0.8130   -0.7490 C   0  0  0  0  0  0  0  0  0  0  0  0
   -4.5030   -1.5670    0.7480 C   0  0  0  0  0  0  0  0  0  0  0  0
   -5.6030   -1.1660    1.5600 N   0  0  0  0  0  0  0  0  0  0  0  0
   -5.7210    0.2480    1.7660 C   0  0  0  0  0  0  0  0  0  0  0  0
   -5.7830    1.0050    0.4520 C   0  0  0  0  0  0  0  0  0  0  0  0
    0.9540   -0.8700   -0.9690 C   0  0  0  0  0  0  0  0  0  0  0  0
    2.2250   -0.6480   -0.4230 C   0  0  0  0  0  0  0  0  0  0  0  0
    2.8750    0.5260   -0.5940 C   0  0  0  0  0  0  0  0  0  0  0  0
    4.1230    0.8240   -0.0490 N   0  0  0  0  0  0  0  0  0  0  0  0
    4.9690   -0.1300    0.5500 C   0  0  0  0  0  0  0  0  0  0  0  0
    5.1700   -1.4110    0.1070 C   0  0  0  0  0  0  0  0  0  0  0  0
    5.9970   -2.3260    0.7640 C   0  0  0  0  0  0  0  0  0  0  0  0
    6.6560   -1.9510    1.9130 C   0  0  0  0  0  0  0  0  0  0  0  0
    6.4650   -0.6830    2.3610 C   0  0  0  0  0  0  0  0  0  0  0  0
    5.6580    0.2170    1.7240 C   0  0  0  0  0  0  0  0  0  0  0  0
  1  2  1  0
  2  3  2  0
  2 19  1  0
  3  4  1  0
  4  5  1  0
  4 17  2  0
  5  6  1  0
  6  7  2  0
  6 12  1  0
  7  8  1  0
  8  9  1  0
  8 10  2  0
 10 11  1  0
 10 16  1  0
 11 12  2  0
 11 13  1  0
 13 14  1  0
 14 15  1  0
 15 16  1  0
 17 18  1  0
 18 19  2  0
 19 20  1  0
 20 21  1  0
 21 22  2  0
 21 26  1  0
 22 23  1  0
 23 24  2  0
 24 25  1  0
 25 26  2  0
M  CHG  1  14   1
M  END
