
     RDKit          3D

 26 28  0  0  0  0  0  0  0  0999 V2000
   -5.4000   -1.5670    0.6300 C   0  0  0  0  0  0  0  0  0  0  0  0
   -4.1070   -1.4030    1.3590 C   0  0  0  0  0  0  0  0  0  0  0  0
   -3.9800   -1.7280    2.6840 C   0  0  0  0  0  0  0  0  0  0  0  0
   -2.7690   -1.5560    3.3040 C   0  0  0  0  0  0  0  0  0  0  0  0
   -1.6970   -1.0570    2.5850 C   0  0  0  0  0  0  0  0  0  0  0  0
   -1.7900   -0.7110    1.2240 C   0  0  0  0  0  0  0  0  0  0  0  0
   -0.5840   -0.2910    0.5550 C   0  0  0  0  0  0  0  0  0  0  0  0
    0.5960   -0.7170    1.0070 C   0  0  0  0  0  0  0  0  0  0  0  0
    1.9040   -0.3910    0.4570 C   0  0  0  0  0  0  0  0  0  0  0  0
    2.9820   -0.9190    1.0430 C   0  0  0  0  0  0  0  0  0  0  0  0
    4.3490   -0.7880    0.7450 C   0  0  0  0  0  0  0  0  0  0  0  0
    5.2220   -1.4660    1.5100 C   0  0  0  0  0  0  0  0  0  0  0  0
    4.6330   -2.4600    2.8130 Cl  0  0  0  0  0  0  0  0  0  0  0  0
    4.9250    0.0220   -0.3230 C   0  0  0  0  0  0  0  0  0  0  0  0
    6.4050   -0.1180   -0.3940 N   0  0  0  0  0  0  0  0  0  0  0  0
    1.9800    0.4660   -0.7160 C   0  0  0  0  0  0  0  0  0  0  0  0
    0.6890    1.0420   -1.1110 C   0  0  0  0  0  0  0  0  0  0  0  0
    0.7540    2.0260   -2.1230 C   0  0  0  0  0  0  0  0  0  0  0  0
   -0.4130    2.5840   -2.5520 C   0  0  0  0  0  0  0  0  0  0  0  0
   -1.6160    2.1650   -1.9810 C   0  0  0  0  0  0  0  0  0  0  0  0
   -2.8320    2.8380   -2.5160 C   0  0  0  0  0  0  0  0  0  0  0  0
   -3.9870    2.5460   -1.8420 O   0  0  0  0  0  0  0  0  0  0  0  0
   -1.6180    1.2330   -1.0300 N   0  0  0  0  0  0  0  0  0  0  0  0
   -0.5000    0.6410   -0.5590 C   0  0  0  0  0  0  0  0  0  0  0  0
   -2.9980   -0.8950    0.6400 C   0  0  0  0  0  0  0  0  0  0  0  0
   -3.2520   -0.6910   -0.7430 N   0  0  0  0  0  0  0  0  0  0  0  0
  1  2  1  0
  2  3  2  0
  2 25  1  0
  3  4  1  0
  4  5  2  0
  5  6  1  0
  6  7  1  0
  6 25  2  0
  7  8  2  0
  7 24  1  0
  8  9  1  0
  9 10  2  3
  9 16  1  0
 10 11  1  0
 11 12  2  3
 11 14  1  0
 12 13  1  0
 14 15  1  0
 16 17  1  0
 17 18  2  0
 17 24  1  0
 18 19  1  0
 19 20  2  0
 20 21  1  0
 20 23  1  0
 21 22  1  0
 23 24  2  0
 25 26  1  0
M  CHG  1  15   1
M  END
