
     RDKit          3D

 26 29  0  0  0  0  0  0  0  0999 V2000
   -5.7240    1.8910   -1.9860 C   0  0  0  0  0  0  0  0  0  0  0  0
   -4.9990    0.8200   -1.1910 C   0  0  2  0  0  0  0  0  0  0  0  0
   -5.7320   -0.4250   -1.3910 N   0  0  0  0  0  0  0  0  0  0  0  0
   -5.0930    1.1710    0.2520 C   0  0  0  0  0  0  0  0  0  0  0  0
   -4.4250    0.2030    1.1480 C   0  0  0  0  0  0  0  0  0  0  0  0
   -2.9550    0.0640    0.9350 C   0  0  0  0  0  0  0  0  0  0  0  0
   -2.3790    0.8040    0.1100 O   0  0  0  0  0  0  0  0  0  0  0  0
   -2.1960   -0.8860    1.6440 N   0  0  0  0  0  0  0  0  0  0  0  0
   -0.8040   -1.1210    1.5440 C   0  0  0  0  0  0  0  0  0  0  0  0
   -0.2460   -2.2340    2.1930 C   0  0  0  0  0  0  0  0  0  0  0  0
    1.0930   -2.5290    2.1530 C   0  0  0  0  0  0  0  0  0  0  0  0
    1.9730   -1.7350    1.4630 C   0  0  0  0  0  0  0  0  0  0  0  0
    3.3150   -2.0480    1.4350 C   0  0  0  0  0  0  0  0  0  0  0  0
    4.1870   -1.2260    0.7270 C   0  0  0  0  0  0  0  0  0  0  0  0
    5.4980   -1.2230    0.4920 N   0  0  0  0  0  0  0  0  0  0  0  0
    5.8270   -0.1640   -0.2790 C   0  0  0  0  0  0  0  0  0  0  0  0
    7.0240    0.2890   -0.7970 C   0  0  0  0  0  0  0  0  0  0  0  0
    8.4660   -0.6270   -0.4370 Cl  0  0  0  0  0  0  0  0  0  0  0  0
    7.0350    1.4310   -1.5670 C   0  0  0  0  0  0  0  0  0  0  0  0
    5.8800    2.1500   -1.8450 C   0  0  0  0  0  0  0  0  0  0  0  0
    4.6880    1.6940   -1.3270 C   0  0  0  0  0  0  0  0  0  0  0  0
    4.6880    0.5560   -0.5610 C   0  0  0  0  0  0  0  0  0  0  0  0
    3.6670   -0.1260    0.0790 C   0  0  0  0  0  0  0  0  0  0  0  0
    2.3180    0.1740    0.1180 C   0  0  0  0  0  0  0  0  0  0  0  0
    1.4490   -0.6390    0.8190 C   0  0  0  0  0  0  0  0  0  0  0  0
    0.0750   -0.3330    0.8580 C   0  0  0  0  0  0  0  0  0  0  0  0
  2  1  1  6
  2  3  1  0
  2  4  1  0
  4  5  1  0
  5  6  1  0
  6  7  2  0
  6  8  1  0
  8  9  1  0
  9 10  2  0
  9 26  1  0
 10 11  1  0
 11 12  2  0
 12 13  1  0
 12 25  1  0
 13 14  2  0
 14 15  1  0
 14 23  1  0
 15 16  1  0
 16 17  2  0
 16 22  1  0
 17 18  1  0
 17 19  1  0
 19 20  2  0
 20 21  1  0
 21 22  2  0
 22 23  1  0
 23 24  2  0
 24 25  1  0
 25 26  2  0
M  CHG  1   3   1
M  END
