
     RDKit          3D

 26 29  0  0  0  0  0  0  0  0999 V2000
    2.5440    0.9390   -1.9220 O   0  0  0  0  0  0  0  0  0  0  0  0
    2.0720    0.1670   -1.0400 C   0  0  0  0  0  0  0  0  0  0  0  0
    0.7660   -0.2150   -1.0440 N   0  0  0  0  0  0  0  0  0  0  0  0
    0.2880   -1.0310   -0.1040 C   0  0  0  0  0  0  0  0  0  0  0  0
   -1.1190   -1.4480   -0.0990 C   0  0  0  0  0  0  0  0  0  0  0  0
   -2.0860   -0.5610    0.0240 C   0  0  0  0  0  0  0  0  0  0  0  0
   -1.8550    0.7700    0.1520 N   0  0  0  0  0  0  0  0  0  0  0  0
   -3.0130    1.4270    0.2580 C   0  0  0  0  0  0  0  0  0  0  0  0
   -3.2690    2.8000    0.4060 C   0  0  0  0  0  0  0  0  0  0  0  0
   -4.5630    3.2560    0.4960 C   0  0  0  0  0  0  0  0  0  0  0  0
   -5.5830    2.3330    0.4360 C   0  0  0  0  0  0  0  0  0  0  0  0
   -5.3200    0.9870    0.2900 C   0  0  0  0  0  0  0  0  0  0  0  0
   -4.0280    0.5180    0.1990 C   0  0  0  0  0  0  0  0  0  0  0  0
   -3.4410   -0.7530    0.0500 C   0  0  0  0  0  0  0  0  0  0  0  0
   -4.1670   -1.8520   -0.0370 C   0  0  0  0  0  0  0  0  0  0  0  0
   -3.7050   -3.2280   -0.1920 C   0  0  0  0  0  0  0  0  0  0  0  0
   -5.1220   -4.3520   -0.2010 Cl  0  0  0  0  0  0  0  0  0  0  0  0
    1.1040   -1.5050    0.8910 C   0  0  0  0  0  0  0  0  0  0  0  0
    2.4530   -1.1440    0.9400 C   0  0  0  0  0  0  0  0  0  0  0  0
    2.9080   -0.3000   -0.0480 C   0  0  0  0  0  0  0  0  0  0  0  0
    4.3130    0.1270   -0.0680 C   0  0  0  0  0  0  0  0  0  0  0  0
    4.7060    1.4280   -0.2860 C   0  0  0  0  0  0  0  0  0  0  0  0
    6.0630    1.7740   -0.2930 C   0  0  0  0  0  0  0  0  0  0  0  0
    6.9990    0.8330   -0.0860 N   0  0  0  0  0  0  0  0  0  0  0  0
    6.6440   -0.4510    0.1300 C   0  0  0  0  0  0  0  0  0  0  0  0
    5.2920   -0.8180    0.1420 C   0  0  0  0  0  0  0  0  0  0  0  0
  1  2  2  0
  2  3  1  0
  2 20  1  0
  3  4  1  0
  4  5  1  0
  4 18  2  0
  5  6  2  3
  6  7  1  0
  6 14  1  0
  7  8  1  0
  8  9  2  0
  8 13  1  0
  9 10  1  0
 10 11  2  0
 11 12  1  0
 12 13  2  0
 13 14  1  0
 14 15  2  3
 15 16  1  0
 16 17  1  0
 18 19  1  0
 19 20  2  0
 20 21  1  0
 21 22  2  0
 21 26  1  0
 22 23  1  0
 23 24  2  0
 24 25  1  0
 25 26  2  0
M  CHG  1  24   1
M  END
