
     RDKit          3D

 26 29  0  0  0  0  0  0  0  0999 V2000
   -0.4320    4.1090    0.8750 C   0  0  0  0  0  0  0  0  0  0  0  0
   -1.3180    2.9170    0.8370 C   0  0  0  0  0  0  0  0  0  0  0  0
   -2.5700    2.9020    1.4120 C   0  0  0  0  0  0  0  0  0  0  0  0
   -3.3570    1.7690    1.3390 C   0  0  0  0  0  0  0  0  0  0  0  0
   -2.9400    0.6140    0.6990 C   0  0  0  0  0  0  0  0  0  0  0  0
   -3.7660   -0.5000    0.6120 C   0  0  0  0  0  0  0  0  0  0  0  0
   -5.3350   -0.4480    1.3580 Cl  0  0  0  0  0  0  0  0  0  0  0  0
   -3.3860   -1.6620   -0.0520 C   0  0  0  0  0  0  0  0  0  0  0  0
   -4.3020   -2.8290   -0.1230 C   0  0  0  0  0  0  0  0  0  0  0  0
   -3.7400   -3.9300   -0.8440 N   0  0  0  0  0  0  0  0  0  0  0  0
   -2.1290   -1.6460   -0.6240 C   0  0  0  0  0  0  0  0  0  0  0  0
   -1.3030   -0.5390   -0.5380 C   0  0  0  0  0  0  0  0  0  0  0  0
    0.0630   -0.6110   -1.0710 C   0  0  0  0  0  0  0  0  0  0  0  0
    0.1980   -1.0110   -2.2560 O   0  0  0  0  0  0  0  0  0  0  0  0
    1.1990   -0.2630   -0.3190 N   0  0  0  0  0  0  0  0  0  0  0  0
    2.5490   -0.2810   -0.7660 C   0  0  0  0  0  0  0  0  0  0  0  0
    2.9570   -0.4720   -2.0680 C   0  0  0  0  0  0  0  0  0  0  0  0
    4.3050   -0.4360   -2.4450 C   0  0  0  0  0  0  0  0  0  0  0  0
    5.2530   -0.2040   -1.4930 C   0  0  0  0  0  0  0  0  0  0  0  0
    4.9030   -0.0040   -0.1590 C   0  0  0  0  0  0  0  0  0  0  0  0
    5.6580    0.2370    0.9620 C   0  0  0  0  0  0  0  0  0  0  0  0
    4.7600    0.3400    1.9870 C   0  0  0  0  0  0  0  0  0  0  0  0
    3.5030    0.1660    1.4920 N   0  0  0  0  0  0  0  0  0  0  0  0
    3.5740   -0.0480    0.1570 C   0  0  0  0  0  0  0  0  0  0  0  0
   -1.6820    0.6090    0.1160 C   0  0  0  0  0  0  0  0  0  0  0  0
   -0.9130    1.7440    0.1970 C   0  0  0  0  0  0  0  0  0  0  0  0
  1  2  1  0
  2  3  2  0
  2 26  1  0
  3  4  1  0
  4  5  2  0
  5  6  1  0
  5 25  1  0
  6  7  1  0
  6  8  2  0
  8  9  1  0
  8 11  1  0
  9 10  1  0
 11 12  2  0
 12 13  1  0
 12 25  1  0
 13 14  2  0
 13 15  1  0
 15 16  1  0
 16 17  2  0
 16 24  1  0
 17 18  1  0
 18 19  2  0
 19 20  1  0
 20 21  1  0
 20 24  2  0
 21 22  2  0
 22 23  1  0
 23 24  1  0
 25 26  2  0
M  CHG  1  10   1
M  END
