
     RDKit          3D

 19 19  0  0  0  0  0  0  0  0999 V2000
    0.7880    4.1270   -0.0580 N   0  0  0  0  0  0  0  0  0  0  0  0
    0.7250    2.8900    0.5850 C   0  0  0  0  0  0  0  0  0  0  0  0
    0.8490    2.8680    1.8590 O   0  0  0  0  0  0  0  0  0  0  0  0
    0.5120    1.6330   -0.0960 N   0  0  0  0  0  0  0  0  0  0  0  0
    0.3860    0.4880    0.7960 C   0  0  1  0  0  0  0  0  0  0  0  0
   -0.8260   -0.3050    0.6220 C   0  0  0  0  0  0  0  0  0  0  0  0
   -0.7090   -1.5710    0.8300 O   0  0  0  0  0  0  0  0  0  0  0  0
   -2.1300    0.1300    0.2570 O   0  0  0  0  0  0  0  0  0  0  0  0
   -3.0850   -0.9200    0.2150 C   0  0  0  0  0  0  0  0  0  0  0  0
   -4.3190   -0.6500   -0.4830 C   0  0  0  0  0  0  0  0  0  0  0  0
   -4.5600    0.3750   -1.1760 O   0  0  0  0  0  0  0  0  0  0  0  0
   -5.3610   -1.6070   -0.3880 O   0  0  0  0  0  0  0  0  0  0  0  0
    1.4510   -0.5320    0.2680 C   0  0  0  0  0  0  0  0  0  0  0  0
    2.3060   -0.9640    1.1490 C   0  0  0  0  0  0  0  0  0  0  0  0
    3.3980   -1.9720    0.8540 C   0  0  0  0  0  0  0  0  0  0  0  0
    3.9360   -1.8190   -0.8510 S   0  0  0  0  0  0  0  0  0  0  0  0
    2.5800   -1.2090   -1.7690 C   0  0  0  0  0  0  0  0  0  0  0  0
    1.5390   -0.6530   -1.1720 C   0  0  0  0  0  0  0  0  0  0  0  0
    0.5140   -0.2020   -2.0180 O   0  0  0  0  0  0  0  0  0  0  0  0
  1  2  1  0
  2  3  2  0
  2  4  1  0
  5  4  1  6
  5  6  1  0
  5 13  1  0
  6  7  2  0
  6  8  1  0
  8  9  1  0
  9 10  1  0
 10 11  2  0
 10 12  1  0
 13 14  2  0
 13 18  1  0
 14 15  1  0
 15 16  1  0
 16 17  1  0
 17 18  2  0
 18 19  1  0
M  END
