
     RDKit          3D

 19 19  0  0  0  0  0  0  0  0999 V2000
    0.8610    1.2140    0.8600 O   0  0  0  0  0  0  0  0  0  0  0  0
    0.9830    0.1560    0.1990 C   0  0  0  0  0  0  0  0  0  0  0  0
   -0.1950   -0.7120   -0.0090 C   0  0  0  0  0  0  0  0  0  0  0  0
   -1.3320   -0.1150    0.6430 N   0  0  0  0  0  0  0  0  0  0  0  0
   -2.5920   -0.8040    0.5630 C   0  0  0  0  0  0  0  0  0  0  0  0
   -2.6340   -1.8880   -0.0690 O   0  0  0  0  0  0  0  0  0  0  0  0
   -3.7370   -0.1650    1.2410 C   0  0  1  0  0  0  0  0  0  0  0  0
   -3.9020    1.2570    0.6710 C   0  0  0  0  0  0  0  0  0  0  0  0
   -4.2570    0.9890   -1.1090 S   0  0  0  0  0  0  0  0  0  0  0  0
   -5.5230   -0.3260   -1.1410 C   0  0  0  0  0  0  0  0  0  0  0  0
   -5.3260   -1.3330   -0.0440 C   0  0  0  0  0  0  0  0  0  0  0  0
   -4.8870   -0.8600    1.1380 O   0  0  0  0  0  0  0  0  0  0  0  0
    2.2570   -0.2020   -0.3470 N   0  0  0  0  0  0  0  0  0  0  0  0
    3.4050    0.6110   -0.1640 C   0  0  0  0  0  0  0  0  0  0  0  0
    3.2940    1.6630    0.4900 O   0  0  0  0  0  0  0  0  0  0  0  0
    4.6570    0.2940   -0.6810 O   0  0  0  0  0  0  0  0  0  0  0  0
    5.7890    1.1250   -0.4830 C   0  0  0  0  0  0  0  0  0  0  0  0
    6.9620    0.4420   -1.1960 C   0  0  0  0  0  0  0  0  0  0  0  0
    7.1730   -0.8040   -0.6580 O   0  0  0  0  0  0  0  0  0  0  0  0
  1  2  2  0
  2  3  1  0
  2 13  1  0
  3  4  1  0
  4  5  1  0
  5  6  2  0
  7  5  1  6
  7  8  1  0
  7 12  1  0
  8  9  1  0
  9 10  1  0
 10 11  1  0
 11 12  1  0
 13 14  1  0
 14 15  2  0
 14 16  1  0
 16 17  1  0
 17 18  1  0
 18 19  1  0
M  END
