
     RDKit          3D

 19 19  0  0  0  0  0  0  0  0999 V2000
   -5.2780   -2.2500    0.3690 N   0  0  0  0  0  0  0  0  0  0  0  0
   -4.0870   -1.5200    0.1810 C   0  0  0  0  0  0  0  0  0  0  0  0
   -2.9830   -2.1100    0.2530 O   0  0  0  0  0  0  0  0  0  0  0  0
   -4.1340   -0.0740   -0.0970 C   0  0  2  0  0  0  0  0  0  0  0  0
   -5.4740    0.3370   -0.1250 O   0  0  0  0  0  0  0  0  0  0  0  0
   -3.5510    0.2650   -1.4530 C   0  0  0  0  0  0  0  0  0  0  0  0
   -2.1680   -0.1140   -1.5480 N   0  0  0  0  0  0  0  0  0  0  0  0
   -1.2060    0.4350   -0.6750 C   0  0  0  0  0  0  0  0  0  0  0  0
   -1.5100    1.2690    0.2120 O   0  0  0  0  0  0  0  0  0  0  0  0
    0.2000    0.0180   -0.8050 C   0  0  0  0  0  0  0  0  0  0  0  0
    1.0310    0.7150    0.2070 C   0  0  0  0  0  0  0  0  0  0  0  0
    0.5240    1.5270    1.0160 O   0  0  0  0  0  0  0  0  0  0  0  0
    2.3950    0.4800    0.2760 O   0  0  0  0  0  0  0  0  0  0  0  0
    3.2380    1.1140    1.2170 C   0  0  0  0  0  0  0  0  0  0  0  0
    4.6300    0.5850    0.9560 C   0  0  0  0  0  0  0  0  0  0  0  0
    5.5970    1.4110    0.6270 C   0  0  0  0  0  0  0  0  0  0  0  0
    7.0420    0.3770    0.4150 S   0  0  0  0  0  0  0  0  0  0  0  0
    6.0670   -1.1880    0.3790 C   0  0  0  0  0  0  0  0  0  0  0  0
    4.9260   -0.7220    1.0490 O   0  0  0  0  0  0  0  0  0  0  0  0
  1  2  1  0
  2  3  2  0
  2  4  1  0
  4  5  1  6
  4  6  1  0
  6  7  1  0
  7  8  1  0
  8  9  2  0
  8 10  1  0
 10 11  1  0
 11 12  2  0
 11 13  1  0
 13 14  1  0
 14 15  1  0
 15 16  2  0
 15 19  1  0
 16 17  1  0
 17 18  1  0
 18 19  1  0
M  END
