
     RDKit          3D

 19 19  0  0  0  0  0  0  0  0999 V2000
    4.7840    1.8470   -1.3000 N   0  0  0  0  0  0  0  0  0  0  0  0
    5.6650    0.8020   -0.9840 C   0  0  0  0  0  0  0  0  0  0  0  0
    6.9000    1.0640   -0.9340 O   0  0  0  0  0  0  0  0  0  0  0  0
    5.2660   -0.5930   -0.7020 C   0  0  0  0  0  0  0  0  0  0  0  0
    3.8940   -0.8080   -0.7740 O   0  0  0  0  0  0  0  0  0  0  0  0
    2.9350   -0.1870   -0.0120 C   0  0  0  0  0  0  0  0  0  0  0  0
    3.3020    0.6540    0.8340 O   0  0  0  0  0  0  0  0  0  0  0  0
    1.5730   -0.4330   -0.1180 O   0  0  0  0  0  0  0  0  0  0  0  0
    0.6720    0.2430    0.6960 C   0  0  0  0  0  0  0  0  0  0  0  0
   -0.6990   -0.2090    0.3740 C   0  0  0  0  0  0  0  0  0  0  0  0
   -0.8530   -1.0730   -0.5200 O   0  0  0  0  0  0  0  0  0  0  0  0
   -1.8670    0.2800    1.0200 N   0  0  0  0  0  0  0  0  0  0  0  0
   -3.1850   -0.2110    0.6500 C   0  0  0  0  0  0  0  0  0  0  0  0
   -3.8810   -0.7890    1.5920 C   0  0  0  0  0  0  0  0  0  0  0  0
   -5.2180   -1.3750    1.5310 C   0  0  0  0  0  0  0  0  0  0  0  0
   -5.9470   -1.2440   -0.1120 S   0  0  0  0  0  0  0  0  0  0  0  0
   -4.7750   -0.4210   -1.1620 C   0  0  0  0  0  0  0  0  0  0  0  0
   -3.6010   -0.0140   -0.7250 C   0  0  0  0  0  0  0  0  0  0  0  0
   -2.6990    0.6360   -1.5920 O   0  0  0  0  0  0  0  0  0  0  0  0
  1  2  1  0
  2  3  2  0
  2  4  1  0
  4  5  1  0
  5  6  1  0
  6  7  2  0
  6  8  1  0
  8  9  1  0
  9 10  1  0
 10 11  2  0
 10 12  1  0
 12 13  1  0
 13 14  2  0
 13 18  1  0
 14 15  1  0
 15 16  1  0
 16 17  1  0
 17 18  2  0
 18 19  1  0
M  END
