
     RDKit          3D

 18 18  0  0  0  0  0  0  0  0999 V2000
    6.8000   -0.6220   -0.3760 N   0  0  0  0  0  0  0  0  0  0  0  0
    5.4650   -0.3910    0.0400 C   0  0  0  0  0  0  0  0  0  0  0  0
    4.6300   -1.3440    0.0090 O   0  0  0  0  0  0  0  0  0  0  0  0
    4.9970    0.8670    0.4980 N   0  0  0  0  0  0  0  0  0  0  0  0
    3.6480    1.0650    0.9100 C   0  0  0  0  0  0  0  0  0  0  0  0
    2.6630    0.7860   -0.1630 C   0  0  0  0  0  0  0  0  0  0  0  0
    3.1230    0.4180   -1.2770 O   0  0  0  0  0  0  0  0  0  0  0  0
    1.3110    0.8980   -0.0280 O   0  0  0  0  0  0  0  0  0  0  0  0
    0.4540    0.6150   -1.0930 C   0  0  0  0  0  0  0  0  0  0  0  0
   -0.9810    0.8020   -0.7300 C   0  0  0  0  0  0  0  0  0  0  0  0
   -1.2540    1.1760    0.4360 O   0  0  0  0  0  0  0  0  0  0  0  0
   -2.0160    0.5890   -1.5960 O   0  0  0  0  0  0  0  0  0  0  0  0
   -3.3770    0.7320   -1.3580 C   0  0  0  0  0  0  0  0  0  0  0  0
   -3.8760   -0.1770   -0.2650 C   0  0  0  0  0  0  0  0  0  0  0  0
   -4.8020   -1.1120   -0.3680 C   0  0  0  0  0  0  0  0  0  0  0  0
   -5.0150   -1.7900    0.9200 C   0  0  0  0  0  0  0  0  0  0  0  0
   -4.3010   -0.8680    1.8920 C   0  0  0  0  0  0  0  0  0  0  0  0
   -3.4180   -0.1560    1.0410 O   0  0  0  0  0  0  0  0  0  0  0  0
  1  2  1  0
  2  3  2  0
  2  4  1  0
  4  5  1  0
  5  6  1  0
  6  7  2  0
  6  8  1  0
  8  9  1  0
  9 10  1  0
 10 11  2  0
 10 12  1  0
 12 13  1  0
 13 14  1  0
 14 15  2  0
 14 18  1  0
 15 16  1  0
 16 17  1  0
 17 18  1  0
M  END
