
     RDKit          3D

 19 19  0  0  0  0  0  0  0  0999 V2000
    6.8120    2.3730   -0.8550 O   0  0  0  0  0  0  0  0  0  0  0  0
    6.0160    1.5280   -0.4260 C   0  0  0  0  0  0  0  0  0  0  0  0
    6.3050    0.2400    0.0560 N   0  0  0  0  0  0  0  0  0  0  0  0
    5.0780   -0.3670    0.4380 C   0  0  0  0  0  0  0  0  0  0  0  0
    4.9080   -1.5090    0.9130 O   0  0  0  0  0  0  0  0  0  0  0  0
    3.9680    0.5790    0.1860 C   0  0  0  0  0  0  0  0  0  0  0  0
    2.6780    0.3430    0.4360 C   0  0  0  0  0  0  0  0  0  0  0  0
    2.2130   -1.2160    1.1270 S   0  0  0  0  0  0  0  0  0  0  0  0
    0.9580   -2.0940    0.1750 C   0  0  0  0  0  0  0  0  0  0  0  0
   -0.3130   -1.3420    0.2540 C   0  0  0  0  0  0  0  0  0  0  0  0
   -0.9800   -1.4560    1.3030 O   0  0  0  0  0  0  0  0  0  0  0  0
   -0.7070   -0.5710   -0.7980 O   0  0  0  0  0  0  0  0  0  0  0  0
   -1.9320    0.1570   -0.7610 C   0  0  0  0  0  0  0  0  0  0  0  0
   -3.0920   -0.7760   -0.6210 C   0  0  0  0  0  0  0  0  0  0  0  0
   -4.4260   -0.0970   -0.6450 C   0  0  1  0  0  0  0  0  0  0  0  0
   -5.4570   -1.0560   -0.5030 O   0  0  0  0  0  0  0  0  0  0  0  0
   -4.5930    0.9770    0.3780 C   0  0  0  0  0  0  0  0  0  0  0  0
   -3.6630    1.9970    0.3000 O   0  0  0  0  0  0  0  0  0  0  0  0
    4.5960    1.7340   -0.3470 N   0  0  0  0  0  0  0  0  0  0  0  0
  1  2  2  0
  2  3  1  0
  2 19  1  0
  3  4  1  0
  4  5  2  0
  4  6  1  0
  6  7  2  3
  6 19  1  0
  7  8  1  0
  8  9  1  0
  9 10  1  0
 10 11  2  0
 10 12  1  0
 12 13  1  0
 13 14  1  0
 14 15  1  0
 15 16  1  1
 15 17  1  0
 17 18  1  0
M  END
