
     RDKit          3D

 18 19  0  0  0  0  0  0  0  0999 V2000
   -0.1770    1.9150    1.1460 O   0  0  0  0  0  0  0  0  0  0  0  0
   -0.0460    0.8220    0.4650 C   0  0  0  0  0  0  0  0  0  0  0  0
   -1.2550    0.0880    0.2500 C   0  0  0  0  0  0  0  0  0  0  0  0
   -1.4060   -0.8370   -0.7440 C   0  0  0  0  0  0  0  0  0  0  0  0
   -2.6280   -1.4980   -0.9710 C   0  0  0  0  0  0  0  0  0  0  0  0
   -3.7140   -1.2200   -0.1830 C   0  0  0  0  0  0  0  0  0  0  0  0
   -4.9490   -1.8660   -0.3860 O   0  0  0  0  0  0  0  0  0  0  0  0
   -3.5820   -0.2910    0.8200 C   0  0  0  0  0  0  0  0  0  0  0  0
   -2.3780    0.3450    1.0270 C   0  0  0  0  0  0  0  0  0  0  0  0
   -2.2400    1.2820    2.0390 O   0  0  0  0  0  0  0  0  0  0  0  0
    1.2930    0.5290    0.0390 C   0  0  0  0  0  0  0  0  0  0  0  0
    1.7040   -0.7670   -0.1970 C   0  0  0  0  0  0  0  0  0  0  0  0
    3.0040   -1.1230   -0.5250 C   0  0  0  0  0  0  0  0  0  0  0  0
    3.9510   -0.1350   -0.6220 C   0  0  0  0  0  0  0  0  0  0  0  0
    5.2820   -0.4650   -0.9530 O   0  0  0  0  0  0  0  0  0  0  0  0
    3.5840    1.1590   -0.3940 C   0  0  0  0  0  0  0  0  0  0  0  0
    2.2560    1.4920   -0.0640 C   0  0  0  0  0  0  0  0  0  0  0  0
    2.0100    2.8070    0.1340 O   0  0  0  0  0  0  0  0  0  0  0  0
  1  2  2  0
  2  3  1  0
  2 11  1  0
  3  4  2  0
  3  9  1  0
  4  5  1  0
  5  6  2  0
  6  7  1  0
  6  8  1  0
  8  9  2  0
  9 10  1  0
 11 12  2  0
 11 17  1  0
 12 13  1  0
 13 14  2  0
 14 15  1  0
 14 16  1  0
 16 17  2  0
 17 18  1  0
M  END
