
     RDKit          3D

 19 19  0  0  0  0  0  0  0  0999 V2000
    6.0690    2.6580    1.4210 N   0  0  0  0  0  0  0  0  0  0  0  0
    4.8160    2.0180    1.5160 C   0  0  0  0  0  0  0  0  0  0  0  0
    4.5010    1.4690    2.6090 O   0  0  0  0  0  0  0  0  0  0  0  0
    3.8670    1.9830    0.3450 C   0  0  0  0  0  0  0  0  0  0  0  0
    2.6900    1.2830    0.7050 O   0  0  0  0  0  0  0  0  0  0  0  0
    1.6930    1.1350   -0.2170 C   0  0  0  0  0  0  0  0  0  0  0  0
    1.8380    1.6220   -1.3680 O   0  0  0  0  0  0  0  0  0  0  0  0
    0.4370    0.4290    0.0550 C   0  0  0  0  0  0  0  0  0  0  0  0
    0.3000   -0.0550    1.2070 O   0  0  0  0  0  0  0  0  0  0  0  0
   -0.5850    0.2750   -0.8830 N   0  0  0  0  0  0  0  0  0  0  0  0
   -1.8330   -0.4330   -0.6190 C   0  0  0  0  0  0  0  0  0  0  0  0
   -2.8990    0.3070   -0.6770 C   0  0  0  0  0  0  0  0  0  0  0  0
   -4.2930   -0.1040   -0.4610 C   0  0  0  0  0  0  0  0  0  0  0  0
   -4.8510    0.6200    0.6130 O   0  0  0  0  0  0  0  0  0  0  0  0
   -1.7590   -1.8750   -0.3260 C   0  0  0  0  0  0  0  0  0  0  0  0
   -0.6070   -2.5160   -0.3050 C   0  0  0  0  0  0  0  0  0  0  0  0
   -0.9940   -4.2160    0.0850 S   0  0  0  0  0  0  0  0  0  0  0  0
   -2.7810   -4.0050   -0.3570 C   0  0  0  0  0  0  0  0  0  0  0  0
   -2.8500   -2.6350   -0.0600 O   0  0  0  0  0  0  0  0  0  0  0  0
  1  2  1  0
  2  3  2  0
  2  4  1  0
  4  5  1  0
  5  6  1  0
  6  7  2  0
  6  8  1  0
  8  9  2  0
  8 10  1  0
 10 11  1  0
 11 12  2  3
 11 15  1  0
 12 13  1  0
 13 14  1  0
 15 16  2  0
 15 19  1  0
 16 17  1  0
 17 18  1  0
 18 19  1  0
M  END
