
     RDKit          3D

  9  9  0  0  0  0  0  0  0  0999 V2000
   -3.1750   -0.0220    0.9520 Cl  0  0  0  0  0  0  0  0  0  0  0  0
   -1.5370    0.1130    0.4230 C   0  0  0  0  0  0  0  0  0  0  0  0
   -0.9230    1.2830    0.5470 C   0  0  0  0  0  0  0  0  0  0  0  0
    0.4160    1.6700    0.1940 N   0  0  0  0  0  0  0  0  0  0  0  0
    1.4040    0.9000   -0.1620 C   0  0  0  0  0  0  0  0  0  0  0  0
    2.9270    1.6910   -0.5310 Cl  0  0  0  0  0  0  0  0  0  0  0  0
    1.3830   -0.5760   -0.2900 C   0  0  0  0  0  0  0  0  0  0  0  0
    0.3930   -1.1790    0.4540 O   0  0  0  0  0  0  0  0  0  0  0  0
   -0.8690   -1.1030   -0.1580 C   0  0  0  0  0  0  0  0  0  0  0  0
  1  2  1  0
  2  3  2  0
  2  9  1  0
  3  4  1  0
  4  5  2  0
  5  6  1  0
  5  7  1  0
  7  8  1  0
  8  9  1  0
M  END
