
     RDKit          3D

 12 12  0  0  0  0  0  0  0  0999 V2000
   -1.4320    1.9970    0.7360 O   0  0  0  0  0  0  0  0  0  0  0  0
   -1.6000    0.6920    1.1970 C   0  0  2  0  0  0  0  0  0  0  0  0
   -0.3780   -0.0640    0.7060 C   0  0  0  0  0  0  0  0  0  0  0  0
   -0.2840   -0.1400   -0.6040 C   0  0  0  0  0  0  0  0  0  0  0  0
    0.8390   -0.8310   -1.2560 C   0  0  0  0  0  0  0  0  0  0  0  0
    1.7860   -1.3640   -0.4400 O   0  0  0  0  0  0  0  0  0  0  0  0
    2.5610   -0.3670    0.1300 C   0  0  0  0  0  0  0  0  0  0  0  0
    3.5800   -0.9360    1.1060 C   0  0  0  0  0  0  0  0  0  0  0  0
    4.5010    0.4450    1.7610 Cl  0  0  0  0  0  0  0  0  0  0  0  0
   -1.3180    0.4780   -1.5060 C   0  0  0  0  0  0  0  0  0  0  0  0
   -2.7080    0.3680   -0.9880 C   0  0  0  0  0  0  0  0  0  0  0  0
   -2.7650    0.0560    0.4680 C   0  0  0  0  0  0  0  0  0  0  0  0
  2  1  1  6
  2  3  1  0
  2 12  1  0
  3  4  2  0
  4  5  1  0
  4 10  1  0
  5  6  1  0
  6  7  1  0
  7  8  1  0
  8  9  1  0
 10 11  1  0
 11 12  1  0
M  END
