
     RDKit          3D

 12 12  0  0  0  0  0  0  0  0999 V2000
    0.3680    1.1880    2.1770 O   0  0  0  0  0  0  0  0  0  0  0  0
   -0.0790    0.8310    1.0340 C   0  0  0  0  0  0  0  0  0  0  0  0
   -1.4980    1.2350    0.8410 C   0  0  0  0  0  0  0  0  0  0  0  0
   -2.2190    0.4270   -0.1840 C   0  0  2  0  0  0  0  0  0  0  0  0
   -3.5930    0.4700    0.1400 O   0  0  0  0  0  0  0  0  0  0  0  0
   -1.8170   -1.0100   -0.2400 C   0  0  0  0  0  0  0  0  0  0  0  0
   -0.7830   -1.1460   -1.3560 C   0  0  0  0  0  0  0  0  0  0  0  0
    0.5010   -0.6930   -0.8090 C   0  0  0  0  0  0  0  0  0  0  0  0
    0.8640    0.1180    0.1710 C   0  0  0  0  0  0  0  0  0  0  0  0
    2.2470    0.3780    0.4840 C   0  0  0  0  0  0  0  0  0  0  0  0
    3.3190   -0.2550   -0.2830 C   0  0  0  0  0  0  0  0  0  0  0  0
    4.8910    0.2870    0.3700 Cl  0  0  0  0  0  0  0  0  0  0  0  0
  1  2  2  0
  2  3  1  0
  2  9  1  0
  3  4  1  0
  4  5  1  1
  4  6  1  0
  6  7  1  0
  7  8  1  0
  8  9  2  0
  9 10  1  0
 10 11  1  0
 11 12  1  0
M  END
