
     RDKit          3D

 10 10  0  0  0  0  0  0  0  0999 V2000
    2.5510    1.5920    1.0240 Cl  0  0  0  0  0  0  0  0  0  0  0  0
    2.0770    0.2810   -0.0350 C   0  0  0  0  0  0  0  0  0  0  0  0
    0.5730    0.2330   -0.0900 C   0  0  0  0  0  0  0  0  0  0  0  0
    0.0070   -0.8890    0.3180 C   0  0  0  0  0  0  0  0  0  0  0  0
    1.0090   -2.2270    0.8890 Cl  0  0  0  0  0  0  0  0  0  0  0  0
   -1.4510   -1.0460    0.3070 C   0  0  0  0  0  0  0  0  0  0  0  0
   -2.0480    0.1160   -0.1750 O   0  0  0  0  0  0  0  0  0  0  0  0
   -1.4380    1.2650   -0.5920 C   0  0  0  0  0  0  0  0  0  0  0  0
   -2.4430    2.6170   -1.1680 Cl  0  0  0  0  0  0  0  0  0  0  0  0
   -0.1600    1.3610   -0.5660 N   0  0  0  0  0  0  0  0  0  0  0  0
  1  2  1  0
  2  3  1  0
  3  4  2  0
  3 10  1  0
  4  5  1  0
  4  6  1  0
  6  7  1  0
  7  8  1  0
  8  9  1  0
  8 10  2  0
M  END
