
     RDKit          3D

 12 12  0  0  0  0  0  0  0  0999 V2000
    2.5140   -1.7520   -0.4720 C   0  0  0  0  0  0  0  0  0  0  0  0
    1.4700   -1.0530   -1.1660 O   0  0  0  0  0  0  0  0  0  0  0  0
    0.4080   -0.6280   -0.3810 C   0  0  0  0  0  0  0  0  0  0  0  0
    0.4580    0.6370   -0.0090 C   0  0  0  0  0  0  0  0  0  0  0  0
    1.6620    1.3400   -0.5230 C   0  0  0  0  0  0  0  0  0  0  0  0
    2.4590    1.8380    0.4960 O   0  0  0  0  0  0  0  0  0  0  0  0
   -0.4930    1.4340    0.8260 C   0  0  1  0  0  0  0  0  0  0  0  0
    0.0380    3.1110    0.8920 Cl  0  0  0  0  0  0  0  0  0  0  0  0
   -1.8810    1.2770    0.2440 C   0  0  0  0  0  0  0  0  0  0  0  0
   -2.3800   -0.1040    0.6130 C   0  0  0  0  0  0  0  0  0  0  0  0
   -2.0110   -1.1360   -0.4160 C   0  0  0  0  0  0  0  0  0  0  0  0
   -0.6120   -1.6670   -0.0870 C   0  0  0  0  0  0  0  0  0  0  0  0
  1  2  1  0
  2  3  1  0
  3  4  2  0
  3 12  1  0
  4  5  1  0
  4  7  1  0
  5  6  1  0
  7  8  1  6
  7  9  1  0
  9 10  1  0
 10 11  1  0
 11 12  1  0
M  END
