
     RDKit          3D

 12 12  0  0  0  0  0  0  0  0999 V2000
    2.6830    0.5050   -1.4320 C   0  0  0  0  0  0  0  0  0  0  0  0
    2.3890   -0.0770   -0.2680 C   0  0  0  0  0  0  0  0  0  0  0  0
    3.2320   -0.2090    0.9080 C   0  0  0  0  0  0  0  0  0  0  0  0
    2.5020   -0.8590    1.8080 C   0  0  0  0  0  0  0  0  0  0  0  0
    3.0230   -1.2930    3.4170 Cl  0  0  0  0  0  0  0  0  0  0  0  0
    1.1860   -1.1740    1.2790 C   0  0  0  0  0  0  0  0  0  0  0  0
    1.1110   -0.7070    0.0330 C   0  0  0  0  0  0  0  0  0  0  0  0
    0.0110   -0.8110   -0.8060 O   0  0  0  0  0  0  0  0  0  0  0  0
   -1.0380    0.1480   -0.8030 C   0  0  0  0  0  0  0  0  0  0  0  0
   -1.6090    0.1380    0.5960 C   0  0  0  0  0  0  0  0  0  0  0  0
   -2.6420    1.0130    0.7810 O   0  0  0  0  0  0  0  0  0  0  0  0
   -3.7250    0.7670   -0.0520 C   0  0  0  0  0  0  0  0  0  0  0  0
  1  2  2  0
  2  3  1  0
  2  7  1  0
  3  4  2  0
  4  5  1  0
  4  6  1  0
  6  7  2  0
  7  8  1  0
  8  9  1  0
  9 10  1  0
 10 11  1  0
 11 12  1  0
M  END
