
     RDKit          3D

 16 17  0  0  0  0  0  0  0  0999 V2000
   -3.7760   -0.9070   -0.3280 N   0  0  0  0  0  0  0  0  0  0  0  0
   -2.8070   -0.0120   -0.8650 C   0  0  0  0  0  0  0  0  0  0  0  0
   -1.3950   -0.3870   -0.6110 C   0  0  0  0  0  0  0  0  0  0  0  0
   -1.0420   -1.5600   -1.2440 F   0  0  0  0  0  0  0  0  0  0  0  0
   -0.4980    0.2610    0.0490 C   0  0  0  0  0  0  0  0  0  0  0  0
   -0.7710    1.5540    0.6850 C   0  0  0  0  0  0  0  0  0  0  0  0
   -2.3410    1.6700    1.4220 Cl  0  0  0  0  0  0  0  0  0  0  0  0
    0.0660    2.6120    0.7610 C   0  0  0  0  0  0  0  0  0  0  0  0
    1.4400    2.7080    0.2250 C   0  0  0  0  0  0  0  0  0  0  0  0
    2.3160    1.7490   -0.0860 C   0  0  0  0  0  0  0  0  0  0  0  0
    2.0830    0.2970    0.0470 C   0  0  0  0  0  0  0  0  0  0  0  0
    3.2400   -0.4380    0.1160 C   0  0  0  0  0  0  0  0  0  0  0  0
    3.2180   -1.8080    0.2650 C   0  0  0  0  0  0  0  0  0  0  0  0
    1.9840   -2.4270    0.3460 C   0  0  0  0  0  0  0  0  0  0  0  0
    0.8020   -1.7190    0.2810 C   0  0  0  0  0  0  0  0  0  0  0  0
    0.8460   -0.3520    0.1290 C   0  0  0  0  0  0  0  0  0  0  0  0
  1  2  1  0
  2  3  1  0
  3  4  1  0
  3  5  2  3
  5  6  1  0
  5 16  1  0
  6  7  1  0
  6  8  2  0
  8  9  1  0
  9 10  2  0
 10 11  1  0
 11 12  2  0
 11 16  1  0
 12 13  1  0
 13 14  2  0
 14 15  1  0
 15 16  2  0
M  CHG  1   1   1
M  END
