
     RDKit          3D

 16 17  0  0  0  0  0  0  0  0999 V2000
   -2.6190   -2.6300    0.3550 C   0  0  0  0  0  0  0  0  0  0  0  0
   -1.9360   -1.3350    0.1040 C   0  0  0  0  0  0  0  0  0  0  0  0
   -2.6900   -0.2330   -0.2430 C   0  0  0  0  0  0  0  0  0  0  0  0
   -2.0600    0.9720   -0.4770 C   0  0  0  0  0  0  0  0  0  0  0  0
   -2.8610    2.1860   -0.8560 C   0  0  0  0  0  0  0  0  0  0  0  0
   -0.6870    1.0270   -0.3520 C   0  0  0  0  0  0  0  0  0  0  0  0
   -0.0920    2.2100   -0.5840 F   0  0  0  0  0  0  0  0  0  0  0  0
    0.0870   -0.0610   -0.0070 C   0  0  0  0  0  0  0  0  0  0  0  0
    1.5350    0.0660    0.1070 C   0  0  0  0  0  0  0  0  0  0  0  0
    2.0170    1.1680    0.7830 C   0  0  0  0  0  0  0  0  0  0  0  0
    3.3770    1.3790    0.9450 C   0  0  0  0  0  0  0  0  0  0  0  0
    4.2320    0.4860    0.4300 N   0  0  0  0  0  0  0  0  0  0  0  0
    3.8100   -0.6170   -0.2450 C   0  0  0  0  0  0  0  0  0  0  0  0
    4.9390   -1.7740   -0.9130 Cl  0  0  0  0  0  0  0  0  0  0  0  0
    2.4390   -0.8330   -0.4110 C   0  0  0  0  0  0  0  0  0  0  0  0
   -0.5650   -1.2670    0.2250 C   0  0  0  0  0  0  0  0  0  0  0  0
  1  2  1  0
  2  3  2  0
  2 16  1  0
  3  4  1  0
  4  5  1  0
  4  6  2  0
  6  7  1  0
  6  8  1  0
  8  9  1  0
  8 16  2  0
  9 10  2  0
  9 15  1  0
 10 11  1  0
 11 12  2  0
 12 13  1  0
 13 14  1  0
 13 15  2  0
M  CHG  1  12   1
M  END
