
     RDKit          3D

 18 19  0  0  0  0  0  0  0  0999 V2000
    2.2610   -1.8040    1.0120 C   0  0  0  0  0  0  0  0  0  0  0  0
    2.4160   -0.5260    0.2320 C   0  0  0  0  0  0  0  0  0  0  0  0
    3.6920   -0.1670   -0.1160 C   0  0  0  0  0  0  0  0  0  0  0  0
    5.0930   -1.1280    0.3130 Cl  0  0  0  0  0  0  0  0  0  0  0  0
    3.8460    0.9990   -0.8290 C   0  0  0  0  0  0  0  0  0  0  0  0
    2.7410    1.7510   -1.1630 C   0  0  0  0  0  0  0  0  0  0  0  0
    1.4460    1.3630   -0.7960 C   0  0  0  0  0  0  0  0  0  0  0  0
    1.2710    0.2040   -0.0860 C   0  0  0  0  0  0  0  0  0  0  0  0
    0.0080   -0.3000    0.3460 N   0  0  0  0  0  0  0  0  0  0  0  0
   -1.2510    0.2730    0.1370 C   0  0  0  0  0  0  0  0  0  0  0  0
   -1.4010    1.4360   -0.5390 N   0  0  0  0  0  0  0  0  0  0  0  0
   -2.5410    2.0600   -0.7900 C   0  0  0  0  0  0  0  0  0  0  0  0
   -3.6870    1.4670   -0.3180 C   0  0  0  0  0  0  0  0  0  0  0  0
   -3.6060    0.2920    0.3720 C   0  0  0  0  0  0  0  0  0  0  0  0
   -2.3780   -0.3450    0.6220 C   0  0  0  0  0  0  0  0  0  0  0  0
   -2.3940   -1.6050    1.3700 C   0  0  0  0  0  0  0  0  0  0  0  0
   -1.4110   -2.2970    1.6770 O   0  0  0  0  0  0  0  0  0  0  0  0
   -3.6480   -2.1150    1.8050 O   0  0  0  0  0  0  0  0  0  0  0  0
  1  2  1  0
  2  3  2  0
  2  8  1  0
  3  4  1  0
  3  5  1  0
  5  6  2  0
  6  7  1  0
  7  8  2  0
  8  9  1  0
  9 10  1  0
 10 11  2  0
 10 15  1  0
 11 12  1  0
 12 13  2  0
 13 14  1  0
 14 15  2  0
 15 16  1  0
 16 17  2  0
 16 18  1  0
M  END
