
     RDKit          3D

 16 16  0  0  0  0  0  0  0  0999 V2000
    2.4120   -0.5150   -2.4800 C   0  0  0  0  0  0  0  0  0  0  0  0
    2.3550   -0.0200   -1.2310 C   0  0  0  0  0  0  0  0  0  0  0  0
    3.5840    0.2610   -0.5410 C   0  0  0  0  0  0  0  0  0  0  0  0
    3.6180    0.7210    0.6770 C   0  0  0  0  0  0  0  0  0  0  0  0
    2.5770    0.9980    1.4670 F   0  0  0  0  0  0  0  0  0  0  0  0
    5.2170    1.0220    1.3900 Cl  0  0  0  0  0  0  0  0  0  0  0  0
    1.0460    0.1880   -0.6640 C   0  0  0  0  0  0  0  0  0  0  0  0
    0.6390    1.4410   -0.2720 C   0  0  0  0  0  0  0  0  0  0  0  0
   -0.6090    1.6040    0.2800 C   0  0  0  0  0  0  0  0  0  0  0  0
   -1.0510    2.9630    0.7070 C   0  0  0  0  0  0  0  0  0  0  0  0
   -1.4500    0.5110    0.4390 C   0  0  0  0  0  0  0  0  0  0  0  0
   -2.7870    0.6920    1.0320 C   0  0  0  0  0  0  0  0  0  0  0  0
   -1.0820   -0.7600    0.0590 C   0  0  0  0  0  0  0  0  0  0  0  0
   -2.0000   -1.9020    0.2410 C   0  0  0  0  0  0  0  0  0  0  0  0
   -1.4650   -3.1460   -0.2040 N   0  0  0  0  0  0  0  0  0  0  0  0
    0.1720   -0.8970   -0.4910 C   0  0  0  0  0  0  0  0  0  0  0  0
  1  2  2  0
  2  3  1  0
  2  7  1  0
  3  4  2  3
  4  5  1  0
  4  6  1  0
  7  8  2  0
  7 16  1  0
  8  9  1  0
  9 10  1  0
  9 11  2  0
 11 12  1  0
 11 13  1  0
 13 14  1  0
 13 16  2  0
 14 15  1  0
M  CHG  1  15   1
M  END
