
     RDKit          3D

 16 17  0  0  0  0  0  0  0  0999 V2000
    1.4690    2.1340    0.3670 C   0  0  0  0  0  0  0  0  0  0  0  0
    0.4230    1.1050    0.3350 C   0  0  0  0  0  0  0  0  0  0  0  0
   -0.8820    1.4690   -0.0580 C   0  0  0  0  0  0  0  0  0  0  0  0
   -1.9190    0.5650   -0.0800 C   0  0  0  0  0  0  0  0  0  0  0  0
   -3.2020    0.8910   -0.4580 C   0  0  0  0  0  0  0  0  0  0  0  0
   -4.2280   -0.0370   -0.4720 C   0  0  0  0  0  0  0  0  0  0  0  0
   -5.8500    0.4260   -0.9600 Cl  0  0  0  0  0  0  0  0  0  0  0  0
   -3.9880   -1.3520   -0.0960 C   0  0  0  0  0  0  0  0  0  0  0  0
   -5.0130   -2.2390   -0.1180 F   0  0  0  0  0  0  0  0  0  0  0  0
   -2.7060   -1.6830    0.2830 C   0  0  0  0  0  0  0  0  0  0  0  0
   -1.6750   -0.7390    0.2930 C   0  0  0  0  0  0  0  0  0  0  0  0
   -0.4030   -1.0810    0.6730 C   0  0  0  0  0  0  0  0  0  0  0  0
    0.6720   -0.1790    0.7040 C   0  0  0  0  0  0  0  0  0  0  0  0
    1.9800   -0.6870    1.0940 C   0  0  0  0  0  0  0  0  0  0  0  0
    2.9090   -1.0820    0.0070 C   0  0  0  0  0  0  0  0  0  0  0  0
    3.2900   -0.0580   -0.9280 N   0  0  0  0  0  0  0  0  0  0  0  0
  1  2  1  0
  2  3  2  0
  2 13  1  0
  3  4  1  0
  4  5  2  0
  4 11  1  0
  5  6  1  0
  6  7  1  0
  6  8  2  0
  8  9  1  0
  8 10  1  0
 10 11  2  0
 11 12  1  0
 12 13  2  0
 13 14  1  0
 14 15  1  0
 15 16  1  0
M  CHG  1  16   1
M  END
