
     RDKit          3D

 16 17  0  0  0  0  0  0  0  0999 V2000
    3.3210    1.1920    0.0620 C   0  0  0  0  0  0  0  0  0  0  0  0
    2.4080    1.0460   -1.1310 C   0  0  0  0  0  0  0  0  0  0  0  0
    1.5160   -0.1150   -1.1560 C   0  0  0  0  0  0  0  0  0  0  0  0
    0.4780   -0.3580   -0.1460 C   0  0  2  0  0  0  0  0  0  0  0  0
    1.0710   -0.4170    1.1750 N   0  0  0  0  0  0  0  0  0  0  0  0
    0.0410   -1.8510   -0.3890 C   0  0  0  0  0  0  0  0  0  0  0  0
   -0.6730   -2.3480    0.8190 C   0  0  0  0  0  0  0  0  0  0  0  0
   -1.8000   -1.4830    1.2540 C   0  0  0  0  0  0  0  0  0  0  0  0
   -1.8620   -0.1940    0.5080 C   0  0  0  0  0  0  0  0  0  0  0  0
   -3.0720    0.4390    0.5120 C   0  0  0  0  0  0  0  0  0  0  0  0
   -3.2920    1.6200   -0.1480 C   0  0  0  0  0  0  0  0  0  0  0  0
   -4.8750    2.3900   -0.1070 Cl  0  0  0  0  0  0  0  0  0  0  0  0
   -2.2340    2.1620   -0.8300 C   0  0  0  0  0  0  0  0  0  0  0  0
   -2.4290    3.3250   -1.4870 F   0  0  0  0  0  0  0  0  0  0  0  0
   -0.9990    1.5350   -0.8450 C   0  0  0  0  0  0  0  0  0  0  0  0
   -0.7850    0.3570   -0.1840 C   0  0  0  0  0  0  0  0  0  0  0  0
  1  2  1  0
  2  3  1  0
  3  4  1  0
  4  5  1  1
  4  6  1  0
  4 16  1  0
  6  7  1  0
  7  8  1  0
  8  9  1  0
  9 10  2  0
  9 16  1  0
 10 11  1  0
 11 12  1  0
 11 13  2  0
 13 14  1  0
 13 15  1  0
 15 16  2  0
M  CHG  1   5   1
M  END
