
     RDKit          3D

 16 17  0  0  0  0  0  0  0  0999 V2000
   -2.4720   -0.6220   -1.6970 C   0  0  0  0  0  0  0  0  0  0  0  0
   -2.6900    0.2160   -0.6670 C   0  0  0  0  0  0  0  0  0  0  0  0
   -3.6700    0.9810    0.1280 C   0  0  0  0  0  0  0  0  0  0  0  0
   -3.7690   -0.0090    1.2750 C   0  0  0  0  0  0  0  0  0  0  0  0
   -2.3380   -0.0700    1.6380 C   0  0  0  0  0  0  0  0  0  0  0  0
   -1.5930    0.0420    0.4370 C   0  0  0  0  0  0  0  0  0  0  0  0
   -0.2270   -0.0440    0.4390 N   0  0  0  0  0  0  0  0  0  0  0  0
    0.5160   -0.9480   -0.3620 C   0  0  0  0  0  0  0  0  0  0  0  0
    1.9070   -0.3880   -0.5210 C   0  0  0  0  0  0  0  0  0  0  0  0
    3.0530   -0.9570   -0.0370 C   0  0  0  0  0  0  0  0  0  0  0  0
    4.3250   -0.4700   -0.2260 C   0  0  0  0  0  0  0  0  0  0  0  0
    5.7640   -1.3400    0.2490 Cl  0  0  0  0  0  0  0  0  0  0  0  0
    4.4280    0.7440   -0.9910 C   0  0  0  0  0  0  0  0  0  0  0  0
    3.3210    1.3370   -1.4850 C   0  0  0  0  0  0  0  0  0  0  0  0
    2.0450    0.7770   -1.2650 C   0  0  0  0  0  0  0  0  0  0  0  0
    0.9800    1.3590   -1.8340 F   0  0  0  0  0  0  0  0  0  0  0  0
  1  2  2  0
  2  3  1  0
  2  6  1  0
  3  4  1  0
  4  5  1  0
  5  6  2  0
  6  7  1  0
  7  8  1  0
  8  9  1  0
  9 10  2  0
  9 15  1  0
 10 11  1  0
 11 12  1  0
 11 13  2  0
 13 14  1  0
 14 15  2  0
 15 16  1  0
M  CHG  1   7   1
M  END
