
     RDKit          3D

 16 16  0  0  0  0  0  0  0  0999 V2000
    6.0290   -1.0020    1.1730 C   0  0  0  0  0  0  0  0  0  0  0  0
    4.9400   -0.0920    0.8240 C   0  0  0  0  0  0  0  0  0  0  0  0
    3.6900   -0.5850    0.6570 C   0  0  0  0  0  0  0  0  0  0  0  0
    3.5410   -2.2970    0.8880 Cl  0  0  0  0  0  0  0  0  0  0  0  0
    2.6520    0.3580    0.3140 C   0  0  0  0  0  0  0  0  0  0  0  0
    3.0360    1.6930    0.1850 F   0  0  0  0  0  0  0  0  0  0  0  0
    1.4080    0.0800    0.1150 C   0  0  0  0  0  0  0  0  0  0  0  0
    0.5080    1.2080   -0.2300 C   0  0  0  0  0  0  0  0  0  0  0  0
   -0.7770    1.0140   -0.4480 C   0  0  0  0  0  0  0  0  0  0  0  0
   -1.6340    2.1980   -0.7950 C   0  0  0  0  0  0  0  0  0  0  0  0
   -1.4220   -0.2840   -0.3760 C   0  0  0  0  0  0  0  0  0  0  0  0
   -2.8700   -0.5210   -0.6290 C   0  0  0  0  0  0  0  0  0  0  0  0
   -3.7910    0.1370    0.3310 C   0  0  0  0  0  0  0  0  0  0  0  0
   -5.2160   -0.2340   -0.1050 C   0  0  0  0  0  0  0  0  0  0  0  0
   -0.6310   -1.3050   -0.0680 C   0  0  0  0  0  0  0  0  0  0  0  0
    0.7680   -1.1790    0.1830 N   0  0  0  0  0  0  0  0  0  0  0  0
  1  2  1  0
  2  3  2  3
  3  4  1  0
  3  5  1  0
  5  6  1  0
  5  7  2  3
  7  8  1  0
  7 16  1  0
  8  9  2  0
  9 10  1  0
  9 11  1  0
 11 12  1  0
 11 15  2  0
 12 13  1  0
 13 14  1  0
 15 16  1  0
M  END
