
     RDKit          3D

 16 17  0  0  0  0  0  0  0  0999 V2000
    2.5270   -0.4880    1.2440 N   0  0  0  0  0  0  0  0  0  0  0  0
    1.4000    0.0770    0.5320 C   0  0  0  0  0  0  0  0  0  0  0  0
    1.4980    1.3170    0.2130 N   0  0  0  0  0  0  0  0  0  0  0  0
    2.8270    2.3160    0.5620 S   0  0  1  0  0  0  0  0  0  0  0  0
    3.9380    1.6450    1.2710 O   0  0  0  0  0  0  0  0  0  0  0  0
    3.3930    2.9720   -0.6700 O   0  0  0  0  0  0  0  0  0  0  0  0
    0.2890   -0.8050    0.2520 C   0  0  0  0  0  0  0  0  0  0  0  0
   -0.8160   -0.4590   -0.4020 C   0  0  0  0  0  0  0  0  0  0  0  0
   -0.9470    0.9250   -0.8950 C   0  0  1  0  0  0  0  0  0  0  0  0
   -2.2020    1.2820   -1.7480 C   0  0  0  0  0  0  0  0  0  0  0  0
   -2.0930    1.7980   -0.3560 C   0  0  0  0  0  0  0  0  0  0  0  0
   -1.8370   -1.3920   -0.6150 N   0  0  0  0  0  0  0  0  0  0  0  0
   -1.7870   -2.7320   -0.1730 N   0  0  0  0  0  0  0  0  0  0  0  0
   -0.6250   -3.1350    0.5260 C   0  0  0  0  0  0  0  0  0  0  0  0
   -0.5190   -4.3160    0.9450 O   0  0  0  0  0  0  0  0  0  0  0  0
    0.3780   -2.1590    0.7170 N   0  0  0  0  0  0  0  0  0  0  0  0
  1  2  1  0
  2  3  2  3
  2  7  1  0
  4  3  1  6
  4  5  2  0
  4  6  2  0
  7  8  2  0
  7 16  1  0
  9  8  1  1
  8 12  1  0
  9 10  1  0
  9 11  1  0
 10 11  1  0
 12 13  1  0
 13 14  1  0
 14 15  2  0
 14 16  1  0
M  END
