
     RDKit          3D

 17 18  0  0  0  0  0  0  0  0999 V2000
    4.5150    0.0140   -0.6110 N   0  0  0  0  0  0  0  0  0  0  0  0
    4.0720   -0.8910    0.4210 C   0  0  1  0  0  0  0  0  0  0  0  0
    3.4940   -0.0720    1.5440 C   0  0  0  0  0  0  0  0  0  0  0  0
    2.0690    0.0710    1.1460 C   0  0  0  0  0  0  0  0  0  0  0  0
    1.3070    0.9980    1.5620 N   0  0  0  0  0  0  0  0  0  0  0  0
   -0.0500    1.1600    1.2010 C   0  0  0  0  0  0  0  0  0  0  0  0
   -0.9860    1.3080    2.0500 O   0  0  0  0  0  0  0  0  0  0  0  0
   -0.5070    1.1730   -0.1580 N   0  0  0  0  0  0  0  0  0  0  0  0
   -1.8510    1.3320   -0.5500 C   0  0  0  0  0  0  0  0  0  0  0  0
   -2.8230    0.3170   -0.0670 C   0  0  1  0  0  0  0  0  0  0  0  0
   -4.1870    0.6990   -0.6150 C   0  0  0  0  0  0  0  0  0  0  0  0
   -4.3920   -0.2340   -1.7030 N   0  0  0  0  0  0  0  0  0  0  0  0
   -3.1970   -0.7790   -1.9850 O   0  0  0  0  0  0  0  0  0  0  0  0
   -2.6160   -1.0100   -0.7340 C   0  0  0  0  0  0  0  0  0  0  0  0
    1.7160   -0.9710    0.2520 N   0  0  0  0  0  0  0  0  0  0  0  0
    2.9150   -1.6700   -0.0780 C   0  0  0  0  0  0  0  0  0  0  0  0
    2.9830   -2.7790   -0.6980 O   0  0  0  0  0  0  0  0  0  0  0  0
  2  1  1  6
  2  3  1  0
  2 16  1  0
  3  4  1  0
  4  5  2  3
  4 15  1  0
  5  6  1  0
  6  7  2  0
  6  8  1  0
  8  9  1  0
 10  9  1  6
 10 11  1  0
 10 14  1  0
 11 12  1  0
 12 13  1  0
 13 14  1  0
 15 16  1  0
 16 17  2  0
M  END
