
     RDKit          3D

 16 17  0  0  0  0  0  0  0  0999 V2000
    1.1620   -2.3890   -0.4170 O   0  0  0  0  0  0  0  0  0  0  0  0
    1.2250   -1.1550   -0.2520 C   0  0  0  0  0  0  0  0  0  0  0  0
    0.0190   -0.4590   -0.0880 N   0  0  0  0  0  0  0  0  0  0  0  0
   -1.2860   -1.0750   -0.0980 C   0  0  0  0  0  0  0  0  0  0  0  0
   -2.3430   -0.1030    0.0950 N   0  0  0  0  0  0  0  0  0  0  0  0
   -2.9930    0.5840   -0.8650 C   0  0  0  0  0  0  0  0  0  0  0  0
   -2.7740    0.4840   -2.1140 O   0  0  0  0  0  0  0  0  0  0  0  0
   -3.9090    1.3930   -0.2930 N   0  0  0  0  0  0  0  0  0  0  0  0
   -3.8460    1.2240    1.0240 N   0  0  0  0  0  0  0  0  0  0  0  0
   -2.8900    0.3100    1.2710 C   0  0  0  0  0  0  0  0  0  0  0  0
   -2.4960   -0.1520    2.3820 O   0  0  0  0  0  0  0  0  0  0  0  0
    2.5400   -0.4580   -0.2320 C   0  0  0  0  0  0  0  0  0  0  0  0
    3.6620   -1.0860   -0.3820 C   0  0  0  0  0  0  0  0  0  0  0  0
    4.8520   -0.3180   -0.3450 N   0  0  0  0  0  0  0  0  0  0  0  0
    4.2710    1.3400   -0.7000 S   0  0  0  0  0  0  0  0  0  0  0  0
    2.6080    1.0120   -0.0340 C   0  0  0  0  0  0  0  0  0  0  0  0
  1  2  2  0
  2  3  1  0
  2 12  1  0
  3  4  1  0
  4  5  1  0
  5  6  1  0
  5 10  1  0
  6  7  2  0
  6  8  1  0
  8  9  1  0
  9 10  1  0
 10 11  2  0
 12 13  2  0
 12 16  1  0
 13 14  1  0
 14 15  1  0
 15 16  1  0
M  END
