
     RDKit          3D

 17 17  0  0  0  0  0  0  0  0999 V2000
   -3.8810    1.6280   -0.8860 C   0  0  0  0  0  0  0  0  0  0  0  0
   -3.0570    0.5620   -0.2710 C   0  0  0  0  0  0  0  0  0  0  0  0
   -2.2630   -0.3850    0.2240 C   0  0  0  0  0  0  0  0  0  0  0  0
   -2.3910   -1.3700    1.0360 C   0  0  0  0  0  0  0  0  0  0  0  0
   -1.0810   -2.0700    1.1810 N   0  0  0  0  0  0  0  0  0  0  0  0
   -0.1580   -1.1620    1.1330 C   0  0  0  0  0  0  0  0  0  0  0  0
   -0.7510   -0.1150    0.1270 C   0  0  2  0  0  0  0  0  0  0  0  0
   -0.2010    1.0160    0.6190 N   0  0  0  0  0  0  0  0  0  0  0  0
    1.3990    1.0820   -0.1510 C   0  0  0  0  0  0  0  0  0  0  0  0
    0.9150    0.8050   -1.2210 O   0  0  0  0  0  0  0  0  0  0  0  0
    1.9800    1.3690    0.9200 N   0  0  0  0  0  0  0  0  0  0  0  0
    3.5200    1.1850   -0.0390 C   0  0  0  0  0  0  0  0  0  0  0  0
    4.5170    0.7450    0.7660 N   0  0  0  0  0  0  0  0  0  0  0  0
    3.3390    1.4960   -1.1190 O   0  0  0  0  0  0  0  0  0  0  0  0
   -0.5500   -0.6310   -1.2370 C   0  0  0  0  0  0  0  0  0  0  0  0
    0.2510   -1.9140   -1.1860 N   0  0  0  0  0  0  0  0  0  0  0  0
   -0.8470   -0.1710   -2.3350 O   0  0  0  0  0  0  0  0  0  0  0  0
  1  2  2  0
  2  3  1  0
  3  4  2  0
  3  7  1  0
  4  5  1  0
  5  6  1  0
  6  7  1  0
  7  8  1  6
  7 15  1  0
  8  9  1  0
  9 10  2  0
  9 11  1  0
 11 12  1  0
 12 13  1  0
 12 14  2  0
 15 16  1  0
 15 17  2  0
M  END
