
     RDKit          3D

 26 28  0  0  0  0  0  0  0  0999 V2000
   -3.2170    2.5180   -0.1700 C   0  0  0  0  0  0  0  0  0  0  0  0
   -3.4970    1.0770    0.1990 C   0  0  2  0  0  0  0  0  0  0  0  0
   -4.8650    0.6410   -0.3270 C   0  0  0  0  0  0  0  0  0  0  0  0
   -3.5970    1.0050    1.6940 C   0  0  0  0  0  0  0  0  0  0  0  0
   -3.8510   -0.2750    2.1720 O   0  0  0  0  0  0  0  0  0  0  0  0
   -2.4150    0.2180   -0.4020 C   0  0  1  0  0  0  0  0  0  0  0  0
   -2.4820    0.4340   -1.9180 C   0  0  0  0  0  0  0  0  0  0  0  0
   -3.7090    0.1120   -2.4560 O   0  0  0  0  0  0  0  0  0  0  0  0
   -1.1040    0.6190    0.1570 C   0  0  0  0  0  0  0  0  0  0  0  0
   -0.1870   -0.5730    0.5170 C   0  0  2  0  0  0  0  0  0  0  0  0
   -0.5920   -1.0320    1.7880 O   0  0  0  0  0  0  0  0  0  0  0  0
    1.1640    0.0250    0.6680 C   0  0  0  0  0  0  0  0  0  0  0  0
    2.3100   -0.8320    1.0640 C   0  0  1  0  0  0  0  0  0  0  0  0
    2.6360   -1.9120    0.1230 C   0  0  0  0  0  0  0  0  0  0  0  0
    4.0590   -2.1040   -0.0220 O   0  0  0  0  0  0  0  0  0  0  0  0
    4.8890   -1.0040   -0.1590 C   0  0  0  0  0  0  0  0  0  0  0  0
    5.9700   -0.9960   -0.9940 C   0  0  0  0  0  0  0  0  0  0  0  0
    6.7580    0.1480   -1.0780 C   0  0  0  0  0  0  0  0  0  0  0  0
    6.4490    1.2680   -0.3210 C   0  0  0  0  0  0  0  0  0  0  0  0
    7.4320    2.7160   -0.4150 Cl  0  0  0  0  0  0  0  0  0  0  0  0
    5.3380    1.2210    0.5210 C   0  0  0  0  0  0  0  0  0  0  0  0
    4.5490    0.1030    0.6170 C   0  0  0  0  0  0  0  0  0  0  0  0
    3.4510   -0.0250    1.4110 O   0  0  0  0  0  0  0  0  0  0  0  0
   -0.3470   -1.6420   -0.4980 C   0  0  0  0  0  0  0  0  0  0  0  0
   -1.8080   -2.0040   -0.7140 C   0  0  0  0  0  0  0  0  0  0  0  0
   -2.6720   -1.0950   -0.1560 O   0  0  0  0  0  0  0  0  0  0  0  0
  2  1  1  1
  2  3  1  0
  2  4  1  0
  2  6  1  0
  4  5  1  0
  6  7  1  6
  6  9  1  0
  6 26  1  0
  7  8  1  0
  9 10  1  0
 10 11  1  1
 10 12  1  0
 10 24  1  0
 13 12  1  6
 13 14  1  0
 13 23  1  0
 14 15  1  0
 15 16  1  0
 16 17  2  0
 16 22  1  0
 17 18  1  0
 18 19  2  0
 19 20  1  0
 19 21  1  0
 21 22  2  0
 22 23  1  0
 24 25  1  0
 25 26  1  0
M  END
