
     RDKit          3D

 27 28  0  0  0  0  0  0  0  0999 V2000
   -5.5290    3.1940    0.1910 C   0  0  0  0  0  0  0  0  0  0  0  0
   -5.8020    2.1440   -0.8070 C   0  0  0  0  0  0  0  0  0  0  0  0
   -5.0430    1.0270   -0.8330 C   0  0  0  0  0  0  0  0  0  0  0  0
   -3.9890    0.9280    0.1380 C   0  0  0  0  0  0  0  0  0  0  0  0
   -3.1180    0.0030    0.3600 C   0  0  0  0  0  0  0  0  0  0  0  0
   -3.0240   -1.2450   -0.4060 C   0  0  0  0  0  0  0  0  0  0  0  0
   -1.8430   -1.9940   -0.0090 O   0  0  0  0  0  0  0  0  0  0  0  0
   -0.7030   -1.2350    0.2820 C   0  0  0  0  0  0  0  0  0  0  0  0
   -0.8020   -0.1310    1.0080 C   0  0  0  0  0  0  0  0  0  0  0  0
    0.5490    0.4360    1.1360 C   0  0  0  0  0  0  0  0  0  0  0  0
    1.4190   -0.4990    0.3890 C   0  0  0  0  0  0  0  0  0  0  0  0
    2.8810   -0.3490    0.2350 C   0  0  0  0  0  0  0  0  0  0  0  0
    3.5280   -1.1990   -0.4200 O   0  0  0  0  0  0  0  0  0  0  0  0
    3.5570    0.7450    0.8200 N   0  0  0  0  0  0  0  0  0  0  0  0
    4.9760    0.9820    0.7280 C   0  0  0  0  0  0  0  0  0  0  0  0
    5.3650    1.1430   -0.7210 C   0  0  2  0  0  0  0  0  0  0  0  0
    6.8480    1.4840   -0.7590 C   0  0  0  0  0  0  0  0  0  0  0  0
    4.7000    2.2020   -1.2960 O   0  0  0  0  0  0  0  0  0  0  0  0
    0.6960   -1.4800   -0.1160 C   0  0  0  0  0  0  0  0  0  0  0  0
    1.2240   -2.5150   -0.8690 O   0  0  0  0  0  0  0  0  0  0  0  0
    1.6830   -3.7050   -0.3420 C   0  0  0  0  0  0  0  0  0  0  0  0
    2.2470   -4.8030   -1.1690 C   0  0  0  0  0  0  0  0  0  0  0  0
    1.6150   -3.8520    0.9060 O   0  0  0  0  0  0  0  0  0  0  0  0
   -2.1560    0.2580    1.5130 C   0  0  2  0  0  0  0  0  0  0  0  0
   -2.5830   -0.5810    2.5410 O   0  0  0  0  0  0  0  0  0  0  0  0
   -5.3750   -0.0160   -1.8670 C   0  0  0  0  0  0  0  0  0  0  0  0
   -6.8130    0.5990   -2.7900 Cl  0  0  0  0  0  0  0  0  0  0  0  0
  1  2  1  0
  2  3  2  3
  3  4  1  0
  3 26  1  0
  4  5  2  3
  5  6  1  0
  5 24  1  0
  6  7  1  0
  7  8  1  0
  8  9  2  0
  8 19  1  0
  9 10  1  0
  9 24  1  0
 10 11  1  0
 11 12  1  0
 11 19  2  0
 12 13  2  0
 12 14  1  0
 14 15  1  0
 15 16  1  0
 16 17  1  1
 16 18  1  0
 19 20  1  0
 20 21  1  0
 21 22  1  0
 21 23  2  0
 24 25  1  1
 26 27  1  0
M  END
