
     RDKit          3D

 14 15  0  0  0  0  0  0  0  0999 V2000
    3.1720   -0.0240   -1.5720 C   0  0  0  0  0  0  0  0  0  0  0  0
    1.6880    0.2640   -1.3030 C   0  0  1  0  0  0  0  0  0  0  0  0
    0.9510   -0.9020   -1.4930 N   0  0  0  0  0  0  0  0  0  0  0  0
    0.1480   -1.4480   -0.4850 C   0  0  0  0  0  0  0  0  0  0  0  0
   -1.1230   -0.7440   -0.1700 C   0  0  2  0  0  0  0  0  0  0  0  0
   -2.0290   -1.7280    0.5640 C   0  0  0  0  0  0  0  0  0  0  0  0
   -1.8220   -0.2020   -1.3950 C   0  0  0  0  0  0  0  0  0  0  0  0
   -0.8200    0.3490    0.7940 C   0  0  0  0  0  0  0  0  0  0  0  0
   -1.6350    0.8110    1.7290 C   0  0  0  0  0  0  0  0  0  0  0  0
   -0.9760    1.8470    2.4340 N   0  0  0  0  0  0  0  0  0  0  0  0
    0.3090    1.9610    1.8330 C   0  0  0  0  0  0  0  0  0  0  0  0
    0.4500    1.0850    0.8460 C   0  0  0  0  0  0  0  0  0  0  0  0
    1.6390    0.9220    0.0130 C   0  0  0  0  0  0  0  0  0  0  0  0
    2.7030    1.4000    0.4950 O   0  0  0  0  0  0  0  0  0  0  0  0
  2  1  1  1
  2  3  1  0
  2 13  1  0
  3  4  1  0
  4  5  1  0
  5  6  1  1
  5  7  1  0
  5  8  1  0
  8  9  2  0
  8 12  1  0
  9 10  1  0
 10 11  1  0
 11 12  2  0
 12 13  1  0
 13 14  2  0
M  CHG  1  10   1
M  END
