
     RDKit          3D

 27 28  0  0  0  0  0  0  0  0999 V2000
    1.4650    5.3300    2.0220 C   0  0  0  0  0  0  0  0  0  0  0  0
    2.6010    4.6030    1.3500 C   0  0  0  0  0  0  0  0  0  0  0  0
    2.2100    3.3480    0.8400 O   0  0  0  0  0  0  0  0  0  0  0  0
    1.2030    3.2110   -0.1290 C   0  0  0  0  0  0  0  0  0  0  0  0
    0.7000    4.2890   -0.4860 O   0  0  0  0  0  0  0  0  0  0  0  0
    0.8050    1.8660   -0.6550 C   0  0  0  0  0  0  0  0  0  0  0  0
    1.4730    0.8220   -0.1540 C   0  0  0  0  0  0  0  0  0  0  0  0
    1.4110   -0.5840   -0.3730 C   0  0  0  0  0  0  0  0  0  0  0  0
    0.9410   -1.6380    0.2740 C   0  0  0  0  0  0  0  0  0  0  0  0
    1.0750   -3.0010   -0.3250 C   0  0  0  0  0  0  0  0  0  0  0  0
    0.6850   -4.1570    0.1540 C   0  0  0  0  0  0  0  0  0  0  0  0
    1.0160   -5.2580   -0.7650 C   0  0  0  0  0  0  0  0  0  0  0  0
    1.6700   -4.5750   -1.8810 C   0  0  0  0  0  0  0  0  0  0  0  0
    1.6950   -3.2620   -1.6050 C   0  0  0  0  0  0  0  0  0  0  0  0
    0.3380   -1.6520    1.5680 N   0  0  0  0  0  0  0  0  0  0  0  0
   -0.7260   -0.8780    2.0760 C   0  0  0  0  0  0  0  0  0  0  0  0
   -0.4540   -0.0820    3.0530 O   0  0  0  0  0  0  0  0  0  0  0  0
   -2.0400   -0.8710    1.6480 O   0  0  0  0  0  0  0  0  0  0  0  0
   -2.5910   -1.3870    0.5180 C   0  0  0  0  0  0  0  0  0  0  0  0
   -3.3610   -2.3810    0.5230 O   0  0  0  0  0  0  0  0  0  0  0  0
   -2.3020   -0.7780   -0.8330 C   0  0  1  0  0  0  0  0  0  0  0  0
   -3.4250   -1.1600   -1.8120 C   0  0  0  0  0  0  0  0  0  0  0  0
   -2.2100    0.7210   -0.6810 C   0  0  1  0  0  0  0  0  0  0  0  0
   -1.9010    1.0890    0.6290 O   0  0  0  0  0  0  0  0  0  0  0  0
   -1.4450    1.4240   -1.6920 C   0  0  0  0  0  0  0  0  0  0  0  0
   -0.2170    1.9000   -1.6960 C   0  0  0  0  0  0  0  0  0  0  0  0
    0.2290    2.7910   -3.2350 Cl  0  0  0  0  0  0  0  0  0  0  0  0
  1  2  1  0
  2  3  1  0
  3  4  1  0
  4  5  2  0
  4  6  1  0
  6  7  2  0
  6 26  1  0
  7  8  1  0
  8  9  2  0
  9 10  1  0
  9 15  1  0
 10 11  2  0
 10 14  1  0
 11 12  1  0
 12 13  1  0
 13 14  2  0
 15 16  1  0
 16 17  2  0
 16 18  1  0
 18 19  1  0
 19 20  2  0
 19 21  1  0
 21 22  1  6
 21 23  1  0
 23 24  1  1
 23 25  1  0
 25 26  2  0
 26 27  1  0
M  END
