
     RDKit          3D

 27 29  0  0  0  0  0  0  0  0999 V2000
    5.7750   -1.0750   -0.8100 C   0  0  0  0  0  0  0  0  0  0  0  0
    4.8230   -0.5590    0.2260 C   0  0  2  0  0  0  0  0  0  0  0  0
    4.7430   -1.4180    1.2760 O   0  0  0  0  0  0  0  0  0  0  0  0
    3.8330   -1.0480    2.2300 C   0  0  0  0  0  0  0  0  0  0  0  0
    2.4030   -0.9020    1.6490 C   0  0  0  0  0  0  0  0  0  0  0  0
    2.4800   -1.2380    0.2020 C   0  0  1  0  0  0  0  0  0  0  0  0
    1.2590   -1.1420   -0.4520 O   0  0  0  0  0  0  0  0  0  0  0  0
    0.8010    0.1310   -0.5400 C   0  0  1  0  0  0  0  0  0  0  0  0
   -0.3030    0.2040   -1.6120 C   0  0  0  0  0  0  0  0  0  0  0  0
   -1.5560   -0.4130   -1.0100 C   0  0  0  0  0  0  0  0  0  0  0  0
   -1.7310   -1.6050   -0.8950 O   0  0  0  0  0  0  0  0  0  0  0  0
   -2.4790    0.4150   -0.5740 O   0  0  0  0  0  0  0  0  0  0  0  0
   -3.5110    0.9420   -0.0410 C   0  0  0  0  0  0  0  0  0  0  0  0
   -4.8500    0.3720   -0.3170 C   0  0  0  0  0  0  0  0  0  0  0  0
   -5.1670   -0.8010    0.4050 C   0  0  0  0  0  0  0  0  0  0  0  0
   -6.4440   -1.3120    0.3840 C   0  0  0  0  0  0  0  0  0  0  0  0
   -7.4430   -0.7000   -0.3440 C   0  0  0  0  0  0  0  0  0  0  0  0
   -7.1350    0.4680   -1.0610 C   0  0  0  0  0  0  0  0  0  0  0  0
   -5.8300    0.9750   -1.0210 C   0  0  0  0  0  0  0  0  0  0  0  0
   -5.4020    2.3950   -1.9680 Cl  0  0  0  0  0  0  0  0  0  0  0  0
   -0.1010    0.1390    0.7510 C   0  0  0  0  0  0  0  0  0  0  0  0
   -0.4920    1.2420    1.4560 N   0  0  0  0  0  0  0  0  0  0  0  0
   -0.4480   -1.0320    1.1100 O   0  0  0  0  0  0  0  0  0  0  0  0
    1.6100    1.3150   -0.5310 C   0  0  0  0  0  0  0  0  0  0  0  0
    3.0750    1.1040   -0.3260 C   0  0  2  0  0  0  0  0  0  0  0  0
    3.8050    1.8380   -1.2480 O   0  0  0  0  0  0  0  0  0  0  0  0
    3.4740   -0.3520   -0.4680 C   0  0  1  0  0  0  0  0  0  0  0  0
  2  1  1  6
  2  3  1  0
 27  2  1  1
  3  4  1  0
  4  5  1  0
  6  5  1  1
  6  7  1  0
  6 27  1  0
  7  8  1  0
  8  9  1  6
  8 21  1  0
  8 24  1  0
  9 10  1  0
 10 11  2  0
 10 12  1  0
 12 13  1  0
 13 14  1  0
 14 15  2  0
 14 19  1  0
 15 16  1  0
 16 17  2  0
 17 18  1  0
 18 19  2  0
 19 20  1  0
 21 22  1  0
 21 23  2  0
 24 25  1  0
 25 26  1  6
 25 27  1  0
M  END
