
     RDKit          3D

 26 28  0  0  0  0  0  0  0  0999 V2000
   -4.0310   -0.7510   -2.9420 C   0  0  0  0  0  0  0  0  0  0  0  0
   -3.3710    0.2960   -2.0260 C   0  0  1  0  0  0  0  0  0  0  0  0
   -4.4540    0.9230   -1.2240 C   0  0  2  0  0  0  0  0  0  0  0  0
   -4.6380    2.3980   -1.5440 C   0  0  0  0  0  0  0  0  0  0  0  0
   -4.1380    0.7000    0.2230 C   0  0  0  0  0  0  0  0  0  0  0  0
   -2.8440   -0.0400    0.2890 C   0  0  2  0  0  0  0  0  0  0  0  0
   -2.9990   -1.3500    1.0700 C   0  0  0  0  0  0  0  0  0  0  0  0
   -1.9550    0.8070    0.9800 O   0  0  0  0  0  0  0  0  0  0  0  0
   -2.4410   -0.3210   -1.0890 C   0  0  2  0  0  0  0  0  0  0  0  0
   -1.0360   -0.0490   -1.3590 N   0  0  0  0  0  0  0  0  0  0  0  0
   -0.0220   -1.0360   -1.3470 C   0  0  0  0  0  0  0  0  0  0  0  0
   -0.4390   -2.2150   -1.0600 O   0  0  0  0  0  0  0  0  0  0  0  0
    1.4040   -0.7760   -1.6280 C   0  0  0  0  0  0  0  0  0  0  0  0
    2.2750   -0.8210   -0.4490 C   0  0  0  0  0  0  0  0  0  0  0  0
    2.6350   -1.9920    0.1680 C   0  0  0  0  0  0  0  0  0  0  0  0
    3.4710   -2.0230    1.2880 C   0  0  0  0  0  0  0  0  0  0  0  0
    3.9220   -3.5180    2.0740 Cl  0  0  0  0  0  0  0  0  0  0  0  0
    3.9660   -0.8390    1.8100 C   0  0  0  0  0  0  0  0  0  0  0  0
    3.6180    0.3330    1.2040 C   0  0  0  0  0  0  0  0  0  0  0  0
    2.7850    0.3600    0.0900 C   0  0  0  0  0  0  0  0  0  0  0  0
    4.2280    1.4060    1.8880 O   0  0  0  0  0  0  0  0  0  0  0  0
    5.3140    0.8920    2.6190 C   0  0  2  0  0  0  0  0  0  0  0  0
    6.5850    0.8420    1.8570 C   0  0  0  0  0  0  0  0  0  0  0  0
    6.6040    1.2290    0.6490 O   0  0  0  0  0  0  0  0  0  0  0  0
    7.7140    0.3680    2.4980 O   0  0  0  0  0  0  0  0  0  0  0  0
    4.8290   -0.5030    2.9660 C   0  0  0  0  0  0  0  0  0  0  0  0
  2  1  1  6
  2  3  1  0
  2  9  1  0
  3  4  1  1
  3  5  1  0
  5  6  1  0
  6  7  1  1
  6  8  1  0
  6  9  1  0
  9 10  1  6
 10 11  1  0
 11 12  2  0
 11 13  1  0
 13 14  1  0
 14 15  2  0
 14 20  1  0
 15 16  1  0
 16 17  1  0
 16 18  2  0
 18 19  1  0
 18 26  1  0
 19 20  2  0
 19 21  1  0
 21 22  1  0
 22 23  1  6
 22 26  1  0
 23 24  2  0
 23 25  1  0
M  END
