
     RDKit          3D

 17 19  0  0  0  0  0  0  0  0999 V2000
   -4.6460   -0.8190    0.1230 O   0  0  0  0  0  0  0  0  0  0  0  0
   -3.3940   -0.7410    0.0900 C   0  0  0  0  0  0  0  0  0  0  0  0
   -2.8350    0.4720    0.0810 N   0  0  0  0  0  0  0  0  0  0  0  0
   -1.4690    0.6300    0.0450 C   0  0  0  0  0  0  0  0  0  0  0  0
   -0.6640   -0.4840    0.0190 C   0  0  0  0  0  0  0  0  0  0  0  0
   -1.2400   -1.7100    0.0280 N   0  0  0  0  0  0  0  0  0  0  0  0
   -2.5840   -1.8590    0.0630 C   0  0  0  0  0  0  0  0  0  0  0  0
   -3.1220   -2.9970    0.0720 O   0  0  0  0  0  0  0  0  0  0  0  0
    0.7840   -0.3060   -0.0190 C   0  0  0  0  0  0  0  0  0  0  0  0
    1.5890   -1.4320   -0.0460 C   0  0  0  0  0  0  0  0  0  0  0  0
    2.9780   -1.2940   -0.0820 C   0  0  0  0  0  0  0  0  0  0  0  0
    3.5030   -0.0380   -0.0900 C   0  0  0  0  0  0  0  0  0  0  0  0
    5.3970    0.1670   -0.1390 Br  0  0  0  0  0  0  0  0  0  0  0  0
    2.7340    1.0940   -0.0640 C   0  0  0  0  0  0  0  0  0  0  0  0
    1.3670    0.9490   -0.0290 C   0  0  0  0  0  0  0  0  0  0  0  0
    0.4960    2.0730   -0.0000 N   0  0  0  0  0  0  0  0  0  0  0  0
   -0.9320    2.0100    0.0380 C   0  0  0  0  0  0  0  0  0  0  0  0
  1  2  2  0
  2  3  1  0
  2  7  1  0
  3  4  1  0
  4  5  2  0
  4 17  1  0
  5  6  1  0
  5  9  1  0
  6  7  1  0
  7  8  2  0
  9 10  2  0
  9 15  1  0
 10 11  1  0
 11 12  2  0
 12 13  1  0
 12 14  1  0
 14 15  2  0
 15 16  1  0
 16 17  1  0
M  END
