
     RDKit          3D

 17 18  0  0  0  0  0  0  0  0999 V2000
    4.3530    1.4000    0.1710 C   0  0  0  0  0  0  0  0  0  0  0  0
    3.6820    0.0870    0.2150 C   0  0  0  0  0  0  0  0  0  0  0  0
    4.3960   -0.9420    0.2910 O   0  0  0  0  0  0  0  0  0  0  0  0
    2.2360   -0.0730    0.1750 C   0  0  0  0  0  0  0  0  0  0  0  0
    1.7090   -1.2830    0.2180 C   0  0  0  0  0  0  0  0  0  0  0  0
    2.8670   -2.7880    0.3330 Br  0  0  0  0  0  0  0  0  0  0  0  0
    0.2980   -1.5240    0.1830 N   0  0  0  0  0  0  0  0  0  0  0  0
   -0.6520   -0.4440    0.0970 C   0  0  0  0  0  0  0  0  0  0  0  0
   -1.9510   -0.6770    0.0660 C   0  0  0  0  0  0  0  0  0  0  0  0
   -2.4970   -2.0660    0.1180 C   0  0  0  0  0  0  0  0  0  0  0  0
   -3.7980   -1.9360    0.0680 C   0  0  0  0  0  0  0  0  0  0  0  0
   -4.1550   -0.5950   -0.0120 N   0  0  0  0  0  0  0  0  0  0  0  0
   -3.0990    0.1730   -0.0150 C   0  0  0  0  0  0  0  0  0  0  0  0
   -3.1110    1.6540   -0.0900 C   0  0  0  0  0  0  0  0  0  0  0  0
   -0.0980    0.8430    0.0510 N   0  0  0  0  0  0  0  0  0  0  0  0
    1.3370    1.0840    0.0860 C   0  0  0  0  0  0  0  0  0  0  0  0
    1.7880    2.2360    0.0440 O   0  0  0  0  0  0  0  0  0  0  0  0
  1  2  1  0
  2  3  2  0
  2  4  1  0
  4  5  2  0
  4 16  1  0
  5  6  1  0
  5  7  1  0
  7  8  1  0
  8  9  2  3
  8 15  1  0
  9 10  1  0
  9 13  1  0
 10 11  2  0
 11 12  1  0
 12 13  2  0
 13 14  1  0
 15 16  1  0
 16 17  2  0
M  END
