
     RDKit          3D

 17 18  0  0  0  0  0  0  0  0999 V2000
    1.1370   -1.2950   -1.3830 N   0  0  0  0  0  0  0  0  0  0  0  0
    1.3650   -0.5830   -0.3270 C   0  0  0  0  0  0  0  0  0  0  0  0
    2.6370   -0.4120    0.2780 N   0  0  0  0  0  0  0  0  0  0  0  0
    3.8260   -0.9920   -0.1850 C   0  0  0  0  0  0  0  0  0  0  0  0
    4.8480   -0.2460   -0.5500 C   0  0  0  0  0  0  0  0  0  0  0  0
    4.6820    1.6480   -0.4370 Br  0  0  0  0  0  0  0  0  0  0  0  0
    2.4090    0.4470    1.4090 C   0  0  0  0  0  0  0  0  0  0  0  0
    3.3010    0.8180    2.1820 O   0  0  0  0  0  0  0  0  0  0  0  0
    0.9950    0.7910    1.4790 C   0  0  0  0  0  0  0  0  0  0  0  0
    0.4200    1.5150    2.3220 O   0  0  0  0  0  0  0  0  0  0  0  0
    0.3670    0.1460    0.4000 N   0  0  0  0  0  0  0  0  0  0  0  0
   -1.0290    0.1710    0.0330 C   0  0  0  0  0  0  0  0  0  0  0  0
   -1.9330   -0.2670    0.8770 C   0  0  0  0  0  0  0  0  0  0  0  0
   -3.3510   -0.2570    0.5400 C   0  0  0  0  0  0  0  0  0  0  0  0
   -3.7490    0.2600   -0.7830 C   0  0  0  0  0  0  0  0  0  0  0  0
   -2.6860    0.7300   -1.6680 C   0  0  0  0  0  0  0  0  0  0  0  0
   -1.4350    0.6750   -1.2610 C   0  0  0  0  0  0  0  0  0  0  0  0
  1  2  2  0
  2  3  1  0
  2 11  1  0
  3  4  1  0
  3  7  1  0
  4  5  2  3
  5  6  1  0
  7  8  2  0
  7  9  1  0
  9 10  2  0
  9 11  1  0
 11 12  1  0
 12 13  2  0
 12 17  1  0
 13 14  1  0
 14 15  1  0
 15 16  1  0
 16 17  2  0
M  END
