
     RDKit          3D

 17 18  0  0  0  0  0  0  0  0999 V2000
   -2.7790   -2.8950   -0.1830 C   0  0  0  0  0  0  0  0  0  0  0  0
   -1.6400   -1.9670   -0.0300 C   0  0  0  0  0  0  0  0  0  0  0  0
   -1.7990   -0.6640    0.0400 C   0  0  0  0  0  0  0  0  0  0  0  0
   -3.1490   -0.0780   -0.0330 C   0  0  0  0  0  0  0  0  0  0  0  0
   -3.2860    1.2240    0.0390 C   0  0  0  0  0  0  0  0  0  0  0  0
   -5.0430    1.9600   -0.0570 Br  0  0  0  0  0  0  0  0  0  0  0  0
   -2.1360    2.1140    0.1900 C   0  0  0  0  0  0  0  0  0  0  0  0
   -0.9070    1.6300    0.2600 C   0  0  0  0  0  0  0  0  0  0  0  0
    0.2370    2.4470    0.4050 N   0  0  0  0  0  0  0  0  0  0  0  0
    1.5170    1.7970    0.4680 C   0  0  0  0  0  0  0  0  0  0  0  0
    2.5110    2.5510    0.5980 O   0  0  0  0  0  0  0  0  0  0  0  0
    1.6480    0.3500    0.3860 C   0  0  0  0  0  0  0  0  0  0  0  0
    2.9540   -0.3160    0.4500 C   0  0  0  0  0  0  0  0  0  0  0  0
    3.8860    0.1150   -0.6610 C   0  0  0  0  0  0  0  0  0  0  0  0
    5.0870   -0.6020   -0.4700 O   0  0  0  0  0  0  0  0  0  0  0  0
    0.5710   -0.3440    0.2540 N   0  0  0  0  0  0  0  0  0  0  0  0
   -0.7030    0.2250    0.1860 N   0  0  0  0  0  0  0  0  0  0  0  0
  1  2  1  0
  2  3  2  3
  3  4  1  0
  3 17  1  0
  4  5  2  0
  5  6  1  0
  5  7  1  0
  7  8  2  0
  8  9  1  0
  8 17  1  0
  9 10  1  0
 10 11  2  0
 10 12  1  0
 12 13  1  0
 12 16  2  0
 13 14  1  0
 14 15  1  0
 16 17  1  0
M  END
