
     RDKit          3D

 19 20  0  0  0  0  0  0  0  0999 V2000
    6.1390   -1.5940   -0.6020 N   0  0  0  0  0  0  0  0  0  0  0  0
    5.6200   -0.5560    0.6640 S   0  0  2  0  0  0  0  0  0  0  0  0
    6.6310    0.5790    0.7400 O   0  0  0  0  0  0  0  0  0  0  0  0
    5.4950   -1.2530    1.9760 O   0  0  0  0  0  0  0  0  0  0  0  0
    4.0840    0.1280    0.2120 C   0  0  0  0  0  0  0  0  0  0  0  0
    2.9290   -0.5340    0.5630 C   0  0  0  0  0  0  0  0  0  0  0  0
    1.6880   -0.0460    0.2350 C   0  0  0  0  0  0  0  0  0  0  0  0
    1.5850    1.1480   -0.4710 C   0  0  0  0  0  0  0  0  0  0  0  0
   -0.0090    1.8300   -0.9250 S   0  0  0  0  0  0  0  0  0  0  0  0
   -1.2920    0.7140   -0.3100 C   0  0  0  0  0  0  0  0  0  0  0  0
   -2.6680    1.2370   -0.6630 C   0  0  0  0  0  0  0  0  0  0  0  0
   -3.6980    0.3090   -0.1510 C   0  0  0  0  0  0  0  0  0  0  0  0
   -4.1410   -0.7260   -0.9400 C   0  0  0  0  0  0  0  0  0  0  0  0
   -5.1000   -1.6080   -0.4910 C   0  0  0  0  0  0  0  0  0  0  0  0
   -5.6480   -1.4840    0.7660 C   0  0  0  0  0  0  0  0  0  0  0  0
   -5.2020   -0.4410    1.5630 C   0  0  0  0  0  0  0  0  0  0  0  0
   -4.2310    0.4560    1.1130 C   0  0  0  0  0  0  0  0  0  0  0  0
    2.7360    1.8130   -0.8240 C   0  0  0  0  0  0  0  0  0  0  0  0
    3.9510    1.3090   -0.4880 C   0  0  0  0  0  0  0  0  0  0  0  0
  2  1  1  6
  2  3  2  0
  2  4  2  0
  2  5  1  0
  5  6  2  0
  5 19  1  0
  6  7  1  0
  7  8  2  0
  8  9  1  0
  8 18  1  0
  9 10  1  0
 10 11  1  0
 11 12  1  0
 12 13  2  0
 12 17  1  0
 13 14  1  0
 14 15  2  0
 15 16  1  0
 16 17  2  0
 18 19  2  0
M  END
