
     RDKit          3D

 17 18  0  0  0  0  0  0  0  0999 V2000
    1.4350   -0.2730   -1.4070 O   0  0  0  0  0  0  0  0  0  0  0  0
    2.3450    0.2020   -0.6910 C   0  0  0  0  0  0  0  0  0  0  0  0
    3.6520    0.5050   -1.0610 O   0  0  0  0  0  0  0  0  0  0  0  0
    4.1910    1.3940   -0.0800 C   0  0  0  0  0  0  0  0  0  0  0  0
    3.2870    1.2930    1.1260 C   0  0  0  0  0  0  0  0  0  0  0  0
    2.1640    0.5190    0.6820 N   0  0  0  0  0  0  0  0  0  0  0  0
    1.0760    0.1410    1.4680 N   0  0  0  0  0  0  0  0  0  0  0  0
   -0.0810   -0.5010    0.8850 C   0  0  0  0  0  0  0  0  0  0  0  0
   -0.8310    0.3250    0.1550 C   0  0  0  0  0  0  0  0  0  0  0  0
   -2.0490    0.0350   -0.5670 C   0  0  0  0  0  0  0  0  0  0  0  0
   -2.8020    0.9770   -1.0570 C   0  0  0  0  0  0  0  0  0  0  0  0
   -2.6400    2.4250   -1.0130 C   0  0  0  0  0  0  0  0  0  0  0  0
   -4.2170    3.1440   -0.1040 Br  0  0  0  0  0  0  0  0  0  0  0  0
   -2.5650   -1.3600   -0.8220 C   0  0  0  0  0  0  0  0  0  0  0  0
   -1.4340   -2.2170   -1.0080 N   0  0  0  0  0  0  0  0  0  0  0  0
   -0.8940   -2.7810    0.1690 C   0  0  0  0  0  0  0  0  0  0  0  0
   -0.2620   -1.9080    1.1710 C   0  0  0  0  0  0  0  0  0  0  0  0
  1  2  2  0
  2  3  1  0
  2  6  1  0
  3  4  1  0
  4  5  1  0
  5  6  1  0
  6  7  1  0
  7  8  1  0
  8  9  2  0
  8 17  1  0
  9 10  1  0
 10 11  2  3
 10 14  1  0
 11 12  1  0
 12 13  1  0
 14 15  1  0
 15 16  1  0
 16 17  1  0
M  END
