
     RDKit          3D

 17 19  0  0  0  0  0  0  0  0999 V2000
   -6.1460    2.1050    0.8680 Br  0  0  0  0  0  0  0  0  0  0  0  0
   -4.6930    1.0060    0.3550 C   0  0  0  0  0  0  0  0  0  0  0  0
   -4.9560   -0.1670   -0.3250 C   0  0  0  0  0  0  0  0  0  0  0  0
   -3.9000   -0.9840   -0.7090 C   0  0  0  0  0  0  0  0  0  0  0  0
   -2.6010   -0.6300   -0.4150 C   0  0  0  0  0  0  0  0  0  0  0  0
   -1.4150   -1.2420   -0.6740 N   0  0  0  0  0  0  0  0  0  0  0  0
   -0.4570   -0.4560   -0.1620 C   0  0  0  0  0  0  0  0  0  0  0  0
    0.7970   -0.7030   -0.2110 N   0  0  0  0  0  0  0  0  0  0  0  0
    1.7680    0.1910    0.3630 C   0  0  0  0  0  0  0  0  0  0  0  0
    3.0230   -0.5160    0.8040 C   0  0  1  0  0  0  0  0  0  0  0  0
    3.7920   -1.1280   -0.3130 C   0  0  0  0  0  0  0  0  0  0  0  0
    4.8460   -0.2580   -0.5640 O   0  0  0  0  0  0  0  0  0  0  0  0
    4.6370    0.8400    0.2510 C   0  0  0  0  0  0  0  0  0  0  0  0
    3.8950    0.4130    1.3400 O   0  0  0  0  0  0  0  0  0  0  0  0
   -1.0360    0.6180    0.4010 N   0  0  0  0  0  0  0  0  0  0  0  0
   -2.3670    0.5440    0.2630 C   0  0  0  0  0  0  0  0  0  0  0  0
   -3.3810    1.3700    0.6550 C   0  0  0  0  0  0  0  0  0  0  0  0
  1  2  1  0
  2  3  2  0
  2 17  1  0
  3  4  1  0
  4  5  2  0
  5  6  1  0
  5 16  1  0
  6  7  1  0
  7  8  2  3
  7 15  1  0
  8  9  1  0
 10  9  1  6
 10 11  1  0
 10 14  1  0
 11 12  1  0
 12 13  1  0
 13 14  1  0
 15 16  1  0
 16 17  2  0
M  END
