
     RDKit          3D

 17 19  0  0  0  0  0  0  0  0999 V2000
    1.9240    2.0000    0.5040 O   0  0  0  0  0  0  0  0  0  0  0  0
    1.4490    0.9390    0.0230 C   0  0  0  0  0  0  0  0  0  0  0  0
    0.1030    0.6330    0.0400 C   0  0  0  0  0  0  0  0  0  0  0  0
    0.0130   -0.6040   -0.5810 C   0  0  0  0  0  0  0  0  0  0  0  0
    1.2470   -0.9640   -0.9250 N   0  0  0  0  0  0  0  0  0  0  0  0
    2.1230   -0.0430   -0.5670 N   0  0  0  0  0  0  0  0  0  0  0  0
    3.5600   -0.1170   -0.7900 C   0  0  0  0  0  0  0  0  0  0  0  0
    4.2580   -0.7780    0.3630 C   0  0  0  0  0  0  0  0  0  0  0  0
    4.0820   -0.1150    1.5630 O   0  0  0  0  0  0  0  0  0  0  0  0
   -1.1770   -1.1600   -0.7120 C   0  0  0  0  0  0  0  0  0  0  0  0
   -2.3890   -0.5100   -0.2230 C   0  0  0  0  0  0  0  0  0  0  0  0
   -3.6690   -0.8130   -0.2130 C   0  0  0  0  0  0  0  0  0  0  0  0
   -4.3100   -2.4650   -0.9750 Br  0  0  0  0  0  0  0  0  0  0  0  0
   -4.4890    0.2350    0.4290 C   0  0  0  0  0  0  0  0  0  0  0  0
   -3.5070    1.2790    0.8370 C   0  0  0  0  0  0  0  0  0  0  0  0
   -2.2440    0.7610    0.4080 N   0  0  0  0  0  0  0  0  0  0  0  0
   -0.9330    1.2900    0.5100 C   0  0  0  0  0  0  0  0  0  0  0  0
  1  2  2  0
  2  3  1  0
  2  6  1  0
  3  4  1  0
  3 17  2  0
  4  5  1  0
  4 10  2  0
  5  6  1  0
  6  7  1  0
  7  8  1  0
  8  9  1  0
 10 11  1  0
 11 12  2  0
 11 16  1  0
 12 13  1  0
 12 14  1  0
 14 15  1  0
 15 16  1  0
 16 17  1  0
M  END
