
     RDKit          3D

 17 19  0  0  0  0  0  0  0  0999 V2000
    3.5010   -2.6900    0.4640 O   0  0  0  0  0  0  0  0  0  0  0  0
    2.8310   -1.6790    0.0850 C   0  0  0  0  0  0  0  0  0  0  0  0
    3.5420   -0.4510   -0.2810 C   0  0  0  0  0  0  0  0  0  0  0  0
    3.1720    0.7400    0.5740 C   0  0  0  0  0  0  0  0  0  0  0  0
    1.8160    1.1570    0.4370 N   0  0  0  0  0  0  0  0  0  0  0  0
    0.5810    0.4830    0.1990 C   0  0  0  0  0  0  0  0  0  0  0  0
    0.4110   -0.8650    0.0360 C   0  0  0  0  0  0  0  0  0  0  0  0
   -0.8270   -1.3400   -0.1820 N   0  0  0  0  0  0  0  0  0  0  0  0
   -1.9270   -0.5340   -0.2480 C   0  0  0  0  0  0  0  0  0  0  0  0
   -1.7680    0.8270   -0.0850 C   0  0  0  0  0  0  0  0  0  0  0  0
   -0.5100    1.3420    0.1400 C   0  0  0  0  0  0  0  0  0  0  0  0
   -0.2360    3.2220    0.3720 Br  0  0  0  0  0  0  0  0  0  0  0  0
   -2.8110    1.6390   -0.1430 C   0  0  0  0  0  0  0  0  0  0  0  0
   -4.0590    1.1110   -0.3680 O   0  0  0  0  0  0  0  0  0  0  0  0
   -4.3380   -0.2320   -0.5450 C   0  0  0  0  0  0  0  0  0  0  0  0
   -3.1170   -1.0610   -0.4650 C   0  0  0  0  0  0  0  0  0  0  0  0
    1.4130   -1.8840    0.0660 N   0  0  0  0  0  0  0  0  0  0  0  0
  1  2  2  0
  2  3  1  0
  2 17  1  0
  3  4  1  0
  4  5  1  0
  5  6  1  0
  6  7  1  0
  6 11  2  0
  7  8  2  0
  7 17  1  0
  8  9  1  0
  9 10  1  0
  9 16  2  0
 10 11  1  0
 10 13  2  0
 11 12  1  0
 13 14  1  0
 14 15  1  0
 15 16  1  0
M  END
