
     RDKit          3D

 29 32  0  0  0  0  0  0  0  0999 V2000
   -1.9530    4.3690    1.2270 C   0  0  0  0  0  0  0  0  0  0  0  0
   -1.3460    3.4650    2.2610 C   0  0  0  0  0  0  0  0  0  0  0  0
   -0.2280    2.6630    1.7290 C   0  0  0  0  0  0  0  0  0  0  0  0
    1.1350    2.8660    1.9390 C   0  0  0  0  0  0  0  0  0  0  0  0
    1.8130    1.9060    1.2730 N   0  0  0  0  0  0  0  0  0  0  0  0
    0.9320    1.1240    0.6640 N   0  0  0  0  0  0  0  0  0  0  0  0
    1.1450    0.0520   -0.1060 C   0  0  0  0  0  0  0  0  0  0  0  0
    2.4650   -0.4010   -0.3740 N   0  0  0  0  0  0  0  0  0  0  0  0
    3.6340    0.2290    0.1400 C   0  0  0  0  0  0  0  0  0  0  0  0
    4.9050   -0.3840   -0.2780 C   0  0  0  0  0  0  0  0  0  0  0  0
    5.0480   -1.1590   -1.4060 C   0  0  0  0  0  0  0  0  0  0  0  0
    6.2760   -1.7250   -1.7590 C   0  0  0  0  0  0  0  0  0  0  0  0
    7.3370   -1.4750   -0.9330 C   0  0  0  0  0  0  0  0  0  0  0  0
    7.1850   -0.7130    0.1700 N   0  0  0  0  0  0  0  0  0  0  0  0
    8.3000   -0.4960    0.9710 O   0  0  0  0  0  0  0  0  0  0  0  0
    6.0190   -0.1780    0.5040 C   0  0  0  0  0  0  0  0  0  0  0  0
    0.0310   -0.6020   -0.6330 C   0  0  0  0  0  0  0  0  0  0  0  0
   -1.2530   -0.1830   -0.3880 C   0  0  0  0  0  0  0  0  0  0  0  0
   -2.4100   -0.8150   -0.9180 N   0  0  0  0  0  0  0  0  0  0  0  0
   -2.2290   -1.7970   -1.9930 C   0  0  0  0  0  0  0  0  0  0  0  0
   -3.3520   -1.6200   -2.9960 C   0  0  0  0  0  0  0  0  0  0  0  0
   -4.7030   -1.8320   -2.3510 C   0  0  0  0  0  0  0  0  0  0  0  0
   -4.5880   -1.8030   -0.8360 C   0  0  0  0  0  0  0  0  0  0  0  0
   -3.7580   -0.5870   -0.4930 C   0  0  1  0  0  0  0  0  0  0  0  0
   -3.9320   -0.1550    0.9260 C   0  0  0  0  0  0  0  0  0  0  0  0
   -3.3980   -1.1500    1.9240 C   0  0  0  0  0  0  0  0  0  0  0  0
   -3.6170   -0.6350    3.2080 O   0  0  0  0  0  0  0  0  0  0  0  0
   -1.3710    0.9030    0.3960 N   0  0  0  0  0  0  0  0  0  0  0  0
   -0.3200    1.5560    0.9200 C   0  0  0  0  0  0  0  0  0  0  0  0
  1  2  1  0
  2  3  1  0
  3  4  1  0
  3 29  2  0
  4  5  2  0
  5  6  1  0
  6  7  1  0
  6 29  1  0
  7  8  1  0
  7 17  2  0
  8  9  1  0
  9 10  1  0
 10 11  2  0
 10 16  1  0
 11 12  1  0
 12 13  2  0
 13 14  1  0
 14 15  1  0
 14 16  2  0
 17 18  1  0
 18 19  1  0
 18 28  2  0
 19 20  1  0
 19 24  1  0
 20 21  1  0
 21 22  1  0
 22 23  1  0
 23 24  1  0
 24 25  1  1
 25 26  1  0
 26 27  1  0
 28 29  1  0
M  CHG  1  14   1
M  END
