
     RDKit          3D

 31 34  0  0  0  0  0  0  0  0999 V2000
    1.6060   -2.1080    3.4440 C   0  0  0  0  0  0  0  0  0  0  0  0
    0.1760   -2.1950    3.2660 C   0  0  0  0  0  0  0  0  0  0  0  0
   -0.5940   -1.7010    2.3860 C   0  0  0  0  0  0  0  0  0  0  0  0
   -0.3410   -0.8800    1.2480 C   0  0  0  0  0  0  0  0  0  0  0  0
    0.9680   -0.5830    0.8730 C   0  0  0  0  0  0  0  0  0  0  0  0
    1.1840    0.2140   -0.2270 C   0  0  0  0  0  0  0  0  0  0  0  0
    0.1500    0.7330   -0.9770 C   0  0  0  0  0  0  0  0  0  0  0  0
   -1.1390    0.4200   -0.5800 C   0  0  0  0  0  0  0  0  0  0  0  0
   -1.4070   -0.3710    0.5110 C   0  0  0  0  0  0  0  0  0  0  0  0
   -2.7350   -0.5860    0.8530 N   0  0  0  0  0  0  0  0  0  0  0  0
   -3.9200   -0.2450    0.1160 C   0  0  2  0  0  0  0  0  0  0  0  0
   -4.1010   -0.9410   -1.1860 C   0  0  0  0  0  0  0  0  0  0  0  0
   -4.1760   -2.4480   -1.0430 C   0  0  0  0  0  0  0  0  0  0  0  0
   -4.1740    1.1940   -0.0440 C   0  0  0  0  0  0  0  0  0  0  0  0
   -4.5730    1.8070   -1.1410 C   0  0  0  0  0  0  0  0  0  0  0  0
   -4.6960    3.2440   -0.8370 C   0  0  0  0  0  0  0  0  0  0  0  0
   -4.3180    3.3440    0.5790 C   0  0  0  0  0  0  0  0  0  0  0  0
   -4.0170    2.1610    1.0310 C   0  0  0  0  0  0  0  0  0  0  0  0
    0.4120    1.5810   -2.1300 C   0  0  0  0  0  0  0  0  0  0  0  0
   -0.5390    2.0640   -2.8350 O   0  0  0  0  0  0  0  0  0  0  0  0
    1.7570    1.8460   -2.4370 O   0  0  0  0  0  0  0  0  0  0  0  0
    2.6680    1.8550   -1.3230 C   0  0  0  0  0  0  0  0  0  0  0  0
    2.5840    0.5260   -0.6840 C   0  0  0  0  0  0  0  0  0  0  0  0
    3.5030   -0.3600   -0.4520 C   0  0  0  0  0  0  0  0  0  0  0  0
    4.9090   -0.4180   -0.7370 C   0  0  0  0  0  0  0  0  0  0  0  0
    5.7530   -1.4290   -0.3710 C   0  0  0  0  0  0  0  0  0  0  0  0
    5.3400   -2.8780    0.5130 Cl  0  0  0  0  0  0  0  0  0  0  0  0
    7.0770   -1.1270   -0.7810 N   0  0  0  0  0  0  0  0  0  0  0  0
    7.0880    0.3560   -0.8730 C   0  0  0  0  0  0  0  0  0  0  0  0
    5.7300    0.4710   -1.5450 C   0  0  0  0  0  0  0  0  0  0  0  0
    5.5030    1.1740   -2.5320 O   0  0  0  0  0  0  0  0  0  0  0  0
  1  2  1  0
  2  3  2  3
  3  4  1  0
  4  5  2  0
  4  9  1  0
  5  6  1  0
  6  7  2  0
  6 23  1  0
  7  8  1  0
  7 19  1  0
  8  9  2  0
  9 10  1  0
 10 11  1  0
 11 12  1  6
 11 14  1  0
 12 13  1  0
 14 15  2  0
 14 18  1  0
 15 16  1  0
 16 17  1  0
 17 18  2  0
 19 20  2  0
 19 21  1  0
 21 22  1  0
 22 23  1  0
 23 24  2  3
 24 25  1  0
 25 26  2  0
 25 30  1  0
 26 27  1  0
 26 28  1  0
 28 29  1  0
 29 30  1  0
 30 31  2  0
M  END
