
     RDKit          3D

 31 34  0  0  0  0  0  0  0  0999 V2000
    1.5530    1.2510    2.6510 C   0  0  0  0  0  0  0  0  0  0  0  0
    0.9430    0.4580    1.4590 C   0  0  0  0  0  0  0  0  0  0  0  0
    1.8810   -0.4700    1.0120 N   0  0  0  0  0  0  0  0  0  0  0  0
    2.0630   -1.2740   -0.0820 C   0  0  0  0  0  0  0  0  0  0  0  0
    1.2510   -1.2380   -1.0090 O   0  0  0  0  0  0  0  0  0  0  0  0
    3.2190   -2.2060   -0.1980 C   0  0  0  0  0  0  0  0  0  0  0  0
    4.1880   -2.3480    0.7490 C   0  0  0  0  0  0  0  0  0  0  0  0
    5.2570   -3.2410    0.5910 C   0  0  0  0  0  0  0  0  0  0  0  0
    5.3550   -4.0110   -0.5460 C   0  0  0  0  0  0  0  0  0  0  0  0
    4.3740   -3.8640   -1.5000 C   0  0  0  0  0  0  0  0  0  0  0  0
    3.3230   -2.9790   -1.3330 C   0  0  0  0  0  0  0  0  0  0  0  0
    2.3390   -2.8520   -2.3230 O   0  0  0  0  0  0  0  0  0  0  0  0
   -0.1980    0.9130    1.0080 C   0  0  0  0  0  0  0  0  0  0  0  0
   -0.8720    2.1630    1.6200 C   0  0  0  0  0  0  0  0  0  0  0  0
   -0.9620    2.4880    2.8660 C   0  0  0  0  0  0  0  0  0  0  0  0
   -1.6020    3.6720    3.4490 C   0  0  0  0  0  0  0  0  0  0  0  0
   -0.3990    4.6990    4.3040 Cl  0  0  0  0  0  0  0  0  0  0  0  0
   -1.4200    2.8040    0.3730 C   0  0  0  0  0  0  0  0  0  0  0  0
   -1.7430    4.1520    0.1730 C   0  0  0  0  0  0  0  0  0  0  0  0
   -1.7520    4.6370   -1.1470 C   0  0  0  0  0  0  0  0  0  0  0  0
   -1.4470    3.7760   -2.1640 C   0  0  0  0  0  0  0  0  0  0  0  0
   -1.1340    2.4480   -1.9720 C   0  0  0  0  0  0  0  0  0  0  0  0
   -1.1330    1.9740   -0.7020 C   0  0  0  0  0  0  0  0  0  0  0  0
   -1.1770    0.6300   -0.0180 C   0  0  1  0  0  0  0  0  0  0  0  0
   -1.3170   -0.5300   -0.7290 N   0  0  0  0  0  0  0  0  0  0  0  0
   -1.5140   -1.6310    0.3510 C   0  0  0  0  0  0  0  0  0  0  0  0
   -1.6760   -2.9350   -0.3840 C   0  0  0  0  0  0  0  0  0  0  0  0
   -1.3790   -2.8250   -1.7410 O   0  0  0  0  0  0  0  0  0  0  0  0
   -2.2960   -1.9700   -2.3430 C   0  0  0  0  0  0  0  0  0  0  0  0
   -2.5390   -0.7470   -1.4350 C   0  0  2  0  0  0  0  0  0  0  0  0
   -3.1810    0.2700   -2.2630 C   0  0  0  0  0  0  0  0  0  0  0  0
  1  2  1  0
  2  3  1  0
  2 13  2  3
  3  4  1  0
  4  5  2  0
  4  6  1  0
  6  7  2  0
  6 11  1  0
  7  8  1  0
  8  9  2  0
  9 10  1  0
 10 11  2  0
 11 12  1  0
 13 14  1  0
 13 24  1  0
 14 15  2  3
 14 18  1  0
 15 16  1  0
 16 17  1  0
 18 19  2  0
 18 23  1  0
 19 20  1  0
 20 21  2  0
 21 22  1  0
 22 23  2  0
 23 24  1  0
 24 25  1  6
 25 26  1  0
 25 30  1  0
 26 27  1  0
 27 28  1  0
 28 29  1  0
 29 30  1  0
 30 31  1  6
M  END
