
     RDKit          3D

 30 32  0  0  0  0  0  0  0  0999 V2000
   -5.2500    2.5550    1.2870 C   0  0  0  0  0  0  0  0  0  0  0  0
   -5.4240    1.2700    1.1270 N   0  0  0  0  0  0  0  0  0  0  0  0
   -5.9230    0.8020   -0.0260 C   0  0  0  0  0  0  0  0  0  0  0  0
   -6.9290    1.3580   -0.7160 C   0  0  0  0  0  0  0  0  0  0  0  0
   -5.4550   -0.4140   -0.7820 C   0  0  0  0  0  0  0  0  0  0  0  0
   -6.2000   -0.9240   -1.8580 C   0  0  0  0  0  0  0  0  0  0  0  0
   -7.8880   -0.4830   -2.5010 Br  0  0  0  0  0  0  0  0  0  0  0  0
   -5.4060   -1.9080   -2.4070 O   0  0  0  0  0  0  0  0  0  0  0  0
   -4.3640   -2.0010   -1.7790 C   0  0  0  0  0  0  0  0  0  0  0  0
   -3.1830   -2.8620   -1.9230 O   0  0  0  0  0  0  0  0  0  0  0  0
   -4.2700   -1.0800   -0.6950 C   0  0  0  0  0  0  0  0  0  0  0  0
   -3.1390   -0.8540    0.1690 C   0  0  0  0  0  0  0  0  0  0  0  0
   -3.2330   -0.0190    1.1000 O   0  0  0  0  0  0  0  0  0  0  0  0
   -1.9300   -1.5010    0.0530 O   0  0  0  0  0  0  0  0  0  0  0  0
   -0.9190   -1.3650    1.0290 C   0  0  0  0  0  0  0  0  0  0  0  0
    0.4410   -1.6920    0.6290 C   0  0  0  0  0  0  0  0  0  0  0  0
    1.3910   -0.7490    0.2160 C   0  0  0  0  0  0  0  0  0  0  0  0
    2.6450   -0.9330    0.1370 C   0  0  0  0  0  0  0  0  0  0  0  0
    3.8940   -0.1800   -0.0600 C   0  0  0  0  0  0  0  0  0  0  0  0
    5.0190   -0.6970   -0.0010 O   0  0  0  0  0  0  0  0  0  0  0  0
    3.8750    1.2320   -0.3060 N   0  0  0  0  0  0  0  0  0  0  0  0
    5.1660    1.8860   -0.3870 C   0  0  0  0  0  0  0  0  0  0  0  0
    5.3730    3.0580    0.2730 C   0  0  0  0  0  0  0  0  0  0  0  0
    6.6980    3.5850    0.3660 C   0  0  0  0  0  0  0  0  0  0  0  0
    7.7300    2.8920   -0.2230 C   0  0  0  0  0  0  0  0  0  0  0  0
    7.5250    1.7300   -0.8850 C   0  0  0  0  0  0  0  0  0  0  0  0
    6.1950    1.2240   -0.9680 C   0  0  0  0  0  0  0  0  0  0  0  0
    2.7360   -2.6740    0.6670 S   0  0  0  0  0  0  0  0  0  0  0  0
    1.0880   -2.9240    0.9510 C   0  0  0  0  0  0  0  0  0  0  0  0
    0.3990   -4.1890    1.3680 C   0  0  0  0  0  0  0  0  0  0  0  0
  1  2  2  0
  2  3  1  0
  3  4  2  0
  3  5  1  0
  5  6  2  0
  5 11  1  0
  6  7  1  0
  6  8  1  0
  8  9  1  0
  9 10  1  0
  9 11  2  0
 11 12  1  0
 12 13  2  0
 12 14  1  0
 14 15  1  0
 15 16  1  0
 16 17  1  0
 16 29  2  0
 17 18  2  0
 18 19  1  0
 18 28  1  0
 19 20  2  0
 19 21  1  0
 21 22  1  0
 22 23  2  0
 22 27  1  0
 23 24  1  0
 24 25  2  0
 25 26  1  0
 26 27  2  0
 28 29  1  0
 29 30  1  0
M  END
