
     RDKit          3D

 30 32  0  0  0  0  0  0  0  0999 V2000
    4.4980    2.8380   -1.5840 C   0  0  0  0  0  0  0  0  0  0  0  0
    3.8960    1.7030   -1.0160 O   0  0  0  0  0  0  0  0  0  0  0  0
    4.6580    0.7530   -0.3250 C   0  0  0  0  0  0  0  0  0  0  0  0
    6.0390    0.9730   -0.2200 C   0  0  0  0  0  0  0  0  0  0  0  0
    6.8180    0.0760    0.4430 C   0  0  0  0  0  0  0  0  0  0  0  0
    8.7040    0.4530    0.5410 Br  0  0  0  0  0  0  0  0  0  0  0  0
    6.3000   -1.0450    1.0170 C   0  0  0  0  0  0  0  0  0  0  0  0
    4.9350   -1.3060    0.9380 C   0  0  0  0  0  0  0  0  0  0  0  0
    4.4950   -2.4430    1.5350 O   0  0  0  0  0  0  0  0  0  0  0  0
    4.1400   -0.3780    0.2540 C   0  0  0  0  0  0  0  0  0  0  0  0
    2.7050   -0.6590    0.1760 C   0  0  0  0  0  0  0  0  0  0  0  0
    2.3040   -1.7240    0.7350 O   0  0  0  0  0  0  0  0  0  0  0  0
    1.7100    0.1030   -0.4430 N   0  0  0  0  0  0  0  0  0  0  0  0
    0.3570   -0.2710   -0.4670 C   0  0  0  0  0  0  0  0  0  0  0  0
   -0.5930    0.7380   -0.6960 C   0  0  0  0  0  0  0  0  0  0  0  0
   -1.9420    0.5090   -0.7690 C   0  0  0  0  0  0  0  0  0  0  0  0
   -2.8230    1.5880   -1.0340 N   0  0  0  0  0  0  0  0  0  0  0  0
   -4.1620    1.7040   -0.6700 C   0  0  0  0  0  0  0  0  0  0  0  0
   -5.0090    2.5390   -1.3920 C   0  0  0  0  0  0  0  0  0  0  0  0
   -6.3410    2.7000   -1.0380 C   0  0  0  0  0  0  0  0  0  0  0  0
   -6.8400    2.0130    0.0630 C   0  0  0  0  0  0  0  0  0  0  0  0
   -6.0220    1.1920    0.7820 C   0  0  0  0  0  0  0  0  0  0  0  0
   -4.6890    1.0530    0.3980 C   0  0  0  0  0  0  0  0  0  0  0  0
   -2.4060   -0.7770   -0.6140 C   0  0  0  0  0  0  0  0  0  0  0  0
   -1.5010   -1.8030   -0.3860 C   0  0  0  0  0  0  0  0  0  0  0  0
   -2.0940   -3.4420   -0.1860 S   0  0  1  0  0  0  0  0  0  0  0  0
   -2.4450   -3.8070    1.5030 C   0  0  0  0  0  0  0  0  0  0  0  0
   -3.3380   -3.6200   -1.0380 O   0  0  0  0  0  0  0  0  0  0  0  0
   -1.0490   -4.4060   -0.6860 O   0  0  0  0  0  0  0  0  0  0  0  0
   -0.1230   -1.5220   -0.3180 C   0  0  0  0  0  0  0  0  0  0  0  0
  1  2  1  0
  2  3  1  0
  3  4  2  0
  3 10  1  0
  4  5  1  0
  5  6  1  0
  5  7  2  0
  7  8  1  0
  8  9  1  0
  8 10  2  0
 10 11  1  0
 11 12  2  0
 11 13  1  0
 13 14  1  0
 14 15  2  0
 14 30  1  0
 15 16  1  0
 16 17  1  0
 16 24  2  0
 17 18  1  0
 18 19  2  0
 18 23  1  0
 19 20  1  0
 20 21  2  0
 21 22  1  0
 22 23  2  0
 24 25  1  0
 25 26  1  0
 25 30  2  0
 26 27  1  1
 26 28  2  0
 26 29  2  0
M  END
