
     RDKit          3D

 31 34  0  0  0  0  0  0  0  0999 V2000
    8.7830   -1.4350   -2.1370 C   0  0  0  0  0  0  0  0  0  0  0  0
    7.5100   -0.9020   -1.5710 C   0  0  0  0  0  0  0  0  0  0  0  0
    7.0900    0.3570   -1.9370 C   0  0  0  0  0  0  0  0  0  0  0  0
    5.9090    0.8530   -1.4050 C   0  0  0  0  0  0  0  0  0  0  0  0
    5.1290    0.1380   -0.5190 C   0  0  0  0  0  0  0  0  0  0  0  0
    3.8730    0.7230    0.0230 C   0  0  2  0  0  0  0  0  0  0  0  0
    3.8470    0.6730    1.5320 C   0  0  0  0  0  0  0  0  0  0  0  0
    2.5430    0.1180    1.9150 C   0  0  0  0  0  0  0  0  0  0  0  0
    2.2090   -0.3830    2.9440 O   0  0  0  0  0  0  0  0  0  0  0  0
    1.6410    0.3040    0.7020 C   0  0  1  0  0  0  0  0  0  0  0  0
    1.2490    1.5640    0.5500 O   0  0  0  0  0  0  0  0  0  0  0  0
    0.0600    2.0430    0.6940 N   0  0  0  0  0  0  0  0  0  0  0  0
   -1.1190    1.2740    0.8580 C   0  0  0  0  0  0  0  0  0  0  0  0
   -1.2110    0.0510    0.8710 O   0  0  0  0  0  0  0  0  0  0  0  0
   -2.3630    1.9890    1.0350 N   0  0  0  0  0  0  0  0  0  0  0  0
   -3.5910    1.3000    1.2210 C   0  0  2  0  0  0  0  0  0  0  0  0
   -4.6810    2.3740    1.4100 C   0  0  0  0  0  0  0  0  0  0  0  0
   -3.5630    0.3520    2.4030 C   0  0  0  0  0  0  0  0  0  0  0  0
   -4.9480   -0.1090    2.7660 C   0  0  0  0  0  0  0  0  0  0  0  0
   -5.8000   -0.4640    1.5980 C   0  0  0  0  0  0  0  0  0  0  0  0
   -5.1010   -0.3440    0.2740 C   0  0  0  0  0  0  0  0  0  0  0  0
   -4.0290    0.4900    0.0670 C   0  0  0  0  0  0  0  0  0  0  0  0
   -3.4260    0.5700   -1.1480 C   0  0  0  0  0  0  0  0  0  0  0  0
   -3.8720   -0.1970   -2.2410 C   0  0  0  0  0  0  0  0  0  0  0  0
   -4.9350   -1.0330   -2.0610 C   0  0  0  0  0  0  0  0  0  0  0  0
   -5.4700   -1.8700   -3.1640 C   0  0  0  0  0  0  0  0  0  0  0  0
   -5.5380   -1.1020   -0.8160 C   0  0  0  0  0  0  0  0  0  0  0  0
   -6.9120   -2.1890   -0.5940 Cl  0  0  0  0  0  0  0  0  0  0  0  0
    2.6610   -0.0350   -0.3880 C   0  0  0  0  0  0  0  0  0  0  0  0
    5.5780   -1.1210   -0.1720 C   0  0  0  0  0  0  0  0  0  0  0  0
    6.7520   -1.6280   -0.6940 C   0  0  0  0  0  0  0  0  0  0  0  0
  1  2  1  0
  2  3  2  0
  2 31  1  0
  3  4  1  0
  4  5  2  0
  6  5  1  6
  5 30  1  0
  6  7  1  0
  6 29  1  0
  7  8  1  0
  8  9  2  0
  8 10  1  0
 10 11  1  6
 10 29  1  0
 11 12  1  0
 12 13  1  0
 13 14  2  0
 13 15  1  0
 15 16  1  0
 16 17  1  1
 16 18  1  0
 16 22  1  0
 18 19  1  0
 19 20  1  0
 20 21  1  0
 21 22  2  0
 21 27  1  0
 22 23  1  0
 23 24  2  0
 24 25  1  0
 25 26  1  0
 25 27  2  0
 27 28  1  0
 30 31  2  0
M  END
