
     RDKit          3D

 30 33  0  0  0  0  0  0  0  0999 V2000
   -8.3250   -1.6270    0.6650 C   0  0  0  0  0  0  0  0  0  0  0  0
   -6.9440   -2.1040    0.1960 C   0  0  2  0  0  0  0  0  0  0  0  0
   -6.0810   -2.2210    1.4100 C   0  0  0  0  0  0  0  0  0  0  0  0
   -4.6130   -2.1460    1.1390 C   0  0  0  0  0  0  0  0  0  0  0  0
   -4.2680   -1.1110    0.1750 N   0  0  0  0  0  0  0  0  0  0  0  0
   -3.2860   -0.1320    0.4280 C   0  0  0  0  0  0  0  0  0  0  0  0
   -2.6770   -0.1540    1.5170 O   0  0  0  0  0  0  0  0  0  0  0  0
   -2.9950    0.8850   -0.5690 C   0  0  1  0  0  0  0  0  0  0  0  0
   -4.0170    1.9640   -0.7330 C   0  0  0  0  0  0  0  0  0  0  0  0
   -3.6040    2.9120    0.3740 C   0  0  0  0  0  0  0  0  0  0  0  0
   -2.0920    2.8010    0.2900 C   0  0  0  0  0  0  0  0  0  0  0  0
   -1.0240    4.0870    0.8540 Cl  0  0  0  0  0  0  0  0  0  0  0  0
   -1.7380    1.6670   -0.2370 C   0  0  0  0  0  0  0  0  0  0  0  0
   -0.3840    1.1510   -0.4860 C   0  0  0  0  0  0  0  0  0  0  0  0
   -0.3510   -0.0010   -1.0210 O   0  0  0  0  0  0  0  0  0  0  0  0
    0.8250    1.7680   -0.2060 N   0  0  0  0  0  0  0  0  0  0  0  0
    2.0980    1.1860   -0.4800 C   0  0  0  0  0  0  0  0  0  0  0  0
    2.3630   -0.0120   -1.0480 C   0  0  0  0  0  0  0  0  0  0  0  0
    3.7460   -0.1340   -1.1010 C   0  0  0  0  0  0  0  0  0  0  0  0
    4.2670    1.0010   -0.5580 C   0  0  0  0  0  0  0  0  0  0  0  0
    5.6270    1.4340   -0.3420 C   0  0  0  0  0  0  0  0  0  0  0  0
    6.5730    0.7460    0.2310 C   0  0  0  0  0  0  0  0  0  0  0  0
    6.3530   -0.6080    0.7520 C   0  0  0  0  0  0  0  0  0  0  0  0
    7.4000   -1.5390    0.1680 C   0  0  0  0  0  0  0  0  0  0  0  0
    8.7560   -1.0050    0.6400 C   0  0  0  0  0  0  0  0  0  0  0  0
    9.0240    0.3670    0.1160 C   0  0  0  0  0  0  0  0  0  0  0  0
    7.9320    1.3570    0.3560 C   0  0  0  0  0  0  0  0  0  0  0  0
    3.2400    1.7570   -0.2030 O   0  0  0  0  0  0  0  0  0  0  0  0
   -4.9930   -1.1610   -1.0840 C   0  0  0  0  0  0  0  0  0  0  0  0
   -6.4610   -1.0510   -0.7790 C   0  0  0  0  0  0  0  0  0  0  0  0
  2  1  1  1
  2  3  1  0
  2 30  1  0
  3  4  1  0
  4  5  1  0
  5  6  1  0
  5 29  1  0
  6  7  2  0
  8  6  1  1
  8  9  1  0
  8 13  1  0
  9 10  1  0
 10 11  1  0
 11 12  1  0
 11 13  2  0
 13 14  1  0
 14 15  2  0
 14 16  1  0
 16 17  1  0
 17 18  2  0
 17 28  1  0
 18 19  1  0
 19 20  2  0
 20 21  1  0
 20 28  1  0
 21 22  2  3
 22 23  1  0
 22 27  1  0
 23 24  1  0
 24 25  1  0
 25 26  1  0
 26 27  1  0
 29 30  1  0
M  END
