
     RDKit          3D

 31 34  0  0  0  0  0  0  0  0999 V2000
   -5.8640    3.5870    0.9030 C   0  0  0  0  0  0  0  0  0  0  0  0
   -5.0890    2.2950    1.2090 C   0  0  0  0  0  0  0  0  0  0  0  0
   -4.9660    1.5880   -0.0910 C   0  0  0  0  0  0  0  0  0  0  0  0
   -4.2100    0.2400    0.0200 C   0  0  1  0  0  0  0  0  0  0  0  0
   -2.8440    0.6470    0.5450 C   0  0  0  0  0  0  0  0  0  0  0  0
   -1.8720   -0.4100    0.5060 N   0  0  0  0  0  0  0  0  0  0  0  0
   -0.5510   -0.1330    0.9730 C   0  0  0  0  0  0  0  0  0  0  0  0
   -0.3290    1.0160    1.3800 O   0  0  0  0  0  0  0  0  0  0  0  0
    0.4500   -1.1810    0.9490 C   0  0  0  0  0  0  0  0  0  0  0  0
    0.0890   -2.4440    1.4690 C   0  0  0  0  0  0  0  0  0  0  0  0
   -1.5100   -2.6120    2.1370 Cl  0  0  0  0  0  0  0  0  0  0  0  0
    1.0140   -3.4390    1.4310 C   0  0  0  0  0  0  0  0  0  0  0  0
    2.2740   -3.2810    0.9170 C   0  0  0  0  0  0  0  0  0  0  0  0
    2.6210   -2.0490    0.4100 C   0  0  0  0  0  0  0  0  0  0  0  0
    3.8540   -1.8690   -0.1220 N   0  0  0  0  0  0  0  0  0  0  0  0
    4.2200   -0.6900   -0.6420 C   0  0  0  0  0  0  0  0  0  0  0  0
    3.3650    0.3870   -0.6610 C   0  0  0  0  0  0  0  0  0  0  0  0
    2.0970    0.2430   -0.1260 C   0  0  0  0  0  0  0  0  0  0  0  0
    1.2950    1.1990   -0.1330 O   0  0  0  0  0  0  0  0  0  0  0  0
    1.7230   -0.9650    0.4100 C   0  0  0  0  0  0  0  0  0  0  0  0
    3.7890    1.6780   -1.2410 C   0  0  0  0  0  0  0  0  0  0  0  0
    5.2190    2.0140   -0.9720 C   0  0  0  0  0  0  0  0  0  0  0  0
    6.0810    0.8410   -0.6350 C   0  0  2  0  0  0  0  0  0  0  0  0
    6.2860    0.6950    0.8670 C   0  0  0  0  0  0  0  0  0  0  0  0
    7.4640    1.0860   -1.2250 C   0  0  0  0  0  0  0  0  0  0  0  0
    5.5810   -0.4590   -1.2390 C   0  0  0  0  0  0  0  0  0  0  0  0
   -4.9890   -0.5750    0.9770 C   0  0  0  0  0  0  0  0  0  0  0  0
   -5.1320   -2.0340    0.6490 C   0  0  0  0  0  0  0  0  0  0  0  0
   -5.3350   -2.2440   -0.8370 C   0  0  0  0  0  0  0  0  0  0  0  0
   -4.3420   -1.4510   -1.6210 C   0  0  0  0  0  0  0  0  0  0  0  0
   -4.1460   -0.1680   -1.2740 O   0  0  0  0  0  0  0  0  0  0  0  0
  1  2  1  0
  2  3  1  0
  4  3  1  6
  4  5  1  0
  4 27  1  0
  4 31  1  0
  5  6  1  0
  6  7  1  0
  7  8  2  0
  7  9  1  0
  9 10  2  0
  9 20  1  0
 10 11  1  0
 10 12  1  0
 12 13  2  0
 13 14  1  0
 14 15  1  0
 14 20  2  0
 15 16  1  0
 16 17  2  0
 16 26  1  0
 17 18  1  0
 17 21  1  0
 18 19  2  0
 18 20  1  0
 21 22  1  0
 22 23  1  0
 23 24  1  1
 23 25  1  0
 23 26  1  0
 27 28  1  0
 28 29  1  0
 29 30  1  0
 30 31  1  0
M  END
