
     RDKit          3D

 14 15  0  0  0  0  0  0  0  0999 V2000
    1.7670   -1.6520   -0.2810 N   0  0  0  0  0  0  0  0  0  0  0  0
    0.9250   -0.4840   -0.0100 C   0  0  1  0  0  0  0  0  0  0  0  0
    1.7350    0.3900    0.9460 C   0  0  1  0  0  0  0  0  0  0  0  0
    1.9630   -0.3900    2.0790 O   0  0  0  0  0  0  0  0  0  0  0  0
    3.0790    0.7370    0.3410 C   0  0  0  0  0  0  0  0  0  0  0  0
    2.9770    1.5120   -0.7910 O   0  0  0  0  0  0  0  0  0  0  0  0
    0.6520    0.2530   -1.1280 O   0  0  0  0  0  0  0  0  0  0  0  0
   -0.7040    0.2270   -1.3520 C   0  0  0  0  0  0  0  0  0  0  0  0
   -1.2950   -0.3100   -0.1030 C   0  0  1  0  0  0  0  0  0  0  0  0
   -1.8890    0.7270    0.8060 C   0  0  0  0  0  0  0  0  0  0  0  0
   -3.0940    1.3070    0.1000 C   0  0  0  0  0  0  0  0  0  0  0  0
   -3.8690   -0.2450   -0.5070 S   0  0  0  0  0  0  0  0  0  0  0  0
   -2.3700   -1.3050   -0.4230 C   0  0  0  0  0  0  0  0  0  0  0  0
   -0.2450   -0.9130    0.5580 O   0  0  0  0  0  0  0  0  0  0  0  0
  2  1  1  6
  2  3  1  0
  2  7  1  0
  2 14  1  0
  3  4  1  1
  3  5  1  0
  5  6  1  0
  7  8  1  0
  9  8  1  6
  9 10  1  0
  9 13  1  0
  9 14  1  0
 10 11  1  0
 11 12  1  0
 12 13  1  0
M  END
