
     RDKit          3D

 18 20  0  0  0  0  0  0  0  0999 V2000
   -4.1590    0.6370    1.6730 C   0  0  0  0  0  0  0  0  0  0  0  0
   -4.2040   -0.2390    0.5710 O   0  0  0  0  0  0  0  0  0  0  0  0
   -3.0700   -0.6030   -0.1050 C   0  0  0  0  0  0  0  0  0  0  0  0
   -3.2040   -1.4750   -1.1900 C   0  0  0  0  0  0  0  0  0  0  0  0
   -2.0880   -1.8670   -1.9010 C   0  0  0  0  0  0  0  0  0  0  0  0
   -0.8380   -1.3890   -1.5290 C   0  0  0  0  0  0  0  0  0  0  0  0
   -0.6730   -0.5350   -0.4740 C   0  0  0  0  0  0  0  0  0  0  0  0
   -1.8070   -0.1620    0.2160 C   0  0  0  0  0  0  0  0  0  0  0  0
    0.7500   -0.1810   -0.2970 C   0  0  0  0  0  0  0  0  0  0  0  0
    1.2210    0.6020    0.6490 C   0  0  0  0  0  0  0  0  0  0  0  0
    2.6090    0.9600    0.8290 C   0  0  0  0  0  0  0  0  0  0  0  0
    3.4710    1.4230   -0.1340 C   0  0  0  0  0  0  0  0  0  0  0  0
    4.6900    1.6230    0.4410 N   0  0  0  0  0  0  0  0  0  0  0  0
    4.5540    1.2820    1.7400 C   0  0  0  0  0  0  0  0  0  0  0  0
    3.3030    0.8830    1.9770 N   0  0  0  0  0  0  0  0  0  0  0  0
    1.4400   -0.9000   -1.3430 C   0  0  0  0  0  0  0  0  0  0  0  0
    2.6770   -0.9020   -1.5770 O   0  0  0  0  0  0  0  0  0  0  0  0
    0.4380   -1.6380   -2.0890 N   0  0  0  0  0  0  0  0  0  0  0  0
  1  2  1  0
  2  3  1  0
  3  4  2  0
  3  8  1  0
  4  5  1  0
  5  6  2  0
  6  7  1  0
  6 18  1  0
  7  8  2  0
  7  9  1  0
  9 10  2  3
  9 16  1  0
 10 11  1  0
 11 12  2  0
 11 15  1  0
 12 13  1  0
 13 14  1  0
 14 15  2  0
 16 17  2  0
 16 18  1  0
M  END
