
     RDKit          3D

 10 10  0  0  0  0  0  0  0  0999 V2000
    2.9200   -0.1200   -0.1520 C   0  0  0  0  0  0  0  0  0  0  0  0
    1.7340    0.5760    0.1390 O   0  0  0  0  0  0  0  0  0  0  0  0
    0.6060   -0.1070    0.5740 C   0  0  0  0  0  0  0  0  0  0  0  0
    0.6540   -1.3550    0.7060 O   0  0  0  0  0  0  0  0  0  0  0  0
   -0.6030    0.6760    0.8610 C   0  0  2  0  0  0  0  0  0  0  0  0
   -1.6890   -0.0900    1.2930 O   0  0  0  0  0  0  0  0  0  0  0  0
   -2.4930   -0.5610    0.3180 C   0  0  0  0  0  0  0  0  0  0  0  0
   -3.0630   -1.7090    0.3620 O   0  0  0  0  0  0  0  0  0  0  0  0
   -2.6810    0.3030   -0.7900 N   0  0  0  0  0  0  0  0  0  0  0  0
   -1.2760    1.4010   -0.6880 S   0  0  0  0  0  0  0  0  0  0  0  0
  1  2  1  0
  2  3  1  0
  3  4  2  0
  5  3  1  6
  5  6  1  0
  5 10  1  0
  6  7  1  0
  7  8  2  0
  7  9  1  0
  9 10  1  0
M  END
