
     RDKit          3D

 16 18  0  0  0  0  0  0  0  0999 V2000
    5.2950    0.3150    0.0170 O   0  0  0  0  0  0  0  0  0  0  0  0
    4.0920    0.1940    0.0600 C   0  0  0  0  0  0  0  0  0  0  0  0
    3.0250    0.7440   -0.5310 N   0  0  0  0  0  0  0  0  0  0  0  0
    1.8190    0.3830   -0.2580 C   0  0  0  0  0  0  0  0  0  0  0  0
    0.6720    0.9030   -0.8250 N   0  0  0  0  0  0  0  0  0  0  0  0
   -0.5360    0.4750   -0.4870 C   0  0  0  0  0  0  0  0  0  0  0  0
   -1.6480    1.0540   -1.1080 C   0  0  0  0  0  0  0  0  0  0  0  0
   -2.9150    0.6680   -0.8140 C   0  0  0  0  0  0  0  0  0  0  0  0
   -3.1730   -0.3170    0.1130 C   0  0  0  0  0  0  0  0  0  0  0  0
   -4.8100   -0.8220    0.4990 Cl  0  0  0  0  0  0  0  0  0  0  0  0
   -2.0820   -0.9000    0.7370 C   0  0  0  0  0  0  0  0  0  0  0  0
   -0.8090   -0.5110    0.4410 C   0  0  0  0  0  0  0  0  0  0  0  0
    0.3240   -1.0600    1.0340 C   0  0  0  0  0  0  0  0  0  0  0  0
    0.1560   -2.3100    2.2220 Cl  0  0  0  0  0  0  0  0  0  0  0  0
    1.5590   -0.5980    0.6660 C   0  0  0  0  0  0  0  0  0  0  0  0
    3.2370   -1.0290    1.1790 S   0  0  0  0  0  0  0  0  0  0  0  0
  1  2  2  0
  2  3  1  0
  2 16  1  0
  3  4  1  0
  4  5  2  0
  4 15  1  0
  5  6  1  0
  6  7  2  0
  6 12  1  0
  7  8  1  0
  8  9  2  0
  9 10  1  0
  9 11  1  0
 11 12  2  0
 12 13  1  0
 13 14  1  0
 13 15  2  0
 15 16  1  0
M  END
