
     RDKit          3D

 16 18  0  0  0  0  0  0  0  0999 V2000
    2.6510   -0.8960    1.9630 C   0  0  0  0  0  0  0  0  0  0  0  0
    1.6100   -1.2330    0.9640 C   0  0  0  0  0  0  0  0  0  0  0  0
    0.7280   -0.3490    0.5070 C   0  0  0  0  0  0  0  0  0  0  0  0
   -0.2770   -0.6440   -0.4480 N   0  0  0  0  0  0  0  0  0  0  0  0
   -0.6690   -1.8290   -1.1730 C   0  0  0  0  0  0  0  0  0  0  0  0
   -1.8160   -1.5990   -2.0770 C   0  0  0  0  0  0  0  0  0  0  0  0
   -2.2170   -2.6130   -2.7550 O   0  0  0  0  0  0  0  0  0  0  0  0
   -2.4740   -0.3450   -2.2230 N   0  0  0  0  0  0  0  0  0  0  0  0
   -2.0960    0.6820   -1.5600 C   0  0  0  0  0  0  0  0  0  0  0  0
   -2.5620    2.3980   -1.3900 S   0  0  0  0  0  0  0  0  0  0  0  0
   -1.2990    2.8290   -0.1700 C   0  0  0  0  0  0  0  0  0  0  0  0
   -0.5890    1.5420    0.0100 C   0  0  0  0  0  0  0  0  0  0  0  0
   -0.9830    0.5490   -0.6550 C   0  0  0  0  0  0  0  0  0  0  0  0
    0.5820    1.0750    0.8570 C   0  0  1  0  0  0  0  0  0  0  0  0
    0.2510    1.3420    2.5700 Cl  0  0  0  0  0  0  0  0  0  0  0  0
    1.9960    1.9800    0.3180 Cl  0  0  0  0  0  0  0  0  0  0  0  0
  1  2  1  0
  2  3  2  3
  3  4  1  0
  3 14  1  0
  4  5  1  0
  4 13  1  0
  5  6  1  0
  6  7  2  0
  6  8  1  0
  8  9  2  0
  9 10  1  0
  9 13  1  0
 10 11  1  0
 11 12  1  0
 12 13  2  0
 12 14  1  0
 14 15  1  1
 14 16  1  0
M  END
