
     RDKit          3D

 16 18  0  0  0  0  0  0  0  0999 V2000
   -4.4440   -0.1340   -1.3990 O   0  0  0  0  0  0  0  0  0  0  0  0
   -3.3100    0.0510   -0.9040 C   0  0  0  0  0  0  0  0  0  0  0  0
   -2.4950    1.2570   -0.8320 C   0  0  0  0  0  0  0  0  0  0  0  0
   -1.3680    1.0100   -0.2270 C   0  0  0  0  0  0  0  0  0  0  0  0
   -0.1260    2.2770    0.0340 S   0  0  0  0  0  0  0  0  0  0  0  0
    1.2870    1.5790    0.9370 C   0  0  0  0  0  0  0  0  0  0  0  0
    1.7100    0.2990    0.3200 C   0  0  0  0  0  0  0  0  0  0  0  0
    2.9230    0.1210   -0.3220 C   0  0  0  0  0  0  0  0  0  0  0  0
    4.1880    1.2950   -0.5530 Cl  0  0  0  0  0  0  0  0  0  0  0  0
    2.9180   -1.1870   -0.7410 C   0  0  0  0  0  0  0  0  0  0  0  0
    1.7490   -1.7240   -0.3510 N   0  0  0  0  0  0  0  0  0  0  0  0
    1.0050   -0.8410    0.2920 N   0  0  0  0  0  0  0  0  0  0  0  0
   -0.3270   -1.1370    0.8390 C   0  0  0  0  0  0  0  0  0  0  0  0
   -1.3900   -0.4060    0.1370 C   0  0  0  0  0  0  0  0  0  0  0  0
   -2.5150   -0.9790   -0.2510 C   0  0  0  0  0  0  0  0  0  0  0  0
   -2.9760   -2.6640   -0.0280 Cl  0  0  0  0  0  0  0  0  0  0  0  0
  1  2  2  0
  2  3  1  0
  2 15  1  0
  3  4  2  0
  4  5  1  0
  4 14  1  0
  5  6  1  0
  6  7  1  0
  7  8  2  0
  7 12  1  0
  8  9  1  0
  8 10  1  0
 10 11  2  0
 11 12  1  0
 12 13  1  0
 13 14  1  0
 14 15  2  0
 15 16  1  0
M  END
