
     RDKit          3D

 16 18  0  0  0  0  0  0  0  0999 V2000
    3.4840   -1.1250    1.0540 O   0  0  0  0  0  0  0  0  0  0  0  0
    2.5620   -0.1810    0.5980 C   0  0  0  0  0  0  0  0  0  0  0  0
    2.9450    1.0950    0.2870 C   0  0  0  0  0  0  0  0  0  0  0  0
    1.9720    1.9540   -0.1530 C   0  0  0  0  0  0  0  0  0  0  0  0
    2.4260    3.6300   -0.5700 Cl  0  0  0  0  0  0  0  0  0  0  0  0
    0.6780    1.5890   -0.2850 C   0  0  0  0  0  0  0  0  0  0  0  0
   -0.4470    2.8300   -0.8670 Cl  0  0  0  0  0  0  0  0  0  0  0  0
    0.2220    0.2850    0.0210 C   0  0  0  0  0  0  0  0  0  0  0  0
    1.2180   -0.5370    0.4540 C   0  0  0  0  0  0  0  0  0  0  0  0
    0.3530   -2.1020    0.7620 S   0  0  0  0  0  0  0  0  0  0  0  0
   -1.2410   -1.5210    0.2900 C   0  0  0  0  0  0  0  0  0  0  0  0
   -2.4390   -2.1590    0.2570 N   0  0  0  0  0  0  0  0  0  0  0  0
   -3.5310   -1.4980   -0.1450 C   0  0  0  0  0  0  0  0  0  0  0  0
   -3.3460   -0.1810   -0.5060 C   0  0  0  0  0  0  0  0  0  0  0  0
   -2.1670    0.4300   -0.4680 N   0  0  0  0  0  0  0  0  0  0  0  0
   -1.0240   -0.2430   -0.0530 C   0  0  0  0  0  0  0  0  0  0  0  0
  1  2  1  0
  2  3  2  0
  2  9  1  0
  3  4  1  0
  4  5  1  0
  4  6  2  0
  6  7  1  0
  6  8  1  0
  8  9  2  0
  8 16  1  0
  9 10  1  0
 10 11  1  0
 11 12  2  0
 11 16  1  0
 12 13  1  0
 13 14  2  0
 14 15  1  0
 15 16  2  0
M  END
