
     RDKit          3D

 26 28  0  0  0  0  0  0  0  0999 V2000
   -4.1380    2.3800   -2.0150 C   0  0  0  0  0  0  0  0  0  0  0  0
   -3.1160    1.7530   -1.1890 C   0  0  0  0  0  0  0  0  0  0  0  0
   -1.8870    2.2920   -1.0180 N   0  0  0  0  0  0  0  0  0  0  0  0
   -1.1920    1.5220   -0.2010 C   0  0  0  0  0  0  0  0  0  0  0  0
   -2.0080    0.4550    0.1630 C   0  0  0  0  0  0  0  0  0  0  0  0
   -1.5180   -0.5970    1.0410 C   0  0  0  0  0  0  0  0  0  0  0  0
   -2.2920   -1.4230    1.8190 C   0  0  0  0  0  0  0  0  0  0  0  0
   -1.6560   -2.3410    2.6570 C   0  0  0  0  0  0  0  0  0  0  0  0
   -0.3220   -2.4240    2.7130 N   0  0  0  0  0  0  0  0  0  0  0  0
    0.4640   -1.6070    1.9460 C   0  0  0  0  0  0  0  0  0  0  0  0
    1.8640   -1.7550    2.0680 N   0  0  0  0  0  0  0  0  0  0  0  0
    2.8580   -1.0270    1.3740 C   0  0  0  0  0  0  0  0  0  0  0  0
    4.1990   -1.2470    1.7120 C   0  0  0  0  0  0  0  0  0  0  0  0
    5.2240   -0.5820    1.0780 C   0  0  0  0  0  0  0  0  0  0  0  0
    4.9740    0.3340    0.0790 C   0  0  0  0  0  0  0  0  0  0  0  0
    6.3050    1.1710   -0.7140 S   0  0  1  0  0  0  0  0  0  0  0  0
    6.8720    0.2620   -2.1320 C   0  0  0  0  0  0  0  0  0  0  0  0
    5.8760    2.5370   -1.1880 O   0  0  0  0  0  0  0  0  0  0  0  0
    7.4360    1.2520    0.2580 O   0  0  0  0  0  0  0  0  0  0  0  0
    3.6650    0.5630   -0.2660 C   0  0  0  0  0  0  0  0  0  0  0  0
    2.6230   -0.1200    0.3850 C   0  0  0  0  0  0  0  0  0  0  0  0
   -0.1670   -0.7540    1.1670 N   0  0  0  0  0  0  0  0  0  0  0  0
   -3.1770    0.6320   -0.4670 N   0  0  0  0  0  0  0  0  0  0  0  0
   -4.3020   -0.2500   -0.4450 C   0  0  1  0  0  0  0  0  0  0  0  0
   -5.3720    0.1360    0.5430 C   0  0  0  0  0  0  0  0  0  0  0  0
   -4.9270   -0.4500   -1.8440 C   0  0  0  0  0  0  0  0  0  0  0  0
  1  2  1  0
  2  3  2  0
  2 23  1  0
  3  4  1  0
  4  5  2  0
  5  6  1  0
  5 23  1  0
  6  7  2  0
  6 22  1  0
  7  8  1  0
  8  9  2  0
  9 10  1  0
 10 11  1  0
 10 22  2  0
 11 12  1  0
 12 13  2  0
 12 21  1  0
 13 14  1  0
 14 15  2  0
 15 16  1  0
 15 20  1  0
 16 17  1  6
 16 18  2  0
 16 19  2  0
 20 21  2  0
 23 24  1  0
 24 25  1  1
 24 26  1  0
M  END
