
     RDKit          3D

 16 17  0  0  0  0  0  0  0  0999 V2000
    4.2300   -0.6730   -0.6000 O   0  0  0  0  0  0  0  0  0  0  0  0
    2.9920   -0.4920   -0.4470 C   0  0  0  0  0  0  0  0  0  0  0  0
    2.1230   -1.5600   -0.2320 C   0  0  0  0  0  0  0  0  0  0  0  0
    0.8050   -1.3910   -0.0670 N   0  0  0  0  0  0  0  0  0  0  0  0
    0.2680   -0.1670   -0.1050 C   0  0  0  0  0  0  0  0  0  0  0  0
    1.1400    0.8780   -0.3170 C   0  0  0  0  0  0  0  0  0  0  0  0
    2.4580    0.7550   -0.4870 N   0  0  0  0  0  0  0  0  0  0  0  0
    0.6950    2.6160   -0.3730 S   0  0  0  0  0  0  0  0  0  0  0  0
   -0.5280    2.8590    0.9060 C   0  0  0  0  0  0  0  0  0  0  0  0
   -1.5070    2.0450    1.2260 C   0  0  0  0  0  0  0  0  0  0  0  0
   -2.5450    2.5940    2.5540 Cl  0  0  0  0  0  0  0  0  0  0  0  0
   -1.8830    0.7730    0.6670 C   0  0  0  0  0  0  0  0  0  0  0  0
   -1.1520   -0.1840    0.0960 C   0  0  0  0  0  0  0  0  0  0  0  0
   -1.9020   -1.3360   -0.3500 C   0  0  0  0  0  0  0  0  0  0  0  0
   -1.4570   -2.4090   -0.9570 C   0  0  0  0  0  0  0  0  0  0  0  0
   -2.6190   -3.7000   -1.4000 Cl  0  0  0  0  0  0  0  0  0  0  0  0
  1  2  2  0
  2  3  1  0
  2  7  1  0
  3  4  2  0
  4  5  1  0
  5  6  2  0
  5 13  1  0
  6  7  1  0
  6  8  1  0
  8  9  1  0
  9 10  2  0
 10 11  1  0
 10 12  1  0
 12 13  2  0
 13 14  1  0
 14 15  2  3
 15 16  1  0
M  END
