
     RDKit          3D

 15 17  0  0  0  0  0  0  0  0999 V2000
   -5.1070    0.6120    0.2840 Cl  0  0  0  0  0  0  0  0  0  0  0  0
   -3.4120    0.1700    0.3400 C   0  0  0  0  0  0  0  0  0  0  0  0
   -3.0660   -1.1710    0.4670 C   0  0  0  0  0  0  0  0  0  0  0  0
   -1.7590   -1.6050    0.5200 C   0  0  0  0  0  0  0  0  0  0  0  0
   -0.7390   -0.6680    0.4430 C   0  0  0  0  0  0  0  0  0  0  0  0
   -1.0910    0.6660    0.3160 C   0  0  0  0  0  0  0  0  0  0  0  0
   -2.4020    1.0960    0.2640 C   0  0  0  0  0  0  0  0  0  0  0  0
   -0.2350    1.7990    0.2180 N   0  0  0  0  0  0  0  0  0  0  0  0
    1.1880    1.7360   -0.0580 C   0  0  0  0  0  0  0  0  0  0  0  0
    1.9790    0.6980   -0.0070 C   0  0  0  0  0  0  0  0  0  0  0  0
    3.7210    0.7580   -0.3740 S   0  0  0  0  0  0  0  0  0  0  0  0
    3.9540   -1.0760   -0.3560 C   0  0  0  0  0  0  0  0  0  0  0  0
    2.8660   -1.4470    0.4430 O   0  0  0  0  0  0  0  0  0  0  0  0
    1.7450   -0.6970    0.3260 C   0  0  0  0  0  0  0  0  0  0  0  0
    0.5600   -1.2410    0.5100 N   0  0  0  0  0  0  0  0  0  0  0  0
  1  2  1  0
  2  3  2  0
  2  7  1  0
  3  4  1  0
  4  5  2  0
  5  6  1  0
  5 15  1  0
  6  7  2  0
  6  8  1  0
  8  9  1  0
  9 10  2  0
 10 11  1  0
 10 14  1  0
 11 12  1  0
 12 13  1  0
 13 14  1  0
 14 15  2  0
M  END
