
     RDKit          3D

 16 18  0  0  0  0  0  0  0  0999 V2000
   -0.0630   -2.7490    0.0010 O   0  0  0  0  0  0  0  0  0  0  0  0
   -0.1440   -1.4910   -0.0780 C   0  0  0  0  0  0  0  0  0  0  0  0
   -1.3990   -0.8450   -0.0890 C   0  0  0  0  0  0  0  0  0  0  0  0
   -1.4320    0.4870   -0.1740 C   0  0  0  0  0  0  0  0  0  0  0  0
   -0.2520    1.1690   -0.2470 N   0  0  0  0  0  0  0  0  0  0  0  0
    0.9480    0.6010   -0.2400 C   0  0  0  0  0  0  0  0  0  0  0  0
    2.1230    1.3490   -0.3180 C   0  0  0  0  0  0  0  0  0  0  0  0
    2.0200    3.0870   -0.4270 Cl  0  0  0  0  0  0  0  0  0  0  0  0
    3.3590    0.7390   -0.3090 C   0  0  0  0  0  0  0  0  0  0  0  0
    3.3870   -0.6370   -0.2210 C   0  0  0  0  0  0  0  0  0  0  0  0
    4.9660   -1.4120   -0.2100 Cl  0  0  0  0  0  0  0  0  0  0  0  0
    2.2420   -1.3400   -0.1470 N   0  0  0  0  0  0  0  0  0  0  0  0
    1.0200   -0.7630   -0.1540 C   0  0  0  0  0  0  0  0  0  0  0  0
   -2.7620    1.1260   -0.1770 C   0  0  0  0  0  0  0  0  0  0  0  0
   -3.7980   -0.2280    0.5160 S   0  0  0  0  0  0  0  0  0  0  0  0
   -2.6890   -1.5630   -0.0160 C   0  0  0  0  0  0  0  0  0  0  0  0
  1  2  2  0
  2  3  1  0
  2 13  1  0
  3  4  2  0
  3 16  1  0
  4  5  1  0
  4 14  1  0
  5  6  1  0
  6  7  2  0
  6 13  1  0
  7  8  1  0
  7  9  1  0
  9 10  2  0
 10 11  1  0
 10 12  1  0
 12 13  2  0
 14 15  1  0
 15 16  1  0
M  END
