
     RDKit          3D

 16 18  0  0  0  0  0  0  0  0999 V2000
    1.8750    3.1140   -0.4970 O   0  0  0  0  0  0  0  0  0  0  0  0
    1.2360    2.0380   -0.3250 C   0  0  0  0  0  0  0  0  0  0  0  0
   -0.1170    2.0020   -0.3850 N   0  0  0  0  0  0  0  0  0  0  0  0
   -0.7260    0.8080   -0.1890 C   0  0  0  0  0  0  0  0  0  0  0  0
   -2.1250    0.7570   -0.2480 C   0  0  0  0  0  0  0  0  0  0  0  0
   -2.8270   -0.4050   -0.0630 C   0  0  0  0  0  0  0  0  0  0  0  0
   -4.5890   -0.4320   -0.1450 Cl  0  0  0  0  0  0  0  0  0  0  0  0
   -2.1380   -1.5750    0.1930 C   0  0  0  0  0  0  0  0  0  0  0  0
   -3.0240   -3.0620    0.4310 Cl  0  0  0  0  0  0  0  0  0  0  0  0
   -0.7600   -1.5210    0.2510 C   0  0  0  0  0  0  0  0  0  0  0  0
   -0.0450   -0.3540    0.0650 C   0  0  0  0  0  0  0  0  0  0  0  0
    1.3630   -0.3450    0.1330 C   0  0  0  0  0  0  0  0  0  0  0  0
    2.1690   -1.3180    0.3570 N   0  0  0  0  0  0  0  0  0  0  0  0
    3.4060   -1.2820    0.4110 C   0  0  0  0  0  0  0  0  0  0  0  0
    3.6800    0.5110    0.0850 S   0  0  0  0  0  0  0  0  0  0  0  0
    1.9000    0.9210   -0.0810 C   0  0  0  0  0  0  0  0  0  0  0  0
  1  2  2  0
  2  3  1  0
  2 16  1  0
  3  4  1  0
  4  5  2  0
  4 11  1  0
  5  6  1  0
  6  7  1  0
  6  8  2  0
  8  9  1  0
  8 10  1  0
 10 11  2  0
 11 12  1  0
 12 13  1  0
 12 16  2  0
 13 14  2  0
 14 15  1  0
 15 16  1  0
M  END
