
     RDKit          3D

 16 17  0  0  0  0  0  0  0  0999 V2000
   -4.9830   -1.4890    0.2540 O   0  0  0  0  0  0  0  0  0  0  0  0
   -3.8620   -0.9070    0.3260 C   0  0  0  0  0  0  0  0  0  0  0  0
   -3.5390    0.3240    1.0360 C   0  0  0  0  0  0  0  0  0  0  0  0
   -2.2530    0.5590    0.8380 C   0  0  0  0  0  0  0  0  0  0  0  0
   -1.6320   -0.4620    0.0060 C   0  0  0  0  0  0  0  0  0  0  0  0
   -0.2800   -0.5550   -0.4230 N   0  0  0  0  0  0  0  0  0  0  0  0
    0.5210    0.5590   -0.8120 C   0  0  0  0  0  0  0  0  0  0  0  0
   -0.0430    1.6000   -1.3170 N   0  0  0  0  0  0  0  0  0  0  0  0
    1.2330    2.8050   -1.7010 S   0  0  0  0  0  0  0  0  0  0  0  0
    2.5540    1.5040   -1.7250 C   0  0  0  0  0  0  0  0  0  0  0  0
    1.9380    0.6010   -0.6820 C   0  0  0  0  0  0  0  0  0  0  0  0
    2.7020    0.0320    0.2000 C   0  0  0  0  0  0  0  0  0  0  0  0
    2.1660   -0.8020    1.2920 C   0  0  0  0  0  0  0  0  0  0  0  0
    2.7100   -2.4870    1.2150 Cl  0  0  0  0  0  0  0  0  0  0  0  0
   -2.6120   -1.3280   -0.2880 C   0  0  0  0  0  0  0  0  0  0  0  0
   -2.3800   -2.7650   -1.2830 Cl  0  0  0  0  0  0  0  0  0  0  0  0
  1  2  2  0
  2  3  1  0
  2 15  1  0
  3  4  2  0
  4  5  1  0
  5  6  1  0
  5 15  2  0
  6  7  1  0
  7  8  2  0
  7 11  1  0
  8  9  1  0
  9 10  1  0
 10 11  1  0
 11 12  2  3
 12 13  1  0
 13 14  1  0
 15 16  1  0
M  END
