
     RDKit          3D

 16 18  0  0  0  0  0  0  0  0999 V2000
    4.5130   -0.5770    1.1210 O   0  0  0  0  0  0  0  0  0  0  0  0
    3.3430   -0.3000    0.7550 C   0  0  0  0  0  0  0  0  0  0  0  0
    2.6230    0.9250    1.0070 C   0  0  0  0  0  0  0  0  0  0  0  0
    1.4280    0.8070    0.4520 C   0  0  0  0  0  0  0  0  0  0  0  0
    0.2450    2.1250    0.5510 S   0  0  0  0  0  0  0  0  0  0  0  0
   -1.0880    1.7820   -0.6560 C   0  0  0  0  0  0  0  0  0  0  0  0
   -1.6630    0.4770   -0.2590 C   0  0  0  0  0  0  0  0  0  0  0  0
   -2.8970    0.3650    0.3200 C   0  0  0  0  0  0  0  0  0  0  0  0
   -4.0250    1.6840    0.7030 Cl  0  0  0  0  0  0  0  0  0  0  0  0
   -3.1020   -0.9790    0.5530 C   0  0  0  0  0  0  0  0  0  0  0  0
   -1.9990   -1.5970    0.1090 N   0  0  0  0  0  0  0  0  0  0  0  0
   -1.1250   -0.7410   -0.3810 N   0  0  0  0  0  0  0  0  0  0  0  0
    0.1860   -1.1280   -0.9440 C   0  0  0  0  0  0  0  0  0  0  0  0
    1.3060   -0.5160   -0.1970 C   0  0  0  0  0  0  0  0  0  0  0  0
    2.4600   -1.1800   -0.0130 C   0  0  0  0  0  0  0  0  0  0  0  0
    2.8500   -2.7920   -0.5770 Cl  0  0  0  0  0  0  0  0  0  0  0  0
  1  2  2  0
  2  3  1  0
  2 15  1  0
  3  4  2  0
  4  5  1  0
  4 14  1  0
  5  6  1  0
  6  7  1  0
  7  8  2  0
  7 12  1  0
  8  9  1  0
  8 10  1  0
 10 11  2  0
 11 12  1  0
 12 13  1  0
 13 14  1  0
 14 15  2  0
 15 16  1  0
M  END
