
     RDKit          3D

 26 28  0  0  0  0  0  0  0  0999 V2000
   -6.6320   -0.6690   -0.2730 C   0  0  0  0  0  0  0  0  0  0  0  0
   -5.4690   -0.5440    0.6440 C   0  0  0  0  0  0  0  0  0  0  0  0
   -5.6120   -0.5020    1.9790 N   0  0  0  0  0  0  0  0  0  0  0  0
   -4.4080   -0.3880    2.5450 C   0  0  0  0  0  0  0  0  0  0  0  0
   -3.4880   -0.3580    1.5140 C   0  0  0  0  0  0  0  0  0  0  0  0
   -2.0330   -0.2430    1.6390 C   0  0  0  0  0  0  0  0  0  0  0  0
   -1.5260   -0.1530    2.9210 C   0  0  0  0  0  0  0  0  0  0  0  0
   -0.1450   -0.0420    3.0860 C   0  0  0  0  0  0  0  0  0  0  0  0
    0.6210   -0.0270    1.9930 N   0  0  0  0  0  0  0  0  0  0  0  0
    0.1520   -0.1120    0.7450 C   0  0  0  0  0  0  0  0  0  0  0  0
    0.9720   -0.0950   -0.4060 N   0  0  0  0  0  0  0  0  0  0  0  0
    2.3730    0.0050   -0.4500 C   0  0  0  0  0  0  0  0  0  0  0  0
    3.2160   -0.0520    0.6380 C   0  0  0  0  0  0  0  0  0  0  0  0
    4.5930    0.0680    0.4960 C   0  0  0  0  0  0  0  0  0  0  0  0
    5.1900    0.2480   -0.7260 C   0  0  0  0  0  0  0  0  0  0  0  0
    6.9140    0.3960   -0.8780 S   0  0  2  0  0  0  0  0  0  0  0  0
    7.4050    2.1060   -0.7480 C   0  0  0  0  0  0  0  0  0  0  0  0
    7.3700   -0.1200   -2.2320 O   0  0  0  0  0  0  0  0  0  0  0  0
    7.6380   -0.3830    0.1550 O   0  0  0  0  0  0  0  0  0  0  0  0
    4.3470    0.3050   -1.8200 C   0  0  0  0  0  0  0  0  0  0  0  0
    2.9880    0.1880   -1.6860 C   0  0  0  0  0  0  0  0  0  0  0  0
   -1.1940   -0.2190    0.6280 N   0  0  0  0  0  0  0  0  0  0  0  0
   -4.1370   -0.4540    0.3500 N   0  0  0  0  0  0  0  0  0  0  0  0
   -3.6720   -0.4710   -1.0130 C   0  0  1  0  0  0  0  0  0  0  0  0
   -3.0680    0.8610   -1.4220 C   0  0  0  0  0  0  0  0  0  0  0  0
   -2.7580   -1.5680   -1.3710 C   0  0  0  0  0  0  0  0  0  0  0  0
  1  2  1  0
  2  3  2  0
  2 23  1  0
  3  4  1  0
  4  5  2  0
  5  6  1  0
  5 23  1  0
  6  7  2  0
  6 22  1  0
  7  8  1  0
  8  9  2  0
  9 10  1  0
 10 11  1  0
 10 22  2  0
 11 12  1  0
 12 13  2  0
 12 21  1  0
 13 14  1  0
 14 15  2  0
 15 16  1  0
 15 20  1  0
 16 17  1  6
 16 18  2  0
 16 19  2  0
 20 21  2  0
 23 24  1  0
 24 25  1  1
 24 26  1  0
M  END
