
     RDKit          3D

 16 18  0  0  0  0  0  0  0  0999 V2000
   -2.1530    2.9280   -0.2950 O   0  0  0  0  0  0  0  0  0  0  0  0
   -1.4250    1.9260   -0.1950 C   0  0  0  0  0  0  0  0  0  0  0  0
   -0.0740    2.0560   -0.0600 N   0  0  0  0  0  0  0  0  0  0  0  0
    0.6400    0.9100    0.0420 C   0  0  0  0  0  0  0  0  0  0  0  0
    2.0250    1.0290    0.1810 C   0  0  0  0  0  0  0  0  0  0  0  0
    2.8220   -0.0770    0.2900 C   0  0  0  0  0  0  0  0  0  0  0  0
    4.5530    0.0660    0.4630 Cl  0  0  0  0  0  0  0  0  0  0  0  0
    2.2730   -1.3340    0.2660 C   0  0  0  0  0  0  0  0  0  0  0  0
    3.2820   -2.7760    0.4060 Cl  0  0  0  0  0  0  0  0  0  0  0  0
    0.9160   -1.4530    0.1310 C   0  0  0  0  0  0  0  0  0  0  0  0
    0.0920   -0.3390    0.0180 C   0  0  0  0  0  0  0  0  0  0  0  0
   -1.2900   -0.5040   -0.1190 C   0  0  0  0  0  0  0  0  0  0  0  0
   -2.0320   -1.5890   -0.1670 N   0  0  0  0  0  0  0  0  0  0  0  0
   -3.1320   -1.7160   -0.2760 C   0  0  0  0  0  0  0  0  0  0  0  0
   -3.6870    0.0900   -0.3790 S   0  0  0  0  0  0  0  0  0  0  0  0
   -2.0020    0.6910   -0.2220 C   0  0  0  0  0  0  0  0  0  0  0  0
  1  2  2  0
  2  3  1  0
  2 16  1  0
  3  4  1  0
  4  5  2  0
  4 11  1  0
  5  6  1  0
  6  7  1  0
  6  8  2  0
  8  9  1  0
  8 10  1  0
 10 11  2  0
 11 12  1  0
 12 13  1  0
 12 16  2  0
 13 14  2  0
 14 15  1  0
 15 16  1  0
M  END
