
     RDKit          3D

 16 18  0  0  0  0  0  0  0  0999 V2000
   -0.1810    1.8650   -1.9920 O   0  0  0  0  0  0  0  0  0  0  0  0
   -0.2360    1.0060   -1.0790 C   0  0  0  0  0  0  0  0  0  0  0  0
   -1.4570    0.5080   -0.5930 C   0  0  0  0  0  0  0  0  0  0  0  0
   -1.4000   -0.4040    0.3800 C   0  0  0  0  0  0  0  0  0  0  0  0
   -0.1870   -0.8230    0.8720 N   0  0  0  0  0  0  0  0  0  0  0  0
    0.9860   -0.3660    0.4280 C   0  0  0  0  0  0  0  0  0  0  0  0
    2.2010   -0.7890    0.9250 C   0  0  0  0  0  0  0  0  0  0  0  0
    2.1910   -1.9850    2.1990 Cl  0  0  0  0  0  0  0  0  0  0  0  0
    3.3830   -0.2950    0.4420 C   0  0  0  0  0  0  0  0  0  0  0  0
    3.3340    0.6470   -0.5630 C   0  0  0  0  0  0  0  0  0  0  0  0
    4.8510    1.3030   -1.2060 Cl  0  0  0  0  0  0  0  0  0  0  0  0
    2.1490    1.0530   -1.0400 N   0  0  0  0  0  0  0  0  0  0  0  0
    0.9820    0.5730   -0.5720 C   0  0  0  0  0  0  0  0  0  0  0  0
   -2.6910   -0.9260    0.8880 C   0  0  0  0  0  0  0  0  0  0  0  0
   -3.8590    0.3200    0.2720 S   0  0  0  0  0  0  0  0  0  0  0  0
   -2.7810    0.9240   -1.0860 C   0  0  0  0  0  0  0  0  0  0  0  0
  1  2  2  0
  2  3  1  0
  2 13  1  0
  3  4  2  0
  3 16  1  0
  4  5  1  0
  4 14  1  0
  5  6  1  0
  6  7  2  0
  6 13  1  0
  7  8  1  0
  7  9  1  0
  9 10  2  0
 10 11  1  0
 10 12  1  0
 12 13  2  0
 14 15  1  0
 15 16  1  0
M  END
