
     RDKit          3D

 15 17  0  0  0  0  0  0  0  0999 V2000
   -5.0300    0.1380    0.8480 Cl  0  0  0  0  0  0  0  0  0  0  0  0
   -3.3610    0.3340    0.2960 C   0  0  0  0  0  0  0  0  0  0  0  0
   -2.9550    1.4730   -0.3370 C   0  0  0  0  0  0  0  0  0  0  0  0
   -1.6420    1.6130   -0.7660 C   0  0  0  0  0  0  0  0  0  0  0  0
   -0.7210    0.6130   -0.5650 C   0  0  0  0  0  0  0  0  0  0  0  0
   -1.1600   -0.5450    0.0860 C   0  0  0  0  0  0  0  0  0  0  0  0
   -2.4620   -0.6740    0.5070 C   0  0  0  0  0  0  0  0  0  0  0  0
   -0.3720   -1.6970    0.3940 N   0  0  0  0  0  0  0  0  0  0  0  0
    1.0530   -1.7060    0.4870 C   0  0  0  0  0  0  0  0  0  0  0  0
    1.8990   -0.8820   -0.0320 C   0  0  0  0  0  0  0  0  0  0  0  0
    3.6630   -1.0150    0.1680 S   0  0  0  0  0  0  0  0  0  0  0  0
    4.0350    0.5870   -0.6770 C   0  0  0  0  0  0  0  0  0  0  0  0
    2.8700    0.7310   -1.4270 O   0  0  0  0  0  0  0  0  0  0  0  0
    1.7180    0.2890   -0.8540 C   0  0  0  0  0  0  0  0  0  0  0  0
    0.5860    0.9040   -1.0610 N   0  0  0  0  0  0  0  0  0  0  0  0
  1  2  1  0
  2  3  2  0
  2  7  1  0
  3  4  1  0
  4  5  2  0
  5  6  1  0
  5 15  1  0
  6  7  2  0
  6  8  1  0
  8  9  1  0
  9 10  2  0
 10 11  1  0
 10 14  1  0
 11 12  1  0
 12 13  1  0
 13 14  1  0
 14 15  2  0
M  END
