
     RDKit          3D

 11 11  0  0  0  0  0  0  0  0999 V2000
   -0.8890   -1.6660   -0.7020 N   0  0  0  0  0  0  0  0  0  0  0  0
   -0.4510   -0.7000    0.3190 C   0  0  2  0  0  0  0  0  0  0  0  0
   -0.0580   -1.4860    1.4120 O   0  0  0  0  0  0  0  0  0  0  0  0
   -1.6300    0.1160    0.7220 C   0  0  0  0  0  0  0  0  0  0  0  0
   -1.8020    1.3580   -0.1460 C   0  0  0  0  0  0  0  0  0  0  0  0
   -0.6160    2.0840   -0.0380 O   0  0  0  0  0  0  0  0  0  0  0  0
    0.3220    1.3920   -0.8320 C   0  0  0  0  0  0  0  0  0  0  0  0
    0.7050    0.1020   -0.1950 C   0  0  2  0  0  0  0  0  0  0  0  0
    1.3910   -0.6710   -1.1490 O   0  0  0  0  0  0  0  0  0  0  0  0
    1.6870    0.3750    0.9280 C   0  0  0  0  0  0  0  0  0  0  0  0
    2.7980    1.0630    0.4720 O   0  0  0  0  0  0  0  0  0  0  0  0
  2  1  1  6
  2  3  1  0
  2  4  1  0
  2  8  1  0
  4  5  1  0
  5  6  1  0
  6  7  1  0
  7  8  1  0
  8  9  1  6
  8 10  1  0
 10 11  1  0
M  CHG  1   1   1
M  END
