
     RDKit          3D

 27 30  0  0  0  0  0  0  0  0999 V2000
    0.5070    4.4620   -1.9860 C   0  0  0  0  0  0  0  0  0  0  0  0
    0.4160    4.1680   -0.5320 C   0  0  0  0  0  0  0  0  0  0  0  0
   -0.7610    3.4240   -0.1620 N   0  0  0  0  0  0  0  0  0  0  0  0
   -1.9720    3.8430    0.2070 C   0  0  0  0  0  0  0  0  0  0  0  0
   -2.7750    2.7980    0.4640 N   0  0  0  0  0  0  0  0  0  0  0  0
   -2.0530    1.6720    0.2520 C   0  0  0  0  0  0  0  0  0  0  0  0
   -2.3680    0.3100    0.3610 C   0  0  0  0  0  0  0  0  0  0  0  0
   -3.6720   -0.0310    0.7650 N   0  0  0  0  0  0  0  0  0  0  0  0
   -4.2140   -1.3110    0.9430 C   0  0  0  0  0  0  0  0  0  0  0  0
   -5.5440   -1.4750    1.3560 C   0  0  0  0  0  0  0  0  0  0  0  0
   -6.1280   -2.6890    1.5450 C   0  0  0  0  0  0  0  0  0  0  0  0
   -5.4150   -3.8350    1.3340 C   0  0  0  0  0  0  0  0  0  0  0  0
   -4.1080   -3.7260    0.9290 C   0  0  0  0  0  0  0  0  0  0  0  0
   -3.1470   -5.1540    0.6430 Cl  0  0  0  0  0  0  0  0  0  0  0  0
   -3.5210   -2.4710    0.7380 C   0  0  0  0  0  0  0  0  0  0  0  0
   -1.3880   -0.5340    0.0660 N   0  0  0  0  0  0  0  0  0  0  0  0
   -0.1610   -0.1950   -0.3150 C   0  0  0  0  0  0  0  0  0  0  0  0
    0.8330   -1.1380   -0.6160 N   0  0  0  0  0  0  0  0  0  0  0  0
    2.1850   -0.7930   -1.0330 C   0  0  2  0  0  0  0  0  0  0  0  0
    3.0030   -2.0350   -1.3030 C   0  0  0  0  0  0  0  0  0  0  0  0
    4.0790   -2.2860   -0.2940 C   0  0  0  0  0  0  0  0  0  0  0  0
    4.9280   -1.0850    0.0090 C   0  0  0  0  0  0  0  0  0  0  0  0
    4.3160    0.2060   -0.4650 C   0  0  0  0  0  0  0  0  0  0  0  0
    2.8460    0.1930   -0.1300 C   0  0  2  0  0  0  0  0  0  0  0  0
    2.5770   -0.0120    1.2660 N   0  0  0  0  0  0  0  0  0  0  0  0
    0.1120    1.1110   -0.4100 N   0  0  0  0  0  0  0  0  0  0  0  0
   -0.7950    2.0690   -0.1390 C   0  0  0  0  0  0  0  0  0  0  0  0
  1  2  1  0
  2  3  1  0
  3  4  1  0
  3 27  1  0
  4  5  2  0
  5  6  1  0
  6  7  2  0
  6 27  1  0
  7  8  1  0
  7 16  1  0
  8  9  1  0
  9 10  2  0
  9 15  1  0
 10 11  1  0
 11 12  2  0
 12 13  1  0
 13 14  1  0
 13 15  2  0
 16 17  2  0
 17 18  1  0
 17 26  1  0
 19 18  1  1
 19 20  1  0
 19 24  1  0
 20 21  1  0
 21 22  1  0
 22 23  1  0
 23 24  1  0
 24 25  1  1
 26 27  2  0
M  CHG  1  25   1
M  END
