
     RDKit          3D

 23 24  0  0  0  0  0  0  0  0999 V2000
    1.8300    2.1820   -1.0660 C   0  0  0  0  0  0  0  0  0  0  0  0
    1.2900    1.0070   -1.4580 O   0  0  0  0  0  0  0  0  0  0  0  0
    1.4350   -0.1170   -0.7360 C   0  0  2  0  0  0  0  0  0  0  0  0
    0.6190   -1.5110   -1.5980 Cl  0  0  0  0  0  0  0  0  0  0  0  0
    0.8830   -0.0000    0.5230 O   0  0  0  0  0  0  0  0  0  0  0  0
   -0.4880    0.2180    0.5690 C   0  0  1  0  0  0  0  0  0  0  0  0
   -1.0920   -0.8400   -0.0220 O   0  0  0  0  0  0  0  0  0  0  0  0
   -2.4130   -0.9540   -0.1500 C   0  0  1  0  0  0  0  0  0  0  0  0
   -3.1170   -0.9470    1.1870 C   0  0  0  0  0  0  0  0  0  0  0  0
   -3.1360    0.0010   -1.0510 C   0  0  0  0  0  0  0  0  0  0  0  0
   -2.6660   -2.3510   -0.7600 C   0  0  0  0  0  0  0  0  0  0  0  0
   -0.8080    0.4940    1.9400 N   0  0  0  0  0  0  0  0  0  0  0  0
   -1.2710    1.6780    2.1090 C   0  0  0  0  0  0  0  0  0  0  0  0
   -1.7570    3.0540    1.9820 C   0  0  0  0  0  0  0  0  0  0  0  0
   -1.3390    2.2830    0.7690 C   0  0  0  0  0  0  0  0  0  0  0  0
   -0.9130    1.4150   -0.1070 N   0  0  0  0  0  0  0  0  0  0  0  0
    2.8640   -0.5900   -0.5860 C   0  0  2  0  0  0  0  0  0  0  0  0
    3.7720    0.3630    0.1190 C   0  0  0  0  0  0  0  0  0  0  0  0
    3.4280   -0.7950   -1.8650 F   0  0  0  0  0  0  0  0  0  0  0  0
    2.8710   -1.9020    0.0900 C   0  0  0  0  0  0  0  0  0  0  0  0
    1.7850   -2.3910    0.4850 O   0  0  0  0  0  0  0  0  0  0  0  0
    4.1320   -2.5940    0.2810 C   0  0  0  0  0  0  0  0  0  0  0  0
    5.2030   -2.1210   -0.1240 O   0  0  0  0  0  0  0  0  0  0  0  0
  1  2  1  0
  2  3  1  0
  3  4  1  6
  3  5  1  0
  3 17  1  0
  6  5  1  1
  6  7  1  0
  6 12  1  0
  6 16  1  0
  7  8  1  0
  8  9  1  1
  8 10  1  0
  8 11  1  0
 12 13  2  0
 13 14  1  0
 13 15  1  0
 14 15  1  0
 15 16  2  0
 17 18  1  1
 17 19  1  0
 17 20  1  0
 20 21  2  0
 20 22  1  0
 22 23  2  0
M  CHG  1  16   1
M  END
