
     RDKit          3D

 11 11  0  0  0  0  0  0  0  0999 V2000
   -0.2640    1.8010   -0.2740 N   0  0  0  0  0  0  0  0  0  0  0  0
   -0.4250    0.5380    0.4690 C   0  0  1  0  0  0  0  0  0  0  0  0
   -1.7010   -0.0950    0.0430 C   0  0  2  0  0  0  0  0  0  0  0  0
   -2.6730   -0.1070    1.0740 O   0  0  0  0  0  0  0  0  0  0  0  0
   -1.5940   -1.4940   -0.4590 C   0  0  0  0  0  0  0  0  0  0  0  0
   -0.7190   -2.1840    0.3740 O   0  0  0  0  0  0  0  0  0  0  0  0
    0.5780   -1.7630    0.2100 C   0  0  0  0  0  0  0  0  0  0  0  0
    0.7890   -0.2930    0.4180 C   0  0  2  0  0  0  0  0  0  0  0  0
    1.5190   -0.1730    1.6280 O   0  0  0  0  0  0  0  0  0  0  0  0
    1.8010    0.1510   -0.6500 C   0  0  0  0  0  0  0  0  0  0  0  0
    2.2350    1.4460   -0.4470 O   0  0  0  0  0  0  0  0  0  0  0  0
  2  1  1  6
  2  3  1  0
  2  8  1  0
  3  4  1  1
  3  5  1  0
  5  6  1  0
  6  7  1  0
  7  8  1  0
  8  9  1  1
  8 10  1  0
 10 11  1  0
M  CHG  1   1   1
M  END
