
     RDKit          3D

 24 24  0  0  0  0  0  0  0  0999 V2000
   -3.4450   -3.0130   -0.2920 C   0  0  0  0  0  0  0  0  0  0  0  0
   -3.5570   -1.7410   -1.0990 C   0  0  0  0  0  0  0  0  0  0  0  0
   -3.1410   -0.5770   -0.2560 C   0  0  0  0  0  0  0  0  0  0  0  0
   -4.0210    0.3900   -0.0410 C   0  0  0  0  0  0  0  0  0  0  0  0
   -3.7470    1.5940    0.7680 C   0  0  0  0  0  0  0  0  0  0  0  0
   -3.9050    2.8530   -0.0560 C   0  0  0  0  0  0  0  0  0  0  0  0
   -5.5610    2.9280   -0.6570 Cl  0  0  0  0  0  0  0  0  0  0  0  0
   -1.8410   -0.5950    0.2430 N   0  0  0  0  0  0  0  0  0  0  0  0
   -1.3750   -1.0230    1.3320 C   0  0  0  0  0  0  0  0  0  0  0  0
    0.0840   -0.8990    1.5820 C   0  0  0  0  0  0  0  0  0  0  0  0
    0.7870   -0.2840    0.5000 N   0  0  1  0  0  0  0  0  0  0  0  0
    0.4920    1.1220    0.3470 C   0  0  0  0  0  0  0  0  0  0  0  0
    2.1890   -0.5230    0.6570 C   0  0  1  0  0  0  0  0  0  0  0  0
    2.9220   -0.6590   -0.6680 C   0  0  0  0  0  0  0  0  0  0  0  0
    3.1340    0.5850   -1.1840 O   0  0  0  0  0  0  0  0  0  0  0  0
    3.9120    1.3340   -0.3230 C   0  0  2  0  0  0  0  0  0  0  0  0
    5.3430    0.9010   -0.2730 C   0  0  0  0  0  0  0  0  0  0  0  0
    5.8870    1.0200   -1.5620 O   0  0  0  0  0  0  0  0  0  0  0  0
    7.2170    0.6800   -1.8030 C   0  0  0  0  0  0  0  0  0  0  0  0
    7.8780    0.2720   -0.8200 O   0  0  0  0  0  0  0  0  0  0  0  0
    7.6940    0.8100   -3.0490 F   0  0  0  0  0  0  0  0  0  0  0  0
    3.0630    0.9790    1.2720 S   0  0  0  0  0  0  0  0  0  0  0  0
   -2.2420   -1.5890    2.2470 O   0  0  0  0  0  0  0  0  0  0  0  0
   -3.4950   -1.1590    2.4320 O   0  0  0  0  0  0  0  0  0  0  0  0
  1  2  1  0
  2  3  1  0
  3  4  2  3
  3  8  1  0
  4  5  1  0
  5  6  1  0
  6  7  1  0
  8  9  2  3
  9 10  1  0
  9 23  1  0
 10 11  1  0
 11 12  1  1
 11 13  1  0
 13 14  1  6
 13 22  1  0
 14 15  1  0
 15 16  1  0
 16 17  1  1
 16 22  1  0
 17 18  1  0
 18 19  1  0
 19 20  2  0
 19 21  1  0
 23 24  1  0
M  CHG  1  11   1
M  END
