
     RDKit          3D

 11 11  0  0  0  0  0  0  0  0999 V2000
   -1.8520    0.1140   -1.6340 N   0  0  0  0  0  0  0  0  0  0  0  0
   -1.0450    0.7180   -0.5560 C   0  0  1  0  0  0  0  0  0  0  0  0
   -1.8510    1.3200    0.4920 C   0  0  0  0  0  0  0  0  0  0  0  0
   -1.9660    0.4240    1.5080 O   0  0  0  0  0  0  0  0  0  0  0  0
   -1.0080   -0.5490    1.3870 C   0  0  0  0  0  0  0  0  0  0  0  0
   -0.2010   -0.3570    0.0840 C   0  0  1  0  0  0  0  0  0  0  0  0
   -0.1360   -1.5170   -0.5990 O   0  0  0  0  0  0  0  0  0  0  0  0
    1.1490    0.1780    0.4210 C   0  0  0  0  0  0  0  0  0  0  0  0
    2.2310   -0.8850    0.1270 C   0  0  0  0  0  0  0  0  0  0  0  0
    3.3740   -0.2610    0.5920 O   0  0  0  0  0  0  0  0  0  0  0  0
    3.6770    0.7400   -0.1670 O   0  0  0  0  0  0  0  0  0  0  0  0
  2  1  1  6
  2  3  1  0
  2  6  1  0
  3  4  1  0
  4  5  1  0
  5  6  1  0
  6  7  1  6
  6  8  1  0
  8  9  1  0
  9 10  1  0
 10 11  1  0
M  CHG  1   1   1
M  END
