
     RDKit          3D

 23 24  0  0  0  0  0  0  0  0999 V2000
   -2.2310    3.1380    0.8570 C   0  0  0  0  0  0  0  0  0  0  0  0
   -1.9700    2.5170   -0.2810 C   0  0  0  0  0  0  0  0  0  0  0  0
   -1.7360    1.1180   -0.2840 N   0  0  0  0  0  0  0  0  0  0  0  0
   -2.7380    0.2970    0.3510 C   0  0  0  0  0  0  0  0  0  0  0  0
   -3.4410   -0.4880   -0.7530 C   0  0  0  0  0  0  0  0  0  0  0  0
   -4.5020   -1.3570   -0.1120 C   0  0  0  0  0  0  0  0  0  0  0  0
   -0.5970    0.5130   -0.8980 C   0  0  2  0  0  0  0  0  0  0  0  0
   -0.7620   -0.0200   -2.1780 F   0  0  0  0  0  0  0  0  0  0  0  0
    0.2970   -0.3500   -0.0280 C   0  0  1  0  0  0  0  0  0  0  0  0
   -0.1230   -0.5470    1.3100 O   0  0  0  0  0  0  0  0  0  0  0  0
    0.6690   -1.3440    2.1220 C   0  0  0  0  0  0  0  0  0  0  0  0
    0.9330   -2.5560    1.7670 N   0  0  0  0  0  0  0  0  0  0  0  0
    1.0210   -1.3560   -0.6350 O   0  0  0  0  0  0  0  0  0  0  0  0
    2.2270   -0.8350   -1.0480 C   0  0  2  0  0  0  0  0  0  0  0  0
    2.9310   -1.7790   -2.4270 S   0  0  0  0  0  0  0  0  0  0  0  0
    3.2010   -0.7340    0.1010 C   0  0  0  0  0  0  0  0  0  0  0  0
    4.5080   -0.1580   -0.4320 C   0  0  0  0  0  0  0  0  0  0  0  0
    1.8980    0.5530   -1.4490 C   0  0  0  0  0  0  0  0  0  0  0  0
    2.3710    1.2760   -2.2950 O   0  0  0  0  0  0  0  0  0  0  0  0
    0.7520    0.9400   -0.5170 C   0  0  1  0  0  0  0  0  0  0  0  0
    1.0020    2.1460    0.2640 C   0  0  0  0  0  0  0  0  0  0  0  0
    1.2990    2.1990    1.4460 O   0  0  0  0  0  0  0  0  0  0  0  0
    0.8700    3.7190   -0.5480 Cl  0  0  0  0  0  0  0  0  0  0  0  0
  1  2  2  0
  2  3  1  0
  3  4  1  0
  3  7  1  0
  4  5  1  0
  5  6  1  0
  7  8  1  6
  7  9  1  0
  7 20  1  0
  9 10  1  1
  9 13  1  0
  9 20  1  0
 10 11  1  0
 11 12  2  0
 13 14  1  0
 14 15  1  6
 14 16  1  0
 14 18  1  0
 16 17  1  0
 18 19  2  0
 18 20  1  0
 20 21  1  1
 21 22  2  0
 21 23  1  0
M  CHG  1  12   1
M  END
