
     RDKit          3D

 10 10  0  0  0  0  0  0  0  0999 V2000
    2.7280    1.5360    0.2570 O   0  0  0  0  0  0  0  0  0  0  0  0
    2.3010    0.2870    0.6680 C   0  0  0  0  0  0  0  0  0  0  0  0
    1.2550   -0.2040   -0.3150 C   0  0  2  0  0  0  0  0  0  0  0  0
    0.0750    0.7420   -0.3990 C   0  0  0  0  0  0  0  0  0  0  0  0
   -1.0940   -0.2190   -0.5130 C   0  0  2  0  0  0  0  0  0  0  0  0
   -1.2130   -0.6480   -1.8190 O   0  0  0  0  0  0  0  0  0  0  0  0
   -2.3780    0.4240   -0.0350 C   0  0  0  0  0  0  0  0  0  0  0  0
   -2.3000    0.8650    1.2610 O   0  0  0  0  0  0  0  0  0  0  0  0
   -0.6460   -1.3460    0.3900 C   0  0  0  0  0  0  0  0  0  0  0  0
    0.7380   -1.5010    0.0170 N   0  0  0  0  0  0  0  0  0  0  0  0
  1  2  1  0
  3  2  1  1
  3  4  1  0
  3 10  1  0
  4  5  1  0
  5  6  1  6
  5  7  1  0
  5  9  1  0
  7  8  1  0
  9 10  1  0
M  CHG  1  10   1
M  END
