
     RDKit          3D

 11 11  0  0  0  0  0  0  0  0999 V2000
   -3.6100    0.9380   -0.8390 O   0  0  0  0  0  0  0  0  0  0  0  0
   -2.3110    1.2320   -0.3640 C   0  0  0  0  0  0  0  0  0  0  0  0
   -1.5860   -0.0900   -0.2970 C   0  0  2  0  0  0  0  0  0  0  0  0
   -2.2910   -0.9050    0.5770 O   0  0  0  0  0  0  0  0  0  0  0  0
   -0.1650    0.0510    0.1850 C   0  0  2  0  0  0  0  0  0  0  0  0
    0.6700    0.9300   -0.6820 C   0  0  0  0  0  0  0  0  0  0  0  0
    1.5340    0.1450   -1.4790 O   0  0  0  0  0  0  0  0  0  0  0  0
    2.5100   -0.3800   -0.6100 C   0  0  1  0  0  0  0  0  0  0  0  0
    3.0890    0.6800    0.0770 O   0  0  0  0  0  0  0  0  0  0  0  0
    1.8310   -1.2810    0.3750 C   0  0  0  0  0  0  0  0  0  0  0  0
    0.4010   -1.2890    0.2150 N   0  0  0  0  0  0  0  0  0  0  0  0
  1  2  1  0
  2  3  1  0
  3  4  1  1
  3  5  1  0
  5  6  1  6
  5 11  1  0
  6  7  1  0
  7  8  1  0
  8  9  1  1
  8 10  1  0
 10 11  1  0
M  CHG  1  11   1
M  END
