
     RDKit          3D

 31 35  0  0  0  0  0  0  0  0999 V2000
   -1.7170   -2.0980    0.0170 O   0  0  0  0  0  0  0  0  0  0  0  0
   -1.0780   -0.9510    0.4650 C   0  0  2  0  0  0  0  0  0  0  0  0
    0.3480   -1.1270    0.3060 C   0  0  0  0  0  0  0  0  0  0  0  0
    1.2120   -0.3350   -0.3900 C   0  0  0  0  0  0  0  0  0  0  0  0
    2.5770   -0.5510   -0.4940 C   0  0  0  0  0  0  0  0  0  0  0  0
    3.1320   -1.6240    0.1320 C   0  0  0  0  0  0  0  0  0  0  0  0
    4.5860   -1.9050    0.0400 C   0  0  0  0  0  0  0  0  0  0  0  0
    5.3630   -0.6680   -0.1580 C   0  0  0  0  0  0  0  0  0  0  0  0
    5.5710   -0.0860   -1.4000 C   0  0  0  0  0  0  0  0  0  0  0  0
    5.1050   -0.7150   -2.4940 F   0  0  0  0  0  0  0  0  0  0  0  0
    6.2540    1.0900   -1.5880 C   0  0  0  0  0  0  0  0  0  0  0  0
    6.7760    1.7520   -0.5160 C   0  0  0  0  0  0  0  0  0  0  0  0
    6.6050    1.2240    0.7460 C   0  0  0  0  0  0  0  0  0  0  0  0
    7.1200    1.8750    1.8150 F   0  0  0  0  0  0  0  0  0  0  0  0
    5.9080    0.0320    0.9080 C   0  0  0  0  0  0  0  0  0  0  0  0
    5.7760   -0.4230    2.1710 F   0  0  0  0  0  0  0  0  0  0  0  0
    2.2920   -2.4570    0.8510 C   0  0  0  0  0  0  0  0  0  0  0  0
    0.9380   -2.2210    0.9390 C   0  0  0  0  0  0  0  0  0  0  0  0
   -1.3540   -0.8840    1.9840 C   0  0  0  0  0  0  0  0  0  0  0  0
   -0.4790    0.2750    2.4330 C   0  0  0  0  0  0  0  0  0  0  0  0
   -1.0200    1.5220    1.8510 C   0  0  0  0  0  0  0  0  0  0  0  0
   -1.3890    1.5370    0.4210 C   0  0  0  0  0  0  0  0  0  0  0  0
   -1.7140    0.2200   -0.2150 C   0  0  1  0  0  0  0  0  0  0  0  0
   -1.4810    0.1260   -1.6820 C   0  0  0  0  0  0  0  0  0  0  0  0
   -2.8230   -0.2190   -2.3470 C   0  0  0  0  0  0  0  0  0  0  0  0
   -3.8590    0.1540   -1.3630 C   0  0  1  0  0  0  0  0  0  0  0  0
   -4.4370    1.5020   -1.6830 C   0  0  0  0  0  0  0  0  0  0  0  0
   -5.6540    1.5070   -0.7630 C   0  0  0  0  0  0  0  0  0  0  0  0
   -5.9910    0.0350   -0.7220 C   0  0  0  0  0  0  0  0  0  0  0  0
   -4.9950   -0.6470   -1.3890 O   0  0  0  0  0  0  0  0  0  0  0  0
   -3.2330    0.0290   -0.0240 C   0  0  0  0  0  0  0  0  0  0  0  0
  2  1  1  6
  2  3  1  0
  2 19  1  0
  2 23  1  0
  3  4  2  0
  3 18  1  0
  4  5  1  0
  5  6  2  0
  6  7  1  0
  6 17  1  0
  7  8  1  0
  8  9  2  0
  8 15  1  0
  9 10  1  0
  9 11  1  0
 11 12  2  0
 12 13  1  0
 13 14  1  0
 13 15  2  0
 15 16  1  0
 17 18  2  0
 19 20  1  0
 20 21  1  0
 21 22  1  0
 23 22  1  1
 23 24  1  0
 23 31  1  0
 24 25  1  0
 26 25  1  6
 26 27  1  0
 26 30  1  0
 26 31  1  0
 27 28  1  0
 28 29  1  0
 29 30  1  0
M  END
