
     RDKit          3D

 32 36  0  0  0  0  0  0  0  0999 V2000
   -3.5040    0.3690    2.0360 C   0  0  0  0  0  0  0  0  0  0  0  0
   -2.7420    0.8330    0.8270 C   0  0  1  0  0  0  0  0  0  0  0  0
   -3.5410    2.1000    0.3980 C   0  0  0  0  0  0  0  0  0  0  0  0
   -1.5080    1.4120    1.3780 C   0  0  0  0  0  0  0  0  0  0  0  0
   -1.6040    2.0740    2.5600 F   0  0  0  0  0  0  0  0  0  0  0  0
   -0.3790    1.3070    0.7720 C   0  0  0  0  0  0  0  0  0  0  0  0
    0.7970    1.9040    1.3750 C   0  0  0  0  0  0  0  0  0  0  0  0
    0.7990    3.1360    2.0410 C   0  0  0  0  0  0  0  0  0  0  0  0
    2.0770    3.3880    2.4820 C   0  0  0  0  0  0  0  0  0  0  0  0
    2.8180    2.3010    2.0720 C   0  0  0  0  0  0  0  0  0  0  0  0
    4.1520    2.1850    2.3280 F   0  0  0  0  0  0  0  0  0  0  0  0
    2.0350    1.4840    1.4440 O   0  0  0  0  0  0  0  0  0  0  0  0
   -0.2650    0.6110   -0.5150 C   0  0  1  0  0  0  0  0  0  0  0  0
    1.1070    0.4440   -0.9090 C   0  0  0  0  0  0  0  0  0  0  0  0
    1.6970    1.2500   -1.8770 C   0  0  0  0  0  0  0  0  0  0  0  0
    3.0160    1.1020   -2.2800 C   0  0  0  0  0  0  0  0  0  0  0  0
    3.7980    0.1190   -1.7120 C   0  0  0  0  0  0  0  0  0  0  0  0
    5.1150   -0.0820   -2.0650 C   0  0  0  0  0  0  0  0  0  0  0  0
    5.8510   -1.0810   -1.4610 C   0  0  0  0  0  0  0  0  0  0  0  0
    5.3110   -1.9100   -0.4930 C   0  0  0  0  0  0  0  0  0  0  0  0
    3.9960   -1.7010   -0.1490 C   0  0  0  0  0  0  0  0  0  0  0  0
    3.2630   -0.6940   -0.7600 C   0  0  0  0  0  0  0  0  0  0  0  0
    1.9690   -0.5230   -0.3870 C   0  0  0  0  0  0  0  0  0  0  0  0
   -1.2200   -0.4720   -0.7580 C   0  0  1  0  0  0  0  0  0  0  0  0
   -1.4050   -1.7270   -0.0760 C   0  0  2  0  0  0  0  0  0  0  0  0
   -1.0130   -1.9880    1.3280 C   0  0  0  0  0  0  0  0  0  0  0  0
   -1.1530   -3.0150   -0.8970 C   0  0  0  0  0  0  0  0  0  0  0  0
   -2.9250   -1.4930   -0.2340 C   0  0  1  0  0  0  0  0  0  0  0  0
   -3.5030   -2.0540   -1.5220 C   0  0  0  0  0  0  0  0  0  0  0  0
   -3.6650   -1.9610    0.7930 F   0  0  0  0  0  0  0  0  0  0  0  0
   -2.6150   -0.0360   -0.3070 C   0  0  1  0  0  0  0  0  0  0  0  0
   -3.2530    0.5110   -1.4450 O   0  0  0  0  0  0  0  0  0  0  0  0
  2  1  1  1
  2  3  1  0
  2  4  1  0
  2 31  1  0
  4  5  1  0
  4  6  2  0
  6  7  1  0
  6 13  1  0
  7  8  2  0
  7 12  1  0
  8  9  1  0
  9 10  2  0
 10 11  1  0
 10 12  1  0
 13 14  1  1
 24 13  1  1
 14 15  2  0
 14 23  1  0
 15 16  1  0
 16 17  2  0
 17 18  1  0
 17 22  1  0
 18 19  2  0
 19 20  1  0
 20 21  2  0
 21 22  1  0
 22 23  2  0
 24 25  1  0
 24 31  1  0
 25 26  1  1
 25 27  1  0
 25 28  1  0
 28 29  1  6
 28 30  1  0
 28 31  1  0
 31 32  1  6
M  END
