
     RDKit          3D

 33 35  0  0  0  0  0  0  0  0999 V2000
   -5.2770   -1.2440   -2.7020 C   0  0  0  0  0  0  0  0  0  0  0  0
   -4.7300   -0.2620   -1.9020 O   0  0  0  0  0  0  0  0  0  0  0  0
   -4.1270   -0.7940   -0.7280 C   0  0  1  0  0  0  0  0  0  0  0  0
   -2.6970   -0.4960   -0.7400 C   0  0  0  0  0  0  0  0  0  0  0  0
   -2.1300    0.3150   -1.6970 C   0  0  0  0  0  0  0  0  0  0  0  0
   -0.7620    0.6140   -1.7530 C   0  0  0  0  0  0  0  0  0  0  0  0
   -0.2590    1.4800   -2.8010 C   0  0  0  0  0  0  0  0  0  0  0  0
   -1.1530    2.0280   -3.7760 N   0  0  0  0  0  0  0  0  0  0  0  0
    0.9290    1.7830   -2.9080 O   0  0  0  0  0  0  0  0  0  0  0  0
    0.0240    0.0640   -0.8020 C   0  0  0  0  0  0  0  0  0  0  0  0
    1.4220    0.2480   -0.6890 N   0  0  0  0  0  0  0  0  0  0  0  0
    2.1960   -0.3610    0.3370 C   0  0  0  0  0  0  0  0  0  0  0  0
    1.6010   -1.0870    1.1670 O   0  0  0  0  0  0  0  0  0  0  0  0
    3.6210   -0.1720    0.4500 N   0  0  0  0  0  0  0  0  0  0  0  0
    4.3800   -0.8060    1.5050 C   0  0  0  0  0  0  0  0  0  0  0  0
    5.8120   -0.3890    1.3210 C   0  0  0  0  0  0  0  0  0  0  0  0
    6.6640   -1.1340    0.5300 C   0  0  0  0  0  0  0  0  0  0  0  0
    7.9540   -0.7210    0.3900 C   0  0  0  0  0  0  0  0  0  0  0  0
    8.7410   -1.4070   -0.3390 O   0  0  0  0  0  0  0  0  0  0  0  0
    8.4090    0.3860    1.0010 N   0  0  0  0  0  0  0  0  0  0  0  0
    7.5710    1.1280    1.7850 C   0  0  0  0  0  0  0  0  0  0  0  0
    8.0600    2.2940    2.4250 N   0  0  0  0  0  0  0  0  0  0  0  0
    6.3010    0.7080    1.9130 N   0  0  0  0  0  0  0  0  0  0  0  0
   -0.5210   -0.7450    0.1580 N   0  0  0  0  0  0  0  0  0  0  0  0
   -1.8330   -1.0190    0.1920 C   0  0  0  0  0  0  0  0  0  0  0  0
   -2.3260   -1.9270    1.2750 C   0  0  0  0  0  0  0  0  0  0  0  0
   -4.9050   -0.2920    0.4070 C   0  0  0  0  0  0  0  0  0  0  0  0
   -5.3820   -1.1350    1.3760 N   0  0  0  0  0  0  0  0  0  0  0  0
   -6.0450   -0.4630    2.2990 C   0  0  0  0  0  0  0  0  0  0  0  0
   -6.0250    0.8570    1.9630 C   0  0  0  0  0  0  0  0  0  0  0  0
   -5.3040    0.9660    0.7650 C   0  0  0  0  0  0  0  0  0  0  0  0
   -5.0560    2.1820    0.0260 C   0  0  0  0  0  0  0  0  0  0  0  0
   -4.5110    2.2960   -1.0790 O   0  0  0  0  0  0  0  0  0  0  0  0
  1  2  1  0
  3  2  1  6
  3  4  1  0
  3 27  1  0
  4  5  2  0
  4 25  1  0
  5  6  1  0
  6  7  1  0
  6 10  2  0
  7  8  1  0
  7  9  2  0
 10 11  1  0
 10 24  1  0
 11 12  1  0
 12 13  2  0
 12 14  1  0
 14 15  1  0
 15 16  1  0
 16 17  2  0
 16 23  1  0
 17 18  1  0
 18 19  2  0
 18 20  1  0
 20 21  1  0
 21 22  1  0
 21 23  2  0
 24 25  2  0
 25 26  1  0
 27 28  1  0
 27 31  2  0
 28 29  1  0
 29 30  2  0
 30 31  1  0
 31 32  1  0
 32 33  2  0
M  END
