
     RDKit          3D

 33 35  0  0  0  0  0  0  0  0999 V2000
    7.2110   -4.4220    0.9130 C   0  0  0  0  0  0  0  0  0  0  0  0
    7.3790   -3.6130   -0.3560 C   0  0  2  0  0  0  0  0  0  0  0  0
    8.5550   -2.8550   -0.2370 O   0  0  0  0  0  0  0  0  0  0  0  0
    6.2540   -2.6370   -0.4560 C   0  0  0  0  0  0  0  0  0  0  0  0
    6.2340   -1.5270   -1.2270 N   0  0  0  0  0  0  0  0  0  0  0  0
    5.0710   -0.8930   -1.0660 N   0  0  0  0  0  0  0  0  0  0  0  0
    4.3320   -1.5890   -0.1900 C   0  0  0  0  0  0  0  0  0  0  0  0
    2.9830   -1.3130    0.3210 C   0  0  0  0  0  0  0  0  0  0  0  0
    2.4840   -0.0770   -0.2440 N   0  0  0  0  0  0  0  0  0  0  0  0
    1.1610    0.4090    0.1110 C   0  0  0  0  0  0  0  0  0  0  0  0
    0.5410   -0.3180    0.9110 O   0  0  0  0  0  0  0  0  0  0  0  0
    0.6790    1.6560   -0.4690 C   0  0  0  0  0  0  0  0  0  0  0  0
    1.4580    2.5670   -1.1210 N   0  0  0  0  0  0  0  0  0  0  0  0
    0.7120    3.6010   -1.4840 C   0  0  0  0  0  0  0  0  0  0  0  0
    1.1940    4.6050   -2.1210 O   0  0  0  0  0  0  0  0  0  0  0  0
   -0.5380    3.3740   -1.0740 N   0  0  0  0  0  0  0  0  0  0  0  0
   -1.6780    4.2180   -1.2420 C   0  0  0  0  0  0  0  0  0  0  0  0
   -1.9900    5.2190   -0.2050 C   0  0  0  0  0  0  0  0  0  0  0  0
   -1.0450    6.3130    0.0420 C   0  0  0  0  0  0  0  0  0  0  0  0
   -1.0610    6.9900    1.3180 N   0  0  0  0  0  0  0  0  0  0  0  0
   -0.2120    6.7130   -0.7920 O   0  0  0  0  0  0  0  0  0  0  0  0
   -0.5800    2.1420   -0.4330 C   0  0  0  0  0  0  0  0  0  0  0  0
   -1.8240    1.5340   -0.0010 C   0  0  0  0  0  0  0  0  0  0  0  0
   -2.7390    2.2770    0.4900 O   0  0  0  0  0  0  0  0  0  0  0  0
   -2.1680    0.1690   -0.0630 N   0  0  0  0  0  0  0  0  0  0  0  0
   -3.4640   -0.3310    0.4230 C   0  0  1  0  0  0  0  0  0  0  0  0
   -4.2700   -0.9260   -0.7040 C   0  0  0  0  0  0  0  0  0  0  0  0
   -4.5670   -2.3840   -0.5120 C   0  0  0  0  0  0  0  0  0  0  0  0
   -5.1490   -2.6990    0.8380 C   0  0  1  0  0  0  0  0  0  0  0  0
   -4.7760   -4.1310    1.1780 C   0  0  0  0  0  0  0  0  0  0  0  0
   -4.6520   -1.8150    1.9340 C   0  0  0  0  0  0  0  0  0  0  0  0
   -3.2770   -1.3100    1.5480 C   0  0  0  0  0  0  0  0  0  0  0  0
    5.0710   -2.6620    0.1800 N   0  0  0  0  0  0  0  0  0  0  0  0
  2  1  1  1
  2  3  1  0
  2  4  1  0
  4  5  2  0
  4 33  1  0
  5  6  1  0
  6  7  1  0
  7  8  1  0
  7 33  2  0
  8  9  1  0
  9 10  1  0
 10 11  2  0
 10 12  1  0
 12 13  1  0
 12 22  2  0
 13 14  1  0
 14 15  2  0
 14 16  1  0
 16 17  1  0
 16 22  1  0
 17 18  1  0
 18 19  1  0
 19 20  1  0
 19 21  2  0
 22 23  1  0
 23 24  2  0
 23 25  1  0
 26 25  1  6
 26 27  1  0
 26 32  1  0
 27 28  1  0
 28 29  1  0
 29 30  1  1
 29 31  1  0
 31 32  1  0
M  END
