
     RDKit          3D

 32 35  0  0  0  0  0  0  0  0999 V2000
    3.6160    0.6250   -2.5190 C   0  0  0  0  0  0  0  0  0  0  0  0
    2.8360   -0.0640   -1.3810 C   0  0  2  0  0  0  0  0  0  0  0  0
    3.4620   -1.3890   -1.1590 C   0  0  0  0  0  0  0  0  0  0  0  0
    4.9210   -1.3300   -0.7730 C   0  0  0  0  0  0  0  0  0  0  0  0
    5.1810   -0.6010    0.4820 C   0  0  0  0  0  0  0  0  0  0  0  0
    4.3460   -0.0720    1.2240 O   0  0  0  0  0  0  0  0  0  0  0  0
    6.5600   -0.4940    0.8820 N   0  0  0  0  0  0  0  0  0  0  0  0
    6.9020    0.2030    2.0970 C   0  0  0  0  0  0  0  0  0  0  0  0
    6.4590    1.6170    2.0400 C   0  0  0  0  0  0  0  0  0  0  0  0
    5.8730    2.0660    1.0330 O   0  0  0  0  0  0  0  0  0  0  0  0
    6.6990    2.4510    3.1190 O   0  0  0  0  0  0  0  0  0  0  0  0
    1.4310   -0.0270   -1.7630 C   0  0  1  0  0  0  0  0  0  0  0  0
    1.0120   -0.6930   -3.0260 C   0  0  0  0  0  0  0  0  0  0  0  0
   -0.5220   -0.7570   -2.9060 C   0  0  0  0  0  0  0  0  0  0  0  0
   -0.8170   -0.0830   -1.5850 C   0  0  1  0  0  0  0  0  0  0  0  0
   -2.0860   -0.4220   -0.9400 C   0  0  1  0  0  0  0  0  0  0  0  0
   -2.1190    0.1200    0.4640 C   0  0  2  0  0  0  0  0  0  0  0  0
   -0.8890   -0.1090    1.2680 C   0  0  0  0  0  0  0  0  0  0  0  0
    0.3870    0.1690    0.5130 C   0  0  0  0  0  0  0  0  0  0  0  0
    0.4000   -0.5330   -0.7950 C   0  0  2  0  0  0  0  0  0  0  0  0
    0.4140   -2.0050   -0.6070 C   0  0  0  0  0  0  0  0  0  0  0  0
   -3.3360   -0.4590    1.1290 C   0  0  1  0  0  0  0  0  0  0  0  0
   -3.2630   -1.9680    1.0390 C   0  0  0  0  0  0  0  0  0  0  0  0
   -3.4460   -0.0900    2.5820 C   0  0  0  0  0  0  0  0  0  0  0  0
   -3.7750    1.3690    2.7860 C   0  0  0  0  0  0  0  0  0  0  0  0
   -5.0540    1.7620    2.0990 C   0  0  1  0  0  0  0  0  0  0  0  0
   -4.9370    2.9770    1.4060 O   0  0  0  0  0  0  0  0  0  0  0  0
   -5.5850    0.6580    1.2520 C   0  0  0  0  0  0  0  0  0  0  0  0
   -4.5580    0.0030    0.3730 C   0  0  1  0  0  0  0  0  0  0  0  0
   -4.2010    0.9270   -0.7840 C   0  0  0  0  0  0  0  0  0  0  0  0
   -3.1970    0.3090   -1.6970 C   0  0  1  0  0  0  0  0  0  0  0  0
   -2.6430    1.3460   -2.4820 O   0  0  0  0  0  0  0  0  0  0  0  0
  2  1  1  6
  2  3  1  0
  2 12  1  0
  3  4  1  0
  4  5  1  0
  5  6  2  0
  5  7  1  0
  7  8  1  0
  8  9  1  0
  9 10  2  0
  9 11  1  0
 12 13  1  6
 12 20  1  0
 13 14  1  0
 15 14  1  6
 15 16  1  0
 15 20  1  0
 16 17  1  0
 16 31  1  6
 17 18  1  1
 17 22  1  0
 18 19  1  0
 19 20  1  0
 20 21  1  1
 22 23  1  1
 22 24  1  0
 22 29  1  0
 24 25  1  0
 25 26  1  0
 26 27  1  6
 26 28  1  0
 29 28  1  1
 29 30  1  0
 30 31  1  0
 31 32  1  1
M  END
