
     RDKit          3D

 31 34  0  0  0  0  0  0  0  0999 V2000
   -3.1350   -1.3400    2.6080 C   0  0  0  0  0  0  0  0  0  0  0  0
   -2.8000   -1.3670    1.1170 C   0  0  0  0  0  0  0  0  0  0  0  0
   -2.0840   -2.5600    0.7530 C   0  0  0  0  0  0  0  0  0  0  0  0
   -1.6660   -2.9460   -0.5080 C   0  0  0  0  0  0  0  0  0  0  0  0
   -2.0140   -2.0350   -1.4860 C   0  0  0  0  0  0  0  0  0  0  0  0
   -2.7170   -0.8390   -1.1970 C   0  0  0  0  0  0  0  0  0  0  0  0
   -3.0930   -0.5170    0.0890 C   0  0  0  0  0  0  0  0  0  0  0  0
   -3.7740    0.7610    0.1750 O   0  0  0  0  0  0  0  0  0  0  0  0
   -3.1730    1.9560    0.6200 C   0  0  0  0  0  0  0  0  0  0  0  0
   -1.9520    2.1870   -0.2040 C   0  0  1  0  0  0  0  0  0  0  0  0
   -2.0630    3.6070   -0.8590 C   0  0  0  0  0  0  0  0  0  0  0  0
   -0.6270    3.9560   -1.0590 C   0  0  0  0  0  0  0  0  0  0  0  0
   -0.0420    3.4690    0.2600 C   0  0  0  0  0  0  0  0  0  0  0  0
   -0.6120    2.0170    0.2670 C   0  0  1  0  0  0  0  0  0  0  0  0
   -0.1460    1.3920    1.4860 C   0  0  1  0  0  0  0  0  0  0  0  0
   -1.0070    1.5030    2.6090 O   0  0  0  0  0  0  0  0  0  0  0  0
    0.4290    0.0370    1.5150 C   0  0  0  0  0  0  0  0  0  0  0  0
    0.9840   -0.5470    0.2750 C   0  0  1  0  0  0  0  0  0  0  0  0
    2.2550    0.0780   -0.1770 C   0  0  0  0  0  0  0  0  0  0  0  0
    3.3130    0.3730    0.6640 C   0  0  0  0  0  0  0  0  0  0  0  0
    4.4820    0.9410    0.2040 C   0  0  0  0  0  0  0  0  0  0  0  0
    4.6410    1.2400   -1.1310 C   0  0  0  0  0  0  0  0  0  0  0  0
    5.8050    1.8060   -1.6000 F   0  0  0  0  0  0  0  0  0  0  0  0
    3.6040    0.9550   -1.9830 C   0  0  0  0  0  0  0  0  0  0  0  0
    3.7650    1.2530   -3.3070 F   0  0  0  0  0  0  0  0  0  0  0  0
    2.4450    0.3880   -1.5040 C   0  0  0  0  0  0  0  0  0  0  0  0
    1.3260   -2.0310    0.4470 C   0  0  0  0  0  0  0  0  0  0  0  0
    1.2750   -2.7690   -0.8530 C   0  0  1  0  0  0  0  0  0  0  0  0
    2.6790   -2.8640   -1.3860 C   0  0  0  0  0  0  0  0  0  0  0  0
    0.5200   -4.0170   -0.9200 C   0  0  0  0  0  0  0  0  0  0  0  0
   -0.8230   -4.1630   -0.7750 C   0  0  0  0  0  0  0  0  0  0  0  0
  1  2  1  0
  2  3  2  0
  2  7  1  0
  3  4  1  0
  4  5  2  0
  4 31  1  0
  5  6  1  0
  6  7  2  0
  7  8  1  0
  8  9  1  0
 10  9  1  1
 10 11  1  0
 10 14  1  0
 11 12  1  0
 12 13  1  0
 14 13  1  1
 14 15  1  0
 15 16  1  1
 15 17  1  0
 17 18  1  0
 18 19  1  1
 18 27  1  0
 19 20  2  0
 19 26  1  0
 20 21  1  0
 21 22  2  0
 22 23  1  0
 22 24  1  0
 24 25  1  0
 24 26  2  0
 27 28  1  0
 28 29  1  1
 28 30  1  0
 30 31  2  0
M  END
