
     RDKit          3D

 32 36  0  0  0  0  0  0  0  0999 V2000
   -4.3110    3.7730    2.0220 C   0  0  0  0  0  0  0  0  0  0  0  0
   -3.5070    3.4090    0.9090 O   0  0  0  0  0  0  0  0  0  0  0  0
   -2.9760    2.1290    0.8590 C   0  0  0  0  0  0  0  0  0  0  0  0
   -3.2120    1.2160    1.8590 C   0  0  0  0  0  0  0  0  0  0  0  0
   -2.6600   -0.0460    1.7630 C   0  0  0  0  0  0  0  0  0  0  0  0
   -1.8740   -0.4180    0.6850 C   0  0  0  0  0  0  0  0  0  0  0  0
   -1.6350    0.5050   -0.3270 C   0  0  0  0  0  0  0  0  0  0  0  0
   -2.1880    1.7480   -0.2160 C   0  0  0  0  0  0  0  0  0  0  0  0
   -0.8330    0.0940   -1.4420 C   0  0  1  0  0  0  0  0  0  0  0  0
   -0.4740    0.9990   -2.3770 O   0  0  0  0  0  0  0  0  0  0  0  0
    0.3760   -0.7770   -1.0250 C   0  0  2  0  0  0  0  0  0  0  0  0
    1.5110   -0.0790   -0.5370 C   0  0  1  0  0  0  0  0  0  0  0  0
    1.9510    0.9380   -1.6390 C   0  0  0  0  0  0  0  0  0  0  0  0
    3.3310    1.2570   -1.0370 C   0  0  1  0  0  0  0  0  0  0  0  0
    3.9070    2.4890   -1.6290 C   0  0  0  0  0  0  0  0  0  0  0  0
    4.0380    2.2880   -2.9910 F   0  0  0  0  0  0  0  0  0  0  0  0
    2.8080    1.5180    0.3810 C   0  0  0  0  0  0  0  0  0  0  0  0
    3.2930    2.4120    1.3090 C   0  0  0  0  0  0  0  0  0  0  0  0
    4.3650    3.2020    0.9860 F   0  0  0  0  0  0  0  0  0  0  0  0
    2.7260    2.5300    2.5500 C   0  0  0  0  0  0  0  0  0  0  0  0
    1.6560    1.7120    2.8130 C   0  0  0  0  0  0  0  0  0  0  0  0
    1.0850    1.8260    4.0550 F   0  0  0  0  0  0  0  0  0  0  0  0
    1.1830    0.8270    1.8850 C   0  0  0  0  0  0  0  0  0  0  0  0
    1.7320    0.6980    0.6500 C   0  0  0  0  0  0  0  0  0  0  0  0
    0.8420   -1.3350   -2.4190 C   0  0  0  0  0  0  0  0  0  0  0  0
    0.4290   -2.7290   -2.6860 C   0  0  0  0  0  0  0  0  0  0  0  0
    0.8500   -3.7300   -1.6340 C   0  0  0  0  0  0  0  0  0  0  0  0
    0.6050   -3.1550   -0.2270 C   0  0  0  0  0  0  0  0  0  0  0  0
   -0.2630   -1.9630   -0.3990 C   0  0  1  0  0  0  0  0  0  0  0  0
   -1.3130   -1.7740    0.6590 C   0  0  2  0  0  0  0  0  0  0  0  0
   -2.5560   -2.6620    0.3460 C   0  0  0  0  0  0  0  0  0  0  0  0
   -0.9050   -2.2520    2.0080 C   0  0  0  0  0  0  0  0  0  0  0  0
  1  2  1  0
  2  3  1  0
  3  4  2  0
  3  8  1  0
  4  5  1  0
  5  6  2  0
  6  7  1  0
  6 30  1  0
  7  8  2  0
  7  9  1  0
  9 10  1  1
  9 11  1  0
 11 12  1  0
 11 25  1  6
 11 29  1  0
 12 13  1  6
 12 24  1  0
 13 14  1  0
 14 15  1  6
 14 17  1  0
 15 16  1  0
 17 18  2  0
 17 24  1  0
 18 19  1  0
 18 20  1  0
 20 21  2  0
 21 22  1  0
 21 23  1  0
 23 24  2  0
 25 26  1  0
 26 27  1  0
 27 28  1  0
 29 28  1  1
 29 30  1  0
 30 31  1  6
 30 32  1  0
M  END
