
     RDKit          3D

 33 35  0  0  0  0  0  0  0  0999 V2000
    2.5980    1.9460    1.0940 C   0  0  0  0  0  0  0  0  0  0  0  0
    2.2430    0.9930    0.0180 C   0  0  0  0  0  0  0  0  0  0  0  0
    3.2830    0.1120   -0.4340 N   0  0  0  0  0  0  0  0  0  0  0  0
    4.3490    0.7470   -1.1130 C   0  0  0  0  0  0  0  0  0  0  0  0
    5.5760   -0.0500   -0.8550 C   0  0  0  0  0  0  0  0  0  0  0  0
    5.2000   -1.1660    0.0830 C   0  0  0  0  0  0  0  0  0  0  0  0
    3.8280   -0.7710    0.5270 C   0  0  2  0  0  0  0  0  0  0  0  0
    2.9080   -1.9380    0.7350 C   0  0  0  0  0  0  0  0  0  0  0  0
    2.6220   -2.7430   -0.4010 N   0  0  0  0  0  0  0  0  0  0  0  0
    2.0180   -2.3250   -1.6040 C   0  0  0  0  0  0  0  0  0  0  0  0
    0.6080   -2.2220   -1.7040 C   0  0  0  0  0  0  0  0  0  0  0  0
   -0.0750   -2.3810   -0.5540 N   0  0  0  0  0  0  0  0  0  0  0  0
   -0.8070   -2.3600    0.2770 C   0  0  0  0  0  0  0  0  0  0  0  0
   -2.0550   -1.6270    0.1170 N   0  0  0  0  0  0  0  0  0  0  0  0
   -2.3660   -0.7400    1.1790 C   0  0  0  0  0  0  0  0  0  0  0  0
   -1.4230   -0.6430    2.0020 O   0  0  0  0  0  0  0  0  0  0  0  0
   -3.6160   -0.0750    1.2110 C   0  0  0  0  0  0  0  0  0  0  0  0
   -3.6750    1.2750    1.4920 C   0  0  0  0  0  0  0  0  0  0  0  0
   -4.8840    1.9180    1.4030 C   0  0  0  0  0  0  0  0  0  0  0  0
   -4.9760    3.3320    1.6470 C   0  0  0  0  0  0  0  0  0  0  0  0
   -3.8300    4.1950    2.0170 C   0  0  0  0  0  0  0  0  0  0  0  0
   -6.0970    3.9140    1.5470 O   0  0  0  0  0  0  0  0  0  0  0  0
   -6.0680    1.2630    1.0420 C   0  0  0  0  0  0  0  0  0  0  0  0
   -7.3120    1.9580    0.9650 N   0  0  0  0  0  0  0  0  0  0  0  0
   -5.9620   -0.0500    0.7780 N   0  0  0  0  0  0  0  0  0  0  0  0
   -4.8090   -0.7090    0.8510 C   0  0  0  0  0  0  0  0  0  0  0  0
   -4.7140   -1.9560    0.5990 O   0  0  0  0  0  0  0  0  0  0  0  0
   -0.0090   -1.8590   -2.8770 C   0  0  0  0  0  0  0  0  0  0  0  0
   -1.2830   -1.7850   -2.9190 O   0  0  0  0  0  0  0  0  0  0  0  0
    0.7330   -1.5900   -3.9480 N   0  0  0  0  0  0  0  0  0  0  0  0
    2.0490   -1.6840   -3.8560 N   0  0  0  0  0  0  0  0  0  0  0  0
    2.7080   -2.0360   -2.7450 C   0  0  0  0  0  0  0  0  0  0  0  0
    3.9820   -2.0980   -2.7750 O   0  0  0  0  0  0  0  0  0  0  0  0
  1  2  1  0
  2  3  1  0
  3  4  1  0
  3  7  1  0
  4  5  1  0
  5  6  1  0
  6  7  1  0
  7  8  1  6
  8  9  1  0
  9 10  1  0
 10 11  2  0
 10 32  1  0
 11 12  1  0
 11 28  1  0
 12 13  2  3
 13 14  1  0
 14 15  1  0
 15 16  2  0
 15 17  1  0
 17 18  2  0
 17 26  1  0
 18 19  1  0
 19 20  1  0
 19 23  2  0
 20 21  1  0
 20 22  2  0
 23 24  1  0
 23 25  1  0
 25 26  1  0
 26 27  2  0
 28 29  2  0
 28 30  1  0
 30 31  1  0
 31 32  1  0
 32 33  2  0
M  END
