
     RDKit          3D

 31 34  0  0  0  0  0  0  0  0999 V2000
    3.7390    0.3890   -1.8760 C   0  0  0  0  0  0  0  0  0  0  0  0
    3.1170    0.7870   -0.5370 C   0  0  0  0  0  0  0  0  0  0  0  0
    2.5440    2.1040   -0.6290 C   0  0  0  0  0  0  0  0  0  0  0  0
    1.9500    2.7930    0.4140 C   0  0  0  0  0  0  0  0  0  0  0  0
    1.9450    2.1070    1.6110 C   0  0  0  0  0  0  0  0  0  0  0  0
    2.5020    0.8060    1.7270 C   0  0  0  0  0  0  0  0  0  0  0  0
    3.0730    0.1540    0.6670 C   0  0  0  0  0  0  0  0  0  0  0  0
    3.5520   -1.1690    0.9800 O   0  0  0  0  0  0  0  0  0  0  0  0
    2.6320   -2.2910    0.9290 C   0  0  0  0  0  0  0  0  0  0  0  0
    2.1230   -2.5830   -0.4150 C   0  0  1  0  0  0  0  0  0  0  0  0
    2.0710   -4.1610   -0.4110 C   0  0  0  0  0  0  0  0  0  0  0  0
    0.9130   -4.3330    0.5880 C   0  0  0  0  0  0  0  0  0  0  0  0
    0.0190   -3.1060    0.4100 C   0  0  0  0  0  0  0  0  0  0  0  0
    0.6810   -2.4170   -0.7290 C   0  0  1  0  0  0  0  0  0  0  0  0
    0.1330   -1.1950   -1.2670 C   0  0  1  0  0  0  0  0  0  0  0  0
   -0.8840   -1.5050   -2.2190 O   0  0  0  0  0  0  0  0  0  0  0  0
   -0.5100   -0.1860   -0.3560 C   0  0  0  0  0  0  0  0  0  0  0  0
   -1.4620    0.7660   -1.0640 C   0  0  1  0  0  0  0  0  0  0  0  0
   -2.8730    0.5450   -0.7720 C   0  0  0  0  0  0  0  0  0  0  0  0
   -3.8070    1.5200   -1.0030 C   0  0  0  0  0  0  0  0  0  0  0  0
   -5.1640    1.3050   -0.7250 C   0  0  0  0  0  0  0  0  0  0  0  0
   -5.5880    0.0980   -0.2100 C   0  0  0  0  0  0  0  0  0  0  0  0
   -6.9260   -0.1080    0.0620 F   0  0  0  0  0  0  0  0  0  0  0  0
   -4.6580   -0.8790    0.0210 C   0  0  0  0  0  0  0  0  0  0  0  0
   -5.0650   -2.0620    0.5240 F   0  0  0  0  0  0  0  0  0  0  0  0
   -3.3220   -0.6450   -0.2610 C   0  0  0  0  0  0  0  0  0  0  0  0
   -1.0110    2.1910   -1.1180 C   0  0  0  0  0  0  0  0  0  0  0  0
   -1.0360    3.0480    0.0570 C   0  0  1  0  0  0  0  0  0  0  0  0
   -1.2110    2.4380    1.4160 C   0  0  0  0  0  0  0  0  0  0  0  0
   -0.0820    4.1800    0.0650 C   0  0  0  0  0  0  0  0  0  0  0  0
    1.2580    4.1240    0.2240 C   0  0  0  0  0  0  0  0  0  0  0  0
  1  2  1  0
  2  3  2  0
  2  7  1  0
  3  4  1  0
  4  5  2  0
  4 31  1  0
  5  6  1  0
  6  7  2  0
  7  8  1  0
  8  9  1  0
 10  9  1  1
 10 11  1  0
 10 14  1  0
 11 12  1  0
 12 13  1  0
 14 13  1  1
 14 15  1  0
 15 16  1  6
 15 17  1  0
 17 18  1  0
 18 19  1  1
 18 27  1  0
 19 20  2  0
 19 26  1  0
 20 21  1  0
 21 22  2  0
 22 23  1  0
 22 24  1  0
 24 25  1  0
 24 26  2  0
 27 28  1  0
 28 29  1  1
 28 30  1  0
 30 31  2  0
M  END
