
     RDKit          3D

 33 35  0  0  0  0  0  0  0  0999 V2000
    6.0060    3.9110    0.0940 C   0  0  0  0  0  0  0  0  0  0  0  0
    6.5440    3.1420    1.0430 C   0  0  0  0  0  0  0  0  0  0  0  0
    6.2340    1.7000    1.0730 C   0  0  0  0  0  0  0  0  0  0  0  0
    5.3080    1.2800   -0.0270 C   0  0  0  0  0  0  0  0  0  0  0  0
    5.0580   -0.1750    0.0850 C   0  0  0  0  0  0  0  0  0  0  0  0
    5.6010   -0.8300    1.0070 O   0  0  0  0  0  0  0  0  0  0  0  0
    4.1980   -0.8200   -0.8590 N   0  0  0  0  0  0  0  0  0  0  0  0
    3.9770   -2.2280   -0.7210 C   0  0  2  0  0  0  0  0  0  0  0  0
    4.4240   -2.8940   -2.0270 C   0  0  0  0  0  0  0  0  0  0  0  0
    2.5340   -2.5530   -0.5410 C   0  0  0  0  0  0  0  0  0  0  0  0
    1.6850   -1.5920   -0.5270 N   0  0  0  0  0  0  0  0  0  0  0  0
    0.2500   -1.5830   -0.3740 C   0  0  0  0  0  0  0  0  0  0  0  0
   -0.2290   -0.3310   -0.2900 N   0  0  0  0  0  0  0  0  0  0  0  0
   -1.5420   -0.1280   -0.1450 C   0  0  0  0  0  0  0  0  0  0  0  0
   -2.4340   -1.1660   -0.0780 C   0  0  0  0  0  0  0  0  0  0  0  0
   -3.8810   -0.9140    0.0830 C   0  0  0  0  0  0  0  0  0  0  0  0
   -4.6360   -1.8920    0.1370 O   0  0  0  0  0  0  0  0  0  0  0  0
   -4.3870    0.3450    0.1700 O   0  0  0  0  0  0  0  0  0  0  0  0
   -5.7160    0.6960    0.3200 C   0  0  0  0  0  0  0  0  0  0  0  0
   -6.1180    1.9850    0.3970 C   0  0  0  0  0  0  0  0  0  0  0  0
   -5.1700    3.1280    0.3270 C   0  0  0  0  0  0  0  0  0  0  0  0
   -5.4790    3.9890   -0.7990 N   0  0  0  0  0  0  0  0  0  0  0  0
   -7.5570    2.0310    0.5510 C   0  0  0  0  0  0  0  0  0  0  0  0
   -8.3250    3.2420    0.6650 N   0  0  0  0  0  0  0  0  0  0  0  0
   -8.0100    0.8350    0.5670 N   0  0  0  0  0  0  0  0  0  0  0  0
   -6.9180   -0.0910    0.4270 C   0  0  0  0  0  0  0  0  0  0  0  0
   -7.0270   -1.3480    0.4050 O   0  0  0  0  0  0  0  0  0  0  0  0
   -1.9550   -2.4510   -0.1620 C   0  0  0  0  0  0  0  0  0  0  0  0
   -0.5850   -2.6870   -0.3140 C   0  0  0  0  0  0  0  0  0  0  0  0
   -0.2910   -4.0760   -0.3820 N   0  0  0  0  0  0  0  0  0  0  0  0
    1.0320   -4.6480   -0.3520 C   0  0  0  0  0  0  0  0  0  0  0  0
    1.0480   -5.9020   -0.2720 O   0  0  0  0  0  0  0  0  0  0  0  0
    2.2800   -3.9500   -0.4030 N   0  0  0  0  0  0  0  0  0  0  0  0
  1  2  2  0
  2  3  1  0
  3  4  1  0
  4  5  1  0
  5  6  2  0
  5  7  1  0
  7  8  1  0
  8  9  1  6
  8 10  1  0
 10 11  2  0
 10 33  1  0
 11 12  1  0
 12 13  2  0
 12 29  1  0
 13 14  1  0
 14 15  2  0
 15 16  1  0
 15 28  1  0
 16 17  2  0
 16 18  1  0
 18 19  1  0
 19 20  2  0
 19 26  1  0
 20 21  1  0
 20 23  1  0
 21 22  1  0
 23 24  1  0
 23 25  2  0
 25 26  1  0
 26 27  2  0
 28 29  2  0
 29 30  1  0
 30 31  1  0
 31 32  2  0
 31 33  1  0
M  END
