
     RDKit          3D

 31 35  0  0  0  0  0  0  0  0999 V2000
   -1.5620   -0.4960    1.6680 O   0  0  0  0  0  0  0  0  0  0  0  0
   -0.9870    0.0540    0.4930 C   0  0  2  0  0  0  0  0  0  0  0  0
    0.4360   -0.1760    0.5930 C   0  0  0  0  0  0  0  0  0  0  0  0
    1.1450    0.5550    1.5470 C   0  0  0  0  0  0  0  0  0  0  0  0
    2.5070    0.4130    1.7130 C   0  0  0  0  0  0  0  0  0  0  0  0
    3.2510   -0.4760    0.9350 C   0  0  0  0  0  0  0  0  0  0  0  0
    4.6810   -0.5960    1.1950 C   0  0  0  0  0  0  0  0  0  0  0  0
    5.6370   -0.0370    0.2470 C   0  0  0  0  0  0  0  0  0  0  0  0
    5.8300    1.2950   -0.0060 C   0  0  0  0  0  0  0  0  0  0  0  0
    5.0040    2.1940    0.5820 F   0  0  0  0  0  0  0  0  0  0  0  0
    6.8370    1.7580   -0.8500 C   0  0  0  0  0  0  0  0  0  0  0  0
    7.6950    0.8710   -1.4770 C   0  0  0  0  0  0  0  0  0  0  0  0
    7.5220   -0.4790   -1.2430 C   0  0  0  0  0  0  0  0  0  0  0  0
    8.3800   -1.3180   -1.8640 F   0  0  0  0  0  0  0  0  0  0  0  0
    6.5170   -0.9100   -0.4020 C   0  0  0  0  0  0  0  0  0  0  0  0
    6.3820   -2.2530   -0.1950 F   0  0  0  0  0  0  0  0  0  0  0  0
    2.5900   -1.2000   -0.0010 C   0  0  0  0  0  0  0  0  0  0  0  0
    1.2100   -1.0400   -0.1520 C   0  0  0  0  0  0  0  0  0  0  0  0
   -1.2640    1.5360    0.5530 C   0  0  0  0  0  0  0  0  0  0  0  0
   -1.1370    2.2430   -0.7470 C   0  0  0  0  0  0  0  0  0  0  0  0
   -1.6130    1.5370   -1.9580 C   0  0  0  0  0  0  0  0  0  0  0  0
   -1.2630    0.0400   -1.9480 C   0  0  0  0  0  0  0  0  0  0  0  0
   -1.7640   -0.5010   -0.6360 C   0  0  1  0  0  0  0  0  0  0  0  0
   -2.0780   -1.9510   -0.5920 C   0  0  0  0  0  0  0  0  0  0  0  0
   -3.3330   -2.1280    0.2950 C   0  0  0  0  0  0  0  0  0  0  0  0
   -4.0180   -0.8090    0.2790 C   0  0  1  0  0  0  0  0  0  0  0  0
   -5.4060   -1.0330   -0.3440 C   0  0  0  0  0  0  0  0  0  0  0  0
   -6.3210   -0.0570    0.3240 C   0  0  0  0  0  0  0  0  0  0  0  0
   -5.3650    0.6520    1.2650 C   0  0  0  0  0  0  0  0  0  0  0  0
   -4.3140   -0.2670    1.5040 O   0  0  0  0  0  0  0  0  0  0  0  0
   -3.1970    0.0440   -0.6090 C   0  0  0  0  0  0  0  0  0  0  0  0
  2  1  1  1
  2  3  1  0
  2 19  1  0
  2 23  1  0
  3  4  2  0
  3 18  1  0
  4  5  1  0
  5  6  2  0
  6  7  1  0
  6 17  1  0
  7  8  1  0
  8  9  2  0
  8 15  1  0
  9 10  1  0
  9 11  1  0
 11 12  2  0
 12 13  1  0
 13 14  1  0
 13 15  2  0
 15 16  1  0
 17 18  2  0
 19 20  1  0
 20 21  1  0
 21 22  1  0
 23 22  1  6
 23 24  1  0
 23 31  1  0
 24 25  1  0
 26 25  1  1
 26 27  1  0
 26 30  1  0
 26 31  1  0
 27 28  1  0
 28 29  1  0
 29 30  1  0
M  END
