
     RDKit          3D

 33 35  0  0  0  0  0  0  0  0999 V2000
    7.7850   -3.5430    1.0200 C   0  0  0  0  0  0  0  0  0  0  0  0
    7.8570   -2.0340    0.7670 C   0  0  2  0  0  0  0  0  0  0  0  0
    8.3330   -1.4660    1.9540 O   0  0  0  0  0  0  0  0  0  0  0  0
    6.4550   -1.5870    0.5770 C   0  0  0  0  0  0  0  0  0  0  0  0
    5.9280   -1.1270   -0.5830 N   0  0  0  0  0  0  0  0  0  0  0  0
    4.6490   -0.8220   -0.3740 N   0  0  0  0  0  0  0  0  0  0  0  0
    4.3350   -1.0780    0.9110 C   0  0  0  0  0  0  0  0  0  0  0  0
    3.0370   -0.8960    1.6050 C   0  0  0  0  0  0  0  0  0  0  0  0
    2.0720   -0.2170    0.7490 N   0  0  0  0  0  0  0  0  0  0  0  0
    2.3700    1.0740    0.2940 C   0  0  0  0  0  0  0  0  0  0  0  0
    3.4950    1.5850    0.6480 O   0  0  0  0  0  0  0  0  0  0  0  0
    1.5400    1.9020   -0.5470 C   0  0  0  0  0  0  0  0  0  0  0  0
    1.9500    2.9350   -1.3270 N   0  0  0  0  0  0  0  0  0  0  0  0
    0.8950    3.4540   -1.9400 C   0  0  0  0  0  0  0  0  0  0  0  0
    0.9160    4.4350   -2.7470 O   0  0  0  0  0  0  0  0  0  0  0  0
   -0.2380    2.7850   -1.5840 N   0  0  0  0  0  0  0  0  0  0  0  0
   -1.5580    3.1300   -2.0640 C   0  0  0  0  0  0  0  0  0  0  0  0
   -2.1200    4.1550   -1.0590 C   0  0  0  0  0  0  0  0  0  0  0  0
   -3.4660    4.5670   -1.4660 C   0  0  0  0  0  0  0  0  0  0  0  0
   -4.1740    5.5100   -0.6930 N   0  0  0  0  0  0  0  0  0  0  0  0
   -4.0090    4.0980   -2.4940 O   0  0  0  0  0  0  0  0  0  0  0  0
    0.1670    1.8280   -0.7220 C   0  0  0  0  0  0  0  0  0  0  0  0
   -0.7660    0.9620   -0.0140 C   0  0  0  0  0  0  0  0  0  0  0  0
   -0.6410    0.9010    1.2600 O   0  0  0  0  0  0  0  0  0  0  0  0
   -1.7830    0.1820   -0.5550 N   0  0  0  0  0  0  0  0  0  0  0  0
   -2.6820   -0.6540    0.2260 C   0  0  1  0  0  0  0  0  0  0  0  0
   -4.0720   -0.2140   -0.0610 C   0  0  0  0  0  0  0  0  0  0  0  0
   -5.1450   -1.1920    0.1760 C   0  0  0  0  0  0  0  0  0  0  0  0
   -4.8140   -2.4210    0.9230 C   0  0  1  0  0  0  0  0  0  0  0  0
   -5.6560   -3.6000    0.4140 C   0  0  0  0  0  0  0  0  0  0  0  0
   -3.3910   -2.8620    0.8870 C   0  0  0  0  0  0  0  0  0  0  0  0
   -2.5510   -2.1110   -0.1220 C   0  0  0  0  0  0  0  0  0  0  0  0
    5.4550   -1.5410    1.4620 N   0  0  0  0  0  0  0  0  0  0  0  0
  2  1  1  1
  2  3  1  0
  2  4  1  0
  4  5  2  0
  4 33  1  0
  5  6  1  0
  6  7  1  0
  7  8  1  0
  7 33  2  0
  8  9  1  0
  9 10  1  0
 10 11  2  0
 10 12  1  0
 12 13  1  0
 12 22  2  0
 13 14  1  0
 14 15  2  0
 14 16  1  0
 16 17  1  0
 16 22  1  0
 17 18  1  0
 18 19  1  0
 19 20  1  0
 19 21  2  0
 22 23  1  0
 23 24  2  0
 23 25  1  0
 26 25  1  6
 26 27  1  0
 26 32  1  0
 27 28  1  0
 28 29  1  0
 29 30  1  6
 29 31  1  0
 31 32  1  0
M  END
