
     RDKit          3D

 33 35  0  0  0  0  0  0  0  0999 V2000
   -6.5790    1.4690   -1.6210 C   0  0  0  0  0  0  0  0  0  0  0  0
   -6.2120    0.0260   -1.8430 C   0  0  0  0  0  0  0  0  0  0  0  0
   -4.7310   -0.2160   -1.6050 C   0  0  2  0  0  0  0  0  0  0  0  0
   -4.3870   -1.6690   -1.8330 C   0  0  0  0  0  0  0  0  0  0  0  0
   -5.1040   -2.5040   -0.9690 O   0  0  0  0  0  0  0  0  0  0  0  0
   -4.3280    0.2590   -0.2410 C   0  0  0  0  0  0  0  0  0  0  0  0
   -2.8600    0.0230    0.0060 C   0  0  0  0  0  0  0  0  0  0  0  0
   -2.5400    0.5320    1.3920 C   0  0  0  0  0  0  0  0  0  0  0  0
   -3.4450    1.0260    2.0600 O   0  0  0  0  0  0  0  0  0  0  0  0
   -1.2240    0.4420    1.9100 N   0  0  0  0  0  0  0  0  0  0  0  0
   -0.7700    0.8680    3.1730 C   0  0  0  0  0  0  0  0  0  0  0  0
   -1.6020    1.4540    4.0920 C   0  0  0  0  0  0  0  0  0  0  0  0
   -1.1080    1.8630    5.3340 C   0  0  0  0  0  0  0  0  0  0  0  0
    0.2120    1.6750    5.6270 C   0  0  0  0  0  0  0  0  0  0  0  0
    1.0360    1.0840    4.6890 C   0  0  0  0  0  0  0  0  0  0  0  0
    0.5820    0.6710    3.4600 C   0  0  0  0  0  0  0  0  0  0  0  0
    1.3990    0.0630    2.4800 N   0  0  0  0  0  0  0  0  0  0  0  0
    1.3250   -1.2160    2.0890 N   0  0  0  0  0  0  0  0  0  0  0  0
    2.2330   -1.4690    1.1520 N   0  0  0  0  0  0  0  0  0  0  0  0
    2.9380   -0.3520    0.8970 C   0  0  0  0  0  0  0  0  0  0  0  0
    4.0420   -0.1770   -0.0670 C   0  0  0  0  0  0  0  0  0  0  0  0
    4.5700    0.9450   -0.1540 O   0  0  0  0  0  0  0  0  0  0  0  0
    4.5080   -1.2210   -0.8770 N   0  0  0  0  0  0  0  0  0  0  0  0
    5.5510   -1.1790   -1.8330 C   0  0  0  0  0  0  0  0  0  0  0  0
    6.3070   -0.0860   -2.1440 C   0  0  0  0  0  0  0  0  0  0  0  0
    7.2780   -0.2280   -3.0980 N   0  0  0  0  0  0  0  0  0  0  0  0
    7.5050   -1.3880   -3.7280 C   0  0  0  0  0  0  0  0  0  0  0  0
    8.4000   -1.5190   -4.6090 O   0  0  0  0  0  0  0  0  0  0  0  0
    6.7700   -2.4850   -3.4390 N   0  0  0  0  0  0  0  0  0  0  0  0
    5.8170   -2.3650   -2.5080 C   0  0  0  0  0  0  0  0  0  0  0  0
    5.1510   -3.4010   -2.2610 O   0  0  0  0  0  0  0  0  0  0  0  0
    2.3940    0.5890    1.7420 C   0  0  0  0  0  0  0  0  0  0  0  0
    2.8250    1.9410    1.8280 N   0  0  0  0  0  0  0  0  0  0  0  0
  1  2  1  0
  3  2  1  1
  3  4  1  0
  3  6  1  0
  4  5  1  0
  6  7  1  0
  7  8  1  0
  8  9  2  0
  8 10  1  0
 10 11  1  0
 11 12  2  0
 11 16  1  0
 12 13  1  0
 13 14  2  0
 14 15  1  0
 15 16  2  0
 16 17  1  0
 17 18  1  0
 17 32  1  0
 18 19  2  0
 19 20  1  0
 20 21  1  0
 20 32  2  0
 21 22  2  0
 21 23  1  0
 23 24  1  0
 24 25  2  0
 24 30  1  0
 25 26  1  0
 26 27  1  0
 27 28  2  0
 27 29  1  0
 29 30  1  0
 30 31  2  0
 32 33  1  0
M  END
