
     RDKit          3D

 41 42  0  0  0  0  0  0  0  0999 V2000
   -4.1900   -3.0340    0.4860 C   0  0  0  0  0  0  0  0  0  0  0  0
   -4.7280   -1.6600    0.7780 C   0  0  2  0  0  0  0  0  0  0  0  0
   -6.2020   -1.5740    0.8930 C   0  0  0  0  0  0  0  0  0  0  0  0
   -7.0190   -2.6930    0.3180 C   0  0  0  0  0  0  0  0  0  0  0  0
   -8.4120   -2.0720    0.0490 C   0  0  0  0  0  0  0  0  0  0  0  0
   -8.5130   -0.8430    0.7160 O   0  0  0  0  0  0  0  0  0  0  0  0
   -8.7750    0.2250   -0.0950 C   0  0  0  0  0  0  0  0  0  0  0  0
   -8.5910    1.5360    0.5790 C   0  0  0  0  0  0  0  0  0  0  0  0
   -7.4320    1.6790    1.4960 C   0  0  0  0  0  0  0  0  0  0  0  0
   -6.1280    2.0540    0.8040 C   0  0  0  0  0  0  0  0  0  0  0  0
   -4.9770    1.1740    1.3020 C   0  0  0  0  0  0  0  0  0  0  0  0
   -4.1450    0.6990    0.2340 N   0  0  0  0  0  0  0  0  0  0  0  0
   -3.3390    1.6690   -0.4330 C   0  0  0  0  0  0  0  0  0  0  0  0
   -3.4490    2.8780   -0.0920 O   0  0  0  0  0  0  0  0  0  0  0  0
   -2.3660    1.3540   -1.5140 C   0  0  2  0  0  0  0  0  0  0  0  0
   -1.0210    1.0510   -0.9250 C   0  0  0  0  0  0  0  0  0  0  0  0
   -0.0580    1.9200   -0.7920 C   0  0  0  0  0  0  0  0  0  0  0  0
    1.1960    1.6880   -0.2530 O   0  0  0  0  0  0  0  0  0  0  0  0
    2.3900    1.8410   -0.9760 C   0  0  0  0  0  0  0  0  0  0  0  0
    3.6370    1.5640   -0.1400 C   0  0  0  0  0  0  0  0  0  0  0  0
    3.5960    0.1610    0.3260 C   0  0  0  0  0  0  0  0  0  0  0  0
    4.7260   -0.2910    1.2050 C   0  0  1  0  0  0  0  0  0  0  0  0
    4.8120    0.5050    2.4560 C   0  0  0  0  0  0  0  0  0  0  0  0
    5.2770    1.7840    2.3640 O   0  0  0  0  0  0  0  0  0  0  0  0
    4.2470   -1.7010    1.6930 C   0  0  0  0  0  0  0  0  0  0  0  0
    4.0150   -2.5160    0.5930 O   0  0  0  0  0  0  0  0  0  0  0  0
    5.9090   -0.5400    0.4810 N   0  0  0  0  0  0  0  0  0  0  0  0
    6.7190    0.5040    0.0130 C   0  0  0  0  0  0  0  0  0  0  0  0
    8.1910    0.4020    0.1550 C   0  0  0  0  0  0  0  0  0  0  0  0
    8.9360   -0.6620   -0.4990 C   0  0  1  0  0  0  0  0  0  0  0  0
   10.4270   -0.4480   -0.1430 C   0  0  0  0  0  0  0  0  0  0  0  0
    8.6400   -2.0440    0.0310 C   0  0  0  0  0  0  0  0  0  0  0  0
    8.8810   -0.7000   -1.9970 C   0  0  0  0  0  0  0  0  0  0  0  0
   -0.3140    3.3040   -1.2620 C   0  0  0  0  0  0  0  0  0  0  0  0
    0.5590    4.1910   -1.1640 O   0  0  0  0  0  0  0  0  0  0  0  0
   -1.5940    3.5500   -1.8190 N   0  0  0  0  0  0  0  0  0  0  0  0
   -2.2600    2.4800   -2.4340 N   0  0  0  0  0  0  0  0  0  0  0  0
   -4.1260   -0.6700   -0.1670 C   0  0  2  0  0  0  0  0  0  0  0  0
   -4.7320   -0.8630   -1.5100 C   0  0  0  0  0  0  0  0  0  0  0  0
   -4.5800   -2.1180   -2.1480 N   0  0  0  0  0  0  0  0  0  0  0  0
   -5.3680    0.0350   -2.0980 O   0  0  0  0  0  0  0  0  0  0  0  0
  2  1  1  6
  2  3  1  0
  2 38  1  0
  3  4  1  0
  4  5  1  0
  5  6  1  0
  6  7  1  0
  7  8  1  0
  8  9  1  0
  9 10  1  0
 10 11  1  0
 11 12  1  0
 12 13  1  0
 12 38  1  0
 13 14  2  0
 15 13  1  1
 15 16  1  0
 15 37  1  0
 16 17  2  0
 17 18  1  0
 17 34  1  0
 18 19  1  0
 19 20  1  0
 20 21  1  0
 22 21  1  6
 22 23  1  0
 22 25  1  0
 22 27  1  0
 23 24  1  0
 25 26  1  0
 27 28  1  0
 28 29  1  0
 29 30  1  0
 30 31  1  6
 30 32  1  0
 30 33  1  0
 34 35  2  0
 34 36  1  0
 36 37  1  0
 38 39  1  6
 39 40  1  0
 39 41  2  0
M  CHG  1  27   1
M  END
