
     RDKit          3D

 40 41  0  0  0  0  0  0  0  0999 V2000
   -2.6140   -0.7810   -0.3910 C   0  0  0  0  0  0  0  0  0  0  0  0
   -2.9420    0.4460    0.3530 C   0  0  2  0  0  0  0  0  0  0  0  0
   -3.0530    0.3700    1.8290 C   0  0  0  0  0  0  0  0  0  0  0  0
   -1.9100   -0.0220    2.7070 C   0  0  2  0  0  0  0  0  0  0  0  0
   -0.6840    0.8040    2.6120 C   0  0  0  0  0  0  0  0  0  0  0  0
   -1.7680   -1.3940    3.0520 N   0  0  0  0  0  0  0  0  0  0  0  0
   -2.3430   -1.9340    4.2890 C   0  0  0  0  0  0  0  0  0  0  0  0
   -2.5710   -1.3960    5.3920 O   0  0  0  0  0  0  0  0  0  0  0  0
   -2.6580   -3.3830    4.0160 C   0  0  0  0  0  0  0  0  0  0  0  0
   -2.1710   -3.6100    2.5860 C   0  0  0  0  0  0  0  0  0  0  0  0
   -1.1000   -2.5130    2.5160 C   0  0  1  0  0  0  0  0  0  0  0  0
   -0.3620   -2.5440    1.3060 C   0  0  0  0  0  0  0  0  0  0  0  0
   -0.5830   -3.4290    0.2420 C   0  0  0  0  0  0  0  0  0  0  0  0
    0.3480   -3.1930   -0.7360 C   0  0  0  0  0  0  0  0  0  0  0  0
    1.1250   -2.1950   -0.3010 N   0  0  0  0  0  0  0  0  0  0  0  0
    2.2090   -1.6240   -0.9720 O   0  0  0  0  0  0  0  0  0  0  0  0
    3.4650   -1.8510   -0.3580 C   0  0  0  0  0  0  0  0  0  0  0  0
    4.5740   -1.2390   -1.0900 C   0  0  0  0  0  0  0  0  0  0  0  0
    4.3400   -0.6000   -2.1430 O   0  0  0  0  0  0  0  0  0  0  0  0
    5.9200   -1.3360   -0.6550 N   0  0  0  0  0  0  0  0  0  0  0  0
    7.0170   -0.7300   -1.3790 C   0  0  0  0  0  0  0  0  0  0  0  0
    8.3180   -1.0290   -0.6310 C   0  0  2  0  0  0  0  0  0  0  0  0
    8.2830   -0.5210    0.6420 O   0  0  0  0  0  0  0  0  0  0  0  0
    9.4920   -0.5410   -1.4010 C   0  0  0  0  0  0  0  0  0  0  0  0
    9.5930    0.8630   -1.6120 N   0  0  0  0  0  0  0  0  0  0  0  0
    9.7290    1.8260   -0.5960 C   0  0  0  0  0  0  0  0  0  0  0  0
    9.7800    1.4850    0.6100 O   0  0  0  0  0  0  0  0  0  0  0  0
    9.8170    3.2980   -0.9460 C   0  0  0  0  0  0  0  0  0  0  0  0
    9.9480    4.0390    0.2710 N   0  0  0  0  0  0  0  0  0  0  0  0
    0.7160   -1.7920    0.9210 C   0  0  0  0  0  0  0  0  0  0  0  0
   -3.9980    1.3480   -0.2420 C   0  0  0  0  0  0  0  0  0  0  0  0
   -5.3680    0.8870   -0.4430 C   0  0  2  0  0  0  0  0  0  0  0  0
   -6.0430    0.4570    0.8750 C   0  0  0  0  0  0  0  0  0  0  0  0
   -5.6690   -0.2010   -1.3850 C   0  0  0  0  0  0  0  0  0  0  0  0
   -5.3830   -0.0820   -2.8160 C   0  0  0  0  0  0  0  0  0  0  0  0
   -5.7710   -1.3210   -3.4090 O   0  0  0  0  0  0  0  0  0  0  0  0
   -6.1790    2.1490   -0.8350 C   0  0  1  0  0  0  0  0  0  0  0  0
   -6.1040    3.1770    0.3090 C   0  0  0  0  0  0  0  0  0  0  0  0
   -5.6100    2.8590   -2.0360 C   0  0  0  0  0  0  0  0  0  0  0  0
   -7.6070    1.8860   -1.1260 C   0  0  0  0  0  0  0  0  0  0  0  0
  2  1  1  6
  2  3  1  0
  2 31  1  0
  3  4  1  0
  4  5  1  6
  4  6  1  0
  6  7  1  0
  6 11  1  0
  7  8  2  0
  7  9  1  0
  9 10  1  0
 10 11  1  0
 11 12  1  6
 12 13  1  0
 12 30  2  0
 13 14  2  0
 14 15  1  0
 15 16  1  0
 15 30  1  0
 16 17  1  0
 17 18  1  0
 18 19  2  0
 18 20  1  0
 20 21  1  0
 21 22  1  0
 22 23  1  1
 22 24  1  0
 24 25  1  0
 25 26  1  0
 26 27  2  0
 26 28  1  0
 28 29  1  0
 31 32  1  0
 32 33  1  1
 32 34  1  0
 32 37  1  0
 34 35  1  0
 35 36  1  0
 37 38  1  1
 37 39  1  0
 37 40  1  0
M  CHG  1  29   1
M  END
