
     RDKit          3D

 41 42  0  0  0  0  0  0  0  0999 V2000
   -2.8850   -0.6730    2.9880 C   0  0  0  0  0  0  0  0  0  0  0  0
   -2.8190   -1.7720    2.0930 N   0  0  0  0  0  0  0  0  0  0  0  0
   -3.9650   -2.0870    1.3510 C   0  0  1  0  0  0  0  0  0  0  0  0
   -4.9010   -2.9300    2.2200 C   0  0  0  0  0  0  0  0  0  0  0  0
   -4.7580   -1.0290    0.6910 C   0  0  0  0  0  0  0  0  0  0  0  0
   -4.1010   -0.1940   -0.3240 C   0  0  2  0  0  0  0  0  0  0  0  0
   -2.9250    0.6340    0.0540 C   0  0  0  0  0  0  0  0  0  0  0  0
   -2.7570    1.4380   -1.2630 C   0  0  1  0  0  0  0  0  0  0  0  0
   -2.1930    0.5370   -2.3120 C   0  0  0  0  0  0  0  0  0  0  0  0
   -2.9470    0.1980   -3.2430 O   0  0  0  0  0  0  0  0  0  0  0  0
   -0.8600    0.0730   -2.2730 N   0  0  0  0  0  0  0  0  0  0  0  0
   -0.2490   -0.7840   -3.2060 C   0  0  0  0  0  0  0  0  0  0  0  0
   -0.9780   -1.5370   -4.1170 C   0  0  0  0  0  0  0  0  0  0  0  0
   -0.3820   -2.4320   -4.9990 C   0  0  0  0  0  0  0  0  0  0  0  0
   -1.2270   -3.2110   -5.9490 C   0  0  0  0  0  0  0  0  0  0  0  0
    0.9700   -2.5480   -4.9370 C   0  0  0  0  0  0  0  0  0  0  0  0
    1.7300   -1.7990   -4.0270 C   0  0  0  0  0  0  0  0  0  0  0  0
    1.1550   -0.9080   -3.1480 C   0  0  0  0  0  0  0  0  0  0  0  0
    1.8990   -0.1150   -2.2510 N   0  0  0  0  0  0  0  0  0  0  0  0
    3.3000   -0.1570   -2.0500 C   0  0  0  0  0  0  0  0  0  0  0  0
    3.9990   -0.9400   -2.6890 O   0  0  0  0  0  0  0  0  0  0  0  0
    3.9520    0.6990   -1.1090 N   0  0  0  0  0  0  0  0  0  0  0  0
    5.3690    0.6470   -0.9300 N   0  0  0  0  0  0  0  0  0  0  0  0
    6.1440    0.7600   -2.1230 C   0  0  0  0  0  0  0  0  0  0  0  0
    5.8790    0.4930    0.3580 C   0  0  0  0  0  0  0  0  0  0  0  0
    4.9650    0.4060    1.2760 O   0  0  0  0  0  0  0  0  0  0  0  0
    7.2210    0.4160    0.8460 C   0  0  0  0  0  0  0  0  0  0  0  0
    8.3690    0.5040   -0.1490 C   0  0  0  0  0  0  0  0  0  0  0  0
    7.6130    0.2710    2.0920 C   0  0  0  0  0  0  0  0  0  0  0  0
    6.8700    0.1460    3.3410 C   0  0  0  0  0  0  0  0  0  0  0  0
    7.2270   -1.1410    4.0860 C   0  0  0  0  0  0  0  0  0  0  0  0
    8.5850   -1.1760    4.4000 O   0  0  0  0  0  0  0  0  0  0  0  0
    8.9630   -0.1150    5.2010 C   0  0  0  0  0  0  0  0  0  0  0  0
   -4.0430    1.7400   -1.5860 O   0  0  0  0  0  0  0  0  0  0  0  0
   -4.9020    0.7170   -1.1430 C   0  0  2  0  0  0  0  0  0  0  0  0
   -6.0820    1.4020   -0.5880 C   0  0  0  0  0  0  0  0  0  0  0  0
   -5.7590    2.3020    0.5490 C   0  0  0  0  0  0  0  0  0  0  0  0
   -7.0260    2.9990    1.0880 C   0  0  2  0  0  0  0  0  0  0  0  0
   -7.5350    3.7310    0.0160 O   0  0  0  0  0  0  0  0  0  0  0  0
   -6.6520    3.9480    2.2000 C   0  0  0  0  0  0  0  0  0  0  0  0
   -6.1460    3.2040    3.2630 O   0  0  0  0  0  0  0  0  0  0  0  0
  1  2  1  0
  2  3  1  0
  3  4  1  1
  3  5  1  0
  6  5  1  1
  6  7  1  0
  6 35  1  0
  7  8  1  0
  8  9  1  6
  8 34  1  0
  9 10  2  0
  9 11  1  0
 11 12  1  0
 12 13  2  0
 12 18  1  0
 13 14  1  0
 14 15  1  0
 14 16  2  0
 16 17  1  0
 17 18  2  0
 18 19  1  0
 19 20  1  0
 20 21  2  0
 20 22  1  0
 22 23  1  0
 23 24  1  0
 23 25  1  0
 25 26  2  0
 25 27  1  0
 27 28  1  0
 27 29  2  3
 29 30  1  0
 30 31  1  0
 31 32  1  0
 32 33  1  0
 34 35  1  0
 35 36  1  1
 36 37  1  0
 37 38  1  0
 38 39  1  6
 38 40  1  0
 40 41  1  0
M  CHG  1   2   1
M  END
