
     RDKit          3D

 41 42  0  0  0  0  0  0  0  0999 V2000
    7.7570    3.3000   -1.0320 C   0  0  0  0  0  0  0  0  0  0  0  0
    7.3630    2.9110    0.1450 C   0  0  0  0  0  0  0  0  0  0  0  0
    8.1470    3.3870    1.2830 N   0  0  0  0  0  0  0  0  0  0  0  0
    8.7030    2.5300    2.0640 C   0  0  0  0  0  0  0  0  0  0  0  0
    9.5000    2.9470    3.2210 C   0  0  0  0  0  0  0  0  0  0  0  0
    6.2650    2.0910    0.3710 N   0  0  0  0  0  0  0  0  0  0  0  0
    5.4180    1.5550   -0.6070 C   0  0  0  0  0  0  0  0  0  0  0  0
    5.6080    1.7950   -1.8230 O   0  0  0  0  0  0  0  0  0  0  0  0
    4.2650    0.6850   -0.2250 C   0  0  0  0  0  0  0  0  0  0  0  0
    3.2640    0.6250   -1.3650 C   0  0  1  0  0  0  0  0  0  0  0  0
    2.2500   -0.1800   -1.2010 O   0  0  0  0  0  0  0  0  0  0  0  0
    1.2840   -1.0340   -1.1180 C   0  0  0  0  0  0  0  0  0  0  0  0
    1.2040   -2.1440   -1.9970 C   0  0  0  0  0  0  0  0  0  0  0  0
    0.2150   -3.0780   -1.9620 C   0  0  0  0  0  0  0  0  0  0  0  0
    0.1840   -4.2290   -2.9280 C   0  0  1  0  0  0  0  0  0  0  0  0
    0.7200   -5.4800   -2.2770 C   0  0  0  0  0  0  0  0  0  0  0  0
   -1.1320   -4.4740   -3.4250 N   0  0  0  0  0  0  0  0  0  0  0  0
   -1.0270   -5.3200   -4.5980 C   0  0  0  0  0  0  0  0  0  0  0  0
   -0.7550   -2.9130   -1.0090 C   0  0  0  0  0  0  0  0  0  0  0  0
   -0.7560   -1.8420   -0.0970 C   0  0  0  0  0  0  0  0  0  0  0  0
   -1.8610   -1.6690    0.8420 C   0  0  0  0  0  0  0  0  0  0  0  0
   -2.8410   -0.6060    0.4150 C   0  0  0  0  0  0  0  0  0  0  0  0
   -3.9040   -0.5400    1.4710 C   0  0  0  0  0  0  0  0  0  0  0  0
   -3.8930   -1.3470    2.4360 O   0  0  0  0  0  0  0  0  0  0  0  0
   -4.9490    0.4240    1.4180 N   0  0  0  0  0  0  0  0  0  0  0  0
   -5.9270    0.4400    2.4500 C   0  0  0  0  0  0  0  0  0  0  0  0
   -6.8590    1.5830    2.4740 C   0  0  0  0  0  0  0  0  0  0  0  0
   -6.6360    2.6320    1.4200 C   0  0  0  0  0  0  0  0  0  0  0  0
   -6.2480    2.0160    0.0970 C   0  0  2  0  0  0  0  0  0  0  0  0
   -6.1370    3.0350   -0.8480 O   0  0  0  0  0  0  0  0  0  0  0  0
   -7.3550    1.0830   -0.3420 C   0  0  0  0  0  0  0  0  0  0  0  0
   -8.5200    1.8810   -0.3960 O   0  0  0  0  0  0  0  0  0  0  0  0
   -4.9270    1.3360    0.2870 C   0  0  0  0  0  0  0  0  0  0  0  0
    0.2590   -0.9240   -0.1610 C   0  0  0  0  0  0  0  0  0  0  0  0
    0.3320    0.1560    0.6960 O   0  0  0  0  0  0  0  0  0  0  0  0
    1.1320    0.2730    1.8110 C   0  0  2  0  0  0  0  0  0  0  0  0
    0.6190   -0.3450    3.1000 C   0  0  0  0  0  0  0  0  0  0  0  0
    1.5270    1.6760    2.1570 C   0  0  0  0  0  0  0  0  0  0  0  0
    2.7370    2.0300   -1.6790 C   0  0  0  0  0  0  0  0  0  0  0  0
    1.3250    2.2100   -1.7740 N   0  0  0  0  0  0  0  0  0  0  0  0
    3.5300    2.9490   -1.8370 O   0  0  0  0  0  0  0  0  0  0  0  0
  1  2  2  0
  2  3  1  0
  2  6  1  0
  3  4  2  3
  4  5  1  0
  6  7  1  0
  7  8  2  0
  7  9  1  0
 10  9  1  1
 10 11  1  0
 10 39  1  0
 11 12  1  0
 12 13  2  0
 12 34  1  0
 13 14  1  0
 14 15  1  0
 14 19  2  0
 15 16  1  1
 15 17  1  0
 17 18  1  0
 19 20  1  0
 20 21  1  0
 20 34  2  0
 21 22  1  0
 22 23  1  0
 23 24  2  0
 23 25  1  0
 25 26  1  0
 25 33  1  0
 26 27  1  0
 27 28  1  0
 28 29  1  0
 29 30  1  6
 29 31  1  0
 29 33  1  0
 31 32  1  0
 34 35  1  0
 35 36  1  0
 36 37  1  1
 36 38  1  0
 39 40  1  0
 39 41  2  0
M  CHG  1  17   1
M  END
