
     RDKit          3D

 41 42  0  0  0  0  0  0  0  0999 V2000
   -6.0820   -0.3950   -2.7520 C   0  0  0  0  0  0  0  0  0  0  0  0
   -7.3090   -0.0190   -1.9520 C   0  0  0  0  0  0  0  0  0  0  0  0
   -7.0380   -0.0540   -0.4520 C   0  0  2  0  0  0  0  0  0  0  0  0
   -8.2870    0.3210    0.2850 C   0  0  0  0  0  0  0  0  0  0  0  0
   -8.7320    1.6000    0.0360 O   0  0  0  0  0  0  0  0  0  0  0  0
   -5.9050    0.7930   -0.0950 N   0  0  0  0  0  0  0  0  0  0  0  0
   -4.7700    0.1770    0.5160 C   0  0  0  0  0  0  0  0  0  0  0  0
   -4.8740   -1.0960    0.6060 O   0  0  0  0  0  0  0  0  0  0  0  0
   -3.5860    0.8270    1.0060 C   0  0  0  0  0  0  0  0  0  0  0  0
   -2.3500   -0.0140    1.2890 C   0  0  2  0  0  0  0  0  0  0  0  0
   -1.3090    1.0200    1.7230 C   0  0  0  0  0  0  0  0  0  0  0  0
   -1.9310   -0.5930    0.0920 O   0  0  0  0  0  0  0  0  0  0  0  0
   -2.6180   -0.9870    2.3590 C   0  0  0  0  0  0  0  0  0  0  0  0
   -1.5400   -1.9110    2.8050 C   0  0  0  0  0  0  0  0  0  0  0  0
   -0.3550   -1.3470    3.3720 N   0  0  0  0  0  0  0  0  0  0  0  0
   -0.4290   -1.0060    4.8280 C   0  0  0  0  0  0  0  0  0  0  0  0
    0.8700   -1.0700    2.7640 C   0  0  0  0  0  0  0  0  0  0  0  0
    1.7550   -0.4810    3.4970 O   0  0  0  0  0  0  0  0  0  0  0  0
    1.3090   -1.3610    1.3800 C   0  0  2  0  0  0  0  0  0  0  0  0
    1.2930   -2.8770    1.2070 C   0  0  0  0  0  0  0  0  0  0  0  0
    2.6420   -0.8410    1.1230 N   0  0  0  0  0  0  0  0  0  0  0  0
    3.8150   -1.1670    1.8170 C   0  0  0  0  0  0  0  0  0  0  0  0
    3.9140   -1.9900    2.7930 O   0  0  0  0  0  0  0  0  0  0  0  0
    4.9020   -0.4060    1.2300 C   0  0  0  0  0  0  0  0  0  0  0  0
    4.4050    0.3380    0.2390 C   0  0  0  0  0  0  0  0  0  0  0  0
    5.2390    1.1960   -0.5250 N   0  0  0  0  0  0  0  0  0  0  0  0
    6.3630    0.6810   -1.2640 C   0  0  0  0  0  0  0  0  0  0  0  0
    6.6440   -0.6630   -1.3430 C   0  0  0  0  0  0  0  0  0  0  0  0
    7.7370   -1.1650   -2.0440 C   0  0  0  0  0  0  0  0  0  0  0  0
    8.0010   -2.6410   -2.1100 C   0  0  0  0  0  0  0  0  0  0  0  0
    8.5520   -0.2550   -2.6760 C   0  0  0  0  0  0  0  0  0  0  0  0
    9.6820   -0.7280   -3.3930 N   0  0  0  0  0  0  0  0  0  0  0  0
    8.3060    1.1110   -2.6240 C   0  0  0  0  0  0  0  0  0  0  0  0
    9.2250    2.0470   -3.3380 C   0  0  0  0  0  0  0  0  0  0  0  0
    7.2170    1.5570   -1.9190 C   0  0  0  0  0  0  0  0  0  0  0  0
    2.9700    0.1240    0.0980 C   0  0  0  0  0  0  0  0  0  0  0  0
    2.1720    0.6440   -0.7220 O   0  0  0  0  0  0  0  0  0  0  0  0
   -5.8910    2.2050   -0.3920 C   0  0  2  0  0  0  0  0  0  0  0  0
   -4.8400    2.5120   -1.4290 C   0  0  0  0  0  0  0  0  0  0  0  0
   -5.8450    3.0770    0.8050 C   0  0  0  0  0  0  0  0  0  0  0  0
   -5.8290    4.4390    0.3980 O   0  0  0  0  0  0  0  0  0  0  0  0
  1  2  1  0
  3  2  1  6
  3  4  1  0
  3  6  1  0
  4  5  1  0
  6  7  1  0
  6 38  1  0
  7  8  2  0
  7  9  1  0
  9 10  1  0
 10 11  1  1
 10 12  1  0
 10 13  1  0
 13 14  1  0
 14 15  1  0
 15 16  1  0
 15 17  1  0
 17 18  2  0
 17 19  1  0
 19 20  1  1
 19 21  1  0
 21 22  1  0
 21 36  1  0
 22 23  2  0
 22 24  1  0
 24 25  2  0
 25 26  1  0
 25 36  1  0
 26 27  1  0
 27 28  2  0
 27 35  1  0
 28 29  1  0
 29 30  1  0
 29 31  2  0
 31 32  1  0
 31 33  1  0
 33 34  1  0
 33 35  2  0
 36 37  2  0
 38 39  1  6
 38 40  1  0
 40 41  1  0
M  CHG  1  32   1
M  END
