
     RDKit          3D

 41 42  0  0  0  0  0  0  0  0999 V2000
   -6.5510   -5.8790    1.1480 C   0  0  0  0  0  0  0  0  0  0  0  0
   -5.2360   -5.2830    0.7800 C   0  0  0  0  0  0  0  0  0  0  0  0
   -5.1480   -3.8090    1.0900 C   0  0  0  0  0  0  0  0  0  0  0  0
   -4.9320   -2.9880    0.1300 C   0  0  0  0  0  0  0  0  0  0  0  0
   -4.7930   -1.5390    0.1040 C   0  0  2  0  0  0  0  0  0  0  0  0
   -5.4940   -0.9900   -1.1140 C   0  0  0  0  0  0  0  0  0  0  0  0
   -5.0880   -1.4090   -2.3920 N   0  0  0  0  0  0  0  0  0  0  0  0
   -3.4250   -1.0580    0.2770 N   0  0  0  0  0  0  0  0  0  0  0  0
   -3.1710   -0.0560    1.2740 C   0  0  0  0  0  0  0  0  0  0  0  0
   -3.1930    1.3350    0.8060 C   0  0  0  0  0  0  0  0  0  0  0  0
   -3.4150    1.6040   -0.3820 O   0  0  0  0  0  0  0  0  0  0  0  0
   -2.9560    2.3700    1.7310 N   0  0  0  0  0  0  0  0  0  0  0  0
   -2.9470    3.7730    1.3980 C   0  0  2  0  0  0  0  0  0  0  0  0
   -1.5010    4.2740    1.5520 C   0  0  0  0  0  0  0  0  0  0  0  0
   -3.8710    4.6130    2.2160 C   0  0  0  0  0  0  0  0  0  0  0  0
   -3.7590    6.0480    1.7510 C   0  0  0  0  0  0  0  0  0  0  0  0
   -2.4930    6.5650    1.8800 O   0  0  0  0  0  0  0  0  0  0  0  0
   -2.4050   -1.6030   -0.5130 C   0  0  0  0  0  0  0  0  0  0  0  0
   -2.8400   -2.5680   -1.2990 O   0  0  0  0  0  0  0  0  0  0  0  0
   -1.0080   -1.3360   -0.6470 C   0  0  0  0  0  0  0  0  0  0  0  0
   -0.2840   -2.1050   -1.5800 C   0  0  0  0  0  0  0  0  0  0  0  0
    1.0680   -1.9220   -1.8000 C   0  0  0  0  0  0  0  0  0  0  0  0
    1.7610   -0.9700   -1.1060 C   0  0  0  0  0  0  0  0  0  0  0  0
    3.1070   -0.7570   -1.3020 O   0  0  0  0  0  0  0  0  0  0  0  0
    3.7890   -1.5400   -2.2650 C   0  0  0  0  0  0  0  0  0  0  0  0
    5.2270   -1.1500   -2.3400 C   0  0  0  0  0  0  0  0  0  0  0  0
    5.9310   -1.6840   -3.2240 O   0  0  0  0  0  0  0  0  0  0  0  0
    5.7550   -0.2090   -1.4330 N   0  0  0  0  0  0  0  0  0  0  0  0
    7.1410    0.2270   -1.4590 C   0  0  2  0  0  0  0  0  0  0  0  0
    7.9420   -0.4990   -0.3660 C   0  0  0  0  0  0  0  0  0  0  0  0
    9.3640   -0.0370   -0.5310 C   0  0  0  0  0  0  0  0  0  0  0  0
    9.4770    1.4080   -0.1990 C   0  0  0  0  0  0  0  0  0  0  0  0
    8.1150    2.0160   -0.0330 C   0  0  0  0  0  0  0  0  0  0  0  0
    7.2010    1.7010   -1.2130 C   0  0  2  0  0  0  0  0  0  0  0  0
    5.9440    2.2410   -0.9340 O   0  0  0  0  0  0  0  0  0  0  0  0
    5.6610    3.2990   -1.7780 C   0  0  0  0  0  0  0  0  0  0  0  0
    1.0750   -0.2160   -0.1960 C   0  0  0  0  0  0  0  0  0  0  0  0
   -0.3070   -0.3990    0.0320 C   0  0  0  0  0  0  0  0  0  0  0  0
   -5.3450   -3.4460    2.4610 C   0  0  0  0  0  0  0  0  0  0  0  0
   -5.5720   -4.4420    3.4970 N   0  0  0  0  0  0  0  0  0  0  0  0
   -5.3440   -2.2740    2.8960 O   0  0  0  0  0  0  0  0  0  0  0  0
  1  2  1  0
  2  3  1  0
  3  4  2  3
  3 39  1  0
  4  5  1  0
  5  6  1  6
  5  8  1  0
  6  7  1  0
  8  9  1  0
  8 18  1  0
  9 10  1  0
 10 11  2  0
 10 12  1  0
 12 13  1  0
 13 14  1  1
 13 15  1  0
 15 16  1  0
 16 17  1  0
 18 19  2  0
 18 20  1  0
 20 21  2  0
 20 38  1  0
 21 22  1  0
 22 23  2  0
 23 24  1  0
 23 37  1  0
 24 25  1  0
 25 26  1  0
 26 27  2  0
 26 28  1  0
 29 28  1  1
 29 30  1  0
 29 34  1  0
 30 31  1  0
 31 32  1  0
 32 33  1  0
 33 34  1  0
 34 35  1  1
 35 36  1  0
 37 38  2  0
 39 40  1  0
 39 41  2  0
M  CHG  1   7   1
M  END
