
     RDKit          3D

 41 43  0  0  0  0  0  0  0  0999 V2000
   -2.0630    1.7380    0.8820 C   0  0  0  0  0  0  0  0  0  0  0  0
   -2.2550    0.2650    1.3020 C   0  0  2  0  0  0  0  0  0  0  0  0
   -1.0600   -0.4290    0.8950 N   0  0  0  0  0  0  0  0  0  0  0  0
    0.0150   -0.7150    1.7700 C   0  0  0  0  0  0  0  0  0  0  0  0
   -0.1530   -0.3030    2.9580 O   0  0  0  0  0  0  0  0  0  0  0  0
    1.2440   -1.4400    1.3160 C   0  0  1  0  0  0  0  0  0  0  0  0
    1.0180   -2.3570    0.2860 N   0  0  0  0  0  0  0  0  0  0  0  0
    1.3270   -2.1610   -1.0640 C   0  0  1  0  0  0  0  0  0  0  0  0
    2.7800   -2.2580   -1.4330 C   0  0  0  0  0  0  0  0  0  0  0  0
    2.9830   -2.6960   -2.8920 C   0  0  0  0  0  0  0  0  0  0  0  0
    2.6920   -4.1520   -3.0350 C   0  0  0  0  0  0  0  0  0  0  0  0
    1.6600   -4.4900   -1.9870 C   0  0  0  0  0  0  0  0  0  0  0  0
    0.6700   -3.3370   -1.8260 C   0  0  1  0  0  0  0  0  0  0  0  0
   -0.4770   -3.9500   -1.0560 C   0  0  0  0  0  0  0  0  0  0  0  0
    0.1120   -2.8990   -3.1520 C   0  0  0  0  0  0  0  0  0  0  0  0
    2.4430   -0.5350    1.2640 C   0  0  2  0  0  0  0  0  0  0  0  0
    2.7270    0.0100    2.6890 C   0  0  0  0  0  0  0  0  0  0  0  0
    4.0190    0.7280    2.7500 C   0  0  0  0  0  0  0  0  0  0  0  0
    4.6060    1.0310    1.3890 C   0  0  0  0  0  0  0  0  0  0  0  0
    3.5840    1.4590    0.4040 C   0  0  2  0  0  0  0  0  0  0  0  0
    4.1800    1.2080   -0.8750 O   0  0  0  0  0  0  0  0  0  0  0  0
    3.2880    2.9380    0.3720 C   0  0  0  0  0  0  0  0  0  0  0  0
    4.4600    3.7460    0.0190 C   0  0  0  0  0  0  0  0  0  0  0  0
    5.5480    3.1700   -0.1720 O   0  0  0  0  0  0  0  0  0  0  0  0
    4.2880    5.1340   -0.0860 N   0  0  0  0  0  0  0  0  0  0  0  0
    5.3650    5.9810   -0.4280 C   0  0  0  0  0  0  0  0  0  0  0  0
    6.6640    5.6420   -0.6830 C   0  0  0  0  0  0  0  0  0  0  0  0
    7.3440    6.8090   -0.9760 C   0  0  0  0  0  0  0  0  0  0  0  0
    6.4680    7.7730   -0.8910 O   0  0  0  0  0  0  0  0  0  0  0  0
    5.3010    7.3390   -0.5750 N   0  0  0  0  0  0  0  0  0  0  0  0
    2.2840    0.6880    0.4410 C   0  0  0  0  0  0  0  0  0  0  0  0
   -3.4710   -0.2070    0.6570 C   0  0  0  0  0  0  0  0  0  0  0  0
   -3.3880   -1.1200   -0.2180 O   0  0  0  0  0  0  0  0  0  0  0  0
   -4.7250    0.3380    0.9930 N   0  0  0  0  0  0  0  0  0  0  0  0
   -5.9710   -0.1250    0.3310 C   0  0  2  0  0  0  0  0  0  0  0  0
   -6.5670    1.1760   -0.1840 C   0  0  0  0  0  0  0  0  0  0  0  0
   -6.8290    2.0090    0.9160 O   0  0  0  0  0  0  0  0  0  0  0  0
   -6.8840   -0.7190    1.3510 C   0  0  0  0  0  0  0  0  0  0  0  0
   -8.1500   -1.3150    0.9250 C   0  0  0  0  0  0  0  0  0  0  0  0
   -9.1770   -0.5280    0.2180 C   0  0  0  0  0  0  0  0  0  0  0  0
   -9.6160    0.5980    0.9280 O   0  0  0  0  0  0  0  0  0  0  0  0
  2  1  1  6
  2  3  1  0
  2 32  1  0
  3  4  1  0
  4  5  2  0
  4  6  1  0
  6  7  1  6
  6 16  1  0
  8  7  1  1
  8  9  1  0
  8 13  1  0
  9 10  1  0
 10 11  1  0
 11 12  1  0
 12 13  1  0
 13 14  1  1
 13 15  1  0
 16 17  1  1
 16 31  1  0
 17 18  1  0
 18 19  1  0
 19 20  1  0
 20 21  1  6
 20 22  1  0
 20 31  1  0
 22 23  1  0
 23 24  2  0
 23 25  1  0
 25 26  1  0
 26 27  1  0
 26 30  2  0
 27 28  2  0
 28 29  1  0
 29 30  1  0
 32 33  2  0
 32 34  1  0
 34 35  1  0
 35 36  1  1
 35 38  1  0
 36 37  1  0
 38 39  1  0
 39 40  1  0
 40 41  1  0
M  CHG  1   7   1
M  END
