
     RDKit          3D

 25 28  0  0  0  0  0  0  0  0999 V2000
   -5.8870    0.0950   -2.1720 C   0  0  0  0  0  0  0  0  0  0  0  0
   -4.8730    0.9910   -1.6240 N   0  0  0  0  0  0  0  0  0  0  0  0
   -5.0050    2.2740   -1.3440 N   0  0  0  0  0  0  0  0  0  0  0  0
   -3.8280    2.7630   -0.8510 C   0  0  0  0  0  0  0  0  0  0  0  0
   -2.9260    1.7360   -0.8230 C   0  0  0  0  0  0  0  0  0  0  0  0
   -1.5400    1.7980   -0.3880 C   0  0  0  0  0  0  0  0  0  0  0  0
   -0.7590    0.6730   -0.4590 N   0  0  0  0  0  0  0  0  0  0  0  0
    0.5210    0.6330   -0.0830 C   0  0  0  0  0  0  0  0  0  0  0  0
    1.3120   -0.5440   -0.1660 N   0  0  0  0  0  0  0  0  0  0  0  0
    2.6980   -0.5870    0.2410 C   0  0  1  0  0  0  0  0  0  0  0  0
    2.8460   -0.2350    1.7030 C   0  0  0  0  0  0  0  0  0  0  0  0
    4.0940   -0.8300    2.3110 C   0  0  0  0  0  0  0  0  0  0  0  0
    5.2110   -0.8450    1.2800 C   0  0  2  0  0  0  0  0  0  0  0  0
    5.4790    0.5280    0.9020 N   0  0  0  0  0  0  0  0  0  0  0  0
    4.8500   -1.7060    0.0960 C   0  0  0  0  0  0  0  0  0  0  0  0
    3.3560   -1.8900   -0.0660 C   0  0  0  0  0  0  0  0  0  0  0  0
    1.0610    1.7710    0.3900 N   0  0  0  0  0  0  0  0  0  0  0  0
    0.3460    2.9090    0.4850 C   0  0  0  0  0  0  0  0  0  0  0  0
   -0.9900    2.9620    0.0960 C   0  0  0  0  0  0  0  0  0  0  0  0
   -1.6970    4.1110    0.1960 F   0  0  0  0  0  0  0  0  0  0  0  0
   -3.5940    0.6360   -1.3090 C   0  0  0  0  0  0  0  0  0  0  0  0
   -3.0260   -0.7050   -1.4530 C   0  0  0  0  0  0  0  0  0  0  0  0
   -2.9220   -1.4890   -0.1730 C   0  0  2  0  0  0  0  0  0  0  0  0
   -4.1130   -1.8200    0.6360 C   0  0  0  0  0  0  0  0  0  0  0  0
   -3.1660   -0.8360    1.1620 C   0  0  0  0  0  0  0  0  0  0  0  0
  1  2  1  0
  2  3  1  0
  2 21  1  0
  3  4  2  0
  4  5  1  0
  5  6  1  0
  5 21  2  0
  6  7  2  0
  6 19  1  0
  7  8  1  0
  8  9  1  0
  8 17  2  0
 10  9  1  1
 10 11  1  0
 10 16  1  0
 11 12  1  0
 12 13  1  0
 13 14  1  6
 13 15  1  0
 15 16  1  0
 17 18  1  0
 18 19  2  0
 19 20  1  0
 21 22  1  0
 23 22  1  6
 23 24  1  0
 23 25  1  0
 24 25  1  0
M  CHG  1  14   1
M  END
