
     RDKit          3D

 24 27  0  0  0  0  0  0  0  0999 V2000
   -5.5920   -0.1780   -2.0410 C   0  0  0  0  0  0  0  0  0  0  0  0
   -4.5830   -0.2880   -1.0460 N   0  0  0  0  0  0  0  0  0  0  0  0
   -3.4230   -1.1690   -1.2380 C   0  0  0  0  0  0  0  0  0  0  0  0
   -2.2040   -0.3010   -1.2640 C   0  0  0  0  0  0  0  0  0  0  0  0
   -1.7880    0.3840   -0.0450 C   0  0  2  0  0  0  0  0  0  0  0  0
   -0.3750    0.3630    0.2240 N   0  0  0  0  0  0  0  0  0  0  0  0
    0.4330   -0.7850    0.4280 C   0  0  0  0  0  0  0  0  0  0  0  0
   -0.0990   -2.0510    0.3680 C   0  0  0  0  0  0  0  0  0  0  0  0
    0.6960   -3.1900    0.5600 C   0  0  0  0  0  0  0  0  0  0  0  0
    2.0350   -3.0370    0.8130 C   0  0  0  0  0  0  0  0  0  0  0  0
    2.5780   -1.7810    0.8760 C   0  0  0  0  0  0  0  0  0  0  0  0
    1.7850   -0.6620    0.6850 C   0  0  0  0  0  0  0  0  0  0  0  0
    2.4480    0.6110    0.8040 N   0  0  0  0  0  0  0  0  0  0  0  0
    3.8810    0.6990    0.9230 C   0  0  0  0  0  0  0  0  0  0  0  0
    4.6380    0.3350   -0.3100 C   0  0  2  0  0  0  0  0  0  0  0  0
    6.1360    0.4670   -0.0370 C   0  0  0  0  0  0  0  0  0  0  0  0
    6.0520    1.9130   -0.4590 C   0  0  0  0  0  0  0  0  0  0  0  0
    4.7940    1.5450   -1.2230 C   0  0  0  0  0  0  0  0  0  0  0  0
   -2.5240    0.0890    1.2390 C   0  0  0  0  0  0  0  0  0  0  0  0
   -3.9010    0.7140    1.1900 C   0  0  0  0  0  0  0  0  0  0  0  0
   -4.4660    1.5160    2.0880 N   0  0  0  0  0  0  0  0  0  0  0  0
   -5.6800    1.8110    1.6120 N   0  0  0  0  0  0  0  0  0  0  0  0
   -5.8620    1.2000    0.4340 N   0  0  0  0  0  0  0  0  0  0  0  0
   -4.7670    0.4970    0.1280 C   0  0  0  0  0  0  0  0  0  0  0  0
  1  2  1  0
  2  3  1  0
  2 24  1  0
  3  4  1  0
  4  5  1  0
  5  6  1  1
  5 19  1  0
  6  7  1  0
  7  8  2  0
  7 12  1  0
  8  9  1  0
  9 10  2  0
 10 11  1  0
 11 12  2  0
 12 13  1  0
 13 14  1  0
 15 14  1  1
 15 16  1  0
 15 18  1  0
 16 17  1  0
 17 18  1  0
 19 20  1  0
 20 21  2  0
 20 24  1  0
 21 22  1  0
 22 23  1  0
 23 24  2  0
M  CHG  1  21   1
M  END
