
     RDKit          3D

  7  6  0  0  0  0  0  0  0  0999 V2000
   -1.8300   -1.4010    0.3350 C   0  0  0  0  0  0  0  0  0  0  0  0
   -0.9400   -0.5350    0.8650 C   0  0  0  0  0  0  0  0  0  0  0  0
   -0.4330    0.4580   -0.0100 N   0  0  0  0  0  0  0  0  0  0  0  0
   -1.3350    1.4680   -0.5120 C   0  0  0  0  0  0  0  0  0  0  0  0
    0.9450    0.4150   -0.4140 C   0  0  0  0  0  0  0  0  0  0  0  0
    1.7550   -0.5550    0.4270 C   0  0  0  0  0  0  0  0  0  0  0  0
    3.0900   -0.5460   -0.0250 O   0  0  0  0  0  0  0  0  0  0  0  0
  1  2  2  0
  2  3  1  0
  3  4  1  0
  3  5  1  0
  5  6  1  0
  6  7  1  0
M  END
