
     RDKit          3D

 25 27  0  0  0  0  0  0  0  0999 V2000
   -3.1640    3.0770    1.3470 C   0  0  0  0  0  0  0  0  0  0  0  0
   -3.0900    1.8930    0.7840 C   0  0  0  0  0  0  0  0  0  0  0  0
   -1.9090    1.2920    0.5100 N   0  0  0  0  0  0  0  0  0  0  0  0
   -2.1440    0.1210   -0.0490 C   0  0  0  0  0  0  0  0  0  0  0  0
   -1.2120   -0.8440   -0.5050 N   0  0  0  0  0  0  0  0  0  0  0  0
    0.1740   -0.6340   -0.3830 C   0  0  0  0  0  0  0  0  0  0  0  0
    1.0250   -1.6410   -0.8610 C   0  0  0  0  0  0  0  0  0  0  0  0
    2.3960   -1.4890   -0.7670 C   0  0  0  0  0  0  0  0  0  0  0  0
    2.9920   -0.3830   -0.2200 C   0  0  0  0  0  0  0  0  0  0  0  0
    4.4280   -0.1740   -0.0970 C   0  0  0  0  0  0  0  0  0  0  0  0
    5.3590   -1.0890   -0.5290 C   0  0  0  0  0  0  0  0  0  0  0  0
    6.7370   -0.8680   -0.4010 C   0  0  0  0  0  0  0  0  0  0  0  0
    7.1970    0.2970    0.1730 C   0  0  0  0  0  0  0  0  0  0  0  0
    8.5900    0.5760    0.3290 N   0  0  0  0  0  0  0  0  0  0  0  0
    6.2390    1.1950    0.5970 C   0  0  0  0  0  0  0  0  0  0  0  0
    4.9230    0.9600    0.4630 N   0  0  0  0  0  0  0  0  0  0  0  0
    2.1120    0.5860    0.2400 C   0  0  0  0  0  0  0  0  0  0  0  0
    0.7820    0.4290    0.1440 N   0  0  0  0  0  0  0  0  0  0  0  0
   -3.5010   -0.0210   -0.1290 N   0  0  0  0  0  0  0  0  0  0  0  0
   -4.1350   -1.1870   -0.6790 C   0  0  0  0  0  0  0  0  0  0  0  0
   -4.3540   -2.2410    0.4040 C   0  0  0  0  0  0  0  0  0  0  0  0
   -3.1430   -2.6480    0.9610 F   0  0  0  0  0  0  0  0  0  0  0  0
   -4.1220    1.0430    0.3690 C   0  0  0  0  0  0  0  0  0  0  0  0
   -5.3810    1.3750    0.4990 C   0  0  0  0  0  0  0  0  0  0  0  0
   -6.5730    0.6010    0.1140 C   0  0  0  0  0  0  0  0  0  0  0  0
  1  2  2  0
  2  3  1  0
  2 23  1  0
  3  4  2  0
  4  5  1  0
  4 19  1  0
  5  6  1  0
  6  7  2  0
  6 18  1  0
  7  8  1  0
  8  9  2  0
  9 10  1  0
  9 17  1  0
 10 11  2  0
 10 16  1  0
 11 12  1  0
 12 13  2  0
 13 14  1  0
 13 15  1  0
 15 16  2  0
 17 18  2  0
 19 20  1  0
 19 23  1  0
 20 21  1  0
 21 22  1  0
 23 24  2  3
 24 25  1  0
M  CHG  1   3   1
M  END
