
     RDKit          3D

 25 28  0  0  0  0  0  0  0  0999 V2000
   -5.4350   -1.4430   -1.4630 N   0  0  0  0  0  0  0  0  0  0  0  0
   -4.2380   -1.0050   -0.7530 C   0  0  0  0  0  0  0  0  0  0  0  0
   -4.4160    0.3420   -0.1770 C   0  0  0  0  0  0  0  0  0  0  0  0
   -5.5970    1.0350   -0.3330 C   0  0  0  0  0  0  0  0  0  0  0  0
   -5.7020    2.2950    0.2330 C   0  0  0  0  0  0  0  0  0  0  0  0
   -4.6520    2.8440    0.9370 C   0  0  0  0  0  0  0  0  0  0  0  0
   -3.5200    2.1340    1.0640 N   0  0  0  0  0  0  0  0  0  0  0  0
   -3.3660    0.9070    0.5340 C   0  0  0  0  0  0  0  0  0  0  0  0
   -2.1430    0.2030    0.7050 N   0  0  0  0  0  0  0  0  0  0  0  0
   -1.0740    0.8150    1.4480 C   0  0  0  0  0  0  0  0  0  0  0  0
    0.1100   -0.1400    1.4840 C   0  0  0  0  0  0  0  0  0  0  0  0
    0.5350   -0.4030    0.1250 N   0  0  0  0  0  0  0  0  0  0  0  0
    1.1080    0.7490   -0.5070 C   0  0  0  0  0  0  0  0  0  0  0  0
    2.2190    0.3780   -1.4370 C   0  0  0  0  0  0  0  0  0  0  0  0
    3.2270   -0.3690   -0.7110 N   0  0  0  0  0  0  0  0  0  0  0  0
    2.7660   -1.4060    0.0350 C   0  0  0  0  0  0  0  0  0  0  0  0
    3.8140   -1.9930    0.6420 N   0  0  0  0  0  0  0  0  0  0  0  0
    4.9480   -1.3480    0.2970 C   0  0  0  0  0  0  0  0  0  0  0  0
    6.2920   -1.5030    0.6080 C   0  0  0  0  0  0  0  0  0  0  0  0
    7.2100   -0.6350    0.0590 C   0  0  0  0  0  0  0  0  0  0  0  0
    6.7830    0.3690   -0.7860 C   0  0  0  0  0  0  0  0  0  0  0  0
    7.7140    1.2100   -1.3110 F   0  0  0  0  0  0  0  0  0  0  0  0
    5.4550    0.5450   -1.1110 C   0  0  0  0  0  0  0  0  0  0  0  0
    4.5390   -0.3320   -0.5560 C   0  0  0  0  0  0  0  0  0  0  0  0
    1.2940   -1.6130   -0.0100 C   0  0  0  0  0  0  0  0  0  0  0  0
  1  2  1  0
  2  3  1  0
  3  4  2  0
  3  8  1  0
  4  5  1  0
  5  6  2  0
  6  7  1  0
  7  8  2  0
  8  9  1  0
  9 10  1  0
 10 11  1  0
 11 12  1  0
 12 13  1  0
 12 25  1  0
 13 14  1  0
 14 15  1  0
 15 16  1  0
 15 24  1  0
 16 17  2  0
 16 25  1  0
 17 18  1  0
 18 19  2  0
 18 24  1  0
 19 20  1  0
 20 21  2  0
 21 22  1  0
 21 23  1  0
 23 24  2  0
M  CHG  1   1   1
M  END
