
     RDKit          3D

 25 28  0  0  0  0  0  0  0  0999 V2000
    5.6000    1.4360   -2.0310 C   0  0  0  0  0  0  0  0  0  0  0  0
    5.5470    0.8430   -0.6790 C   0  0  0  0  0  0  0  0  0  0  0  0
    4.3890    0.2600   -0.2120 C   0  0  0  0  0  0  0  0  0  0  0  0
    4.3550   -0.2940    1.0610 C   0  0  0  0  0  0  0  0  0  0  0  0
    3.3380   -0.9240    1.7480 C   0  0  0  0  0  0  0  0  0  0  0  0
    1.9850   -1.1540    1.2380 C   0  0  0  0  0  0  0  0  0  0  0  0
    1.4560   -0.8300    0.0680 N   0  0  0  0  0  0  0  0  0  0  0  0
    0.1860   -1.2230    0.0040 C   0  0  0  0  0  0  0  0  0  0  0  0
   -0.8080   -1.0780   -1.1090 C   0  0  0  0  0  0  0  0  0  0  0  0
   -1.5010    0.1450   -0.9450 N   0  0  0  0  0  0  0  0  0  0  0  0
   -2.9170    0.0940   -1.0480 C   0  0  1  0  0  0  0  0  0  0  0  0
   -3.5440   -1.1240   -0.4670 C   0  0  0  0  0  0  0  0  0  0  0  0
   -4.9910   -0.9920   -0.1650 C   0  0  0  0  0  0  0  0  0  0  0  0
   -5.3980    0.2680    0.5040 C   0  0  2  0  0  0  0  0  0  0  0  0
   -6.2910    1.0840   -0.4240 C   0  0  0  0  0  0  0  0  0  0  0  0
   -4.1660    1.0570    0.8740 C   0  0  0  0  0  0  0  0  0  0  0  0
   -3.4700    1.3880   -0.4540 C   0  0  0  0  0  0  0  0  0  0  0  0
   -0.0870   -1.8140    1.1790 N   0  0  0  0  0  0  0  0  0  0  0  0
    1.0130   -1.7730    1.9360 N   0  0  0  0  0  0  0  0  0  0  0  0
    3.8370   -1.2660    2.9390 N   0  0  0  0  0  0  0  0  0  0  0  0
    5.1190   -0.8750    3.0160 N   0  0  0  0  0  0  0  0  0  0  0  0
    5.4790   -0.2730    1.8840 C   0  0  0  0  0  0  0  0  0  0  0  0
    6.6380    0.3130    1.4100 C   0  0  0  0  0  0  0  0  0  0  0  0
    6.6400    0.8540    0.1430 C   0  0  0  0  0  0  0  0  0  0  0  0
    7.7800    1.4260   -0.3130 F   0  0  0  0  0  0  0  0  0  0  0  0
  1  2  1  0
  2  3  2  0
  2 24  1  0
  3  4  1  0
  4  5  1  0
  4 22  2  0
  5  6  1  0
  5 20  2  0
  6  7  2  0
  6 19  1  0
  7  8  1  0
  8  9  1  0
  8 18  2  0
  9 10  1  0
 11 10  1  1
 11 12  1  0
 11 17  1  0
 12 13  1  0
 13 14  1  0
 14 15  1  6
 14 16  1  0
 16 17  1  0
 18 19  1  0
 20 21  1  0
 21 22  1  0
 22 23  1  0
 23 24  2  0
 24 25  1  0
M  CHG  1  10   1
M  END
