
     RDKit          3D

 25 27  0  0  0  0  0  0  0  0999 V2000
   -6.3140    2.4620    1.0100 C   0  0  0  0  0  0  0  0  0  0  0  0
   -4.9670    2.0270    0.6910 C   0  0  0  0  0  0  0  0  0  0  0  0
   -4.4000    0.9120    0.3570 C   0  0  0  0  0  0  0  0  0  0  0  0
   -3.0260    0.9470    0.1330 N   0  0  0  0  0  0  0  0  0  0  0  0
   -2.3380   -0.1280   -0.2060 C   0  0  0  0  0  0  0  0  0  0  0  0
   -0.9160   -0.0830   -0.4310 N   0  0  0  0  0  0  0  0  0  0  0  0
   -0.2070    1.1820   -0.3080 C   0  0  0  0  0  0  0  0  0  0  0  0
    1.2630    0.9990   -0.5610 C   0  0  0  0  0  0  0  0  0  0  0  0
    1.8330    0.0630    0.4480 C   0  0  0  0  0  0  0  0  0  0  0  0
    3.2540   -0.1690    0.2890 N   0  0  0  0  0  0  0  0  0  0  0  0
    3.6000   -0.9130   -0.8840 C   0  0  0  0  0  0  0  0  0  0  0  0
    4.9980   -0.6750   -1.3490 C   0  0  0  0  0  0  0  0  0  0  0  0
    5.9170   -0.1680   -0.2990 C   0  0  0  0  0  0  0  0  0  0  0  0
    7.2040   -0.3690    0.0340 N   0  0  0  0  0  0  0  0  0  0  0  0
    7.5010    0.3890    1.1060 C   0  0  0  0  0  0  0  0  0  0  0  0
    6.3850    1.0580    1.4310 N   0  0  0  0  0  0  0  0  0  0  0  0
    5.4010    0.7450    0.5980 C   0  0  0  0  0  0  0  0  0  0  0  0
    3.9700    1.0930    0.3860 C   0  0  0  0  0  0  0  0  0  0  0  0
   -2.9820   -1.3380   -0.3490 C   0  0  0  0  0  0  0  0  0  0  0  0
   -2.2290   -2.5540   -0.7280 C   0  0  0  0  0  0  0  0  0  0  0  0
   -4.3330   -1.4530   -0.1460 C   0  0  0  0  0  0  0  0  0  0  0  0
   -5.0040   -2.7000   -0.2970 N   0  0  0  0  0  0  0  0  0  0  0  0
   -5.0440   -0.2800    0.2180 C   0  0  0  0  0  0  0  0  0  0  0  0
   -6.3400   -0.4450    0.3990 C   0  0  0  0  0  0  0  0  0  0  0  0
   -6.8780   -1.7140    0.2260 F   0  0  0  0  0  0  0  0  0  0  0  0
  1  2  1  0
  2  3  2  3
  3  4  1  0
  3 23  1  0
  4  5  2  0
  5  6  1  0
  5 19  1  0
  6  7  1  0
  7  8  1  0
  8  9  1  0
  9 10  1  0
 10 11  1  0
 10 18  1  0
 11 12  1  0
 12 13  1  0
 13 14  1  0
 13 17  2  0
 14 15  1  0
 15 16  2  0
 16 17  1  0
 17 18  1  0
 19 20  1  0
 19 21  2  0
 21 22  1  0
 21 23  1  0
 23 24  2  3
 24 25  1  0
M  CHG  1  16   1
M  END
