
     RDKit          3D

 24 27  0  0  0  0  0  0  0  0999 V2000
    3.6980   -2.1360   -1.2420 C   0  0  0  0  0  0  0  0  0  0  0  0
    4.1830   -0.7690   -1.7240 C   0  0  0  0  0  0  0  0  0  0  0  0
    5.1770   -0.2980   -0.7900 N   0  0  0  0  0  0  0  0  0  0  0  0
    6.5050   -0.5380   -0.8930 C   0  0  0  0  0  0  0  0  0  0  0  0
    7.0920    0.0890    0.1970 C   0  0  0  0  0  0  0  0  0  0  0  0
    6.1050    0.6730    0.9030 N   0  0  0  0  0  0  0  0  0  0  0  0
    4.9270    0.4390    0.3010 C   0  0  0  0  0  0  0  0  0  0  0  0
    3.6020    0.8910    0.7350 C   0  0  0  0  0  0  0  0  0  0  0  0
    2.4190    0.6620    0.1410 N   0  0  0  0  0  0  0  0  0  0  0  0
    1.4140    1.2340    0.8260 C   0  0  0  0  0  0  0  0  0  0  0  0
    0.0410    1.3010    0.6530 C   0  0  0  0  0  0  0  0  0  0  0  0
   -0.5490    0.6790   -0.4670 N   0  0  0  0  0  0  0  0  0  0  0  0
   -1.9660    0.5750   -0.7200 C   0  0  0  0  0  0  0  0  0  0  0  0
   -2.6860   -0.3690    0.2120 C   0  0  0  0  0  0  0  0  0  0  0  0
   -4.1440   -0.3550   -0.1770 C   0  0  1  0  0  0  0  0  0  0  0  0
   -4.3580   -0.8000   -1.6010 C   0  0  0  0  0  0  0  0  0  0  0  0
   -5.8380   -1.2040   -1.5600 C   0  0  0  0  0  0  0  0  0  0  0  0
   -6.1990   -1.2490   -0.0950 C   0  0  0  0  0  0  0  0  0  0  0  0
   -4.9070   -1.3610    0.5570 N   0  0  0  0  0  0  0  0  0  0  0  0
   -0.7040    1.9950    1.5790 C   0  0  0  0  0  0  0  0  0  0  0  0
   -0.1510    2.6370    2.6860 C   0  0  0  0  0  0  0  0  0  0  0  0
    1.2130    2.5610    2.8430 C   0  0  0  0  0  0  0  0  0  0  0  0
    1.9750    1.8610    1.9120 C   0  0  0  0  0  0  0  0  0  0  0  0
    3.3140    1.6290    1.8210 N   0  0  0  0  0  0  0  0  0  0  0  0
  1  2  1  0
  2  3  1  0
  3  4  1  0
  3  7  1  0
  4  5  2  0
  5  6  1  0
  6  7  2  0
  7  8  1  0
  8  9  2  0
  8 24  1  0
  9 10  1  0
 10 11  2  0
 10 23  1  0
 11 12  1  0
 11 20  1  0
 12 13  1  0
 13 14  1  0
 15 14  1  1
 15 16  1  0
 15 19  1  0
 16 17  1  0
 17 18  1  0
 18 19  1  0
 20 21  2  0
 21 22  1  0
 22 23  2  0
 23 24  1  0
M  CHG  1  19   1
M  END
