
     RDKit          3D

 25 27  0  0  0  0  0  0  0  0999 V2000
   -5.6660    2.3010    0.8680 C   0  0  0  0  0  0  0  0  0  0  0  0
   -4.5060    1.7260    0.5510 C   0  0  0  0  0  0  0  0  0  0  0  0
   -3.3430    2.1470    1.0710 N   0  0  0  0  0  0  0  0  0  0  0  0
   -2.2990    1.3860    0.5790 C   0  0  0  0  0  0  0  0  0  0  0  0
   -0.9830    1.6780    0.9900 N   0  0  0  0  0  0  0  0  0  0  0  0
    0.2550    1.0990    0.7450 C   0  0  0  0  0  0  0  0  0  0  0  0
    1.4100    1.7030    1.3160 C   0  0  0  0  0  0  0  0  0  0  0  0
    2.6570    1.1740    1.1270 C   0  0  0  0  0  0  0  0  0  0  0  0
    2.8670    0.0370    0.3790 C   0  0  0  0  0  0  0  0  0  0  0  0
    4.2070   -0.5150    0.1860 C   0  0  0  0  0  0  0  0  0  0  0  0
    4.4770   -1.6430   -0.5470 C   0  0  0  0  0  0  0  0  0  0  0  0
    5.7920   -2.1000   -0.6770 C   0  0  0  0  0  0  0  0  0  0  0  0
    6.8430   -1.4400   -0.0810 C   0  0  0  0  0  0  0  0  0  0  0  0
    8.1860   -1.8760   -0.1930 N   0  0  0  0  0  0  0  0  0  0  0  0
    6.5390   -0.3100    0.6490 C   0  0  0  0  0  0  0  0  0  0  0  0
    5.2770    0.1120    0.7630 N   0  0  0  0  0  0  0  0  0  0  0  0
    1.7410   -0.5330   -0.1660 C   0  0  0  0  0  0  0  0  0  0  0  0
    0.5340    0.0170    0.0440 N   0  0  0  0  0  0  0  0  0  0  0  0
   -2.8750    0.5090   -0.2420 N   0  0  0  0  0  0  0  0  0  0  0  0
   -2.1910   -0.5080   -0.9960 C   0  0  0  0  0  0  0  0  0  0  0  0
   -2.1240   -1.8430   -0.3730 C   0  0  0  0  0  0  0  0  0  0  0  0
   -1.5370   -1.8630    0.8500 F   0  0  0  0  0  0  0  0  0  0  0  0
   -4.2490    0.6870   -0.2860 C   0  0  0  0  0  0  0  0  0  0  0  0
   -5.0460   -0.0570   -1.0070 C   0  0  0  0  0  0  0  0  0  0  0  0
   -6.5080    0.0810   -1.0770 C   0  0  0  0  0  0  0  0  0  0  0  0
  1  2  2  0
  2  3  1  0
  2 23  1  0
  3  4  2  0
  4  5  1  0
  4 19  1  0
  5  6  1  0
  6  7  2  0
  6 18  1  0
  7  8  1  0
  8  9  2  0
  9 10  1  0
  9 17  1  0
 10 11  2  0
 10 16  1  0
 11 12  1  0
 12 13  2  0
 13 14  1  0
 13 15  1  0
 15 16  2  0
 17 18  2  0
 19 20  1  0
 19 23  1  0
 20 21  1  0
 21 22  1  0
 23 24  2  3
 24 25  1  0
M  CHG  1   3   1
M  END
