
     RDKit          3D

 24 27  0  0  0  0  0  0  0  0999 V2000
   -6.0520    1.4460   -1.1600 C   0  0  0  0  0  0  0  0  0  0  0  0
   -6.0940    0.7460    0.1550 C   0  0  0  0  0  0  0  0  0  0  0  0
   -5.5860   -0.6120    0.1260 N   0  0  0  0  0  0  0  0  0  0  0  0
   -6.3960   -1.6940   -0.0010 C   0  0  0  0  0  0  0  0  0  0  0  0
   -5.5740   -2.7820    0.0660 C   0  0  0  0  0  0  0  0  0  0  0  0
   -4.3290   -2.3460    0.2250 N   0  0  0  0  0  0  0  0  0  0  0  0
   -4.3180   -0.9700    0.2640 C   0  0  0  0  0  0  0  0  0  0  0  0
   -3.0840   -0.1810    0.4220 C   0  0  0  0  0  0  0  0  0  0  0  0
   -1.8390   -0.7400    0.5760 N   0  0  0  0  0  0  0  0  0  0  0  0
   -0.9250    0.2270    0.7100 C   0  0  0  0  0  0  0  0  0  0  0  0
    0.4630    0.1290    0.8900 C   0  0  0  0  0  0  0  0  0  0  0  0
    1.0530   -1.1530    0.9650 N   0  0  0  0  0  0  0  0  0  0  0  0
    2.4710   -1.4170    1.0480 C   0  0  0  0  0  0  0  0  0  0  0  0
    3.2060   -1.0890   -0.2450 C   0  0  0  0  0  0  0  0  0  0  0  0
    4.6820   -1.3700   -0.1170 C   0  0  1  0  0  0  0  0  0  0  0  0
    5.3590   -1.0320   -1.4270 C   0  0  0  0  0  0  0  0  0  0  0  0
    5.3060    0.4780   -1.4280 C   0  0  0  0  0  0  0  0  0  0  0  0
    5.4040    0.8250    0.0260 C   0  0  0  0  0  0  0  0  0  0  0  0
    5.3180   -0.4160    0.7680 N   0  0  0  0  0  0  0  0  0  0  0  0
    1.1550    1.3140    1.0000 C   0  0  0  0  0  0  0  0  0  0  0  0
    0.5020    2.5500    0.9340 C   0  0  0  0  0  0  0  0  0  0  0  0
   -0.8630    2.6170    0.7560 C   0  0  0  0  0  0  0  0  0  0  0  0
   -1.5710    1.4390    0.6450 C   0  0  0  0  0  0  0  0  0  0  0  0
   -2.8860    1.1310    0.4680 N   0  0  0  0  0  0  0  0  0  0  0  0
  1  2  1  0
  2  3  1  0
  3  4  1  0
  3  7  1  0
  4  5  2  0
  5  6  1  0
  6  7  2  0
  7  8  1  0
  8  9  2  0
  8 24  1  0
  9 10  1  0
 10 11  2  0
 10 23  1  0
 11 12  1  0
 11 20  1  0
 12 13  1  0
 13 14  1  0
 15 14  1  6
 15 16  1  0
 15 19  1  0
 16 17  1  0
 17 18  1  0
 18 19  1  0
 20 21  2  0
 21 22  1  0
 22 23  2  0
 23 24  1  0
M  CHG  1  19   1
M  END
