
     RDKit          3D

 25 27  0  0  0  0  0  0  0  0999 V2000
    0.0690   -0.8960    1.4780 C   0  0  0  0  0  0  0  0  0  0  0  0
   -0.3280   -0.2830    0.1320 C   0  0  1  0  0  0  0  0  0  0  0  0
    0.7900   -0.4520   -0.8340 C   0  0  0  0  0  0  0  0  0  0  0  0
    1.9200    0.1760   -0.6840 C   0  0  0  0  0  0  0  0  0  0  0  0
    2.9080   -0.1280   -1.7650 C   0  0  0  0  0  0  0  0  0  0  0  0
    4.2010   -0.3860   -1.7160 C   0  0  0  0  0  0  0  0  0  0  0  0
    5.1490   -0.4690   -0.5460 C   0  0  0  0  0  0  0  0  0  0  0  0
    5.4320    0.9400   -0.0960 C   0  0  0  0  0  0  0  0  0  0  0  0
    4.4200    1.4660    0.8920 C   0  0  0  0  0  0  0  0  0  0  0  0
    3.2190    1.9900    0.3300 N   0  0  0  0  0  0  0  0  0  0  0  0
    2.0660    1.1240    0.4570 C   0  0  0  0  0  0  0  0  0  0  0  0
   -1.5730   -0.8460   -0.3100 N   0  0  0  0  0  0  0  0  0  0  0  0
   -2.7300   -0.2610   -0.5720 C   0  0  0  0  0  0  0  0  0  0  0  0
   -3.1250    1.1650   -0.4910 C   0  0  0  0  0  0  0  0  0  0  0  0
   -3.2320    1.6290    0.9080 N   0  0  0  0  0  0  0  0  0  0  0  0
   -3.9380    2.9540    0.8430 C   0  0  0  0  0  0  0  0  0  0  0  0
   -5.0670    2.8050    1.7640 N   0  0  0  0  0  0  0  0  0  0  0  0
   -3.6530   -1.2460   -0.9170 N   0  0  0  0  0  0  0  0  0  0  0  0
   -3.0210   -2.4240   -0.8550 C   0  0  0  0  0  0  0  0  0  0  0  0
   -3.4440   -3.7190   -1.1060 C   0  0  0  0  0  0  0  0  0  0  0  0
   -4.7480   -3.9310   -1.4900 F   0  0  0  0  0  0  0  0  0  0  0  0
   -2.5240   -4.7220   -0.9650 C   0  0  0  0  0  0  0  0  0  0  0  0
   -1.2560   -4.4940   -0.6000 N   0  0  0  0  0  0  0  0  0  0  0  0
   -0.8240   -3.2560   -0.3490 C   0  0  0  0  0  0  0  0  0  0  0  0
   -1.6940   -2.1940   -0.4710 C   0  0  0  0  0  0  0  0  0  0  0  0
  2  1  1  1
  2  3  1  0
  2 12  1  0
  3  4  2  3
  4  5  1  0
  4 11  1  0
  5  6  2  0
  6  7  1  0
  7  8  1  0
  8  9  1  0
  9 10  1  0
 10 11  1  0
 12 13  1  0
 12 25  1  0
 13 14  1  0
 13 18  2  0
 14 15  1  0
 15 16  1  0
 16 17  1  0
 18 19  1  0
 19 20  2  0
 19 25  1  0
 20 21  1  0
 20 22  1  0
 22 23  2  0
 23 24  1  0
 24 25  2  0
M  CHG  1  17   1
M  END
