
     RDKit          3D

 25 28  0  0  0  0  0  0  0  0999 V2000
   -5.4810    2.5450   -0.3710 N   0  0  0  0  0  0  0  0  0  0  0  0
   -4.7290    1.5530   -1.1650 C   0  0  0  0  0  0  0  0  0  0  0  0
   -4.6770    0.3030   -0.3510 C   0  0  0  0  0  0  0  0  0  0  0  0
   -5.8230   -0.5040   -0.3950 C   0  0  0  0  0  0  0  0  0  0  0  0
   -5.7530   -1.7590    0.1710 C   0  0  0  0  0  0  0  0  0  0  0  0
   -4.5700   -2.1450    0.7470 C   0  0  0  0  0  0  0  0  0  0  0  0
   -3.5000   -1.3440    0.7700 N   0  0  0  0  0  0  0  0  0  0  0  0
   -3.5330   -0.1120    0.2260 C   0  0  0  0  0  0  0  0  0  0  0  0
   -2.3900    0.7570    0.3590 N   0  0  0  0  0  0  0  0  0  0  0  0
   -1.2940    0.3350    1.1980 C   0  0  0  0  0  0  0  0  0  0  0  0
   -0.2950   -0.5850    0.6720 C   0  0  0  0  0  0  0  0  0  0  0  0
    0.6190   -0.0630   -0.3500 N   0  0  0  0  0  0  0  0  0  0  0  0
    1.4180   -1.1950   -0.7190 C   0  0  0  0  0  0  0  0  0  0  0  0
    2.4830   -1.4760    0.3120 C   0  0  0  0  0  0  0  0  0  0  0  0
    3.4230   -0.3890    0.1730 N   0  0  0  0  0  0  0  0  0  0  0  0
    2.8790    0.8120    0.1330 C   0  0  0  0  0  0  0  0  0  0  0  0
    3.9390    1.6700    0.0410 N   0  0  0  0  0  0  0  0  0  0  0  0
    5.0790    0.9700    0.0280 C   0  0  0  0  0  0  0  0  0  0  0  0
    6.4530    1.2790   -0.0160 C   0  0  0  0  0  0  0  0  0  0  0  0
    7.4320    0.3080    0.0230 C   0  0  0  0  0  0  0  0  0  0  0  0
    7.0330   -1.0280    0.1080 C   0  0  0  0  0  0  0  0  0  0  0  0
    7.9690   -2.0340    0.1630 F   0  0  0  0  0  0  0  0  0  0  0  0
    5.7320   -1.3670    0.1530 C   0  0  0  0  0  0  0  0  0  0  0  0
    4.7450   -0.3630    0.1110 C   0  0  0  0  0  0  0  0  0  0  0  0
    1.4110    1.0270    0.2090 C   0  0  0  0  0  0  0  0  0  0  0  0
  1  2  1  0
  2  3  1  0
  3  4  2  0
  3  8  1  0
  4  5  1  0
  5  6  2  0
  6  7  1  0
  7  8  2  0
  8  9  1  0
  9 10  1  0
 10 11  1  0
 11 12  1  0
 12 13  1  0
 12 25  1  0
 13 14  1  0
 14 15  1  0
 15 16  1  0
 15 24  1  0
 16 17  2  0
 16 25  1  0
 17 18  1  0
 18 19  2  0
 18 24  1  0
 19 20  1  0
 20 21  2  0
 21 22  1  0
 21 23  1  0
 23 24  2  0
M  CHG  1   1   1
M  END
