
     RDKit          3D

 24 26  0  0  0  0  0  0  0  0999 V2000
    6.3840   -1.9630    1.1020 C   0  0  0  0  0  0  0  0  0  0  0  0
    5.4920   -1.3500    0.0950 C   0  0  0  0  0  0  0  0  0  0  0  0
    4.5790   -0.4990    0.4660 C   0  0  0  0  0  0  0  0  0  0  0  0
    3.6990    0.1000   -0.5660 C   0  0  0  0  0  0  0  0  0  0  0  0
    3.7450   -0.1580   -1.8820 N   0  0  0  0  0  0  0  0  0  0  0  0
    2.8370    0.5340   -2.5200 N   0  0  0  0  0  0  0  0  0  0  0  0
    2.1740    1.2690   -1.6000 C   0  0  0  0  0  0  0  0  0  0  0  0
    2.7100    0.9970   -0.3990 N   0  0  0  0  0  0  0  0  0  0  0  0
    2.0220    1.7620    0.6020 C   0  0  0  0  0  0  0  0  0  0  0  0
    0.6780    1.9420    0.0010 N   0  0  0  0  0  0  0  0  0  0  0  0
    0.0500    0.6760    0.0770 C   0  0  0  0  0  0  0  0  0  0  0  0
   -1.3750    0.5570   -0.1800 C   0  0  0  0  0  0  0  0  0  0  0  0
   -2.2260    1.5180   -0.4060 C   0  0  0  0  0  0  0  0  0  0  0  0
   -1.8890    2.9550   -0.4380 C   0  0  0  0  0  0  0  0  0  0  0  0
   -3.6510    1.0900   -0.6560 C   0  0  0  0  0  0  0  0  0  0  0  0
   -1.8720   -0.8280   -0.1730 N   0  0  0  0  0  0  0  0  0  0  0  0
   -1.9370   -1.6500   -1.2080 C   0  0  0  0  0  0  0  0  0  0  0  0
   -1.5420   -1.3800   -2.6030 C   0  0  0  0  0  0  0  0  0  0  0  0
   -2.4610   -2.8820   -0.8070 C   0  0  0  0  0  0  0  0  0  0  0  0
   -2.7110   -2.7600    0.5400 C   0  0  0  0  0  0  0  0  0  0  0  0
   -2.3310   -1.4640    0.9030 C   0  0  0  0  0  0  0  0  0  0  0  0
   -2.4600   -0.9620    2.2960 C   0  0  0  0  0  0  0  0  0  0  0  0
   -3.8160   -0.4390    2.5200 N   0  0  0  0  0  0  0  0  0  0  0  0
    1.0860    2.2650   -1.3670 C   0  0  0  0  0  0  0  0  0  0  0  0
  1  2  1  0
  2  3  2  3
  3  4  1  0
  4  5  2  0
  4  8  1  0
  5  6  1  0
  6  7  2  0
  7  8  1  0
  7 24  1  0
  8  9  1  0
  9 10  1  0
 10 11  1  0
 10 24  1  0
 11 12  1  0
 12 13  2  3
 12 16  1  0
 13 14  1  0
 13 15  1  0
 16 17  1  0
 16 21  1  0
 17 18  1  0
 17 19  2  0
 19 20  1  0
 20 21  2  0
 21 22  1  0
 22 23  1  0
M  CHG  1  23   1
M  END
