
     RDKit          3D

 25 27  0  0  0  0  0  0  0  0999 V2000
   -5.1210    2.1900   -0.1870 C   0  0  0  0  0  0  0  0  0  0  0  0
   -3.7470    2.2590    0.4070 C   0  0  0  0  0  0  0  0  0  0  0  0
   -3.2060    0.9800    0.9310 C   0  0  0  0  0  0  0  0  0  0  0  0
   -3.0580   -0.0870   -0.0170 N   0  0  0  0  0  0  0  0  0  0  0  0
   -1.8000   -0.6160   -0.4890 C   0  0  0  0  0  0  0  0  0  0  0  0
   -0.5170   -0.1190   -0.0750 N   0  0  0  0  0  0  0  0  0  0  0  0
    0.5320   -1.0460    0.1610 C   0  0  0  0  0  0  0  0  0  0  0  0
    0.3590   -2.3730    0.3430 C   0  0  0  0  0  0  0  0  0  0  0  0
    1.4450   -3.2000    0.5520 C   0  0  0  0  0  0  0  0  0  0  0  0
    2.7050   -2.6640    0.5760 C   0  0  0  0  0  0  0  0  0  0  0  0
    2.9260   -1.2970    0.3930 C   0  0  0  0  0  0  0  0  0  0  0  0
    4.2490   -0.8230    0.4270 N   0  0  0  0  0  0  0  0  0  0  0  0
    4.6160    0.5500    0.3530 C   0  0  0  0  0  0  0  0  0  0  0  0
    3.8710    1.3820    1.0220 N   0  0  0  0  0  0  0  0  0  0  0  0
    4.0970    2.7710    1.0570 C   0  0  0  0  0  0  0  0  0  0  0  0
    5.1100    3.2420    0.3820 C   0  0  0  0  0  0  0  0  0  0  0  0
    5.9940    2.4340   -0.3830 N   0  0  0  0  0  0  0  0  0  0  0  0
    5.7490    1.0140   -0.4100 C   0  0  0  0  0  0  0  0  0  0  0  0
    6.4910    0.1880   -1.0870 C   0  0  0  0  0  0  0  0  0  0  0  0
    6.3500   -1.1260   -1.1910 F   0  0  0  0  0  0  0  0  0  0  0  0
    1.8410   -0.5060    0.1880 C   0  0  0  0  0  0  0  0  0  0  0  0
   -2.0120   -1.5630   -1.3170 N   0  0  0  0  0  0  0  0  0  0  0  0
   -3.4150   -1.8250   -1.5340 C   0  0  0  0  0  0  0  0  0  0  0  0
   -4.1240   -0.8160   -0.6730 C   0  0  1  0  0  0  0  0  0  0  0  0
   -4.9580   -1.5940    0.3310 C   0  0  0  0  0  0  0  0  0  0  0  0
  1  2  1  0
  2  3  1  0
  3  4  1  0
  4  5  1  0
  4 24  1  0
  5  6  1  0
  5 22  2  0
  6  7  1  0
  7  8  2  0
  7 21  1  0
  8  9  1  0
  9 10  2  0
 10 11  1  0
 11 12  1  0
 11 21  2  0
 12 13  1  0
 13 14  2  0
 13 18  1  0
 14 15  1  0
 15 16  2  0
 16 17  1  0
 17 18  1  0
 18 19  2  3
 19 20  1  0
 22 23  1  0
 23 24  1  0
 24 25  1  1
M  CHG  1  22   1
M  END
