
     RDKit          3D

 18 18  0  0  0  0  0  0  0  0999 V2000
   -3.5280    2.0370   -0.4290 C   0  0  0  0  0  0  0  0  0  0  0  0
   -2.2530    1.3070   -0.2700 C   0  0  0  0  0  0  0  0  0  0  0  0
   -0.6880    2.4400   -0.5240 Br  0  0  0  0  0  0  0  0  0  0  0  0
   -2.1240    0.0620    0.0070 C   0  0  0  0  0  0  0  0  0  0  0  0
   -3.2090   -0.8860    0.2270 C   0  0  0  0  0  0  0  0  0  0  0  0
   -4.2870   -0.8520    0.9800 C   0  0  0  0  0  0  0  0  0  0  0  0
   -4.8180    0.5450    2.1200 Br  0  0  0  0  0  0  0  0  0  0  0  0
   -2.8350   -2.1360   -0.5770 C   0  0  0  0  0  0  0  0  0  0  0  0
   -1.4090   -1.8560   -0.9380 C   0  0  0  0  0  0  0  0  0  0  0  0
   -0.9610   -0.8510    0.0880 C   0  0  1  0  0  0  0  0  0  0  0  0
    0.3640   -0.3110   -0.0990 C   0  0  0  0  0  0  0  0  0  0  0  0
    0.9740   -0.5680   -1.1550 O   0  0  0  0  0  0  0  0  0  0  0  0
    1.0000    0.5020    0.8740 N   0  0  0  0  0  0  0  0  0  0  0  0
    2.2760    1.0460    0.7280 N   0  0  0  0  0  0  0  0  0  0  0  0
    3.4010    0.3100    0.3160 C   0  0  0  0  0  0  0  0  0  0  0  0
    3.2730   -0.9160    0.0570 O   0  0  0  0  0  0  0  0  0  0  0  0
    4.7550    0.9300    0.1710 C   0  0  0  0  0  0  0  0  0  0  0  0
    5.7120   -0.0620   -0.2710 N   0  0  0  0  0  0  0  0  0  0  0  0
  1  2  1  0
  2  3  1  0
  2  4  2  3
  4  5  1  0
  4 10  1  0
  5  6  2  3
  5  8  1  0
  6  7  1  0
  8  9  1  0
  9 10  1  0
 10 11  1  6
 11 12  2  0
 11 13  1  0
 13 14  1  0
 14 15  1  0
 15 16  2  0
 15 17  1  0
 17 18  1  0
M  CHG  1  18   1
M  END
