
     RDKit          3D

 18 19  0  0  0  0  0  0  0  0999 V2000
    0.3950   -2.4970   -0.3540 N   0  0  0  0  0  0  0  0  0  0  0  0
    0.1090   -1.1160   -0.1940 C   0  0  0  0  0  0  0  0  0  0  0  0
   -1.1590   -0.7390    0.0100 C   0  0  0  0  0  0  0  0  0  0  0  0
   -1.6560    0.6340    0.1980 C   0  0  0  0  0  0  0  0  0  0  0  0
   -2.9220    0.7550    0.5200 C   0  0  0  0  0  0  0  0  0  0  0  0
   -3.8240   -0.4200    0.6910 C   0  0  2  0  0  0  0  0  0  0  0  0
   -4.2500   -1.2440   -0.9930 Br  0  0  0  0  0  0  0  0  0  0  0  0
   -5.4910    0.1200    1.5290 Br  0  0  0  0  0  0  0  0  0  0  0  0
   -0.9230    1.9180    0.0750 C   0  0  2  0  0  0  0  0  0  0  0  0
   -1.7940    2.9710   -0.1680 O   0  0  0  0  0  0  0  0  0  0  0  0
    0.1240    1.8940   -0.9860 C   0  0  0  0  0  0  0  0  0  0  0  0
    1.2760    1.0450   -0.6050 C   0  0  0  0  0  0  0  0  0  0  0  0
    2.6010    1.5030   -0.5470 C   0  0  0  0  0  0  0  0  0  0  0  0
    3.3260    0.4410   -0.1720 N   0  0  0  0  0  0  0  0  0  0  0  0
    2.5090   -0.6310   -0.0010 C   0  0  0  0  0  0  0  0  0  0  0  0
    2.8940   -2.0000    0.4100 C   0  0  0  0  0  0  0  0  0  0  0  0
    4.2890   -1.9750    0.6450 O   0  0  0  0  0  0  0  0  0  0  0  0
    1.2440   -0.2550   -0.2700 N   0  0  0  0  0  0  0  0  0  0  0  0
  1  2  1  0
  2  3  2  0
  2 18  1  0
  3  4  1  0
  4  5  2  3
  4  9  1  0
  5  6  1  0
  6  7  1  6
  6  8  1  0
  9 10  1  6
  9 11  1  0
 11 12  1  0
 12 13  2  0
 12 18  1  0
 13 14  1  0
 14 15  2  0
 15 16  1  0
 15 18  1  0
 16 17  1  0
M  END
