
     RDKit          3D

 18 18  0  0  0  0  0  0  0  0999 V2000
   -2.8040   -0.7620   -1.9870 C   0  0  0  0  0  0  0  0  0  0  0  0
   -1.6730   -0.5200   -0.9700 C   0  0  0  0  0  0  0  0  0  0  0  0
   -1.6870    0.6680   -0.4210 C   0  0  0  0  0  0  0  0  0  0  0  0
   -0.8010    1.2860    0.5680 C   0  0  0  0  0  0  0  0  0  0  0  0
   -1.4280    1.5010    1.9400 C   0  0  2  0  0  0  0  0  0  0  0  0
   -3.1550    2.3770    1.7190 Br  0  0  0  0  0  0  0  0  0  0  0  0
   -0.3310    2.7900    2.9090 Br  0  0  0  0  0  0  0  0  0  0  0  0
    0.4630    1.6940    0.3740 C   0  0  0  0  0  0  0  0  0  0  0  0
    1.3010    1.6600   -0.7910 C   0  0  0  0  0  0  0  0  0  0  0  0
    2.1490    0.8010   -1.2950 C   0  0  0  0  0  0  0  0  0  0  0  0
    2.5480   -0.5260   -0.7680 C   0  0  0  0  0  0  0  0  0  0  0  0
    2.6220   -0.6100    0.6670 N   0  0  0  0  0  0  0  0  0  0  0  0
    1.5900   -0.7190    1.6010 C   0  0  0  0  0  0  0  0  0  0  0  0
    1.8040   -0.0740    2.7070 O   0  0  0  0  0  0  0  0  0  0  0  0
    0.3640   -1.4220    1.5120 N   0  0  0  0  0  0  0  0  0  0  0  0
   -0.1900   -2.1020    0.4400 N   0  0  0  0  0  0  0  0  0  0  0  0
   -0.7780   -1.6410   -0.7530 C   0  0  0  0  0  0  0  0  0  0  0  0
   -0.4580   -2.3400   -1.8050 O   0  0  0  0  0  0  0  0  0  0  0  0
  1  2  1  0
  2  3  2  0
  2 17  1  0
  3  4  1  0
  4  5  1  0
  4  8  2  0
  5  6  1  6
  5  7  1  0
  8  9  1  0
  9 10  2  0
 10 11  1  0
 11 12  1  0
 12 13  1  0
 13 14  2  0
 13 15  1  0
 15 16  1  0
 16 17  1  0
 17 18  2  0
M  END
