
     RDKit          3D

 11 11  0  0  0  0  0  0  0  0999 V2000
    3.5710    0.9780    0.5480 N   0  0  0  0  0  0  0  0  0  0  0  0
    2.4080    0.5820   -0.1580 C   0  0  0  0  0  0  0  0  0  0  0  0
    1.7410    1.3440   -0.8930 O   0  0  0  0  0  0  0  0  0  0  0  0
    1.9730   -0.7250   -0.0380 O   0  0  0  0  0  0  0  0  0  0  0  0
    0.8510   -1.2800   -0.6620 C   0  0  0  0  0  0  0  0  0  0  0  0
   -0.4310   -0.6280   -0.3130 C   0  0  0  0  0  0  0  0  0  0  0  0
   -1.0590    0.2950   -1.1070 C   0  0  0  0  0  0  0  0  0  0  0  0
   -2.2540    0.8710   -0.7220 C   0  0  0  0  0  0  0  0  0  0  0  0
   -2.8600    0.5450    0.4650 C   0  0  0  0  0  0  0  0  0  0  0  0
   -2.2160   -0.3870    1.2550 C   0  0  0  0  0  0  0  0  0  0  0  0
   -1.0440   -0.9570    0.8870 C   0  0  0  0  0  0  0  0  0  0  0  0
  1  2  1  0
  2  3  2  0
  2  4  1  0
  4  5  1  0
  5  6  1  0
  6  7  2  0
  6 11  1  0
  7  8  1  0
  8  9  2  0
  9 10  1  0
 10 11  2  0
M  END
