
     RDKit          3D

 18 19  0  0  0  0  0  0  0  0999 V2000
   -2.8550   -0.2330   -1.7840 C   0  0  0  0  0  0  0  0  0  0  0  0
   -2.7870    0.0530   -0.5080 C   0  0  0  0  0  0  0  0  0  0  0  0
   -3.9320    0.3170    0.3550 C   0  0  0  0  0  0  0  0  0  0  0  0
   -5.1680    0.3100    0.0070 N   0  0  0  0  0  0  0  0  0  0  0  0
   -3.3740    0.5750    1.6340 N   0  0  0  0  0  0  0  0  0  0  0  0
   -1.9850    0.4750    1.5540 N   0  0  0  0  0  0  0  0  0  0  0  0
   -1.6070    0.1770    0.3390 C   0  0  0  0  0  0  0  0  0  0  0  0
   -0.2090    0.0030   -0.0630 C   0  0  0  0  0  0  0  0  0  0  0  0
    0.0410   -0.2800   -1.2410 O   0  0  0  0  0  0  0  0  0  0  0  0
    0.8160    0.1470    0.8350 O   0  0  0  0  0  0  0  0  0  0  0  0
    2.1590   -0.0040    0.5190 C   0  0  0  0  0  0  0  0  0  0  0  0
    2.7310   -1.2570    0.6360 C   0  0  0  0  0  0  0  0  0  0  0  0
    4.0720   -1.4660    0.3320 C   0  0  0  0  0  0  0  0  0  0  0  0
    4.8530   -0.4040   -0.0970 C   0  0  0  0  0  0  0  0  0  0  0  0
    6.6770   -0.7190   -0.5040 Br  0  0  0  0  0  0  0  0  0  0  0  0
    4.2550    0.8400   -0.2060 C   0  0  0  0  0  0  0  0  0  0  0  0
    5.3370    2.2840   -0.7930 Br  0  0  0  0  0  0  0  0  0  0  0  0
    2.9420    1.0390    0.0940 C   0  0  0  0  0  0  0  0  0  0  0  0
  1  2  2  0
  2  3  1  0
  2  7  1  0
  3  4  2  0
  3  5  1  0
  5  6  1  0
  6  7  2  0
  7  8  1  0
  8  9  2  0
  8 10  1  0
 10 11  1  0
 11 12  2  0
 11 18  1  0
 12 13  1  0
 13 14  2  0
 14 15  1  0
 14 16  1  0
 16 17  1  0
 16 18  2  0
M  CHG  1   4   1
M  END
