
     RDKit          3D

 18 18  0  0  0  0  0  0  0  0999 V2000
   -4.5270   -0.1450    1.8090 N   0  0  0  0  0  0  0  0  0  0  0  0
   -4.7980    0.4840    0.5640 C   0  0  0  0  0  0  0  0  0  0  0  0
   -3.6330    0.6490   -0.3020 C   0  0  0  0  0  0  0  0  0  0  0  0
   -2.4220    0.2900   -0.0530 C   0  0  0  0  0  0  0  0  0  0  0  0
   -1.7680   -0.5570    1.4970 Br  0  0  0  0  0  0  0  0  0  0  0  0
   -1.4290    0.5670   -1.0870 N   0  0  0  0  0  0  0  0  0  0  0  0
   -0.5200   -0.4450   -1.4560 C   0  0  0  0  0  0  0  0  0  0  0  0
    0.7480   -0.4070   -1.0940 C   0  0  0  0  0  0  0  0  0  0  0  0
    1.6980   -1.4460   -1.4680 C   0  0  0  0  0  0  0  0  0  0  0  0
    1.2700   -2.4170   -2.1690 O   0  0  0  0  0  0  0  0  0  0  0  0
    3.0680   -1.3440   -1.0410 C   0  0  0  0  0  0  0  0  0  0  0  0
    3.5780   -0.3370   -0.2970 C   0  0  0  0  0  0  0  0  0  0  0  0
    4.9940   -0.3850    0.0520 C   0  0  0  0  0  0  0  0  0  0  0  0
    5.6760    0.4480    0.7380 C   0  0  0  0  0  0  0  0  0  0  0  0
    5.0430    2.0320    1.5260 Br  0  0  0  0  0  0  0  0  0  0  0  0
    2.6900    0.6890    0.0860 N   0  0  0  0  0  0  0  0  0  0  0  0
    1.3080    0.6700   -0.2950 C   0  0  0  0  0  0  0  0  0  0  0  0
    0.5200    1.6030    0.0590 O   0  0  0  0  0  0  0  0  0  0  0  0
  1  2  1  0
  2  3  1  0
  3  4  2  3
  4  5  1  0
  4  6  1  0
  6  7  1  0
  7  8  2  3
  8  9  1  0
  8 17  1  0
  9 10  2  0
  9 11  1  0
 11 12  2  0
 12 13  1  0
 12 16  1  0
 13 14  2  3
 14 15  1  0
 16 17  1  0
 17 18  2  0
M  CHG  1   1   1
M  END
