
     RDKit          3D

 17 18  0  0  0  0  0  0  0  0999 V2000
   -3.8000   -1.0500   -1.4950 N   0  0  0  0  0  0  0  0  0  0  0  0
   -2.7660   -0.6490   -0.5600 C   0  0  2  0  0  0  0  0  0  0  0  0
   -3.4150    0.1330    0.5430 C   0  0  0  0  0  0  0  0  0  0  0  0
   -2.4700    0.8730    1.4180 C   0  0  0  0  0  0  0  0  0  0  0  0
   -1.2770    1.4400    0.7350 C   0  0  0  0  0  0  0  0  0  0  0  0
   -0.7760    0.6280   -0.3480 N   0  0  0  0  0  0  0  0  0  0  0  0
    0.5610    0.2280   -0.4910 C   0  0  0  0  0  0  0  0  0  0  0  0
    0.9180   -0.4820   -1.4690 O   0  0  0  0  0  0  0  0  0  0  0  0
    1.6360    0.5920    0.4630 C   0  0  0  0  0  0  0  0  0  0  0  0
    2.9250    0.0520    0.0860 N   0  0  0  0  0  0  0  0  0  0  0  0
    3.9250    0.6550   -0.7420 C   0  0  0  0  0  0  0  0  0  0  0  0
    4.9680   -0.1240   -0.8680 C   0  0  0  0  0  0  0  0  0  0  0  0
    6.5250    0.3040   -1.8890 Br  0  0  0  0  0  0  0  0  0  0  0  0
    4.7900   -1.3830   -0.1180 C   0  0  0  0  0  0  0  0  0  0  0  0
    3.4260   -1.2150    0.4930 C   0  0  0  0  0  0  0  0  0  0  0  0
    2.8290   -2.0540    1.2370 O   0  0  0  0  0  0  0  0  0  0  0  0
   -1.7700    0.2310   -1.3260 C   0  0  0  0  0  0  0  0  0  0  0  0
  2  1  1  6
  2  3  1  0
  2 17  1  0
  3  4  1  0
  4  5  1  0
  5  6  1  0
  6  7  1  0
  6 17  1  0
  7  8  2  0
  7  9  1  0
  9 10  1  0
 10 11  1  0
 10 15  1  0
 11 12  2  0
 12 13  1  0
 12 14  1  0
 14 15  1  0
 15 16  2  0
M  CHG  1   1   1
M  END
