
     RDKit          3D

 18 19  0  0  0  0  0  0  0  0999 V2000
    4.0730   -2.2890   -1.0290 C   0  0  0  0  0  0  0  0  0  0  0  0
    2.9000   -1.5730   -0.7040 O   0  0  0  0  0  0  0  0  0  0  0  0
    2.8900   -0.3150   -0.1700 C   0  0  0  0  0  0  0  0  0  0  0  0
    4.1040    0.2970    0.0670 C   0  0  0  0  0  0  0  0  0  0  0  0
    4.1480    1.5660    0.6050 C   0  0  0  0  0  0  0  0  0  0  0  0
    2.9650    2.1810    0.8870 C   0  0  0  0  0  0  0  0  0  0  0  0
    1.7370    1.5500    0.6430 C   0  0  0  0  0  0  0  0  0  0  0  0
    1.6750    0.3100    0.1180 C   0  0  0  0  0  0  0  0  0  0  0  0
    0.4980   -0.4010   -0.1620 N   0  0  0  0  0  0  0  0  0  0  0  0
   -0.8320    0.0270    0.0440 C   0  0  0  0  0  0  0  0  0  0  0  0
   -1.0620    1.1510    0.5250 O   0  0  0  0  0  0  0  0  0  0  0  0
   -1.9510   -0.8200   -0.2950 N   0  0  0  0  0  0  0  0  0  0  0  0
   -3.2900   -0.3690   -0.0790 C   0  0  0  0  0  0  0  0  0  0  0  0
   -4.2160   -0.9120    0.6840 C   0  0  0  0  0  0  0  0  0  0  0  0
   -5.4720   -0.1280    0.6270 C   0  0  0  0  0  0  0  0  0  0  0  0
   -5.1310    0.9750   -0.3010 C   0  0  0  0  0  0  0  0  0  0  0  0
   -3.8950    0.8030   -0.6760 C   0  0  0  0  0  0  0  0  0  0  0  0
   -3.0650    1.8930   -1.7920 Cl  0  0  0  0  0  0  0  0  0  0  0  0
  1  2  1  0
  2  3  1  0
  3  4  2  0
  3  8  1  0
  4  5  1  0
  5  6  2  0
  6  7  1  0
  7  8  2  0
  8  9  1  0
  9 10  1  0
 10 11  2  0
 10 12  1  0
 12 13  1  0
 13 14  2  0
 13 17  1  0
 14 15  1  0
 15 16  1  0
 16 17  2  0
 17 18  1  0
M  END
