
     RDKit          3D

 18 19  0  0  0  0  0  0  0  0999 V2000
    0.3350    3.1120    0.4100 C   0  0  0  0  0  0  0  0  0  0  0  0
   -0.6840    2.3470    0.6280 C   0  0  0  0  0  0  0  0  0  0  0  0
   -0.9410    0.9940    0.2060 C   0  0  0  0  0  0  0  0  0  0  0  0
   -2.2760    0.5210    0.2250 C   0  0  0  0  0  0  0  0  0  0  0  0
   -3.3600    1.4200    0.6420 C   0  0  0  0  0  0  0  0  0  0  0  0
   -2.5420   -0.7790   -0.1500 C   0  0  0  0  0  0  0  0  0  0  0  0
   -4.2010   -1.3870   -0.1320 Cl  0  0  0  0  0  0  0  0  0  0  0  0
   -1.5460   -1.6420   -0.5470 C   0  0  0  0  0  0  0  0  0  0  0  0
   -0.2540   -1.1630   -0.5590 C   0  0  0  0  0  0  0  0  0  0  0  0
    0.0540    0.1600   -0.1820 C   0  0  0  0  0  0  0  0  0  0  0  0
    1.4030    0.5480   -0.2240 N   0  0  0  0  0  0  0  0  0  0  0  0
    2.2890    0.4570    0.8870 C   0  0  0  0  0  0  0  0  0  0  0  0
    1.8300   -0.0000    1.9690 O   0  0  0  0  0  0  0  0  0  0  0  0
    3.7040    0.8830    0.7790 C   0  0  0  0  0  0  0  0  0  0  0  0
    3.9170    1.3380   -0.5180 O   0  0  0  0  0  0  0  0  0  0  0  0
    0.6120   -2.2530   -1.0130 C   0  0  0  0  0  0  0  0  0  0  0  0
   -0.1970   -3.4950   -0.7140 C   0  0  0  0  0  0  0  0  0  0  0  0
   -1.5590   -3.0050   -0.9740 N   0  0  0  0  0  0  0  0  0  0  0  0
  1  2  2  0
  2  3  1  0
  3  4  2  0
  3 10  1  0
  4  5  1  0
  4  6  1  0
  6  7  1  0
  6  8  2  0
  8  9  1  0
  8 18  1  0
  9 10  2  0
  9 16  1  0
 10 11  1  0
 11 12  1  0
 12 13  2  0
 12 14  1  0
 14 15  1  0
 16 17  1  0
 17 18  1  0
M  END
