
     RDKit          3D

 18 19  0  0  0  0  0  0  0  0999 V2000
   -2.2900    2.0890    0.6540 C   0  0  0  0  0  0  0  0  0  0  0  0
   -3.0370    1.0530    0.3450 C   0  0  0  0  0  0  0  0  0  0  0  0
   -4.3390    1.2460   -0.0990 O   0  0  0  0  0  0  0  0  0  0  0  0
   -5.1560    0.1710   -0.4300 C   0  0  0  0  0  0  0  0  0  0  0  0
   -4.7130   -1.0700   -0.3320 C   0  0  0  0  0  0  0  0  0  0  0  0
   -3.3490   -1.2860    0.1330 C   0  0  0  0  0  0  0  0  0  0  0  0
   -2.5290   -0.2940    0.4610 C   0  0  0  0  0  0  0  0  0  0  0  0
   -1.2410   -0.6220    0.8990 N   0  0  0  0  0  0  0  0  0  0  0  0
   -0.0480   -0.2400    0.1820 C   0  0  0  0  0  0  0  0  0  0  0  0
   -0.1900    0.3960   -0.8580 O   0  0  0  0  0  0  0  0  0  0  0  0
    1.2210   -0.5800    0.6530 N   0  0  0  0  0  0  0  0  0  0  0  0
    2.4770   -0.2870    0.0700 C   0  0  0  0  0  0  0  0  0  0  0  0
    3.6360   -0.6300    0.8000 C   0  0  0  0  0  0  0  0  0  0  0  0
    4.8590   -0.3610    0.2500 C   0  0  0  0  0  0  0  0  0  0  0  0
    5.0240    0.2290   -0.9810 C   0  0  0  0  0  0  0  0  0  0  0  0
    6.6400    0.5380   -1.6090 Cl  0  0  0  0  0  0  0  0  0  0  0  0
    3.8960    0.5590   -1.6840 C   0  0  0  0  0  0  0  0  0  0  0  0
    2.6250    0.3010   -1.1570 C   0  0  0  0  0  0  0  0  0  0  0  0
  1  2  2  0
  2  3  1  0
  2  7  1  0
  3  4  1  0
  4  5  2  0
  5  6  1  0
  6  7  2  0
  7  8  1  0
  8  9  1  0
  9 10  2  0
  9 11  1  0
 11 12  1  0
 12 13  2  0
 12 18  1  0
 13 14  1  0
 14 15  2  0
 15 16  1  0
 15 17  1  0
 17 18  2  0
M  END
