
     RDKit          3D

 17 16  0  0  0  0  0  0  0  0999 V2000
    0.3770   -1.6380   -1.8710 C   0  0  0  0  0  0  0  0  0  0  0  0
    0.3240   -0.6070   -0.7620 C   0  0  2  0  0  0  0  0  0  0  0  0
   -1.0960   -0.1360   -0.5220 C   0  0  0  0  0  0  0  0  0  0  0  0
   -2.0200   -1.2310   -0.1290 C   0  0  2  0  0  0  0  0  0  0  0  0
   -2.1180   -2.2370   -1.0900 O   0  0  0  0  0  0  0  0  0  0  0  0
   -3.3950   -0.7510    0.1700 C   0  0  0  0  0  0  0  0  0  0  0  0
   -3.5240    0.2160    1.2650 C   0  0  0  0  0  0  0  0  0  0  0  0
   -4.8400    0.7090    1.5570 N   0  0  0  0  0  0  0  0  0  0  0  0
   -2.6310    0.6540    1.9640 O   0  0  0  0  0  0  0  0  0  0  0  0
    1.0990    0.5330   -1.0720 O   0  0  0  0  0  0  0  0  0  0  0  0
    2.1670    0.8630   -0.2610 C   0  0  0  0  0  0  0  0  0  0  0  0
    2.3850    0.1170    0.7190 O   0  0  0  0  0  0  0  0  0  0  0  0
    3.0160    2.0430   -0.5320 C   0  0  0  0  0  0  0  0  0  0  0  0
    4.0240    2.0950    0.4540 O   0  0  0  0  0  0  0  0  0  0  0  0
    4.9200    1.0690    0.5800 C   0  0  0  0  0  0  0  0  0  0  0  0
    5.9680    1.0680    1.5700 N   0  0  0  0  0  0  0  0  0  0  0  0
    4.8310    0.0870   -0.1930 O   0  0  0  0  0  0  0  0  0  0  0  0
  2  1  1  6
  2  3  1  0
  2 10  1  0
  3  4  1  0
  4  5  1  6
  4  6  1  0
  6  7  1  0
  7  8  1  0
  7  9  2  0
 10 11  1  0
 11 12  2  0
 11 13  1  0
 13 14  1  0
 14 15  1  0
 15 16  1  0
 15 17  2  0
M  CHG  1   8   1
M  END
