
     RDKit          3D

 18 19  0  0  0  0  0  0  0  0999 V2000
    1.6130   -0.9680    1.8760 C   0  0  0  0  0  0  0  0  0  0  0  0
    2.0890   -0.6240    0.6960 C   0  0  0  0  0  0  0  0  0  0  0  0
    3.4610   -0.4330    0.6000 O   0  0  0  0  0  0  0  0  0  0  0  0
    1.2420   -0.4440   -0.4770 C   0  0  0  0  0  0  0  0  0  0  0  0
    1.6140   -0.1090   -1.6740 C   0  0  0  0  0  0  0  0  0  0  0  0
    2.9420    0.1830   -2.2070 C   0  0  0  0  0  0  0  0  0  0  0  0
    2.8730    1.8770   -2.8200 Cl  0  0  0  0  0  0  0  0  0  0  0  0
   -0.1470   -0.6730   -0.2350 N   0  0  0  0  0  0  0  0  0  0  0  0
   -0.7210   -1.9530   -0.5250 C   0  0  0  0  0  0  0  0  0  0  0  0
   -2.1890   -1.8740   -0.7270 C   0  0  0  0  0  0  0  0  0  0  0  0
   -2.8060   -2.7590   -1.3900 O   0  0  0  0  0  0  0  0  0  0  0  0
   -2.9760   -0.8150   -0.1970 N   0  0  0  0  0  0  0  0  0  0  0  0
   -2.3240    0.3410    0.3260 C   0  0  0  0  0  0  0  0  0  0  0  0
   -3.0680    1.3750    0.8420 C   0  0  0  0  0  0  0  0  0  0  0  0
   -2.4250    2.4830    1.3430 C   0  0  0  0  0  0  0  0  0  0  0  0
   -1.0440    2.5650    1.3300 C   0  0  0  0  0  0  0  0  0  0  0  0
   -0.3380    1.5190    0.8100 C   0  0  0  0  0  0  0  0  0  0  0  0
   -0.9310    0.3740    0.2900 C   0  0  0  0  0  0  0  0  0  0  0  0
  1  2  2  0
  2  3  1  0
  2  4  1  0
  4  5  2  3
  4  8  1  0
  5  6  1  0
  6  7  1  0
  8  9  1  0
  8 18  1  0
  9 10  1  0
 10 11  2  0
 10 12  1  0
 12 13  1  0
 13 14  2  0
 13 18  1  0
 14 15  1  0
 15 16  2  0
 16 17  1  0
 17 18  2  0
M  END
