
     RDKit          3D

 25 27  0  0  0  0  0  0  0  0999 V2000
    8.4230   -0.3790    0.6890 C   0  0  0  0  0  0  0  0  0  0  0  0
    8.4230   -1.4370   -0.2040 O   0  0  0  0  0  0  0  0  0  0  0  0
    7.9830   -1.0640   -1.4650 C   0  0  0  0  0  0  0  0  0  0  0  0
    6.6210   -0.5470   -1.3670 C   0  0  0  0  0  0  0  0  0  0  0  0
    6.1130    0.7200   -1.4150 C   0  0  0  0  0  0  0  0  0  0  0  0
    4.7920    0.8890   -1.2870 C   0  0  0  0  0  0  0  0  0  0  0  0
    3.9780   -0.1770   -1.1130 C   0  0  0  0  0  0  0  0  0  0  0  0
    2.5460   -0.3280   -0.9410 C   0  0  0  0  0  0  0  0  0  0  0  0
    2.0310   -1.4700   -0.7780 O   0  0  0  0  0  0  0  0  0  0  0  0
    1.6680    0.8000   -0.9490 N   0  0  0  0  0  0  0  0  0  0  0  0
    0.3010    0.5690   -0.7760 N   0  0  0  0  0  0  0  0  0  0  0  0
   -0.2310   -0.0200    0.3970 C   0  0  0  0  0  0  0  0  0  0  0  0
    0.5430   -0.3490    1.3180 O   0  0  0  0  0  0  0  0  0  0  0  0
   -1.6620   -0.2400    0.5270 C   0  0  1  0  0  0  0  0  0  0  0  0
   -2.2980    0.6780    1.5790 C   0  0  0  0  0  0  0  0  0  0  0  0
   -3.7400    0.5150    1.1870 C   0  0  0  0  0  0  0  0  0  0  0  0
   -4.9330    0.6110    1.8690 C   0  0  0  0  0  0  0  0  0  0  0  0
   -6.1490    0.3960    1.2250 C   0  0  0  0  0  0  0  0  0  0  0  0
   -7.3880    0.5180    2.0350 C   0  0  0  0  0  0  0  0  0  0  0  0
   -6.1690    0.0810   -0.1170 C   0  0  0  0  0  0  0  0  0  0  0  0
   -7.4630   -0.1520   -0.8140 C   0  0  0  0  0  0  0  0  0  0  0  0
   -4.9620   -0.0100   -0.7790 C   0  0  0  0  0  0  0  0  0  0  0  0
   -3.7380    0.2010   -0.1550 C   0  0  0  0  0  0  0  0  0  0  0  0
   -2.4050    0.1650   -0.6110 O   0  0  0  0  0  0  0  0  0  0  0  0
    5.1900   -1.5450   -1.1320 S   0  0  0  0  0  0  0  0  0  0  0  0
  1  2  1  0
  2  3  1  0
  3  4  1  0
  4  5  2  0
  4 25  1  0
  5  6  1  0
  6  7  2  0
  7  8  1  0
  7 25  1  0
  8  9  2  0
  8 10  1  0
 10 11  1  0
 11 12  1  0
 12 13  2  0
 14 12  1  6
 14 15  1  0
 14 24  1  0
 15 16  1  0
 16 17  2  0
 16 23  1  0
 17 18  1  0
 18 19  1  0
 18 20  2  0
 20 21  1  0
 20 22  1  0
 22 23  2  0
 23 24  1  0
M  END
