
     RDKit          3D

 25 27  0  0  0  0  0  0  0  0999 V2000
    7.0500    0.8130   -0.1510 C   0  0  0  0  0  0  0  0  0  0  0  0
    5.6000    0.5740   -0.4050 C   0  0  0  0  0  0  0  0  0  0  0  0
    5.0770    0.2360   -1.6290 C   0  0  0  0  0  0  0  0  0  0  0  0
    3.6950    0.0730   -1.7530 C   0  0  0  0  0  0  0  0  0  0  0  0
    2.8560    0.2390   -0.6920 C   0  0  0  0  0  0  0  0  0  0  0  0
    1.4170    0.0480   -0.8720 C   0  0  0  0  0  0  0  0  0  0  0  0
    0.8270    0.8430   -1.6710 O   0  0  0  0  0  0  0  0  0  0  0  0
    0.7640   -0.9780   -0.1770 N   0  0  0  0  0  0  0  0  0  0  0  0
   -0.6130   -1.2300   -0.2210 C   0  0  0  0  0  0  0  0  0  0  0  0
   -1.1930   -2.9910   -0.3010 S   0  0  0  0  0  0  0  0  0  0  0  0
   -2.8900   -2.6210   -0.2470 C   0  0  0  0  0  0  0  0  0  0  0  0
   -3.9830   -3.6320   -0.2920 C   0  0  0  0  0  0  0  0  0  0  0  0
   -2.9400   -1.2490   -0.1700 C   0  0  0  0  0  0  0  0  0  0  0  0
   -1.7890   -0.5610   -0.1530 C   0  0  0  0  0  0  0  0  0  0  0  0
   -1.8680    0.9120    0.1050 C   0  0  0  0  0  0  0  0  0  0  0  0
   -0.8740    1.6530    0.1620 O   0  0  0  0  0  0  0  0  0  0  0  0
   -3.1200    1.4960    0.3040 O   0  0  0  0  0  0  0  0  0  0  0  0
   -4.2300    0.7390    0.6570 C   0  0  1  0  0  0  0  0  0  0  0  0
   -5.4840    1.5160    0.3510 C   0  0  0  0  0  0  0  0  0  0  0  0
   -5.3710    2.8250   -0.1800 N   0  0  0  0  0  0  0  0  0  0  0  0
   -6.5840    0.9530    0.5840 O   0  0  0  0  0  0  0  0  0  0  0  0
   -4.2880   -0.5330   -0.1240 C   0  0  0  0  0  0  0  0  0  0  0  0
    3.3560    0.5730    0.5330 C   0  0  0  0  0  0  0  0  0  0  0  0
    2.4650    0.8070    1.6990 C   0  0  0  0  0  0  0  0  0  0  0  0
    4.7460    0.7410    0.6680 C   0  0  0  0  0  0  0  0  0  0  0  0
  1  2  1  0
  2  3  2  0
  2 25  1  0
  3  4  1  0
  4  5  2  0
  5  6  1  0
  5 23  1  0
  6  7  2  0
  6  8  1  0
  8  9  1  0
  9 10  1  0
  9 14  2  0
 10 11  1  0
 11 12  1  0
 11 13  2  0
 13 14  1  0
 13 22  1  0
 14 15  1  0
 15 16  2  0
 15 17  1  0
 17 18  1  0
 18 19  1  6
 18 22  1  0
 19 20  1  0
 19 21  2  0
 23 24  1  0
 23 25  2  0
M  END
