
     RDKit          3D

 20 20  0  0  0  0  0  0  0  0999 V2000
    0.3480    4.1350   -1.5220 C   0  0  0  0  0  0  0  0  0  0  0  0
   -0.9260    4.1740   -0.7080 C   0  0  0  0  0  0  0  0  0  0  0  0
   -1.6780    2.9320   -0.8400 C   0  0  0  0  0  0  0  0  0  0  0  0
   -1.0790    1.6340   -0.3490 C   0  0  0  0  0  0  0  0  0  0  0  0
   -1.7830    0.4870   -0.8790 C   0  0  0  0  0  0  0  0  0  0  0  0
   -2.7740    0.7360   -1.6820 O   0  0  0  0  0  0  0  0  0  0  0  0
   -1.5280   -0.9090   -0.6280 C   0  0  0  0  0  0  0  0  0  0  0  0
   -2.5650   -1.7870   -1.4040 C   0  0  1  0  0  0  0  0  0  0  0  0
   -2.2770   -3.2460   -1.1250 C   0  0  0  0  0  0  0  0  0  0  0  0
   -3.9350   -1.4350   -0.8790 C   0  0  0  0  0  0  0  0  0  0  0  0
   -2.4750   -1.5400   -2.8740 C   0  0  0  0  0  0  0  0  0  0  0  0
   -0.0690    1.6070    0.4590 C   0  0  0  0  0  0  0  0  0  0  0  0
    0.4330    2.9050    0.8610 O   0  0  0  0  0  0  0  0  0  0  0  0
    0.7050    0.5210    1.0760 C   0  0  0  0  0  0  0  0  0  0  0  0
    2.1740    0.6610    0.6820 C   0  0  0  0  0  0  0  0  0  0  0  0
    3.0310   -0.3980    1.2640 C   0  0  1  0  0  0  0  0  0  0  0  0
    3.0460   -0.4520    2.7570 C   0  0  0  0  0  0  0  0  0  0  0  0
    3.6140   -1.8370    3.0420 C   0  0  0  0  0  0  0  0  0  0  0  0
    3.5470   -2.6190    1.7730 C   0  0  0  0  0  0  0  0  0  0  0  0
    2.5750   -1.8020    0.9090 C   0  0  0  0  0  0  0  0  0  0  0  0
  1  2  1  0
  2  3  1  0
  3  4  1  0
  4  5  1  0
  4 12  2  3
  5  6  2  0
  5  7  1  0
  7  8  1  0
  8  9  1  6
  8 10  1  0
  8 11  1  0
 12 13  1  0
 12 14  1  0
 14 15  1  0
 16 15  1  1
 16 17  1  0
 16 20  1  0
 17 18  1  0
 18 19  1  0
 19 20  1  0
M  END
