
     RDKit          3D

 25 27  0  0  0  0  0  0  0  0999 V2000
   -5.3070    2.4100   -0.1210 C   0  0  0  0  0  0  0  0  0  0  0  0
   -4.3120    1.9700    0.9220 C   0  0  0  0  0  0  0  0  0  0  0  0
   -3.5140    0.7960    0.4590 C   0  0  0  0  0  0  0  0  0  0  0  0
   -2.2080    0.9400    0.0400 C   0  0  0  0  0  0  0  0  0  0  0  0
   -1.4690   -0.1440   -0.3880 C   0  0  0  0  0  0  0  0  0  0  0  0
   -0.0520   -0.0210   -0.8470 C   0  0  0  0  0  0  0  0  0  0  0  0
    0.9030   -0.2020    0.3320 C   0  0  0  0  0  0  0  0  0  0  0  0
    2.2640   -0.0850   -0.1150 N   0  0  0  0  0  0  0  0  0  0  0  0
    3.3270   -0.2220    0.8250 C   0  0  0  0  0  0  0  0  0  0  0  0
    3.0500   -0.4430    2.0230 O   0  0  0  0  0  0  0  0  0  0  0  0
    4.7050   -0.1020    0.3640 C   0  0  0  0  0  0  0  0  0  0  0  0
    5.1720    0.1370   -0.9100 C   0  0  0  0  0  0  0  0  0  0  0  0
    6.5780    0.1620   -0.8350 C   0  0  0  0  0  0  0  0  0  0  0  0
    6.8770   -0.0570    0.4450 C   0  0  0  0  0  0  0  0  0  0  0  0
    5.7390   -0.2120    1.1390 O   0  0  0  0  0  0  0  0  0  0  0  0
    8.2860   -0.0820    0.8000 C   0  0  0  0  0  0  0  0  0  0  0  0
    8.8540   -0.4760    1.8510 O   0  0  0  0  0  0  0  0  0  0  0  0
    9.1000    0.6030   -0.6490 S   0  0  0  0  0  0  0  0  0  0  0  0
    7.6830    0.3560   -1.7530 C   0  0  0  0  0  0  0  0  0  0  0  0
    7.7210    0.3630   -2.9970 O   0  0  0  0  0  0  0  0  0  0  0  0
   -2.1050   -1.3740   -0.3730 C   0  0  0  0  0  0  0  0  0  0  0  0
   -3.4110   -1.5170    0.0470 C   0  0  0  0  0  0  0  0  0  0  0  0
   -4.0600   -2.8640    0.0470 C   0  0  0  0  0  0  0  0  0  0  0  0
   -4.1490   -0.4280    0.4750 C   0  0  0  0  0  0  0  0  0  0  0  0
   -5.4960   -0.5800    0.9060 N   0  0  0  0  0  0  0  0  0  0  0  0
  1  2  1  0
  2  3  1  0
  3  4  2  0
  3 24  1  0
  4  5  1  0
  5  6  1  0
  5 21  2  0
  6  7  1  0
  7  8  1  0
  8  9  1  0
  9 10  2  0
  9 11  1  0
 11 12  2  0
 11 15  1  0
 12 13  1  0
 13 14  2  0
 13 19  1  0
 14 15  1  0
 14 16  1  0
 16 17  2  0
 16 18  1  0
 18 19  1  0
 19 20  2  0
 21 22  1  0
 22 23  1  0
 22 24  2  0
 24 25  1  0
M  END
