
     RDKit          3D

 25 27  0  0  0  0  0  0  0  0999 V2000
   -7.5250    0.9490   -0.3230 N   0  0  0  0  0  0  0  0  0  0  0  0
   -6.6930   -0.4970   -0.7540 S   0  0  2  0  0  0  0  0  0  0  0  0
   -6.6810   -0.5810   -2.2690 O   0  0  0  0  0  0  0  0  0  0  0  0
   -7.3130   -1.7240   -0.1720 O   0  0  0  0  0  0  0  0  0  0  0  0
   -5.0290   -0.2950   -0.2100 C   0  0  0  0  0  0  0  0  0  0  0  0
   -4.7660   -0.3160    1.1580 C   0  0  0  0  0  0  0  0  0  0  0  0
   -3.4620   -0.1670    1.5370 C   0  0  0  0  0  0  0  0  0  0  0  0
   -2.3950    0.0020    0.6590 C   0  0  0  0  0  0  0  0  0  0  0  0
   -1.0710    0.2510    1.1440 C   0  0  0  0  0  0  0  0  0  0  0  0
   -1.0690    0.6450    2.4080 O   0  0  0  0  0  0  0  0  0  0  0  0
    0.1600    0.1440    0.5090 N   0  0  0  0  0  0  0  0  0  0  0  0
    1.3330    0.5760    1.2790 C   0  0  0  0  0  0  0  0  0  0  0  0
    2.0900   -0.7570    1.4190 C   0  0  0  0  0  0  0  0  0  0  0  0
    2.7520   -0.9500    0.0790 C   0  0  2  0  0  0  0  0  0  0  0  0
    3.3610   -2.2550    0.1490 O   0  0  0  0  0  0  0  0  0  0  0  0
    3.8750   -0.0190   -0.0220 C   0  0  0  0  0  0  0  0  0  0  0  0
    4.7620    0.0580    1.0410 C   0  0  0  0  0  0  0  0  0  0  0  0
    5.8630    0.8940    1.0410 C   0  0  0  0  0  0  0  0  0  0  0  0
    6.1220    1.6910   -0.0370 C   0  0  0  0  0  0  0  0  0  0  0  0
    5.2700    1.6470   -1.1100 C   0  0  0  0  0  0  0  0  0  0  0  0
    4.1510    0.7930   -1.1010 C   0  0  0  0  0  0  0  0  0  0  0  0
    1.7810   -0.9950   -1.0150 C   0  0  0  0  0  0  0  0  0  0  0  0
    0.4030   -0.4250   -0.7610 C   0  0  0  0  0  0  0  0  0  0  0  0
   -2.7250    0.0130   -0.6660 C   0  0  0  0  0  0  0  0  0  0  0  0
   -4.0500   -0.1360   -1.1350 C   0  0  0  0  0  0  0  0  0  0  0  0
  2  1  1  6
  2  3  2  0
  2  4  2  0
  2  5  1  0
  5  6  2  0
  5 25  1  0
  6  7  1  0
  7  8  2  0
  8  9  1  0
  8 24  1  0
  9 10  2  0
  9 11  1  0
 11 12  1  0
 11 23  1  0
 12 13  1  0
 13 14  1  0
 14 15  1  1
 14 16  1  0
 14 22  1  0
 16 17  2  0
 16 21  1  0
 17 18  1  0
 18 19  2  0
 19 20  1  0
 20 21  2  0
 22 23  1  0
 24 25  2  0
M  END
