
     RDKit          3D

 26 28  0  0  0  0  0  0  0  0999 V2000
    7.9130   -0.5700    0.7660 N   0  0  0  0  0  0  0  0  0  0  0  0
    6.9690   -1.4870   -0.3350 S   0  0  1  0  0  0  0  0  0  0  0  0
    7.6200   -1.4030   -1.6800 O   0  0  0  0  0  0  0  0  0  0  0  0
    6.9430   -2.9060    0.1450 O   0  0  0  0  0  0  0  0  0  0  0  0
    5.3620   -0.8090   -0.4590 C   0  0  0  0  0  0  0  0  0  0  0  0
    4.3510   -1.2180    0.3660 C   0  0  0  0  0  0  0  0  0  0  0  0
    3.0660   -0.6610    0.2510 C   0  0  0  0  0  0  0  0  0  0  0  0
    2.7370    0.3010   -0.6610 C   0  0  0  0  0  0  0  0  0  0  0  0
    1.4520    0.9640   -0.7920 C   0  0  0  0  0  0  0  0  0  0  0  0
    1.3280    1.6580   -1.9240 O   0  0  0  0  0  0  0  0  0  0  0  0
    0.3530    1.0060    0.0300 N   0  0  0  0  0  0  0  0  0  0  0  0
   -0.8460    1.7350   -0.4770 C   0  0  0  0  0  0  0  0  0  0  0  0
   -1.9290    0.6760   -0.5250 C   0  0  0  0  0  0  0  0  0  0  0  0
   -2.0960   -0.0860    0.6630 N   0  0  1  0  0  0  0  0  0  0  0  0
   -2.9530   -1.2140    0.3540 C   0  0  0  0  0  0  0  0  0  0  0  0
   -4.3670   -0.7480    0.1610 C   0  0  0  0  0  0  0  0  0  0  0  0
   -5.2150   -0.6980    1.2470 C   0  0  0  0  0  0  0  0  0  0  0  0
   -6.5120   -0.2800    1.1220 C   0  0  0  0  0  0  0  0  0  0  0  0
   -6.9710    0.0960   -0.1190 C   0  0  0  0  0  0  0  0  0  0  0  0
   -8.2570    0.5130   -0.2570 F   0  0  0  0  0  0  0  0  0  0  0  0
   -6.1370    0.0520   -1.2140 C   0  0  0  0  0  0  0  0  0  0  0  0
   -4.8330   -0.3700   -1.0800 C   0  0  0  0  0  0  0  0  0  0  0  0
   -0.8630   -0.6270    1.2100 C   0  0  0  0  0  0  0  0  0  0  0  0
    0.1720    0.4960    1.3340 C   0  0  0  0  0  0  0  0  0  0  0  0
    3.7950    0.7030   -1.4980 C   0  0  0  0  0  0  0  0  0  0  0  0
    5.0510    0.1560   -1.3850 C   0  0  0  0  0  0  0  0  0  0  0  0
  2  1  1  1
  2  3  2  0
  2  4  2  0
  2  5  1  0
  5  6  2  0
  5 26  1  0
  6  7  1  0
  7  8  2  0
  8  9  1  0
  8 25  1  0
  9 10  2  0
  9 11  1  0
 11 12  1  0
 11 24  1  0
 12 13  1  0
 13 14  1  0
 14 15  1  6
 14 23  1  0
 15 16  1  0
 16 17  2  0
 16 22  1  0
 17 18  1  0
 18 19  2  0
 19 20  1  0
 19 21  1  0
 21 22  2  0
 23 24  1  0
 25 26  2  0
M  CHG  1  14   1
M  END
