
     RDKit          3D

 11 11  0  0  0  0  0  0  0  0999 V2000
    2.4570   -1.6440    0.4190 C   0  0  0  0  0  0  0  0  0  0  0  0
    2.3340   -0.4270   -0.0560 C   0  0  0  0  0  0  0  0  0  0  0  0
    3.4840    0.0170   -0.9570 C   0  0  0  0  0  0  0  0  0  0  0  0
    1.2810    0.5590    0.1130 C   0  0  0  0  0  0  0  0  0  0  0  0
    0.1120    0.2120    0.8840 N   0  0  0  0  0  0  0  0  0  0  0  0
   -0.5900    1.4710    1.0790 C   0  0  0  0  0  0  0  0  0  0  0  0
   -1.9680    1.4610    0.4950 C   0  0  0  0  0  0  0  0  0  0  0  0
   -2.6030    0.3740    1.1490 O   0  0  0  0  0  0  0  0  0  0  0  0
   -2.1600   -0.7260    0.4150 C   0  0  1  0  0  0  0  0  0  0  0  0
   -2.9160   -0.6680   -0.9210 C   0  0  0  0  0  0  0  0  0  0  0  0
   -0.6820   -0.7700    0.2090 C   0  0  0  0  0  0  0  0  0  0  0  0
  1  2  2  0
  2  3  1  0
  2  4  1  0
  4  5  1  0
  5  6  1  0
  5 11  1  0
  6  7  1  0
  7  8  1  0
  8  9  1  0
  9 10  1  6
  9 11  1  0
M  END
