
     RDKit          3D

 11 11  0  0  0  0  0  0  0  0999 V2000
    3.2970   -0.2190   -0.5710 C   0  0  0  0  0  0  0  0  0  0  0  0
    2.6850    0.8700    0.2770 C   0  0  0  0  0  0  0  0  0  0  0  0
    1.5230    0.4700    0.9930 N   0  0  0  0  0  0  0  0  0  0  0  0
    0.2740    0.1460    0.4440 C   0  0  0  0  0  0  0  0  0  0  0  0
    0.0230   -1.1330    0.2050 C   0  0  0  0  0  0  0  0  0  0  0  0
   -1.1710   -1.7520   -0.3520 C   0  0  0  0  0  0  0  0  0  0  0  0
   -0.9750   -2.8210   -0.9640 O   0  0  0  0  0  0  0  0  0  0  0  0
   -2.5660   -1.3020   -0.2990 C   0  0  0  0  0  0  0  0  0  0  0  0
   -2.7610    0.1530   -0.6250 C   0  0  0  0  0  0  0  0  0  0  0  0
   -1.5220    0.8890   -1.0080 C   0  0  0  0  0  0  0  0  0  0  0  0
   -0.6530    1.2830    0.1850 C   0  0  0  0  0  0  0  0  0  0  0  0
  1  2  1  0
  2  3  1  0
  3  4  1  0
  4  5  2  0
  4 11  1  0
  5  6  1  0
  6  7  2  0
  6  8  1  0
  8  9  1  0
  9 10  1  0
 10 11  1  0
M  END
