
     RDKit          3D

 11 11  0  0  0  0  0  0  0  0999 V2000
    2.0480   -1.2980   -0.6630 C   0  0  0  0  0  0  0  0  0  0  0  0
    1.9810   -0.4560    0.3390 C   0  0  0  0  0  0  0  0  0  0  0  0
    0.7640    0.2740    0.6500 C   0  0  0  0  0  0  0  0  0  0  0  0
    0.7150    1.1270    1.6740 C   0  0  0  0  0  0  0  0  0  0  0  0
    1.8770    1.3780    2.5430 C   0  0  0  0  0  0  0  0  0  0  0  0
   -0.3910    0.0910   -0.1320 N   0  0  0  0  0  0  0  0  0  0  0  0
   -0.7020    1.0490   -1.1590 C   0  0  0  0  0  0  0  0  0  0  0  0
   -2.0950    0.6870   -1.6690 C   0  0  0  0  0  0  0  0  0  0  0  0
   -1.9760   -0.5990   -2.1910 O   0  0  0  0  0  0  0  0  0  0  0  0
   -1.7760   -1.5680   -1.2230 C   0  0  0  0  0  0  0  0  0  0  0  0
   -1.2560   -1.0350    0.0870 C   0  0  0  0  0  0  0  0  0  0  0  0
  1  2  2  0
  2  3  1  0
  3  4  2  3
  3  6  1  0
  4  5  1  0
  6  7  1  0
  6 11  1  0
  7  8  1  0
  8  9  1  0
  9 10  1  0
 10 11  1  0
M  END
