
     RDKit          3D

 11 12  0  0  0  0  0  0  0  0999 V2000
    3.1020   -0.8870    0.2680 C   0  0  0  0  0  0  0  0  0  0  0  0
    1.8200   -1.1620    0.3360 C   0  0  0  0  0  0  0  0  0  0  0  0
    1.0280    0.0030   -0.0490 C   0  0  0  0  0  0  0  0  0  0  0  0
   -0.4140    0.0710   -0.0930 N   0  0  0  0  0  0  0  0  0  0  0  0
   -1.1290   -1.1580   -0.2420 C   0  0  0  0  0  0  0  0  0  0  0  0
   -2.5590   -1.0980    0.2080 C   0  0  0  0  0  0  0  0  0  0  0  0
   -3.0000    0.1750    0.5040 O   0  0  0  0  0  0  0  0  0  0  0  0
   -2.5230    1.1410   -0.3630 C   0  0  0  0  0  0  0  0  0  0  0  0
   -1.0570    1.3690    0.0150 C   0  0  0  0  0  0  0  0  0  0  0  0
    1.8710    0.9760   -0.3490 C   0  0  0  0  0  0  0  0  0  0  0  0
    3.2670    0.5140   -0.1790 C   0  0  0  0  0  0  0  0  0  0  0  0
  1  2  2  0
  1 11  1  0
  2  3  1  0
  3  4  1  0
  3 10  2  0
  4  5  1  0
  4  9  1  0
  5  6  1  0
  6  7  1  0
  7  8  1  0
  8  9  1  0
 10 11  1  0
M  END
