
     RDKit          3D

 18 19  0  0  0  0  0  0  0  0999 V2000
    4.8260   -0.6100   -0.7450 C   0  0  0  0  0  0  0  0  0  0  0  0
    3.3630   -0.3660   -0.6910 C   0  0  0  0  0  0  0  0  0  0  0  0
    2.6170   -0.3890   -1.8490 C   0  0  0  0  0  0  0  0  0  0  0  0
    1.2530   -0.1550   -1.7420 C   0  0  0  0  0  0  0  0  0  0  0  0
    0.6650    0.0910   -0.5180 C   0  0  0  0  0  0  0  0  0  0  0  0
    1.4420    0.1060    0.6220 C   0  0  0  0  0  0  0  0  0  0  0  0
    2.7990   -0.1230    0.5450 C   0  0  0  0  0  0  0  0  0  0  0  0
    0.9840    0.3490    1.9840 C   0  0  0  0  0  0  0  0  0  0  0  0
    2.1890    0.0890    3.2500 Cl  0  0  0  0  0  0  0  0  0  0  0  0
   -0.2200    0.7380    2.3860 C   0  0  0  0  0  0  0  0  0  0  0  0
   -1.4090    1.0280    1.5740 C   0  0  0  0  0  0  0  0  0  0  0  0
   -1.6550    0.8530    0.2870 C   0  0  0  0  0  0  0  0  0  0  0  0
   -3.0070    1.2700   -0.2210 C   0  0  0  0  0  0  0  0  0  0  0  0
   -3.7110    0.1410   -0.7920 N   0  0  0  0  0  0  0  0  0  0  0  0
   -4.0150   -1.0010   -0.0180 C   0  0  0  0  0  0  0  0  0  0  0  0
   -3.6610   -1.0170    1.1810 O   0  0  0  0  0  0  0  0  0  0  0  0
   -4.6850   -2.1070   -0.5150 O   0  0  0  0  0  0  0  0  0  0  0  0
   -0.7550    0.3030   -0.6640 N   0  0  0  0  0  0  0  0  0  0  0  0
  1  2  1  0
  2  3  2  0
  2  7  1  0
  3  4  1  0
  4  5  2  0
  5  6  1  0
  5 18  1  0
  6  7  2  0
  6  8  1  0
  8  9  1  0
  8 10  2  0
 10 11  1  0
 11 12  2  0
 12 13  1  0
 12 18  1  0
 13 14  1  0
 14 15  1  0
 15 16  2  0
 15 17  1  0
M  END
