
     RDKit          3D

 17 16  0  0  0  0  0  0  0  0999 V2000
   -0.1720    1.1160    1.9050 C   0  0  0  0  0  0  0  0  0  0  0  0
   -0.0060    0.8440    0.4250 C   0  0  2  0  0  0  0  0  0  0  0  0
   -0.7410   -0.4060    0.0200 C   0  0  0  0  0  0  0  0  0  0  0  0
   -2.2270   -0.3120    0.2950 C   0  0  2  0  0  0  0  0  0  0  0  0
   -2.5120   -0.1110    1.6360 O   0  0  0  0  0  0  0  0  0  0  0  0
   -2.8310   -1.5980   -0.2160 C   0  0  0  0  0  0  0  0  0  0  0  0
   -4.2990   -1.6550   -0.0150 C   0  0  0  0  0  0  0  0  0  0  0  0
   -5.0640   -0.6300    0.5860 N   0  0  0  0  0  0  0  0  0  0  0  0
   -4.8530   -2.6700   -0.4060 O   0  0  0  0  0  0  0  0  0  0  0  0
    1.3780    0.6840    0.1800 O   0  0  0  0  0  0  0  0  0  0  0  0
    2.0680    1.5510   -0.6520 C   0  0  0  0  0  0  0  0  0  0  0  0
    1.4080    2.4810   -1.1760 O   0  0  0  0  0  0  0  0  0  0  0  0
    3.4940    1.4570   -0.9590 C   0  0  0  0  0  0  0  0  0  0  0  0
    4.1330    0.3710   -0.3140 O   0  0  0  0  0  0  0  0  0  0  0  0
    5.4860    0.1450   -0.5020 C   0  0  0  0  0  0  0  0  0  0  0  0
    6.1800   -0.9380    0.1260 N   0  0  0  0  0  0  0  0  0  0  0  0
    6.0960    0.9530   -1.2700 O   0  0  0  0  0  0  0  0  0  0  0  0
  2  1  1  1
  2  3  1  0
  2 10  1  0
  3  4  1  0
  4  5  1  1
  4  6  1  0
  6  7  1  0
  7  8  1  0
  7  9  2  0
 10 11  1  0
 11 12  2  0
 11 13  1  0
 13 14  1  0
 14 15  1  0
 15 16  1  0
 15 17  2  0
M  CHG  1   8   1
M  END
