
     RDKit          3D

 18 19  0  0  0  0  0  0  0  0999 V2000
   -1.6830    1.2530    2.2270 C   0  0  0  0  0  0  0  0  0  0  0  0
   -2.2090    0.3100    1.4760 C   0  0  0  0  0  0  0  0  0  0  0  0
   -3.3750   -0.3010    1.8790 O   0  0  0  0  0  0  0  0  0  0  0  0
   -1.5800   -0.0920    0.2360 C   0  0  0  0  0  0  0  0  0  0  0  0
   -2.1350   -1.0500   -0.5060 C   0  0  0  0  0  0  0  0  0  0  0  0
   -1.5250   -1.4970   -1.7880 C   0  0  0  0  0  0  0  0  0  0  0  0
   -2.7160   -1.2080   -3.0970 Cl  0  0  0  0  0  0  0  0  0  0  0  0
   -0.3580    0.5310   -0.2120 N   0  0  0  0  0  0  0  0  0  0  0  0
   -0.4490    1.7110   -1.0360 C   0  0  0  0  0  0  0  0  0  0  0  0
    0.6560    1.7290   -2.0330 C   0  0  0  0  0  0  0  0  0  0  0  0
    0.4720    2.2380   -3.1620 O   0  0  0  0  0  0  0  0  0  0  0  0
    1.8970    1.1530   -1.6410 N   0  0  0  0  0  0  0  0  0  0  0  0
    2.0130    0.2650   -0.5340 C   0  0  0  0  0  0  0  0  0  0  0  0
    3.2390   -0.2820   -0.1750 C   0  0  0  0  0  0  0  0  0  0  0  0
    3.3610   -1.1400    0.8920 C   0  0  0  0  0  0  0  0  0  0  0  0
    2.2110   -1.4340    1.5920 C   0  0  0  0  0  0  0  0  0  0  0  0
    0.9860   -0.9040    1.2540 C   0  0  0  0  0  0  0  0  0  0  0  0
    0.8700   -0.0360    0.1730 C   0  0  0  0  0  0  0  0  0  0  0  0
  1  2  2  0
  2  3  1  0
  2  4  1  0
  4  5  2  3
  4  8  1  0
  5  6  1  0
  6  7  1  0
  8  9  1  0
  8 18  1  0
  9 10  1  0
 10 11  2  0
 10 12  1  0
 12 13  1  0
 13 14  2  0
 13 18  1  0
 14 15  1  0
 15 16  2  0
 16 17  1  0
 17 18  2  0
M  END
