
     RDKit          3D

 18 19  0  0  0  0  0  0  0  0999 V2000
    5.5690    0.3070   -0.9000 C   0  0  0  0  0  0  0  0  0  0  0  0
    5.1520   -0.8940   -0.6660 C   0  0  0  0  0  0  0  0  0  0  0  0
    6.2940   -2.2140   -0.6310 Cl  0  0  0  0  0  0  0  0  0  0  0  0
    3.7300   -1.2020   -0.4250 C   0  0  0  0  0  0  0  0  0  0  0  0
    3.4080   -2.4770   -0.1930 C   0  0  0  0  0  0  0  0  0  0  0  0
    2.8190   -0.1330   -0.4550 N   0  0  0  0  0  0  0  0  0  0  0  0
    1.4260   -0.2340   -0.2480 C   0  0  0  0  0  0  0  0  0  0  0  0
    0.9130   -1.3320   -0.0160 O   0  0  0  0  0  0  0  0  0  0  0  0
    0.5660    0.9000   -0.2950 N   0  0  0  0  0  0  0  0  0  0  0  0
   -0.8300    0.9170   -0.1050 C   0  0  0  0  0  0  0  0  0  0  0  0
   -1.4360    2.1860   -0.2000 C   0  0  0  0  0  0  0  0  0  0  0  0
   -2.7820    2.3770   -0.0420 C   0  0  0  0  0  0  0  0  0  0  0  0
   -3.5520    1.2640    0.2210 C   0  0  0  0  0  0  0  0  0  0  0  0
   -2.9950    0.0140    0.3200 C   0  0  0  0  0  0  0  0  0  0  0  0
   -1.6320   -0.1530    0.1560 C   0  0  0  0  0  0  0  0  0  0  0  0
   -4.1070   -0.9290    0.6060 C   0  0  0  0  0  0  0  0  0  0  0  0
   -5.2010   -0.0220    1.0940 C   0  0  0  0  0  0  0  0  0  0  0  0
   -4.9320    1.1910    0.4210 O   0  0  0  0  0  0  0  0  0  0  0  0
  1  2  2  0
  2  3  1  0
  2  4  1  0
  4  5  2  0
  4  6  1  0
  6  7  1  0
  7  8  2  0
  7  9  1  0
  9 10  1  0
 10 11  2  0
 10 15  1  0
 11 12  1  0
 12 13  2  0
 13 14  1  0
 13 18  1  0
 14 15  2  0
 14 16  1  0
 16 17  1  0
 17 18  1  0
M  END
