
     RDKit          3D

 18 19  0  0  0  0  0  0  0  0999 V2000
   -2.3670    1.7870   -1.0820 C   0  0  0  0  0  0  0  0  0  0  0  0
   -3.0760    0.6170   -0.4910 C   0  0  0  0  0  0  0  0  0  0  0  0
   -4.4100    0.5270   -0.5130 N   0  0  0  0  0  0  0  0  0  0  0  0
   -5.0820   -0.5140    0.0100 C   0  0  0  0  0  0  0  0  0  0  0  0
   -6.8320   -0.6150   -0.0270 Cl  0  0  0  0  0  0  0  0  0  0  0  0
   -4.3970   -1.5440    0.5990 C   0  0  0  0  0  0  0  0  0  0  0  0
   -3.0010   -1.4500    0.6220 C   0  0  0  0  0  0  0  0  0  0  0  0
   -2.2970   -0.4030    0.0970 C   0  0  0  0  0  0  0  0  0  0  0  0
   -0.8850   -0.2670    0.0980 N   0  0  0  0  0  0  0  0  0  0  0  0
    0.0460   -1.1660    0.6290 C   0  0  0  0  0  0  0  0  0  0  0  0
   -0.3880   -2.2320    1.1760 O   0  0  0  0  0  0  0  0  0  0  0  0
    1.5090   -0.9670    0.5990 C   0  0  0  0  0  0  0  0  0  0  0  0
    2.0480    0.0960    0.0590 C   0  0  0  0  0  0  0  0  0  0  0  0
    3.5030    0.2200    0.0690 C   0  0  0  0  0  0  0  0  0  0  0  0
    4.1990    1.2760   -0.4590 C   0  0  0  0  0  0  0  0  0  0  0  0
    5.5400    1.0310   -0.2570 C   0  0  0  0  0  0  0  0  0  0  0  0
    5.5910   -0.1830    0.3940 C   0  0  0  0  0  0  0  0  0  0  0  0
    4.3590   -0.6260    0.5670 O   0  0  0  0  0  0  0  0  0  0  0  0
  1  2  1  0
  2  3  2  0
  2  8  1  0
  3  4  1  0
  4  5  1  0
  4  6  2  0
  6  7  1  0
  7  8  2  0
  8  9  1  0
  9 10  1  0
 10 11  2  0
 10 12  1  0
 12 13  2  3
 13 14  1  0
 14 15  2  0
 14 18  1  0
 15 16  1  0
 16 17  2  0
 17 18  1  0
M  END
