
     RDKit          3D

 18 19  0  0  0  0  0  0  0  0999 V2000
    1.2770    2.8870    0.1630 C   0  0  0  0  0  0  0  0  0  0  0  0
    0.1740    2.4310    0.6210 C   0  0  0  0  0  0  0  0  0  0  0  0
   -0.5350    1.1990    0.3240 C   0  0  0  0  0  0  0  0  0  0  0  0
   -1.8840    1.0680    0.7100 C   0  0  0  0  0  0  0  0  0  0  0  0
   -2.5160    2.2090    1.3790 C   0  0  0  0  0  0  0  0  0  0  0  0
   -2.5920   -0.0880    0.4700 C   0  0  0  0  0  0  0  0  0  0  0  0
   -4.2830   -0.2410    0.9590 Cl  0  0  0  0  0  0  0  0  0  0  0  0
   -2.0210   -1.1710   -0.1580 C   0  0  0  0  0  0  0  0  0  0  0  0
   -0.7120   -1.0570   -0.5380 C   0  0  0  0  0  0  0  0  0  0  0  0
    0.0190    0.1240   -0.2950 C   0  0  0  0  0  0  0  0  0  0  0  0
    1.3800    0.1360   -0.7260 N   0  0  0  0  0  0  0  0  0  0  0  0
    2.3360   -0.2930    0.2670 C   0  0  0  0  0  0  0  0  0  0  0  0
    1.9890   -0.6470    1.4190 O   0  0  0  0  0  0  0  0  0  0  0  0
    3.7810   -0.3210   -0.0680 C   0  0  0  0  0  0  0  0  0  0  0  0
    4.5350   -0.7580    1.0090 O   0  0  0  0  0  0  0  0  0  0  0  0
   -0.3120   -2.3310   -1.1850 C   0  0  0  0  0  0  0  0  0  0  0  0
   -1.6160   -2.9590   -1.5530 C   0  0  0  0  0  0  0  0  0  0  0  0
   -2.5270   -2.4610   -0.5220 N   0  0  0  0  0  0  0  0  0  0  0  0
  1  2  2  0
  2  3  1  0
  3  4  2  0
  3 10  1  0
  4  5  1  0
  4  6  1  0
  6  7  1  0
  6  8  2  0
  8  9  1  0
  8 18  1  0
  9 10  2  0
  9 16  1  0
 10 11  1  0
 11 12  1  0
 12 13  2  0
 12 14  1  0
 14 15  1  0
 16 17  1  0
 17 18  1  0
M  END
