
     RDKit          3D

 25 27  0  0  0  0  0  0  0  0999 V2000
   -4.5890    1.3810   -0.4050 C   0  0  0  0  0  0  0  0  0  0  0  0
   -4.3960   -0.0770    0.0370 C   0  0  2  0  0  0  0  0  0  0  0  0
   -4.7580   -0.0540    1.5380 C   0  0  0  0  0  0  0  0  0  0  0  0
   -6.0370    0.4350    1.8390 N   0  0  0  0  0  0  0  0  0  0  0  0
   -3.9720   -0.4270    2.4130 O   0  0  0  0  0  0  0  0  0  0  0  0
   -2.9810   -0.4210   -0.1330 C   0  0  0  0  0  0  0  0  0  0  0  0
   -1.9380    0.2580    0.5210 C   0  0  0  0  0  0  0  0  0  0  0  0
   -0.6380   -0.1450    0.4390 C   0  0  0  0  0  0  0  0  0  0  0  0
    0.4780    0.3560    1.2670 C   0  0  0  0  0  0  0  0  0  0  0  0
    0.3270    0.5770    2.4870 O   0  0  0  0  0  0  0  0  0  0  0  0
    1.7790    0.5850    0.6580 C   0  0  0  0  0  0  0  0  0  0  0  0
    2.0030    1.2880   -0.4980 C   0  0  0  0  0  0  0  0  0  0  0  0
    3.2450    1.3230   -1.0890 C   0  0  0  0  0  0  0  0  0  0  0  0
    4.3380    0.6270   -0.5290 C   0  0  0  0  0  0  0  0  0  0  0  0
    4.0840   -0.0680    0.6240 C   0  0  0  0  0  0  0  0  0  0  0  0
    2.8520   -0.1080    1.2320 C   0  0  0  0  0  0  0  0  0  0  0  0
    5.1780   -0.8510    1.1610 N   0  0  0  0  0  0  0  0  0  0  0  0
    6.3990   -0.8230    0.4580 C   0  0  0  0  0  0  0  0  0  0  0  0
    7.1580   -1.8000    0.4210 O   0  0  0  0  0  0  0  0  0  0  0  0
    6.7160    0.4550   -0.2620 C   0  0  0  0  0  0  0  0  0  0  0  0
    5.5980    0.6620   -1.1510 O   0  0  0  0  0  0  0  0  0  0  0  0
   -0.3750   -1.2910   -0.3540 C   0  0  0  0  0  0  0  0  0  0  0  0
   -1.3950   -1.9560   -0.9950 C   0  0  0  0  0  0  0  0  0  0  0  0
   -2.6920   -1.5320   -0.8890 C   0  0  0  0  0  0  0  0  0  0  0  0
   -4.0060   -2.3620   -1.8450 S   0  0  0  0  0  0  0  0  0  0  0  0
  2  1  1  1
  2  3  1  0
  2  6  1  0
  3  4  1  0
  3  5  2  0
  6  7  2  0
  6 24  1  0
  7  8  1  0
  8  9  1  0
  8 22  2  0
  9 10  2  0
  9 11  1  0
 11 12  2  0
 11 16  1  0
 12 13  1  0
 13 14  2  0
 14 15  1  0
 14 21  1  0
 15 16  2  0
 15 17  1  0
 17 18  1  0
 18 19  2  0
 18 20  1  0
 20 21  1  0
 22 23  1  0
 23 24  2  0
 24 25  1  0
M  END
