
     RDKit          3D

 20 20  0  0  0  0  0  0  0  0999 V2000
   -2.7040   -4.0930   -2.7160 C   0  0  0  0  0  0  0  0  0  0  0  0
   -2.1820   -3.1330   -1.6390 C   0  0  0  0  0  0  0  0  0  0  0  0
   -1.1860   -2.1940   -2.2190 C   0  0  0  0  0  0  0  0  0  0  0  0
   -0.6250   -1.2160   -1.2140 C   0  0  0  0  0  0  0  0  0  0  0  0
   -1.5990   -0.3030   -0.6570 C   0  0  0  0  0  0  0  0  0  0  0  0
   -2.8060   -0.4350   -1.0780 O   0  0  0  0  0  0  0  0  0  0  0  0
   -1.3810    0.7610    0.3360 C   0  0  0  0  0  0  0  0  0  0  0  0
   -2.7140    1.4760    0.6540 C   0  0  2  0  0  0  0  0  0  0  0  0
   -3.7300    0.5320    1.2080 C   0  0  0  0  0  0  0  0  0  0  0  0
   -3.1740    2.2060   -0.5710 C   0  0  0  0  0  0  0  0  0  0  0  0
   -2.3740    2.4980    1.7170 C   0  0  0  0  0  0  0  0  0  0  0  0
    0.6530   -1.3080   -0.9790 C   0  0  0  0  0  0  0  0  0  0  0  0
    1.3190   -2.3410   -1.7290 O   0  0  0  0  0  0  0  0  0  0  0  0
    1.5510   -0.5720   -0.1060 C   0  0  0  0  0  0  0  0  0  0  0  0
    2.6440    0.0830   -0.9360 C   0  0  0  0  0  0  0  0  0  0  0  0
    3.6240    0.8630   -0.1380 C   0  0  2  0  0  0  0  0  0  0  0  0
    4.3720    0.0840    0.8900 C   0  0  0  0  0  0  0  0  0  0  0  0
    3.9770    0.7410    2.2140 C   0  0  0  0  0  0  0  0  0  0  0  0
    3.9180    2.1960    1.7930 C   0  0  0  0  0  0  0  0  0  0  0  0
    3.0380    2.0800    0.5390 C   0  0  0  0  0  0  0  0  0  0  0  0
  1  2  1  0
  2  3  1  0
  3  4  1  0
  4  5  1  0
  4 12  2  3
  5  6  2  0
  5  7  1  0
  7  8  1  0
  8  9  1  1
  8 10  1  0
  8 11  1  0
 12 13  1  0
 12 14  1  0
 14 15  1  0
 16 15  1  1
 16 17  1  0
 16 20  1  0
 17 18  1  0
 18 19  1  0
 19 20  1  0
M  END
