
     RDKit          3D

 25 27  0  0  0  0  0  0  0  0999 V2000
    8.5400    0.8590    0.6540 C   0  0  0  0  0  0  0  0  0  0  0  0
    8.3510   -0.0010    1.7430 O   0  0  0  0  0  0  0  0  0  0  0  0
    7.9000   -1.2610    1.3460 C   0  0  0  0  0  0  0  0  0  0  0  0
    6.6350   -1.0880    0.6530 C   0  0  0  0  0  0  0  0  0  0  0  0
    6.1310   -1.4510   -0.5290 C   0  0  0  0  0  0  0  0  0  0  0  0
    4.8850   -1.1190   -0.8860 C   0  0  0  0  0  0  0  0  0  0  0  0
    4.1270   -0.4090   -0.0400 C   0  0  0  0  0  0  0  0  0  0  0  0
    2.7760    0.1420   -0.0370 C   0  0  0  0  0  0  0  0  0  0  0  0
    2.3800    0.7890    0.9690 O   0  0  0  0  0  0  0  0  0  0  0  0
    1.8900   -0.0250   -1.1280 N   0  0  0  0  0  0  0  0  0  0  0  0
    0.5900    0.5010   -1.1300 N   0  0  0  0  0  0  0  0  0  0  0  0
   -0.3340    0.2620   -0.0860 C   0  0  0  0  0  0  0  0  0  0  0  0
    0.0640   -0.4570    0.8640 O   0  0  0  0  0  0  0  0  0  0  0  0
   -1.7070    0.8090   -0.0720 C   0  0  1  0  0  0  0  0  0  0  0  0
   -2.5000    0.2140   -1.2330 C   0  0  0  0  0  0  0  0  0  0  0  0
   -3.8690    0.2210   -0.6230 C   0  0  0  0  0  0  0  0  0  0  0  0
   -5.1180    0.1220   -1.2450 C   0  0  0  0  0  0  0  0  0  0  0  0
   -6.2670    0.1540   -0.4920 C   0  0  0  0  0  0  0  0  0  0  0  0
   -7.5690    0.0490   -1.1590 C   0  0  0  0  0  0  0  0  0  0  0  0
   -6.1830    0.2830    0.8780 C   0  0  0  0  0  0  0  0  0  0  0  0
   -7.4480    0.3110    1.6480 C   0  0  0  0  0  0  0  0  0  0  0  0
   -4.9440    0.3790    1.4720 C   0  0  0  0  0  0  0  0  0  0  0  0
   -3.7530    0.3510    0.7340 C   0  0  0  0  0  0  0  0  0  0  0  0
   -2.4260    0.4260    1.0790 O   0  0  0  0  0  0  0  0  0  0  0  0
    5.2830   -0.1830    1.4060 S   0  0  0  0  0  0  0  0  0  0  0  0
  1  2  1  0
  2  3  1  0
  3  4  1  0
  4  5  2  0
  4 25  1  0
  5  6  1  0
  6  7  2  0
  7  8  1  0
  7 25  1  0
  8  9  2  0
  8 10  1  0
 10 11  1  0
 11 12  1  0
 12 13  2  0
 14 12  1  1
 14 15  1  0
 14 24  1  0
 15 16  1  0
 16 17  2  0
 16 23  1  0
 17 18  1  0
 18 19  1  0
 18 20  2  0
 20 21  1  0
 20 22  1  0
 22 23  2  0
 23 24  1  0
M  END
