
     RDKit          3D

 25 27  0  0  0  0  0  0  0  0999 V2000
    6.9260    0.9540    1.3720 C   0  0  0  0  0  0  0  0  0  0  0  0
    5.5180    0.9210    0.8810 C   0  0  0  0  0  0  0  0  0  0  0  0
    4.7030    2.0460    0.8970 C   0  0  0  0  0  0  0  0  0  0  0  0
    3.3940    1.9810    0.4440 C   0  0  0  0  0  0  0  0  0  0  0  0
    2.8590    0.8020   -0.0370 C   0  0  0  0  0  0  0  0  0  0  0  0
    1.4760    0.7310   -0.4340 C   0  0  0  0  0  0  0  0  0  0  0  0
    1.0670    1.5310   -1.3720 O   0  0  0  0  0  0  0  0  0  0  0  0
    0.4840   -0.1140    0.0820 N   0  0  0  0  0  0  0  0  0  0  0  0
   -0.8640   -0.1090   -0.3980 C   0  0  0  0  0  0  0  0  0  0  0  0
   -1.4620    0.7980   -1.7890 S   0  0  0  0  0  0  0  0  0  0  0  0
   -3.1120    0.3170   -1.6870 C   0  0  0  0  0  0  0  0  0  0  0  0
   -4.2140    0.7220   -2.5980 C   0  0  0  0  0  0  0  0  0  0  0  0
   -3.1390   -0.5200   -0.5910 C   0  0  0  0  0  0  0  0  0  0  0  0
   -1.9980   -0.7360    0.0630 C   0  0  0  0  0  0  0  0  0  0  0  0
   -2.0140   -1.5950    1.2930 C   0  0  0  0  0  0  0  0  0  0  0  0
   -0.9490   -1.8190    1.9390 O   0  0  0  0  0  0  0  0  0  0  0  0
   -3.1790   -2.1390    1.7330 O   0  0  0  0  0  0  0  0  0  0  0  0
   -4.3740   -1.4400    1.3820 C   0  0  1  0  0  0  0  0  0  0  0  0
   -4.4770   -0.2130    2.1620 C   0  0  0  0  0  0  0  0  0  0  0  0
   -5.5550    0.7260    1.9720 N   0  0  0  0  0  0  0  0  0  0  0  0
   -3.6260    0.0690    3.0330 O   0  0  0  0  0  0  0  0  0  0  0  0
   -4.4010   -1.2200   -0.1120 C   0  0  0  0  0  0  0  0  0  0  0  0
    3.6590   -0.3420   -0.0650 C   0  0  0  0  0  0  0  0  0  0  0  0
    3.1590   -1.6440   -0.6030 C   0  0  0  0  0  0  0  0  0  0  0  0
    4.9530   -0.2510    0.3910 C   0  0  0  0  0  0  0  0  0  0  0  0
  1  2  1  0
  2  3  2  0
  2 25  1  0
  3  4  1  0
  4  5  2  0
  5  6  1  0
  5 23  1  0
  6  7  2  0
  6  8  1  0
  8  9  1  0
  9 10  1  0
  9 14  2  0
 10 11  1  0
 11 12  1  0
 11 13  2  0
 13 14  1  0
 13 22  1  0
 14 15  1  0
 15 16  2  0
 15 17  1  0
 17 18  1  0
 18 19  1  1
 18 22  1  0
 19 20  1  0
 19 21  2  0
 23 24  1  0
 23 25  2  0
M  END
