
     RDKit          3D

 25 27  0  0  0  0  0  0  0  0999 V2000
   -2.6090   -0.2330   -1.9150 C   0  0  0  0  0  0  0  0  0  0  0  0
   -2.6140    0.8230   -0.8640 C   0  0  2  0  0  0  0  0  0  0  0  0
   -3.7680    1.7770   -1.1870 C   0  0  0  0  0  0  0  0  0  0  0  0
   -1.3800    1.6440   -0.7810 C   0  0  0  0  0  0  0  0  0  0  0  0
   -0.1550    0.8540   -0.4900 C   0  0  0  0  0  0  0  0  0  0  0  0
   -0.1500   -0.3760   -0.3290 O   0  0  0  0  0  0  0  0  0  0  0  0
    1.0490    1.5820   -0.4000 N   0  0  0  0  0  0  0  0  0  0  0  0
    2.3010    0.9970   -0.1310 C   0  0  0  0  0  0  0  0  0  0  0  0
    2.7180   -0.2800    0.1000 C   0  0  0  0  0  0  0  0  0  0  0  0
    4.0220   -0.5110    0.3300 C   0  0  0  0  0  0  0  0  0  0  0  0
    4.5960   -1.7930    0.5850 C   0  0  0  0  0  0  0  0  0  0  0  0
    5.9420   -1.8800    0.8040 C   0  0  0  0  0  0  0  0  0  0  0  0
    6.8140   -0.8350    0.8020 C   0  0  0  0  0  0  0  0  0  0  0  0
    6.2670    0.4320    0.5530 C   0  0  0  0  0  0  0  0  0  0  0  0
    4.9050    0.5050    0.3340 C   0  0  0  0  0  0  0  0  0  0  0  0
    3.8340    1.9490   -0.0190 S   0  0  0  0  0  0  0  0  0  0  0  0
    7.4550    1.0370    0.6570 C   0  0  0  0  0  0  0  0  0  0  0  0
    7.9990   -0.2770    0.9120 C   0  0  0  0  0  0  0  0  0  0  0  0
   -2.9450    0.2070    0.4440 C   0  0  0  0  0  0  0  0  0  0  0  0
   -2.1570    0.2580    1.4190 O   0  0  0  0  0  0  0  0  0  0  0  0
   -4.1600   -0.4550    0.6280 O   0  0  0  0  0  0  0  0  0  0  0  0
   -4.5250   -1.0590    1.8520 C   0  0  0  0  0  0  0  0  0  0  0  0
   -5.8590   -1.6620    1.6970 C   0  0  0  0  0  0  0  0  0  0  0  0
   -6.5820   -1.5940    0.4730 N   0  0  0  0  0  0  0  0  0  0  0  0
   -6.3660   -2.2560    2.6900 O   0  0  0  0  0  0  0  0  0  0  0  0
  2  1  1  6
  2  3  1  0
  2  4  1  0
  2 19  1  0
  4  5  1  0
  5  6  2  0
  5  7  1  0
  7  8  1  0
  8  9  2  0
  8 16  1  0
  9 10  1  0
 10 11  1  0
 10 15  2  0
 11 12  2  0
 12 13  1  0
 13 14  1  0
 13 18  2  0
 14 15  1  0
 14 17  2  0
 15 16  1  0
 17 18  1  0
 19 20  2  0
 19 21  1  0
 21 22  1  0
 22 23  1  0
 23 24  1  0
 23 25  2  0
M  END
