
     RDKit          3D

 25 27  0  0  0  0  0  0  0  0999 V2000
   -5.8320    1.7700    0.6390 C   0  0  0  0  0  0  0  0  0  0  0  0
   -5.7910    0.2660    0.4680 C   0  0  0  0  0  0  0  0  0  0  0  0
   -4.4610   -0.0770   -0.0870 C   0  0  0  0  0  0  0  0  0  0  0  0
   -4.3040   -0.4100   -1.4240 C   0  0  0  0  0  0  0  0  0  0  0  0
   -3.0660   -0.7260   -1.9250 C   0  0  0  0  0  0  0  0  0  0  0  0
   -1.9310   -0.7160   -1.0840 C   0  0  0  0  0  0  0  0  0  0  0  0
   -0.4350   -1.1410   -1.8320 S   0  0  2  0  0  0  0  0  0  0  0  0
   -0.6280   -1.3480   -3.3310 O   0  0  0  0  0  0  0  0  0  0  0  0
    0.1080   -2.4430   -1.2530 O   0  0  0  0  0  0  0  0  0  0  0  0
    0.7200    0.1080   -1.6730 N   0  0  0  0  0  0  0  0  0  0  0  0
    1.9650   -0.0800   -1.0810 C   0  0  0  0  0  0  0  0  0  0  0  0
    2.2330   -0.9290   -0.0680 C   0  0  0  0  0  0  0  0  0  0  0  0
    3.4870   -1.1290    0.4750 C   0  0  0  0  0  0  0  0  0  0  0  0
    4.5540   -0.4100   -0.0510 C   0  0  0  0  0  0  0  0  0  0  0  0
    4.3210    0.4590   -1.0780 C   0  0  0  0  0  0  0  0  0  0  0  0
    3.0350    0.6380   -1.6060 C   0  0  0  0  0  0  0  0  0  0  0  0
    5.6050    1.0610   -1.4180 C   0  0  0  0  0  0  0  0  0  0  0  0
    5.7340    1.9250   -2.3460 O   0  0  0  0  0  0  0  0  0  0  0  0
    6.5600    0.5400   -0.5930 O   0  0  0  0  0  0  0  0  0  0  0  0
    5.9940   -0.3740    0.2750 C   0  0  1  0  0  0  0  0  0  0  0  0
    6.0920    0.1880    1.6860 C   0  0  0  0  0  0  0  0  0  0  0  0
   -2.0690   -0.3950    0.2110 C   0  0  0  0  0  0  0  0  0  0  0  0
   -0.9540   -0.3500    1.1530 C   0  0  0  0  0  0  0  0  0  0  0  0
   -3.3470   -0.0770    0.6960 C   0  0  0  0  0  0  0  0  0  0  0  0
   -3.4870    0.2650    2.0810 N   0  0  0  0  0  0  0  0  0  0  0  0
  1  2  1  0
  2  3  1  0
  3  4  2  0
  3 24  1  0
  4  5  1  0
  5  6  2  0
  6  7  1  0
  6 22  1  0
  7  8  2  0
  7  9  2  0
  7 10  1  6
 10 11  1  0
 11 12  2  0
 11 16  1  0
 12 13  1  0
 13 14  2  0
 14 15  1  0
 14 20  1  0
 15 16  2  0
 15 17  1  0
 17 18  2  0
 17 19  1  0
 19 20  1  0
 20 21  1  1
 22 23  1  0
 22 24  2  0
 24 25  1  0
M  END
