
     RDKit          3D

 25 27  0  0  0  0  0  0  0  0999 V2000
    4.1790    1.1670    2.9930 C   0  0  0  0  0  0  0  0  0  0  0  0
    4.3140    0.4720    1.7150 N   0  0  0  0  0  0  0  0  0  0  0  0
    3.1440    0.2790    0.9110 C   0  0  0  0  0  0  0  0  0  0  0  0
    2.1010    0.7440    1.4160 O   0  0  0  0  0  0  0  0  0  0  0  0
    3.2720   -0.4080   -0.3550 C   0  0  0  0  0  0  0  0  0  0  0  0
    4.5340   -0.7600   -0.8440 C   0  0  0  0  0  0  0  0  0  0  0  0
    4.6730   -1.3530   -2.0940 C   0  0  0  0  0  0  0  0  0  0  0  0
    3.5470   -1.5860   -2.8370 C   0  0  0  0  0  0  0  0  0  0  0  0
    2.2800   -1.2620   -2.4060 C   0  0  0  0  0  0  0  0  0  0  0  0
    2.1570   -0.6640   -1.1420 C   0  0  0  0  0  0  0  0  0  0  0  0
    0.8650   -0.4170   -0.6280 N   0  0  0  0  0  0  0  0  0  0  0  0
   -0.3110   -0.2950   -1.3750 C   0  0  0  0  0  0  0  0  0  0  0  0
   -0.2440   -0.3980   -2.6110 O   0  0  0  0  0  0  0  0  0  0  0  0
   -1.6400   -0.0480   -0.7660 C   0  0  0  0  0  0  0  0  0  0  0  0
   -1.7220    0.0700    0.6110 C   0  0  0  0  0  0  0  0  0  0  0  0
   -2.9470    0.3010    1.2040 C   0  0  0  0  0  0  0  0  0  0  0  0
   -2.9990    0.4230    2.6820 C   0  0  0  0  0  0  0  0  0  0  0  0
   -4.1110    0.4180    0.4170 C   0  0  0  0  0  0  0  0  0  0  0  0
   -4.0470    0.3060   -0.9160 C   0  0  0  0  0  0  0  0  0  0  0  0
   -2.7700    0.0660   -1.5160 C   0  0  0  0  0  0  0  0  0  0  0  0
   -2.7340   -0.0430   -2.8760 O   0  0  0  0  0  0  0  0  0  0  0  0
   -5.2970    0.4380   -1.6450 C   0  0  0  0  0  0  0  0  0  0  0  0
   -5.5320    0.6670   -2.8600 O   0  0  0  0  0  0  0  0  0  0  0  0
   -6.5510    0.1870   -0.3500 S   0  0  0  0  0  0  0  0  0  0  0  0
   -5.4500    0.6700    1.0090 C   0  0  0  0  0  0  0  0  0  0  0  0
  1  2  1  0
  2  3  1  0
  3  4  2  0
  3  5  1  0
  5  6  2  0
  5 10  1  0
  6  7  1  0
  7  8  2  0
  8  9  1  0
  9 10  2  0
 10 11  1  0
 11 12  1  0
 12 13  2  0
 12 14  1  0
 14 15  2  0
 14 20  1  0
 15 16  1  0
 16 17  1  0
 16 18  2  0
 18 19  1  0
 18 25  1  0
 19 20  2  0
 19 22  1  0
 20 21  1  0
 22 23  2  0
 22 24  1  0
 24 25  1  0
M  END
