
     RDKit          3D

 25 27  0  0  0  0  0  0  0  0999 V2000
   -5.2160    0.1300    2.1320 C   0  0  0  0  0  0  0  0  0  0  0  0
   -4.1470   -0.3230    1.1500 C   0  0  2  0  0  0  0  0  0  0  0  0
   -4.2610   -1.8260    1.0320 C   0  0  0  0  0  0  0  0  0  0  0  0
   -2.8140    0.0320    1.7310 C   0  0  0  0  0  0  0  0  0  0  0  0
   -1.8950    0.6030    0.6780 C   0  0  0  0  0  0  0  0  0  0  0  0
   -0.9200    1.3260    1.0550 O   0  0  0  0  0  0  0  0  0  0  0  0
   -2.0910    0.3540   -0.7130 C   0  0  0  0  0  0  0  0  0  0  0  0
   -3.3320    0.2170   -1.1540 C   0  0  0  0  0  0  0  0  0  0  0  0
   -4.4280    0.3330   -0.1660 C   0  0  0  0  0  0  0  0  0  0  0  0
   -3.6690   -0.0240   -2.4560 O   0  0  0  0  0  0  0  0  0  0  0  0
   -2.9660    0.3460   -3.5820 C   0  0  0  0  0  0  0  0  0  0  0  0
   -1.4170    1.1660   -3.1280 S   0  0  0  0  0  0  0  0  0  0  0  0
   -0.9480    0.2550   -1.6100 C   0  0  1  0  0  0  0  0  0  0  0  0
    0.3130    0.6470   -1.1060 N   0  0  0  0  0  0  0  0  0  0  0  0
    1.4440   -0.2080   -1.0050 C   0  0  0  0  0  0  0  0  0  0  0  0
    1.2670   -1.3970   -1.4050 O   0  0  0  0  0  0  0  0  0  0  0  0
    2.7330    0.2470   -0.4740 C   0  0  0  0  0  0  0  0  0  0  0  0
    2.8120    1.4340   -0.1040 O   0  0  0  0  0  0  0  0  0  0  0  0
    3.8650   -0.5940   -0.3680 N   0  0  0  0  0  0  0  0  0  0  0  0
    5.1290   -0.3190    0.1030 C   0  0  0  0  0  0  0  0  0  0  0  0
    5.5080    0.8930    0.5940 C   0  0  0  0  0  0  0  0  0  0  0  0
    6.8010    1.1390    1.0640 C   0  0  0  0  0  0  0  0  0  0  0  0
    7.7230    0.1450    1.0370 C   0  0  0  0  0  0  0  0  0  0  0  0
    7.3670   -1.0950    0.5450 C   0  0  0  0  0  0  0  0  0  0  0  0
    6.0880   -1.3080    0.0890 C   0  0  0  0  0  0  0  0  0  0  0  0
  2  1  1  1
  2  3  1  0
  2  4  1  0
  2  9  1  0
  4  5  1  0
  5  6  2  0
  5  7  1  0
  7  8  2  0
  7 13  1  0
  8  9  1  0
  8 10  1  0
 10 11  1  0
 11 12  1  0
 12 13  1  0
 13 14  1  1
 14 15  1  0
 15 16  2  0
 15 17  1  0
 17 18  2  0
 17 19  1  0
 19 20  1  0
 20 21  2  0
 20 25  1  0
 21 22  1  0
 22 23  2  0
 23 24  1  0
 24 25  2  0
M  END
