
     RDKit          3D

 25 27  0  0  0  0  0  0  0  0999 V2000
   -5.1960    2.0930    1.5430 C   0  0  0  0  0  0  0  0  0  0  0  0
   -4.3650    2.2230    0.2870 C   0  0  0  0  0  0  0  0  0  0  0  0
   -3.5060    1.0310    0.1650 C   0  0  0  0  0  0  0  0  0  0  0  0
   -2.1610    1.1200    0.4650 C   0  0  0  0  0  0  0  0  0  0  0  0
   -1.3730    0.0060    0.3440 C   0  0  0  0  0  0  0  0  0  0  0  0
    0.1000    0.0270    0.6500 C   0  0  0  0  0  0  0  0  0  0  0  0
    0.7810    0.3910   -0.6350 C   0  0  0  0  0  0  0  0  0  0  0  0
    2.2040    0.4620   -0.5720 N   0  0  0  0  0  0  0  0  0  0  0  0
    3.0040   -0.6670   -0.2130 C   0  0  0  0  0  0  0  0  0  0  0  0
    2.4580   -1.7540    0.0590 O   0  0  0  0  0  0  0  0  0  0  0  0
    4.4700   -0.5070   -0.1750 C   0  0  0  0  0  0  0  0  0  0  0  0
    5.4080   -1.4800    0.1240 C   0  0  0  0  0  0  0  0  0  0  0  0
    6.6740   -0.8820    0.0380 C   0  0  0  0  0  0  0  0  0  0  0  0
    6.4450    0.3890   -0.2990 C   0  0  0  0  0  0  0  0  0  0  0  0
    5.1270    0.5740   -0.4160 O   0  0  0  0  0  0  0  0  0  0  0  0
    7.6010    1.2480   -0.4570 C   0  0  0  0  0  0  0  0  0  0  0  0
    7.6940    2.4880   -0.6250 O   0  0  0  0  0  0  0  0  0  0  0  0
    8.9980    0.1210   -0.3590 S   0  0  0  0  0  0  0  0  0  0  0  0
    8.0510   -1.2860    0.2130 C   0  0  0  0  0  0  0  0  0  0  0  0
    8.5060   -2.3600    0.6580 O   0  0  0  0  0  0  0  0  0  0  0  0
   -1.9040   -1.2110   -0.0750 C   0  0  0  0  0  0  0  0  0  0  0  0
   -3.2440   -1.2590   -0.3630 C   0  0  0  0  0  0  0  0  0  0  0  0
   -3.8400   -2.5550   -0.8160 C   0  0  0  0  0  0  0  0  0  0  0  0
   -4.0730   -0.1540   -0.2530 C   0  0  0  0  0  0  0  0  0  0  0  0
   -5.4380   -0.3040   -0.5740 N   0  0  0  0  0  0  0  0  0  0  0  0
  1  2  1  0
  2  3  1  0
  3  4  2  0
  3 24  1  0
  4  5  1  0
  5  6  1  0
  5 21  2  0
  6  7  1  0
  7  8  1  0
  8  9  1  0
  9 10  2  0
  9 11  1  0
 11 12  2  0
 11 15  1  0
 12 13  1  0
 13 14  2  0
 13 19  1  0
 14 15  1  0
 14 16  1  0
 16 17  2  0
 16 18  1  0
 18 19  1  0
 19 20  2  0
 21 22  1  0
 22 23  1  0
 22 24  2  0
 24 25  1  0
M  END
