
     RDKit          3D

 11 12  0  0  0  0  0  0  0  0999 V2000
    3.0410    0.9090   -0.0360 C   0  0  0  0  0  0  0  0  0  0  0  0
    1.7530    1.1400   -0.0680 C   0  0  0  0  0  0  0  0  0  0  0  0
    0.9920   -0.1010   -0.1490 C   0  0  0  0  0  0  0  0  0  0  0  0
   -0.4260   -0.2330   -0.2010 N   0  0  0  0  0  0  0  0  0  0  0  0
   -1.2400    0.5700   -1.0710 C   0  0  0  0  0  0  0  0  0  0  0  0
   -2.5930    0.8860   -0.5370 C   0  0  0  0  0  0  0  0  0  0  0  0
   -3.1030   -0.0270    0.3460 O   0  0  0  0  0  0  0  0  0  0  0  0
   -2.2260   -0.4090    1.3440 C   0  0  0  0  0  0  0  0  0  0  0  0
   -1.1230   -1.2120    0.6460 C   0  0  0  0  0  0  0  0  0  0  0  0
    1.8800   -1.0910   -0.1630 C   0  0  0  0  0  0  0  0  0  0  0  0
    3.2580   -0.5580   -0.0940 C   0  0  0  0  0  0  0  0  0  0  0  0
  1  2  2  0
  1 11  1  0
  2  3  1  0
  3  4  1  0
  3 10  2  0
  4  5  1  0
  4  9  1  0
  5  6  1  0
  6  7  1  0
  7  8  1  0
  8  9  1  0
 10 11  1  0
M  END
