
     RDKit          3D

 11 11  0  0  0  0  0  0  0  0999 V2000
    1.4550    1.2940    1.2170 C   0  0  0  0  0  0  0  0  0  0  0  0
    1.8630    0.2560    0.5300 C   0  0  0  0  0  0  0  0  0  0  0  0
    3.2990   -0.0800    0.5200 C   0  0  0  0  0  0  0  0  0  0  0  0
    0.9190   -0.5430   -0.2030 C   0  0  0  0  0  0  0  0  0  0  0  0
    1.3550   -1.5800   -0.8850 C   0  0  0  0  0  0  0  0  0  0  0  0
   -0.4750   -0.2770   -0.2370 N   0  0  0  0  0  0  0  0  0  0  0  0
   -0.9570    0.7080   -1.1600 C   0  0  0  0  0  0  0  0  0  0  0  0
   -2.2860    1.2610   -0.7150 C   0  0  0  0  0  0  0  0  0  0  0  0
   -3.1500    0.2490   -0.3350 O   0  0  0  0  0  0  0  0  0  0  0  0
   -2.7180   -0.4630    0.7590 C   0  0  0  0  0  0  0  0  0  0  0  0
   -1.3290   -0.9980    0.6450 C   0  0  0  0  0  0  0  0  0  0  0  0
  1  2  2  0
  2  3  1  0
  2  4  1  0
  4  5  2  0
  4  6  1  0
  6  7  1  0
  6 11  1  0
  7  8  1  0
  8  9  1  0
  9 10  1  0
 10 11  1  0
M  END
