
     RDKit          3D

 11 11  0  0  0  0  0  0  0  0999 V2000
   -2.6470   -0.5300    0.1160 C   0  0  0  0  0  0  0  0  0  0  0  0
   -1.6380   -1.3890    0.1820 C   0  0  0  0  0  0  0  0  0  0  0  0
   -0.2520   -1.0100    0.0670 C   0  0  0  0  0  0  0  0  0  0  0  0
    0.6610   -1.9620    0.1500 C   0  0  0  0  0  0  0  0  0  0  0  0
    0.2890   -3.3790    0.3550 C   0  0  0  0  0  0  0  0  0  0  0  0
    0.1480    0.3650   -0.1330 N   0  0  0  0  0  0  0  0  0  0  0  0
    0.0640    1.0210   -1.4060 C   0  0  0  0  0  0  0  0  0  0  0  0
    0.3230    2.4920   -1.1890 C   0  0  0  0  0  0  0  0  0  0  0  0
    1.5100    2.7480   -0.5420 O   0  0  0  0  0  0  0  0  0  0  0  0
    1.6410    2.1480    0.6840 C   0  0  0  0  0  0  0  0  0  0  0  0
    0.6450    1.0850    0.9960 C   0  0  0  0  0  0  0  0  0  0  0  0
  1  2  2  0
  2  3  1  0
  3  4  2  3
  3  6  1  0
  4  5  1  0
  6  7  1  0
  6 11  1  0
  7  8  1  0
  8  9  1  0
  9 10  1  0
 10 11  1  0
M  END
