
     RDKit          3D

 26 28  0  0  0  0  0  0  0  0999 V2000
    7.1580    0.2400    2.0450 N   0  0  0  0  0  0  0  0  0  0  0  0
    6.8480   -0.9270    0.7970 S   0  0  2  0  0  0  0  0  0  0  0  0
    6.7550   -2.3040    1.4160 O   0  0  0  0  0  0  0  0  0  0  0  0
    7.9770   -0.8640   -0.1790 O   0  0  0  0  0  0  0  0  0  0  0  0
    5.3380   -0.4890    0.0470 C   0  0  0  0  0  0  0  0  0  0  0  0
    4.1600   -0.9970    0.5400 C   0  0  0  0  0  0  0  0  0  0  0  0
    2.9150   -0.6620   -0.0440 C   0  0  0  0  0  0  0  0  0  0  0  0
    2.8510    0.1720   -1.1130 C   0  0  0  0  0  0  0  0  0  0  0  0
    1.6390    0.5470   -1.7670 C   0  0  0  0  0  0  0  0  0  0  0  0
    1.7270    1.4160   -2.7570 O   0  0  0  0  0  0  0  0  0  0  0  0
    0.3450    0.1360   -1.5270 N   0  0  0  0  0  0  0  0  0  0  0  0
   -0.1430   -0.7970   -0.5610 C   0  0  0  0  0  0  0  0  0  0  0  0
   -1.6340   -1.0600   -0.8610 C   0  0  0  0  0  0  0  0  0  0  0  0
   -2.4400    0.1100   -0.7150 N   0  0  1  0  0  0  0  0  0  0  0  0
   -2.6480    0.4730    0.6530 C   0  0  0  0  0  0  0  0  0  0  0  0
   -4.0510    0.2480    1.0990 C   0  0  0  0  0  0  0  0  0  0  0  0
   -4.4410   -0.9590    1.6390 C   0  0  0  0  0  0  0  0  0  0  0  0
   -5.7460   -1.1590    2.0510 C   0  0  0  0  0  0  0  0  0  0  0  0
   -6.6900   -0.1500    1.9300 C   0  0  0  0  0  0  0  0  0  0  0  0
   -7.9460   -0.4140    2.3520 F   0  0  0  0  0  0  0  0  0  0  0  0
   -6.3110    1.0620    1.3910 C   0  0  0  0  0  0  0  0  0  0  0  0
   -5.0080    1.2320    0.9900 C   0  0  0  0  0  0  0  0  0  0  0  0
   -1.7700    1.2380   -1.3800 C   0  0  0  0  0  0  0  0  0  0  0  0
   -0.7490    0.7260   -2.3660 C   0  0  0  0  0  0  0  0  0  0  0  0
    4.0590    0.6960   -1.6220 C   0  0  0  0  0  0  0  0  0  0  0  0
    5.2400    0.3480   -1.0270 C   0  0  0  0  0  0  0  0  0  0  0  0
  2  1  1  1
  2  3  2  0
  2  4  2  0
  2  5  1  0
  5  6  2  0
  5 26  1  0
  6  7  1  0
  7  8  2  0
  8  9  1  0
  8 25  1  0
  9 10  2  0
  9 11  1  0
 11 12  1  0
 11 24  1  0
 12 13  1  0
 13 14  1  0
 14 15  1  1
 14 23  1  0
 15 16  1  0
 16 17  2  0
 16 22  1  0
 17 18  1  0
 18 19  2  0
 19 20  1  0
 19 21  1  0
 21 22  2  0
 23 24  1  0
 25 26  2  0
M  CHG  1  14   1
M  END
