
     RDKit          3D

 11 12  0  0  0  0  0  0  0  0999 V2000
    4.3850    0.0110    0.5040 C   0  0  0  0  0  0  0  0  0  0  0  0
    3.2720    0.7140    0.5630 C   0  0  0  0  0  0  0  0  0  0  0  0
    2.4450   -0.4630    0.3020 C   0  0  0  0  0  0  0  0  0  0  0  0
    1.0690   -0.7900    0.1600 N   0  0  0  0  0  0  0  0  0  0  0  0
    0.2340    0.1530   -0.5530 C   0  0  0  0  0  0  0  0  0  0  0  0
   -1.2020   -0.3160   -0.6310 C   0  0  1  0  0  0  0  0  0  0  0  0
   -1.8120   -0.4620    0.7520 C   0  0  0  0  0  0  0  0  0  0  0  0
   -3.2050    0.1210    0.4810 C   0  0  0  0  0  0  0  0  0  0  0  0
   -2.8040    1.2380   -0.4630 C   0  0  0  0  0  0  0  0  0  0  0  0
   -1.9300    0.6160   -1.3140 O   0  0  0  0  0  0  0  0  0  0  0  0
    3.5770   -1.1780    0.2420 C   0  0  0  0  0  0  0  0  0  0  0  0
  1  2  2  0
  1 11  1  0
  2  3  1  0
  3  4  1  0
  3 11  2  0
  4  5  1  0
  6  5  1  1
  6  7  1  0
  6 10  1  0
  7  8  1  0
  8  9  1  0
  9 10  1  0
M  END
