
     RDKit          3D

 22 24  0  0  0  0  0  0  0  0999 V2000
    6.6420    1.0710   -0.7520 O   0  0  0  0  0  0  0  0  0  0  0  0
    6.6560    0.2490    0.1880 C   0  0  0  0  0  0  0  0  0  0  0  0
    5.4510   -0.3570    0.6040 N   0  0  0  0  0  0  0  0  0  0  0  0
    4.1710   -0.1470    0.0660 C   0  0  0  0  0  0  0  0  0  0  0  0
    3.8910    0.5460   -1.0900 C   0  0  0  0  0  0  0  0  0  0  0  0
    2.5590    0.6980   -1.5120 C   0  0  0  0  0  0  0  0  0  0  0  0
    1.5040    0.1810   -0.8180 C   0  0  0  0  0  0  0  0  0  0  0  0
    0.2260    0.3570   -1.2710 C   0  0  0  0  0  0  0  0  0  0  0  0
   -0.1100    1.0370   -2.4140 O   0  0  0  0  0  0  0  0  0  0  0  0
   -0.8560   -0.1910   -0.5300 C   0  0  0  0  0  0  0  0  0  0  0  0
   -2.0860   -0.0510   -0.9220 O   0  0  0  0  0  0  0  0  0  0  0  0
   -3.3050    0.0880   -1.3100 C   0  0  0  0  0  0  0  0  0  0  0  0
   -4.4300    0.2580   -0.3330 C   0  0  0  0  0  0  0  0  0  0  0  0
   -4.3650    0.2970    0.9460 C   0  0  0  0  0  0  0  0  0  0  0  0
   -5.9270    0.5150    1.7850 S   0  0  0  0  0  0  0  0  0  0  0  0
   -7.0990   -0.0500    0.5250 C   0  0  0  0  0  0  0  0  0  0  0  0
   -6.1230    0.4290   -0.9600 S   0  0  0  0  0  0  0  0  0  0  0  0
   -0.4620   -0.8750    0.6250 C   0  0  0  0  0  0  0  0  0  0  0  0
   -1.3480   -1.4010    1.3500 O   0  0  0  0  0  0  0  0  0  0  0  0
    0.7920   -1.0230    1.0300 N   0  0  0  0  0  0  0  0  0  0  0  0
    1.7950   -0.5100    0.3350 C   0  0  0  0  0  0  0  0  0  0  0  0
    3.0840   -0.6770    0.7760 C   0  0  0  0  0  0  0  0  0  0  0  0
  1  2  2  0
  2  3  1  0
  3  4  1  0
  4  5  2  0
  4 22  1  0
  5  6  1  0
  6  7  2  0
  7  8  1  0
  7 21  1  0
  8  9  1  0
  8 10  2  0
 10 11  1  0
 10 18  1  0
 11 12  1  0
 12 13  1  0
 13 14  2  0
 13 17  1  0
 14 15  1  0
 15 16  1  0
 16 17  1  0
 18 19  2  0
 18 20  1  0
 20 21  1  0
 21 22  2  0
M  END
