
     RDKit          3D

 22 23  0  0  0  0  0  0  0  0999 V2000
    5.7140    2.9800   -0.9490 C   0  0  0  0  0  0  0  0  0  0  0  0
    4.7020    2.2080   -0.5060 C   0  0  0  0  0  0  0  0  0  0  0  0
    3.4750    2.3910   -1.0650 O   0  0  0  0  0  0  0  0  0  0  0  0
    4.9780    1.2480    0.5160 C   0  0  0  0  0  0  0  0  0  0  0  0
    4.0870    0.4480    1.0270 C   0  0  0  0  0  0  0  0  0  0  0  0
    4.4770   -0.7840    2.3460 S   0  0  0  0  0  0  0  0  0  0  0  0
    3.1860   -1.9330    1.7680 C   0  0  0  0  0  0  0  0  0  0  0  0
    3.2410   -3.1640    1.8620 O   0  0  0  0  0  0  0  0  0  0  0  0
    2.2110   -1.0540    1.2370 N   0  0  0  0  0  0  0  0  0  0  0  0
    0.8020   -1.4800    1.1180 C   0  0  0  0  0  0  0  0  0  0  0  0
    0.5180   -2.2620   -0.4920 S   0  0  0  0  0  0  0  0  0  0  0  0
   -1.1750   -2.8190   -0.6800 C   0  0  0  0  0  0  0  0  0  0  0  0
   -2.1700   -1.7060   -0.7280 C   0  0  0  0  0  0  0  0  0  0  0  0
   -2.1130   -0.7490   -1.7400 O   0  0  0  0  0  0  0  0  0  0  0  0
   -3.0990   -1.5960    0.1500 N   0  0  0  0  0  0  0  0  0  0  0  0
   -4.0280   -0.5270    0.0760 C   0  0  0  0  0  0  0  0  0  0  0  0
   -5.3360   -0.6030    0.2430 C   0  0  0  0  0  0  0  0  0  0  0  0
   -5.8790    0.7560    0.0740 C   0  0  0  0  0  0  0  0  0  0  0  0
   -4.7190    1.6280   -0.2120 C   0  0  0  0  0  0  0  0  0  0  0  0
   -3.6520    0.8530   -0.2040 C   0  0  0  0  0  0  0  0  0  0  0  0
    2.6760    0.2040    0.8450 C   0  0  0  0  0  0  0  0  0  0  0  0
    1.9020    1.1110    0.3480 O   0  0  0  0  0  0  0  0  0  0  0  0
  1  2  2  0
  2  3  1  0
  2  4  1  0
  4  5  2  3
  5  6  1  0
  5 21  1  0
  6  7  1  0
  7  8  2  0
  7  9  1  0
  9 10  1  0
  9 21  1  0
 10 11  1  0
 11 12  1  0
 12 13  1  0
 13 14  1  0
 13 15  2  3
 15 16  1  0
 16 17  2  0
 16 20  1  0
 17 18  1  0
 18 19  1  0
 19 20  2  0
 21 22  2  0
M  END
