
     RDKit          3D

 27 29  0  0  0  0  0  0  0  0999 V2000
    2.0080    1.2840   -0.1350 O   0  0  0  0  0  0  0  0  0  0  0  0
    1.7120    0.1960    0.4160 C   0  0  0  0  0  0  0  0  0  0  0  0
    0.4480   -0.3670   -0.0110 N   0  0  0  0  0  0  0  0  0  0  0  0
   -0.3770    0.2860   -0.9860 C   0  0  1  0  0  0  0  0  0  0  0  0
   -0.5500   -0.5410   -2.2370 C   0  0  0  0  0  0  0  0  0  0  0  0
   -0.6680   -2.0120   -1.9350 C   0  0  0  0  0  0  0  0  0  0  0  0
   -1.9690   -2.3530   -0.7650 S   0  0  0  0  0  0  0  0  0  0  0  0
   -3.3450   -1.1830   -0.8610 C   0  0  1  0  0  0  0  0  0  0  0  0
   -4.3750   -1.6810    0.1610 C   0  0  0  0  0  0  0  0  0  0  0  0
   -5.5590   -0.7860    0.2600 C   0  0  0  0  0  0  0  0  0  0  0  0
   -5.3770    0.5140   -0.4570 C   0  0  0  0  0  0  0  0  0  0  0  0
   -4.0160    1.0670   -0.0650 C   0  0  1  0  0  0  0  0  0  0  0  0
   -4.0090    1.3230    1.3910 C   0  0  0  0  0  0  0  0  0  0  0  0
   -3.1860    0.7940    2.1640 O   0  0  0  0  0  0  0  0  0  0  0  0
   -4.9470    2.1790    1.9180 O   0  0  0  0  0  0  0  0  0  0  0  0
   -2.9730    0.1490   -0.4620 N   0  0  0  0  0  0  0  0  0  0  0  0
   -1.6810    0.6960   -0.4050 C   0  0  0  0  0  0  0  0  0  0  0  0
   -1.6030    1.7520    0.2760 O   0  0  0  0  0  0  0  0  0  0  0  0
    2.5310   -0.5040    1.4200 C   0  0  1  0  0  0  0  0  0  0  0  0
    3.0460   -2.1480    0.8340 S   0  0  0  0  0  0  0  0  0  0  0  0
    3.7290    0.2000    1.9170 C   0  0  0  0  0  0  0  0  0  0  0  0
    4.7520    0.5620    0.9290 C   0  0  0  0  0  0  0  0  0  0  0  0
    5.6860   -0.3800    0.5360 C   0  0  0  0  0  0  0  0  0  0  0  0
    6.6570   -0.0300   -0.3690 C   0  0  0  0  0  0  0  0  0  0  0  0
    6.7340    1.2330   -0.9020 C   0  0  0  0  0  0  0  0  0  0  0  0
    5.8150    2.1810   -0.5220 C   0  0  0  0  0  0  0  0  0  0  0  0
    4.8450    1.8230    0.3850 C   0  0  0  0  0  0  0  0  0  0  0  0
  1  2  2  0
  2  3  1  0
  2 19  1  0
  4  3  1  1
  4  5  1  0
  4 17  1  0
  5  6  1  0
  6  7  1  0
  7  8  1  0
  8  9  1  1
  8 16  1  0
  9 10  1  0
 10 11  1  0
 11 12  1  0
 12 13  1  1
 12 16  1  0
 13 14  2  0
 13 15  1  0
 16 17  1  0
 17 18  2  0
 19 20  1  6
 19 21  1  0
 21 22  1  0
 22 23  2  0
 22 27  1  0
 23 24  1  0
 24 25  2  0
 25 26  1  0
 26 27  2  0
M  END
