
     RDKit          3D

 22 23  0  0  0  0  0  0  0  0999 V2000
   -5.9250    0.3530   -2.9570 C   0  0  0  0  0  0  0  0  0  0  0  0
   -5.2890   -0.4800   -2.1700 C   0  0  0  0  0  0  0  0  0  0  0  0
   -4.9980   -0.0820   -0.7460 C   0  0  0  0  0  0  0  0  0  0  0  0
   -3.5700   -0.1200   -0.6260 O   0  0  0  0  0  0  0  0  0  0  0  0
   -3.0660    0.2180    0.6280 C   0  0  0  0  0  0  0  0  0  0  0  0
   -3.7850    0.5320    1.5820 O   0  0  0  0  0  0  0  0  0  0  0  0
   -1.5640    0.1960    0.8130 C   0  0  0  0  0  0  0  0  0  0  0  0
   -0.4060   -0.2290   -0.4490 S   0  0  0  0  0  0  0  0  0  0  0  0
    1.0630    0.0130    0.6470 C   0  0  0  0  0  0  0  0  0  0  0  0
    2.4070   -0.1800    0.2180 C   0  0  0  0  0  0  0  0  0  0  0  0
    3.3080    0.0210    1.0680 O   0  0  0  0  0  0  0  0  0  0  0  0
    2.7970   -0.5520   -0.9940 O   0  0  0  0  0  0  0  0  0  0  0  0
    3.8520   -0.8200   -1.7350 C   0  0  0  0  0  0  0  0  0  0  0  0
    3.5300   -1.1890   -3.0680 C   0  0  0  0  0  0  0  0  0  0  0  0
    5.2480   -0.8090   -1.4430 C   0  0  0  0  0  0  0  0  0  0  0  0
    5.9110   -0.5390   -0.3910 C   0  0  0  0  0  0  0  0  0  0  0  0
    0.4650    0.4040    1.8890 C   0  0  0  0  0  0  0  0  0  0  0  0
    1.0350    0.7150    3.0630 N   0  0  0  0  0  0  0  0  0  0  0  0
    0.5730    1.0280    4.0600 C   0  0  0  0  0  0  0  0  0  0  0  0
    0.9640    1.3910    5.3800 N   0  0  0  0  0  0  0  0  0  0  0  0
   -1.2450    0.9800    3.5760 S   0  0  0  0  0  0  0  0  0  0  0  0
   -0.8030    0.4490    1.8230 C   0  0  0  0  0  0  0  0  0  0  0  0
  1  2  2  0
  2  3  1  0
  3  4  1  0
  4  5  1  0
  5  6  2  0
  5  7  1  0
  7  8  1  0
  7 22  2  0
  8  9  1  0
  9 10  1  0
  9 17  2  0
 10 11  2  0
 10 12  1  0
 12 13  1  0
 13 14  2  0
 13 15  1  0
 15 16  2  0
 17 18  1  0
 17 22  1  0
 18 19  2  0
 19 20  1  0
 19 21  1  0
 21 22  1  0
M  END
