
     RDKit          3D

 22 24  0  0  0  0  0  0  0  0999 V2000
    7.6170    0.2710    0.4840 C   0  0  0  0  0  0  0  0  0  0  0  0
    7.0350   -0.2590   -0.5810 C   0  0  0  0  0  0  0  0  0  0  0  0
    5.5680   -0.3700   -0.6580 C   0  0  0  0  0  0  0  0  0  0  0  0
    4.7850    0.2920    0.8350 S   0  0  0  0  0  0  0  0  0  0  0  0
    3.0230    0.1200    0.6610 C   0  0  0  0  0  0  0  0  0  0  0  0
    2.1110    0.6790    0.2660 N   0  0  0  0  0  0  0  0  0  0  0  0
    0.8370    0.3660    0.2300 C   0  0  0  0  0  0  0  0  0  0  0  0
   -0.2460    1.0820   -0.2640 C   0  0  0  0  0  0  0  0  0  0  0  0
   -1.5100    0.5380   -0.1900 C   0  0  0  0  0  0  0  0  0  0  0  0
   -1.7910   -0.6880    0.3460 C   0  0  0  0  0  0  0  0  0  0  0  0
   -0.7230   -1.4090    0.8390 C   0  0  0  0  0  0  0  0  0  0  0  0
    0.5430   -0.8740    0.7700 C   0  0  0  0  0  0  0  0  0  0  0  0
    2.1520   -1.4740    1.2850 S   0  0  0  0  0  0  0  0  0  0  0  0
   -2.9780   -1.3760    0.4980 O   0  0  0  0  0  0  0  0  0  0  0  0
   -4.2960   -0.9730    0.2080 C   0  0  0  0  0  0  0  0  0  0  0  0
   -4.6880    0.1960   -0.2550 C   0  0  0  0  0  0  0  0  0  0  0  0
   -6.1160    0.3180   -0.4570 C   0  0  0  0  0  0  0  0  0  0  0  0
   -6.9710   -0.7700   -0.1620 N   0  0  0  0  0  0  0  0  0  0  0  0
   -6.6040    1.3850   -0.8930 O   0  0  0  0  0  0  0  0  0  0  0  0
   -3.8590    1.3520   -0.5760 C   0  0  0  0  0  0  0  0  0  0  0  0
   -4.4940    2.4410   -0.7260 O   0  0  0  0  0  0  0  0  0  0  0  0
   -2.4810    1.3970   -0.7350 O   0  0  0  0  0  0  0  0  0  0  0  0
  1  2  2  0
  2  3  1  0
  3  4  1  0
  4  5  1  0
  5  6  2  0
  5 13  1  0
  6  7  1  0
  7  8  2  0
  7 12  1  0
  8  9  1  0
  9 10  2  0
  9 22  1  0
 10 11  1  0
 10 14  1  0
 11 12  2  0
 12 13  1  0
 14 15  1  0
 15 16  2  0
 16 17  1  0
 16 20  1  0
 17 18  1  0
 17 19  2  0
 20 21  2  0
 20 22  1  0
M  END
