
     RDKit          3D

 22 23  0  0  0  0  0  0  0  0999 V2000
   -5.2400    0.7030   -2.0250 C   0  0  0  0  0  0  0  0  0  0  0  0
   -5.9580    1.0830   -0.8920 O   0  0  0  0  0  0  0  0  0  0  0  0
   -5.1520    1.1100    0.2430 C   0  0  0  0  0  0  0  0  0  0  0  0
   -4.5780   -0.2910    0.4670 C   0  0  0  0  0  0  0  0  0  0  0  0
   -5.5030   -1.2390    0.6530 O   0  0  0  0  0  0  0  0  0  0  0  0
   -5.5660   -2.5870    0.7990 C   0  0  0  0  0  0  0  0  0  0  0  0
   -3.2730   -0.3390    0.4420 C   0  0  0  0  0  0  0  0  0  0  0  0
   -2.1270    1.0120    0.1820 S   0  0  0  0  0  0  0  0  0  0  0  0
   -0.6200    0.0810    0.3020 C   0  0  0  0  0  0  0  0  0  0  0  0
    0.7990    0.1870    0.2480 N   0  0  0  0  0  0  0  0  0  0  0  0
    1.4030    1.4020    0.0220 C   0  0  0  0  0  0  0  0  0  0  0  0
    0.5820    2.3010   -0.1140 O   0  0  0  0  0  0  0  0  0  0  0  0
    2.8970    1.4800   -0.0300 C   0  0  0  0  0  0  0  0  0  0  0  0
    3.6060   -0.1670    0.2480 S   0  0  0  0  0  0  0  0  0  0  0  0
    5.3770   -0.0350    0.1800 C   0  0  0  0  0  0  0  0  0  0  0  0
    6.0560    1.0640   -0.0340 C   0  0  0  0  0  0  0  0  0  0  0  0
    7.5010    0.7830   -0.0200 C   0  0  0  0  0  0  0  0  0  0  0  0
    7.5680   -0.6620    0.2380 C   0  0  0  0  0  0  0  0  0  0  0  0
    6.3350   -1.1160    0.3510 C   0  0  0  0  0  0  0  0  0  0  0  0
   -0.9920   -1.0620    0.5070 N   0  0  0  0  0  0  0  0  0  0  0  0
   -2.3050   -1.4100    0.6000 C   0  0  0  0  0  0  0  0  0  0  0  0
   -2.6560   -2.6050    0.8120 O   0  0  0  0  0  0  0  0  0  0  0  0
  1  2  1  0
  2  3  1  0
  3  4  1  0
  4  5  1  0
  4  7  2  3
  5  6  1  0
  7  8  1  0
  7 21  1  0
  8  9  1  0
  9 10  1  0
  9 20  2  0
 10 11  1  0
 11 12  2  0
 11 13  1  0
 13 14  1  0
 14 15  1  0
 15 16  2  0
 15 19  1  0
 16 17  1  0
 17 18  1  0
 18 19  2  0
 20 21  1  0
 21 22  2  0
M  END
