
     RDKit          3D

 22 23  0  0  0  0  0  0  0  0999 V2000
    6.6160    0.5720    1.7770 C   0  0  0  0  0  0  0  0  0  0  0  0
    5.4330    0.2090    1.3970 C   0  0  0  0  0  0  0  0  0  0  0  0
    4.9820   -1.0290    0.7550 C   0  0  0  0  0  0  0  0  0  0  0  0
    3.7550   -0.8130   -0.0170 C   0  0  0  0  0  0  0  0  0  0  0  0
    3.2710   -1.7670   -1.1050 C   0  0  0  0  0  0  0  0  0  0  0  0
    3.0480    0.2570    0.2460 C   0  0  0  0  0  0  0  0  0  0  0  0
    1.7980    0.7120   -0.3620 C   0  0  0  0  0  0  0  0  0  0  0  0
    1.2110    0.0960   -1.2690 O   0  0  0  0  0  0  0  0  0  0  0  0
    1.2050    1.8900    0.0690 O   0  0  0  0  0  0  0  0  0  0  0  0
    0.0190    2.3910   -0.4560 C   0  0  0  0  0  0  0  0  0  0  0  0
   -1.1400    1.5140   -0.3200 C   0  0  0  0  0  0  0  0  0  0  0  0
   -1.0430    0.3940    0.2350 O   0  0  0  0  0  0  0  0  0  0  0  0
   -2.4140    1.8980   -0.8110 N   0  0  0  0  0  0  0  0  0  0  0  0
   -3.5670    1.0150   -0.6710 C   0  0  0  0  0  0  0  0  0  0  0  0
   -4.1790    0.6090   -1.7580 C   0  0  0  0  0  0  0  0  0  0  0  0
   -5.5880   -0.4620   -1.7300 S   0  0  0  0  0  0  0  0  0  0  0  0
   -5.9270   -0.8100   -0.0210 C   0  0  0  0  0  0  0  0  0  0  0  0
   -6.9030   -1.5700    0.3350 C   0  0  0  0  0  0  0  0  0  0  0  0
   -5.0890   -0.2260    0.9590 N   0  0  0  0  0  0  0  0  0  0  0  0
   -4.0030    0.6150    0.6480 C   0  0  0  0  0  0  0  0  0  0  0  0
   -3.3370    1.0670    1.6390 O   0  0  0  0  0  0  0  0  0  0  0  0
    3.9190    1.1430    1.5440 S   0  0  0  0  0  0  0  0  0  0  0  0
  1  2  2  0
  2  3  1  0
  2 22  1  0
  3  4  1  0
  4  5  1  0
  4  6  2  0
  6  7  1  0
  6 22  1  0
  7  8  2  0
  7  9  1  0
  9 10  1  0
 10 11  1  0
 11 12  2  0
 11 13  1  0
 13 14  1  0
 14 15  2  0
 14 20  1  0
 15 16  1  0
 16 17  1  0
 17 18  2  0
 17 19  1  0
 19 20  1  0
 20 21  2  0
M  END
