
     RDKit          3D

 22 24  0  0  0  0  0  0  0  0999 V2000
    0.9290   -0.2470   -1.3110 O   0  0  0  0  0  0  0  0  0  0  0  0
    0.3590   -1.1320   -0.6670 C   0  0  0  0  0  0  0  0  0  0  0  0
    1.1060   -2.4330   -0.3810 C   0  0  0  0  0  0  0  0  0  0  0  0
    2.7530   -2.3190   -1.1090 S   0  0  0  0  0  0  0  0  0  0  0  0
    3.7110   -1.0780   -0.2760 C   0  0  0  0  0  0  0  0  0  0  0  0
    3.1790   -0.4190    0.7280 C   0  0  0  0  0  0  0  0  0  0  0  0
    3.9900    0.6300    1.4310 C   0  0  0  0  0  0  0  0  0  0  0  0
    5.2740    0.7700    0.8980 O   0  0  0  0  0  0  0  0  0  0  0  0
    5.7960    0.0660   -0.1500 C   0  0  0  0  0  0  0  0  0  0  0  0
    5.0740   -0.8430   -0.7530 C   0  0  0  0  0  0  0  0  0  0  0  0
   -0.9520   -0.9530   -0.2030 N   0  0  0  0  0  0  0  0  0  0  0  0
   -1.7210    0.2000   -0.4120 C   0  0  0  0  0  0  0  0  0  0  0  0
   -1.3690    1.3280   -1.0760 C   0  0  0  0  0  0  0  0  0  0  0  0
   -2.2330    2.3940   -1.2060 C   0  0  0  0  0  0  0  0  0  0  0  0
   -3.4840    2.3430   -0.6630 C   0  0  0  0  0  0  0  0  0  0  0  0
   -4.3310    3.4310   -0.8110 O   0  0  0  0  0  0  0  0  0  0  0  0
   -3.9040    1.2250    0.0240 C   0  0  0  0  0  0  0  0  0  0  0  0
   -5.0120    0.8960    0.6350 O   0  0  0  0  0  0  0  0  0  0  0  0
   -4.9140   -0.3050    1.1460 C   0  0  0  0  0  0  0  0  0  0  0  0
   -6.2180   -1.1300    2.0660 S   0  0  0  0  0  0  0  0  0  0  0  0
   -3.6930   -0.7530    0.8440 N   0  0  0  0  0  0  0  0  0  0  0  0
   -3.0190    0.1930    0.1300 C   0  0  0  0  0  0  0  0  0  0  0  0
  1  2  2  0
  2  3  1  0
  2 11  1  0
  3  4  1  0
  4  5  1  0
  5  6  2  0
  5 10  1  0
  6  7  1  0
  7  8  1  0
  8  9  1  0
  9 10  2  0
 11 12  1  0
 12 13  2  0
 12 22  1  0
 13 14  1  0
 14 15  2  0
 15 16  1  0
 15 17  1  0
 17 18  1  0
 17 22  2  0
 18 19  1  0
 19 20  1  0
 19 21  2  0
 21 22  1  0
M  END
