
     RDKit          3D

 22 24  0  0  0  0  0  0  0  0999 V2000
    4.4430   -2.4420    2.2260 O   0  0  0  0  0  0  0  0  0  0  0  0
    3.8750   -1.7480    1.3750 C   0  0  0  0  0  0  0  0  0  0  0  0
    4.7070   -0.8330    0.5490 C   0  0  0  0  0  0  0  0  0  0  0  0
    4.2240   -0.0540   -0.3770 C   0  0  0  0  0  0  0  0  0  0  0  0
    2.7840    0.0450   -0.7500 C   0  0  0  0  0  0  0  0  0  0  0  0
    2.2820    1.4680   -0.5350 C   0  0  0  0  0  0  0  0  0  0  0  0
    0.9050    1.5990   -0.8860 N   0  0  0  0  0  0  0  0  0  0  0  0
   -0.1520    0.8550   -0.2390 C   0  0  0  0  0  0  0  0  0  0  0  0
    0.1340    0.0670    0.6630 O   0  0  0  0  0  0  0  0  0  0  0  0
   -1.4770    1.0420   -0.6460 N   0  0  0  0  0  0  0  0  0  0  0  0
   -2.6180    0.3860   -0.1180 C   0  0  0  0  0  0  0  0  0  0  0  0
   -2.5960   -0.6490    0.7760 C   0  0  0  0  0  0  0  0  0  0  0  0
   -3.7920   -1.2250    1.2480 C   0  0  0  0  0  0  0  0  0  0  0  0
   -5.0230   -0.7880    0.8460 C   0  0  0  0  0  0  0  0  0  0  0  0
   -5.0560    0.2530   -0.0530 C   0  0  0  0  0  0  0  0  0  0  0  0
   -3.8930    0.8130   -0.5130 C   0  0  0  0  0  0  0  0  0  0  0  0
   -6.4160    0.4990   -0.2930 O   0  0  0  0  0  0  0  0  0  0  0  0
   -7.1880   -0.6150    0.1120 C   0  0  0  0  0  0  0  0  0  0  0  0
   -6.3420   -1.1520    1.1330 O   0  0  0  0  0  0  0  0  0  0  0  0
    5.4640    0.9230   -1.2100 S   0  0  0  0  0  0  0  0  0  0  0  0
    7.0200    0.0460   -0.7720 C   0  0  0  0  0  0  0  0  0  0  0  0
    6.4610   -0.7220    0.7690 S   0  0  0  0  0  0  0  0  0  0  0  0
  1  2  2  0
  2  3  1  0
  3  4  2  0
  3 22  1  0
  4  5  1  0
  4 20  1  0
  5  6  1  0
  6  7  1  0
  7  8  1  0
  8  9  2  0
  8 10  1  0
 10 11  1  0
 11 12  2  0
 11 16  1  0
 12 13  1  0
 13 14  2  0
 14 15  1  0
 14 19  1  0
 15 16  2  0
 15 17  1  0
 17 18  1  0
 18 19  1  0
 20 21  1  0
 21 22  1  0
M  END
