
     RDKit          3D

 23 25  0  0  0  0  0  0  0  0999 V2000
   -4.2730   -0.3000    2.1080 C   0  0  0  0  0  0  0  0  0  0  0  0
   -4.9700    0.1630    1.0640 C   0  0  0  0  0  0  0  0  0  0  0  0
   -4.2240    0.5810   -0.1230 C   0  0  0  0  0  0  0  0  0  0  0  0
   -4.8880    1.0390   -1.1610 C   0  0  0  0  0  0  0  0  0  0  0  0
   -6.3630    1.1180   -1.1000 C   0  0  0  0  0  0  0  0  0  0  0  0
   -2.7460    0.5000   -0.1760 C   0  0  0  0  0  0  0  0  0  0  0  0
   -2.2760   -0.8280   -0.0030 O   0  0  0  0  0  0  0  0  0  0  0  0
   -0.9030   -1.0160   -0.0360 C   0  0  0  0  0  0  0  0  0  0  0  0
   -0.0030    0.0220   -0.2260 C   0  0  0  0  0  0  0  0  0  0  0  0
    1.3590   -0.1580   -0.2590 C   0  0  0  0  0  0  0  0  0  0  0  0
    2.2390    0.8870   -0.4490 C   0  0  0  0  0  0  0  0  0  0  0  0
    3.6130    0.6870   -0.4800 C   0  0  0  0  0  0  0  0  0  0  0  0
    4.6980    1.5200   -0.6480 C   0  0  0  0  0  0  0  0  0  0  0  0
    4.7100    2.8530   -0.8430 F   0  0  0  0  0  0  0  0  0  0  0  0
    5.8160    0.7240   -0.5810 C   0  0  0  0  0  0  0  0  0  0  0  0
    7.2420    1.1440   -0.7050 C   0  0  0  0  0  0  0  0  0  0  0  0
    5.4040   -0.5400   -0.3800 N   0  0  0  0  0  0  0  0  0  0  0  0
    4.0590   -0.6100   -0.3110 C   0  0  0  0  0  0  0  0  0  0  0  0
    3.1830   -1.6330   -0.1240 N   0  0  0  0  0  0  0  0  0  0  0  0
    1.8530   -1.4350   -0.0950 C   0  0  0  0  0  0  0  0  0  0  0  0
    0.9580   -2.4790    0.0960 C   0  0  0  0  0  0  0  0  0  0  0  0
   -0.4020   -2.3110    0.1310 C   0  0  0  0  0  0  0  0  0  0  0  0
   -1.2960   -3.3530    0.3210 O   0  0  0  0  0  0  0  0  0  0  0  0
  1  2  2  0
  2  3  1  0
  3  4  2  3
  3  6  1  0
  4  5  1  0
  6  7  1  0
  7  8  1  0
  8  9  2  0
  8 22  1  0
  9 10  1  0
 10 11  2  0
 10 20  1  0
 11 12  1  0
 12 13  1  0
 12 18  2  0
 13 14  1  0
 13 15  2  0
 15 16  1  0
 15 17  1  0
 17 18  1  0
 18 19  1  0
 19 20  2  0
 20 21  1  0
 21 22  2  0
 22 23  1  0
M  END
