
     RDKit          3D

 23 25  0  0  0  0  0  0  0  0999 V2000
    3.6430    0.6090   -2.5070 C   0  0  0  0  0  0  0  0  0  0  0  0
    4.3270    0.5380   -1.1830 C   0  0  0  0  0  0  0  0  0  0  0  0
    5.6900    0.7340   -1.1490 C   0  0  0  0  0  0  0  0  0  0  0  0
    6.3420    0.6720    0.0670 C   0  0  0  0  0  0  0  0  0  0  0  0
    7.6950    0.8680    0.0960 F   0  0  0  0  0  0  0  0  0  0  0  0
    5.6500    0.4210    1.2150 C   0  0  0  0  0  0  0  0  0  0  0  0
    4.2670    0.2260    1.1420 C   0  0  0  0  0  0  0  0  0  0  0  0
    3.5970    0.2800   -0.0320 C   0  0  0  0  0  0  0  0  0  0  0  0
    2.2170    0.0930   -0.1580 N   0  0  0  0  0  0  0  0  0  0  0  0
    1.2810   -0.1780    0.8680 C   0  0  0  0  0  0  0  0  0  0  0  0
    1.6560   -0.2780    2.0570 O   0  0  0  0  0  0  0  0  0  0  0  0
   -0.1570   -0.3460    0.5300 C   0  0  0  0  0  0  0  0  0  0  0  0
   -0.7000   -0.2650   -0.6980 N   0  0  0  0  0  0  0  0  0  0  0  0
   -2.0040   -0.4720   -0.5860 C   0  0  0  0  0  0  0  0  0  0  0  0
   -2.3190   -0.6910    0.7370 C   0  0  0  0  0  0  0  0  0  0  0  0
   -1.1510   -0.6130    1.4490 C   0  0  0  0  0  0  0  0  0  0  0  0
   -0.9900   -0.7840    2.9330 C   0  0  0  0  0  0  0  0  0  0  0  0
   -3.6240   -0.9700    1.3980 C   0  0  0  0  0  0  0  0  0  0  0  0
   -4.7680   -0.5670    0.4890 C   0  0  0  0  0  0  0  0  0  0  0  0
   -4.5710    0.7570   -0.1620 C   0  0  0  0  0  0  0  0  0  0  0  0
   -3.9000    0.7040   -1.4970 C   0  0  0  0  0  0  0  0  0  0  0  0
   -3.0110   -0.4740   -1.7000 C   0  0  1  0  0  0  0  0  0  0  0  0
   -2.3820   -0.3390   -2.9370 O   0  0  0  0  0  0  0  0  0  0  0  0
  1  2  1  0
  2  3  2  0
  2  8  1  0
  3  4  1  0
  4  5  1  0
  4  6  2  0
  6  7  1  0
  7  8  2  0
  8  9  1  0
  9 10  1  0
 10 11  2  0
 10 12  1  0
 12 13  1  0
 12 16  2  0
 13 14  1  0
 14 15  2  0
 14 22  1  0
 15 16  1  0
 15 18  1  0
 16 17  1  0
 18 19  1  0
 19 20  1  0
 20 21  1  0
 21 22  1  0
 22 23  1  6
M  END
