
     RDKit          3D

 23 25  0  0  0  0  0  0  0  0999 V2000
    4.9060   -1.4270    1.3590 C   0  0  0  0  0  0  0  0  0  0  0  0
    3.7580   -0.5870    1.3690 N   0  0  0  0  0  0  0  0  0  0  0  0
    2.8030   -0.6160    0.4810 C   0  0  0  0  0  0  0  0  0  0  0  0
    2.8320   -1.5040   -0.5840 O   0  0  0  0  0  0  0  0  0  0  0  0
    2.2010   -1.0170   -1.7810 C   0  0  0  0  0  0  0  0  0  0  0  0
    0.7440   -0.6850   -1.4160 C   0  0  0  0  0  0  0  0  0  0  0  0
    0.6760    0.2820   -0.3020 C   0  0  0  0  0  0  0  0  0  0  0  0
   -0.3880    1.2610   -0.1780 C   0  0  0  0  0  0  0  0  0  0  0  0
   -0.0670    2.6290   -0.1160 C   0  0  0  0  0  0  0  0  0  0  0  0
   -1.0400    3.6040    0.0000 C   0  0  0  0  0  0  0  0  0  0  0  0
   -0.6520    4.9360    0.0570 O   0  0  0  0  0  0  0  0  0  0  0  0
   -2.3690    3.2500    0.0580 C   0  0  0  0  0  0  0  0  0  0  0  0
   -2.6940    1.9290   -0.0010 C   0  0  0  0  0  0  0  0  0  0  0  0
   -1.7150    0.9180   -0.1180 C   0  0  0  0  0  0  0  0  0  0  0  0
   -2.1340   -0.4780   -0.1180 C   0  0  0  0  0  0  0  0  0  0  0  0
   -3.0440   -0.9130   -1.0550 C   0  0  0  0  0  0  0  0  0  0  0  0
   -3.5030   -2.2300   -1.0780 C   0  0  0  0  0  0  0  0  0  0  0  0
   -3.0540   -3.1400   -0.1520 C   0  0  0  0  0  0  0  0  0  0  0  0
   -3.4580   -4.4420   -0.1150 F   0  0  0  0  0  0  0  0  0  0  0  0
   -2.1480   -2.7170    0.7850 C   0  0  0  0  0  0  0  0  0  0  0  0
   -1.7030   -1.4150    0.7950 C   0  0  0  0  0  0  0  0  0  0  0  0
    1.6560    0.2920    0.5770 C   0  0  0  0  0  0  0  0  0  0  0  0
    1.6910    1.1690    1.7210 N   0  0  0  0  0  0  0  0  0  0  0  0
  1  2  1  0
  2  3  2  3
  3  4  1  0
  3 22  1  0
  4  5  1  0
  5  6  1  0
  6  7  1  0
  7  8  1  0
  7 22  2  0
  8  9  2  0
  8 14  1  0
  9 10  1  0
 10 11  1  0
 10 12  2  0
 12 13  1  0
 13 14  2  0
 14 15  1  0
 15 16  2  0
 15 21  1  0
 16 17  1  0
 17 18  2  0
 18 19  1  0
 18 20  1  0
 20 21  2  0
 22 23  1  0
M  END
