
     RDKit          3D

 22 24  0  0  0  0  0  0  0  0999 V2000
    3.1510    1.9290   -0.0470 C   0  0  0  0  0  0  0  0  0  0  0  0
    4.1550    0.8920   -0.3920 C   0  0  0  0  0  0  0  0  0  0  0  0
    5.5030    1.1160   -0.4650 C   0  0  0  0  0  0  0  0  0  0  0  0
    6.2010   -0.1490   -0.8330 C   0  0  0  0  0  0  0  0  0  0  0  0
    5.2220   -1.1640   -0.2070 C   0  0  0  0  0  0  0  0  0  0  0  0
    3.9150   -0.5240   -0.7040 C   0  0  1  0  0  0  0  0  0  0  0  0
    2.7410   -1.1450   -0.0790 C   0  0  0  0  0  0  0  0  0  0  0  0
    1.4170   -0.5910   -0.4560 C   0  0  0  0  0  0  0  0  0  0  0  0
    1.3260    0.1800   -1.4320 O   0  0  0  0  0  0  0  0  0  0  0  0
    0.2940   -0.9510    0.3040 N   0  0  0  0  0  0  0  0  0  0  0  0
   -1.0490   -0.5270    0.1040 C   0  0  0  0  0  0  0  0  0  0  0  0
   -1.3900    0.3250   -0.9120 C   0  0  0  0  0  0  0  0  0  0  0  0
   -2.7160    0.7330   -1.0960 C   0  0  0  0  0  0  0  0  0  0  0  0
   -3.3220    1.5370   -1.9790 N   0  0  0  0  0  0  0  0  0  0  0  0
   -4.6370    1.5940   -1.7120 C   0  0  0  0  0  0  0  0  0  0  0  0
   -4.8880    0.7910   -0.6070 C   0  0  0  0  0  0  0  0  0  0  0  0
   -6.1870    0.5450    0.0500 C   0  0  0  0  0  0  0  0  0  0  0  0
   -3.6690    0.2450   -0.2160 C   0  0  0  0  0  0  0  0  0  0  0  0
   -3.3330   -0.6060    0.7990 C   0  0  0  0  0  0  0  0  0  0  0  0
   -4.3710   -1.1190    1.7330 C   0  0  0  0  0  0  0  0  0  0  0  0
   -2.0270   -1.0000    0.9710 C   0  0  0  0  0  0  0  0  0  0  0  0
   -1.7260   -1.8800    2.0320 O   0  0  0  0  0  0  0  0  0  0  0  0
  1  2  1  0
  2  3  2  0
  2  6  1  0
  3  4  1  0
  4  5  1  0
  5  6  1  0
  6  7  1  1
  7  8  1  0
  8  9  2  0
  8 10  1  0
 10 11  1  0
 11 12  2  0
 11 21  1  0
 12 13  1  0
 13 14  1  0
 13 18  2  0
 14 15  1  0
 15 16  2  0
 16 17  1  0
 16 18  1  0
 18 19  1  0
 19 20  1  0
 19 21  2  0
 21 22  1  0
M  END
