
     RDKit          3D

 23 25  0  0  0  0  0  0  0  0999 V2000
   -4.6400   -0.0630   -2.9460 C   0  0  0  0  0  0  0  0  0  0  0  0
   -5.2310    0.5560   -1.7320 C   0  0  0  0  0  0  0  0  0  0  0  0
   -6.4400    1.1440   -1.7460 F   0  0  0  0  0  0  0  0  0  0  0  0
   -4.5420    0.5250   -0.6070 C   0  0  0  0  0  0  0  0  0  0  0  0
   -3.2610   -0.0820   -0.5360 N   0  0  0  0  0  0  0  0  0  0  0  0
   -2.4860   -0.1290    0.6810 C   0  0  0  0  0  0  0  0  0  0  0  0
   -1.1780   -0.7680    0.6850 C   0  0  0  0  0  0  0  0  0  0  0  0
   -0.7700   -1.2680   -0.4190 O   0  0  0  0  0  0  0  0  0  0  0  0
   -0.3710   -0.8480    1.8420 N   0  0  0  0  0  0  0  0  0  0  0  0
    0.9130   -1.5130    1.7030 C   0  0  0  0  0  0  0  0  0  0  0  0
    1.9070   -0.6850    1.0230 C   0  0  0  0  0  0  0  0  0  0  0  0
    1.6720    0.5940    0.5360 C   0  0  0  0  0  0  0  0  0  0  0  0
    2.6700    1.3030   -0.0920 C   0  0  0  0  0  0  0  0  0  0  0  0
    3.9390    0.7850   -0.2670 C   0  0  0  0  0  0  0  0  0  0  0  0
    4.1880   -0.4820    0.2100 C   0  0  0  0  0  0  0  0  0  0  0  0
    3.1750   -1.1890    0.8420 C   0  0  0  0  0  0  0  0  0  0  0  0
    5.6020   -0.8110   -0.0890 C   0  0  0  0  0  0  0  0  0  0  0  0
    5.9150    0.0440   -1.2770 C   0  0  0  0  0  0  0  0  0  0  0  0
    5.1770    1.3380   -0.9080 C   0  0  0  0  0  0  0  0  0  0  0  0
   -3.0480    0.4330    1.7370 C   0  0  0  0  0  0  0  0  0  0  0  0
   -4.3630    1.0750    1.7310 C   0  0  0  0  0  0  0  0  0  0  0  0
   -5.0670    1.1150    0.6160 C   0  0  0  0  0  0  0  0  0  0  0  0
   -6.3120    1.7250    0.6210 O   0  0  0  0  0  0  0  0  0  0  0  0
  1  2  1  0
  2  3  1  0
  2  4  2  3
  4  5  1  0
  4 22  1  0
  5  6  1  0
  6  7  1  0
  6 20  2  0
  7  8  2  0
  7  9  1  0
  9 10  1  0
 10 11  1  0
 11 12  2  0
 11 16  1  0
 12 13  1  0
 13 14  2  0
 14 15  1  0
 14 19  1  0
 15 16  2  0
 15 17  1  0
 17 18  1  0
 18 19  1  0
 20 21  1  0
 21 22  2  0
 22 23  1  0
M  END
