
     RDKit          3D

 14 14  0  0  0  0  0  0  0  0999 V2000
    2.0530    0.3200   -1.5600 C   0  0  0  0  0  0  0  0  0  0  0  0
    1.8810    0.2750   -0.0880 C   0  0  1  0  0  0  0  0  0  0  0  0
    2.9910    0.8550    0.5430 O   0  0  0  0  0  0  0  0  0  0  0  0
    0.6730    0.9470    0.4690 C   0  0  0  0  0  0  0  0  0  0  0  0
   -0.6430    0.3540   -0.0170 C   0  0  2  0  0  0  0  0  0  0  0  0
   -1.3500    1.4500   -0.7590 C   0  0  0  0  0  0  0  0  0  0  0  0
   -1.7030    2.5060    0.0810 O   0  0  0  0  0  0  0  0  0  0  0  0
   -1.5040   -0.1130    1.1030 C   0  0  0  0  0  0  0  0  0  0  0  0
   -2.7850   -0.6850    0.5530 C   0  0  0  0  0  0  0  0  0  0  0  0
   -2.5680   -1.7620   -0.3110 O   0  0  0  0  0  0  0  0  0  0  0  0
   -0.2960   -0.7130   -0.8200 O   0  0  0  0  0  0  0  0  0  0  0  0
    0.4310   -1.6720   -0.1760 C   0  0  0  0  0  0  0  0  0  0  0  0
    1.7840   -1.2070    0.3010 C   0  0  2  0  0  0  0  0  0  0  0  0
    1.9430   -1.3620    1.6730 O   0  0  0  0  0  0  0  0  0  0  0  0
  2  1  1  6
  2  3  1  0
  2  4  1  0
  2 13  1  0
  4  5  1  0
  5  6  1  6
  5  8  1  0
  5 11  1  0
  6  7  1  0
  8  9  1  0
  9 10  1  0
 11 12  1  0
 12 13  1  0
 13 14  1  1
M  END
