
     RDKit          3D

 14 14  0  0  0  0  0  0  0  0999 V2000
   -3.1160    1.0120   -1.0460 C   0  0  0  0  0  0  0  0  0  0  0  0
   -3.0730   -0.0920   -0.0390 C   0  0  2  0  0  0  0  0  0  0  0  0
   -2.7950    0.4410    1.2330 O   0  0  0  0  0  0  0  0  0  0  0  0
   -1.9140   -1.0090   -0.3730 C   0  0  1  0  0  0  0  0  0  0  0  0
   -2.0390   -1.6150   -1.6030 O   0  0  0  0  0  0  0  0  0  0  0  0
   -0.6430   -0.2310   -0.1990 C   0  0  0  0  0  0  0  0  0  0  0  0
    0.5090   -1.0470   -0.3390 O   0  0  0  0  0  0  0  0  0  0  0  0
    1.7380   -0.3800   -0.1880 C   0  0  0  0  0  0  0  0  0  0  0  0
    2.4470    0.0040   -1.2210 C   0  0  0  0  0  0  0  0  0  0  0  0
    3.7330    0.7010   -1.0790 C   0  0  0  0  0  0  0  0  0  0  0  0
    4.0790    0.8880    0.2470 O   0  0  0  0  0  0  0  0  0  0  0  0
    3.3640    0.5000    1.3270 C   0  0  0  0  0  0  0  0  0  0  0  0
    2.2060   -0.1270    1.1880 C   0  0  0  0  0  0  0  0  0  0  0  0
    1.4480   -0.5390    2.2770 O   0  0  0  0  0  0  0  0  0  0  0  0
  2  1  1  6
  2  3  1  0
  2  4  1  0
  4  5  1  6
  4  6  1  0
  6  7  1  0
  7  8  1  0
  8  9  2  0
  8 13  1  0
  9 10  1  0
 10 11  1  0
 11 12  1  0
 12 13  2  0
 13 14  1  0
M  END
