
     RDKit          3D

 14 14  0  0  0  0  0  0  0  0999 V2000
   -2.2530   -0.6770    0.8710 C   0  0  0  0  0  0  0  0  0  0  0  0
   -1.0260    0.0850    0.4680 C   0  0  1  0  0  0  0  0  0  0  0  0
   -1.4400    1.4630    0.0210 C   0  0  0  0  0  0  0  0  0  0  0  0
   -2.0900    2.1730    1.0240 O   0  0  0  0  0  0  0  0  0  0  0  0
   -0.0430    0.2620    1.6080 C   0  0  0  0  0  0  0  0  0  0  0  0
    0.8360    1.2510    1.2120 O   0  0  0  0  0  0  0  0  0  0  0  0
    1.5780    0.9500    0.0930 C   0  0  1  0  0  0  0  0  0  0  0  0
    2.7810    0.0640    0.4470 C   0  0  0  0  0  0  0  0  0  0  0  0
    3.6120    0.7340    1.3660 O   0  0  0  0  0  0  0  0  0  0  0  0
    0.8280    0.3590   -1.0440 C   0  0  0  0  0  0  0  0  0  0  0  0
   -0.2100   -0.6340   -0.5850 C   0  0  1  0  0  0  0  0  0  0  0  0
    0.4880   -1.6990   -0.0010 O   0  0  0  0  0  0  0  0  0  0  0  0
   -1.0280   -1.1890   -1.7010 C   0  0  0  0  0  0  0  0  0  0  0  0
   -0.1270   -1.7780   -2.6100 O   0  0  0  0  0  0  0  0  0  0  0  0
  2  1  1  1
  2  3  1  0
  2  5  1  0
  2 11  1  0
  3  4  1  0
  5  6  1  0
  6  7  1  0
  7  8  1  1
  7 10  1  0
  8  9  1  0
 10 11  1  0
 11 12  1  1
 11 13  1  0
 13 14  1  0
M  END
