
     RDKit          3D

 15 15  0  0  0  0  0  0  0  0999 V2000
    2.6810   -0.7280    2.2360 O   0  0  0  0  0  0  0  0  0  0  0  0
    2.6420   -1.0480    1.0290 C   0  0  0  0  0  0  0  0  0  0  0  0
    3.3980   -2.1260    0.6140 O   0  0  0  0  0  0  0  0  0  0  0  0
    1.8070   -0.2910    0.0680 C   0  0  2  0  0  0  0  0  0  0  0  0
    2.7750    0.2850   -0.9470 C   0  0  0  0  0  0  0  0  0  0  0  0
    3.6250    1.1510   -0.2200 O   0  0  0  0  0  0  0  0  0  0  0  0
    1.1220    0.7430    0.6270 O   0  0  0  0  0  0  0  0  0  0  0  0
   -0.2260    0.7930    0.5080 C   0  0  2  0  0  0  0  0  0  0  0  0
   -0.6300    1.9730    1.1900 O   0  0  0  0  0  0  0  0  0  0  0  0
   -0.9510   -0.3270    1.2310 C   0  0  0  0  0  0  0  0  0  0  0  0
   -2.4400    0.0200    1.1360 C   0  0  0  0  0  0  0  0  0  0  0  0
   -2.8490   -0.3730   -0.2840 C   0  0  0  0  0  0  0  0  0  0  0  0
   -1.6620   -0.3340   -1.2200 C   0  0  1  0  0  0  0  0  0  0  0  0
   -2.1800   -0.0530   -2.4970 O   0  0  0  0  0  0  0  0  0  0  0  0
   -0.7980    0.8840   -0.8630 C   0  0  0  0  0  0  0  0  0  0  0  0
  1  2  2  0
  2  3  1  0
  2  4  1  0
  4  5  1  6
  4  7  1  0
  5  6  1  0
  7  8  1  0
  8  9  1  1
  8 10  1  0
  8 15  1  0
 10 11  1  0
 11 12  1  0
 12 13  1  0
 13 14  1  6
 13 15  1  0
M  END
