
     RDKit          3D

 15 15  0  0  0  0  0  0  0  0999 V2000
    4.1070    0.4610   -1.2900 O   0  0  0  0  0  0  0  0  0  0  0  0
    3.5700    1.1320   -0.1980 C   0  0  0  0  0  0  0  0  0  0  0  0
    2.4040    0.3930    0.4030 C   0  0  0  0  0  0  0  0  0  0  0  0
    1.3680    0.2200   -0.5130 O   0  0  0  0  0  0  0  0  0  0  0  0
    0.2960   -0.4470    0.0190 C   0  0  2  0  0  0  0  0  0  0  0  0
    0.1090   -1.8270   -0.6000 C   0  0  0  0  0  0  0  0  0  0  0  0
   -0.5700   -2.5980    0.3330 O   0  0  0  0  0  0  0  0  0  0  0  0
   -1.3820   -1.8840    1.1800 C   0  0  0  0  0  0  0  0  0  0  0  0
   -2.0710   -0.7180    0.4650 C   0  0  2  0  0  0  0  0  0  0  0  0
   -2.6400   -1.3040   -0.6880 O   0  0  0  0  0  0  0  0  0  0  0  0
   -1.0090    0.2690   -0.0110 C   0  0  1  0  0  0  0  0  0  0  0  0
   -0.9540    1.4880    0.8500 C   0  0  0  0  0  0  0  0  0  0  0  0
    0.0290    2.3360    0.3850 O   0  0  0  0  0  0  0  0  0  0  0  0
   -1.4060    0.7220   -1.4000 C   0  0  0  0  0  0  0  0  0  0  0  0
   -2.6330    1.3730   -1.2920 O   0  0  0  0  0  0  0  0  0  0  0  0
  1  2  1  0
  2  3  1  0
  3  4  1  0
  5  4  1  6
  5  6  1  0
  5 11  1  0
  6  7  1  0
  7  8  1  0
  8  9  1  0
  9 10  1  6
  9 11  1  0
 11 12  1  1
 11 14  1  0
 12 13  1  0
 14 15  1  0
M  END
