
     RDKit          3D

 27 29  0  0  0  0  0  0  0  0999 V2000
    1.4050    1.2790   -0.3130 O   0  0  0  0  0  0  0  0  0  0  0  0
    1.2510    0.2330    0.3410 C   0  0  0  0  0  0  0  0  0  0  0  0
    2.2850   -0.6990    0.4110 N   0  0  0  0  0  0  0  0  0  0  0  0
    3.5620   -0.6310   -0.1820 C   0  0  0  0  0  0  0  0  0  0  0  0
    4.4810   -1.6760   -0.0020 C   0  0  0  0  0  0  0  0  0  0  0  0
    5.7260   -1.6970   -0.5320 C   0  0  0  0  0  0  0  0  0  0  0  0
    6.1740   -0.6530   -1.3060 C   0  0  0  0  0  0  0  0  0  0  0  0
    7.4440   -0.6470   -1.8610 O   0  0  0  0  0  0  0  0  0  0  0  0
    8.5090   -0.0720   -1.1000 C   0  0  2  0  0  0  0  0  0  0  0  0
    8.1900    1.2390   -0.8650 F   0  0  0  0  0  0  0  0  0  0  0  0
    9.6430   -0.0950   -1.8840 F   0  0  0  0  0  0  0  0  0  0  0  0
    8.6330   -0.8210    0.0430 F   0  0  0  0  0  0  0  0  0  0  0  0
    5.3200    0.3870   -1.5120 C   0  0  0  0  0  0  0  0  0  0  0  0
    4.0290    0.4030   -0.9590 C   0  0  0  0  0  0  0  0  0  0  0  0
   -0.0190    0.0120    1.0180 C   0  0  0  0  0  0  0  0  0  0  0  0
   -0.2590   -0.9760    1.9440 C   0  0  0  0  0  0  0  0  0  0  0  0
   -1.4960   -1.1260    2.5420 C   0  0  0  0  0  0  0  0  0  0  0  0
   -2.5520   -0.2950    2.2420 C   0  0  0  0  0  0  0  0  0  0  0  0
   -2.3490    0.7020    1.3220 C   0  0  0  0  0  0  0  0  0  0  0  0
   -3.4280    1.6190    0.9600 C   0  0  0  0  0  0  0  0  0  0  0  0
   -4.2640    1.2080   -0.1130 N   0  0  2  0  0  0  0  0  0  0  0  0
   -5.3850    0.3800    0.2930 C   0  0  0  0  0  0  0  0  0  0  0  0
   -6.4230    0.4720   -0.8080 C   0  0  0  0  0  0  0  0  0  0  0  0
   -5.8160    0.1590   -1.9960 O   0  0  0  0  0  0  0  0  0  0  0  0
   -4.5800   -0.4400   -1.8820 C   0  0  0  0  0  0  0  0  0  0  0  0
   -3.5890    0.4870   -1.1740 C   0  0  0  0  0  0  0  0  0  0  0  0
   -1.1190    0.8380    0.7390 C   0  0  0  0  0  0  0  0  0  0  0  0
  1  2  2  0
  2  3  1  0
  2 15  1  0
  3  4  1  0
  4  5  2  0
  4 14  1  0
  5  6  1  0
  6  7  2  0
  7  8  1  0
  7 13  1  0
  8  9  1  0
  9 10  1  1
  9 11  1  0
  9 12  1  0
 13 14  2  0
 15 16  2  0
 15 27  1  0
 16 17  1  0
 17 18  2  0
 18 19  1  0
 19 20  1  0
 19 27  2  0
 21 20  1  1
 21 22  1  0
 21 26  1  0
 22 23  1  0
 23 24  1  0
 24 25  1  0
 25 26  1  0
M  CHG  1  21   1
M  END
