
     RDKit          3D

 43 44  0  0  0  0  0  0  0  0999 V2000
    3.9190    6.8800    1.0050 C   0  0  0  0  0  0  0  0  0  0  0  0
    4.5610    6.5560    2.2980 C   0  0  0  0  0  0  0  0  0  0  0  0
    4.8850    5.3560    2.5600 N   0  0  0  0  0  0  0  0  0  0  0  0
    4.6770    4.2850    1.6970 N   0  0  0  0  0  0  0  0  0  0  0  0
    3.5080    3.7790    1.6050 C   0  0  0  0  0  0  0  0  0  0  0  0
    3.2880    2.6670    0.7080 C   0  0  0  0  0  0  0  0  0  0  0  0
    4.2560    2.1900    0.0150 O   0  0  0  0  0  0  0  0  0  0  0  0
    2.0180    2.0260    0.5240 N   0  0  0  0  0  0  0  0  0  0  0  0
    0.9410    2.5880    1.3110 C   0  0  0  0  0  0  0  0  0  0  0  0
   -0.3390    1.8450    1.2830 C   0  0  0  0  0  0  0  0  0  0  0  0
   -0.4950    1.0720    0.0790 N   0  0  0  0  0  0  0  0  0  0  0  0
   -1.7200    1.1010   -0.6390 C   0  0  0  0  0  0  0  0  0  0  0  0
   -1.8800    0.4290   -1.7030 O   0  0  0  0  0  0  0  0  0  0  0  0
   -2.8320    1.8490   -0.2550 O   0  0  0  0  0  0  0  0  0  0  0  0
   -4.0310    1.8490   -0.9990 C   0  0  2  0  0  0  0  0  0  0  0  0
   -3.8470    2.3370   -2.4130 C   0  0  0  0  0  0  0  0  0  0  0  0
   -5.0130    2.7500   -0.3040 C   0  0  0  0  0  0  0  0  0  0  0  0
   -4.6230    0.4160   -1.0330 C   0  0  0  0  0  0  0  0  0  0  0  0
   -4.8710   -0.1450    0.2860 C   0  0  0  0  0  0  0  0  0  0  0  0
   -5.3770   -1.3160    0.5700 C   0  0  0  0  0  0  0  0  0  0  0  0
   -5.7730   -2.2400   -0.3730 O   0  0  0  0  0  0  0  0  0  0  0  0
   -5.6170   -1.8570    2.3270 P   0  0  0  0  0  0  0  0  0  0  0  0
   -4.0110   -2.2500    3.1310 C   0  0  0  0  0  0  0  0  0  0  0  0
   -6.4020   -0.5170    3.2350 N   0  0  0  0  0  0  0  0  0  0  0  0
   -4.9060   -0.2910   -2.4040 P   0  0  0  0  0  0  0  0  0  0  0  0
   -5.4440   -1.6070   -3.3990 C   0  0  1  0  0  0  0  0  0  0  0  0
   -6.8250   -1.4040   -4.0730 C   0  0  0  0  0  0  0  0  0  0  0  0
   -4.5070   -1.8010   -4.5810 C   0  0  0  0  0  0  0  0  0  0  0  0
   -3.8250   -0.8610   -4.9320 O   0  0  0  0  0  0  0  0  0  0  0  0
    0.5840    0.2490   -0.4330 C   0  0  0  0  0  0  0  0  0  0  0  0
    1.9090    0.9230   -0.3830 C   0  0  2  0  0  0  0  0  0  0  0  0
    3.0200   -0.0650   -0.1990 C   0  0  0  0  0  0  0  0  0  0  0  0
    3.4220   -0.4470    1.0780 C   0  0  0  0  0  0  0  0  0  0  0  0
    4.4470   -1.3620    1.2560 C   0  0  0  0  0  0  0  0  0  0  0  0
    5.1080   -1.9300    0.1830 C   0  0  0  0  0  0  0  0  0  0  0  0
    6.2170   -2.9160    0.3800 C   0  0  0  0  0  0  0  0  0  0  0  0
    5.6310   -4.2660    0.5030 C   0  0  0  0  0  0  0  0  0  0  0  0
    4.4410   -4.4100    0.4490 O   0  0  0  0  0  0  0  0  0  0  0  0
    6.5860   -5.4060    0.6910 C   0  0  0  0  0  0  0  0  0  0  0  0
    5.7340   -6.6660    0.8190 C   0  0  0  0  0  0  0  0  0  0  0  0
    4.9690   -6.8560   -0.3290 O   0  0  0  0  0  0  0  0  0  0  0  0
    4.7090   -1.5510   -1.0820 C   0  0  0  0  0  0  0  0  0  0  0  0
    3.6900   -0.6410   -1.2580 C   0  0  0  0  0  0  0  0  0  0  0  0
  1  2  1  0
  2  3  2  3
  3  4  1  0
  4  5  2  3
  5  6  1  0
  6  7  2  0
  6  8  1  0
  8  9  1  0
  8 31  1  0
  9 10  1  0
 10 11  1  0
 11 12  1  0
 11 30  1  0
 12 13  2  0
 12 14  1  0
 14 15  1  0
 15 16  1  6
 15 17  1  0
 15 18  1  0
 18 19  1  0
 18 25  2  3
 19 20  2  3
 20 21  1  0
 20 22  1  0
 22 23  1  0
 22 24  1  0
 25 26  1  0
 26 27  1  6
 26 28  1  0
 28 29  2  0
 30 31  1  0
 31 32  1  1
 32 33  2  0
 32 43  1  0
 33 34  1  0
 34 35  2  0
 35 36  1  0
 35 42  1  0
 36 37  1  0
 37 38  2  0
 37 39  1  0
 39 40  1  0
 40 41  1  0
 42 43  2  0
M  END
