
     RDKit          3D

 43 45  0  0  0  0  0  0  0  0999 V2000
   -8.5830    2.6180   -1.1190 C   0  0  0  0  0  0  0  0  0  0  0  0
   -7.8180    3.6670   -1.2990 C   0  0  0  0  0  0  0  0  0  0  0  0
   -6.7550    3.7330   -2.8230 P   0  0  0  0  0  0  0  0  0  0  0  0
   -6.1220    1.9610   -2.9270 C   0  0  0  0  0  0  0  0  0  0  0  0
   -6.4490    1.2250   -3.8580 O   0  0  0  0  0  0  0  0  0  0  0  0
   -5.2740    1.4890   -1.9040 N   0  0  0  0  0  0  0  0  0  0  0  0
   -4.7810    0.1390   -1.7670 C   0  0  0  0  0  0  0  0  0  0  0  0
   -4.0510    0.1420   -0.4460 C   0  0  0  0  0  0  0  0  0  0  0  0
   -4.7530   -0.3940    0.6090 C   0  0  0  0  0  0  0  0  0  0  0  0
   -6.1030   -0.7940    0.6930 C   0  0  0  0  0  0  0  0  0  0  0  0
   -7.0250   -0.7790   -0.3300 O   0  0  0  0  0  0  0  0  0  0  0  0
   -6.3770   -1.2100    1.9760 C   0  0  0  0  0  0  0  0  0  0  0  0
   -7.7020   -1.7070    2.4210 C   0  0  0  0  0  0  0  0  0  0  0  0
   -8.6570   -1.7670    1.6080 O   0  0  0  0  0  0  0  0  0  0  0  0
   -7.9520   -2.1130    3.7030 O   0  0  0  0  0  0  0  0  0  0  0  0
   -5.2690   -1.1070    2.7540 C   0  0  0  0  0  0  0  0  0  0  0  0
   -5.0830   -1.4140    4.2040 C   0  0  0  0  0  0  0  0  0  0  0  0
   -4.2300   -0.6020    1.9440 C   0  0  0  0  0  0  0  0  0  0  0  0
   -2.9460   -0.2880    2.3270 C   0  0  0  0  0  0  0  0  0  0  0  0
   -1.9170    0.4090    1.0570 P   0  0  0  0  0  0  0  0  0  0  0  0
   -0.1920    0.1910    1.2520 N   0  0  0  0  0  0  0  0  0  0  0  0
    0.7940    0.4200    0.2580 C   0  0  2  0  0  0  0  0  0  0  0  0
    0.8710   -0.6740   -0.7480 C   0  0  0  0  0  0  0  0  0  0  0  0
    1.2100   -2.0350   -0.2770 C   0  0  1  0  0  0  0  0  0  0  0  0
    0.2670   -2.6440    0.6950 C   0  0  0  0  0  0  0  0  0  0  0  0
    1.3150   -2.9790   -1.4750 C   0  0  0  0  0  0  0  0  0  0  0  0
    2.4710   -2.0470    0.3460 O   0  0  0  0  0  0  0  0  0  0  0  0
    2.0660    0.9180    0.8100 C   0  0  0  0  0  0  0  0  0  0  0  0
    2.0660    1.2470    2.0180 O   0  0  0  0  0  0  0  0  0  0  0  0
    3.3120    1.0470    0.0620 C   0  0  0  0  0  0  0  0  0  0  0  0
    4.4320    1.5260    0.5630 N   0  0  0  0  0  0  0  0  0  0  0  0
    5.4680    1.5460   -0.3450 C   0  0  0  0  0  0  0  0  0  0  0  0
    6.7650    1.9310   -0.2250 C   0  0  0  0  0  0  0  0  0  0  0  0
    7.6090    1.8740   -1.3020 N   0  0  0  0  0  0  0  0  0  0  0  0
    8.5330    1.1520   -1.6730 C   0  0  0  0  0  0  0  0  0  0  0  0
    9.0340   -0.0130   -0.9130 C   0  0  0  0  0  0  0  0  0  0  0  0
    9.3720    0.2410    0.4530 N   0  0  0  0  0  0  0  0  0  0  0  0
   10.5370    1.0540    0.5920 C   0  0  0  0  0  0  0  0  0  0  0  0
    9.4980   -1.0520    1.1400 C   0  0  0  0  0  0  0  0  0  0  0  0
    4.9780    1.0300   -1.5600 O   0  0  0  0  0  0  0  0  0  0  0  0
    3.6310    0.6670   -1.3230 C   0  0  0  0  0  0  0  0  0  0  0  0
   -2.7650    0.5630   -0.4340 C   0  0  0  0  0  0  0  0  0  0  0  0
   -2.1160    1.1120   -1.5640 O   0  0  0  0  0  0  0  0  0  0  0  0
  1  2  2  0
  2  3  1  0
  3  4  1  0
  4  5  2  0
  4  6  1  0
  6  7  1  0
  7  8  1  0
  8  9  1  0
  8 42  2  0
  9 10  2  0
  9 18  1  0
 10 11  1  0
 10 12  1  0
 12 13  1  0
 12 16  2  0
 13 14  2  0
 13 15  1  0
 16 17  1  0
 16 18  1  0
 18 19  2  0
 19 20  1  0
 20 21  1  0
 20 42  1  0
 21 22  1  0
 22 23  1  1
 22 28  1  0
 23 24  1  0
 24 25  1  1
 24 26  1  0
 24 27  1  0
 28 29  2  0
 28 30  1  0
 30 31  2  0
 30 41  1  0
 31 32  1  0
 32 33  2  3
 32 40  1  0
 33 34  1  0
 34 35  2  3
 35 36  1  0
 36 37  1  0
 37 38  1  0
 37 39  1  0
 40 41  1  0
 42 43  1  0
M  END
