
     RDKit          3D

 43 46  0  0  0  0  0  0  0  0999 V2000
   -7.4300   -2.9590   -2.3010 C   0  0  0  0  0  0  0  0  0  0  0  0
   -7.7770   -1.9910   -1.3300 O   0  0  0  0  0  0  0  0  0  0  0  0
   -6.8080   -1.0920   -0.9100 C   0  0  0  0  0  0  0  0  0  0  0  0
   -5.5120   -1.0790   -1.3830 C   0  0  0  0  0  0  0  0  0  0  0  0
   -4.5780   -0.1610   -0.9330 C   0  0  0  0  0  0  0  0  0  0  0  0
   -4.9090    0.7940    0.0210 C   0  0  0  0  0  0  0  0  0  0  0  0
   -3.9140    1.7650    0.4680 C   0  0  0  0  0  0  0  0  0  0  0  0
   -4.0840    3.0800    0.3650 N   0  0  0  0  0  0  0  0  0  0  0  0
   -3.1530    3.9670    0.7830 C   0  0  0  0  0  0  0  0  0  0  0  0
   -1.9700    3.5280    1.3440 C   0  0  0  0  0  0  0  0  0  0  0  0
   -1.7490    2.1640    1.4730 C   0  0  0  0  0  0  0  0  0  0  0  0
   -2.7250    1.2880    1.0320 C   0  0  0  0  0  0  0  0  0  0  0  0
   -2.5420   -0.1050    1.1920 N   0  0  0  0  0  0  0  0  0  0  0  0
   -1.2740   -0.6270    1.6340 C   0  0  0  0  0  0  0  0  0  0  0  0
   -0.2820   -0.4480    0.4980 C   0  0  0  0  0  0  0  0  0  0  0  0
    1.0140   -0.9530    0.9290 N   0  0  0  0  0  0  0  0  0  0  0  0
    2.1430   -0.9340    0.0820 C   0  0  0  0  0  0  0  0  0  0  0  0
    2.8910   -1.9470   -0.2660 C   0  0  0  0  0  0  0  0  0  0  0  0
    3.4480   -1.8450   -1.4290 C   0  0  0  0  0  0  0  0  0  0  0  0
    3.8680   -2.9570   -2.2960 C   0  0  0  0  0  0  0  0  0  0  0  0
    3.8530   -4.1840   -1.7030 O   0  0  0  0  0  0  0  0  0  0  0  0
    4.7260   -4.3300   -0.6450 C   0  0  0  0  0  0  0  0  0  0  0  0
    4.5490   -5.7670   -0.1280 C   0  0  0  0  0  0  0  0  0  0  0  0
    5.7000   -6.0680    1.3050 P   0  0  0  0  0  0  0  0  0  0  0  0
    4.7940   -5.9500    2.7990 O   0  0  0  0  0  0  0  0  0  0  0  0
    6.9590   -4.8720    1.3780 O   0  0  0  0  0  0  0  0  0  0  0  0
    7.9360   -5.0610    0.4190 C   0  0  0  0  0  0  0  0  0  0  0  0
    3.5530   -0.3990   -1.7230 C   0  0  0  0  0  0  0  0  0  0  0  0
    2.7450    0.1960   -0.6090 C   0  0  0  0  0  0  0  0  0  0  0  0
    2.5630    1.7840   -0.2300 P   0  0  0  0  0  0  0  0  0  0  0  0
    3.3890    3.1150   -1.1960 C   0  0  0  0  0  0  0  0  0  0  0  0
    3.8680    2.7910   -2.4900 N   0  0  0  0  0  0  0  0  0  0  0  0
    3.5270    4.2970   -0.7140 N   0  0  0  0  0  0  0  0  0  0  0  0
    3.0390    4.6110    0.5950 C   0  0  0  0  0  0  0  0  0  0  0  0
    3.6050    5.9360    1.0990 C   0  0  0  0  0  0  0  0  0  0  0  0
    3.2200    6.9570    0.2140 O   0  0  0  0  0  0  0  0  0  0  0  0
    3.8160    8.4880    0.7020 P   0  0  0  0  0  0  0  0  0  0  0  0
   -6.2060    0.7750    0.4870 C   0  0  0  0  0  0  0  0  0  0  0  0
   -7.1410   -0.1360    0.0450 C   0  0  0  0  0  0  0  0  0  0  0  0
   -8.4360   -0.0800    0.5780 O   0  0  0  0  0  0  0  0  0  0  0  0
   -8.7010    0.4890    1.8430 C   0  0  0  0  0  0  0  0  0  0  0  0
   -7.6530    1.4190    2.3410 C   0  0  0  0  0  0  0  0  0  0  0  0
   -6.6100    1.6900    1.4340 O   0  0  0  0  0  0  0  0  0  0  0  0
  1  2  1  0
  2  3  1  0
  3  4  2  0
  3 39  1  0
  4  5  1  0
  5  6  2  0
  6  7  1  0
  6 38  1  0
  7  8  2  0
  7 12  1  0
  8  9  1  0
  9 10  2  0
 10 11  1  0
 11 12  2  0
 12 13  1  0
 13 14  1  0
 14 15  1  0
 15 16  1  0
 16 17  1  0
 17 18  2  0
 17 29  1  0
 18 19  2  0
 19 20  1  0
 19 28  1  0
 20 21  1  0
 21 22  1  0
 22 23  1  0
 23 24  1  0
 24 25  1  0
 24 26  1  0
 26 27  1  0
 28 29  1  0
 29 30  2  3
 30 31  1  0
 31 32  1  0
 31 33  2  3
 33 34  1  0
 34 35  1  0
 35 36  1  0
 36 37  1  0
 38 39  2  0
 38 43  1  0
 39 40  1  0
 40 41  1  0
 41 42  1  0
 42 43  1  0
M  END
