
     RDKit          3D

 35 38  0  0  0  0  0  0  0  0999 V2000
    8.7990   -2.2860   -0.5980 N   0  0  0  0  0  0  0  0  0  0  0  0
    8.2210   -1.0260   -0.8700 C   0  0  0  0  0  0  0  0  0  0  0  0
    8.6390   -0.1970   -1.8650 N   0  0  0  0  0  0  0  0  0  0  0  0
    8.0140    1.0090   -2.0460 C   0  0  0  0  0  0  0  0  0  0  0  0
    7.0040    1.4120   -1.2610 N   0  0  0  0  0  0  0  0  0  0  0  0
    6.5980    0.5850   -0.2630 C   0  0  0  0  0  0  0  0  0  0  0  0
    7.1900   -0.6200   -0.0700 C   0  0  0  0  0  0  0  0  0  0  0  0
    6.5570   -1.2320    0.9680 N   0  0  0  0  0  0  0  0  0  0  0  0
    5.6120   -0.3990    1.3980 C   0  0  0  0  0  0  0  0  0  0  0  0
    5.6370    0.7460    0.6300 N   0  0  0  0  0  0  0  0  0  0  0  0
    4.7500    1.9070    0.7940 C   0  0  2  0  0  0  0  0  0  0  0  0
    3.7010    1.4200    1.5810 O   0  0  0  0  0  0  0  0  0  0  0  0
    2.8560    0.7810    0.7440 C   0  0  2  0  0  0  0  0  0  0  0  0
    2.1020   -0.4090    1.2270 C   0  0  0  0  0  0  0  0  0  0  0  0
    1.2660   -0.8230    0.1310 O   0  0  0  0  0  0  0  0  0  0  0  0
   -0.2630   -0.6360    0.3850 P   0  0  0  0  0  0  0  0  0  0  0  0
   -0.9120    0.8510   -0.2630 O   0  0  0  0  0  0  0  0  0  0  0  0
   -0.1890   -0.0140    1.7690 O   0  0  0  0  0  0  0  0  0  0  0  0
   -1.4550   -1.6490    0.9250 O   0  0  0  0  0  0  0  0  0  0  0  0
   -2.8690   -0.8940    0.3070 P   0  0  0  0  0  0  0  0  0  0  0  0
   -2.6310    0.1750   -0.9440 O   0  0  0  0  0  0  0  0  0  0  0  0
   -3.1020   -2.1220   -0.5150 O   0  0  0  0  0  0  0  0  0  0  0  0
   -4.2430   -0.8730    1.1130 O   0  0  0  0  0  0  0  0  0  0  0  0
   -5.3430   -1.3100    0.3520 C   0  0  0  0  0  0  0  0  0  0  0  0
   -6.6240   -0.9860    1.0250 C   0  0  1  0  0  0  0  0  0  0  0  0
   -6.6230    0.5040    1.1370 N   0  0  0  0  0  0  0  0  0  0  0  0
   -6.5060    0.9040   -0.2720 C   0  0  0  0  0  0  0  0  0  0  0  0
   -7.2860   -0.1380   -1.0610 C   0  0  2  0  0  0  0  0  0  0  0  0
   -8.4030    0.4920   -1.6080 O   0  0  0  0  0  0  0  0  0  0  0  0
   -7.7390   -1.1890   -0.0410 C   0  0  2  0  0  0  0  0  0  0  0  0
   -8.9410   -0.8490    0.5300 O   0  0  0  0  0  0  0  0  0  0  0  0
    3.4400    0.7030   -0.6370 C   0  0  1  0  0  0  0  0  0  0  0  0
    2.5190    0.6460   -1.6490 O   0  0  0  0  0  0  0  0  0  0  0  0
    4.0970    2.1270   -0.5840 C   0  0  1  0  0  0  0  0  0  0  0  0
    3.0870    3.0310   -0.4770 O   0  0  0  0  0  0  0  0  0  0  0  0
  1  2  1  0
  2  3  2  0
  2  7  1  0
  3  4  1  0
  4  5  2  0
  5  6  1  0
  6  7  2  0
  6 10  1  0
  7  8  1  0
  8  9  2  0
  9 10  1  0
 11 10  1  6
 11 12  1  0
 11 34  1  0
 12 13  1  0
 13 14  1  1
 13 32  1  0
 14 15  1  0
 15 16  1  0
 16 17  1  0
 16 18  1  0
 16 19  1  0
 19 20  1  0
 20 21  1  0
 20 22  1  0
 20 23  1  0
 23 24  1  0
 25 24  1  6
 25 26  1  0
 25 30  1  0
 26 27  1  0
 27 28  1  0
 28 29  1  1
 28 30  1  0
 30 31  1  1
 32 33  1  6
 32 34  1  0
 34 35  1  1
M  CHG  1  26   1
M  END
