
     RDKit          3D

 43 48  0  0  0  0  0  0  0  0999 V2000
   -6.0580    1.6200    1.7480 C   0  0  0  0  0  0  0  0  0  0  0  0
   -5.6540    1.8950    0.3820 N   0  0  0  0  0  0  0  0  0  0  0  0
   -6.5850    2.5420   -0.5350 C   0  0  0  0  0  0  0  0  0  0  0  0
   -7.3760    1.4840   -1.2330 C   0  0  0  0  0  0  0  0  0  0  0  0
   -8.3140    1.9560   -2.1480 O   0  0  0  0  0  0  0  0  0  0  0  0
   -7.9630    2.7180   -3.2480 C   0  0  0  0  0  0  0  0  0  0  0  0
   -6.7420    2.9800   -3.4070 O   0  0  0  0  0  0  0  0  0  0  0  0
   -8.9060    3.1730   -4.1370 F   0  0  0  0  0  0  0  0  0  0  0  0
   -4.3380    1.5290   -0.0620 C   0  0  0  0  0  0  0  0  0  0  0  0
   -3.9790    1.7580   -1.2280 O   0  0  0  0  0  0  0  0  0  0  0  0
   -3.4700    0.9230    0.8000 O   0  0  0  0  0  0  0  0  0  0  0  0
   -2.1520    0.5190    0.4750 C   0  0  1  0  0  0  0  0  0  0  0  0
   -1.1620    1.1300    1.3670 C   0  0  0  0  0  0  0  0  0  0  0  0
   -1.5840    1.8050    2.3700 O   0  0  0  0  0  0  0  0  0  0  0  0
    0.2440    1.0210    1.1830 N   0  0  0  0  0  0  0  0  0  0  0  0
    1.4240    1.4630    1.8770 C   0  0  0  0  0  0  0  0  0  0  0  0
    2.2110    0.8120    0.8370 C   0  0  0  0  0  0  0  0  0  0  0  0
    1.0750    0.4130    0.2100 C   0  0  0  0  0  0  0  0  0  0  0  0
    1.2480   -0.3190   -0.9560 C   0  0  0  0  0  0  0  0  0  0  0  0
    2.5020   -0.6150   -1.4340 C   0  0  0  0  0  0  0  0  0  0  0  0
    2.9250   -1.2620   -2.5240 N   0  0  0  0  0  0  0  0  0  0  0  0
    4.2170   -1.2710   -2.5720 N   0  0  0  0  0  0  0  0  0  0  0  0
    4.7070   -0.6000   -1.4620 C   0  0  0  0  0  0  0  0  0  0  0  0
    6.0680   -0.4240   -1.2800 N   0  0  0  0  0  0  0  0  0  0  0  0
    6.7480   -0.0700   -0.1040 C   0  0  0  0  0  0  0  0  0  0  0  0
    6.6240   -0.9160    0.8950 N   0  0  0  0  0  0  0  0  0  0  0  0
    7.6070    1.1020    0.0470 C   0  0  1  0  0  0  0  0  0  0  0  0
    8.1780    1.2350    1.4700 C   0  0  0  0  0  0  0  0  0  0  0  0
    9.1340    0.2540    1.5740 O   0  0  0  0  0  0  0  0  0  0  0  0
   10.1400    0.5830    0.7910 O   0  0  0  0  0  0  0  0  0  0  0  0
    9.2990    0.7690   -0.7470 P   0  0  0  0  0  0  0  0  0  0  0  0
    9.2200   -0.7830   -1.5130 O   0  0  0  0  0  0  0  0  0  0  0  0
    3.6330   -0.2080   -0.7880 N   0  0  0  0  0  0  0  0  0  0  0  0
    3.4690    0.5000    0.3340 C   0  0  0  0  0  0  0  0  0  0  0  0
    4.5670    0.9750    1.0610 O   0  0  0  0  0  0  0  0  0  0  0  0
   -2.1600   -0.9600    0.6170 C   0  0  0  0  0  0  0  0  0  0  0  0
   -1.2540   -1.5930    1.4260 C   0  0  0  0  0  0  0  0  0  0  0  0
   -1.2500   -2.9910    1.5500 C   0  0  0  0  0  0  0  0  0  0  0  0
   -2.1610   -3.7610    0.8570 C   0  0  0  0  0  0  0  0  0  0  0  0
   -3.0850   -3.1290    0.0320 C   0  0  0  0  0  0  0  0  0  0  0  0
   -3.0590   -1.7540   -0.0650 C   0  0  0  0  0  0  0  0  0  0  0  0
   -3.6480   -4.4600   -0.3230 C   0  0  0  0  0  0  0  0  0  0  0  0
   -2.6480   -5.1460    0.5690 C   0  0  0  0  0  0  0  0  0  0  0  0
  1  2  1  0
  2  3  1  0
  2  9  1  0
  3  4  1  0
  4  5  1  0
  5  6  1  0
  6  7  2  0
  6  8  1  0
  9 10  2  0
  9 11  1  0
 12 11  1  1
 12 13  1  0
 12 36  1  0
 13 14  2  0
 13 15  1  0
 15 16  1  0
 15 18  1  0
 16 17  1  0
 17 18  1  0
 17 34  2  0
 18 19  2  0
 19 20  1  0
 20 21  2  0
 20 33  1  0
 21 22  1  0
 22 23  2  0
 23 24  1  0
 23 33  1  0
 24 25  1  0
 25 26  2  0
 27 25  1  1
 27 28  1  0
 27 31  1  0
 28 29  1  0
 29 30  1  0
 30 31  1  0
 31 32  1  0
 33 34  1  0
 34 35  1  0
 36 37  2  0
 36 41  1  0
 37 38  1  0
 38 39  2  0
 39 40  1  0
 39 43  1  0
 40 41  2  0
 40 42  1  0
 42 43  1  0
M  END
