
     RDKit          3D

 47 52  0  0  0  0  0  0  0  0999 V2000
   12.7910    2.5240   -1.9650 C   0  0  0  0  0  0  0  0  0  0  0  0
   12.0310    1.2150   -2.1690 C   0  0  0  0  0  0  0  0  0  0  0  0
   11.9940    0.4810   -0.8540 C   0  0  0  0  0  0  0  0  0  0  0  0
   11.2750    1.3570    0.1600 C   0  0  0  0  0  0  0  0  0  0  0  0
   11.2450    0.7400    1.3760 O   0  0  0  0  0  0  0  0  0  0  0  0
   10.6240   -0.4710    1.4710 C   0  0  0  0  0  0  0  0  0  0  0  0
    9.1870   -0.4430    1.1610 C   0  0  0  0  0  0  0  0  0  0  0  0
    8.3800    0.4680    1.8620 C   0  0  0  0  0  0  0  0  0  0  0  0
    7.0300    0.4870    1.6410 C   0  0  0  0  0  0  0  0  0  0  0  0
    6.3840   -0.3470    0.7570 C   0  0  0  0  0  0  0  0  0  0  0  0
    4.9380   -0.3530    0.5780 C   0  0  0  0  0  0  0  0  0  0  0  0
    4.1440    0.7490    0.6970 C   0  0  0  0  0  0  0  0  0  0  0  0
    2.7560    0.6940    0.5770 C   0  0  0  0  0  0  0  0  0  0  0  0
    2.1160   -0.5060    0.3260 C   0  0  0  0  0  0  0  0  0  0  0  0
    0.6900   -0.6430    0.2340 C   0  0  0  0  0  0  0  0  0  0  0  0
    0.2140   -1.8090    0.0150 O   0  0  0  0  0  0  0  0  0  0  0  0
   -0.2310    0.4120    0.3730 O   0  0  0  0  0  0  0  0  0  0  0  0
   -1.5810    0.0050    0.2690 C   0  0  0  0  0  0  0  0  0  0  0  0
   -2.2140   -0.4410    1.4390 C   0  0  0  0  0  0  0  0  0  0  0  0
   -3.5240   -0.8600    1.4310 C   0  0  0  0  0  0  0  0  0  0  0  0
   -4.2870   -0.8650    0.2670 C   0  0  0  0  0  0  0  0  0  0  0  0
   -5.6620   -1.3460    0.2190 C   0  0  2  0  0  0  0  0  0  0  0  0
   -6.1710   -1.8890    1.5430 C   0  0  0  0  0  0  0  0  0  0  0  0
   -5.6580   -3.3210    1.5940 C   0  0  0  0  0  0  0  0  0  0  0  0
   -6.5220   -4.0650    0.8180 O   0  0  0  0  0  0  0  0  0  0  0  0
   -6.6390   -3.5690   -0.4310 C   0  0  0  0  0  0  0  0  0  0  0  0
   -5.8410   -2.4100   -0.8580 C   0  0  1  0  0  0  0  0  0  0  0  0
   -6.4420   -1.7400   -1.9950 N   0  0  0  0  0  0  0  0  0  0  0  0
   -6.8600   -2.3250   -3.2410 C   0  0  0  0  0  0  0  0  0  0  0  0
   -6.5420   -0.3670   -1.6550 C   0  0  0  0  0  0  0  0  0  0  0  0
   -6.5940    0.6480   -2.3930 O   0  0  0  0  0  0  0  0  0  0  0  0
   -6.5730   -0.3070   -0.2090 N   0  0  0  0  0  0  0  0  0  0  0  0
   -7.2510    0.6210    0.6300 C   0  0  0  0  0  0  0  0  0  0  0  0
   -6.8750    0.6350    1.8690 O   0  0  0  0  0  0  0  0  0  0  0  0
   -8.3000    1.5380    0.2550 C   0  0  0  0  0  0  0  0  0  0  0  0
   -9.0610    1.5070   -0.8780 C   0  0  0  0  0  0  0  0  0  0  0  0
  -10.0200    2.4530   -1.2230 C   0  0  0  0  0  0  0  0  0  0  0  0
  -10.2430    3.5220   -0.3620 C   0  0  0  0  0  0  0  0  0  0  0  0
  -11.2600    4.5280   -0.7280 C   0  0  0  0  0  0  0  0  0  0  0  0
   -9.4930    3.5790    0.7890 C   0  0  0  0  0  0  0  0  0  0  0  0
   -8.5480    2.6320    1.1120 C   0  0  0  0  0  0  0  0  0  0  0  0
   -3.6520   -0.4260   -0.8630 C   0  0  0  0  0  0  0  0  0  0  0  0
   -2.3140    0.0060   -0.8730 C   0  0  0  0  0  0  0  0  0  0  0  0
    2.9230   -1.6350    0.2000 C   0  0  0  0  0  0  0  0  0  0  0  0
    4.2960   -1.5670    0.3210 C   0  0  0  0  0  0  0  0  0  0  0  0
    7.1970   -1.2410    0.0680 C   0  0  0  0  0  0  0  0  0  0  0  0
    8.5610   -1.2720    0.2810 C   0  0  0  0  0  0  0  0  0  0  0  0
  1  2  1  0
  2  3  1  0
  3  4  1  0
  4  5  1  0
  5  6  1  0
  6  7  1  0
  7  8  2  0
  7 47  1  0
  8  9  1  0
  9 10  2  0
 10 11  1  0
 10 46  1  0
 11 12  2  0
 11 45  1  0
 12 13  1  0
 13 14  2  0
 14 15  1  0
 14 44  1  0
 15 16  2  0
 15 17  1  0
 17 18  1  0
 18 19  2  0
 18 43  1  0
 19 20  1  0
 20 21  2  0
 22 21  1  1
 21 42  1  0
 22 23  1  0
 22 27  1  0
 22 32  1  0
 23 24  1  0
 24 25  1  0
 25 26  1  0
 27 26  1  1
 27 28  1  0
 28 29  1  0
 28 30  1  0
 30 31  2  0
 30 32  1  0
 32 33  1  0
 33 34  2  0
 33 35  1  0
 35 36  2  0
 35 41  1  0
 36 37  1  0
 37 38  2  0
 38 39  1  0
 38 40  1  0
 40 41  2  0
 42 43  2  0
 44 45  2  0
 46 47  2  0
M  END
