
     RDKit          3D

 47 51  0  0  0  0  0  0  0  0999 V2000
   -7.2060   -0.3490    3.6890 C   0  0  0  0  0  0  0  0  0  0  0  0
   -6.0500   -0.1500    2.7720 C   0  0  0  0  0  0  0  0  0  0  0  0
   -5.9070   -0.9690    1.6810 C   0  0  0  0  0  0  0  0  0  0  0  0
   -4.8170   -0.7730    0.8230 C   0  0  0  0  0  0  0  0  0  0  0  0
   -3.9000    0.2220    1.0600 C   0  0  0  0  0  0  0  0  0  0  0  0
   -2.8430    0.4210    0.2380 O   0  0  0  0  0  0  0  0  0  0  0  0
   -2.4660   -0.2510   -0.9170 C   0  0  1  0  0  0  0  0  0  0  0  0
   -2.4900    0.6770   -2.1390 C   0  0  0  0  0  0  0  0  0  0  0  0
   -3.7540    1.2240   -2.3830 O   0  0  0  0  0  0  0  0  0  0  0  0
   -4.8950    0.5040   -2.6710 C   0  0  0  0  0  0  0  0  0  0  0  0
   -4.8190   -0.7380   -2.7270 O   0  0  0  0  0  0  0  0  0  0  0  0
   -6.2120    1.1460   -2.9180 C   0  0  2  0  0  0  0  0  0  0  0  0
   -7.2280    0.0910   -3.2690 C   0  0  0  0  0  0  0  0  0  0  0  0
   -6.1210    2.1740   -4.0040 C   0  0  0  0  0  0  0  0  0  0  0  0
   -6.7240    1.8440   -1.6720 C   0  0  0  0  0  0  0  0  0  0  0  0
   -1.0710   -0.7680   -0.7330 C   0  0  0  0  0  0  0  0  0  0  0  0
   -0.7380   -2.0750   -0.9990 C   0  0  0  0  0  0  0  0  0  0  0  0
    0.5380   -2.5350   -0.8380 C   0  0  0  0  0  0  0  0  0  0  0  0
    1.6060   -1.7200   -0.3920 C   0  0  0  0  0  0  0  0  0  0  0  0
    2.9310   -2.3260   -0.2760 C   0  0  2  0  0  0  0  0  0  0  0  0
    3.8090   -1.9060    0.8360 C   0  0  0  0  0  0  0  0  0  0  0  0
    4.8720   -2.9360    0.9610 N   0  0  0  0  0  0  0  0  0  0  0  0
    4.3120   -4.2310    1.1740 C   0  0  0  0  0  0  0  0  0  0  0  0
    5.7650   -2.8110   -0.1450 C   0  0  0  0  0  0  0  0  0  0  0  0
    5.0620   -2.6030   -1.4370 C   0  0  0  0  0  0  0  0  0  0  0  0
    5.8680   -2.6680   -2.5680 C   0  0  0  0  0  0  0  0  0  0  0  0
    5.2810   -2.4900   -3.7960 C   0  0  0  0  0  0  0  0  0  0  0  0
    3.9120   -2.2500   -3.9020 C   0  0  0  0  0  0  0  0  0  0  0  0
    3.1370   -2.1900   -2.7720 C   0  0  0  0  0  0  0  0  0  0  0  0
    3.7110   -2.3660   -1.5440 C   0  0  0  0  0  0  0  0  0  0  0  0
    1.2480   -0.4350   -0.1370 C   0  0  0  0  0  0  0  0  0  0  0  0
    2.2460    0.5140    0.3300 N   0  0  0  0  0  0  0  0  0  0  0  0
    3.0090    1.1270   -0.6890 C   0  0  0  0  0  0  0  0  0  0  0  0
    2.3800    2.4230   -1.2030 C   0  0  0  0  0  0  0  0  0  0  0  0
    3.1600    2.9930   -2.2000 O   0  0  0  0  0  0  0  0  0  0  0  0
    2.3000    0.6850    1.7020 C   0  0  0  0  0  0  0  0  0  0  0  0
    1.4770   -0.0520    2.4320 O   0  0  0  0  0  0  0  0  0  0  0  0
    3.1290    1.5570    2.5060 C   0  0  0  0  0  0  0  0  0  0  0  0
    3.9840    2.5250    2.0540 C   0  0  0  0  0  0  0  0  0  0  0  0
    4.7840    3.3050    2.8970 C   0  0  0  0  0  0  0  0  0  0  0  0
    4.7450    3.1270    4.2570 C   0  0  0  0  0  0  0  0  0  0  0  0
    5.6120    3.9730    5.1180 C   0  0  0  0  0  0  0  0  0  0  0  0
    3.9090    2.1770    4.7440 C   0  0  0  0  0  0  0  0  0  0  0  0
    3.1280    1.4170    3.9140 C   0  0  0  0  0  0  0  0  0  0  0  0
   -0.0600    0.0450   -0.2990 C   0  0  0  0  0  0  0  0  0  0  0  0
   -4.0690    1.0300    2.1640 C   0  0  0  0  0  0  0  0  0  0  0  0
   -5.1530    0.8400    3.0240 C   0  0  0  0  0  0  0  0  0  0  0  0
  1  2  1  0
  2  3  2  0
  2 47  1  0
  3  4  1  0
  4  5  2  0
  5  6  1  0
  5 46  1  0
  6  7  1  0
  7  8  1  6
  7 16  1  0
  8  9  1  0
  9 10  1  0
 10 11  2  0
 10 12  1  0
 12 13  1  6
 12 14  1  0
 12 15  1  0
 16 17  2  0
 16 45  1  0
 17 18  1  0
 18 19  2  0
 20 19  1  6
 19 31  1  0
 20 21  1  0
 20 30  1  0
 21 22  1  0
 22 23  1  0
 22 24  1  0
 24 25  1  0
 25 26  2  0
 25 30  1  0
 26 27  1  0
 27 28  2  0
 28 29  1  0
 29 30  2  0
 31 32  1  0
 31 45  2  0
 32 33  1  0
 32 36  1  0
 33 34  1  0
 34 35  1  0
 36 37  2  0
 36 38  1  0
 38 39  2  0
 38 44  1  0
 39 40  1  0
 40 41  2  0
 41 42  1  0
 41 43  1  0
 43 44  2  0
 46 47  2  0
M  END
