
     RDKit          3D

 48 52  0  0  0  0  0  0  0  0999 V2000
   11.4330    3.8160    0.8190 C   0  0  0  0  0  0  0  0  0  0  0  0
   10.0450    3.7560    0.8130 O   0  0  0  0  0  0  0  0  0  0  0  0
    9.2650    2.6590    0.4900 C   0  0  0  0  0  0  0  0  0  0  0  0
    7.9000    2.8100    0.5470 C   0  0  0  0  0  0  0  0  0  0  0  0
    7.0990    1.7070    0.2230 C   0  0  0  0  0  0  0  0  0  0  0  0
    7.5940    0.4900   -0.1460 C   0  0  0  0  0  0  0  0  0  0  0  0
    6.8300   -0.6880   -0.4900 C   0  0  0  0  0  0  0  0  0  0  0  0
    5.5290   -0.6740   -0.5050 C   0  0  0  0  0  0  0  0  0  0  0  0
    4.7100   -1.8560   -0.8490 C   0  0  0  0  0  0  0  0  0  0  0  0
    5.2520   -3.0760   -1.1730 C   0  0  0  0  0  0  0  0  0  0  0  0
    4.4250   -4.1680   -1.4750 C   0  0  0  0  0  0  0  0  0  0  0  0
    3.0620   -4.0040   -1.4420 C   0  0  0  0  0  0  0  0  0  0  0  0
    2.4930   -2.7850   -1.1180 C   0  0  0  0  0  0  0  0  0  0  0  0
    3.3330   -1.7330   -0.8280 C   0  0  0  0  0  0  0  0  0  0  0  0
    2.7780   -0.5000   -0.5020 O   0  0  0  0  0  0  0  0  0  0  0  0
    1.3820   -0.3290   -0.4370 C   0  0  0  0  0  0  0  0  0  0  0  0
    0.7220   -0.4150    0.7660 C   0  0  0  0  0  0  0  0  0  0  0  0
   -0.6430   -0.2500    0.8340 C   0  0  0  0  0  0  0  0  0  0  0  0
   -1.4490    0.0060   -0.2700 C   0  0  0  0  0  0  0  0  0  0  0  0
   -2.9260    0.2130   -0.1440 C   0  0  1  0  0  0  0  0  0  0  0  0
   -3.2090    1.0570    1.0740 C   0  0  0  0  0  0  0  0  0  0  0  0
   -4.6150    1.3260    1.2270 N   0  0  0  0  0  0  0  0  0  0  0  0
   -5.0570    2.1290    2.3610 C   0  0  0  0  0  0  0  0  0  0  0  0
   -4.1610    2.5460    3.1510 O   0  0  0  0  0  0  0  0  0  0  0  0
   -6.4460    2.4480    2.5920 C   0  0  0  0  0  0  0  0  0  0  0  0
   -7.4850    1.8130    1.9800 C   0  0  0  0  0  0  0  0  0  0  0  0
   -8.8070    2.1870    2.2530 C   0  0  0  0  0  0  0  0  0  0  0  0
   -9.0870    3.2010    3.1410 C   0  0  0  0  0  0  0  0  0  0  0  0
  -10.4050    3.5930    3.4300 O   0  0  0  0  0  0  0  0  0  0  0  0
   -8.0470    3.8420    3.7590 C   0  0  0  0  0  0  0  0  0  0  0  0
   -6.7490    3.4650    3.4830 C   0  0  0  0  0  0  0  0  0  0  0  0
   -3.3850    0.8900   -1.3860 C   0  0  0  0  0  0  0  0  0  0  0  0
   -3.5860    2.1540   -1.2200 O   0  0  0  0  0  0  0  0  0  0  0  0
   -3.6240    0.3840   -2.6390 N   0  0  0  0  0  0  0  0  0  0  0  0
   -4.0600    1.3040   -3.7100 C   0  0  0  0  0  0  0  0  0  0  0  0
   -3.5180   -0.9920   -3.0420 C   0  0  0  0  0  0  0  0  0  0  0  0
   -3.6110   -1.0900    0.0090 C   0  0  0  0  0  0  0  0  0  0  0  0
   -4.9030   -1.2930   -0.4550 C   0  0  0  0  0  0  0  0  0  0  0  0
   -5.5050   -2.5100   -0.2880 C   0  0  0  0  0  0  0  0  0  0  0  0
   -4.9020   -3.5820    0.3250 C   0  0  0  0  0  0  0  0  0  0  0  0
   -5.6230   -4.8850    0.4720 C   0  0  0  0  0  0  0  0  0  0  0  0
   -3.6260   -3.4030    0.7880 C   0  0  0  0  0  0  0  0  0  0  0  0
   -3.0000   -2.1490    0.6190 C   0  0  0  0  0  0  0  0  0  0  0  0
   -0.7580    0.0890   -1.4690 C   0  0  0  0  0  0  0  0  0  0  0  0
    0.6280   -0.0760   -1.5450 C   0  0  0  0  0  0  0  0  0  0  0  0
    8.9940    0.3830   -0.1900 C   0  0  0  0  0  0  0  0  0  0  0  0
    9.6130   -0.9150   -0.5920 C   0  0  0  0  0  0  0  0  0  0  0  0
    9.8040    1.4440    0.1210 C   0  0  0  0  0  0  0  0  0  0  0  0
  1  2  1  0
  2  3  1  0
  3  4  2  0
  3 48  1  0
  4  5  1  0
  5  6  2  0
  6  7  1  0
  6 46  1  0
  7  8  2  3
  8  9  1  0
  9 10  2  0
  9 14  1  0
 10 11  1  0
 11 12  2  0
 12 13  1  0
 13 14  2  0
 14 15  1  0
 15 16  1  0
 16 17  2  0
 16 45  1  0
 17 18  1  0
 18 19  2  0
 19 20  1  0
 19 44  1  0
 20 21  1  1
 20 32  1  0
 20 37  1  0
 21 22  1  0
 22 23  1  0
 23 24  2  0
 23 25  1  0
 25 26  2  0
 25 31  1  0
 26 27  1  0
 27 28  2  0
 28 29  1  0
 28 30  1  0
 30 31  2  0
 32 33  2  0
 32 34  1  0
 34 35  1  0
 34 36  1  0
 37 38  2  0
 37 43  1  0
 38 39  1  0
 39 40  2  0
 40 41  1  0
 40 42  1  0
 42 43  2  0
 44 45  2  0
 46 47  1  0
 46 48  2  0
M  END
