
     RDKit          3D

 48 53  0  0  0  0  0  0  0  0999 V2000
   -5.1710   -5.3250    0.4960 C   0  0  0  0  0  0  0  0  0  0  0  0
   -5.3220   -4.9160   -0.9360 C   0  0  0  0  0  0  0  0  0  0  0  0
   -4.3270   -4.0740   -1.4200 O   0  0  0  0  0  0  0  0  0  0  0  0
   -4.0640   -2.7920   -0.8970 C   0  0  0  0  0  0  0  0  0  0  0  0
   -4.8140   -2.2990    0.1470 C   0  0  0  0  0  0  0  0  0  0  0  0
   -4.5210   -1.0520    0.6160 C   0  0  0  0  0  0  0  0  0  0  0  0
   -3.4720   -0.2810    0.0470 C   0  0  0  0  0  0  0  0  0  0  0  0
   -3.3490    1.0240    0.6130 C   0  0  0  0  0  0  0  0  0  0  0  0
   -3.5130    2.1580   -0.0790 C   0  0  0  0  0  0  0  0  0  0  0  0
   -3.4180    3.4100    0.4940 C   0  0  0  0  0  0  0  0  0  0  0  0
   -3.1420    3.5220    1.8390 C   0  0  0  0  0  0  0  0  0  0  0  0
   -2.9710    2.3640    2.5620 C   0  0  0  0  0  0  0  0  0  0  0  0
   -3.0740    1.1320    1.9550 C   0  0  0  0  0  0  0  0  0  0  0  0
   -2.7260   -0.7370   -0.9650 C   0  0  0  0  0  0  0  0  0  0  0  0
   -1.5860   -0.0930   -1.5850 C   0  0  2  0  0  0  0  0  0  0  0  0
   -0.6690   -1.1280   -2.1980 C   0  0  0  0  0  0  0  0  0  0  0  0
   -0.2660   -0.9400   -3.4940 C   0  0  0  0  0  0  0  0  0  0  0  0
    0.6150   -1.8050   -4.1240 C   0  0  0  0  0  0  0  0  0  0  0  0
    1.1210   -2.8980   -3.4560 C   0  0  0  0  0  0  0  0  0  0  0  0
    0.7110   -3.0820   -2.1560 C   0  0  0  0  0  0  0  0  0  0  0  0
   -0.1760   -2.2070   -1.5300 C   0  0  0  0  0  0  0  0  0  0  0  0
   -0.5810   -2.4050   -0.2280 O   0  0  0  0  0  0  0  0  0  0  0  0
   -0.0760   -3.5340    0.5000 C   0  0  0  0  0  0  0  0  0  0  0  0
   -0.8670    0.9890   -1.0200 N   0  0  0  0  0  0  0  0  0  0  0  0
   -0.1970    0.7940    0.2270 C   0  0  0  0  0  0  0  0  0  0  0  0
    1.2130    0.3620    0.0690 C   0  0  0  0  0  0  0  0  0  0  0  0
    2.0840    0.0800    1.0890 C   0  0  0  0  0  0  0  0  0  0  0  0
    3.2850   -0.2800    0.5280 C   0  0  0  0  0  0  0  0  0  0  0  0
    4.5150   -0.6650    1.1520 N   0  0  0  0  0  0  0  0  0  0  0  0
    4.6570   -0.8490    2.5380 C   0  0  0  0  0  0  0  0  0  0  0  0
    3.6970   -0.6860    3.3020 O   0  0  0  0  0  0  0  0  0  0  0  0
    5.9820   -1.2410    3.0800 C   0  0  0  0  0  0  0  0  0  0  0  0
    7.0830   -1.4430    2.3900 C   0  0  0  0  0  0  0  0  0  0  0  0
    8.1930   -1.8220    3.3000 C   0  0  0  0  0  0  0  0  0  0  0  0
    7.5520   -1.8070    4.6240 C   0  0  0  0  0  0  0  0  0  0  0  0
    6.2840   -1.4710    4.4750 C   0  0  0  0  0  0  0  0  0  0  0  0
    3.0970   -0.2010   -0.8470 C   0  0  0  0  0  0  0  0  0  0  0  0
    1.8710    0.1770   -1.0400 O   0  0  0  0  0  0  0  0  0  0  0  0
   -0.8670    2.2080   -1.7210 C   0  0  0  0  0  0  0  0  0  0  0  0
   -1.5900    2.2070   -2.8440 O   0  0  0  0  0  0  0  0  0  0  0  0
   -0.2550    3.4720   -1.4910 C   0  0  0  0  0  0  0  0  0  0  0  0
    0.6960    3.7600   -0.5480 C   0  0  0  0  0  0  0  0  0  0  0  0
    1.1960    5.0550   -0.3850 C   0  0  0  0  0  0  0  0  0  0  0  0
    0.7700    6.1100   -1.1520 C   0  0  0  0  0  0  0  0  0  0  0  0
    1.3060    7.4850   -0.9790 C   0  0  0  0  0  0  0  0  0  0  0  0
   -0.1800    5.8320   -2.0990 C   0  0  0  0  0  0  0  0  0  0  0  0
   -0.6850    4.5660   -2.2760 C   0  0  0  0  0  0  0  0  0  0  0  0
   -3.0750   -2.0420   -1.4180 C   0  0  0  0  0  0  0  0  0  0  0  0
  1  2  1  0
  2  3  1  0
  3  4  1  0
  4  5  2  0
  4 48  1  0
  5  6  1  0
  6  7  2  0
  7  8  1  0
  7 14  1  0
  8  9  2  0
  8 13  1  0
  9 10  1  0
 10 11  2  0
 11 12  1  0
 12 13  2  0
 14 15  1  0
 14 48  2  0
 15 16  1  0
 15 24  1  1
 16 17  2  0
 16 21  1  0
 17 18  1  0
 18 19  2  0
 19 20  1  0
 20 21  2  0
 21 22  1  0
 22 23  1  0
 24 25  1  0
 24 39  1  0
 25 26  1  0
 26 27  2  0
 26 38  1  0
 27 28  1  0
 28 29  1  0
 28 37  2  0
 29 30  1  0
 30 31  2  0
 30 32  1  0
 32 33  2  0
 32 36  1  0
 33 34  1  0
 34 35  1  0
 35 36  2  0
 37 38  1  0
 39 40  2  0
 39 41  1  0
 41 42  2  0
 41 47  1  0
 42 43  1  0
 43 44  2  0
 44 45  1  0
 44 46  1  0
 46 47  2  0
M  END
