
     RDKit          3D

 34 37  0  0  0  0  0  0  0  0999 V2000
   -9.8460    2.3350   -1.1780 N   0  0  0  0  0  0  0  0  0  0  0  0
   -8.6170    2.1860   -0.5210 C   0  0  0  0  0  0  0  0  0  0  0  0
   -8.2450    3.0430    0.4430 N   0  0  0  0  0  0  0  0  0  0  0  0
   -7.0810    2.9600    1.1240 C   0  0  0  0  0  0  0  0  0  0  0  0
   -6.1980    1.9540    0.8310 N   0  0  0  0  0  0  0  0  0  0  0  0
   -6.4940    1.0550   -0.1120 C   0  0  0  0  0  0  0  0  0  0  0  0
   -7.7130    1.1570   -0.8030 C   0  0  0  0  0  0  0  0  0  0  0  0
   -7.7300    0.1380   -1.6610 N   0  0  0  0  0  0  0  0  0  0  0  0
   -6.6190   -0.5460   -1.5280 C   0  0  0  0  0  0  0  0  0  0  0  0
   -5.7970   -0.0120   -0.5640 N   0  0  0  0  0  0  0  0  0  0  0  0
   -4.5120   -0.4630   -0.3400 C   0  0  2  0  0  0  0  0  0  0  0  0
   -4.0300   -0.8420    0.9330 O   0  0  0  0  0  0  0  0  0  0  0  0
   -2.7250   -1.0340    0.5390 C   0  0  2  0  0  0  0  0  0  0  0  0
   -1.6280   -1.6740    1.2250 C   0  0  0  0  0  0  0  0  0  0  0  0
   -0.5980   -1.6790    0.3040 O   0  0  0  0  0  0  0  0  0  0  0  0
    0.7250   -2.3210    0.1370 P   0  0  0  0  0  0  0  0  0  0  0  0
    1.4720   -3.4090    1.1680 O   0  0  0  0  0  0  0  0  0  0  0  0
    1.6030   -2.1460   -1.3750 O   0  0  0  0  0  0  0  0  0  0  0  0
    1.7170   -1.1890    0.5750 O   0  0  0  0  0  0  0  0  0  0  0  0
    3.1690   -1.5210    0.8680 P   0  0  0  0  0  0  0  0  0  0  0  0
    3.2520   -2.5600   -0.4290 O   0  0  0  0  0  0  0  0  0  0  0  0
    2.6530   -2.2280    2.3270 O   0  0  0  0  0  0  0  0  0  0  0  0
    3.8710   -0.1320    0.9080 O   0  0  0  0  0  0  0  0  0  0  0  0
    4.5000    0.2130   -0.3000 C   0  0  0  0  0  0  0  0  0  0  0  0
    5.9750    0.2600   -0.1120 C   0  0  2  0  0  0  0  0  0  0  0  0
    6.4410    0.8940    1.1220 C   0  0  0  0  0  0  0  0  0  0  0  0
    7.6360    1.7150    0.6680 C   0  0  1  0  0  0  0  0  0  0  0  0
    8.6420    1.5460    1.6190 O   0  0  0  0  0  0  0  0  0  0  0  0
    8.0150    1.0890   -0.6480 C   0  0  0  0  0  0  0  0  0  0  0  0
    6.7040    0.7470   -1.2250 N   0  0  0  0  0  0  0  0  0  0  0  0
   -2.4050    0.4760    0.2210 C   0  0  1  0  0  0  0  0  0  0  0  0
   -1.1310    0.6230   -0.1630 O   0  0  0  0  0  0  0  0  0  0  0  0
   -3.4810    0.6300   -0.8310 C   0  0  1  0  0  0  0  0  0  0  0  0
   -2.9380    0.2120   -2.0540 O   0  0  0  0  0  0  0  0  0  0  0  0
  1  2  1  0
  2  3  2  0
  2  7  1  0
  3  4  1  0
  4  5  2  0
  5  6  1  0
  6  7  2  0
  6 10  1  0
  7  8  1  0
  8  9  2  0
  9 10  1  0
 11 10  1  1
 11 12  1  0
 11 33  1  0
 12 13  1  0
 13 14  1  1
 13 31  1  0
 14 15  1  0
 15 16  1  0
 16 17  1  0
 16 18  1  0
 16 19  1  0
 19 20  1  0
 20 21  1  0
 20 22  1  0
 20 23  1  0
 23 24  1  0
 25 24  1  6
 25 26  1  0
 25 30  1  0
 26 27  1  0
 27 28  1  1
 27 29  1  0
 29 30  1  0
 31 32  1  6
 31 33  1  0
 33 34  1  6
M  CHG  1  30   1
M  END
