
     RDKit          3D

 48 52  0  0  0  0  0  0  0  0999 V2000
    0.8060    1.8870   -2.7680 C   0  0  0  0  0  0  0  0  0  0  0  0
    1.5190    0.6250   -3.0120 C   0  0  0  0  0  0  0  0  0  0  0  0
    1.2690    0.0680   -4.1460 O   0  0  0  0  0  0  0  0  0  0  0  0
    2.4500   -0.0260   -2.1350 C   0  0  0  0  0  0  0  0  0  0  0  0
    3.1930   -1.0870   -2.7060 C   0  0  0  0  0  0  0  0  0  0  0  0
    4.1820   -1.6570   -1.9400 C   0  0  0  0  0  0  0  0  0  0  0  0
    4.5120   -1.2840   -0.6630 C   0  0  0  0  0  0  0  0  0  0  0  0
    5.5320   -1.8430    0.1360 N   0  0  0  0  0  0  0  0  0  0  0  0
    6.5390   -2.7380   -0.2800 C   0  0  0  0  0  0  0  0  0  0  0  0
    6.5980   -3.1150   -1.4660 O   0  0  0  0  0  0  0  0  0  0  0  0
    7.5440   -3.2380    0.7110 C   0  0  2  0  0  0  0  0  0  0  0  0
    6.8070   -4.0940    1.7320 C   0  0  0  0  0  0  0  0  0  0  0  0
    8.2690   -2.1000    1.3730 C   0  0  0  0  0  0  0  0  0  0  0  0
    8.4700   -4.0900    0.0050 N   0  0  0  0  0  0  0  0  0  0  0  0
    3.7610   -0.2380   -0.1290 C   0  0  0  0  0  0  0  0  0  0  0  0
    2.7360    0.3790   -0.8690 C   0  0  0  0  0  0  0  0  0  0  0  0
    2.0270    1.4120   -0.2630 O   0  0  0  0  0  0  0  0  0  0  0  0
    0.6770    1.1690    0.0680 C   0  0  0  0  0  0  0  0  0  0  0  0
    0.1300   -0.0770   -0.0780 C   0  0  0  0  0  0  0  0  0  0  0  0
   -1.2000   -0.3150    0.2470 C   0  0  0  0  0  0  0  0  0  0  0  0
   -1.9710    0.6930    0.7150 C   0  0  0  0  0  0  0  0  0  0  0  0
   -3.3240    0.5240    1.1600 C   0  0  0  0  0  0  0  0  0  0  0  0
   -3.8800   -0.5500    1.6150 C   0  0  0  0  0  0  0  0  0  0  0  0
   -3.3500   -1.8820    1.8340 C   0  0  0  0  0  0  0  0  0  0  0  0
   -4.0370   -2.8480    1.0570 O   0  0  0  0  0  0  0  0  0  0  0  0
   -3.6930   -4.1930    1.1020 C   0  0  0  0  0  0  0  0  0  0  0  0
   -2.7380   -4.4850    1.8750 O   0  0  0  0  0  0  0  0  0  0  0  0
   -4.3850   -5.1990    0.3130 C   0  0  0  0  0  0  0  0  0  0  0  0
   -4.0070   -6.5370    0.3880 C   0  0  0  0  0  0  0  0  0  0  0  0
   -4.6520   -7.5050   -0.3520 C   0  0  0  0  0  0  0  0  0  0  0  0
   -5.7020   -7.2000   -1.2020 C   0  0  0  0  0  0  0  0  0  0  0  0
   -6.3690   -8.2760   -1.9800 C   0  0  0  0  0  0  0  0  0  0  0  0
   -6.0810   -5.8770   -1.2790 C   0  0  0  0  0  0  0  0  0  0  0  0
   -5.4280   -4.8980   -0.5310 C   0  0  0  0  0  0  0  0  0  0  0  0
   -1.4110    2.0000    0.8690 C   0  0  0  0  0  0  0  0  0  0  0  0
   -2.2220    2.9890    1.4900 C   0  0  0  0  0  0  0  0  0  0  0  0
   -2.2260    4.2900    1.2800 C   0  0  0  0  0  0  0  0  0  0  0  0
   -1.4070    4.9830    0.3470 C   0  0  0  0  0  0  0  0  0  0  0  0
   -1.2870    6.2540    0.0730 C   0  0  0  0  0  0  0  0  0  0  0  0
   -0.3830    6.7250   -0.9240 O   0  0  0  0  0  0  0  0  0  0  0  0
   -0.4320    8.0880   -1.0640 C   0  0  0  0  0  0  0  0  0  0  0  0
   -1.4220    8.5250   -0.0550 C   0  0  0  0  0  0  0  0  0  0  0  0
   -1.8840    9.8040    0.2870 C   0  0  0  0  0  0  0  0  0  0  0  0
   -2.8260   10.0080    1.2580 C   0  0  0  0  0  0  0  0  0  0  0  0
   -3.3380    8.9220    1.9200 C   0  0  0  0  0  0  0  0  0  0  0  0
   -2.8890    7.6380    1.5910 C   0  0  0  0  0  0  0  0  0  0  0  0
   -1.9330    7.4140    0.6090 C   0  0  0  0  0  0  0  0  0  0  0  0
   -0.1010    2.2250    0.5480 C   0  0  0  0  0  0  0  0  0  0  0  0
  1  2  1  0
  2  3  2  0
  2  4  1  0
  4  5  2  0
  4 16  1  0
  5  6  1  0
  6  7  2  0
  7  8  1  0
  7 15  1  0
  8  9  1  0
  9 10  2  0
  9 11  1  0
 11 12  1  1
 11 13  1  0
 11 14  1  0
 15 16  2  0
 16 17  1  0
 17 18  1  0
 18 19  2  0
 18 48  1  0
 19 20  1  0
 20 21  2  0
 21 22  1  0
 21 35  1  0
 22 23  2  3
 23 24  1  0
 24 25  1  0
 25 26  1  0
 26 27  2  0
 26 28  1  0
 28 29  2  0
 28 34  1  0
 29 30  1  0
 30 31  2  0
 31 32  1  0
 31 33  1  0
 33 34  2  0
 35 36  1  0
 35 48  2  0
 36 37  2  3
 37 38  1  0
 38 39  2  3
 39 40  1  0
 39 47  1  0
 40 41  1  0
 41 42  1  0
 42 43  2  0
 42 47  1  0
 43 44  1  0
 44 45  2  0
 45 46  1  0
 46 47  2  0
M  END
