
     RDKit          3D

 21 22  0  0  0  0  0  0  0  0999 V2000
    3.3700    0.6960    2.8710 C   0  0  0  0  0  0  0  0  0  0  0  0
    4.1970    0.4790    1.6640 N   0  0  0  0  0  0  0  0  0  0  0  0
    3.5750    0.2220    0.4310 C   0  0  0  0  0  0  0  0  0  0  0  0
    2.2700    0.5050    0.0750 C   0  0  0  0  0  0  0  0  0  0  0  0
    1.6240    0.2720   -1.0600 C   0  0  0  0  0  0  0  0  0  0  0  0
    0.2060    0.3470   -1.0390 N   0  0  0  0  0  0  0  0  0  0  0  0
   -0.3760   -0.8760   -0.4170 C   0  0  0  0  0  0  0  0  0  0  0  0
    0.6460   -1.6960   -0.1350 O   0  0  0  0  0  0  0  0  0  0  0  0
   -1.6700   -1.2550   -0.1170 C   0  0  0  0  0  0  0  0  0  0  0  0
   -1.5410   -2.3650    0.9990 C   0  0  0  0  0  0  0  0  0  0  0  0
   -1.4630   -3.2200    1.8500 N   0  0  0  0  0  0  0  0  0  0  0  0
   -2.9050   -0.9830   -0.1770 C   0  0  0  0  0  0  0  0  0  0  0  0
   -3.7430    0.1170   -0.7010 C   0  0  0  0  0  0  0  0  0  0  0  0
   -5.0960    0.1060   -0.5020 C   0  0  0  0  0  0  0  0  0  0  0  0
   -5.6110    1.3730   -1.1140 C   0  0  0  0  0  0  0  0  0  0  0  0
   -4.4990    2.0620   -1.6510 N   0  0  0  0  0  0  0  0  0  0  0  0
   -3.4570    1.3290   -1.4030 C   0  0  0  0  0  0  0  0  0  0  0  0
    2.3930   -0.3620   -2.1120 C   0  0  0  0  0  0  0  0  0  0  0  0
    3.7210   -0.6710   -1.7910 C   0  0  0  0  0  0  0  0  0  0  0  0
    4.3220   -0.4030   -0.5720 C   0  0  0  0  0  0  0  0  0  0  0  0
    5.9960   -0.9200   -0.3020 Cl  0  0  0  0  0  0  0  0  0  0  0  0
  1  2  1  0
  2  3  1  0
  3  4  2  0
  3 20  1  0
  4  5  1  0
  5  6  1  0
  5 18  2  0
  6  7  1  0
  7  8  2  0
  7  9  1  0
  9 10  1  0
  9 12  2  3
 10 11  3  0
 12 13  1  0
 13 14  2  0
 13 17  1  0
 14 15  1  0
 15 16  1  0
 16 17  2  0
 18 19  1  0
 19 20  2  0
 20 21  1  0
M  END
