
     RDKit          3D

 21 23  0  0  0  0  0  0  0  0999 V2000
   -1.3920   -0.6510   -3.2690 C   0  0  0  0  0  0  0  0  0  0  0  0
   -2.1600   -0.2340   -2.0620 C   0  0  0  0  0  0  0  0  0  0  0  0
   -3.3990    0.2870   -1.9370 N   0  0  0  0  0  0  0  0  0  0  0  0
   -3.6240    0.5400   -0.6740 N   0  0  0  0  0  0  0  0  0  0  0  0
   -2.5540    0.2090    0.0970 C   0  0  0  0  0  0  0  0  0  0  0  0
   -1.6280   -0.2820   -0.7710 C   0  0  0  0  0  0  0  0  0  0  0  0
   -0.2770   -0.8860   -0.5270 C   0  0  0  0  0  0  0  0  0  0  0  0
    0.6740    0.1660   -0.2340 N   0  0  0  0  0  0  0  0  0  0  0  0
    2.0270   -0.1560   -0.0540 C   0  0  0  0  0  0  0  0  0  0  0  0
    2.3970   -1.3680   -0.0810 O   0  0  0  0  0  0  0  0  0  0  0  0
    3.0520    0.8150    0.1510 N   0  0  0  0  0  0  0  0  0  0  0  0
    4.4010    0.3970    0.2950 C   0  0  0  0  0  0  0  0  0  0  0  0
    5.0670    0.2740    1.4410 C   0  0  0  0  0  0  0  0  0  0  0  0
    6.4400   -0.1600    1.2160 C   0  0  0  0  0  0  0  0  0  0  0  0
    6.5260   -0.2370   -0.2510 C   0  0  0  0  0  0  0  0  0  0  0  0
    5.3410    0.0800   -0.7490 C   0  0  0  0  0  0  0  0  0  0  0  0
    4.9420    0.1310   -2.4710 Cl  0  0  0  0  0  0  0  0  0  0  0  0
   -2.6640    0.3100    1.5540 C   0  0  0  0  0  0  0  0  0  0  0  0
   -4.0320   -0.1030    2.1260 C   0  0  0  0  0  0  0  0  0  0  0  0
   -5.1590    0.1310    1.1330 C   0  0  0  0  0  0  0  0  0  0  0  0
   -4.7340    1.1530    0.0910 C   0  0  0  0  0  0  0  0  0  0  0  0
  1  2  1  0
  2  3  2  0
  2  6  1  0
  3  4  1  0
  4  5  1  0
  4 21  1  0
  5  6  2  0
  5 18  1  0
  6  7  1  0
  7  8  1  0
  8  9  1  0
  9 10  2  0
  9 11  1  0
 11 12  1  0
 12 13  2  0
 12 16  1  0
 13 14  1  0
 14 15  1  0
 15 16  2  0
 16 17  1  0
 18 19  1  0
 19 20  1  0
 20 21  1  0
M  END
