
     RDKit          3D

 21 22  0  0  0  0  0  0  0  0999 V2000
   -4.4320   -2.2130    1.1000 C   0  0  0  0  0  0  0  0  0  0  0  0
   -3.1510   -2.0350    0.9310 C   0  0  0  0  0  0  0  0  0  0  0  0
   -2.5350   -0.9730    0.1110 C   0  0  0  0  0  0  0  0  0  0  0  0
   -3.1700   -0.1120   -0.5270 N   0  0  0  0  0  0  0  0  0  0  0  0
   -4.4920    0.2450   -0.7670 C   0  0  0  0  0  0  0  0  0  0  0  0
   -1.1040   -0.9030    0.0130 N   0  0  0  0  0  0  0  0  0  0  0  0
   -0.4220    0.3250    0.1030 C   0  0  0  0  0  0  0  0  0  0  0  0
   -0.9990    1.5250    0.3620 C   0  0  0  0  0  0  0  0  0  0  0  0
   -0.2900    2.7280    0.4580 C   0  0  0  0  0  0  0  0  0  0  0  0
   -0.9550    3.9550    0.7330 N   0  0  0  0  0  0  0  0  0  0  0  0
    1.0710    2.6530    0.2720 C   0  0  0  0  0  0  0  0  0  0  0  0
    1.7100    1.4550    0.0060 C   0  0  0  0  0  0  0  0  0  0  0  0
    0.9760    0.2980   -0.0790 C   0  0  0  0  0  0  0  0  0  0  0  0
    1.5640   -0.9230   -0.3410 O   0  0  0  0  0  0  0  0  0  0  0  0
    2.9060   -1.1650   -0.5020 C   0  0  0  0  0  0  0  0  0  0  0  0
    3.4060   -1.6380   -1.6930 C   0  0  0  0  0  0  0  0  0  0  0  0
    4.7200   -1.8780   -1.8550 N   0  0  0  0  0  0  0  0  0  0  0  0
    5.5830   -1.6610   -0.8500 C   0  0  0  0  0  0  0  0  0  0  0  0
    5.1230   -1.1850    0.3670 C   0  0  0  0  0  0  0  0  0  0  0  0
    3.7600   -0.9310    0.5500 C   0  0  0  0  0  0  0  0  0  0  0  0
    3.2640   -0.3570    2.1190 Cl  0  0  0  0  0  0  0  0  0  0  0  0
  1  2  2  0
  2  3  1  0
  3  4  2  3
  3  6  1  0
  4  5  1  0
  6  7  1  0
  7  8  2  0
  7 13  1  0
  8  9  1  0
  9 10  1  0
  9 11  2  0
 11 12  1  0
 12 13  2  0
 13 14  1  0
 14 15  1  0
 15 16  2  0
 15 20  1  0
 16 17  1  0
 17 18  2  0
 18 19  1  0
 19 20  2  0
 20 21  1  0
M  END
