
     RDKit          3D

 20 21  0  0  0  0  0  0  0  0999 V2000
    7.0370   -0.3840    0.5650 C   0  0  0  0  0  0  0  0  0  0  0  0
    5.6690   -0.8400    0.8690 C   0  0  0  0  0  0  0  0  0  0  0  0
    5.5150   -1.8790    1.5590 O   0  0  0  0  0  0  0  0  0  0  0  0
    4.5210   -0.0800    0.3680 C   0  0  0  0  0  0  0  0  0  0  0  0
    3.2290   -0.4630    0.6150 C   0  0  0  0  0  0  0  0  0  0  0  0
    2.1450    0.2750    0.1170 C   0  0  0  0  0  0  0  0  0  0  0  0
    0.8340   -0.1370    0.4010 N   0  0  0  0  0  0  0  0  0  0  0  0
   -0.3100    0.2280   -0.3250 C   0  0  0  0  0  0  0  0  0  0  0  0
   -1.5610   -0.2290    0.1030 C   0  0  0  0  0  0  0  0  0  0  0  0
   -2.6740    0.0910   -0.5900 C   0  0  0  0  0  0  0  0  0  0  0  0
   -4.0360   -0.3540   -0.2500 C   0  0  2  0  0  0  0  0  0  0  0  0
   -4.0750   -1.6390    0.5490 C   0  0  0  0  0  0  0  0  0  0  0  0
   -4.7970   -0.6540   -1.5500 C   0  0  0  0  0  0  0  0  0  0  0  0
   -4.7830    0.7500    0.4580 C   0  0  0  0  0  0  0  0  0  0  0  0
   -2.5780    0.8510   -1.6990 N   0  0  0  0  0  0  0  0  0  0  0  0
   -1.3900    1.3140   -2.1450 C   0  0  0  0  0  0  0  0  0  0  0  0
   -0.3030    0.9800   -1.4380 N   0  0  0  0  0  0  0  0  0  0  0  0
    2.4090    1.3940   -0.6300 C   0  0  0  0  0  0  0  0  0  0  0  0
    3.7210    1.7530   -0.8600 C   0  0  0  0  0  0  0  0  0  0  0  0
    4.7390    1.0290   -0.3710 N   0  0  0  0  0  0  0  0  0  0  0  0
  1  2  1  0
  2  3  2  0
  2  4  1  0
  4  5  2  0
  4 20  1  0
  5  6  1  0
  6  7  1  0
  6 18  2  0
  7  8  1  0
  8  9  2  0
  8 17  1  0
  9 10  1  0
 10 11  1  0
 10 15  2  0
 11 12  1  1
 11 13  1  0
 11 14  1  0
 15 16  1  0
 16 17  2  0
 18 19  1  0
 19 20  2  0
M  END
