
     RDKit          3D

 21 22  0  0  0  0  0  0  0  0999 V2000
    4.9850    0.9560    1.5650 C   0  0  0  0  0  0  0  0  0  0  0  0
    4.2720    0.2430    0.6880 C   0  0  0  0  0  0  0  0  0  0  0  0
    4.9730   -0.5520   -0.3630 C   0  0  0  0  0  0  0  0  0  0  0  0
    6.4820   -0.4680   -0.1750 C   0  0  0  0  0  0  0  0  0  0  0  0
    2.8260    0.1870    0.7890 C   0  0  0  0  0  0  0  0  0  0  0  0
    1.9770    0.2760   -0.3070 C   0  0  0  0  0  0  0  0  0  0  0  0
    2.5510    0.4820   -1.6110 N   0  0  0  0  0  0  0  0  0  0  0  0
    0.6040    0.1830   -0.1760 C   0  0  0  0  0  0  0  0  0  0  0  0
    0.0450    0.0010    1.0560 C   0  0  0  0  0  0  0  0  0  0  0  0
   -1.4030   -0.1040    1.2300 C   0  0  0  0  0  0  0  0  0  0  0  0
   -2.3140   -0.0330    0.2450 N   0  0  0  0  0  0  0  0  0  0  0  0
   -3.5540   -0.1680    0.7490 C   0  0  0  0  0  0  0  0  0  0  0  0
   -4.7890   -0.1380   -0.0450 C   0  0  2  0  0  0  0  0  0  0  0  0
   -4.4600    0.0820   -1.5060 C   0  0  0  0  0  0  0  0  0  0  0  0
   -5.5790    1.0920    0.4200 C   0  0  0  0  0  0  0  0  0  0  0  0
   -5.6140   -1.3930    0.1170 C   0  0  0  0  0  0  0  0  0  0  0  0
   -3.3740   -0.3230    2.0730 N   0  0  0  0  0  0  0  0  0  0  0  0
   -2.0860   -0.2800    2.3220 O   0  0  0  0  0  0  0  0  0  0  0  0
    0.8440   -0.0870    2.1210 N   0  0  0  0  0  0  0  0  0  0  0  0
    2.1790   -0.0000    2.0130 C   0  0  0  0  0  0  0  0  0  0  0  0
    3.2030   -0.1590    3.4460 Cl  0  0  0  0  0  0  0  0  0  0  0  0
  1  2  2  0
  2  3  1  0
  2  5  1  0
  3  4  1  0
  5  6  2  0
  5 20  1  0
  6  7  1  0
  6  8  1  0
  8  9  2  0
  9 10  1  0
  9 19  1  0
 10 11  2  0
 10 18  1  0
 11 12  1  0
 12 13  1  0
 12 17  2  0
 13 14  1  6
 13 15  1  0
 13 16  1  0
 17 18  1  0
 19 20  2  0
 20 21  1  0
M  END
