
     RDKit          3D

  9  8  0  0  0  0  0  0  0  0999 V2000
    0.7690    1.8890    0.3100 O   0  0  0  0  0  0  0  0  0  0  0  0
    1.3350    0.8070   -0.0180 C   0  0  0  0  0  0  0  0  0  0  0  0
    2.5640    0.5020    0.5710 O   0  0  0  0  0  0  0  0  0  0  0  0
    0.6980   -0.0970   -1.0000 C   0  0  0  0  0  0  0  0  0  0  0  0
   -0.4140   -0.8490   -0.2870 C   0  0  1  0  0  0  0  0  0  0  0  0
    0.1830   -1.5590    0.7490 O   0  0  0  0  0  0  0  0  0  0  0  0
   -1.4490    0.0450    0.2520 C   0  0  0  0  0  0  0  0  0  0  0  0
   -1.6710    0.0780    1.4900 O   0  0  0  0  0  0  0  0  0  0  0  0
   -2.2200    0.8820   -0.5340 O   0  0  0  0  0  0  0  0  0  0  0  0
  1  2  2  0
  2  3  1  0
  2  4  1  0
  4  5  1  0
  5  6  1  1
  5  7  1  0
  7  8  2  0
  7  9  1  0
M  END
