
     RDKit          3D

 21 22  0  0  0  0  0  0  0  0999 V2000
   -4.7950    0.8200   -1.1080 C   0  0  0  0  0  0  0  0  0  0  0  0
   -4.3760   -0.3490   -0.2890 C   0  0  0  0  0  0  0  0  0  0  0  0
   -3.3280   -1.0850   -0.5610 C   0  0  0  0  0  0  0  0  0  0  0  0
   -2.9840   -2.2260    0.3040 C   0  0  0  0  0  0  0  0  0  0  0  0
   -2.5370   -0.7750   -1.6820 N   0  0  0  0  0  0  0  0  0  0  0  0
   -1.0990   -0.7870   -1.5730 C   0  0  0  0  0  0  0  0  0  0  0  0
   -0.6660    0.3480   -0.6800 C   0  0  0  0  0  0  0  0  0  0  0  0
   -1.5450    1.1150   -0.1670 N   0  0  0  0  0  0  0  0  0  0  0  0
   -1.1540    2.1810    0.6710 C   0  0  0  0  0  0  0  0  0  0  0  0
   -2.0600    2.9400    1.1570 O   0  0  0  0  0  0  0  0  0  0  0  0
    0.2230    2.5000    1.0390 C   0  0  0  0  0  0  0  0  0  0  0  0
    1.1430    1.5250    0.3700 C   0  0  0  0  0  0  0  0  0  0  0  0
    2.5520    1.6050    0.5360 N   0  0  0  0  0  0  0  0  0  0  0  0
    3.3370    0.4530    0.7280 C   0  0  0  0  0  0  0  0  0  0  0  0
    4.7220    0.6430    0.7850 C   0  0  0  0  0  0  0  0  0  0  0  0
    5.5830   -0.4110    0.9760 C   0  0  0  0  0  0  0  0  0  0  0  0
    5.1190   -1.6940    1.1190 C   0  0  0  0  0  0  0  0  0  0  0  0
    6.2490   -3.0100    1.3610 Cl  0  0  0  0  0  0  0  0  0  0  0  0
    3.7580   -1.8970    1.0650 C   0  0  0  0  0  0  0  0  0  0  0  0
    2.9040   -0.8250    0.8720 C   0  0  0  0  0  0  0  0  0  0  0  0
    0.6980    0.5830   -0.3870 N   0  0  0  0  0  0  0  0  0  0  0  0
  1  2  1  0
  2  3  2  3
  3  4  1  0
  3  5  1  0
  5  6  1  0
  6  7  1  0
  7  8  2  0
  7 21  1  0
  8  9  1  0
  9 10  2  0
  9 11  1  0
 11 12  1  0
 12 13  1  0
 12 21  2  0
 13 14  1  0
 14 15  2  0
 14 20  1  0
 15 16  1  0
 16 17  2  0
 17 18  1  0
 17 19  1  0
 19 20  2  0
M  END
