
     RDKit          3D

 21 22  0  0  0  0  0  0  0  0999 V2000
    5.9990    1.3300   -0.1230 C   0  0  0  0  0  0  0  0  0  0  0  0
    4.6830    0.8180   -0.6310 C   0  0  0  0  0  0  0  0  0  0  0  0
    4.4830   -0.4850   -0.6130 C   0  0  0  0  0  0  0  0  0  0  0  0
    5.7680   -1.5210   -0.0000 Cl  0  0  0  0  0  0  0  0  0  0  0  0
    3.6910    1.8270   -1.0670 C   0  0  0  0  0  0  0  0  0  0  0  0
    2.4240    1.1360   -1.3260 N   0  0  0  0  0  0  0  0  0  0  0  0
    1.7790    0.4400   -0.2360 C   0  0  0  0  0  0  0  0  0  0  0  0
    2.4150    0.5120    0.8490 O   0  0  0  0  0  0  0  0  0  0  0  0
    0.5400   -0.2430   -0.3960 N   0  0  0  0  0  0  0  0  0  0  0  0
    0.0670   -0.9080    0.7710 C   0  0  0  0  0  0  0  0  0  0  0  0
    0.8730   -1.4200    1.7620 C   0  0  0  0  0  0  0  0  0  0  0  0
    0.3180   -2.0100    2.9080 C   0  0  0  0  0  0  0  0  0  0  0  0
   -1.0150   -2.0790    3.0390 N   0  0  0  0  0  0  0  0  0  0  0  0
   -1.7510   -1.5800    2.0610 N   0  0  0  0  0  0  0  0  0  0  0  0
   -1.3020   -1.0010    0.9370 C   0  0  0  0  0  0  0  0  0  0  0  0
   -2.2380   -0.6180   -0.1500 C   0  0  2  0  0  0  0  0  0  0  0  0
   -2.5560    0.8660   -0.1170 C   0  0  0  0  0  0  0  0  0  0  0  0
   -3.7320    1.0890   -1.0660 C   0  0  0  0  0  0  0  0  0  0  0  0
   -4.9930    0.5740   -0.4190 C   0  0  0  0  0  0  0  0  0  0  0  0
   -4.7930   -0.9380   -0.3670 C   0  0  0  0  0  0  0  0  0  0  0  0
   -3.5740   -1.2400    0.3650 C   0  0  0  0  0  0  0  0  0  0  0  0
  1  2  1  0
  2  3  2  3
  2  5  1  0
  3  4  1  0
  5  6  1  0
  6  7  1  0
  7  8  2  0
  7  9  1  0
  9 10  1  0
 10 11  2  0
 10 15  1  0
 11 12  1  0
 12 13  2  0
 13 14  1  0
 14 15  2  0
 16 15  1  1
 16 17  1  0
 16 21  1  0
 17 18  1  0
 18 19  1  0
 19 20  1  0
 20 21  1  0
M  END
