
     RDKit          3D

 20 20  0  0  0  0  0  0  0  0999 V2000
    5.4680   -0.9180    1.5570 O   0  0  0  0  0  0  0  0  0  0  0  0
    4.7420   -0.6820    0.3760 C   0  0  0  0  0  0  0  0  0  0  0  0
    3.2550   -0.8060    0.6330 C   0  0  0  0  0  0  0  0  0  0  0  0
    2.6100   -0.5640   -0.5600 O   0  0  0  0  0  0  0  0  0  0  0  0
    1.2030   -0.6550   -0.4350 C   0  0  2  0  0  0  0  0  0  0  0  0
    0.8120   -1.7330   -1.3200 N   0  0  0  0  0  0  0  0  0  0  0  0
   -0.5980   -1.9930   -1.3540 C   0  0  0  0  0  0  0  0  0  0  0  0
   -1.2490   -1.7790   -0.1620 O   0  0  0  0  0  0  0  0  0  0  0  0
   -2.6050   -1.7070   -0.3200 C   0  0  1  0  0  0  0  0  0  0  0  0
   -3.2220   -2.2720    0.8200 O   0  0  0  0  0  0  0  0  0  0  0  0
   -3.1760   -0.3490   -0.5480 C   0  0  2  0  0  0  0  0  0  0  0  0
   -2.3880    0.4130   -1.4130 O   0  0  0  0  0  0  0  0  0  0  0  0
   -3.5820    0.3850    0.6510 C   0  0  0  0  0  0  0  0  0  0  0  0
   -2.9180    1.3440    1.2780 C   0  0  0  0  0  0  0  0  0  0  0  0
   -1.6930    1.8480    0.9220 O   0  0  0  0  0  0  0  0  0  0  0  0
   -0.4090    1.3250    1.1380 C   0  0  0  0  0  0  0  0  0  0  0  0
    0.5260    1.5430   -0.0330 C   0  0  2  0  0  0  0  0  0  0  0  0
    0.1490    2.7860   -0.8110 C   0  0  0  0  0  0  0  0  0  0  0  0
    0.0290    3.9010    0.0180 O   0  0  0  0  0  0  0  0  0  0  0  0
    0.6260    0.4980   -0.9000 O   0  0  0  0  0  0  0  0  0  0  0  0
  1  2  1  0
  2  3  1  0
  3  4  1  0
  5  4  1  6
  5  6  1  0
  5 20  1  0
  6  7  1  0
  7  8  1  0
  8  9  1  0
  9 10  1  1
  9 11  1  0
 11 12  1  1
 11 13  1  0
 13 14  2  0
 14 15  1  0
 15 16  1  0
 16 17  1  0
 17 18  1  6
 17 20  1  0
 18 19  1  0
M  END
