
     RDKit          3D

 20 20  0  0  0  0  0  0  0  0999 V2000
    0.0850    1.5180    0.2140 O   0  0  0  0  0  0  0  0  0  0  0  0
    0.8560    0.5390   -0.0080 C   0  0  0  0  0  0  0  0  0  0  0  0
    2.2400    0.7770    0.1750 N   0  0  0  0  0  0  0  0  0  0  0  0
    2.7900    2.0490    0.5930 C   0  0  0  0  0  0  0  0  0  0  0  0
    4.2990    1.9950    0.7000 C   0  0  0  0  0  0  0  0  0  0  0  0
    4.7190    1.0480    1.6210 O   0  0  0  0  0  0  0  0  0  0  0  0
    0.3170   -0.7830   -0.4380 C   0  0  1  0  0  0  0  0  0  0  0  0
   -0.1470   -0.5640   -1.8850 C   0  0  0  0  0  0  0  0  0  0  0  0
   -0.5410   -1.7490   -2.4930 O   0  0  0  0  0  0  0  0  0  0  0  0
    1.3970   -1.6360   -0.5470 O   0  0  0  0  0  0  0  0  0  0  0  0
    1.7050   -2.3280    0.5960 C   0  0  0  0  0  0  0  0  0  0  0  0
    0.7630   -1.9980    1.7380 C   0  0  0  0  0  0  0  0  0  0  0  0
   -0.4960   -2.3190    1.2470 O   0  0  0  0  0  0  0  0  0  0  0  0
   -0.8330   -1.2540    0.3590 C   0  0  1  0  0  0  0  0  0  0  0  0
   -1.4460   -0.3280    1.1650 O   0  0  0  0  0  0  0  0  0  0  0  0
   -2.7860   -0.2240    1.1550 C   0  0  0  0  0  0  0  0  0  0  0  0
   -3.5090    0.1530   -0.0830 C   0  0  2  0  0  0  0  0  0  0  0  0
   -3.3850   -0.6840   -1.1550 O   0  0  0  0  0  0  0  0  0  0  0  0
   -3.3270    1.6090   -0.4900 C   0  0  0  0  0  0  0  0  0  0  0  0
   -4.3550    1.8490   -1.4350 O   0  0  0  0  0  0  0  0  0  0  0  0
  1  2  2  0
  2  3  1  0
  2  7  1  0
  3  4  1  0
  4  5  1  0
  5  6  1  0
  7  8  1  6
  7 10  1  0
  7 14  1  0
  8  9  1  0
 10 11  1  0
 11 12  1  0
 12 13  1  0
 13 14  1  0
 14 15  1  1
 15 16  1  0
 16 17  1  0
 17 18  1  6
 17 19  1  0
 19 20  1  0
M  END
