
     RDKit          3D

 20 20  0  0  0  0  0  0  0  0999 V2000
    4.7350   -1.0310   -1.1800 C   0  0  0  0  0  0  0  0  0  0  0  0
    3.8790   -0.0120   -0.4650 C   0  0  2  0  0  0  0  0  0  0  0  0
    4.1200    0.0060    0.9050 O   0  0  0  0  0  0  0  0  0  0  0  0
    3.1190    0.9270    1.2970 C   0  0  0  0  0  0  0  0  0  0  0  0
    1.9310    0.3140    0.5380 C   0  0  1  0  0  0  0  0  0  0  0  0
    1.2780   -0.6290    1.4930 C   0  0  0  0  0  0  0  0  0  0  0  0
    1.0590    1.4190    0.0290 C   0  0  1  0  0  0  0  0  0  0  0  0
    1.9430    2.3170   -0.6270 O   0  0  0  0  0  0  0  0  0  0  0  0
    0.0750    0.9670   -1.0280 C   0  0  1  0  0  0  0  0  0  0  0  0
    0.7260    0.4990   -2.1670 O   0  0  0  0  0  0  0  0  0  0  0  0
   -0.9150    0.0390   -0.5270 N   0  0  0  0  0  0  0  0  0  0  0  0
   -2.3190    0.3710   -0.4790 C   0  0  0  0  0  0  0  0  0  0  0  0
   -2.6550    1.5190   -0.8970 O   0  0  0  0  0  0  0  0  0  0  0  0
   -3.3160   -0.5760    0.0300 C   0  0  1  0  0  0  0  0  0  0  0  0
   -2.6670   -1.7470    0.4170 O   0  0  0  0  0  0  0  0  0  0  0  0
   -4.0490   -0.0400    1.2420 C   0  0  0  0  0  0  0  0  0  0  0  0
   -4.7310    1.1370    0.9470 O   0  0  0  0  0  0  0  0  0  0  0  0
   -4.2990   -0.9490   -1.0650 C   0  0  0  0  0  0  0  0  0  0  0  0
   -3.5900   -1.5000   -2.1250 O   0  0  0  0  0  0  0  0  0  0  0  0
    2.5370   -0.2810   -0.5520 O   0  0  0  0  0  0  0  0  0  0  0  0
  2  1  1  6
  2  3  1  0
  2 20  1  0
  3  4  1  0
  4  5  1  0
  5  6  1  1
  5  7  1  0
  5 20  1  0
  7  8  1  6
  7  9  1  0
  9 10  1  6
  9 11  1  0
 11 12  1  0
 12 13  2  0
 12 14  1  0
 14 15  1  1
 14 16  1  0
 14 18  1  0
 16 17  1  0
 18 19  1  0
M  END
