
     RDKit          3D

 20 20  0  0  0  0  0  0  0  0999 V2000
   -1.1200   -1.8720   -0.2860 C   0  0  0  0  0  0  0  0  0  0  0  0
   -2.0660   -0.8250    0.2030 C   0  0  1  0  0  0  0  0  0  0  0  0
   -2.8450   -0.4450   -0.9020 O   0  0  0  0  0  0  0  0  0  0  0  0
   -3.0390   -1.5400    1.1740 C   0  0  0  0  0  0  0  0  0  0  0  0
   -4.0570   -0.6860    1.5610 O   0  0  0  0  0  0  0  0  0  0  0  0
   -1.5160    0.3210    0.9460 C   0  0  0  0  0  0  0  0  0  0  0  0
   -0.6630    1.2400    0.2760 N   0  0  0  0  0  0  0  0  0  0  0  0
   -1.2800    2.3190   -0.5290 C   0  0  0  0  0  0  0  0  0  0  0  0
   -1.5020    3.5300    0.3510 C   0  0  0  0  0  0  0  0  0  0  0  0
   -2.0820    4.5250   -0.4280 O   0  0  0  0  0  0  0  0  0  0  0  0
    0.7460    1.2330    0.3010 C   0  0  0  0  0  0  0  0  0  0  0  0
    1.3140    2.1550   -0.4200 O   0  0  0  0  0  0  0  0  0  0  0  0
    1.6220    0.3160    1.0500 C   0  0  2  0  0  0  0  0  0  0  0  0
    2.9480    0.7780    1.0070 O   0  0  0  0  0  0  0  0  0  0  0  0
    3.4040    0.3960   -0.2270 C   0  0  0  0  0  0  0  0  0  0  0  0
    2.7310   -0.9360   -0.4410 C   0  0  1  0  0  0  0  0  0  0  0  0
    2.2200   -1.0870   -1.7060 O   0  0  0  0  0  0  0  0  0  0  0  0
    3.7620   -2.0350   -0.2300 C   0  0  0  0  0  0  0  0  0  0  0  0
    3.1020   -3.2490   -0.3710 O   0  0  0  0  0  0  0  0  0  0  0  0
    1.7630   -0.9460    0.5290 O   0  0  0  0  0  0  0  0  0  0  0  0
  2  1  1  6
  2  3  1  0
  2  4  1  0
  2  6  1  0
  4  5  1  0
  6  7  1  0
  7  8  1  0
  7 11  1  0
  8  9  1  0
  9 10  1  0
 11 12  2  0
 13 11  1  6
 13 14  1  0
 13 20  1  0
 14 15  1  0
 15 16  1  0
 16 17  1  6
 16 18  1  0
 16 20  1  0
 18 19  1  0
M  END
