
     RDKit          3D

 20 20  0  0  0  0  0  0  0  0999 V2000
    1.9750   -2.0670   -0.1900 N   0  0  0  0  0  0  0  0  0  0  0  0
    1.8750   -0.6560   -0.4710 C   0  0  2  0  0  0  0  0  0  0  0  0
    3.0150    0.0340   -0.0590 O   0  0  0  0  0  0  0  0  0  0  0  0
    3.6190    0.6850   -1.1360 C   0  0  0  0  0  0  0  0  0  0  0  0
    4.8430    1.4120   -0.6290 C   0  0  0  0  0  0  0  0  0  0  0  0
    4.4520    2.3370    0.3370 O   0  0  0  0  0  0  0  0  0  0  0  0
    0.7910   -0.0820    0.1930 O   0  0  0  0  0  0  0  0  0  0  0  0
   -0.1050    0.5100   -0.6680 C   0  0  2  0  0  0  0  0  0  0  0  0
   -0.6860    1.8210   -0.1830 C   0  0  0  0  0  0  0  0  0  0  0  0
   -1.7310    1.0050    0.5870 C   0  0  2  0  0  0  0  0  0  0  0  0
   -1.2820    0.7910    1.8870 O   0  0  0  0  0  0  0  0  0  0  0  0
   -2.0630    1.2500    2.9380 C   0  0  0  0  0  0  0  0  0  0  0  0
   -3.1630    1.8520    2.6860 O   0  0  0  0  0  0  0  0  0  0  0  0
   -1.7360    1.1030    4.2680 O   0  0  0  0  0  0  0  0  0  0  0  0
   -1.5130   -0.0930   -0.4090 C   0  0  1  0  0  0  0  0  0  0  0  0
   -2.4120    0.1030   -1.6010 C   0  0  0  0  0  0  0  0  0  0  0  0
   -3.6520   -0.4210   -1.3290 O   0  0  0  0  0  0  0  0  0  0  0  0
   -1.3910   -1.4750    0.1140 C   0  0  0  0  0  0  0  0  0  0  0  0
   -2.6790   -2.1880    0.4120 C   0  0  0  0  0  0  0  0  0  0  0  0
   -2.3170   -3.4550    0.9260 O   0  0  0  0  0  0  0  0  0  0  0  0
  2  1  1  1
  2  3  1  0
  2  7  1  0
  3  4  1  0
  4  5  1  0
  5  6  1  0
  8  7  1  1
  8  9  1  0
  8 15  1  0
  9 10  1  0
 10 11  1  1
 10 15  1  0
 11 12  1  0
 12 13  2  0
 12 14  1  0
 15 16  1  6
 15 18  1  0
 16 17  1  0
 18 19  1  0
 19 20  1  0
M  END
