
     RDKit          3D

 20 20  0  0  0  0  0  0  0  0999 V2000
    0.6620    1.4070    1.6030 O   0  0  0  0  0  0  0  0  0  0  0  0
    1.9080    1.3940    1.6720 C   0  0  0  0  0  0  0  0  0  0  0  0
    2.5400    2.4620    2.2830 O   0  0  0  0  0  0  0  0  0  0  0  0
    2.6760    0.2980    1.1310 C   0  0  2  0  0  0  0  0  0  0  0  0
    3.6650    0.7000    0.0250 C   0  0  0  0  0  0  0  0  0  0  0  0
    4.2420   -0.6920   -0.2780 C   0  0  0  0  0  0  0  0  0  0  0  0
    3.0480   -1.5710   -0.0670 C   0  0  0  0  0  0  0  0  0  0  0  0
    2.9760   -2.8120   -0.2860 O   0  0  0  0  0  0  0  0  0  0  0  0
    1.9620   -0.7370    0.4410 N   0  0  0  0  0  0  0  0  0  0  0  0
    0.5920   -1.0460    0.2120 C   0  0  0  0  0  0  0  0  0  0  0  0
    0.0240   -0.4680   -1.0750 C   0  0  1  0  0  0  0  0  0  0  0  0
    0.7830   -0.9430   -2.1690 O   0  0  0  0  0  0  0  0  0  0  0  0
   -1.3620   -1.1030   -1.2400 C   0  0  1  0  0  0  0  0  0  0  0  0
   -1.1790   -2.5230   -1.1590 O   0  0  0  0  0  0  0  0  0  0  0  0
   -2.3710   -0.6710   -0.2290 C   0  0  2  0  0  0  0  0  0  0  0  0
   -3.5590   -1.4510   -0.4760 O   0  0  0  0  0  0  0  0  0  0  0  0
   -2.7950    0.7860   -0.3620 C   0  0  2  0  0  0  0  0  0  0  0  0
   -1.8020    1.7030   -0.1440 O   0  0  0  0  0  0  0  0  0  0  0  0
   -3.8810    1.0440    0.6770 C   0  0  0  0  0  0  0  0  0  0  0  0
   -4.3980    2.3190    0.5690 O   0  0  0  0  0  0  0  0  0  0  0  0
  1  2  2  0
  2  3  1  0
  4  2  1  6
  4  5  1  0
  4  9  1  0
  5  6  1  0
  6  7  1  0
  7  8  2  0
  7  9  1  0
  9 10  1  0
 10 11  1  0
 11 12  1  6
 11 13  1  0
 13 14  1  1
 13 15  1  0
 15 16  1  6
 15 17  1  0
 17 18  1  1
 17 19  1  0
 19 20  1  0
M  END
